
 OpenBabel03242520013D

 29 31  0  0  0  0  0  0  0  0999 V2000
   39.2290   27.2260   39.5920 Br  0  0  0  0  0  0  0  0  0  0  0  0
   38.3550   27.5000   41.2520 C   0  0  0  0  0  0  0  0  0  0  0  0
   37.5540   26.5360   41.8340 C   0  0  0  0  0  0  0  0  0  0  0  0
   36.9420   26.8330   43.0430 C   0  0  0  0  0  0  0  0  0  0  0  0
   37.1040   28.0480   43.6800 C   0  0  0  0  0  0  0  0  0  0  0  0
   37.9090   29.0170   43.0980 C   0  0  0  0  0  0  0  0  0  0  0  0
   38.5060   28.6980   41.8970 C   0  0  0  0  0  0  0  0  0  0  0  0
   36.3440   26.0020   43.3940 H   0  0  0  0  0  0  0  0  0  0  0  0
   36.5840   28.1880   44.6230 H   0  0  0  0  0  0  0  0  0  0  0  0
   38.0310   29.9660   43.6040 H   0  0  0  0  0  0  0  0  0  0  0  0
   39.3440   29.7250   41.3400 C   0  0  0  0  0  0  0  0  0  0  0  0
   40.5950   29.8040   41.6770 O   0  0  0  0  0  0  0  0  0  0  0  0
   39.2540   30.8110   40.4330 N   0  0  0  0  0  0  0  0  0  0  0  0
   39.2270   31.9360   41.3830 C   0  0  0  0  0  3  0  0  0  0  0  0
   38.3460   31.8930   42.0620 H   0  0  0  0  0  0  0  0  0  0  0  0
   38.9660   33.1930   40.5430 C   0  0  0  0  0  3  0  0  0  0  0  0
   38.9700   34.0520   41.2630 H   0  0  0  0  0  0  0  0  0  0  0  0
   39.9700   33.4490   39.6400 O   0  0  0  0  0  0  0  0  0  0  0  0
   40.3110   32.3090   38.9060 C   0  0  0  0  0  2  0  0  0  0  0  0
   39.1970   31.2560   39.0330 C   0  0  0  0  0  2  0  0  0  0  0  0
   37.9830   22.9520   40.7260 C   0  0  0  0  0  0  0  0  0  0  0  0
   38.1710   24.1470   41.4450 C   0  0  0  0  0  0  0  0  0  0  0  0
   37.4230   25.2560   41.1380 C   0  0  0  0  0  0  0  0  0  0  0  0
   36.5200   25.1020   40.1160 N   0  0  0  0  0  0  0  0  0  0  0  0
   36.3560   23.9600   39.4460 C   0  0  0  0  0  0  0  0  0  0  0  0
   37.0690   22.8890   39.7340 N   0  0  0  0  0  0  0  0  0  0  0  0
   38.5930   22.0820   40.9930 H   0  0  0  0  0  0  0  0  0  0  0  0
   38.8730   24.2550   42.2340 H   0  0  0  0  0  0  0  0  0  0  0  0
   35.6000   24.0600   38.6910 H   0  0  0  0  0  0  0  0  0  0  0  0
  1  2  1  0  0  0  0
  2  3  2  0  0  0  0
  2  7  1  0  0  0  0
  3  4  1  0  0  0  0
  4  8  1  0  0  0  0
  4  5  2  0  0  0  0
  5  9  1  0  0  0  0
  6 10  1  0  0  0  0
  6  5  1  0  0  0  0
  7  6  2  0  0  0  0
 11 12  2  0  0  0  0
 11  7  1  0  0  0  0
 13 11  1  0  0  0  0
 13 14  1  0  0  0  0
 14 15  1  0  0  0  0
 16 17  1  0  0  0  0
 16 14  1  0  0  0  0
 18 16  1  0  0  0  0
 19 20  1  0  0  0  0
 19 18  1  0  0  0  0
 20 13  1  0  0  0  0
 21 27  1  0  0  0  0
 21 22  1  0  0  0  0
 22 28  1  0  0  0  0
 23 22  2  0  0  0  0
 23  3  1  0  0  0  0
 24 23  1  0  0  0  0
 25 26  1  0  0  0  0
 25 24  2  0  0  0  0
 26 21  2  0  0  0  0
 29 25  1  0  0  0  0
M  END
>  <minimizedAffinity>
-5.24803925

$$$$

 OpenBabel03242520013D

 29 31  0  0  0  0  0  0  0  0999 V2000
   36.5260   26.6330   39.0890 Br  0  0  0  0  0  0  0  0  0  0  0  0
   36.5370   28.3710   39.8470 C   0  0  0  0  0  0  0  0  0  0  0  0
   36.1400   29.4890   39.1380 C   0  0  0  0  0  0  0  0  0  0  0  0
   36.1970   30.7220   39.7690 C   0  0  0  0  0  0  0  0  0  0  0  0
   36.6340   30.8710   41.0710 C   0  0  0  0  0  0  0  0  0  0  0  0
   37.0320   29.7500   41.7860 C   0  0  0  0  0  0  0  0  0  0  0  0
   36.9660   28.5360   41.1360 C   0  0  0  0  0  0  0  0  0  0  0  0
   35.8620   31.5150   39.1140 H   0  0  0  0  0  0  0  0  0  0  0  0
   36.6440   31.8770   41.4810 H   0  0  0  0  0  0  0  0  0  0  0  0
   37.3710   29.8750   42.8050 H   0  0  0  0  0  0  0  0  0  0  0  0
   37.3710   27.4010   41.9200 C   0  0  0  0  0  0  0  0  0  0  0  0
   36.5730   26.9030   42.8130 O   0  0  0  0  0  0  0  0  0  0  0  0
   38.4840   26.5340   42.0590 N   0  0  0  0  0  0  0  0  0  0  0  0
   39.0700   27.0680   43.3000 C   0  0  0  0  0  3  0  0  0  0  0  0
   39.3860   28.1300   43.1930 H   0  0  0  0  0  0  0  0  0  0  0  0
   40.3960   26.3220   43.4980 C   0  0  0  0  0  3  0  0  0  0  0  0
   40.8300   26.7110   44.4550 H   0  0  0  0  0  0  0  0  0  0  0  0
   40.2250   24.9700   43.6800 O   0  0  0  0  0  0  0  0  0  0  0  0
   39.3770   24.4200   42.7140 C   0  0  0  0  0  2  0  0  0  0  0  0
   39.2390   25.3900   41.5280 C   0  0  0  0  0  2  0  0  0  0  0  0
   34.0010   28.7640   36.1110 C   0  0  0  0  0  0  0  0  0  0  0  0
   34.3760   28.9380   37.4560 C   0  0  0  0  0  0  0  0  0  0  0  0
   35.6660   29.2880   37.7680 C   0  0  0  0  0  0  0  0  0  0  0  0
   36.5160   29.4440   36.7010 N   0  0  0  0  0  0  0  0  0  0  0  0
   36.1410   29.2740   35.4320 C   0  0  0  0  0  0  0  0  0  0  0  0
   34.9050   28.9390   35.1220 N   0  0  0  0  0  0  0  0  0  0  0  0
   32.9650   28.4850   35.8910 H   0  0  0  0  0  0  0  0  0  0  0  0
   33.7110   28.8150   38.2740 H   0  0  0  0  0  0  0  0  0  0  0  0
   36.9610   29.4460   34.7610 H   0  0  0  0  0  0  0  0  0  0  0  0
  1  2  1  0  0  0  0
  2  7  1  0  0  0  0
  3  4  1  0  0  0  0
  3  2  2  0  0  0  0
  4  5  2  0  0  0  0
  5  9  1  0  0  0  0
  5  6  1  0  0  0  0
  6 10  1  0  0  0  0
  7  6  2  0  0  0  0
  7 11  1  0  0  0  0
  8  4  1  0  0  0  0
 11 13  1  0  0  0  0
 11 12  2  0  0  0  0
 13 14  1  0  0  0  0
 14 16  1  0  0  0  0
 15 14  1  0  0  0  0
 16 18  1  0  0  0  0
 16 17  1  0  0  0  0
 19 18  1  0  0  0  0
 20 13  1  0  0  0  0
 20 19  1  0  0  0  0
 21 22  1  0  0  0  0
 22 23  2  0  0  0  0
 22 28  1  0  0  0  0
 23  3  1  0  0  0  0
 24 23  1  0  0  0  0
 25 24  2  0  0  0  0
 26 25  1  0  0  0  0
 26 21  2  0  0  0  0
 27 21  1  0  0  0  0
 29 25  1  0  0  0  0
M  END
>  <minimizedAffinity>
-5.24387264

$$$$

 OpenBabel03242520013D

 29 31  0  0  0  0  0  0  0  0999 V2000
   40.5190   29.9430   41.3820 Br  0  0  0  0  0  0  0  0  0  0  0  0
   39.0550   30.9850   40.7780 C   0  0  0  0  0  0  0  0  0  0  0  0
   37.7440   30.5690   40.9180 C   0  0  0  0  0  0  0  0  0  0  0  0
   36.7390   31.3900   40.4310 C   0  0  0  0  0  0  0  0  0  0  0  0
   37.0000   32.6000   39.8170 C   0  0  0  0  0  0  0  0  0  0  0  0
   38.3140   33.0210   39.6770 C   0  0  0  0  0  0  0  0  0  0  0  0
   39.2950   32.1870   40.1690 C   0  0  0  0  0  0  0  0  0  0  0  0
   35.7630   30.9570   40.5980 H   0  0  0  0  0  0  0  0  0  0  0  0
   36.1460   33.1750   39.4670 H   0  0  0  0  0  0  0  0  0  0  0  0
   38.5100   33.9700   39.1960 H   0  0  0  0  0  0  0  0  0  0  0  0
   40.6410   32.6710   40.0180 C   0  0  0  0  0  0  0  0  0  0  0  0
   41.1730   33.4220   40.9320 O   0  0  0  0  0  0  0  0  0  0  0  0
   41.7140   32.5900   39.0960 N   0  0  0  0  0  0  0  0  0  0  0  0
   41.6140   33.9200   38.4710 C   0  0  0  0  0  3  0  0  0  0  0  0
   40.6400   34.0710   37.9560 H   0  0  0  0  0  0  0  0  0  0  0  0
   42.6290   33.9250   37.3200 C   0  0  0  0  0  3  0  0  0  0  0  0
   42.5700   34.9450   36.8600 H   0  0  0  0  0  0  0  0  0  0  0  0
   43.9260   33.7750   37.7500 O   0  0  0  0  0  0  0  0  0  0  0  0
   44.0550   32.7100   38.6470 C   0  0  0  0  0  2  0  0  0  0  0  0
   42.8230   31.7950   38.5500 C   0  0  0  0  0  2  0  0  0  0  0  0
   37.0670   26.9260   41.6450 C   0  0  0  0  0  0  0  0  0  0  0  0
   37.2860   28.1130   40.9220 C   0  0  0  0  0  0  0  0  0  0  0  0
   37.5090   29.2910   41.5900 C   0  0  0  0  0  0  0  0  0  0  0  0
   37.4990   29.2100   42.9610 N   0  0  0  0  0  0  0  0  0  0  0  0
   37.2900   28.0740   43.6280 C   0  0  0  0  0  0  0  0  0  0  0  0
   37.0760   26.9380   42.9960 N   0  0  0  0  0  0  0  0  0  0  0  0
   36.8920   26.0000   41.0860 H   0  0  0  0  0  0  0  0  0  0  0  0
   37.2910   28.1650   39.8620 H   0  0  0  0  0  0  0  0  0  0  0  0
   37.3250   28.2370   44.6890 H   0  0  0  0  0  0  0  0  0  0  0  0
  2  3  1  0  0  0  0
  2  1  1  0  0  0  0
  3 23  1  0  0  0  0
  4  8  1  0  0  0  0
  4  3  2  0  0  0  0
  5  4  1  0  0  0  0
  6  5  2  0  0  0  0
  6  7  1  0  0  0  0
  7  2  2  0  0  0  0
  9  5  1  0  0  0  0
 10  6  1  0  0  0  0
 11  7  1  0  0  0  0
 11 12  2  0  0  0  0
 13 11  1  0  0  0  0
 14 13  1  0  0  0  0
 15 14  1  0  0  0  0
 16 18  1  0  0  0  0
 16 14  1  0  0  0  0
 17 16  1  0  0  0  0
 18 19  1  0  0  0  0
 20 19  1  0  0  0  0
 20 13  1  0  0  0  0
 21 26  1  0  0  0  0
 22 23  1  0  0  0  0
 22 21  2  0  0  0  0
 23 24  2  0  0  0  0
 24 25  1  0  0  0  0
 25 29  1  0  0  0  0
 26 25  2  0  0  0  0
 27 21  1  0  0  0  0
 28 22  1  0  0  0  0
M  END
>  <minimizedAffinity>
-5.23973989

$$$$

 OpenBabel03242520013D

 29 31  0  0  0  0  0  0  0  0999 V2000
   38.9340   29.8570   41.7860 Br  0  0  0  0  0  0  0  0  0  0  0  0
   37.7010   29.7680   40.3490 C   0  0  0  0  0  0  0  0  0  0  0  0
   37.5580   30.7930   39.4330 C   0  0  0  0  0  0  0  0  0  0  0  0
   36.6180   30.6460   38.4240 C   0  0  0  0  0  0  0  0  0  0  0  0
   35.8270   29.5200   38.3040 C   0  0  0  0  0  0  0  0  0  0  0  0
   35.9690   28.4890   39.2210 C   0  0  0  0  0  0  0  0  0  0  0  0
   36.9090   28.6590   40.2140 C   0  0  0  0  0  0  0  0  0  0  0  0
   36.6020   31.5110   37.7750 H   0  0  0  0  0  0  0  0  0  0  0  0
   35.1180   29.4960   37.4810 H   0  0  0  0  0  0  0  0  0  0  0  0
   35.3460   27.6110   39.1190 H   0  0  0  0  0  0  0  0  0  0  0  0
   37.0350   27.5590   41.1320 C   0  0  0  0  0  0  0  0  0  0  0  0
   36.5670   27.6560   42.3390 O   0  0  0  0  0  0  0  0  0  0  0  0
   37.5580   26.2430   41.1660 N   0  0  0  0  0  0  0  0  0  0  0  0
   38.7920   26.4780   41.9360 C   0  0  0  0  0  3  0  0  0  0  0  0
   39.4820   27.1820   41.4210 H   0  0  0  0  0  0  0  0  0  0  0  0
   39.5610   25.1500   41.9190 C   0  0  0  0  0  3  0  0  0  0  0  0
   40.4870   25.3220   42.5260 H   0  0  0  0  0  0  0  0  0  0  0  0
   38.8810   24.1310   42.5420 O   0  0  0  0  0  0  0  0  0  0  0  0
   37.5550   24.0500   42.1080 C   0  0  0  0  0  2  0  0  0  0  0  0
   37.3890   24.8310   40.7930 C   0  0  0  0  0  2  0  0  0  0  0  0
   38.9720   34.1610   40.3880 C   0  0  0  0  0  0  0  0  0  0  0  0
   38.0760   33.0810   40.2920 C   0  0  0  0  0  0  0  0  0  0  0  0
   38.4280   31.9600   39.5830 C   0  0  0  0  0  0  0  0  0  0  0  0
   39.6730   31.9870   39.0040 N   0  0  0  0  0  0  0  0  0  0  0  0
   40.5080   33.0220   39.1060 C   0  0  0  0  0  0  0  0  0  0  0  0
   40.1800   34.1030   39.7860 N   0  0  0  0  0  0  0  0  0  0  0  0
   38.6650   35.0440   40.9600 H   0  0  0  0  0  0  0  0  0  0  0  0
   37.1160   33.0700   40.7440 H   0  0  0  0  0  0  0  0  0  0  0  0
   41.4240   32.8330   38.5800 H   0  0  0  0  0  0  0  0  0  0  0  0
  2  1  1  0  0  0  0
  3 23  1  0  0  0  0
  3  2  2  0  0  0  0
  4  3  1  0  0  0  0
  5  4  2  0  0  0  0
  5  6  1  0  0  0  0
  6  7  2  0  0  0  0
  7  2  1  0  0  0  0
  7 11  1  0  0  0  0
  8  4  1  0  0  0  0
  9  5  1  0  0  0  0
 10  6  1  0  0  0  0
 11 13  1  0  0  0  0
 11 12  2  0  0  0  0
 13 14  1  0  0  0  0
 15 14  1  0  0  0  0
 16 14  1  0  0  0  0
 16 17  1  0  0  0  0
 16 18  1  0  0  0  0
 19 18  1  0  0  0  0
 20 13  1  0  0  0  0
 20 19  1  0  0  0  0
 21 27  1  0  0  0  0
 22 21  1  0  0  0  0
 22 28  1  0  0  0  0
 23 22  2  0  0  0  0
 24 25  2  0  0  0  0
 24 23  1  0  0  0  0
 25 26  1  0  0  0  0
 26 21  2  0  0  0  0
 29 25  1  0  0  0  0
M  END
>  <minimizedAffinity>
-5.23858404

$$$$

 OpenBabel03242520013D

 29 31  0  0  0  0  0  0  0  0999 V2000
   38.2710   28.4010   39.1500 Br  0  0  0  0  0  0  0  0  0  0  0  0
   37.7600   28.1230   40.9550 C   0  0  0  0  0  0  0  0  0  0  0  0
   37.7880   29.1360   41.8950 C   0  0  0  0  0  0  0  0  0  0  0  0
   37.4120   28.8350   43.1950 C   0  0  0  0  0  0  0  0  0  0  0  0
   37.0130   27.5700   43.5800 C   0  0  0  0  0  0  0  0  0  0  0  0
   36.9820   26.5520   42.6380 C   0  0  0  0  0  0  0  0  0  0  0  0
   37.3610   26.8760   41.3530 C   0  0  0  0  0  0  0  0  0  0  0  0
   37.4760   29.7060   43.8330 H   0  0  0  0  0  0  0  0  0  0  0  0
   36.7370   27.4300   44.6220 H   0  0  0  0  0  0  0  0  0  0  0  0
   36.6680   25.5640   42.9470 H   0  0  0  0  0  0  0  0  0  0  0  0
   37.2980   25.7950   40.4060 C   0  0  0  0  0  0  0  0  0  0  0  0
   36.2460   25.6360   39.6630 O   0  0  0  0  0  0  0  0  0  0  0  0
   38.0970   24.7160   39.9530 N   0  0  0  0  0  0  0  0  0  0  0  0
   37.4260   23.5970   40.6380 C   0  0  0  0  0  3  0  0  0  0  0  0
   37.4620   23.6990   41.7450 H   0  0  0  0  0  0  0  0  0  0  0  0
   38.2890   22.3570   40.3680 C   0  0  0  0  0  3  0  0  0  0  0  0
   37.7660   21.5010   40.8680 H   0  0  0  0  0  0  0  0  0  0  0  0
   38.3560   22.0340   39.0340 O   0  0  0  0  0  0  0  0  0  0  0  0
   38.6610   23.1470   38.2450 C   0  0  0  0  0  2  0  0  0  0  0  0
   39.2290   24.2710   39.1280 C   0  0  0  0  0  2  0  0  0  0  0  0
   39.7810   32.2510   41.1360 C   0  0  0  0  0  0  0  0  0  0  0  0
   39.4690   30.9600   41.5980 C   0  0  0  0  0  0  0  0  0  0  0  0
   38.1980   30.4660   41.4440 C   0  0  0  0  0  0  0  0  0  0  0  0
   37.3020   31.3050   40.8290 N   0  0  0  0  0  0  0  0  0  0  0  0
   37.6180   32.5280   40.3970 C   0  0  0  0  0  0  0  0  0  0  0  0
   38.8360   33.0110   40.5400 N   0  0  0  0  0  0  0  0  0  0  0  0
   40.8040   32.6200   41.2710 H   0  0  0  0  0  0  0  0  0  0  0  0
   40.1690   30.3190   42.0720 H   0  0  0  0  0  0  0  0  0  0  0  0
   36.7710   33.0100   39.9480 H   0  0  0  0  0  0  0  0  0  0  0  0
  1  2  1  0  0  0  0
  2  7  2  0  0  0  0
  2  3  1  0  0  0  0
  3  4  2  0  0  0  0
  4  5  1  0  0  0  0
  4  8  1  0  0  0  0
  5  9  1  0  0  0  0
  6 10  1  0  0  0  0
  6  5  2  0  0  0  0
  7  6  1  0  0  0  0
 11  7  1  0  0  0  0
 12 11  2  0  0  0  0
 13 11  1  0  0  0  0
 13 14  1  0  0  0  0
 14 15  1  0  0  0  0
 16 14  1  0  0  0  0
 16 17  1  0  0  0  0
 18 16  1  0  0  0  0
 19 18  1  0  0  0  0
 19 20  1  0  0  0  0
 20 13  1  0  0  0  0
 21 27  1  0  0  0  0
 21 22  1  0  0  0  0
 22 28  1  0  0  0  0
 23 22  2  0  0  0  0
 23  3  1  0  0  0  0
 24 23  1  0  0  0  0
 25 26  1  0  0  0  0
 25 24  2  0  0  0  0
 26 21  2  0  0  0  0
 29 25  1  0  0  0  0
M  END
>  <minimizedAffinity>
-5.16882038

$$$$

 OpenBabel03242520013D

 29 31  0  0  0  0  0  0  0  0999 V2000
   37.5430   27.0750   39.9400 Br  0  0  0  0  0  0  0  0  0  0  0  0
   38.5250   26.4350   41.4300 C   0  0  0  0  0  0  0  0  0  0  0  0
   38.7740   25.0900   41.6280 C   0  0  0  0  0  0  0  0  0  0  0  0
   39.4870   24.7130   42.7560 C   0  0  0  0  0  0  0  0  0  0  0  0
   39.9550   25.6280   43.6800 C   0  0  0  0  0  0  0  0  0  0  0  0
   39.7080   26.9790   43.4820 C   0  0  0  0  0  0  0  0  0  0  0  0
   38.9970   27.3270   42.3540 C   0  0  0  0  0  0  0  0  0  0  0  0
   39.6150   23.6400   42.7990 H   0  0  0  0  0  0  0  0  0  0  0  0
   40.5040   25.2380   44.5320 H   0  0  0  0  0  0  0  0  0  0  0  0
   40.0790   27.6890   44.2090 H   0  0  0  0  0  0  0  0  0  0  0  0
   38.7800   28.7380   42.1800 C   0  0  0  0  0  0  0  0  0  0  0  0
   39.0870   29.5700   43.1270 O   0  0  0  0  0  0  0  0  0  0  0  0
   38.2860   29.6360   41.2010 N   0  0  0  0  0  0  0  0  0  0  0  0
   36.9590   29.9300   41.7690 C   0  0  0  0  0  3  0  0  0  0  0  0
   36.3250   29.0190   41.8500 H   0  0  0  0  0  0  0  0  0  0  0  0
   36.2280   30.7800   40.7220 C   0  0  0  0  0  3  0  0  0  0  0  0
   35.2280   31.0240   41.1650 H   0  0  0  0  0  0  0  0  0  0  0  0
   36.8450   31.9860   40.4890 O   0  0  0  0  0  0  0  0  0  0  0  0
   38.2170   31.8330   40.2710 C   0  0  0  0  0  2  0  0  0  0  0  0
   38.5330   30.3630   39.9470 C   0  0  0  0  0  2  0  0  0  0  0  0
   36.6050   22.7530   39.6060 C   0  0  0  0  0  0  0  0  0  0  0  0
   37.0020   23.6490   40.6150 C   0  0  0  0  0  0  0  0  0  0  0  0
   38.2780   24.1540   40.6190 C   0  0  0  0  0  0  0  0  0  0  0  0
   39.0920   23.7260   39.5990 N   0  0  0  0  0  0  0  0  0  0  0  0
   38.6960   22.8750   38.6510 C   0  0  0  0  0  0  0  0  0  0  0  0
   37.4720   22.3850   38.6380 N   0  0  0  0  0  0  0  0  0  0  0  0
   35.5800   22.3650   39.6270 H   0  0  0  0  0  0  0  0  0  0  0  0
   36.3650   23.9730   41.3990 H   0  0  0  0  0  0  0  0  0  0  0  0
   39.4880   22.6770   37.9540 H   0  0  0  0  0  0  0  0  0  0  0  0
  1  2  1  0  0  0  0
  2  3  2  0  0  0  0
  2  7  1  0  0  0  0
  3  4  1  0  0  0  0
  4  8  1  0  0  0  0
  4  5  2  0  0  0  0
  5  9  1  0  0  0  0
  6  5  1  0  0  0  0
  6 10  1  0  0  0  0
  7  6  2  0  0  0  0
 11  7  1  0  0  0  0
 11 12  2  0  0  0  0
 13 14  1  0  0  0  0
 13 11  1  0  0  0  0
 14 15  1  0  0  0  0
 16 17  1  0  0  0  0
 16 14  1  0  0  0  0
 18 16  1  0  0  0  0
 19 18  1  0  0  0  0
 20 19  1  0  0  0  0
 20 13  1  0  0  0  0
 21 27  1  0  0  0  0
 21 22  1  0  0  0  0
 22 23  2  0  0  0  0
 22 28  1  0  0  0  0
 23  3  1  0  0  0  0
 24 23  1  0  0  0  0
 25 24  2  0  0  0  0
 26 25  1  0  0  0  0
 26 21  2  0  0  0  0
 29 25  1  0  0  0  0
M  END
>  <minimizedAffinity>
-5.13504648

$$$$

 OpenBabel03242520013D

 29 31  0  0  0  0  0  0  0  0999 V2000
   36.1900   27.0410   38.4840 Br  0  0  0  0  0  0  0  0  0  0  0  0
   36.6060   26.9080   40.3290 C   0  0  0  0  0  0  0  0  0  0  0  0
   36.8930   25.7010   40.9370 C   0  0  0  0  0  0  0  0  0  0  0  0
   37.1690   25.6980   42.2960 C   0  0  0  0  0  0  0  0  0  0  0  0
   37.1680   26.8520   43.0560 C   0  0  0  0  0  0  0  0  0  0  0  0
   36.8820   28.0660   42.4480 C   0  0  0  0  0  0  0  0  0  0  0  0
   36.6100   28.0410   41.0970 C   0  0  0  0  0  0  0  0  0  0  0  0
   37.3760   24.6990   42.6520 H   0  0  0  0  0  0  0  0  0  0  0  0
   37.3970   26.7500   44.1140 H   0  0  0  0  0  0  0  0  0  0  0  0
   36.8840   28.9640   43.0510 H   0  0  0  0  0  0  0  0  0  0  0  0
   36.3360   29.3230   40.5060 C   0  0  0  0  0  0  0  0  0  0  0  0
   35.1150   29.6780   40.2490 O   0  0  0  0  0  0  0  0  0  0  0  0
   37.0370   30.4710   40.0580 N   0  0  0  0  0  0  0  0  0  0  0  0
   36.9740   30.2560   38.6020 C   0  0  0  0  0  3  0  0  0  0  0  0
   37.4840   29.3170   38.2930 H   0  0  0  0  0  0  0  0  0  0  0  0
   37.8430   31.3550   37.9740 C   0  0  0  0  0  3  0  0  0  0  0  0
   37.7750   31.2060   36.8660 H   0  0  0  0  0  0  0  0  0  0  0  0
   37.3630   32.6190   38.2190 O   0  0  0  0  0  0  0  0  0  0  0  0
   37.0610   32.8070   39.5710 C   0  0  0  0  0  2  0  0  0  0  0  0
   37.7380   31.7130   40.4130 C   0  0  0  0  0  2  0  0  0  0  0  0
   35.9120   22.5440   39.1120 C   0  0  0  0  0  0  0  0  0  0  0  0
   35.8200   23.6760   39.9430 C   0  0  0  0  0  0  0  0  0  0  0  0
   36.9020   24.5050   40.0940 C   0  0  0  0  0  0  0  0  0  0  0  0
   38.0290   24.1480   39.3950 N   0  0  0  0  0  0  0  0  0  0  0  0
   38.0970   23.0700   38.6120 C   0  0  0  0  0  0  0  0  0  0  0  0
   37.0620   22.2680   38.4600 N   0  0  0  0  0  0  0  0  0  0  0  0
   35.0320   21.8990   39.0100 H   0  0  0  0  0  0  0  0  0  0  0  0
   34.9430   23.9430   40.4790 H   0  0  0  0  0  0  0  0  0  0  0  0
   39.0670   22.9790   38.1620 H   0  0  0  0  0  0  0  0  0  0  0  0
  1  2  1  0  0  0  0
  2  3  2  0  0  0  0
  2  7  1  0  0  0  0
  3  4  1  0  0  0  0
  4  8  1  0  0  0  0
  4  5  2  0  0  0  0
  5  9  1  0  0  0  0
  6 10  1  0  0  0  0
  6  5  1  0  0  0  0
  7  6  2  0  0  0  0
 11  7  1  0  0  0  0
 12 11  2  0  0  0  0
 13 20  1  0  0  0  0
 13 11  1  0  0  0  0
 14 13  1  0  0  0  0
 15 14  1  0  0  0  0
 16 18  1  0  0  0  0
 16 14  1  0  0  0  0
 17 16  1  0  0  0  0
 18 19  1  0  0  0  0
 19 20  1  0  0  0  0
 21 22  1  0  0  0  0
 22 23  2  0  0  0  0
 22 28  1  0  0  0  0
 23  3  1  0  0  0  0
 24 23  1  0  0  0  0
 25 24  2  0  0  0  0
 26 25  1  0  0  0  0
 26 21  2  0  0  0  0
 27 21  1  0  0  0  0
 29 25  1  0  0  0  0
M  END
>  <minimizedAffinity>
-5.12037754

$$$$

 OpenBabel03242520013D

 29 31  0  0  0  0  0  0  0  0999 V2000
   40.9530   30.1810   39.6430 Br  0  0  0  0  0  0  0  0  0  0  0  0
   39.5300   31.4300   39.7420 C   0  0  0  0  0  0  0  0  0  0  0  0
   39.7150   32.7810   39.5180 C   0  0  0  0  0  0  0  0  0  0  0  0
   38.6180   33.6220   39.6290 C   0  0  0  0  0  0  0  0  0  0  0  0
   37.3570   33.1600   39.9520 C   0  0  0  0  0  0  0  0  0  0  0  0
   37.1680   31.8030   40.1760 C   0  0  0  0  0  0  0  0  0  0  0  0
   38.2740   30.9890   40.0600 C   0  0  0  0  0  0  0  0  0  0  0  0
   38.8900   34.6500   39.4320 H   0  0  0  0  0  0  0  0  0  0  0  0
   36.5590   33.8940   40.0160 H   0  0  0  0  0  0  0  0  0  0  0  0
   36.1770   31.4500   40.4280 H   0  0  0  0  0  0  0  0  0  0  0  0
   38.0280   29.5900   40.2840 C   0  0  0  0  0  0  0  0  0  0  0  0
   37.5810   28.8410   39.3220 O   0  0  0  0  0  0  0  0  0  0  0  0
   38.1240   28.6350   41.3270 N   0  0  0  0  0  0  0  0  0  0  0  0
   36.7030   28.5120   41.6930 C   0  0  0  0  0  3  0  0  0  0  0  0
   36.2770   29.4740   42.0540 H   0  0  0  0  0  0  0  0  0  0  0  0
   36.6630   27.6170   42.9390 C   0  0  0  0  0  3  0  0  0  0  0  0
   35.5790   27.5030   43.2030 H   0  0  0  0  0  0  0  0  0  0  0  0
   37.1310   26.3470   42.6990 O   0  0  0  0  0  0  0  0  0  0  0  0
   38.3560   26.3640   42.0250 C   0  0  0  0  0  2  0  0  0  0  0  0
   38.9900   27.7620   42.1330 C   0  0  0  0  0  2  0  0  0  0  0  0
   42.8050   33.8070   37.6060 C   0  0  0  0  0  0  0  0  0  0  0  0
   41.4920   33.3710   37.8650 C   0  0  0  0  0  0  0  0  0  0  0  0
   41.0610   33.2280   39.1600 C   0  0  0  0  0  0  0  0  0  0  0  0
   41.9820   33.5340   40.1320 N   0  0  0  0  0  0  0  0  0  0  0  0
   43.2220   33.9460   39.8660 C   0  0  0  0  0  0  0  0  0  0  0  0
   43.6450   34.0870   38.6250 N   0  0  0  0  0  0  0  0  0  0  0  0
   43.1220   33.9130   36.5620 H   0  0  0  0  0  0  0  0  0  0  0  0
   40.7890   33.1370   37.1060 H   0  0  0  0  0  0  0  0  0  0  0  0
   43.7710   34.1290   40.7690 H   0  0  0  0  0  0  0  0  0  0  0  0
  1  2  1  0  0  0  0
  2  7  1  0  0  0  0
  3  4  1  0  0  0  0
  3  2  2  0  0  0  0
  4  5  2  0  0  0  0
  5  9  1  0  0  0  0
  5  6  1  0  0  0  0
  6 10  1  0  0  0  0
  7  6  2  0  0  0  0
  7 11  1  0  0  0  0
  8  4  1  0  0  0  0
 11 13  1  0  0  0  0
 12 11  2  0  0  0  0
 13 14  1  0  0  0  0
 13 20  1  0  0  0  0
 14 15  1  0  0  0  0
 14 16  1  0  0  0  0
 16 17  1  0  0  0  0
 18 16  1  0  0  0  0
 19 20  1  0  0  0  0
 19 18  1  0  0  0  0
 21 22  2  0  0  0  0
 21 26  1  0  0  0  0
 22 23  1  0  0  0  0
 23  3  1  0  0  0  0
 23 24  2  0  0  0  0
 25 24  1  0  0  0  0
 25 29  1  0  0  0  0
 26 25  2  0  0  0  0
 27 21  1  0  0  0  0
 28 22  1  0  0  0  0
M  END
>  <minimizedAffinity>
-5.09188414

$$$$

 OpenBabel03242520013D

 29 31  0  0  0  0  0  0  0  0999 V2000
   38.2420   28.3660   39.1930 Br  0  0  0  0  0  0  0  0  0  0  0  0
   37.7550   28.1770   41.0160 C   0  0  0  0  0  0  0  0  0  0  0  0
   37.6710   29.2570   41.8740 C   0  0  0  0  0  0  0  0  0  0  0  0
   37.3230   29.0210   43.1960 C   0  0  0  0  0  0  0  0  0  0  0  0
   37.0590   27.7540   43.6800 C   0  0  0  0  0  0  0  0  0  0  0  0
   37.1400   26.6680   42.8200 C   0  0  0  0  0  0  0  0  0  0  0  0
   37.4880   26.9290   41.5120 C   0  0  0  0  0  0  0  0  0  0  0  0
   37.2920   29.9410   43.7640 H   0  0  0  0  0  0  0  0  0  0  0  0
   36.7940   27.6680   44.7300 H   0  0  0  0  0  0  0  0  0  0  0  0
   36.9310   25.6800   43.2070 H   0  0  0  0  0  0  0  0  0  0  0  0
   37.5440   25.7770   40.6530 C   0  0  0  0  0  0  0  0  0  0  0  0
   38.6840   25.3410   40.2150 O   0  0  0  0  0  0  0  0  0  0  0  0
   36.6640   24.8420   40.0520 N   0  0  0  0  0  0  0  0  0  0  0  0
   36.6560   25.3490   38.6700 C   0  0  0  0  0  3  0  0  0  0  0  0
   36.2600   26.3860   38.6040 H   0  0  0  0  0  0  0  0  0  0  0  0
   35.6050   24.5200   37.9200 C   0  0  0  0  0  3  0  0  0  0  0  0
   35.6160   24.8890   36.8620 H   0  0  0  0  0  0  0  0  0  0  0  0
   35.9230   23.1840   37.8600 O   0  0  0  0  0  0  0  0  0  0  0  0
   36.2880   22.6800   39.1130 C   0  0  0  0  0  2  0  0  0  0  0  0
   35.8250   23.6460   40.2170 C   0  0  0  0  0  2  0  0  0  0  0  0
   37.3340   32.6120   40.1740 C   0  0  0  0  0  0  0  0  0  0  0  0
   36.9930   31.3440   40.6800 C   0  0  0  0  0  0  0  0  0  0  0  0
   37.9400   30.5840   41.3190 C   0  0  0  0  0  0  0  0  0  0  0  0
   39.1900   31.1450   41.4160 N   0  0  0  0  0  0  0  0  0  0  0  0
   39.4930   32.3500   40.9300 C   0  0  0  0  0  0  0  0  0  0  0  0
   38.5910   33.0870   40.3140 N   0  0  0  0  0  0  0  0  0  0  0  0
   36.5580   33.1970   39.6680 H   0  0  0  0  0  0  0  0  0  0  0  0
   36.0240   30.9190   40.5990 H   0  0  0  0  0  0  0  0  0  0  0  0
   40.5220   32.5930   41.1140 H   0  0  0  0  0  0  0  0  0  0  0  0
  1  2  1  0  0  0  0
  2  7  2  0  0  0  0
  2  3  1  0  0  0  0
  3  4  2  0  0  0  0
  4  5  1  0  0  0  0
  4  8  1  0  0  0  0
  5  9  1  0  0  0  0
  6 10  1  0  0  0  0
  6  5  2  0  0  0  0
  7  6  1  0  0  0  0
 11  7  1  0  0  0  0
 12 11  2  0  0  0  0
 13 20  1  0  0  0  0
 13 11  1  0  0  0  0
 14 13  1  0  0  0  0
 15 14  1  0  0  0  0
 16 14  1  0  0  0  0
 17 16  1  0  0  0  0
 18 16  1  0  0  0  0
 18 19  1  0  0  0  0
 19 20  1  0  0  0  0
 21 26  2  0  0  0  0
 21 22  1  0  0  0  0
 22 23  2  0  0  0  0
 23 24  1  0  0  0  0
 23  3  1  0  0  0  0
 25 29  1  0  0  0  0
 25 24  2  0  0  0  0
 26 25  1  0  0  0  0
 27 21  1  0  0  0  0
 28 22  1  0  0  0  0
M  END
>  <minimizedAffinity>
-5.085917

$$$$
