
 OpenBabel03242515013D

 36 38  0  0  0  0  0  0  0  0999 V2000
   44.2270   34.7430   40.9920 S   0  0  0  0  0  0  0  0  0  0  0  0
   45.3830   34.3140   42.2940 C   0  0  0  0  0  0  0  0  0  0  0  0
   46.7320   34.2000   41.9200 C   0  0  0  0  0  0  0  0  0  0  0  0
   47.6700   33.8690   42.8980 C   0  0  0  0  0  0  0  0  0  0  0  0
   47.2210   33.6750   44.1560 N   0  0  0  0  0  0  0  0  0  0  0  0
   45.9320   33.7850   44.5140 C   0  0  0  0  0  0  0  0  0  0  0  0
   45.0320   34.1050   43.5670 N   0  0  0  0  0  0  0  0  0  0  0  0
   47.1130   34.3500   40.9190 H   0  0  0  0  0  0  0  0  0  0  0  0
   48.7150   33.7740   42.6360 H   0  0  0  0  0  0  0  0  0  0  0  0
   45.5530   33.5590   45.8900 C   0  0  0  0  0  0  0  0  0  0  0  0
   44.7930   34.3840   46.4510 O   0  0  0  0  0  0  0  0  0  0  0  0
   45.9620   32.4640   46.7010 N   0  0  0  0  0  0  0  0  0  0  0  0
   45.3380   31.1800   46.4410 C   0  0  0  0  0  3  0  0  0  0  0  0
   44.7220   31.1870   45.5430 H   0  0  0  0  0  0  0  0  0  0  0  0
   46.4850   30.1980   46.2020 C   0  0  0  0  0  3  0  0  0  0  0  0
   46.0330   29.1850   46.2570 H   0  0  0  0  0  0  0  0  0  0  0  0
   47.4420   30.2560   47.1840 O   0  0  0  0  0  0  0  0  0  0  0  0
   48.0190   31.4890   47.3620 C   0  0  0  0  0  2  0  0  0  0  0  0
   46.9450   32.5080   47.7660 C   0  0  0  0  0  2  0  0  0  0  0  0
   42.5200   34.5470   41.4970 C   0  0  0  0  0  0  0  0  0  0  0  0
   42.1360   33.5460   41.1420 H   0  0  0  0  0  0  0  0  0  0  0  0
   42.4060   34.5140   42.6160 H   0  0  0  0  0  0  0  0  0  0  0  0
   41.6050   35.5980   40.9640 C   0  0  0  0  0  0  0  0  0  0  0  0
   41.0410   36.0820   41.8110 H   0  0  0  0  0  0  0  0  0  0  0  0
   42.1510   36.4140   40.4500 H   0  0  0  0  0  0  0  0  0  0  0  0
   42.3050   35.8950   38.0150 Cl  0  0  0  0  0  0  0  0  0  0  0  0
   40.8690   35.1270   38.6080 C   0  0  0  0  0  0  0  0  0  0  0  0
   40.6440   35.0440   39.9890 C   0  0  0  0  0  0  0  0  0  0  0  0
   39.4790   34.4190   40.3790 C   0  0  0  0  0  0  0  0  0  0  0  0
   38.5140   33.8670   39.5500 C   0  0  0  0  0  0  0  0  0  0  0  0
   38.7640   33.9640   38.1880 C   0  0  0  0  0  0  0  0  0  0  0  0
   37.5900   33.2890   37.0640 Cl  0  0  0  0  0  0  0  0  0  0  0  0
   39.9130   34.5790   37.7460 C   0  0  0  0  0  0  0  0  0  0  0  0
   39.2970   34.3500   41.4500 H   0  0  0  0  0  0  0  0  0  0  0  0
   37.6360   33.4000   39.9760 H   0  0  0  0  0  0  0  0  0  0  0  0
   40.0810   34.6400   36.6720 H   0  0  0  0  0  0  0  0  0  0  0  0
  1 20  1  0  0  0  0
  1  2  1  0  0  0  0
  2  7  1  0  0  0  0
  3  2  2  0  0  0  0
  3  4  1  0  0  0  0
  4  5  2  0  0  0  0
  5  6  1  0  0  0  0
  6 10  1  0  0  0  0
  7  6  2  0  0  0  0
  8  3  1  0  0  0  0
  9  4  1  0  0  0  0
 10 11  2  0  0  0  0
 10 12  1  0  0  0  0
 12 19  1  0  0  0  0
 13 12  1  0  0  0  0
 14 13  1  0  0  0  0
 15 16  1  0  0  0  0
 15 13  1  0  0  0  0
 15 17  1  0  0  0  0
 17 18  1  0  0  0  0
 18 19  1  0  0  0  0
 20 22  1  0  0  0  0
 21 20  1  0  0  0  0
 23 20  1  0  0  0  0
 23 24  1  0  0  0  0
 25 23  1  0  0  0  0
 26 27  1  0  0  0  0
 27 28  1  0  0  0  0
 28 29  2  0  0  0  0
 28 23  1  0  0  0  0
 29 34  1  0  0  0  0
 30 35  1  0  0  0  0
 30 29  1  0  0  0  0
 31 30  2  0  0  0  0
 32 31  1  0  0  0  0
 33 31  1  0  0  0  0
 33 27  2  0  0  0  0
 36 33  1  0  0  0  0
M  END
>  <minimizedAffinity>
-6.03794861

>  <minimizedRMSD>
0.780811012

$$$$
