
 OpenBabel03242516523D

 44 47  0  0  1  0  0  0  0  0999 V2000
   47.8300   32.8660   41.7080 C   0  0  1  0  0  0  0  0  0  0  0  0
   47.4610   32.2030   40.4570 C   0  0  0  0  0  0  0  0  0  0  0  0
   48.4740   32.6670   39.4120 C   0  0  0  0  0  0  0  0  0  0  0  0
   48.1760   34.1170   39.1410 C   0  0  0  0  0  0  0  0  0  0  0  0
   48.1660   34.9830   40.3690 C   0  0  0  0  0  0  0  0  0  0  0  0
   47.6710   34.3890   41.6240 C   0  0  1  0  0  0  0  0  0  0  0  0
   48.9480   32.7540   41.8580 H   0  0  0  0  0  0  0  0  0  0  0  0
   46.4740   32.5010   40.0400 H   0  0  0  0  0  0  0  0  0  0  0  0
   47.4980   31.1180   40.5700 H   0  0  0  0  0  0  0  0  0  0  0  0
   49.5170   32.5100   39.7330 H   0  0  0  0  0  0  0  0  0  0  0  0
   48.2180   32.1000   38.4930 H   0  0  0  0  0  0  0  0  0  0  0  0
   47.1920   34.1570   38.6240 H   0  0  0  0  0  0  0  0  0  0  0  0
   48.9080   34.5140   38.4240 H   0  0  0  0  0  0  0  0  0  0  0  0
   47.5310   35.8700   40.1210 H   0  0  0  0  0  0  0  0  0  0  0  0
   49.1900   35.4080   40.4780 H   0  0  0  0  0  0  0  0  0  0  0  0
   48.2930   34.7820   42.4730 H   0  0  0  0  0  0  0  0  0  0  0  0
   45.4280   31.0280   43.9730 C   0  0  0  0  0  0  0  0  0  0  0  0
   46.0970   31.5280   42.8490 C   0  0  0  0  0  0  0  0  0  0  0  0
   47.1950   32.3880   42.9190 C   0  0  0  0  0  0  0  0  0  0  0  0
   47.5880   32.7220   44.1490 N   0  0  0  0  0  0  0  0  0  0  0  0
   46.9470   32.2440   45.2500 C   0  0  0  0  0  0  0  0  0  0  0  0
   45.8940   31.4180   45.1760 N   0  0  0  0  0  0  0  0  0  0  0  0
   44.5860   30.3680   43.8450 H   0  0  0  0  0  0  0  0  0  0  0  0
   45.7660   31.2480   41.8530 H   0  0  0  0  0  0  0  0  0  0  0  0
   47.2810   32.5260   46.2390 H   0  0  0  0  0  0  0  0  0  0  0  0
   46.3070   34.8070   41.9430 C   0  0  0  0  0  0  0  0  0  0  0  0
   45.9130   35.5000   43.0930 C   0  0  0  0  0  0  0  0  0  0  0  0
   44.5590   35.8160   43.1890 C   0  0  0  0  0  0  0  0  0  0  0  0
   43.7280   35.4230   42.1540 C   0  0  0  0  0  0  0  0  0  0  0  0
   44.1390   34.7410   41.0310 C   0  0  0  0  0  0  0  0  0  0  0  0
   45.4670   34.4400   40.9530 N   0  0  0  0  0  0  0  0  0  0  0  0
   46.6610   35.7330   43.7990 H   0  0  0  0  0  0  0  0  0  0  0  0
   44.2280   36.3510   44.0670 H   0  0  0  0  0  0  0  0  0  0  0  0
   42.6760   35.6640   42.2200 H   0  0  0  0  0  0  0  0  0  0  0  0
   43.1750   34.3740   39.9970 C   0  0  0  0  0  0  0  0  0  0  0  0
   42.6430   35.2930   39.3190 O   0  0  0  0  0  0  0  0  0  0  0  0
   42.6540   33.1370   39.5370 N   0  0  0  0  0  0  0  0  0  0  0  0
   42.6110   32.1420   40.6150 C   0  0  0  0  0  3  0  0  0  0  0  0
   43.5450   31.5290   40.6170 H   0  0  0  0  0  0  0  0  0  0  0  0
   41.4650   31.1920   40.2580 C   0  0  0  0  0  3  0  0  0  0  0  0
   41.7930   30.3750   39.6050 H   0  0  0  0  0  0  0  0  0  0  0  0
   40.3940   31.9090   39.7480 O   0  0  0  0  0  0  0  0  0  0  0  0
   40.6570   32.3940   38.4630 C   0  0  0  0  0  2  0  0  0  0  0  0
   42.1460   32.5740   38.2750 C   0  0  0  0  0  2  0  0  0  0  0  0
  1  7  1  1  0  0  0
  1 19  1  0  0  0  0
  2  9  1  0  0  0  0
  2  1  1  0  0  0  0
  3 10  1  0  0  0  0
  3  2  1  0  0  0  0
  4  3  1  0  0  0  0
  4  5  1  0  0  0  0
  5 15  1  0  0  0  0
  5  6  1  0  0  0  0
  6  1  1  0  0  0  0
  6 26  1  0  0  0  0
  6 16  1  1  0  0  0
  8  2  1  0  0  0  0
 11  3  1  0  0  0  0
 12  4  1  0  0  0  0
 13  4  1  0  0  0  0
 14  5  1  0  0  0  0
 17 22  1  0  0  0  0
 18 19  1  0  0  0  0
 18 17  2  0  0  0  0
 19 20  2  0  0  0  0
 20 21  1  0  0  0  0
 21 25  1  0  0  0  0
 22 21  2  0  0  0  0
 23 17  1  0  0  0  0
 24 18  1  0  0  0  0
 26 27  1  0  0  0  0
 27 28  2  0  0  0  0
 27 32  1  0  0  0  0
 28 33  1  0  0  0  0
 29 34  1  0  0  0  0
 29 28  1  0  0  0  0
 30 29  2  0  0  0  0
 31 30  1  0  0  0  0
 31 26  2  0  0  0  0
 35 30  1  0  0  0  0
 36 35  2  0  0  0  0
 37 35  1  0  0  0  0
 37 38  1  0  0  0  0
 38 39  1  0  0  0  0
 40 38  1  0  0  0  0
 41 40  1  0  0  0  0
 42 40  1  0  0  0  0
 43 42  1  0  0  0  0
 44 43  1  0  0  0  0
 44 37  1  0  0  0  0
M  END
>  <minimizedAffinity>
-5.66550159

>  <minimizedRMSD>
0.563770711

$$$$
