
 OpenBabel03242510223D

 37 40  0  0  1  0  0  0  0  0999 V2000
   48.0330   33.2450   43.1320 N   0  0  0  0  0  0  0  0  0  0  0  0
   49.2110   33.3140   42.3910 C   0  0  0  0  0  0  0  0  0  0  0  0
   50.3810   32.9560   42.6750 O   0  0  0  0  0  0  0  0  0  0  0  0
   47.4650   34.1200   43.0370 H   0  0  0  0  0  0  0  0  0  0  0  0
   46.3210   32.1210   44.5090 C   0  0  1  0  0  0  0  0  0  0  0  0
   46.4380   31.3570   43.3390 C   0  0  0  0  0  0  0  0  0  0  0  0
   47.6750   32.1170   43.9140 C   0  0  1  0  0  0  0  0  0  0  0  0
   46.2010   31.6870   45.5150 H   0  0  0  0  0  0  0  0  0  0  0  0
   46.5310   30.2330   43.4430 H   0  0  0  0  0  0  0  0  0  0  0  0
   46.1630   31.6020   42.2950 H   0  0  0  0  0  0  0  0  0  0  0  0
   48.4590   31.4260   44.2710 H   0  0  0  0  0  0  0  0  0  0  0  0
   45.0650   33.9780   43.1740 C   0  0  0  0  0  0  0  0  0  0  0  0
   45.5570   33.4550   44.4160 C   0  0  0  0  0  0  0  0  0  0  0  0
   45.3450   34.2070   45.5530 C   0  0  0  0  0  0  0  0  0  0  0  0
   44.6930   35.3840   45.4490 N   0  0  0  0  0  0  0  0  0  0  0  0
   44.2340   35.8690   44.2650 C   0  0  0  0  0  0  0  0  0  0  0  0
   44.4320   35.1310   43.0960 N   0  0  0  0  0  0  0  0  0  0  0  0
   45.2230   33.3720   42.3110 H   0  0  0  0  0  0  0  0  0  0  0  0
   45.6990   33.8460   46.5100 H   0  0  0  0  0  0  0  0  0  0  0  0
   43.7260   36.8250   44.2980 H   0  0  0  0  0  0  0  0  0  0  0  0
   49.1690   33.9030   40.9930 C   0  0  2  0  0  0  0  0  0  0  0  0
   48.6030   35.3680   40.8680 C   0  0  0  0  0  0  0  0  0  0  0  0
   47.8980   34.1770   40.3150 C   0  0  1  0  0  0  0  0  0  0  0  0
   50.0890   33.8210   40.3790 H   0  0  0  0  0  0  0  0  0  0  0  0
   49.1390   36.0670   40.2320 H   0  0  0  0  0  0  0  0  0  0  0  0
   48.2330   35.7420   41.8600 H   0  0  0  0  0  0  0  0  0  0  0  0
   46.9690   33.7940   40.7730 H   0  0  0  0  0  0  0  0  0  0  0  0
   47.8590   34.0210   38.8110 C   0  0  0  0  0  0  0  0  0  0  0  0
   48.4990   34.7900   38.1030 O   0  0  0  0  0  0  0  0  0  0  0  0
   47.0690   32.9720   38.1940 N   0  0  0  0  0  0  0  0  0  0  0  0
   47.1830   31.6510   38.7920 C   0  0  0  0  0  3  0  0  0  0  0  0
   46.6720   31.5460   39.7490 H   0  0  0  0  0  0  0  0  0  0  0  0
   46.7510   30.6440   37.7590 C   0  0  0  0  0  3  0  0  0  0  0  0
   46.4750   29.6720   38.2250 H   0  0  0  0  0  0  0  0  0  0  0  0
   45.6350   31.0410   37.0260 O   0  0  0  0  0  0  0  0  0  0  0  0
   45.9420   32.1410   36.2180 C   0  0  0  0  0  2  0  0  0  0  0  0
   46.2510   33.3380   37.0540 C   0  0  0  0  0  2  0  0  0  0  0  0
  1  7  1  0  0  0  0
  2  3  2  0  0  0  0
  2  1  1  0  0  0  0
  4  1  1  0  0  0  0
  5  8  1  1  0  0  0
  6  9  1  0  0  0  0
  6  7  1  0  0  0  0
  6  5  1  0  0  0  0
  7 11  1  1  0  0  0
  7  5  1  0  0  0  0
 10  6  1  0  0  0  0
 12 13  1  0  0  0  0
 13  5  1  0  0  0  0
 13 14  2  0  0  0  0
 14 19  1  0  0  0  0
 15 14  1  0  0  0  0
 16 20  1  0  0  0  0
 16 15  2  0  0  0  0
 17 12  2  0  0  0  0
 17 16  1  0  0  0  0
 18 12  1  0  0  0  0
 21 24  1  6  0  0  0
 21  2  1  0  0  0  0
 22 21  1  0  0  0  0
 22 26  1  0  0  0  0
 23 27  1  1  0  0  0
 23 22  1  0  0  0  0
 23 21  1  0  0  0  0
 25 22  1  0  0  0  0
 28 23  1  0  0  0  0
 29 28  2  0  0  0  0
 30 31  1  0  0  0  0
 30 28  1  0  0  0  0
 31 32  1  0  0  0  0
 33 34  1  0  0  0  0
 33 31  1  0  0  0  0
 35 33  1  0  0  0  0
 36 35  1  0  0  0  0
 36 37  1  0  0  0  0
 37 30  1  0  0  0  0
M  END
>  <minimizedAffinity>
-5.00467014

>  <minimizedRMSD>
0.372924536

$$$$
