
 OpenBabel03252507163D

 28 30  0  0  0  0  0  0  0  0999 V2000
   44.7980   35.9120   43.3930 C   0  0  0  0  0  0  0  0  0  0  0  0
   45.4590   34.7040   43.0570 C   0  0  0  0  0  0  0  0  0  0  0  0
   45.7140   33.8110   44.0950 C   0  0  0  0  0  0  0  0  0  0  0  0
   45.3360   34.1140   45.3520 N   0  0  0  0  0  0  0  0  0  0  0  0
   44.6990   35.2910   45.6420 C   0  0  0  0  0  0  0  0  0  0  0  0
   44.4520   36.1470   44.6580 N   0  0  0  0  0  0  0  0  0  0  0  0
   44.5920   36.6200   42.5910 H   0  0  0  0  0  0  0  0  0  0  0  0
   44.3930   35.5410   46.6410 H   0  0  0  0  0  0  0  0  0  0  0  0
   46.3930   32.5650   43.7690 C   0  0  0  0  0  0  0  0  0  0  0  0
   45.6840   31.3930   43.6770 C   0  0  0  0  0  0  0  0  0  0  0  0
   46.3760   30.2400   43.3630 C   0  0  0  0  0  0  0  0  0  0  0  0
   47.7430   30.2010   43.1370 C   0  0  0  0  0  0  0  0  0  0  0  0
   48.3940   31.4050   43.2440 C   0  0  0  0  0  0  0  0  0  0  0  0
   47.7180   32.5310   43.5500 N   0  0  0  0  0  0  0  0  0  0  0  0
   44.6170   31.4060   43.8500 H   0  0  0  0  0  0  0  0  0  0  0  0
   45.7450   29.3510   43.3090 H   0  0  0  0  0  0  0  0  0  0  0  0
   48.1980   29.2550   42.8980 H   0  0  0  0  0  0  0  0  0  0  0  0
   49.4690   31.4090   43.0720 H   0  0  0  0  0  0  0  0  0  0  0  0
   45.8310   34.4480   41.7120 C   0  0  0  0  0  0  0  0  0  0  0  0
   46.9520   34.8540   41.3230 O   0  0  0  0  0  0  0  0  0  0  0  0
   45.0140   33.7580   40.7710 N   0  0  0  0  0  0  0  0  0  0  0  0
   43.8610   34.4060   40.1670 C   0  0  0  0  0  3  0  0  0  0  0  0
   43.8370   35.4480   40.5050 H   0  0  0  0  0  0  0  0  0  0  0  0
   42.6500   33.6510   40.7030 C   0  0  0  0  0  3  0  0  0  0  0  0
   42.3790   34.1780   41.6640 H   0  0  0  0  0  0  0  0  0  0  0  0
   42.9620   32.3620   41.0510 O   0  0  0  0  0  0  0  0  0  0  0  0
   43.8950   31.7300   40.2710 C   0  0  0  0  0  2  0  0  0  0  0  0
   45.2690   32.3910   40.3580 C   0  0  0  0  0  2  0  0  0  0  0  0
  1  6  1  0  0  0  0
  2  1  2  0  0  0  0
  2  3  1  0  0  0  0
  3  4  2  0  0  0  0
  4  5  1  0  0  0  0
  5  8  1  0  0  0  0
  6  5  2  0  0  0  0
  7  1  1  0  0  0  0
  9  3  1  0  0  0  0
 10  9  1  0  0  0  0
 10 15  1  0  0  0  0
 11 10  2  0  0  0  0
 12 13  2  0  0  0  0
 12 11  1  0  0  0  0
 13 14  1  0  0  0  0
 14  9  2  0  0  0  0
 16 11  1  0  0  0  0
 17 12  1  0  0  0  0
 18 13  1  0  0  0  0
 19  2  1  0  0  0  0
 20 19  2  0  0  0  0
 21 19  1  0  0  0  0
 22 23  1  0  0  0  0
 22 24  1  0  0  0  0
 22 21  1  0  0  0  0
 24 26  1  0  0  0  0
 24 25  1  0  0  0  0
 27 28  1  0  0  0  0
 27 26  1  0  0  0  0
 28 21  1  0  0  0  0
M  END
>  <minimizedAffinity>
-4.24845743

>  <minimizedRMSD>
0.689012051

$$$$
