
 OpenBabel03242516533D

 44 47  0  0  1  0  0  0  0  0999 V2000
   47.8000   32.8170   41.6970 C   0  0  1  0  0  0  0  0  0  0  0  0
   47.3930   32.1370   40.4670 C   0  0  0  0  0  0  0  0  0  0  0  0
   48.3840   32.5720   39.3890 C   0  0  0  0  0  0  0  0  0  0  0  0
   48.0950   34.0210   39.1010 C   0  0  0  0  0  0  0  0  0  0  0  0
   48.1250   34.9070   40.3140 C   0  0  0  0  0  0  0  0  0  0  0  0
   47.6560   34.3400   41.5910 C   0  0  1  0  0  0  0  0  0  0  0  0
   48.9210   32.6960   41.8200 H   0  0  0  0  0  0  0  0  0  0  0  0
   46.3990   32.4390   40.0700 H   0  0  0  0  0  0  0  0  0  0  0  0
   47.4220   31.0540   40.5980 H   0  0  0  0  0  0  0  0  0  0  0  0
   49.4330   32.4090   39.6870 H   0  0  0  0  0  0  0  0  0  0  0  0
   48.0990   31.9930   38.4870 H   0  0  0  0  0  0  0  0  0  0  0  0
   47.0980   34.0620   38.6080 H   0  0  0  0  0  0  0  0  0  0  0  0
   48.8130   34.3970   38.3590 H   0  0  0  0  0  0  0  0  0  0  0  0
   47.4930   35.7960   40.0660 H   0  0  0  0  0  0  0  0  0  0  0  0
   49.1560   35.3220   40.3900 H   0  0  0  0  0  0  0  0  0  0  0  0
   48.3030   34.7400   42.4170 H   0  0  0  0  0  0  0  0  0  0  0  0
   45.4610   31.0150   44.0540 C   0  0  0  0  0  0  0  0  0  0  0  0
   46.1050   31.4890   42.9050 C   0  0  0  0  0  0  0  0  0  0  0  0
   47.1920   32.3660   42.9310 C   0  0  0  0  0  0  0  0  0  0  0  0
   47.5990   32.7420   44.1450 N   0  0  0  0  0  0  0  0  0  0  0  0
   46.9820   32.2880   45.2700 C   0  0  0  0  0  0  0  0  0  0  0  0
   45.9400   31.4460   45.2370 N   0  0  0  0  0  0  0  0  0  0  0  0
   44.6260   30.3390   43.9580 H   0  0  0  0  0  0  0  0  0  0  0  0
   45.7620   31.1760   41.9230 H   0  0  0  0  0  0  0  0  0  0  0  0
   47.3270   32.6050   46.2440 H   0  0  0  0  0  0  0  0  0  0  0  0
   46.3040   34.7780   41.9370 C   0  0  0  0  0  0  0  0  0  0  0  0
   45.9470   35.4900   43.0870 C   0  0  0  0  0  0  0  0  0  0  0  0
   44.5990   35.8230   43.2110 C   0  0  0  0  0  0  0  0  0  0  0  0
   43.7380   35.4280   42.2010 C   0  0  0  0  0  0  0  0  0  0  0  0
   44.1150   34.7270   41.0780 C   0  0  0  0  0  0  0  0  0  0  0  0
   45.4370   34.4090   40.9710 N   0  0  0  0  0  0  0  0  0  0  0  0
   46.7130   35.7220   43.7730 H   0  0  0  0  0  0  0  0  0  0  0  0
   44.2950   36.3730   44.0900 H   0  0  0  0  0  0  0  0  0  0  0  0
   42.6910   35.6830   42.2890 H   0  0  0  0  0  0  0  0  0  0  0  0
   43.1220   34.3600   40.0720 C   0  0  0  0  0  0  0  0  0  0  0  0
   42.6640   35.2620   39.3220 O   0  0  0  0  0  0  0  0  0  0  0  0
   42.5020   33.1360   39.7070 N   0  0  0  0  0  0  0  0  0  0  0  0
   41.7540   32.5620   40.8320 C   0  0  0  0  0  3  0  0  0  0  0  0
   42.3950   31.8450   41.4020 H   0  0  0  0  0  0  0  0  0  0  0  0
   40.6280   31.7360   40.2040 C   0  0  0  0  0  3  0  0  0  0  0  0
   40.9450   30.7120   39.9760 H   0  0  0  0  0  0  0  0  0  0  0  0
   40.1000   32.4070   39.1120 O   0  0  0  0  0  0  0  0  0  0  0  0
   40.9770   32.4030   38.0240 C   0  0  0  0  0  2  0  0  0  0  0  0
   42.4030   32.2800   38.5130 C   0  0  0  0  0  2  0  0  0  0  0  0
  1  7  1  1  0  0  0
  1 19  1  0  0  0  0
  2  9  1  0  0  0  0
  2  1  1  0  0  0  0
  3 10  1  0  0  0  0
  3  2  1  0  0  0  0
  4  3  1  0  0  0  0
  4  5  1  0  0  0  0
  5 15  1  0  0  0  0
  5  6  1  0  0  0  0
  6  1  1  0  0  0  0
  6 26  1  0  0  0  0
  6 16  1  1  0  0  0
  8  2  1  0  0  0  0
 11  3  1  0  0  0  0
 12  4  1  0  0  0  0
 13  4  1  0  0  0  0
 14  5  1  0  0  0  0
 17 22  1  0  0  0  0
 18 19  1  0  0  0  0
 18 17  2  0  0  0  0
 19 20  2  0  0  0  0
 20 21  1  0  0  0  0
 21 25  1  0  0  0  0
 22 21  2  0  0  0  0
 23 17  1  0  0  0  0
 24 18  1  0  0  0  0
 26 27  1  0  0  0  0
 27 28  2  0  0  0  0
 27 32  1  0  0  0  0
 28 33  1  0  0  0  0
 29 34  1  0  0  0  0
 29 28  1  0  0  0  0
 30 29  2  0  0  0  0
 31 30  1  0  0  0  0
 31 26  2  0  0  0  0
 35 30  1  0  0  0  0
 36 35  2  0  0  0  0
 37 35  1  0  0  0  0
 37 38  1  0  0  0  0
 38 39  1  0  0  0  0
 40 38  1  0  0  0  0
 41 40  1  0  0  0  0
 42 40  1  0  0  0  0
 43 44  1  0  0  0  0
 43 42  1  0  0  0  0
 44 37  1  0  0  0  0
M  END
>  <minimizedAffinity>
-5.75554752

>  <minimizedRMSD>
0.678641677

$$$$
