
 OpenBabel03242515003D

 36 38  0  0  0  0  0  0  0  0999 V2000
   43.6720   34.8810   40.8050 S   0  0  0  0  0  0  0  0  0  0  0  0
   44.9160   34.6030   42.0660 C   0  0  0  0  0  0  0  0  0  0  0  0
   46.2530   34.6010   41.6370 C   0  0  0  0  0  0  0  0  0  0  0  0
   47.2580   34.3890   42.5800 C   0  0  0  0  0  0  0  0  0  0  0  0
   46.8810   34.1970   43.8630 N   0  0  0  0  0  0  0  0  0  0  0  0
   45.6040   34.2000   44.2740 C   0  0  0  0  0  0  0  0  0  0  0  0
   44.6390   34.4040   43.3590 N   0  0  0  0  0  0  0  0  0  0  0  0
   46.5770   34.7520   40.6150 H   0  0  0  0  0  0  0  0  0  0  0  0
   48.2950   34.3820   42.2750 H   0  0  0  0  0  0  0  0  0  0  0  0
   45.3050   33.9850   45.6710 C   0  0  0  0  0  0  0  0  0  0  0  0
   44.7730   34.9130   46.3250 O   0  0  0  0  0  0  0  0  0  0  0  0
   45.5570   32.7940   46.4080 N   0  0  0  0  0  0  0  0  0  0  0  0
   46.1710   31.6920   45.6900 C   0  0  0  0  0  3  0  0  0  0  0  0
   46.4960   31.9730   44.6900 H   0  0  0  0  0  0  0  0  0  0  0  0
   47.4190   31.3160   46.4900 C   0  0  0  0  0  3  0  0  0  0  0  0
   47.7450   30.3300   46.0980 H   0  0  0  0  0  0  0  0  0  0  0  0
   47.1560   31.1430   47.8260 O   0  0  0  0  0  0  0  0  0  0  0  0
   46.6050   32.2290   48.4560 C   0  0  0  0  0  2  0  0  0  0  0  0
   45.2570   32.5740   47.8100 C   0  0  0  0  0  2  0  0  0  0  0  0
   42.0170   34.9790   41.4810 C   0  0  0  0  0  0  0  0  0  0  0  0
   41.5390   33.9570   41.4530 H   0  0  0  0  0  0  0  0  0  0  0  0
   42.0170   35.2620   42.5710 H   0  0  0  0  0  0  0  0  0  0  0  0
   41.1180   35.9200   40.7530 C   0  0  0  0  0  0  0  0  0  0  0  0
   40.4520   36.4590   41.4850 H   0  0  0  0  0  0  0  0  0  0  0  0
   41.6790   36.7060   40.2090 H   0  0  0  0  0  0  0  0  0  0  0  0
   41.9380   36.1950   37.8330 Cl  0  0  0  0  0  0  0  0  0  0  0  0
   40.5730   35.2800   38.3850 C   0  0  0  0  0  0  0  0  0  0  0  0
   40.2850   35.2200   39.7550 C   0  0  0  0  0  0  0  0  0  0  0  0
   39.1830   34.4720   40.1120 C   0  0  0  0  0  0  0  0  0  0  0  0
   38.3370   33.7780   39.2600 C   0  0  0  0  0  0  0  0  0  0  0  0
   38.6480   33.8570   37.9100 C   0  0  0  0  0  0  0  0  0  0  0  0
   37.6260   33.0050   36.7580 Cl  0  0  0  0  0  0  0  0  0  0  0  0
   39.7380   34.5900   37.5000 C   0  0  0  0  0  0  0  0  0  0  0  0
   38.9520   34.4200   41.1750 H   0  0  0  0  0  0  0  0  0  0  0  0
   37.5000   33.2230   39.6610 H   0  0  0  0  0  0  0  0  0  0  0  0
   39.9560   34.6330   36.4340 H   0  0  0  0  0  0  0  0  0  0  0  0
  1 20  1  0  0  0  0
  1  2  1  0  0  0  0
  2  7  1  0  0  0  0
  3  2  2  0  0  0  0
  3  4  1  0  0  0  0
  4  5  2  0  0  0  0
  5  6  1  0  0  0  0
  6 10  1  0  0  0  0
  7  6  2  0  0  0  0
  8  3  1  0  0  0  0
  9  4  1  0  0  0  0
 10 11  2  0  0  0  0
 10 12  1  0  0  0  0
 12 19  1  0  0  0  0
 13 12  1  0  0  0  0
 13 15  1  0  0  0  0
 14 13  1  0  0  0  0
 15 17  1  0  0  0  0
 16 15  1  0  0  0  0
 17 18  1  0  0  0  0
 19 18  1  0  0  0  0
 20 22  1  0  0  0  0
 21 20  1  0  0  0  0
 23 20  1  0  0  0  0
 23 24  1  0  0  0  0
 25 23  1  0  0  0  0
 26 27  1  0  0  0  0
 27 28  1  0  0  0  0
 28 29  2  0  0  0  0
 28 23  1  0  0  0  0
 29 34  1  0  0  0  0
 30 35  1  0  0  0  0
 30 29  1  0  0  0  0
 31 30  2  0  0  0  0
 32 31  1  0  0  0  0
 33 31  1  0  0  0  0
 33 27  2  0  0  0  0
 36 33  1  0  0  0  0
M  END
>  <minimizedAffinity>
-6.8001461

>  <minimizedRMSD>
0.599439561

$$$$
