
 OpenBabel03242510223D

 37 40  0  0  1  0  0  0  0  0999 V2000
   48.0590   33.2120   43.2430 N   0  0  0  0  0  0  0  0  0  0  0  0
   49.2130   33.2340   42.4620 C   0  0  0  0  0  0  0  0  0  0  0  0
   50.3620   32.7790   42.6850 O   0  0  0  0  0  0  0  0  0  0  0  0
   47.5530   34.1300   43.2100 H   0  0  0  0  0  0  0  0  0  0  0  0
   46.2650   32.0920   44.5130 C   0  0  1  0  0  0  0  0  0  0  0  0
   46.4250   31.3500   43.3350 C   0  0  0  0  0  0  0  0  0  0  0  0
   47.6450   32.0760   43.9840 C   0  0  1  0  0  0  0  0  0  0  0  0
   46.0900   31.6400   45.5040 H   0  0  0  0  0  0  0  0  0  0  0  0
   46.4940   30.2220   43.4200 H   0  0  0  0  0  0  0  0  0  0  0  0
   46.2030   31.6200   42.2850 H   0  0  0  0  0  0  0  0  0  0  0  0
   48.4010   31.3640   44.3630 H   0  0  0  0  0  0  0  0  0  0  0  0
   45.0480   33.9670   43.1670 C   0  0  0  0  0  0  0  0  0  0  0  0
   45.5280   33.4410   44.4130 C   0  0  0  0  0  0  0  0  0  0  0  0
   45.3300   34.2030   45.5450 C   0  0  0  0  0  0  0  0  0  0  0  0
   44.7030   35.3920   45.4350 N   0  0  0  0  0  0  0  0  0  0  0  0
   44.2550   35.8800   44.2470 C   0  0  0  0  0  0  0  0  0  0  0  0
   44.4400   35.1320   43.0830 N   0  0  0  0  0  0  0  0  0  0  0  0
   45.1950   33.3530   42.3080 H   0  0  0  0  0  0  0  0  0  0  0  0
   45.6770   33.8400   46.5050 H   0  0  0  0  0  0  0  0  0  0  0  0
   43.7670   36.8460   44.2740 H   0  0  0  0  0  0  0  0  0  0  0  0
   49.1670   33.8930   41.0960 C   0  0  2  0  0  0  0  0  0  0  0  0
   48.6750   35.3890   41.0580 C   0  0  0  0  0  0  0  0  0  0  0  0
   47.8960   34.2640   40.4660 C   0  0  1  0  0  0  0  0  0  0  0  0
   50.0660   33.7950   40.4540 H   0  0  0  0  0  0  0  0  0  0  0  0
   49.2310   36.0910   40.4420 H   0  0  0  0  0  0  0  0  0  0  0  0
   48.3500   35.7310   42.0760 H   0  0  0  0  0  0  0  0  0  0  0  0
   46.9600   33.9070   40.9310 H   0  0  0  0  0  0  0  0  0  0  0  0
   47.8110   34.1860   38.9590 C   0  0  0  0  0  0  0  0  0  0  0  0
   48.6100   34.8130   38.2710 O   0  0  0  0  0  0  0  0  0  0  0  0
   46.7930   33.3780   38.3130 N   0  0  0  0  0  0  0  0  0  0  0  0
   45.6950   32.9390   39.1590 C   0  0  0  0  0  3  0  0  0  0  0  0
   44.9840   33.7240   39.4160 H   0  0  0  0  0  0  0  0  0  0  0  0
   45.0640   31.7410   38.4990 C   0  0  0  0  0  3  0  0  0  0  0  0
   44.0340   31.5610   38.8770 H   0  0  0  0  0  0  0  0  0  0  0  0
   44.9430   31.8630   37.1170 O   0  0  0  0  0  0  0  0  0  0  0  0
   46.2030   31.8720   36.5110 C   0  0  0  0  0  2  0  0  0  0  0  0
   46.9690   33.0920   36.9020 C   0  0  0  0  0  2  0  0  0  0  0  0
  1  7  1  0  0  0  0
  2  3  2  0  0  0  0
  2  1  1  0  0  0  0
  4  1  1  0  0  0  0
  5  8  1  1  0  0  0
  6  9  1  0  0  0  0
  6  7  1  0  0  0  0
  6  5  1  0  0  0  0
  7 11  1  1  0  0  0
  7  5  1  0  0  0  0
 10  6  1  0  0  0  0
 12 13  1  0  0  0  0
 13  5  1  0  0  0  0
 13 14  2  0  0  0  0
 14 19  1  0  0  0  0
 15 14  1  0  0  0  0
 16 20  1  0  0  0  0
 16 15  2  0  0  0  0
 17 12  2  0  0  0  0
 17 16  1  0  0  0  0
 18 12  1  0  0  0  0
 21 24  1  6  0  0  0
 21  2  1  0  0  0  0
 22 21  1  0  0  0  0
 22 26  1  0  0  0  0
 23 27  1  1  0  0  0
 23 22  1  0  0  0  0
 23 21  1  0  0  0  0
 25 22  1  0  0  0  0
 28 23  1  0  0  0  0
 29 28  2  0  0  0  0
 30 28  1  0  0  0  0
 30 31  1  0  0  0  0
 31 32  1  0  0  0  0
 33 34  1  0  0  0  0
 33 31  1  0  0  0  0
 35 33  1  0  0  0  0
 36 37  1  0  0  0  0
 36 35  1  0  0  0  0
 37 30  1  0  0  0  0
M  END
>  <minimizedAffinity>
-5.04830074

>  <minimizedRMSD>
0.160134122

$$$$
