
 OpenBabel03242515003D

 36 38  0  0  0  0  0  0  0  0999 V2000
   43.8540   34.5730   40.7950 S   0  0  0  0  0  0  0  0  0  0  0  0
   45.1510   34.3620   42.0160 C   0  0  0  0  0  0  0  0  0  0  0  0
   46.4690   34.5340   41.5630 C   0  0  0  0  0  0  0  0  0  0  0  0
   47.5130   34.3800   42.4750 C   0  0  0  0  0  0  0  0  0  0  0  0
   47.1910   34.0710   43.7490 N   0  0  0  0  0  0  0  0  0  0  0  0
   45.9310   33.9070   44.1810 C   0  0  0  0  0  0  0  0  0  0  0  0
   44.9290   34.0560   43.2980 N   0  0  0  0  0  0  0  0  0  0  0  0
   46.7490   34.7820   40.5480 H   0  0  0  0  0  0  0  0  0  0  0  0
   48.5370   34.5070   42.1520 H   0  0  0  0  0  0  0  0  0  0  0  0
   45.6920   33.5770   45.5680 C   0  0  0  0  0  0  0  0  0  0  0  0
   44.9530   34.3270   46.2490 O   0  0  0  0  0  0  0  0  0  0  0  0
   46.2200   32.4540   46.2650 N   0  0  0  0  0  0  0  0  0  0  0  0
   47.0500   32.7280   47.4220 C   0  0  0  0  0  3  0  0  0  0  0  0
   47.0480   33.7800   47.7000 H   0  0  0  0  0  0  0  0  0  0  0  0
   46.4240   31.9480   48.5800 C   0  0  0  0  0  3  0  0  0  0  0  0
   47.1830   31.9450   49.3900 H   0  0  0  0  0  0  0  0  0  0  0  0
   46.1840   30.6340   48.2610 O   0  0  0  0  0  0  0  0  0  0  0  0
   45.3670   30.4400   47.1760 C   0  0  0  0  0  2  0  0  0  0  0  0
   46.0080   31.0590   45.9280 C   0  0  0  0  0  2  0  0  0  0  0  0
   42.2450   34.8270   41.5390 C   0  0  0  0  0  0  0  0  0  0  0  0
   41.6800   33.8490   41.5520 H   0  0  0  0  0  0  0  0  0  0  0  0
   42.3170   35.1270   42.6220 H   0  0  0  0  0  0  0  0  0  0  0  0
   41.3980   35.8300   40.8300 C   0  0  0  0  0  0  0  0  0  0  0  0
   40.7980   36.4220   41.5770 H   0  0  0  0  0  0  0  0  0  0  0  0
   42.0010   36.5670   40.2630 H   0  0  0  0  0  0  0  0  0  0  0  0
   42.1140   36.0810   37.8800 Cl  0  0  0  0  0  0  0  0  0  0  0  0
   40.7200   35.2450   38.4830 C   0  0  0  0  0  0  0  0  0  0  0  0
   40.4850   35.1900   39.8630 C   0  0  0  0  0  0  0  0  0  0  0  0
   39.3560   34.5060   40.2600 C   0  0  0  0  0  0  0  0  0  0  0  0
   38.4350   33.8710   39.4400 C   0  0  0  0  0  0  0  0  0  0  0  0
   38.6950   33.9430   38.0780 C   0  0  0  0  0  0  0  0  0  0  0  0
   37.5770   33.1650   36.9640 Cl  0  0  0  0  0  0  0  0  0  0  0  0
   39.8100   34.6140   37.6280 C   0  0  0  0  0  0  0  0  0  0  0  0
   39.1650   34.4580   41.3310 H   0  0  0  0  0  0  0  0  0  0  0  0
   37.5830   33.3650   39.8710 H   0  0  0  0  0  0  0  0  0  0  0  0
   39.9860   34.6530   36.5540 H   0  0  0  0  0  0  0  0  0  0  0  0
  1 20  1  0  0  0  0
  1  2  1  0  0  0  0
  2  7  1  0  0  0  0
  3  2  2  0  0  0  0
  3  4  1  0  0  0  0
  4  5  2  0  0  0  0
  5  6  1  0  0  0  0
  6 10  1  0  0  0  0
  7  6  2  0  0  0  0
  8  3  1  0  0  0  0
  9  4  1  0  0  0  0
 10 11  2  0  0  0  0
 10 12  1  0  0  0  0
 12 13  1  0  0  0  0
 13 14  1  0  0  0  0
 13 15  1  0  0  0  0
 15 16  1  0  0  0  0
 17 15  1  0  0  0  0
 18 17  1  0  0  0  0
 19 12  1  0  0  0  0
 19 18  1  0  0  0  0
 20 21  1  0  0  0  0
 20 22  1  0  0  0  0
 23 20  1  0  0  0  0
 23 24  1  0  0  0  0
 25 23  1  0  0  0  0
 26 27  1  0  0  0  0
 27 28  1  0  0  0  0
 28 29  2  0  0  0  0
 28 23  1  0  0  0  0
 29 34  1  0  0  0  0
 30 35  1  0  0  0  0
 30 29  1  0  0  0  0
 31 30  2  0  0  0  0
 32 31  1  0  0  0  0
 33 31  1  0  0  0  0
 33 27  2  0  0  0  0
 36 33  1  0  0  0  0
M  END
>  <minimizedAffinity>
-6.90138817

>  <minimizedRMSD>
0.698682129

$$$$
