
 OpenBabel03242510223D

 37 40  0  0  1  0  0  0  0  0999 V2000
   48.0320   33.2660   43.1910 N   0  0  0  0  0  0  0  0  0  0  0  0
   49.1950   33.3120   42.4250 C   0  0  0  0  0  0  0  0  0  0  0  0
   50.3680   32.9520   42.6950 O   0  0  0  0  0  0  0  0  0  0  0  0
   47.4670   34.1430   43.0880 H   0  0  0  0  0  0  0  0  0  0  0  0
   46.3250   32.1660   44.5920 C   0  0  1  0  0  0  0  0  0  0  0  0
   46.4550   31.3690   43.4450 C   0  0  0  0  0  0  0  0  0  0  0  0
   47.6820   32.1580   44.0040 C   0  0  1  0  0  0  0  0  0  0  0  0
   46.2050   31.7590   45.6100 H   0  0  0  0  0  0  0  0  0  0  0  0
   46.5590   30.2500   43.5830 H   0  0  0  0  0  0  0  0  0  0  0  0
   46.1810   31.5810   42.3940 H   0  0  0  0  0  0  0  0  0  0  0  0
   48.4710   31.4860   44.3830 H   0  0  0  0  0  0  0  0  0  0  0  0
   45.0570   33.9710   43.1990 C   0  0  0  0  0  0  0  0  0  0  0  0
   45.5480   33.4880   44.4580 C   0  0  0  0  0  0  0  0  0  0  0  0
   45.3220   34.2700   45.5720 C   0  0  0  0  0  0  0  0  0  0  0  0
   44.6590   35.4360   45.4320 N   0  0  0  0  0  0  0  0  0  0  0  0
   44.2010   35.8830   44.2320 C   0  0  0  0  0  0  0  0  0  0  0  0
   44.4130   35.1150   43.0850 N   0  0  0  0  0  0  0  0  0  0  0  0
   45.2260   33.3420   42.3540 H   0  0  0  0  0  0  0  0  0  0  0  0
   45.6750   33.9400   46.5410 H   0  0  0  0  0  0  0  0  0  0  0  0
   43.6830   36.8340   44.2350 H   0  0  0  0  0  0  0  0  0  0  0  0
   49.1300   33.8710   41.0160 C   0  0  2  0  0  0  0  0  0  0  0  0
   48.6410   35.3620   40.8770 C   0  0  0  0  0  0  0  0  0  0  0  0
   47.8500   34.2000   40.3810 C   0  0  1  0  0  0  0  0  0  0  0  0
   50.0190   33.7240   40.3700 H   0  0  0  0  0  0  0  0  0  0  0  0
   49.1890   36.0160   40.2040 H   0  0  0  0  0  0  0  0  0  0  0  0
   48.3320   35.7780   41.8740 H   0  0  0  0  0  0  0  0  0  0  0  0
   46.9210   33.8810   40.8840 H   0  0  0  0  0  0  0  0  0  0  0  0
   47.7420   34.0130   38.8850 C   0  0  0  0  0  0  0  0  0  0  0  0
   48.4330   34.6940   38.1350 O   0  0  0  0  0  0  0  0  0  0  0  0
   46.8270   33.0380   38.3220 N   0  0  0  0  0  0  0  0  0  0  0  0
   46.5690   31.8620   39.1360 C   0  0  0  0  0  3  0  0  0  0  0  0
   45.9280   32.0430   40.0000 H   0  0  0  0  0  0  0  0  0  0  0  0
   46.0620   30.7770   38.2210 C   0  0  0  0  0  3  0  0  0  0  0  0
   45.5220   29.9850   38.7860 H   0  0  0  0  0  0  0  0  0  0  0  0
   45.1650   31.2340   37.2590 O   0  0  0  0  0  0  0  0  0  0  0  0
   45.8080   32.0770   36.3470 C   0  0  0  0  0  2  0  0  0  0  0  0
   46.2630   33.3300   37.0180 C   0  0  0  0  0  2  0  0  0  0  0  0
  1  7  1  0  0  0  0
  2  3  2  0  0  0  0
  2  1  1  0  0  0  0
  4  1  1  0  0  0  0
  5  8  1  1  0  0  0
  6  9  1  0  0  0  0
  6  7  1  0  0  0  0
  6  5  1  0  0  0  0
  7 11  1  1  0  0  0
  7  5  1  0  0  0  0
 10  6  1  0  0  0  0
 12 13  1  0  0  0  0
 13  5  1  0  0  0  0
 13 14  2  0  0  0  0
 14 19  1  0  0  0  0
 15 14  1  0  0  0  0
 16 20  1  0  0  0  0
 16 15  2  0  0  0  0
 17 12  2  0  0  0  0
 17 16  1  0  0  0  0
 18 12  1  0  0  0  0
 21 24  1  6  0  0  0
 21  2  1  0  0  0  0
 22 21  1  0  0  0  0
 22 26  1  0  0  0  0
 23 22  1  0  0  0  0
 23 27  1  1  0  0  0
 23 21  1  0  0  0  0
 25 22  1  0  0  0  0
 28 23  1  0  0  0  0
 29 28  2  0  0  0  0
 30 28  1  0  0  0  0
 30 31  1  0  0  0  0
 31 32  1  0  0  0  0
 33 34  1  0  0  0  0
 33 31  1  0  0  0  0
 35 33  1  0  0  0  0
 36 37  1  0  0  0  0
 36 35  1  0  0  0  0
 37 30  1  0  0  0  0
M  END
>  <minimizedAffinity>
-4.99107218

>  <minimizedRMSD>
0.179459125

$$$$
