
 OpenBabel03242516523D

 44 47  0  0  1  0  0  0  0  0999 V2000
   47.8780   32.9200   41.8760 C   0  0  1  0  0  0  0  0  0  0  0  0
   47.5740   32.3130   40.5800 C   0  0  0  0  0  0  0  0  0  0  0  0
   48.6090   32.8580   39.5980 C   0  0  0  0  0  0  0  0  0  0  0  0
   48.2790   34.3120   39.3910 C   0  0  0  0  0  0  0  0  0  0  0  0
   48.2000   35.1120   40.6600 C   0  0  0  0  0  0  0  0  0  0  0  0
   47.6780   34.4400   41.8640 C   0  0  1  0  0  0  0  0  0  0  0  0
   48.9930   32.8310   42.0620 H   0  0  0  0  0  0  0  0  0  0  0  0
   46.5940   32.6060   40.1420 H   0  0  0  0  0  0  0  0  0  0  0  0
   47.6380   31.2250   40.6390 H   0  0  0  0  0  0  0  0  0  0  0  0
   49.6450   32.7130   39.9500 H   0  0  0  0  0  0  0  0  0  0  0  0
   48.4030   32.3330   38.6430 H   0  0  0  0  0  0  0  0  0  0  0  0
   47.3140   34.3520   38.8400 H   0  0  0  0  0  0  0  0  0  0  0  0
   49.0250   34.7650   38.7230 H   0  0  0  0  0  0  0  0  0  0  0  0
   47.5490   35.9930   40.4340 H   0  0  0  0  0  0  0  0  0  0  0  0
   49.2070   35.5580   40.8290 H   0  0  0  0  0  0  0  0  0  0  0  0
   48.2570   34.8060   42.7540 H   0  0  0  0  0  0  0  0  0  0  0  0
   45.4470   30.9070   43.9540 C   0  0  0  0  0  0  0  0  0  0  0  0
   46.1410   31.4820   42.8820 C   0  0  0  0  0  0  0  0  0  0  0  0
   47.2140   32.3620   43.0360 C   0  0  0  0  0  0  0  0  0  0  0  0
   47.5560   32.6390   44.2960 N   0  0  0  0  0  0  0  0  0  0  0  0
   46.8890   32.0870   45.3460 C   0  0  0  0  0  0  0  0  0  0  0  0
   45.8610   31.2420   45.1910 N   0  0  0  0  0  0  0  0  0  0  0  0
   44.6270   30.2340   43.7600 H   0  0  0  0  0  0  0  0  0  0  0  0
   45.8520   31.2480   41.8620 H   0  0  0  0  0  0  0  0  0  0  0  0
   47.1820   32.3240   46.3600 H   0  0  0  0  0  0  0  0  0  0  0  0
   46.2910   34.8040   42.1520 C   0  0  0  0  0  0  0  0  0  0  0  0
   45.8350   35.4110   43.3270 C   0  0  0  0  0  0  0  0  0  0  0  0
   44.4700   35.6870   43.3870 C   0  0  0  0  0  0  0  0  0  0  0  0
   43.6910   35.3440   42.2960 C   0  0  0  0  0  0  0  0  0  0  0  0
   44.1640   34.7460   41.1500 C   0  0  0  0  0  0  0  0  0  0  0  0
   45.5020   34.4820   41.1070 N   0  0  0  0  0  0  0  0  0  0  0  0
   46.5470   35.6150   44.0770 H   0  0  0  0  0  0  0  0  0  0  0  0
   44.0900   36.1560   44.2840 H   0  0  0  0  0  0  0  0  0  0  0  0
   42.6310   35.5550   42.3340 H   0  0  0  0  0  0  0  0  0  0  0  0
   43.2520   34.4250   40.0560 C   0  0  0  0  0  0  0  0  0  0  0  0
   42.4690   35.3210   39.6440 O   0  0  0  0  0  0  0  0  0  0  0  0
   43.0170   33.2560   39.2860 N   0  0  0  0  0  0  0  0  0  0  0  0
   43.8720   33.2200   38.0940 C   0  0  0  0  0  3  0  0  0  0  0  0
   43.3440   33.6710   37.2200 H   0  0  0  0  0  0  0  0  0  0  0  0
   44.0690   31.7370   37.7680 C   0  0  0  0  0  3  0  0  0  0  0  0
   43.2720   31.3460   37.1270 H   0  0  0  0  0  0  0  0  0  0  0  0
   44.2430   31.0120   38.9370 O   0  0  0  0  0  0  0  0  0  0  0  0
   43.0520   30.9000   39.6610 C   0  0  0  0  0  2  0  0  0  0  0  0
   42.1460   32.0700   39.3490 C   0  0  0  0  0  2  0  0  0  0  0  0
  1  7  1  1  0  0  0
  1 19  1  0  0  0  0
  2  9  1  0  0  0  0
  2  1  1  0  0  0  0
  3 10  1  0  0  0  0
  3  2  1  0  0  0  0
  4  3  1  0  0  0  0
  4  5  1  0  0  0  0
  5 15  1  0  0  0  0
  5  6  1  0  0  0  0
  6  1  1  0  0  0  0
  6 26  1  0  0  0  0
  6 16  1  1  0  0  0
  8  2  1  0  0  0  0
 11  3  1  0  0  0  0
 12  4  1  0  0  0  0
 13  4  1  0  0  0  0
 14  5  1  0  0  0  0
 17 22  1  0  0  0  0
 18 19  1  0  0  0  0
 18 17  2  0  0  0  0
 19 20  2  0  0  0  0
 20 21  1  0  0  0  0
 21 25  1  0  0  0  0
 22 21  2  0  0  0  0
 23 17  1  0  0  0  0
 24 18  1  0  0  0  0
 26 27  1  0  0  0  0
 27 28  2  0  0  0  0
 27 32  1  0  0  0  0
 28 33  1  0  0  0  0
 29 34  1  0  0  0  0
 29 28  1  0  0  0  0
 30 29  2  0  0  0  0
 31 30  1  0  0  0  0
 31 26  2  0  0  0  0
 35 30  1  0  0  0  0
 36 35  2  0  0  0  0
 37 44  1  0  0  0  0
 37 35  1  0  0  0  0
 38 37  1  0  0  0  0
 39 38  1  0  0  0  0
 40 38  1  0  0  0  0
 40 42  1  0  0  0  0
 41 40  1  0  0  0  0
 42 43  1  0  0  0  0
 44 43  1  0  0  0  0
M  END
>  <minimizedAffinity>
-5.45026255

>  <minimizedRMSD>
0.268310636

$$$$
