
 OpenBabel03252507163D

 28 30  0  0  0  0  0  0  0  0999 V2000
   45.0440   35.9350   43.0260 C   0  0  0  0  0  0  0  0  0  0  0  0
   45.6430   34.6600   42.8620 C   0  0  0  0  0  0  0  0  0  0  0  0
   45.7190   33.8460   43.9890 C   0  0  0  0  0  0  0  0  0  0  0  0
   45.2350   34.2810   45.1680 N   0  0  0  0  0  0  0  0  0  0  0  0
   44.6620   35.5190   45.2910 C   0  0  0  0  0  0  0  0  0  0  0  0
   44.5860   36.3020   44.2230 N   0  0  0  0  0  0  0  0  0  0  0  0
   44.9780   36.5830   42.1520 H   0  0  0  0  0  0  0  0  0  0  0  0
   44.2730   35.8740   46.2280 H   0  0  0  0  0  0  0  0  0  0  0  0
   46.3320   32.5330   43.8380 C   0  0  0  0  0  0  0  0  0  0  0  0
   45.5510   31.4060   43.7970 C   0  0  0  0  0  0  0  0  0  0  0  0
   46.1830   30.1860   43.6520 C   0  0  0  0  0  0  0  0  0  0  0  0
   47.5580   30.0390   43.5470 C   0  0  0  0  0  0  0  0  0  0  0  0
   48.2810   31.2040   43.5960 C   0  0  0  0  0  0  0  0  0  0  0  0
   47.6640   32.3950   43.7370 N   0  0  0  0  0  0  0  0  0  0  0  0
   44.4770   31.5020   43.8760 H   0  0  0  0  0  0  0  0  0  0  0  0
   45.4970   29.3370   43.6270 H   0  0  0  0  0  0  0  0  0  0  0  0
   47.9610   29.0480   43.4370 H   0  0  0  0  0  0  0  0  0  0  0  0
   49.3640   31.1240   43.5170 H   0  0  0  0  0  0  0  0  0  0  0  0
   46.1330   34.2660   41.5910 C   0  0  0  0  0  0  0  0  0  0  0  0
   47.1990   34.7850   41.1830 O   0  0  0  0  0  0  0  0  0  0  0  0
   45.4950   33.3140   40.7440 N   0  0  0  0  0  0  0  0  0  0  0  0
   46.2680   32.4860   39.8350 C   0  0  0  0  0  3  0  0  0  0  0  0
   47.3320   32.6870   40.0090 H   0  0  0  0  0  0  0  0  0  0  0  0
   45.8680   32.9420   38.4360 C   0  0  0  0  0  3  0  0  0  0  0  0
   46.5780   33.7850   38.1900 H   0  0  0  0  0  0  0  0  0  0  0  0
   44.6090   33.4850   38.4140 O   0  0  0  0  0  0  0  0  0  0  0  0
   43.6890   32.9220   39.2600 C   0  0  0  0  0  2  0  0  0  0  0  0
   44.0580   33.1120   40.7290 C   0  0  0  0  0  2  0  0  0  0  0  0
  1  6  1  0  0  0  0
  2  1  2  0  0  0  0
  2  3  1  0  0  0  0
  3  4  2  0  0  0  0
  4  5  1  0  0  0  0
  5  8  1  0  0  0  0
  6  5  2  0  0  0  0
  7  1  1  0  0  0  0
  9  3  1  0  0  0  0
 10  9  1  0  0  0  0
 10 15  1  0  0  0  0
 11 10  2  0  0  0  0
 12 13  2  0  0  0  0
 12 11  1  0  0  0  0
 13 14  1  0  0  0  0
 14  9  2  0  0  0  0
 16 11  1  0  0  0  0
 17 12  1  0  0  0  0
 18 13  1  0  0  0  0
 19  2  1  0  0  0  0
 20 19  2  0  0  0  0
 21 19  1  0  0  0  0
 22 23  1  0  0  0  0
 22 21  1  0  0  0  0
 24 22  1  0  0  0  0
 25 24  1  0  0  0  0
 26 24  1  0  0  0  0
 26 27  1  0  0  0  0
 27 28  1  0  0  0  0
 28 21  1  0  0  0  0
M  END
>  <minimizedAffinity>
-4.22458649

>  <minimizedRMSD>
0.70735091

$$$$
