
 OpenBabel03252507163D

 28 30  0  0  0  0  0  0  0  0999 V2000
   45.2220   36.0170   43.0480 C   0  0  0  0  0  0  0  0  0  0  0  0
   45.8280   34.7450   42.8920 C   0  0  0  0  0  0  0  0  0  0  0  0
   45.8070   33.8930   43.9930 C   0  0  0  0  0  0  0  0  0  0  0  0
   45.2290   34.2930   45.1420 N   0  0  0  0  0  0  0  0  0  0  0  0
   44.6520   35.5300   45.2590 C   0  0  0  0  0  0  0  0  0  0  0  0
   44.6670   36.3470   44.2150 N   0  0  0  0  0  0  0  0  0  0  0  0
   45.2290   36.6950   42.1940 H   0  0  0  0  0  0  0  0  0  0  0  0
   44.1880   35.8560   46.1720 H   0  0  0  0  0  0  0  0  0  0  0  0
   46.4260   32.5830   43.8510 C   0  0  0  0  0  0  0  0  0  0  0  0
   45.6500   31.4520   43.8080 C   0  0  0  0  0  0  0  0  0  0  0  0
   46.2870   30.2350   43.6700 C   0  0  0  0  0  0  0  0  0  0  0  0
   47.6630   30.0920   43.5740 C   0  0  0  0  0  0  0  0  0  0  0  0
   48.3820   31.2610   43.6230 C   0  0  0  0  0  0  0  0  0  0  0  0
   47.7600   32.4500   43.7570 N   0  0  0  0  0  0  0  0  0  0  0  0
   44.5750   31.5450   43.8810 H   0  0  0  0  0  0  0  0  0  0  0  0
   45.6050   29.3830   43.6450 H   0  0  0  0  0  0  0  0  0  0  0  0
   48.0710   29.1020   43.4690 H   0  0  0  0  0  0  0  0  0  0  0  0
   49.4650   31.1850   43.5500 H   0  0  0  0  0  0  0  0  0  0  0  0
   46.4200   34.3890   41.6530 C   0  0  0  0  0  0  0  0  0  0  0  0
   47.5080   34.9290   41.3440 O   0  0  0  0  0  0  0  0  0  0  0  0
   45.8600   33.4560   40.7340 N   0  0  0  0  0  0  0  0  0  0  0  0
   46.5850   32.2540   40.3540 C   0  0  0  0  0  3  0  0  0  0  0  0
   47.5070   32.2100   40.9440 H   0  0  0  0  0  0  0  0  0  0  0  0
   46.9120   32.4350   38.8760 C   0  0  0  0  0  3  0  0  0  0  0  0
   47.9040   32.9770   38.8610 H   0  0  0  0  0  0  0  0  0  0  0  0
   46.0170   33.2620   38.2490 O   0  0  0  0  0  0  0  0  0  0  0  0
   44.7170   33.1870   38.6760 C   0  0  0  0  0  2  0  0  0  0  0  0
   44.5540   33.6360   40.1250 C   0  0  0  0  0  2  0  0  0  0  0  0
  1  6  1  0  0  0  0
  2  1  2  0  0  0  0
  2  3  1  0  0  0  0
  3  4  2  0  0  0  0
  4  5  1  0  0  0  0
  5  8  1  0  0  0  0
  6  5  2  0  0  0  0
  7  1  1  0  0  0  0
  9  3  1  0  0  0  0
 10  9  1  0  0  0  0
 10 15  1  0  0  0  0
 11 10  2  0  0  0  0
 12 13  2  0  0  0  0
 12 11  1  0  0  0  0
 13 14  1  0  0  0  0
 14  9  2  0  0  0  0
 16 11  1  0  0  0  0
 17 12  1  0  0  0  0
 18 13  1  0  0  0  0
 19  2  1  0  0  0  0
 20 19  2  0  0  0  0
 21 19  1  0  0  0  0
 22 21  1  0  0  0  0
 22 23  1  0  0  0  0
 24 22  1  0  0  0  0
 25 24  1  0  0  0  0
 26 27  1  0  0  0  0
 26 24  1  0  0  0  0
 27 28  1  0  0  0  0
 28 21  1  0  0  0  0
M  END
>  <minimizedAffinity>
-4.34988213

>  <minimizedRMSD>
0.508890867

$$$$
