
 OpenBabel03242518503D

 22 23  0  0  0  0  0  0  0  0999 V2000
   44.5680   36.0300   44.4020 C   0  0  0  0  0  0  0  0  0  0  0  0
   45.3510   35.9100   43.2290 C   0  0  0  0  0  0  0  0  0  0  0  0
   46.2360   34.8270   43.2030 C   0  0  0  0  0  0  0  0  0  0  0  0
   46.2780   33.9930   44.2760 N   0  0  0  0  0  0  0  0  0  0  0  0
   45.5090   34.1520   45.3730 C   0  0  0  0  0  0  0  0  0  0  0  0
   44.6450   35.1770   45.4390 N   0  0  0  0  0  0  0  0  0  0  0  0
   43.8820   36.8670   44.4260 H   0  0  0  0  0  0  0  0  0  0  0  0
   45.2240   36.6450   42.4400 H   0  0  0  0  0  0  0  0  0  0  0  0
   45.5750   33.2470   46.5020 C   0  0  0  0  0  0  0  0  0  0  0  0
   44.9270   33.4230   47.5490 O   0  0  0  0  0  0  0  0  0  0  0  0
   46.3750   32.0770   46.5420 N   0  0  0  0  0  0  0  0  0  0  0  0
   46.1010   31.0670   45.5290 C   0  0  0  0  0  0  0  0  0  0  0  0
   47.0580   30.8150   45.0260 H   0  0  0  0  0  0  0  0  0  0  0  0
   45.4660   29.8960   46.2460 C   0  0  0  0  0  0  0  0  0  0  0  0
   45.6910   28.9620   45.6840 H   0  0  0  0  0  0  0  0  0  0  0  0
   45.9980   29.7200   47.5200 O   0  0  0  0  0  0  0  0  0  0  0  0
   47.3240   30.1390   47.5740 C   0  0  0  0  0  0  0  0  0  0  0  0
   47.4550   31.6500   47.4110 C   0  0  0  0  0  0  0  0  0  0  0  0
   47.0450   34.7020   41.9960 C   0  0  0  0  0  0  0  0  0  0  0  0
   47.9060   33.6070   42.1240 F   0  0  0  0  0  0  0  0  0  0  0  0
   47.8920   35.8210   41.9740 F   0  0  0  0  0  0  0  0  0  0  0  0
   46.3300   34.5630   40.8640 F   0  0  0  0  0  0  0  0  0  0  0  0
  1  7  1  0  0  0  0
  1  6  1  0  0  0  0
  2  1  2  0  0  0  0
  3  2  1  0  0  0  0
  3  4  2  0  0  0  0
  4  5  1  0  0  0  0
  5  6  2  0  0  0  0
  5  9  1  0  0  0  0
  8  2  1  0  0  0  0
  9 11  1  0  0  0  0
  9 10  2  0  0  0  0
 11 18  1  0  0  0  0
 12 14  1  0  0  0  0
 12 11  1  0  0  0  0
 13 12  1  0  0  0  0
 14 16  1  0  0  0  0
 15 14  1  0  0  0  0
 16 17  1  0  0  0  0
 18 17  1  0  0  0  0
 19 20  1  0  0  0  0
 19  3  1  0  0  0  0
 21 19  1  0  0  0  0
 22 19  1  0  0  0  0
M  END
>  <minimizedAffinity>
-5.45114279

>  <minimizedRMSD>
0.255278051

$$$$
