
 OpenBabel03242516523D

 44 47  0  0  1  0  0  0  0  0999 V2000
   47.8470   32.9010   41.8250 C   0  0  1  0  0  0  0  0  0  0  0  0
   47.5400   32.2860   40.5330 C   0  0  0  0  0  0  0  0  0  0  0  0
   48.5700   32.8300   39.5450 C   0  0  0  0  0  0  0  0  0  0  0  0
   48.2350   34.2810   39.3310 C   0  0  0  0  0  0  0  0  0  0  0  0
   48.1560   35.0870   40.5960 C   0  0  0  0  0  0  0  0  0  0  0  0
   47.6410   34.4200   41.8060 C   0  0  1  0  0  0  0  0  0  0  0  0
   48.9630   32.8170   42.0070 H   0  0  0  0  0  0  0  0  0  0  0  0
   46.5580   32.5730   40.0970 H   0  0  0  0  0  0  0  0  0  0  0  0
   47.6090   31.1980   40.5980 H   0  0  0  0  0  0  0  0  0  0  0  0
   49.6080   32.6900   39.8940 H   0  0  0  0  0  0  0  0  0  0  0  0
   48.3630   32.2990   38.5930 H   0  0  0  0  0  0  0  0  0  0  0  0
   47.2670   34.3140   38.7830 H   0  0  0  0  0  0  0  0  0  0  0  0
   48.9760   34.7340   38.6580 H   0  0  0  0  0  0  0  0  0  0  0  0
   47.5010   35.9650   40.3680 H   0  0  0  0  0  0  0  0  0  0  0  0
   49.1620   35.5390   40.7590 H   0  0  0  0  0  0  0  0  0  0  0  0
   48.2220   34.7930   42.6920 H   0  0  0  0  0  0  0  0  0  0  0  0
   45.4050   30.9220   43.9220 C   0  0  0  0  0  0  0  0  0  0  0  0
   46.0950   31.4920   42.8450 C   0  0  0  0  0  0  0  0  0  0  0  0
   47.1890   32.3470   42.9900 C   0  0  0  0  0  0  0  0  0  0  0  0
   47.5570   32.6040   44.2470 N   0  0  0  0  0  0  0  0  0  0  0  0
   46.8950   32.0560   45.3030 C   0  0  0  0  0  0  0  0  0  0  0  0
   45.8460   31.2360   45.1560 N   0  0  0  0  0  0  0  0  0  0  0  0
   44.5670   30.2700   43.7350 H   0  0  0  0  0  0  0  0  0  0  0  0
   45.7840   31.2750   41.8270 H   0  0  0  0  0  0  0  0  0  0  0  0
   47.2090   32.2770   46.3140 H   0  0  0  0  0  0  0  0  0  0  0  0
   46.2540   34.7800   42.0970 C   0  0  0  0  0  0  0  0  0  0  0  0
   45.7900   35.3360   43.2940 C   0  0  0  0  0  0  0  0  0  0  0  0
   44.4270   35.6190   43.3540 C   0  0  0  0  0  0  0  0  0  0  0  0
   43.6560   35.3320   42.2400 C   0  0  0  0  0  0  0  0  0  0  0  0
   44.1370   34.7850   41.0720 C   0  0  0  0  0  0  0  0  0  0  0  0
   45.4730   34.5130   41.0300 N   0  0  0  0  0  0  0  0  0  0  0  0
   46.4960   35.4990   44.0600 H   0  0  0  0  0  0  0  0  0  0  0  0
   44.0410   36.0480   44.2670 H   0  0  0  0  0  0  0  0  0  0  0  0
   42.5970   35.5480   42.2770 H   0  0  0  0  0  0  0  0  0  0  0  0
   43.2340   34.5210   39.9550 C   0  0  0  0  0  0  0  0  0  0  0  0
   42.3100   35.3450   39.7220 O   0  0  0  0  0  0  0  0  0  0  0  0
   43.1390   33.4800   38.9950 N   0  0  0  0  0  0  0  0  0  0  0  0
   44.4550   33.1390   38.4450 C   0  0  0  0  0  3  0  0  0  0  0  0
   44.6510   33.7210   37.5120 H   0  0  0  0  0  0  0  0  0  0  0  0
   44.3640   31.6680   38.0300 C   0  0  0  0  0  3  0  0  0  0  0  0
   43.9800   31.5490   37.0110 H   0  0  0  0  0  0  0  0  0  0  0  0
   43.6490   30.9510   38.9770 O   0  0  0  0  0  0  0  0  0  0  0  0
   42.2850   31.2520   38.9370 C   0  0  0  0  0  2  0  0  0  0  0  0
   42.0820   32.6490   38.3940 C   0  0  0  0  0  2  0  0  0  0  0  0
  1  7  1  1  0  0  0
  1 19  1  0  0  0  0
  2  9  1  0  0  0  0
  2  1  1  0  0  0  0
  3 10  1  0  0  0  0
  3  2  1  0  0  0  0
  4  3  1  0  0  0  0
  4  5  1  0  0  0  0
  5 15  1  0  0  0  0
  5  6  1  0  0  0  0
  6  1  1  0  0  0  0
  6 26  1  0  0  0  0
  6 16  1  1  0  0  0
  8  2  1  0  0  0  0
 11  3  1  0  0  0  0
 12  4  1  0  0  0  0
 13  4  1  0  0  0  0
 14  5  1  0  0  0  0
 17 22  1  0  0  0  0
 18 19  1  0  0  0  0
 18 17  2  0  0  0  0
 19 20  2  0  0  0  0
 20 21  1  0  0  0  0
 21 25  1  0  0  0  0
 22 21  2  0  0  0  0
 23 17  1  0  0  0  0
 24 18  1  0  0  0  0
 26 27  1  0  0  0  0
 27 28  2  0  0  0  0
 27 32  1  0  0  0  0
 28 33  1  0  0  0  0
 29 34  1  0  0  0  0
 29 28  1  0  0  0  0
 30 29  2  0  0  0  0
 31 30  1  0  0  0  0
 31 26  2  0  0  0  0
 35 30  1  0  0  0  0
 36 35  2  0  0  0  0
 37 35  1  0  0  0  0
 38 37  1  0  0  0  0
 39 38  1  0  0  0  0
 40 38  1  0  0  0  0
 40 42  1  0  0  0  0
 41 40  1  0  0  0  0
 43 42  1  0  0  0  0
 44 43  1  0  0  0  0
 44 37  1  0  0  0  0
M  END
>  <minimizedAffinity>
-5.51868439

>  <minimizedRMSD>
0.374664247

$$$$
