
 OpenBabel03242516533D

 44 47  0  0  1  0  0  0  0  0999 V2000
   47.8740   32.9350   41.8090 C   0  0  1  0  0  0  0  0  0  0  0  0
   47.5460   32.2040   40.5840 C   0  0  0  0  0  0  0  0  0  0  0  0
   48.5610   32.6500   39.5340 C   0  0  0  0  0  0  0  0  0  0  0  0
   48.2260   34.0770   39.1920 C   0  0  0  0  0  0  0  0  0  0  0  0
   48.1700   34.9970   40.3790 C   0  0  0  0  0  0  0  0  0  0  0  0
   47.6720   34.4460   41.6530 C   0  0  1  0  0  0  0  0  0  0  0  0
   48.9930   32.8630   41.9800 H   0  0  0  0  0  0  0  0  0  0  0  0
   46.5580   32.4540   40.1390 H   0  0  0  0  0  0  0  0  0  0  0  0
   47.6130   31.1270   40.7480 H   0  0  0  0  0  0  0  0  0  0  0  0
   49.6040   32.5400   39.8780 H   0  0  0  0  0  0  0  0  0  0  0  0
   48.3370   32.0350   38.6380 H   0  0  0  0  0  0  0  0  0  0  0  0
   47.2500   34.0640   38.6590 H   0  0  0  0  0  0  0  0  0  0  0  0
   48.9580   34.4630   38.4690 H   0  0  0  0  0  0  0  0  0  0  0  0
   47.5140   35.8520   40.0800 H   0  0  0  0  0  0  0  0  0  0  0  0
   49.1800   35.4570   40.4840 H   0  0  0  0  0  0  0  0  0  0  0  0
   48.2690   34.8960   42.4910 H   0  0  0  0  0  0  0  0  0  0  0  0
   45.5350   31.0790   44.1250 C   0  0  0  0  0  0  0  0  0  0  0  0
   46.2050   31.5500   42.9890 C   0  0  0  0  0  0  0  0  0  0  0  0
   47.2340   32.4930   43.0300 C   0  0  0  0  0  0  0  0  0  0  0  0
   47.5580   32.9390   44.2450 N   0  0  0  0  0  0  0  0  0  0  0  0
   46.9140   32.4900   45.3580 C   0  0  0  0  0  0  0  0  0  0  0  0
   45.9280   31.5840   45.3100 N   0  0  0  0  0  0  0  0  0  0  0  0
   44.7490   30.3490   44.0170 H   0  0  0  0  0  0  0  0  0  0  0  0
   45.9310   31.1780   42.0060 H   0  0  0  0  0  0  0  0  0  0  0  0
   47.1920   32.8640   46.3340 H   0  0  0  0  0  0  0  0  0  0  0  0
   46.2910   34.8380   41.9310 C   0  0  0  0  0  0  0  0  0  0  0  0
   45.8600   35.5790   43.0370 C   0  0  0  0  0  0  0  0  0  0  0  0
   44.4960   35.8560   43.0980 C   0  0  0  0  0  0  0  0  0  0  0  0
   43.6920   35.3820   42.0760 C   0  0  0  0  0  0  0  0  0  0  0  0
   44.1400   34.6540   40.9970 C   0  0  0  0  0  0  0  0  0  0  0  0
   45.4780   34.3910   40.9520 N   0  0  0  0  0  0  0  0  0  0  0  0
   46.5900   35.8730   43.7390 H   0  0  0  0  0  0  0  0  0  0  0  0
   44.1360   36.4270   43.9420 H   0  0  0  0  0  0  0  0  0  0  0  0
   42.6320   35.5930   42.1160 H   0  0  0  0  0  0  0  0  0  0  0  0
   43.2030   34.2020   39.9730 C   0  0  0  0  0  0  0  0  0  0  0  0
   42.6640   35.0630   39.2290 O   0  0  0  0  0  0  0  0  0  0  0  0
   42.7150   32.9270   39.5830 N   0  0  0  0  0  0  0  0  0  0  0  0
   41.2560   32.8500   39.7190 C   0  0  0  0  0  3  0  0  0  0  0  0
   40.9770   32.4400   40.7200 H   0  0  0  0  0  0  0  0  0  0  0  0
   40.7950   31.8240   38.6810 C   0  0  0  0  0  3  0  0  0  0  0  0
   40.8200   30.8010   39.0730 H   0  0  0  0  0  0  0  0  0  0  0  0
   41.5130   31.9810   37.5050 O   0  0  0  0  0  0  0  0  0  0  0  0
   42.8350   31.5470   37.6410 C   0  0  0  0  0  2  0  0  0  0  0  0
   43.2680   31.6570   39.0860 C   0  0  0  0  0  2  0  0  0  0  0  0
  1  7  1  1  0  0  0
  1 19  1  0  0  0  0
  2  9  1  0  0  0  0
  2  1  1  0  0  0  0
  3 10  1  0  0  0  0
  3  2  1  0  0  0  0
  4  3  1  0  0  0  0
  4  5  1  0  0  0  0
  5 15  1  0  0  0  0
  5  6  1  0  0  0  0
  6  1  1  0  0  0  0
  6 26  1  0  0  0  0
  6 16  1  1  0  0  0
  8  2  1  0  0  0  0
 11  3  1  0  0  0  0
 12  4  1  0  0  0  0
 13  4  1  0  0  0  0
 14  5  1  0  0  0  0
 17 22  1  0  0  0  0
 18 19  1  0  0  0  0
 18 17  2  0  0  0  0
 19 20  2  0  0  0  0
 20 21  1  0  0  0  0
 21 25  1  0  0  0  0
 22 21  2  0  0  0  0
 23 17  1  0  0  0  0
 24 18  1  0  0  0  0
 26 27  1  0  0  0  0
 27 28  2  0  0  0  0
 27 32  1  0  0  0  0
 28 33  1  0  0  0  0
 29 34  1  0  0  0  0
 29 28  1  0  0  0  0
 30 29  2  0  0  0  0
 31 30  1  0  0  0  0
 31 26  2  0  0  0  0
 35 30  1  0  0  0  0
 36 35  2  0  0  0  0
 37 38  1  0  0  0  0
 37 35  1  0  0  0  0
 38 39  1  0  0  0  0
 40 41  1  0  0  0  0
 40 38  1  0  0  0  0
 42 43  1  0  0  0  0
 42 40  1  0  0  0  0
 43 44  1  0  0  0  0
 44 37  1  0  0  0  0
M  END
>  <minimizedAffinity>
-5.6566596

>  <minimizedRMSD>
0.482871771

$$$$
