
 OpenBabel03252507163D

 28 30  0  0  0  0  0  0  0  0999 V2000
   45.7970   36.1430   43.0200 C   0  0  0  0  0  0  0  0  0  0  0  0
   46.2010   34.7950   43.1850 C   0  0  0  0  0  0  0  0  0  0  0  0
   45.6770   34.1060   44.2760 C   0  0  0  0  0  0  0  0  0  0  0  0
   44.8260   34.7240   45.1170 N   0  0  0  0  0  0  0  0  0  0  0  0
   44.4570   36.0290   44.9280 C   0  0  0  0  0  0  0  0  0  0  0  0
   44.9510   36.6930   43.8910 N   0  0  0  0  0  0  0  0  0  0  0  0
   46.1980   36.6960   42.1700 H   0  0  0  0  0  0  0  0  0  0  0  0
   43.7780   36.5300   45.5940 H   0  0  0  0  0  0  0  0  0  0  0  0
   46.0820   32.7190   44.4620 C   0  0  0  0  0  0  0  0  0  0  0  0
   45.4970   31.7220   43.7220 C   0  0  0  0  0  0  0  0  0  0  0  0
   45.9190   30.4250   43.9370 C   0  0  0  0  0  0  0  0  0  0  0  0
   46.8970   30.0750   44.8560 C   0  0  0  0  0  0  0  0  0  0  0  0
   47.4410   31.1180   45.5630 C   0  0  0  0  0  0  0  0  0  0  0  0
   47.0300   32.3850   45.3540 N   0  0  0  0  0  0  0  0  0  0  0  0
   44.7340   31.9770   43.0010 H   0  0  0  0  0  0  0  0  0  0  0  0
   45.4090   29.6890   43.3130 H   0  0  0  0  0  0  0  0  0  0  0  0
   47.1610   29.0370   44.9550 H   0  0  0  0  0  0  0  0  0  0  0  0
   48.2120   30.8780   46.2930 H   0  0  0  0  0  0  0  0  0  0  0  0
   47.1010   34.2060   42.2610 C   0  0  0  0  0  0  0  0  0  0  0  0
   48.2280   33.8490   42.6810 O   0  0  0  0  0  0  0  0  0  0  0  0
   46.8110   33.9890   40.8840 N   0  0  0  0  0  0  0  0  0  0  0  0
   45.5350   33.4320   40.4680 C   0  0  0  0  0  3  0  0  0  0  0  0
   44.9030   33.3200   41.3560 H   0  0  0  0  0  0  0  0  0  0  0  0
   45.8660   32.0640   39.8820 C   0  0  0  0  0  3  0  0  0  0  0  0
   45.8330   31.3540   40.7590 H   0  0  0  0  0  0  0  0  0  0  0  0
   47.1470   32.0100   39.3980 O   0  0  0  0  0  0  0  0  0  0  0  0
   47.6290   33.1580   38.8210 C   0  0  0  0  0  2  0  0  0  0  0  0
   47.7480   34.3050   39.8200 C   0  0  0  0  0  2  0  0  0  0  0  0
  1  2  2  0  0  0  0
  1  6  1  0  0  0  0
  2  3  1  0  0  0  0
  3  9  1  0  0  0  0
  3  4  2  0  0  0  0
  5  4  1  0  0  0  0
  5  8  1  0  0  0  0
  6  5  2  0  0  0  0
  7  1  1  0  0  0  0
  9 14  1  0  0  0  0
 10 11  1  0  0  0  0
 10  9  2  0  0  0  0
 11 12  2  0  0  0  0
 12 17  1  0  0  0  0
 12 13  1  0  0  0  0
 13 18  1  0  0  0  0
 14 13  2  0  0  0  0
 15 10  1  0  0  0  0
 16 11  1  0  0  0  0
 19 20  2  0  0  0  0
 19  2  1  0  0  0  0
 21 19  1  0  0  0  0
 22 21  1  0  0  0  0
 22 23  1  0  0  0  0
 24 22  1  0  0  0  0
 24 25  1  0  0  0  0
 26 24  1  0  0  0  0
 27 26  1  0  0  0  0
 27 28  1  0  0  0  0
 28 21  1  0  0  0  0
M  END
>  <minimizedAffinity>
-4.23434401

>  <minimizedRMSD>
1.20356703

$$$$
