
 OpenBabel03252507163D

 28 30  0  0  0  0  0  0  0  0999 V2000
   44.3120   35.6780   43.5020 C   0  0  0  0  0  0  0  0  0  0  0  0
   45.0420   34.5820   42.9780 C   0  0  0  0  0  0  0  0  0  0  0  0
   45.6680   33.7400   43.8940 C   0  0  0  0  0  0  0  0  0  0  0  0
   45.5640   33.9870   45.2140 N   0  0  0  0  0  0  0  0  0  0  0  0
   44.8500   35.0560   45.6870 C   0  0  0  0  0  0  0  0  0  0  0  0
   44.2510   35.8620   44.8210 N   0  0  0  0  0  0  0  0  0  0  0  0
   43.8160   36.3440   42.7970 H   0  0  0  0  0  0  0  0  0  0  0  0
   44.7630   35.2600   46.7390 H   0  0  0  0  0  0  0  0  0  0  0  0
   46.4230   32.6100   43.3730 C   0  0  0  0  0  0  0  0  0  0  0  0
   45.8130   31.3940   43.1930 C   0  0  0  0  0  0  0  0  0  0  0  0
   46.5750   30.3550   42.6950 C   0  0  0  0  0  0  0  0  0  0  0  0
   47.9170   30.4720   42.3680 C   0  0  0  0  0  0  0  0  0  0  0  0
   48.4680   31.7130   42.5710 C   0  0  0  0  0  0  0  0  0  0  0  0
   47.7240   32.7280   43.0580 N   0  0  0  0  0  0  0  0  0  0  0  0
   44.7670   31.2850   43.4420 H   0  0  0  0  0  0  0  0  0  0  0  0
   46.0210   29.4220   42.5800 H   0  0  0  0  0  0  0  0  0  0  0  0
   48.4300   29.6070   41.9860 H   0  0  0  0  0  0  0  0  0  0  0  0
   49.5200   31.8400   42.3250 H   0  0  0  0  0  0  0  0  0  0  0  0
   45.1100   34.3810   41.5750 C   0  0  0  0  0  0  0  0  0  0  0  0
   46.1960   34.6260   40.9980 O   0  0  0  0  0  0  0  0  0  0  0  0
   44.0260   33.9170   40.7770 N   0  0  0  0  0  0  0  0  0  0  0  0
   43.6240   32.5200   40.8010 C   0  0  0  0  0  3  0  0  0  0  0  0
   44.2270   32.0040   41.5550 H   0  0  0  0  0  0  0  0  0  0  0  0
   43.9490   31.9860   39.4110 C   0  0  0  0  0  3  0  0  0  0  0  0
   45.0180   31.6260   39.4790 H   0  0  0  0  0  0  0  0  0  0  0  0
   43.9400   32.9770   38.4640 O   0  0  0  0  0  0  0  0  0  0  0  0
   43.0130   33.9730   38.6350 C   0  0  0  0  0  2  0  0  0  0  0  0
   43.2620   34.7880   39.9010 C   0  0  0  0  0  2  0  0  0  0  0  0
  1  6  1  0  0  0  0
  2  1  2  0  0  0  0
  2  3  1  0  0  0  0
  3  4  2  0  0  0  0
  4  5  1  0  0  0  0
  5  8  1  0  0  0  0
  6  5  2  0  0  0  0
  7  1  1  0  0  0  0
  9  3  1  0  0  0  0
 10  9  1  0  0  0  0
 10 15  1  0  0  0  0
 11 10  2  0  0  0  0
 12 13  2  0  0  0  0
 12 11  1  0  0  0  0
 13 14  1  0  0  0  0
 14  9  2  0  0  0  0
 16 11  1  0  0  0  0
 17 12  1  0  0  0  0
 18 13  1  0  0  0  0
 19  2  1  0  0  0  0
 20 19  2  0  0  0  0
 21 22  1  0  0  0  0
 21 19  1  0  0  0  0
 22 23  1  0  0  0  0
 24 25  1  0  0  0  0
 24 22  1  0  0  0  0
 26 27  1  0  0  0  0
 26 24  1  0  0  0  0
 27 28  1  0  0  0  0
 28 21  1  0  0  0  0
M  END
>  <minimizedAffinity>
-4.05937624

>  <minimizedRMSD>
1.52866113

$$$$
