
 OpenBabel03242510223D

 37 40  0  0  1  0  0  0  0  0999 V2000
   48.0250   33.2410   43.1100 N   0  0  0  0  0  0  0  0  0  0  0  0
   49.2220   33.3300   42.4020 C   0  0  0  0  0  0  0  0  0  0  0  0
   50.3870   32.9800   42.7140 O   0  0  0  0  0  0  0  0  0  0  0  0
   47.4500   34.1110   43.0090 H   0  0  0  0  0  0  0  0  0  0  0  0
   46.3010   32.1040   44.4610 C   0  0  1  0  0  0  0  0  0  0  0  0
   46.4170   31.3610   43.2780 C   0  0  0  0  0  0  0  0  0  0  0  0
   47.6570   32.1010   43.8710 C   0  0  1  0  0  0  0  0  0  0  0  0
   46.1760   31.6520   45.4590 H   0  0  0  0  0  0  0  0  0  0  0  0
   46.5010   30.2350   43.3620 H   0  0  0  0  0  0  0  0  0  0  0  0
   46.1450   31.6270   42.2380 H   0  0  0  0  0  0  0  0  0  0  0  0
   48.4360   31.3990   44.2160 H   0  0  0  0  0  0  0  0  0  0  0  0
   45.0460   33.9860   43.1610 C   0  0  0  0  0  0  0  0  0  0  0  0
   45.5470   33.4450   44.3920 C   0  0  0  0  0  0  0  0  0  0  0  0
   45.3520   34.1850   45.5390 C   0  0  0  0  0  0  0  0  0  0  0  0
   44.7080   35.3680   45.4560 N   0  0  0  0  0  0  0  0  0  0  0  0
   44.2410   35.8700   44.2810 C   0  0  0  0  0  0  0  0  0  0  0  0
   44.4220   35.1450   43.1020 N   0  0  0  0  0  0  0  0  0  0  0  0
   45.1910   33.3880   42.2890 H   0  0  0  0  0  0  0  0  0  0  0  0
   45.7130   33.8100   46.4880 H   0  0  0  0  0  0  0  0  0  0  0  0
   43.7410   36.8290   44.3300 H   0  0  0  0  0  0  0  0  0  0  0  0
   49.2120   33.9340   41.0100 C   0  0  2  0  0  0  0  0  0  0  0  0
   48.6230   35.3890   40.8820 C   0  0  0  0  0  0  0  0  0  0  0  0
   47.9570   34.1910   40.2950 C   0  0  1  0  0  0  0  0  0  0  0  0
   50.1520   33.8750   40.4240 H   0  0  0  0  0  0  0  0  0  0  0  0
   49.1660   36.1050   40.2700 H   0  0  0  0  0  0  0  0  0  0  0  0
   48.2160   35.7450   41.8670 H   0  0  0  0  0  0  0  0  0  0  0  0
   47.0220   33.7870   40.7210 H   0  0  0  0  0  0  0  0  0  0  0  0
   47.9670   34.0510   38.7900 C   0  0  0  0  0  0  0  0  0  0  0  0
   48.5530   34.8830   38.1050 O   0  0  0  0  0  0  0  0  0  0  0  0
   47.2890   32.9440   38.1430 N   0  0  0  0  0  0  0  0  0  0  0  0
   47.9540   31.6540   38.2240 C   0  0  0  0  0  3  0  0  0  0  0  0
   47.9020   31.1810   39.2060 H   0  0  0  0  0  0  0  0  0  0  0  0
   47.4200   30.7940   37.1080 C   0  0  0  0  0  3  0  0  0  0  0  0
   47.6020   29.7140   37.3010 H   0  0  0  0  0  0  0  0  0  0  0  0
   46.0470   30.9180   36.9180 O   0  0  0  0  0  0  0  0  0  0  0  0
   45.7270   32.1960   36.4500 C   0  0  0  0  0  2  0  0  0  0  0  0
   46.0270   33.2280   37.4860 C   0  0  0  0  0  2  0  0  0  0  0  0
  1  7  1  0  0  0  0
  2  3  2  0  0  0  0
  2  1  1  0  0  0  0
  4  1  1  0  0  0  0
  5  8  1  1  0  0  0
  6  9  1  0  0  0  0
  6  7  1  0  0  0  0
  6  5  1  0  0  0  0
  7 11  1  1  0  0  0
  7  5  1  0  0  0  0
 10  6  1  0  0  0  0
 12 13  1  0  0  0  0
 13  5  1  0  0  0  0
 13 14  2  0  0  0  0
 14 19  1  0  0  0  0
 15 14  1  0  0  0  0
 16 20  1  0  0  0  0
 16 15  2  0  0  0  0
 17 12  2  0  0  0  0
 17 16  1  0  0  0  0
 18 12  1  0  0  0  0
 21 24  1  6  0  0  0
 21  2  1  0  0  0  0
 22 21  1  0  0  0  0
 22 26  1  0  0  0  0
 23 27  1  1  0  0  0
 23 22  1  0  0  0  0
 23 21  1  0  0  0  0
 25 22  1  0  0  0  0
 28 23  1  0  0  0  0
 29 28  2  0  0  0  0
 30 31  1  0  0  0  0
 30 28  1  0  0  0  0
 31 32  1  0  0  0  0
 33 34  1  0  0  0  0
 33 31  1  0  0  0  0
 35 33  1  0  0  0  0
 36 35  1  0  0  0  0
 36 37  1  0  0  0  0
 37 30  1  0  0  0  0
M  END
>  <minimizedAffinity>
-4.96246147

>  <minimizedRMSD>
0.556384146

$$$$
