
 OpenBabel03242510223D

 37 40  0  0  1  0  0  0  0  0999 V2000
   48.0460   33.1400   43.3200 N   0  0  0  0  0  0  0  0  0  0  0  0
   49.1810   33.1140   42.5120 C   0  0  0  0  0  0  0  0  0  0  0  0
   50.3110   32.5990   42.7030 O   0  0  0  0  0  0  0  0  0  0  0  0
   47.5860   34.0820   43.3110 H   0  0  0  0  0  0  0  0  0  0  0  0
   46.2000   32.0600   44.5510 C   0  0  1  0  0  0  0  0  0  0  0  0
   46.3760   31.3080   43.3810 C   0  0  0  0  0  0  0  0  0  0  0  0
   47.5930   32.0150   44.0570 C   0  0  1  0  0  0  0  0  0  0  0  0
   45.9920   31.6170   45.5390 H   0  0  0  0  0  0  0  0  0  0  0  0
   46.4230   30.1790   43.4750 H   0  0  0  0  0  0  0  0  0  0  0  0
   46.1860   31.5750   42.3240 H   0  0  0  0  0  0  0  0  0  0  0  0
   48.3250   31.2930   44.4590 H   0  0  0  0  0  0  0  0  0  0  0  0
   45.0160   33.9300   43.1690 C   0  0  0  0  0  0  0  0  0  0  0  0
   45.4900   33.4210   44.4240 C   0  0  0  0  0  0  0  0  0  0  0  0
   45.3130   34.2120   45.5400 C   0  0  0  0  0  0  0  0  0  0  0  0
   44.7100   35.4110   45.4060 N   0  0  0  0  0  0  0  0  0  0  0  0
   44.2670   35.8820   44.2090 C   0  0  0  0  0  0  0  0  0  0  0  0
   44.4310   35.1050   43.0610 N   0  0  0  0  0  0  0  0  0  0  0  0
   45.1470   33.2940   42.3220 H   0  0  0  0  0  0  0  0  0  0  0  0
   45.6550   33.8620   46.5060 H   0  0  0  0  0  0  0  0  0  0  0  0
   43.7990   36.8580   44.2170 H   0  0  0  0  0  0  0  0  0  0  0  0
   49.1370   33.7930   41.1560 C   0  0  2  0  0  0  0  0  0  0  0  0
   48.7060   35.3080   41.1460 C   0  0  0  0  0  0  0  0  0  0  0  0
   47.8700   34.2240   40.5560 C   0  0  1  0  0  0  0  0  0  0  0  0
   50.0190   33.6670   40.4960 H   0  0  0  0  0  0  0  0  0  0  0  0
   49.2790   35.9950   40.5280 H   0  0  0  0  0  0  0  0  0  0  0  0
   48.4140   35.6500   42.1750 H   0  0  0  0  0  0  0  0  0  0  0  0
   46.9290   33.8990   41.0330 H   0  0  0  0  0  0  0  0  0  0  0  0
   47.7540   34.1690   39.0500 C   0  0  0  0  0  0  0  0  0  0  0  0
   48.5700   34.7650   38.3540 O   0  0  0  0  0  0  0  0  0  0  0  0
   46.6860   33.4210   38.4130 N   0  0  0  0  0  0  0  0  0  0  0  0
   46.8510   33.1570   36.9930 C   0  0  0  0  0  0  0  0  0  0  0  0
   47.5960   32.3970   36.7600 H   0  0  0  0  0  0  0  0  0  0  0  0
   45.4870   32.8650   36.4240 C   0  0  0  0  0  0  0  0  0  0  0  0
   45.5560   32.3240   35.4540 H   0  0  0  0  0  0  0  0  0  0  0  0
   44.6970   32.0670   37.2470 O   0  0  0  0  0  0  0  0  0  0  0  0
   44.3590   32.7510   38.4180 C   0  0  0  0  0  0  0  0  0  0  0  0
   45.5730   33.0100   39.2470 C   0  0  0  0  0  0  0  0  0  0  0  0
  1  7  1  0  0  0  0
  2  3  2  0  0  0  0
  2  1  1  0  0  0  0
  4  1  1  0  0  0  0
  5  8  1  1  0  0  0
  6  9  1  0  0  0  0
  6  7  1  0  0  0  0
  6  5  1  0  0  0  0
  7 11  1  1  0  0  0
  7  5  1  0  0  0  0
 10  6  1  0  0  0  0
 12 13  1  0  0  0  0
 13  5  1  0  0  0  0
 13 14  2  0  0  0  0
 14 19  1  0  0  0  0
 15 14  1  0  0  0  0
 16 20  1  0  0  0  0
 16 15  2  0  0  0  0
 17 12  2  0  0  0  0
 17 16  1  0  0  0  0
 18 12  1  0  0  0  0
 21 24  1  6  0  0  0
 21  2  1  0  0  0  0
 22 21  1  0  0  0  0
 22 26  1  0  0  0  0
 23 27  1  1  0  0  0
 23 22  1  0  0  0  0
 23 21  1  0  0  0  0
 25 22  1  0  0  0  0
 28 23  1  0  0  0  0
 29 28  2  0  0  0  0
 30 28  1  0  0  0  0
 30 37  1  0  0  0  0
 31 30  1  0  0  0  0
 32 31  1  0  0  0  0
 33 31  1  0  0  0  0
 33 35  1  0  0  0  0
 34 33  1  0  0  0  0
 35 36  1  0  0  0  0
 36 37  1  0  0  0  0
M  END
>  <minimizedAffinity>
-5.15407848

>  <minimizedRMSD>
0.244912416

$$$$
