
 OpenBabel03242516523D

 44 47  0  0  1  0  0  0  0  0999 V2000
   47.8690   32.9350   41.8220 C   0  0  1  0  0  0  0  0  0  0  0  0
   47.5550   32.1880   40.6030 C   0  0  0  0  0  0  0  0  0  0  0  0
   48.5710   32.6340   39.5530 C   0  0  0  0  0  0  0  0  0  0  0  0
   48.2220   34.0540   39.1950 C   0  0  0  0  0  0  0  0  0  0  0  0
   48.1500   34.9850   40.3710 C   0  0  0  0  0  0  0  0  0  0  0  0
   47.6520   34.4430   41.6490 C   0  0  1  0  0  0  0  0  0  0  0  0
   48.9880   32.8780   41.9990 H   0  0  0  0  0  0  0  0  0  0  0  0
   46.5660   32.4220   40.1500 H   0  0  0  0  0  0  0  0  0  0  0  0
   47.6330   31.1130   40.7780 H   0  0  0  0  0  0  0  0  0  0  0  0
   49.6120   32.5390   39.9040 H   0  0  0  0  0  0  0  0  0  0  0  0
   48.3580   32.0070   38.6630 H   0  0  0  0  0  0  0  0  0  0  0  0
   47.2480   34.0240   38.6570 H   0  0  0  0  0  0  0  0  0  0  0  0
   48.9530   34.4400   38.4710 H   0  0  0  0  0  0  0  0  0  0  0  0
   47.4860   35.8300   40.0610 H   0  0  0  0  0  0  0  0  0  0  0  0
   49.1540   35.4570   40.4760 H   0  0  0  0  0  0  0  0  0  0  0  0
   48.2390   34.9080   42.4850 H   0  0  0  0  0  0  0  0  0  0  0  0
   45.5340   31.0830   44.1450 C   0  0  0  0  0  0  0  0  0  0  0  0
   46.2050   31.5490   43.0070 C   0  0  0  0  0  0  0  0  0  0  0  0
   47.2280   32.4990   43.0450 C   0  0  0  0  0  0  0  0  0  0  0  0
   47.5450   32.9560   44.2570 N   0  0  0  0  0  0  0  0  0  0  0  0
   46.9010   32.5120   45.3710 C   0  0  0  0  0  0  0  0  0  0  0  0
   45.9200   31.6000   45.3280 N   0  0  0  0  0  0  0  0  0  0  0  0
   44.7530   30.3480   44.0410 H   0  0  0  0  0  0  0  0  0  0  0  0
   45.9360   31.1690   42.0260 H   0  0  0  0  0  0  0  0  0  0  0  0
   47.1730   32.8950   46.3450 H   0  0  0  0  0  0  0  0  0  0  0  0
   46.2650   34.8210   41.9160 C   0  0  0  0  0  0  0  0  0  0  0  0
   45.8190   35.5600   43.0180 C   0  0  0  0  0  0  0  0  0  0  0  0
   44.4520   35.8250   43.0690 C   0  0  0  0  0  0  0  0  0  0  0  0
   43.6600   35.3430   42.0410 C   0  0  0  0  0  0  0  0  0  0  0  0
   44.1230   34.6170   40.9660 C   0  0  0  0  0  0  0  0  0  0  0  0
   45.4630   34.3660   40.9310 N   0  0  0  0  0  0  0  0  0  0  0  0
   46.5410   35.8610   43.7250 H   0  0  0  0  0  0  0  0  0  0  0  0
   44.0800   36.3930   43.9090 H   0  0  0  0  0  0  0  0  0  0  0  0
   42.5980   35.5440   42.0720 H   0  0  0  0  0  0  0  0  0  0  0  0
   43.1970   34.1550   39.9350 C   0  0  0  0  0  0  0  0  0  0  0  0
   42.6950   35.0060   39.1540 O   0  0  0  0  0  0  0  0  0  0  0  0
   42.6880   32.8810   39.5740 N   0  0  0  0  0  0  0  0  0  0  0  0
   41.2950   32.7200   40.0080 C   0  0  0  0  0  3  0  0  0  0  0  0
   41.2520   32.2400   41.0140 H   0  0  0  0  0  0  0  0  0  0  0  0
   40.6650   31.7310   39.0230 C   0  0  0  0  0  3  0  0  0  0  0  0
   40.8120   30.6910   39.3340 H   0  0  0  0  0  0  0  0  0  0  0  0
   41.1090   31.9920   37.7370 O   0  0  0  0  0  0  0  0  0  0  0  0
   42.4460   31.6200   37.5620 C   0  0  0  0  0  2  0  0  0  0  0  0
   43.1720   31.6710   38.8890 C   0  0  0  0  0  2  0  0  0  0  0  0
  1  7  1  1  0  0  0
  1 19  1  0  0  0  0
  2  9  1  0  0  0  0
  2  1  1  0  0  0  0
  3 10  1  0  0  0  0
  3  2  1  0  0  0  0
  4  3  1  0  0  0  0
  4  5  1  0  0  0  0
  5 15  1  0  0  0  0
  5  6  1  0  0  0  0
  6  1  1  0  0  0  0
  6 26  1  0  0  0  0
  6 16  1  1  0  0  0
  8  2  1  0  0  0  0
 11  3  1  0  0  0  0
 12  4  1  0  0  0  0
 13  4  1  0  0  0  0
 14  5  1  0  0  0  0
 17 22  1  0  0  0  0
 18 19  1  0  0  0  0
 18 17  2  0  0  0  0
 19 20  2  0  0  0  0
 20 21  1  0  0  0  0
 21 25  1  0  0  0  0
 22 21  2  0  0  0  0
 23 17  1  0  0  0  0
 24 18  1  0  0  0  0
 26 27  1  0  0  0  0
 27 28  2  0  0  0  0
 27 32  1  0  0  0  0
 28 33  1  0  0  0  0
 29 34  1  0  0  0  0
 29 28  1  0  0  0  0
 30 29  2  0  0  0  0
 31 30  1  0  0  0  0
 31 26  2  0  0  0  0
 35 30  1  0  0  0  0
 36 35  2  0  0  0  0
 37 35  1  0  0  0  0
 37 38  1  0  0  0  0
 38 39  1  0  0  0  0
 40 41  1  0  0  0  0
 40 38  1  0  0  0  0
 42 40  1  0  0  0  0
 43 42  1  0  0  0  0
 43 44  1  0  0  0  0
 44 37  1  0  0  0  0
M  END
>  <minimizedAffinity>
-5.66818953

>  <minimizedRMSD>
0.49721244

$$$$
