
 OpenBabel03242516523D

 44 47  0  0  1  0  0  0  0  0999 V2000
   47.7960   32.8160   41.7010 C   0  0  1  0  0  0  0  0  0  0  0  0
   47.3820   32.1500   40.4660 C   0  0  0  0  0  0  0  0  0  0  0  0
   48.3710   32.5920   39.3890 C   0  0  0  0  0  0  0  0  0  0  0  0
   48.0880   34.0450   39.1170 C   0  0  0  0  0  0  0  0  0  0  0  0
   48.1260   34.9180   40.3380 C   0  0  0  0  0  0  0  0  0  0  0  0
   47.6580   34.3400   41.6110 C   0  0  1  0  0  0  0  0  0  0  0  0
   48.9160   32.6880   41.8200 H   0  0  0  0  0  0  0  0  0  0  0  0
   46.3880   32.4610   40.0740 H   0  0  0  0  0  0  0  0  0  0  0  0
   47.4060   31.0660   40.5850 H   0  0  0  0  0  0  0  0  0  0  0  0
   49.4210   32.4210   39.6820 H   0  0  0  0  0  0  0  0  0  0  0  0
   48.0810   32.0240   38.4810 H   0  0  0  0  0  0  0  0  0  0  0  0
   47.0900   34.0960   38.6270 H   0  0  0  0  0  0  0  0  0  0  0  0
   48.8060   34.4260   38.3760 H   0  0  0  0  0  0  0  0  0  0  0  0
   47.4980   35.8130   40.1020 H   0  0  0  0  0  0  0  0  0  0  0  0
   49.1590   35.3280   40.4150 H   0  0  0  0  0  0  0  0  0  0  0  0
   48.3100   34.7290   42.4390 H   0  0  0  0  0  0  0  0  0  0  0  0
   45.4640   30.9880   44.0460 C   0  0  0  0  0  0  0  0  0  0  0  0
   46.1060   31.4730   42.9000 C   0  0  0  0  0  0  0  0  0  0  0  0
   47.1890   32.3550   42.9320 C   0  0  0  0  0  0  0  0  0  0  0  0
   47.5930   32.7260   44.1480 N   0  0  0  0  0  0  0  0  0  0  0  0
   46.9770   32.2630   45.2700 C   0  0  0  0  0  0  0  0  0  0  0  0
   45.9400   31.4160   45.2320 N   0  0  0  0  0  0  0  0  0  0  0  0
   44.6330   30.3090   43.9460 H   0  0  0  0  0  0  0  0  0  0  0  0
   45.7660   31.1630   41.9170 H   0  0  0  0  0  0  0  0  0  0  0  0
   47.3210   32.5760   46.2470 H   0  0  0  0  0  0  0  0  0  0  0  0
   46.3090   34.7810   41.9650 C   0  0  0  0  0  0  0  0  0  0  0  0
   45.9620   35.5030   43.1130 C   0  0  0  0  0  0  0  0  0  0  0  0
   44.6160   35.8370   43.2460 C   0  0  0  0  0  0  0  0  0  0  0  0
   43.7460   35.4330   42.2470 C   0  0  0  0  0  0  0  0  0  0  0  0
   44.1130   34.7230   41.1260 C   0  0  0  0  0  0  0  0  0  0  0  0
   45.4340   34.4040   41.0110 N   0  0  0  0  0  0  0  0  0  0  0  0
   46.7350   35.7410   43.7890 H   0  0  0  0  0  0  0  0  0  0  0  0
   44.3200   36.3940   44.1230 H   0  0  0  0  0  0  0  0  0  0  0  0
   42.7000   35.6880   42.3430 H   0  0  0  0  0  0  0  0  0  0  0  0
   43.1110   34.3460   40.1320 C   0  0  0  0  0  0  0  0  0  0  0  0
   42.6220   35.2470   39.4010 O   0  0  0  0  0  0  0  0  0  0  0  0
   42.5090   33.1150   39.7640 N   0  0  0  0  0  0  0  0  0  0  0  0
   42.1390   33.1060   38.3450 C   0  0  0  0  0  3  0  0  0  0  0  0
   41.0810   33.4420   38.2140 H   0  0  0  0  0  0  0  0  0  0  0  0
   42.1860   31.6380   37.9120 C   0  0  0  0  0  3  0  0  0  0  0  0
   41.2370   31.1220   38.0960 H   0  0  0  0  0  0  0  0  0  0  0  0
   43.2780   31.0070   38.4900 O   0  0  0  0  0  0  0  0  0  0  0  0
   43.0950   30.8040   39.8600 C   0  0  0  0  0  2  0  0  0  0  0  0
   42.1470   31.8450   40.4140 C   0  0  0  0  0  2  0  0  0  0  0  0
  1  7  1  1  0  0  0
  1 19  1  0  0  0  0
  2  9  1  0  0  0  0
  2  1  1  0  0  0  0
  3 10  1  0  0  0  0
  3  2  1  0  0  0  0
  4  3  1  0  0  0  0
  4  5  1  0  0  0  0
  5 15  1  0  0  0  0
  5  6  1  0  0  0  0
  6  1  1  0  0  0  0
  6 26  1  0  0  0  0
  6 16  1  1  0  0  0
  8  2  1  0  0  0  0
 11  3  1  0  0  0  0
 12  4  1  0  0  0  0
 13  4  1  0  0  0  0
 14  5  1  0  0  0  0
 17 22  1  0  0  0  0
 18 19  1  0  0  0  0
 18 17  2  0  0  0  0
 19 20  2  0  0  0  0
 20 21  1  0  0  0  0
 21 25  1  0  0  0  0
 22 21  2  0  0  0  0
 23 17  1  0  0  0  0
 24 18  1  0  0  0  0
 26 27  1  0  0  0  0
 27 28  2  0  0  0  0
 27 32  1  0  0  0  0
 28 33  1  0  0  0  0
 29 34  1  0  0  0  0
 29 28  1  0  0  0  0
 30 29  2  0  0  0  0
 31 30  1  0  0  0  0
 31 26  2  0  0  0  0
 35 30  1  0  0  0  0
 36 35  2  0  0  0  0
 37 35  1  0  0  0  0
 37 44  1  0  0  0  0
 38 37  1  0  0  0  0
 39 38  1  0  0  0  0
 40 41  1  0  0  0  0
 40 38  1  0  0  0  0
 40 42  1  0  0  0  0
 42 43  1  0  0  0  0
 43 44  1  0  0  0  0
M  END
>  <minimizedAffinity>
-5.45785522

>  <minimizedRMSD>
0.756922603

$$$$
