
 OpenBabel03252507163D

 28 30  0  0  0  0  0  0  0  0999 V2000
   45.3960   36.1460   43.1300 C   0  0  0  0  0  0  0  0  0  0  0  0
   45.9650   34.8620   42.9410 C   0  0  0  0  0  0  0  0  0  0  0  0
   45.8030   33.9390   43.9710 C   0  0  0  0  0  0  0  0  0  0  0  0
   45.1290   34.2840   45.0850 N   0  0  0  0  0  0  0  0  0  0  0  0
   44.5910   35.5350   45.2350 C   0  0  0  0  0  0  0  0  0  0  0  0
   44.7410   36.4200   44.2590 N   0  0  0  0  0  0  0  0  0  0  0  0
   45.5140   36.8790   42.3320 H   0  0  0  0  0  0  0  0  0  0  0  0
   44.0520   35.8190   46.1200 H   0  0  0  0  0  0  0  0  0  0  0  0
   46.3830   32.6140   43.7940 C   0  0  0  0  0  0  0  0  0  0  0  0
   45.5790   31.5400   43.5050 C   0  0  0  0  0  0  0  0  0  0  0  0
   46.1800   30.3070   43.3450 C   0  0  0  0  0  0  0  0  0  0  0  0
   47.5450   30.0950   43.4620 C   0  0  0  0  0  0  0  0  0  0  0  0
   48.2930   31.2090   43.7520 C   0  0  0  0  0  0  0  0  0  0  0  0
   47.7060   32.4130   43.9080 N   0  0  0  0  0  0  0  0  0  0  0  0
   44.5130   31.6880   43.4090 H   0  0  0  0  0  0  0  0  0  0  0  0
   45.4770   29.5030   43.1180 H   0  0  0  0  0  0  0  0  0  0  0  0
   47.9240   29.0980   43.3210 H   0  0  0  0  0  0  0  0  0  0  0  0
   49.3680   31.0770   43.8510 H   0  0  0  0  0  0  0  0  0  0  0  0
   46.6630   34.5650   41.7420 C   0  0  0  0  0  0  0  0  0  0  0  0
   47.9030   34.7530   41.7210 O   0  0  0  0  0  0  0  0  0  0  0  0
   46.0500   34.0650   40.5590 N   0  0  0  0  0  0  0  0  0  0  0  0
   44.6180   33.8200   40.5060 C   0  0  0  0  0  3  0  0  0  0  0  0
   44.1780   34.1590   41.4510 H   0  0  0  0  0  0  0  0  0  0  0  0
   44.4730   32.3080   40.3690 C   0  0  0  0  0  3  0  0  0  0  0  0
   44.4490   31.9210   41.4300 H   0  0  0  0  0  0  0  0  0  0  0  0
   45.5730   31.7390   39.7800 O   0  0  0  0  0  0  0  0  0  0  0  0
   46.1910   32.4780   38.8050 C   0  0  0  0  0  2  0  0  0  0  0  0
   46.7940   33.7710   39.3480 C   0  0  0  0  0  2  0  0  0  0  0  0
  1  6  1  0  0  0  0
  2  1  2  0  0  0  0
  2  3  1  0  0  0  0
  3  4  2  0  0  0  0
  4  5  1  0  0  0  0
  5  8  1  0  0  0  0
  6  5  2  0  0  0  0
  7  1  1  0  0  0  0
  9 14  1  0  0  0  0
  9  3  1  0  0  0  0
 10  9  2  0  0  0  0
 11 12  2  0  0  0  0
 11 10  1  0  0  0  0
 12 13  1  0  0  0  0
 13 18  1  0  0  0  0
 13 14  2  0  0  0  0
 15 10  1  0  0  0  0
 16 11  1  0  0  0  0
 17 12  1  0  0  0  0
 19  2  1  0  0  0  0
 20 19  2  0  0  0  0
 21 19  1  0  0  0  0
 22 21  1  0  0  0  0
 22 23  1  0  0  0  0
 24 22  1  0  0  0  0
 24 25  1  0  0  0  0
 26 24  1  0  0  0  0
 27 28  1  0  0  0  0
 27 26  1  0  0  0  0
 28 21  1  0  0  0  0
M  END
>  <minimizedAffinity>
-4.28266573

>  <minimizedRMSD>
0.281870723

$$$$
