
 OpenBabel03242516523D

 44 47  0  0  1  0  0  0  0  0999 V2000
   47.8410   32.9040   41.8200 C   0  0  1  0  0  0  0  0  0  0  0  0
   47.5280   32.2600   40.5440 C   0  0  0  0  0  0  0  0  0  0  0  0
   48.5450   32.7910   39.5360 C   0  0  0  0  0  0  0  0  0  0  0  0
   48.1970   34.2350   39.2950 C   0  0  0  0  0  0  0  0  0  0  0  0
   48.1230   35.0670   40.5440 C   0  0  0  0  0  0  0  0  0  0  0  0
   47.6230   34.4210   41.7710 C   0  0  1  0  0  0  0  0  0  0  0  0
   48.9590   32.8320   41.9940 H   0  0  0  0  0  0  0  0  0  0  0  0
   46.5400   32.5300   40.1110 H   0  0  0  0  0  0  0  0  0  0  0  0
   47.6060   31.1750   40.6300 H   0  0  0  0  0  0  0  0  0  0  0  0
   49.5870   32.6660   39.8790 H   0  0  0  0  0  0  0  0  0  0  0  0
   48.3340   32.2390   38.5970 H   0  0  0  0  0  0  0  0  0  0  0  0
   47.2240   34.2500   38.7550 H   0  0  0  0  0  0  0  0  0  0  0  0
   48.9290   34.6790   38.6060 H   0  0  0  0  0  0  0  0  0  0  0  0
   47.4600   35.9340   40.3030 H   0  0  0  0  0  0  0  0  0  0  0  0
   49.1270   35.5280   40.6880 H   0  0  0  0  0  0  0  0  0  0  0  0
   48.2090   34.8160   42.6440 H   0  0  0  0  0  0  0  0  0  0  0  0
   45.4290   30.9550   43.9800 C   0  0  0  0  0  0  0  0  0  0  0  0
   46.1050   31.5070   42.8850 C   0  0  0  0  0  0  0  0  0  0  0  0
   47.1980   32.3690   43.0020 C   0  0  0  0  0  0  0  0  0  0  0  0
   47.5780   32.6510   44.2500 N   0  0  0  0  0  0  0  0  0  0  0  0
   46.9290   32.1210   45.3230 C   0  0  0  0  0  0  0  0  0  0  0  0
   45.8810   31.2940   45.2030 N   0  0  0  0  0  0  0  0  0  0  0  0
   44.5920   30.2960   43.8140 H   0  0  0  0  0  0  0  0  0  0  0  0
   45.7850   31.2700   41.8750 H   0  0  0  0  0  0  0  0  0  0  0  0
   47.2520   32.3620   46.3260 H   0  0  0  0  0  0  0  0  0  0  0  0
   46.2360   34.7770   42.0670 C   0  0  0  0  0  0  0  0  0  0  0  0
   45.7810   35.3710   43.2490 C   0  0  0  0  0  0  0  0  0  0  0  0
   44.4160   35.6410   43.3160 C   0  0  0  0  0  0  0  0  0  0  0  0
   43.6340   35.3050   42.2240 C   0  0  0  0  0  0  0  0  0  0  0  0
   44.1070   34.7200   41.0710 C   0  0  0  0  0  0  0  0  0  0  0  0
   45.4450   34.4620   41.0210 N   0  0  0  0  0  0  0  0  0  0  0  0
   46.4950   35.5700   43.9990 H   0  0  0  0  0  0  0  0  0  0  0  0
   44.0370   36.1000   44.2180 H   0  0  0  0  0  0  0  0  0  0  0  0
   42.5740   35.5120   42.2670 H   0  0  0  0  0  0  0  0  0  0  0  0
   43.1920   34.4060   39.9760 C   0  0  0  0  0  0  0  0  0  0  0  0
   42.7440   35.3530   39.2770 O   0  0  0  0  0  0  0  0  0  0  0  0
   42.6450   33.1980   39.4720 N   0  0  0  0  0  0  0  0  0  0  0  0
   43.3670   32.0290   39.9870 C   0  0  0  0  0  3  0  0  0  0  0  0
   44.1800   31.7300   39.2810 H   0  0  0  0  0  0  0  0  0  0  0  0
   42.3510   30.8820   39.9920 C   0  0  0  0  0  3  0  0  0  0  0  0
   42.3170   30.3570   39.0310 H   0  0  0  0  0  0  0  0  0  0  0  0
   41.1150   31.3450   40.4130 O   0  0  0  0  0  0  0  0  0  0  0  0
   40.5020   32.1480   39.4460 C   0  0  0  0  0  2  0  0  0  0  0  0
   41.5530   32.7920   38.5710 C   0  0  0  0  0  2  0  0  0  0  0  0
  1  7  1  1  0  0  0
  1 19  1  0  0  0  0
  2  9  1  0  0  0  0
  2  1  1  0  0  0  0
  3 10  1  0  0  0  0
  3  2  1  0  0  0  0
  4  3  1  0  0  0  0
  4  5  1  0  0  0  0
  5 15  1  0  0  0  0
  5  6  1  0  0  0  0
  6  1  1  0  0  0  0
  6 26  1  0  0  0  0
  6 16  1  1  0  0  0
  8  2  1  0  0  0  0
 11  3  1  0  0  0  0
 12  4  1  0  0  0  0
 13  4  1  0  0  0  0
 14  5  1  0  0  0  0
 17 22  1  0  0  0  0
 18 19  1  0  0  0  0
 18 17  2  0  0  0  0
 19 20  2  0  0  0  0
 20 21  1  0  0  0  0
 21 25  1  0  0  0  0
 22 21  2  0  0  0  0
 23 17  1  0  0  0  0
 24 18  1  0  0  0  0
 26 27  1  0  0  0  0
 27 28  2  0  0  0  0
 27 32  1  0  0  0  0
 28 33  1  0  0  0  0
 29 34  1  0  0  0  0
 29 28  1  0  0  0  0
 30 29  2  0  0  0  0
 31 30  1  0  0  0  0
 31 26  2  0  0  0  0
 35 30  1  0  0  0  0
 36 35  2  0  0  0  0
 37 35  1  0  0  0  0
 37 38  1  0  0  0  0
 38 40  1  0  0  0  0
 39 38  1  0  0  0  0
 40 42  1  0  0  0  0
 41 40  1  0  0  0  0
 43 42  1  0  0  0  0
 44 43  1  0  0  0  0
 44 37  1  0  0  0  0
M  END
>  <minimizedAffinity>
-5.5357852

>  <minimizedRMSD>
0.64808172

$$$$
