
 OpenBabel03242510223D

 37 40  0  0  1  0  0  0  0  0999 V2000
   48.0620   33.2040   43.2600 N   0  0  0  0  0  0  0  0  0  0  0  0
   49.2100   33.2130   42.4700 C   0  0  0  0  0  0  0  0  0  0  0  0
   50.3590   32.7580   42.6910 O   0  0  0  0  0  0  0  0  0  0  0  0
   47.5580   34.1220   43.2190 H   0  0  0  0  0  0  0  0  0  0  0  0
   46.2700   32.0990   44.5480 C   0  0  1  0  0  0  0  0  0  0  0  0
   46.4330   31.3380   43.3810 C   0  0  0  0  0  0  0  0  0  0  0  0
   47.6510   32.0780   44.0190 C   0  0  1  0  0  0  0  0  0  0  0  0
   46.0960   31.6630   45.5450 H   0  0  0  0  0  0  0  0  0  0  0  0
   46.5060   30.2120   43.4860 H   0  0  0  0  0  0  0  0  0  0  0  0
   46.2120   31.5910   42.3270 H   0  0  0  0  0  0  0  0  0  0  0  0
   48.4080   31.3760   44.4100 H   0  0  0  0  0  0  0  0  0  0  0  0
   45.0500   33.9490   43.1690 C   0  0  0  0  0  0  0  0  0  0  0  0
   45.5290   33.4440   44.4240 C   0  0  0  0  0  0  0  0  0  0  0  0
   45.3260   34.2230   45.5440 C   0  0  0  0  0  0  0  0  0  0  0  0
   44.6950   35.4080   45.4140 N   0  0  0  0  0  0  0  0  0  0  0  0
   44.2490   35.8760   44.2170 C   0  0  0  0  0  0  0  0  0  0  0  0
   44.4380   35.1110   43.0650 N   0  0  0  0  0  0  0  0  0  0  0  0
   45.2010   33.3220   42.3200 H   0  0  0  0  0  0  0  0  0  0  0  0
   45.6710   33.8760   46.5100 H   0  0  0  0  0  0  0  0  0  0  0  0
   43.7570   36.8410   44.2280 H   0  0  0  0  0  0  0  0  0  0  0  0
   49.1550   33.8540   41.0960 C   0  0  2  0  0  0  0  0  0  0  0  0
   48.6890   35.3570   41.0440 C   0  0  0  0  0  0  0  0  0  0  0  0
   47.8810   34.2380   40.4800 C   0  0  1  0  0  0  0  0  0  0  0  0
   50.0430   33.7310   40.4430 H   0  0  0  0  0  0  0  0  0  0  0  0
   49.2470   36.0410   40.4100 H   0  0  0  0  0  0  0  0  0  0  0  0
   48.3840   35.7190   42.0620 H   0  0  0  0  0  0  0  0  0  0  0  0
   46.9460   33.9030   40.9630 H   0  0  0  0  0  0  0  0  0  0  0  0
   47.7730   34.1400   38.9750 C   0  0  0  0  0  0  0  0  0  0  0  0
   48.5260   34.7990   38.2670 O   0  0  0  0  0  0  0  0  0  0  0  0
   46.7860   33.2760   38.3560 N   0  0  0  0  0  0  0  0  0  0  0  0
   45.5600   33.0640   39.1080 C   0  0  0  0  0  3  0  0  0  0  0  0
   44.8840   33.9200   39.1170 H   0  0  0  0  0  0  0  0  0  0  0  0
   44.9270   31.7950   38.6010 C   0  0  0  0  0  3  0  0  0  0  0  0
   43.8470   31.7440   38.8600 H   0  0  0  0  0  0  0  0  0  0  0  0
   44.9900   31.6550   37.2170 O   0  0  0  0  0  0  0  0  0  0  0  0
   46.3130   31.4820   36.7990 C   0  0  0  0  0  2  0  0  0  0  0  0
   47.1140   32.7150   37.0600 C   0  0  0  0  0  2  0  0  0  0  0  0
  1  7  1  0  0  0  0
  2  3  2  0  0  0  0
  2  1  1  0  0  0  0
  4  1  1  0  0  0  0
  5  8  1  1  0  0  0
  6  9  1  0  0  0  0
  6  7  1  0  0  0  0
  6  5  1  0  0  0  0
  7 11  1  1  0  0  0
  7  5  1  0  0  0  0
 10  6  1  0  0  0  0
 12 13  1  0  0  0  0
 13  5  1  0  0  0  0
 13 14  2  0  0  0  0
 14 19  1  0  0  0  0
 15 14  1  0  0  0  0
 16 20  1  0  0  0  0
 16 15  2  0  0  0  0
 17 12  2  0  0  0  0
 17 16  1  0  0  0  0
 18 12  1  0  0  0  0
 21 24  1  6  0  0  0
 21  2  1  0  0  0  0
 22 21  1  0  0  0  0
 22 26  1  0  0  0  0
 23 27  1  1  0  0  0
 23 22  1  0  0  0  0
 23 21  1  0  0  0  0
 25 22  1  0  0  0  0
 28 23  1  0  0  0  0
 29 28  2  0  0  0  0
 30 28  1  0  0  0  0
 30 31  1  0  0  0  0
 31 32  1  0  0  0  0
 33 34  1  0  0  0  0
 33 31  1  0  0  0  0
 35 33  1  0  0  0  0
 36 37  1  0  0  0  0
 36 35  1  0  0  0  0
 37 30  1  0  0  0  0
M  END
>  <minimizedAffinity>
-5.00473547

>  <minimizedRMSD>
0.112446435

$$$$
