
 OpenBabel03252507173D

 28 30  0  0  0  0  0  0  0  0999 V2000
   36.2410   28.7000   38.8970 C   0  0  0  0  0  0  0  0  0  0  0  0
   36.8750   29.8260   39.4810 C   0  0  0  0  0  0  0  0  0  0  0  0
   37.4150   30.7700   38.6110 C   0  0  0  0  0  0  0  0  0  0  0  0
   37.3230   30.5890   37.2790 N   0  0  0  0  0  0  0  0  0  0  0  0
   36.7030   29.4890   36.7490 C   0  0  0  0  0  0  0  0  0  0  0  0
   36.1850   28.5850   37.5710 N   0  0  0  0  0  0  0  0  0  0  0  0
   35.8120   27.9530   39.5660 H   0  0  0  0  0  0  0  0  0  0  0  0
   36.6240   29.3370   35.6880 H   0  0  0  0  0  0  0  0  0  0  0  0
   38.0710   31.9330   39.1930 C   0  0  0  0  0  0  0  0  0  0  0  0
   37.3640   33.0880   39.4130 C   0  0  0  0  0  0  0  0  0  0  0  0
   38.0340   34.1610   39.9680 C   0  0  0  0  0  0  0  0  0  0  0  0
   39.3760   34.1350   40.3130 C   0  0  0  0  0  0  0  0  0  0  0  0
   40.0260   32.9510   40.0670 C   0  0  0  0  0  0  0  0  0  0  0  0
   39.3720   31.9030   39.5260 N   0  0  0  0  0  0  0  0  0  0  0  0
   36.3160   33.1250   39.1500 H   0  0  0  0  0  0  0  0  0  0  0  0
   37.4060   35.0420   40.1120 H   0  0  0  0  0  0  0  0  0  0  0  0
   39.8140   35.0200   40.7400 H   0  0  0  0  0  0  0  0  0  0  0  0
   41.0820   32.8970   40.3270 H   0  0  0  0  0  0  0  0  0  0  0  0
   36.9370   29.9530   40.8920 C   0  0  0  0  0  0  0  0  0  0  0  0
   36.1540   30.7600   41.4460 O   0  0  0  0  0  0  0  0  0  0  0  0
   37.8320   29.2220   41.7250 N   0  0  0  0  0  0  0  0  0  0  0  0
   39.1330   28.7970   41.2320 C   0  0  0  0  0  3  0  0  0  0  0  0
   39.2660   29.2050   40.2240 H   0  0  0  0  0  0  0  0  0  0  0  0
   39.0630   27.2750   41.1790 C   0  0  0  0  0  3  0  0  0  0  0  0
   38.6530   27.0370   40.1530 H   0  0  0  0  0  0  0  0  0  0  0  0
   38.1590   26.7710   42.0770 O   0  0  0  0  0  0  0  0  0  0  0  0
   38.0480   27.4380   43.2700 C   0  0  0  0  0  2  0  0  0  0  0  0
   37.5170   28.8580   43.0930 C   0  0  0  0  0  2  0  0  0  0  0  0
  1  2  1  0  0  0  0
  1  7  1  0  0  0  0
  2 19  1  0  0  0  0
  3  9  1  0  0  0  0
  3  2  2  0  0  0  0
  4  3  1  0  0  0  0
  5  4  2  0  0  0  0
  5  6  1  0  0  0  0
  6  1  2  0  0  0  0
  8  5  1  0  0  0  0
  9 10  2  0  0  0  0
  9 14  1  0  0  0  0
 10 11  1  0  0  0  0
 11 16  1  0  0  0  0
 11 12  2  0  0  0  0
 12 17  1  0  0  0  0
 13 12  1  0  0  0  0
 13 18  1  0  0  0  0
 14 13  2  0  0  0  0
 15 10  1  0  0  0  0
 19 20  2  0  0  0  0
 19 21  1  0  0  0  0
 21 28  1  0  0  0  0
 22 21  1  0  0  0  0
 23 22  1  0  0  0  0
 24 22  1  0  0  0  0
 24 26  1  0  0  0  0
 25 24  1  0  0  0  0
 26 27  1  0  0  0  0
 28 27  1  0  0  0  0
M  END
>  <minimizedAffinity>
-5.03956032

$$$$

 OpenBabel03252507173D

 28 30  0  0  0  0  0  0  0  0999 V2000
   37.0020   32.0400   39.5710 C   0  0  0  0  0  0  0  0  0  0  0  0
   37.0980   30.7790   40.2110 C   0  0  0  0  0  0  0  0  0  0  0  0
   38.1240   30.6150   41.1380 C   0  0  0  0  0  0  0  0  0  0  0  0
   38.9720   31.6310   41.3900 N   0  0  0  0  0  0  0  0  0  0  0  0
   38.8500   32.8370   40.7530 C   0  0  0  0  0  0  0  0  0  0  0  0
   37.8750   33.0020   39.8690 N   0  0  0  0  0  0  0  0  0  0  0  0
   36.2030   32.1830   38.8430 H   0  0  0  0  0  0  0  0  0  0  0  0
   39.5220   33.6530   40.9480 H   0  0  0  0  0  0  0  0  0  0  0  0
   38.2380   29.3260   41.8050 C   0  0  0  0  0  0  0  0  0  0  0  0
   37.6810   29.1360   43.0440 C   0  0  0  0  0  0  0  0  0  0  0  0
   37.8170   27.8940   43.6320 C   0  0  0  0  0  0  0  0  0  0  0  0
   38.4840   26.8310   43.0410 C   0  0  0  0  0  0  0  0  0  0  0  0
   39.0190   27.0860   41.8030 C   0  0  0  0  0  0  0  0  0  0  0  0
   38.8860   28.2990   41.2290 N   0  0  0  0  0  0  0  0  0  0  0  0
   37.1570   29.9530   43.5200 H   0  0  0  0  0  0  0  0  0  0  0  0
   37.3490   27.8200   44.6150 H   0  0  0  0  0  0  0  0  0  0  0  0
   38.5400   25.8990   43.5750 H   0  0  0  0  0  0  0  0  0  0  0  0
   39.5490   26.2730   41.3100 H   0  0  0  0  0  0  0  0  0  0  0  0
   36.1710   29.7520   39.8970 C   0  0  0  0  0  0  0  0  0  0  0  0
   35.2600   29.5080   40.7240 O   0  0  0  0  0  0  0  0  0  0  0  0
   36.2050   28.9770   38.7030 N   0  0  0  0  0  0  0  0  0  0  0  0
   37.4640   28.6980   38.0290 C   0  0  0  0  0  3  0  0  0  0  0  0
   38.2760   29.1050   38.6420 H   0  0  0  0  0  0  0  0  0  0  0  0
   37.3810   29.4440   36.7020 C   0  0  0  0  0  3  0  0  0  0  0  0
   37.7850   30.4760   36.9200 H   0  0  0  0  0  0  0  0  0  0  0  0
   36.0850   29.6210   36.2920 O   0  0  0  0  0  0  0  0  0  0  0  0
   35.2100   28.6060   36.5840 C   0  0  0  0  0  2  0  0  0  0  0  0
   35.0150   28.4230   38.0870 C   0  0  0  0  0  2  0  0  0  0  0  0
  1  6  2  0  0  0  0
  1  2  1  0  0  0  0
  2  3  2  0  0  0  0
  3  4  1  0  0  0  0
  3  9  1  0  0  0  0
  5  8  1  0  0  0  0
  5  4  2  0  0  0  0
  6  5  1  0  0  0  0
  7  1  1  0  0  0  0
  9 10  1  0  0  0  0
 10 15  1  0  0  0  0
 10 11  2  0  0  0  0
 11 16  1  0  0  0  0
 12 17  1  0  0  0  0
 12 11  1  0  0  0  0
 13 12  2  0  0  0  0
 14 13  1  0  0  0  0
 14  9  2  0  0  0  0
 18 13  1  0  0  0  0
 19  2  1  0  0  0  0
 19 20  2  0  0  0  0
 21 19  1  0  0  0  0
 22 23  1  0  0  0  0
 22 21  1  0  0  0  0
 24 25  1  0  0  0  0
 24 22  1  0  0  0  0
 26 27  1  0  0  0  0
 26 24  1  0  0  0  0
 27 28  1  0  0  0  0
 28 21  1  0  0  0  0
M  END
>  <minimizedAffinity>
-4.9257412

$$$$

 OpenBabel03252507173D

 28 30  0  0  0  0  0  0  0  0999 V2000
   35.8380   29.6660   38.2420 C   0  0  0  0  0  0  0  0  0  0  0  0
   36.4680   29.4530   39.4940 C   0  0  0  0  0  0  0  0  0  0  0  0
   36.5800   28.1350   39.9310 C   0  0  0  0  0  0  0  0  0  0  0  0
   36.1000   27.1310   39.1720 N   0  0  0  0  0  0  0  0  0  0  0  0
   35.4970   27.3730   37.9670 C   0  0  0  0  0  0  0  0  0  0  0  0
   35.3860   28.6250   37.5430 N   0  0  0  0  0  0  0  0  0  0  0  0
   35.7440   30.6920   37.8870 H   0  0  0  0  0  0  0  0  0  0  0  0
   35.1110   26.5780   37.3550 H   0  0  0  0  0  0  0  0  0  0  0  0
   37.2240   27.8980   41.2160 C   0  0  0  0  0  0  0  0  0  0  0  0
   36.4730   27.8240   42.3620 C   0  0  0  0  0  0  0  0  0  0  0  0
   37.1330   27.5960   43.5540 C   0  0  0  0  0  0  0  0  0  0  0  0
   38.5070   27.4390   43.6550 C   0  0  0  0  0  0  0  0  0  0  0  0
   39.2000   27.5240   42.4730 C   0  0  0  0  0  0  0  0  0  0  0  0
   38.5550   27.7460   41.3090 N   0  0  0  0  0  0  0  0  0  0  0  0
   35.4010   27.9440   42.3020 H   0  0  0  0  0  0  0  0  0  0  0  0
   36.4710   27.5510   44.4200 H   0  0  0  0  0  0  0  0  0  0  0  0
   38.9340   27.2650   44.6270 H   0  0  0  0  0  0  0  0  0  0  0  0
   40.2800   27.4040   42.5170 H   0  0  0  0  0  0  0  0  0  0  0  0
   36.9510   30.5570   40.2420 C   0  0  0  0  0  0  0  0  0  0  0  0
   36.1840   31.0760   41.0880 O   0  0  0  0  0  0  0  0  0  0  0  0
   38.2530   31.1160   40.0990 N   0  0  0  0  0  0  0  0  0  0  0  0
   38.9480   31.0720   38.8220 C   0  0  0  0  0  3  0  0  0  0  0  0
   38.2700   30.6380   38.0790 H   0  0  0  0  0  0  0  0  0  0  0  0
   40.1420   30.1500   39.0480 C   0  0  0  0  0  3  0  0  0  0  0  0
   39.7580   29.1130   38.8170 H   0  0  0  0  0  0  0  0  0  0  0  0
   40.5320   30.1280   40.3620 O   0  0  0  0  0  0  0  0  0  0  0  0
   40.4140   31.3080   41.0520 C   0  0  0  0  0  2  0  0  0  0  0  0
   38.9620   31.7560   41.1910 C   0  0  0  0  0  2  0  0  0  0  0  0
  1  2  1  0  0  0  0
  2  3  2  0  0  0  0
  2 19  1  0  0  0  0
  3  9  1  0  0  0  0
  4  3  1  0  0  0  0
  5  4  2  0  0  0  0
  6  5  1  0  0  0  0
  6  1  2  0  0  0  0
  7  1  1  0  0  0  0
  8  5  1  0  0  0  0
  9 14  2  0  0  0  0
  9 10  1  0  0  0  0
 10 11  2  0  0  0  0
 11 12  1  0  0  0  0
 11 16  1  0  0  0  0
 12 17  1  0  0  0  0
 13 18  1  0  0  0  0
 13 12  2  0  0  0  0
 14 13  1  0  0  0  0
 15 10  1  0  0  0  0
 19 20  2  0  0  0  0
 21 19  1  0  0  0  0
 21 28  1  0  0  0  0
 22 24  1  0  0  0  0
 22 21  1  0  0  0  0
 23 22  1  0  0  0  0
 24 26  1  0  0  0  0
 25 24  1  0  0  0  0
 26 27  1  0  0  0  0
 27 28  1  0  0  0  0
M  END
>  <minimizedAffinity>
-4.86906433

$$$$

 OpenBabel03252507173D

 28 30  0  0  0  0  0  0  0  0999 V2000
   38.1770   30.7300   37.8400 C   0  0  0  0  0  0  0  0  0  0  0  0
   38.4830   30.1940   39.1160 C   0  0  0  0  0  0  0  0  0  0  0  0
   37.5370   29.3490   39.6920 C   0  0  0  0  0  0  0  0  0  0  0  0
   36.3910   29.0760   39.0380 N   0  0  0  0  0  0  0  0  0  0  0  0
   36.1280   29.6120   37.8060 C   0  0  0  0  0  0  0  0  0  0  0  0
   37.0230   30.4170   37.2500 N   0  0  0  0  0  0  0  0  0  0  0  0
   38.9080   31.3920   37.3770 H   0  0  0  0  0  0  0  0  0  0  0  0
   35.2170   29.3990   37.2770 H   0  0  0  0  0  0  0  0  0  0  0  0
   37.8340   28.7900   41.0030 C   0  0  0  0  0  0  0  0  0  0  0  0
   37.4290   29.4410   42.1420 C   0  0  0  0  0  0  0  0  0  0  0  0
   37.7360   28.8660   43.3590 C   0  0  0  0  0  0  0  0  0  0  0  0
   38.4290   27.6730   43.4950 C   0  0  0  0  0  0  0  0  0  0  0  0
   38.8060   27.0720   42.3200 C   0  0  0  0  0  0  0  0  0  0  0  0
   38.5060   27.6330   41.1300 N   0  0  0  0  0  0  0  0  0  0  0  0
   36.8870   30.3710   42.0540 H   0  0  0  0  0  0  0  0  0  0  0  0
   37.3820   29.4410   44.2170 H   0  0  0  0  0  0  0  0  0  0  0  0
   38.6230   27.3010   44.4860 H   0  0  0  0  0  0  0  0  0  0  0  0
   39.3520   26.1340   42.3900 H   0  0  0  0  0  0  0  0  0  0  0  0
   39.7080   30.5240   39.7490 C   0  0  0  0  0  0  0  0  0  0  0  0
   40.6340   29.6790   39.7180 O   0  0  0  0  0  0  0  0  0  0  0  0
   39.9600   31.7560   40.4190 N   0  0  0  0  0  0  0  0  0  0  0  0
   38.8820   32.4870   41.0670 C   0  0  0  0  0  3  0  0  0  0  0  0
   37.9700   31.8850   40.9960 H   0  0  0  0  0  0  0  0  0  0  0  0
   38.7300   33.7730   40.2610 C   0  0  0  0  0  3  0  0  0  0  0  0
   37.9950   33.5180   39.4420 H   0  0  0  0  0  0  0  0  0  0  0  0
   39.8950   34.1260   39.6330 O   0  0  0  0  0  0  0  0  0  0  0  0
   41.0580   33.8530   40.3070 C   0  0  0  0  0  2  0  0  0  0  0  0
   41.2780   32.3550   40.5000 C   0  0  0  0  0  2  0  0  0  0  0  0
  1  2  1  0  0  0  0
  2  3  2  0  0  0  0
  2 19  1  0  0  0  0
  3  9  1  0  0  0  0
  4  3  1  0  0  0  0
  5  4  2  0  0  0  0
  6  5  1  0  0  0  0
  6  1  2  0  0  0  0
  7  1  1  0  0  0  0
  8  5  1  0  0  0  0
  9 14  2  0  0  0  0
  9 10  1  0  0  0  0
 10 11  2  0  0  0  0
 11 12  1  0  0  0  0
 11 16  1  0  0  0  0
 12 17  1  0  0  0  0
 13 18  1  0  0  0  0
 13 12  2  0  0  0  0
 14 13  1  0  0  0  0
 15 10  1  0  0  0  0
 19 21  1  0  0  0  0
 20 19  2  0  0  0  0
 21 28  1  0  0  0  0
 21 22  1  0  0  0  0
 23 22  1  0  0  0  0
 24 22  1  0  0  0  0
 25 24  1  0  0  0  0
 26 24  1  0  0  0  0
 26 27  1  0  0  0  0
 27 28  1  0  0  0  0
M  END
>  <minimizedAffinity>
-4.80348825

$$$$

 OpenBabel03252507173D

 28 30  0  0  0  0  0  0  0  0999 V2000
   39.6220   30.5460   41.3330 C   0  0  0  0  0  0  0  0  0  0  0  0
   38.5940   29.9100   40.5930 C   0  0  0  0  0  0  0  0  0  0  0  0
   37.5740   30.7200   40.1010 C   0  0  0  0  0  0  0  0  0  0  0  0
   37.5940   32.0460   40.3370 N   0  0  0  0  0  0  0  0  0  0  0  0
   38.6030   32.6280   41.0570 C   0  0  0  0  0  0  0  0  0  0  0  0
   39.5790   31.8640   41.5290 N   0  0  0  0  0  0  0  0  0  0  0  0
   40.4280   29.9250   41.7240 H   0  0  0  0  0  0  0  0  0  0  0  0
   38.6270   33.6850   41.2500 H   0  0  0  0  0  0  0  0  0  0  0  0
   36.5090   30.0840   39.3380 C   0  0  0  0  0  0  0  0  0  0  0  0
   35.3760   29.6370   39.9720 C   0  0  0  0  0  0  0  0  0  0  0  0
   34.3960   29.0420   39.2020 C   0  0  0  0  0  0  0  0  0  0  0  0
   34.4940   28.8700   37.8290 C   0  0  0  0  0  0  0  0  0  0  0  0
   35.6500   29.3380   37.2570 C   0  0  0  0  0  0  0  0  0  0  0  0
   36.6070   29.9200   38.0080 N   0  0  0  0  0  0  0  0  0  0  0  0
   35.2830   29.7630   41.0410 H   0  0  0  0  0  0  0  0  0  0  0  0
   33.5280   28.7120   39.7750 H   0  0  0  0  0  0  0  0  0  0  0  0
   33.6790   28.3940   37.3120 H   0  0  0  0  0  0  0  0  0  0  0  0
   35.7590   29.2200   36.1800 H   0  0  0  0  0  0  0  0  0  0  0  0
   38.6350   28.5080   40.3820 C   0  0  0  0  0  0  0  0  0  0  0  0
   39.0380   28.0920   39.2700 O   0  0  0  0  0  0  0  0  0  0  0  0
   38.2500   27.5390   41.3510 N   0  0  0  0  0  0  0  0  0  0  0  0
   37.2250   27.8370   42.3390 C   0  0  0  0  0  3  0  0  0  0  0  0
   36.8180   28.8300   42.1190 H   0  0  0  0  0  0  0  0  0  0  0  0
   37.9530   27.8500   43.6790 C   0  0  0  0  0  3  0  0  0  0  0  0
   38.3120   28.9140   43.8060 H   0  0  0  0  0  0  0  0  0  0  0  0
   39.0780   27.0680   43.6610 O   0  0  0  0  0  0  0  0  0  0  0  0
   39.0110   25.9230   42.9090 C   0  0  0  0  0  2  0  0  0  0  0  0
   38.8390   26.2150   41.4210 C   0  0  0  0  0  2  0  0  0  0  0  0
  1  6  1  0  0  0  0
  1  7  1  0  0  0  0
  2  1  2  0  0  0  0
  3  4  2  0  0  0  0
  3  2  1  0  0  0  0
  4  5  1  0  0  0  0
  5  8  1  0  0  0  0
  5  6  2  0  0  0  0
  9 10  1  0  0  0  0
  9  3  1  0  0  0  0
 10 15  1  0  0  0  0
 11 16  1  0  0  0  0
 11 10  2  0  0  0  0
 12 11  1  0  0  0  0
 13 12  2  0  0  0  0
 13 14  1  0  0  0  0
 14  9  2  0  0  0  0
 17 12  1  0  0  0  0
 18 13  1  0  0  0  0
 19  2  1  0  0  0  0
 19 21  1  0  0  0  0
 20 19  2  0  0  0  0
 21 28  1  0  0  0  0
 21 22  1  0  0  0  0
 22 24  1  0  0  0  0
 23 22  1  0  0  0  0
 24 25  1  0  0  0  0
 26 24  1  0  0  0  0
 27 26  1  0  0  0  0
 28 27  1  0  0  0  0
M  END
>  <minimizedAffinity>
-4.75711155

$$$$

 OpenBabel03252507173D

 28 30  0  0  0  0  0  0  0  0999 V2000
   37.5620   30.3090   37.9540 C   0  0  0  0  0  0  0  0  0  0  0  0
   37.9300   29.7760   39.2150 C   0  0  0  0  0  0  0  0  0  0  0  0
   36.9880   28.9860   39.8690 C   0  0  0  0  0  0  0  0  0  0  0  0
   35.7880   28.7600   39.3010 N   0  0  0  0  0  0  0  0  0  0  0  0
   35.4650   29.2900   38.0800 C   0  0  0  0  0  0  0  0  0  0  0  0
   36.3570   30.0440   37.4500 N   0  0  0  0  0  0  0  0  0  0  0  0
   38.2890   30.9280   37.4300 H   0  0  0  0  0  0  0  0  0  0  0  0
   34.5100   29.1140   37.6200 H   0  0  0  0  0  0  0  0  0  0  0  0
   37.3500   28.4320   41.1660 C   0  0  0  0  0  0  0  0  0  0  0  0
   37.7240   27.1160   41.2760 C   0  0  0  0  0  0  0  0  0  0  0  0
   38.0580   26.6400   42.5290 C   0  0  0  0  0  0  0  0  0  0  0  0
   38.0360   27.4160   43.6780 C   0  0  0  0  0  0  0  0  0  0  0  0
   37.6530   28.7220   43.5010 C   0  0  0  0  0  0  0  0  0  0  0  0
   37.3260   29.1870   42.2770 N   0  0  0  0  0  0  0  0  0  0  0  0
   37.7480   26.4970   40.3900 H   0  0  0  0  0  0  0  0  0  0  0  0
   38.3440   25.5870   42.5360 H   0  0  0  0  0  0  0  0  0  0  0  0
   38.3120   26.9590   44.6120 H   0  0  0  0  0  0  0  0  0  0  0  0
   37.6240   29.3590   44.3830 H   0  0  0  0  0  0  0  0  0  0  0  0
   39.2110   30.0560   39.7560 C   0  0  0  0  0  0  0  0  0  0  0  0
   40.0870   29.1610   39.6890 O   0  0  0  0  0  0  0  0  0  0  0  0
   39.5710   31.2890   40.3710 N   0  0  0  0  0  0  0  0  0  0  0  0
   38.5800   32.0940   41.0680 C   0  0  0  0  0  3  0  0  0  0  0  0
   37.6340   31.5400   41.0740 H   0  0  0  0  0  0  0  0  0  0  0  0
   38.4410   33.3650   40.2360 C   0  0  0  0  0  3  0  0  0  0  0  0
   37.6400   33.1290   39.4750 H   0  0  0  0  0  0  0  0  0  0  0  0
   39.5780   33.6380   39.5220 O   0  0  0  0  0  0  0  0  0  0  0  0
   40.7680   33.3200   40.1260 C   0  0  0  0  0  2  0  0  0  0  0  0
   40.9220   31.8180   40.3480 C   0  0  0  0  0  2  0  0  0  0  0  0
  1  2  1  0  0  0  0
  2 19  1  0  0  0  0
  2  3  2  0  0  0  0
  3  9  1  0  0  0  0
  4  3  1  0  0  0  0
  5  4  2  0  0  0  0
  6  1  2  0  0  0  0
  6  5  1  0  0  0  0
  7  1  1  0  0  0  0
  8  5  1  0  0  0  0
  9 10  2  0  0  0  0
  9 14  1  0  0  0  0
 10 11  1  0  0  0  0
 11 16  1  0  0  0  0
 11 12  2  0  0  0  0
 12 17  1  0  0  0  0
 13 12  1  0  0  0  0
 13 18  1  0  0  0  0
 14 13  2  0  0  0  0
 15 10  1  0  0  0  0
 19 21  1  0  0  0  0
 20 19  2  0  0  0  0
 21 22  1  0  0  0  0
 22 23  1  0  0  0  0
 24 22  1  0  0  0  0
 25 24  1  0  0  0  0
 26 27  1  0  0  0  0
 26 24  1  0  0  0  0
 27 28  1  0  0  0  0
 28 21  1  0  0  0  0
M  END
>  <minimizedAffinity>
-4.72845554

$$$$

 OpenBabel03252507173D

 28 30  0  0  0  0  0  0  0  0999 V2000
   36.9370   24.7730   40.7900 C   0  0  0  0  0  0  0  0  0  0  0  0
   37.0880   26.1750   40.9410 C   0  0  0  0  0  0  0  0  0  0  0  0
   36.6220   26.9770   39.9030 C   0  0  0  0  0  0  0  0  0  0  0  0
   36.0580   26.4140   38.8170 N   0  0  0  0  0  0  0  0  0  0  0  0
   35.9280   25.0550   38.7040 C   0  0  0  0  0  0  0  0  0  0  0  0
   36.3700   24.2830   39.6890 N   0  0  0  0  0  0  0  0  0  0  0  0
   37.2970   24.1320   41.5950 H   0  0  0  0  0  0  0  0  0  0  0  0
   35.4800   24.5970   37.8410 H   0  0  0  0  0  0  0  0  0  0  0  0
   36.7690   28.4200   40.0400 C   0  0  0  0  0  0  0  0  0  0  0  0
   35.7680   29.1670   40.6080 C   0  0  0  0  0  0  0  0  0  0  0  0
   35.9600   30.5300   40.7150 C   0  0  0  0  0  0  0  0  0  0  0  0
   37.1030   31.1840   40.2820 C   0  0  0  0  0  0  0  0  0  0  0  0
   38.0660   30.3800   39.7230 C   0  0  0  0  0  0  0  0  0  0  0  0
   37.8790   29.0490   39.6190 N   0  0  0  0  0  0  0  0  0  0  0  0
   34.8700   28.6740   40.9520 H   0  0  0  0  0  0  0  0  0  0  0  0
   35.1210   31.0560   41.1760 H   0  0  0  0  0  0  0  0  0  0  0  0
   37.1640   32.2510   40.4060 H   0  0  0  0  0  0  0  0  0  0  0  0
   38.9770   30.8620   39.3720 H   0  0  0  0  0  0  0  0  0  0  0  0
   37.6920   26.7010   42.1110 C   0  0  0  0  0  0  0  0  0  0  0  0
   36.9430   27.1790   42.9970 O   0  0  0  0  0  0  0  0  0  0  0  0
   39.0960   26.7230   42.3500 N   0  0  0  0  0  0  0  0  0  0  0  0
   40.0390   26.8220   41.2480 C   0  0  0  0  0  3  0  0  0  0  0  0
   39.4690   26.9490   40.3210 H   0  0  0  0  0  0  0  0  0  0  0  0
   40.7790   25.4890   41.2340 C   0  0  0  0  0  3  0  0  0  0  0  0
   40.1570   24.8160   40.5730 H   0  0  0  0  0  0  0  0  0  0  0  0
   40.7970   24.8990   42.4700 O   0  0  0  0  0  0  0  0  0  0  0  0
   40.8910   25.7430   43.5470 C   0  0  0  0  0  2  0  0  0  0  0  0
   39.6720   26.6510   43.6800 C   0  0  0  0  0  2  0  0  0  0  0  0
  1  2  1  0  0  0  0
  1  7  1  0  0  0  0
  2 19  1  0  0  0  0
  3  9  1  0  0  0  0
  3  2  2  0  0  0  0
  4  3  1  0  0  0  0
  5  4  2  0  0  0  0
  5  6  1  0  0  0  0
  6  1  2  0  0  0  0
  8  5  1  0  0  0  0
  9 10  1  0  0  0  0
 10 11  2  0  0  0  0
 10 15  1  0  0  0  0
 11 16  1  0  0  0  0
 12 17  1  0  0  0  0
 12 11  1  0  0  0  0
 13 12  2  0  0  0  0
 14 13  1  0  0  0  0
 14  9  2  0  0  0  0
 18 13  1  0  0  0  0
 19 21  1  0  0  0  0
 19 20  2  0  0  0  0
 21 28  1  0  0  0  0
 22 21  1  0  0  0  0
 23 22  1  0  0  0  0
 24 22  1  0  0  0  0
 24 26  1  0  0  0  0
 25 24  1  0  0  0  0
 26 27  1  0  0  0  0
 27 28  1  0  0  0  0
M  END
>  <minimizedAffinity>
-4.71599388

$$$$

 OpenBabel03252507173D

 28 30  0  0  0  0  0  0  0  0999 V2000
   36.1760   26.4580   38.2710 C   0  0  0  0  0  0  0  0  0  0  0  0
   36.6970   27.7090   38.6870 C   0  0  0  0  0  0  0  0  0  0  0  0
   35.9140   28.8340   38.4410 C   0  0  0  0  0  0  0  0  0  0  0  0
   34.7200   28.7040   37.8310 N   0  0  0  0  0  0  0  0  0  0  0  0
   34.2460   27.4790   37.4430 C   0  0  0  0  0  0  0  0  0  0  0  0
   34.9860   26.4020   37.6730 N   0  0  0  0  0  0  0  0  0  0  0  0
   36.7770   25.5680   38.4570 H   0  0  0  0  0  0  0  0  0  0  0  0
   33.2950   27.3660   36.9560 H   0  0  0  0  0  0  0  0  0  0  0  0
   36.4340   30.1280   38.8600 C   0  0  0  0  0  0  0  0  0  0  0  0
   37.1130   30.9230   37.9710 C   0  0  0  0  0  0  0  0  0  0  0  0
   37.5840   32.1410   38.4210 C   0  0  0  0  0  0  0  0  0  0  0  0
   37.4100   32.6030   39.7160 C   0  0  0  0  0  0  0  0  0  0  0  0
   36.7230   31.7620   40.5560 C   0  0  0  0  0  0  0  0  0  0  0  0
   36.2630   30.5720   40.1170 N   0  0  0  0  0  0  0  0  0  0  0  0
   37.2570   30.5790   36.9570 H   0  0  0  0  0  0  0  0  0  0  0  0
   38.1120   32.7150   37.6580 H   0  0  0  0  0  0  0  0  0  0  0  0
   37.8120   33.5660   39.9770 H   0  0  0  0  0  0  0  0  0  0  0  0
   36.5690   32.0940   41.5800 H   0  0  0  0  0  0  0  0  0  0  0  0
   37.9630   27.7740   39.3220 C   0  0  0  0  0  0  0  0  0  0  0  0
   38.9730   27.9660   38.6040 O   0  0  0  0  0  0  0  0  0  0  0  0
   38.1650   27.6390   40.7250 N   0  0  0  0  0  0  0  0  0  0  0  0
   37.2740   26.8190   41.5320 C   0  0  0  0  0  3  0  0  0  0  0  0
   36.5600   26.3280   40.8610 H   0  0  0  0  0  0  0  0  0  0  0  0
   36.5490   27.7990   42.4480 C   0  0  0  0  0  3  0  0  0  0  0  0
   35.6380   28.1250   41.8650 H   0  0  0  0  0  0  0  0  0  0  0  0
   37.2840   28.9340   42.6710 O   0  0  0  0  0  0  0  0  0  0  0  0
   38.6440   28.7730   42.7500 C   0  0  0  0  0  2  0  0  0  0  0  0
   39.2490   28.2920   41.4340 C   0  0  0  0  0  2  0  0  0  0  0  0
  1  7  1  0  0  0  0
  1  2  1  0  0  0  0
  2 19  1  0  0  0  0
  3  2  2  0  0  0  0
  3  9  1  0  0  0  0
  4  3  1  0  0  0  0
  5  6  1  0  0  0  0
  5  4  2  0  0  0  0
  6  1  2  0  0  0  0
  8  5  1  0  0  0  0
  9 14  1  0  0  0  0
 10 11  1  0  0  0  0
 10  9  2  0  0  0  0
 11 12  2  0  0  0  0
 12 17  1  0  0  0  0
 12 13  1  0  0  0  0
 13 18  1  0  0  0  0
 14 13  2  0  0  0  0
 15 10  1  0  0  0  0
 16 11  1  0  0  0  0
 19 21  1  0  0  0  0
 20 19  2  0  0  0  0
 21 28  1  0  0  0  0
 21 22  1  0  0  0  0
 22 24  1  0  0  0  0
 23 22  1  0  0  0  0
 24 26  1  0  0  0  0
 25 24  1  0  0  0  0
 26 27  1  0  0  0  0
 28 27  1  0  0  0  0
M  END
>  <minimizedAffinity>
-4.63945818

$$$$

 OpenBabel03252507173D

 28 30  0  0  0  0  0  0  0  0999 V2000
   36.2780   27.0380   37.7210 C   0  0  0  0  0  0  0  0  0  0  0  0
   36.8680   27.2490   38.9930 C   0  0  0  0  0  0  0  0  0  0  0  0
   36.1980   28.1020   39.8670 C   0  0  0  0  0  0  0  0  0  0  0  0
   35.0440   28.6840   39.4880 N   0  0  0  0  0  0  0  0  0  0  0  0
   34.5030   28.4580   38.2510 C   0  0  0  0  0  0  0  0  0  0  0  0
   35.1340   27.6470   37.4120 N   0  0  0  0  0  0  0  0  0  0  0  0
   36.7900   26.3720   37.0250 H   0  0  0  0  0  0  0  0  0  0  0  0
   33.5830   28.9180   37.9410 H   0  0  0  0  0  0  0  0  0  0  0  0
   36.7900   28.3310   41.1780 C   0  0  0  0  0  0  0  0  0  0  0  0
   36.4020   27.5730   42.2540 C   0  0  0  0  0  0  0  0  0  0  0  0
   36.9950   27.8300   43.4750 C   0  0  0  0  0  0  0  0  0  0  0  0
   37.9570   28.8090   43.6720 C   0  0  0  0  0  0  0  0  0  0  0  0
   38.3000   29.5320   42.5570 C   0  0  0  0  0  0  0  0  0  0  0  0
   37.7210   29.2810   41.3650 N   0  0  0  0  0  0  0  0  0  0  0  0
   35.6540   26.8040   42.1180 H   0  0  0  0  0  0  0  0  0  0  0  0
   36.6360   27.1880   44.2810 H   0  0  0  0  0  0  0  0  0  0  0  0
   38.3630   28.9390   44.6600 H   0  0  0  0  0  0  0  0  0  0  0  0
   39.0530   30.3090   42.6770 H   0  0  0  0  0  0  0  0  0  0  0  0
   38.0860   26.6040   39.3260 C   0  0  0  0  0  0  0  0  0  0  0  0
   39.1580   27.2090   39.0860 O   0  0  0  0  0  0  0  0  0  0  0  0
   38.1740   25.3110   39.9180 N   0  0  0  0  0  0  0  0  0  0  0  0
   37.1610   24.3000   39.6590 C   0  0  0  0  0  3  0  0  0  0  0  0
   36.4580   24.7030   38.9210 H   0  0  0  0  0  0  0  0  0  0  0  0
   36.4590   24.0860   40.9950 C   0  0  0  0  0  3  0  0  0  0  0  0
   35.6230   24.8460   41.0110 H   0  0  0  0  0  0  0  0  0  0  0  0
   37.2710   24.3900   42.0570 O   0  0  0  0  0  0  0  0  0  0  0  0
   38.6020   24.0980   41.9080 C   0  0  0  0  0  2  0  0  0  0  0  0
   39.2570   24.9200   40.8010 C   0  0  0  0  0  2  0  0  0  0  0  0
  1  2  1  0  0  0  0
  2 19  1  0  0  0  0
  2  3  2  0  0  0  0
  3  9  1  0  0  0  0
  4  3  1  0  0  0  0
  5  4  2  0  0  0  0
  6  1  2  0  0  0  0
  6  5  1  0  0  0  0
  7  1  1  0  0  0  0
  8  5  1  0  0  0  0
  9 14  2  0  0  0  0
  9 10  1  0  0  0  0
 10 11  2  0  0  0  0
 11 12  1  0  0  0  0
 11 16  1  0  0  0  0
 12 17  1  0  0  0  0
 13 18  1  0  0  0  0
 13 12  2  0  0  0  0
 14 13  1  0  0  0  0
 15 10  1  0  0  0  0
 19 21  1  0  0  0  0
 20 19  2  0  0  0  0
 21 28  1  0  0  0  0
 22 21  1  0  0  0  0
 22 24  1  0  0  0  0
 23 22  1  0  0  0  0
 24 25  1  0  0  0  0
 24 26  1  0  0  0  0
 27 26  1  0  0  0  0
 28 27  1  0  0  0  0
M  END
>  <minimizedAffinity>
-4.61736155

$$$$
