
 OpenBabel03242516523D

 44 47  0  0  1  0  0  0  0  0999 V2000
   47.7800   32.7860   41.6310 C   0  0  1  0  0  0  0  0  0  0  0  0
   47.3420   32.1070   40.4110 C   0  0  0  0  0  0  0  0  0  0  0  0
   48.3220   32.5230   39.3150 C   0  0  0  0  0  0  0  0  0  0  0  0
   48.0510   33.9740   39.0250 C   0  0  0  0  0  0  0  0  0  0  0  0
   48.1140   34.8650   40.2330 C   0  0  0  0  0  0  0  0  0  0  0  0
   47.6570   34.3100   41.5210 C   0  0  1  0  0  0  0  0  0  0  0  0
   48.9000   32.6470   41.7370 H   0  0  0  0  0  0  0  0  0  0  0  0
   46.3470   32.4230   40.0280 H   0  0  0  0  0  0  0  0  0  0  0  0
   47.3560   31.0240   40.5450 H   0  0  0  0  0  0  0  0  0  0  0  0
   49.3740   32.3450   39.5960 H   0  0  0  0  0  0  0  0  0  0  0  0
   48.0140   31.9440   38.4190 H   0  0  0  0  0  0  0  0  0  0  0  0
   47.0470   34.0300   38.5480 H   0  0  0  0  0  0  0  0  0  0  0  0
   48.7630   34.3370   38.2700 H   0  0  0  0  0  0  0  0  0  0  0  0
   47.4930   35.7630   39.9930 H   0  0  0  0  0  0  0  0  0  0  0  0
   49.1530   35.2650   40.2910 H   0  0  0  0  0  0  0  0  0  0  0  0
   48.3240   34.7040   42.3340 H   0  0  0  0  0  0  0  0  0  0  0  0
   45.4500   31.0300   44.0320 C   0  0  0  0  0  0  0  0  0  0  0  0
   46.0830   31.4910   42.8710 C   0  0  0  0  0  0  0  0  0  0  0  0
   47.1840   32.3490   42.8760 C   0  0  0  0  0  0  0  0  0  0  0  0
   47.6180   32.7220   44.0820 N   0  0  0  0  0  0  0  0  0  0  0  0
   47.0120   32.2830   45.2180 C   0  0  0  0  0  0  0  0  0  0  0  0
   45.9550   31.4580   45.2060 N   0  0  0  0  0  0  0  0  0  0  0  0
   44.6030   30.3680   43.9530 H   0  0  0  0  0  0  0  0  0  0  0  0
   45.7190   31.1790   41.8970 H   0  0  0  0  0  0  0  0  0  0  0  0
   47.3790   32.5970   46.1860 H   0  0  0  0  0  0  0  0  0  0  0  0
   46.3180   34.7710   41.8860 C   0  0  0  0  0  0  0  0  0  0  0  0
   45.9910   35.4970   43.0370 C   0  0  0  0  0  0  0  0  0  0  0  0
   44.6510   35.8510   43.1810 C   0  0  0  0  0  0  0  0  0  0  0  0
   43.7670   35.4600   42.1900 C   0  0  0  0  0  0  0  0  0  0  0  0
   44.1140   34.7450   41.0660 C   0  0  0  0  0  0  0  0  0  0  0  0
   45.4290   34.4060   40.9390 N   0  0  0  0  0  0  0  0  0  0  0  0
   46.7730   35.7240   43.7070 H   0  0  0  0  0  0  0  0  0  0  0  0
   44.3710   36.4120   44.0610 H   0  0  0  0  0  0  0  0  0  0  0  0
   42.7250   35.7300   42.2940 H   0  0  0  0  0  0  0  0  0  0  0  0
   43.0980   34.3830   40.0800 C   0  0  0  0  0  0  0  0  0  0  0  0
   42.7510   35.2460   39.2310 O   0  0  0  0  0  0  0  0  0  0  0  0
   42.3510   33.2030   39.8300 N   0  0  0  0  0  0  0  0  0  0  0  0
   41.2830   33.0280   40.8220 C   0  0  0  0  0  3  0  0  0  0  0  0
   41.6380   32.3930   41.6700 H   0  0  0  0  0  0  0  0  0  0  0  0
   40.1830   32.2330   40.1130 C   0  0  0  0  0  3  0  0  0  0  0  0
   40.3420   31.1510   40.1870 H   0  0  0  0  0  0  0  0  0  0  0  0
   40.0400   32.6800   38.8090 O   0  0  0  0  0  0  0  0  0  0  0  0
   41.1160   32.2920   38.0030 C   0  0  0  0  0  2  0  0  0  0  0  0
   42.3520   32.1030   38.8530 C   0  0  0  0  0  2  0  0  0  0  0  0
  1  7  1  1  0  0  0
  1 19  1  0  0  0  0
  2  9  1  0  0  0  0
  2  1  1  0  0  0  0
  3 10  1  0  0  0  0
  3  2  1  0  0  0  0
  4  3  1  0  0  0  0
  4  5  1  0  0  0  0
  5 15  1  0  0  0  0
  5  6  1  0  0  0  0
  6  1  1  0  0  0  0
  6 26  1  0  0  0  0
  6 16  1  1  0  0  0
  8  2  1  0  0  0  0
 11  3  1  0  0  0  0
 12  4  1  0  0  0  0
 13  4  1  0  0  0  0
 14  5  1  0  0  0  0
 17 22  1  0  0  0  0
 18 19  1  0  0  0  0
 18 17  2  0  0  0  0
 19 20  2  0  0  0  0
 20 21  1  0  0  0  0
 21 25  1  0  0  0  0
 22 21  2  0  0  0  0
 23 17  1  0  0  0  0
 24 18  1  0  0  0  0
 26 27  1  0  0  0  0
 27 28  2  0  0  0  0
 27 32  1  0  0  0  0
 28 33  1  0  0  0  0
 29 34  1  0  0  0  0
 29 28  1  0  0  0  0
 30 29  2  0  0  0  0
 31 30  1  0  0  0  0
 31 26  2  0  0  0  0
 35 30  1  0  0  0  0
 36 35  2  0  0  0  0
 37 35  1  0  0  0  0
 37 38  1  0  0  0  0
 38 39  1  0  0  0  0
 40 41  1  0  0  0  0
 40 38  1  0  0  0  0
 42 40  1  0  0  0  0
 43 42  1  0  0  0  0
 43 44  1  0  0  0  0
 44 37  1  0  0  0  0
M  END
>  <minimizedAffinity>
-5.73360014

>  <minimizedRMSD>
0.822583854

$$$$
