
 OpenBabel03242516523D

 44 47  0  0  1  0  0  0  0  0999 V2000
   47.8510   32.8990   41.8300 C   0  0  1  0  0  0  0  0  0  0  0  0
   47.5560   32.2990   40.5290 C   0  0  0  0  0  0  0  0  0  0  0  0
   48.5980   32.8490   39.5570 C   0  0  0  0  0  0  0  0  0  0  0  0
   48.2690   34.3040   39.3540 C   0  0  0  0  0  0  0  0  0  0  0  0
   48.1800   35.0970   40.6270 C   0  0  0  0  0  0  0  0  0  0  0  0
   47.6510   34.4190   41.8240 C   0  0  1  0  0  0  0  0  0  0  0  0
   48.9650   32.8100   42.0220 H   0  0  0  0  0  0  0  0  0  0  0  0
   46.5790   32.5930   40.0860 H   0  0  0  0  0  0  0  0  0  0  0  0
   47.6210   31.2100   40.5830 H   0  0  0  0  0  0  0  0  0  0  0  0
   49.6310   32.7030   39.9150 H   0  0  0  0  0  0  0  0  0  0  0  0
   48.3980   32.3290   38.5970 H   0  0  0  0  0  0  0  0  0  0  0  0
   47.3070   34.3460   38.7970 H   0  0  0  0  0  0  0  0  0  0  0  0
   49.0190   34.7610   38.6930 H   0  0  0  0  0  0  0  0  0  0  0  0
   47.5300   35.9790   40.4010 H   0  0  0  0  0  0  0  0  0  0  0  0
   49.1860   35.5430   40.8040 H   0  0  0  0  0  0  0  0  0  0  0  0
   48.2240   34.7810   42.7200 H   0  0  0  0  0  0  0  0  0  0  0  0
   45.3960   30.8900   43.8820 C   0  0  0  0  0  0  0  0  0  0  0  0
   46.0970   31.4700   42.8180 C   0  0  0  0  0  0  0  0  0  0  0  0
   47.1810   32.3350   42.9830 C   0  0  0  0  0  0  0  0  0  0  0  0
   47.5250   32.5920   44.2460 N   0  0  0  0  0  0  0  0  0  0  0  0
   46.8510   32.0360   45.2890 C   0  0  0  0  0  0  0  0  0  0  0  0
   45.8130   31.2050   45.1230 N   0  0  0  0  0  0  0  0  0  0  0  0
   44.5680   30.2300   43.6790 H   0  0  0  0  0  0  0  0  0  0  0  0
   45.8060   31.2520   41.7940 H   0  0  0  0  0  0  0  0  0  0  0  0
   47.1460   32.2570   46.3060 H   0  0  0  0  0  0  0  0  0  0  0  0
   46.2620   34.7810   42.1050 C   0  0  0  0  0  0  0  0  0  0  0  0
   45.7960   35.3720   43.2850 C   0  0  0  0  0  0  0  0  0  0  0  0
   44.4310   35.6490   43.3370 C   0  0  0  0  0  0  0  0  0  0  0  0
   43.6610   35.3230   42.2330 C   0  0  0  0  0  0  0  0  0  0  0  0
   44.1440   34.7410   41.0830 C   0  0  0  0  0  0  0  0  0  0  0  0
   45.4820   34.4760   41.0480 N   0  0  0  0  0  0  0  0  0  0  0  0
   46.5020   35.5630   44.0440 H   0  0  0  0  0  0  0  0  0  0  0  0
   44.0440   36.1050   44.2360 H   0  0  0  0  0  0  0  0  0  0  0  0
   42.6010   35.5350   42.2650 H   0  0  0  0  0  0  0  0  0  0  0  0
   43.2410   34.4370   39.9760 C   0  0  0  0  0  0  0  0  0  0  0  0
   42.3870   35.3010   39.6430 O   0  0  0  0  0  0  0  0  0  0  0  0
   43.0830   33.3170   39.1190 N   0  0  0  0  0  0  0  0  0  0  0  0
   44.1530   33.2550   38.1180 C   0  0  0  0  0  3  0  0  0  0  0  0
   43.8420   33.7760   37.1790 H   0  0  0  0  0  0  0  0  0  0  0  0
   44.3060   31.7730   37.7640 C   0  0  0  0  0  3  0  0  0  0  0  0
   43.6260   31.4680   36.9610 H   0  0  0  0  0  0  0  0  0  0  0  0
   44.1930   30.9970   38.9080 O   0  0  0  0  0  0  0  0  0  0  0  0
   42.8760   30.9540   39.3780 C   0  0  0  0  0  2  0  0  0  0  0  0
   42.1360   32.2020   38.9530 C   0  0  0  0  0  2  0  0  0  0  0  0
  1  7  1  1  0  0  0
  1 19  1  0  0  0  0
  2  9  1  0  0  0  0
  2  1  1  0  0  0  0
  3 10  1  0  0  0  0
  3  2  1  0  0  0  0
  4  3  1  0  0  0  0
  4  5  1  0  0  0  0
  5 15  1  0  0  0  0
  5  6  1  0  0  0  0
  6  1  1  0  0  0  0
  6 26  1  0  0  0  0
  6 16  1  1  0  0  0
  8  2  1  0  0  0  0
 11  3  1  0  0  0  0
 12  4  1  0  0  0  0
 13  4  1  0  0  0  0
 14  5  1  0  0  0  0
 17 22  1  0  0  0  0
 18 19  1  0  0  0  0
 18 17  2  0  0  0  0
 19 20  2  0  0  0  0
 20 21  1  0  0  0  0
 21 25  1  0  0  0  0
 22 21  2  0  0  0  0
 23 17  1  0  0  0  0
 24 18  1  0  0  0  0
 26 27  1  0  0  0  0
 27 28  2  0  0  0  0
 27 32  1  0  0  0  0
 28 33  1  0  0  0  0
 29 34  1  0  0  0  0
 29 28  1  0  0  0  0
 30 29  2  0  0  0  0
 31 30  1  0  0  0  0
 31 26  2  0  0  0  0
 35 30  1  0  0  0  0
 36 35  2  0  0  0  0
 37 35  1  0  0  0  0
 38 37  1  0  0  0  0
 39 38  1  0  0  0  0
 40 38  1  0  0  0  0
 40 42  1  0  0  0  0
 41 40  1  0  0  0  0
 42 43  1  0  0  0  0
 44 37  1  0  0  0  0
 44 43  1  0  0  0  0
M  END
>  <minimizedAffinity>
-5.47432899

>  <minimizedRMSD>
0.263763875

$$$$
