
 OpenBabel03242516533D

 44 47  0  0  1  0  0  0  0  0999 V2000
   47.8090   32.8330   41.7020 C   0  0  1  0  0  0  0  0  0  0  0  0
   47.4200   32.1500   40.4680 C   0  0  0  0  0  0  0  0  0  0  0  0
   48.4160   32.5950   39.3990 C   0  0  0  0  0  0  0  0  0  0  0  0
   48.1170   34.0410   39.1090 C   0  0  0  0  0  0  0  0  0  0  0  0
   48.1270   34.9270   40.3220 C   0  0  0  0  0  0  0  0  0  0  0  0
   47.6520   34.3540   41.5960 C   0  0  1  0  0  0  0  0  0  0  0  0
   48.9300   32.7220   41.8350 H   0  0  0  0  0  0  0  0  0  0  0  0
   46.4270   32.4430   40.0620 H   0  0  0  0  0  0  0  0  0  0  0  0
   47.4570   31.0670   40.5980 H   0  0  0  0  0  0  0  0  0  0  0  0
   49.4650   32.4420   39.7060 H   0  0  0  0  0  0  0  0  0  0  0  0
   48.1450   32.0140   38.4940 H   0  0  0  0  0  0  0  0  0  0  0  0
   47.1240   34.0740   38.6070 H   0  0  0  0  0  0  0  0  0  0  0  0
   48.8380   34.4250   38.3740 H   0  0  0  0  0  0  0  0  0  0  0  0
   47.4900   35.8110   40.0700 H   0  0  0  0  0  0  0  0  0  0  0  0
   49.1540   35.3520   40.4080 H   0  0  0  0  0  0  0  0  0  0  0  0
   48.2880   34.7610   42.4270 H   0  0  0  0  0  0  0  0  0  0  0  0
   45.4580   31.0160   44.0360 C   0  0  0  0  0  0  0  0  0  0  0  0
   46.1090   31.4970   42.8930 C   0  0  0  0  0  0  0  0  0  0  0  0
   47.1940   32.3760   42.9300 C   0  0  0  0  0  0  0  0  0  0  0  0
   47.5920   32.7480   44.1470 N   0  0  0  0  0  0  0  0  0  0  0  0
   46.9680   32.2880   45.2670 C   0  0  0  0  0  0  0  0  0  0  0  0
   45.9280   31.4440   45.2240 N   0  0  0  0  0  0  0  0  0  0  0  0
   44.6260   30.3380   43.9310 H   0  0  0  0  0  0  0  0  0  0  0  0
   45.7730   31.1860   41.9080 H   0  0  0  0  0  0  0  0  0  0  0  0
   47.3070   32.6010   46.2450 H   0  0  0  0  0  0  0  0  0  0  0  0
   46.2930   34.7800   41.9290 C   0  0  0  0  0  0  0  0  0  0  0  0
   45.9200   35.4970   43.0710 C   0  0  0  0  0  0  0  0  0  0  0  0
   44.5680   35.8160   43.1840 C   0  0  0  0  0  0  0  0  0  0  0  0
   43.7180   35.4030   42.1720 C   0  0  0  0  0  0  0  0  0  0  0  0
   44.1100   34.6980   41.0560 C   0  0  0  0  0  0  0  0  0  0  0  0
   45.4370   34.3930   40.9610 N   0  0  0  0  0  0  0  0  0  0  0  0
   46.6800   35.7430   43.7590 H   0  0  0  0  0  0  0  0  0  0  0  0
   44.2520   36.3690   44.0560 H   0  0  0  0  0  0  0  0  0  0  0  0
   42.6680   35.6460   42.2510 H   0  0  0  0  0  0  0  0  0  0  0  0
   43.1280   34.3110   40.0460 C   0  0  0  0  0  0  0  0  0  0  0  0
   42.7170   35.1870   39.2420 O   0  0  0  0  0  0  0  0  0  0  0  0
   42.4760   33.0910   39.7300 N   0  0  0  0  0  0  0  0  0  0  0  0
   42.7750   32.6660   38.3580 C   0  0  0  0  0  3  0  0  0  0  0  0
   41.9960   33.0440   37.6530 H   0  0  0  0  0  0  0  0  0  0  0  0
   42.6580   31.1390   38.3600 C   0  0  0  0  0  3  0  0  0  0  0  0
   41.6320   30.8040   38.1710 H   0  0  0  0  0  0  0  0  0  0  0  0
   43.2010   30.6230   39.5270 O   0  0  0  0  0  0  0  0  0  0  0  0
   42.3920   30.8860   40.6380 C   0  0  0  0  0  2  0  0  0  0  0  0
   41.5750   32.1350   40.3960 C   0  0  0  0  0  2  0  0  0  0  0  0
  1  7  1  1  0  0  0
  1 19  1  0  0  0  0
  2  9  1  0  0  0  0
  2  1  1  0  0  0  0
  3 10  1  0  0  0  0
  3  2  1  0  0  0  0
  4  3  1  0  0  0  0
  4  5  1  0  0  0  0
  5 15  1  0  0  0  0
  5  6  1  0  0  0  0
  6  1  1  0  0  0  0
  6 26  1  0  0  0  0
  6 16  1  1  0  0  0
  8  2  1  0  0  0  0
 11  3  1  0  0  0  0
 12  4  1  0  0  0  0
 13  4  1  0  0  0  0
 14  5  1  0  0  0  0
 17 22  1  0  0  0  0
 18 19  1  0  0  0  0
 18 17  2  0  0  0  0
 19 20  2  0  0  0  0
 20 21  1  0  0  0  0
 21 25  1  0  0  0  0
 22 21  2  0  0  0  0
 23 17  1  0  0  0  0
 24 18  1  0  0  0  0
 26 27  1  0  0  0  0
 27 28  2  0  0  0  0
 27 32  1  0  0  0  0
 28 33  1  0  0  0  0
 29 34  1  0  0  0  0
 29 28  1  0  0  0  0
 30 29  2  0  0  0  0
 31 30  1  0  0  0  0
 31 26  2  0  0  0  0
 35 30  1  0  0  0  0
 36 35  2  0  0  0  0
 37 35  1  0  0  0  0
 37 44  1  0  0  0  0
 38 40  1  0  0  0  0
 38 37  1  0  0  0  0
 39 38  1  0  0  0  0
 40 42  1  0  0  0  0
 41 40  1  0  0  0  0
 42 43  1  0  0  0  0
 44 43  1  0  0  0  0
M  END
>  <minimizedAffinity>
-5.42271233

>  <minimizedRMSD>
0.8643713

$$$$
