
 OpenBabel03242510223D

 37 40  0  0  1  0  0  0  0  0999 V2000
   48.0440   33.2510   43.2280 N   0  0  0  0  0  0  0  0  0  0  0  0
   49.1900   33.2730   42.4350 C   0  0  0  0  0  0  0  0  0  0  0  0
   50.3600   32.8830   42.6750 O   0  0  0  0  0  0  0  0  0  0  0  0
   47.4990   34.1420   43.1440 H   0  0  0  0  0  0  0  0  0  0  0  0
   46.3230   32.1570   44.6170 C   0  0  1  0  0  0  0  0  0  0  0  0
   46.4650   31.3550   43.4750 C   0  0  0  0  0  0  0  0  0  0  0  0
   47.6860   32.1460   44.0420 C   0  0  1  0  0  0  0  0  0  0  0  0
   46.1930   31.7540   45.6350 H   0  0  0  0  0  0  0  0  0  0  0  0
   46.5670   30.2360   43.6180 H   0  0  0  0  0  0  0  0  0  0  0  0
   46.2020   31.5630   42.4200 H   0  0  0  0  0  0  0  0  0  0  0  0
   48.4720   31.4760   44.4330 H   0  0  0  0  0  0  0  0  0  0  0  0
   45.0610   33.9510   43.2050 C   0  0  0  0  0  0  0  0  0  0  0  0
   45.5480   33.4790   44.4690 C   0  0  0  0  0  0  0  0  0  0  0  0
   45.3190   34.2700   45.5760 C   0  0  0  0  0  0  0  0  0  0  0  0
   44.6580   35.4350   45.4240 N   0  0  0  0  0  0  0  0  0  0  0  0
   44.2040   35.8720   44.2190 C   0  0  0  0  0  0  0  0  0  0  0  0
   44.4190   35.0950   43.0800 N   0  0  0  0  0  0  0  0  0  0  0  0
   45.2320   33.3150   42.3660 H   0  0  0  0  0  0  0  0  0  0  0  0
   45.6690   33.9470   46.5490 H   0  0  0  0  0  0  0  0  0  0  0  0
   43.6870   36.8240   44.2130 H   0  0  0  0  0  0  0  0  0  0  0  0
   49.1060   33.8430   41.0320 C   0  0  2  0  0  0  0  0  0  0  0  0
   48.6750   35.3540   40.9150 C   0  0  0  0  0  0  0  0  0  0  0  0
   47.8220   34.2290   40.4370 C   0  0  1  0  0  0  0  0  0  0  0  0
   49.9680   33.6630   40.3580 H   0  0  0  0  0  0  0  0  0  0  0  0
   49.2300   35.9890   40.2290 H   0  0  0  0  0  0  0  0  0  0  0  0
   48.4140   35.7760   41.9220 H   0  0  0  0  0  0  0  0  0  0  0  0
   46.8960   33.9450   40.9670 H   0  0  0  0  0  0  0  0  0  0  0  0
   47.6610   34.0560   38.9440 C   0  0  0  0  0  0  0  0  0  0  0  0
   48.4200   34.6400   38.1790 O   0  0  0  0  0  0  0  0  0  0  0  0
   46.6160   33.2070   38.4030 N   0  0  0  0  0  0  0  0  0  0  0  0
   45.9880   32.2920   39.3420 C   0  0  0  0  0  3  0  0  0  0  0  0
   45.3070   32.7690   40.0480 H   0  0  0  0  0  0  0  0  0  0  0  0
   45.3530   31.1840   38.5410 C   0  0  0  0  0  3  0  0  0  0  0  0
   44.5740   30.6490   39.1290 H   0  0  0  0  0  0  0  0  0  0  0  0
   44.7150   31.6260   37.3850 O   0  0  0  0  0  0  0  0  0  0  0  0
   45.6470   32.1200   36.4680 C   0  0  0  0  0  2  0  0  0  0  0  0
   46.3030   33.3550   36.9940 C   0  0  0  0  0  2  0  0  0  0  0  0
  1  7  1  0  0  0  0
  2  3  2  0  0  0  0
  2  1  1  0  0  0  0
  4  1  1  0  0  0  0
  5  8  1  1  0  0  0
  6  9  1  0  0  0  0
  6  7  1  0  0  0  0
  6  5  1  0  0  0  0
  7 11  1  1  0  0  0
  7  5  1  0  0  0  0
 10  6  1  0  0  0  0
 12 13  1  0  0  0  0
 13  5  1  0  0  0  0
 13 14  2  0  0  0  0
 14 19  1  0  0  0  0
 15 14  1  0  0  0  0
 16 15  2  0  0  0  0
 17 12  2  0  0  0  0
 17 16  1  0  0  0  0
 18 12  1  0  0  0  0
 20 16  1  0  0  0  0
 21 24  1  6  0  0  0
 21  2  1  0  0  0  0
 22 21  1  0  0  0  0
 22 26  1  0  0  0  0
 23 22  1  0  0  0  0
 23 27  1  1  0  0  0
 23 21  1  0  0  0  0
 25 22  1  0  0  0  0
 28 23  1  0  0  0  0
 29 28  2  0  0  0  0
 30 28  1  0  0  0  0
 30 31  1  0  0  0  0
 31 32  1  0  0  0  0
 33 34  1  0  0  0  0
 33 31  1  0  0  0  0
 35 33  1  0  0  0  0
 36 37  1  0  0  0  0
 36 35  1  0  0  0  0
 37 30  1  0  0  0  0
M  END
>  <minimizedAffinity>
-5.01140213

>  <minimizedRMSD>
0.123459905

$$$$
