
 OpenBabel03252507163D

 28 30  0  0  0  0  0  0  0  0999 V2000
   44.3560   35.6870   43.5580 C   0  0  0  0  0  0  0  0  0  0  0  0
   44.7660   34.4880   42.9210 C   0  0  0  0  0  0  0  0  0  0  0  0
   45.2850   33.4840   43.7350 C   0  0  0  0  0  0  0  0  0  0  0  0
   45.3810   33.6770   45.0640 N   0  0  0  0  0  0  0  0  0  0  0  0
   44.9750   34.8480   45.6470 C   0  0  0  0  0  0  0  0  0  0  0  0
   44.4790   35.8100   44.8800 N   0  0  0  0  0  0  0  0  0  0  0  0
   43.9470   36.4820   42.9350 H   0  0  0  0  0  0  0  0  0  0  0  0
   45.0480   35.0090   46.7070 H   0  0  0  0  0  0  0  0  0  0  0  0
   45.7120   32.2460   43.0970 C   0  0  0  0  0  0  0  0  0  0  0  0
   44.8460   31.1860   42.9960 C   0  0  0  0  0  0  0  0  0  0  0  0
   45.3010   30.0360   42.3810 C   0  0  0  0  0  0  0  0  0  0  0  0
   46.5790   29.8940   41.8620 C   0  0  0  0  0  0  0  0  0  0  0  0
   47.3950   30.9890   41.9960 C   0  0  0  0  0  0  0  0  0  0  0  0
   46.9510   32.1130   42.5960 N   0  0  0  0  0  0  0  0  0  0  0  0
   43.8450   31.2800   43.3930 H   0  0  0  0  0  0  0  0  0  0  0  0
   44.5570   29.2380   42.3380 H   0  0  0  0  0  0  0  0  0  0  0  0
   46.8450   28.9590   41.4010 H   0  0  0  0  0  0  0  0  0  0  0  0
   48.4060   30.9110   41.6000 H   0  0  0  0  0  0  0  0  0  0  0  0
   44.6370   34.3530   41.5150 C   0  0  0  0  0  0  0  0  0  0  0  0
   45.6780   34.4220   40.8200 O   0  0  0  0  0  0  0  0  0  0  0  0
   43.4030   34.1410   40.8380 N   0  0  0  0  0  0  0  0  0  0  0  0
   42.7620   35.2170   40.0990 C   0  0  0  0  0  3  0  0  0  0  0  0
   43.4280   36.0880   40.1170 H   0  0  0  0  0  0  0  0  0  0  0  0
   41.4780   35.5190   40.8630 C   0  0  0  0  0  3  0  0  0  0  0  0
   41.7720   36.2920   41.6330 H   0  0  0  0  0  0  0  0  0  0  0  0
   41.0300   34.4320   41.5660 O   0  0  0  0  0  0  0  0  0  0  0  0
   41.2300   33.2070   40.9830 C   0  0  0  0  0  2  0  0  0  0  0  0
   42.7100   32.8660   40.8390 C   0  0  0  0  0  2  0  0  0  0  0  0
  1  6  1  0  0  0  0
  2  1  2  0  0  0  0
  2  3  1  0  0  0  0
  3  4  2  0  0  0  0
  4  5  1  0  0  0  0
  5  8  1  0  0  0  0
  6  5  2  0  0  0  0
  7  1  1  0  0  0  0
  9  3  1  0  0  0  0
 10  9  1  0  0  0  0
 10 15  1  0  0  0  0
 11 10  2  0  0  0  0
 12 13  2  0  0  0  0
 12 11  1  0  0  0  0
 13 14  1  0  0  0  0
 14  9  2  0  0  0  0
 16 11  1  0  0  0  0
 17 12  1  0  0  0  0
 18 13  1  0  0  0  0
 19  2  1  0  0  0  0
 20 19  2  0  0  0  0
 21 28  1  0  0  0  0
 21 19  1  0  0  0  0
 22 23  1  0  0  0  0
 22 21  1  0  0  0  0
 22 24  1  0  0  0  0
 24 26  1  0  0  0  0
 24 25  1  0  0  0  0
 27 26  1  0  0  0  0
 28 27  1  0  0  0  0
M  END
>  <minimizedAffinity>
-4.40901375

>  <minimizedRMSD>
1.96969366

$$$$
