
 OpenBabel03252507163D

 28 30  0  0  0  0  0  0  0  0999 V2000
   44.3770   35.6410   43.2540 C   0  0  0  0  0  0  0  0  0  0  0  0
   45.1440   34.5000   42.9110 C   0  0  0  0  0  0  0  0  0  0  0  0
   45.6910   33.7660   43.9610 C   0  0  0  0  0  0  0  0  0  0  0  0
   45.4820   34.1520   45.2340 N   0  0  0  0  0  0  0  0  0  0  0  0
   44.7350   35.2620   45.5290 C   0  0  0  0  0  0  0  0  0  0  0  0
   44.2100   35.9670   44.5350 N   0  0  0  0  0  0  0  0  0  0  0  0
   43.9420   36.2260   42.4430 H   0  0  0  0  0  0  0  0  0  0  0  0
   44.5630   35.5770   46.5420 H   0  0  0  0  0  0  0  0  0  0  0  0
   46.4830   32.5900   43.6270 C   0  0  0  0  0  0  0  0  0  0  0  0
   45.8930   31.3520   43.5710 C   0  0  0  0  0  0  0  0  0  0  0  0
   46.6890   30.2700   43.2490 C   0  0  0  0  0  0  0  0  0  0  0  0
   48.0460   30.3650   42.9810 C   0  0  0  0  0  0  0  0  0  0  0  0
   48.5750   31.6300   43.0540 C   0  0  0  0  0  0  0  0  0  0  0  0
   47.7980   32.6870   43.3680 N   0  0  0  0  0  0  0  0  0  0  0  0
   44.8360   31.2590   43.7760 H   0  0  0  0  0  0  0  0  0  0  0  0
   46.1510   29.3210   43.2240 H   0  0  0  0  0  0  0  0  0  0  0  0
   48.5870   29.4670   42.7390 H   0  0  0  0  0  0  0  0  0  0  0  0
   49.6380   31.7400   42.8490 H   0  0  0  0  0  0  0  0  0  0  0  0
   45.3260   34.1500   41.5490 C   0  0  0  0  0  0  0  0  0  0  0  0
   46.3440   34.5840   40.9590 O   0  0  0  0  0  0  0  0  0  0  0  0
   44.4280   33.3340   40.8030 N   0  0  0  0  0  0  0  0  0  0  0  0
   44.6860   33.0210   39.4070 C   0  0  0  0  0  3  0  0  0  0  0  0
   45.6620   33.4400   39.1370 H   0  0  0  0  0  0  0  0  0  0  0  0
   43.5790   33.7210   38.6260 C   0  0  0  0  0  3  0  0  0  0  0  0
   43.9800   34.7560   38.4160 H   0  0  0  0  0  0  0  0  0  0  0  0
   42.4500   33.8970   39.3840 O   0  0  0  0  0  0  0  0  0  0  0  0
   42.1560   32.9020   40.2800 C   0  0  0  0  0  2  0  0  0  0  0  0
   43.2160   32.7710   41.3710 C   0  0  0  0  0  2  0  0  0  0  0  0
  1  6  1  0  0  0  0
  2  1  2  0  0  0  0
  2  3  1  0  0  0  0
  3  4  2  0  0  0  0
  4  5  1  0  0  0  0
  5  8  1  0  0  0  0
  6  5  2  0  0  0  0
  7  1  1  0  0  0  0
  9  3  1  0  0  0  0
 10  9  1  0  0  0  0
 10 15  1  0  0  0  0
 11 10  2  0  0  0  0
 12 13  2  0  0  0  0
 12 11  1  0  0  0  0
 13 14  1  0  0  0  0
 14  9  2  0  0  0  0
 16 11  1  0  0  0  0
 17 12  1  0  0  0  0
 18 13  1  0  0  0  0
 19  2  1  0  0  0  0
 20 19  2  0  0  0  0
 21 28  1  0  0  0  0
 21 19  1  0  0  0  0
 22 21  1  0  0  0  0
 23 22  1  0  0  0  0
 24 26  1  0  0  0  0
 24 22  1  0  0  0  0
 25 24  1  0  0  0  0
 26 27  1  0  0  0  0
 27 28  1  0  0  0  0
M  END
>  <minimizedAffinity>
-4.22497272

>  <minimizedRMSD>
1.2877326

$$$$
