
 OpenBabel03252503153D

 35 38  0  0  1  0  0  0  0  0999 V2000
   46.5840   34.8090   41.9120 C   0  0  0  0  0  0  0  0  0  0  0  0
   47.7300   35.3590   41.8410 O   0  0  0  0  0  0  0  0  0  0  0  0
   45.9410   34.0480   40.7900 C   0  0  0  0  0  0  0  0  0  0  0  0
   44.5990   34.0940   40.4510 C   0  0  0  0  0  0  0  0  0  0  0  0
   44.4680   33.2660   39.3970 N   0  0  0  0  0  0  0  0  0  0  0  0
   45.6790   32.7420   39.1100 C   0  0  0  0  0  0  0  0  0  0  0  0
   46.5990   33.2280   39.9760 N   0  0  0  0  0  0  0  0  0  0  0  0
   46.0830   31.8210   38.0970 N   0  0  0  0  0  0  0  0  0  0  0  0
   43.8200   34.6560   40.9130 H   0  0  0  0  0  0  0  0  0  0  0  0
   45.4730   30.9570   38.0740 H   0  0  0  0  0  0  0  0  0  0  0  0
   46.8830   31.9460   37.4330 H   0  0  0  0  0  0  0  0  0  0  0  0
   41.9240   32.8730   40.1990 H   0  0  0  0  0  0  0  0  0  0  0  0
   42.2840   32.2160   39.4520 N   0  0  0  0  0  0  0  0  0  0  0  0
   43.2830   32.9520   38.6620 C   0  0  2  0  0  3  0  0  0  0  0  0
   43.5290   32.2050   37.3890 C   0  0  0  0  0  3  0  0  0  0  0  0
   44.6030   32.1280   37.1580 H   0  0  0  0  0  0  0  0  0  0  0  0
   42.9890   30.9240   37.4590 O   0  0  0  0  0  0  0  0  0  0  0  0
   41.6000   30.9630   37.5570 C   0  0  0  0  0  2  0  0  0  0  0  0
   41.1600   32.0670   38.5120 C   0  0  0  0  0  2  0  0  0  0  0  0
   45.2590   36.1650   43.4690 C   0  0  0  0  0  0  0  0  0  0  0  0
   45.9140   34.9580   43.1550 C   0  0  0  0  0  0  0  0  0  0  0  0
   45.8350   33.9960   44.1360 C   0  0  0  0  0  0  0  0  0  0  0  0
   45.1870   34.1840   45.3010 N   0  0  0  0  0  0  0  0  0  0  0  0
   44.5730   35.3720   45.5470 C   0  0  0  0  0  0  0  0  0  0  0  0
   44.6140   36.3480   44.6330 N   0  0  0  0  0  0  0  0  0  0  0  0
   45.2790   36.9730   42.7420 H   0  0  0  0  0  0  0  0  0  0  0  0
   44.0700   35.4560   46.5060 H   0  0  0  0  0  0  0  0  0  0  0  0
   46.4670   32.7490   43.9060 C   0  0  0  0  0  0  0  0  0  0  0  0
   47.7440   32.2840   43.9980 C   0  0  0  0  0  0  0  0  0  0  0  0
   48.0460   31.0360   43.7130 C   0  0  0  0  0  0  0  0  0  0  0  0
   47.0510   30.2090   43.3240 C   0  0  0  0  0  0  0  0  0  0  0  0
   45.5930   31.2970   43.3690 S   0  0  0  0  0  0  0  0  0  0  0  0
   48.4800   33.0450   44.3260 H   0  0  0  0  0  0  0  0  0  0  0  0
   49.0310   30.5900   43.7600 H   0  0  0  0  0  0  0  0  0  0  0  0
   46.9990   29.1640   43.0350 H   0  0  0  0  0  0  0  0  0  0  0  0
  1 21  1  0  0  0  0
  2  1  2  0  0  0  0
  3  1  1  0  0  0  0
  4  3  2  0  0  0  0
  4  9  1  0  0  0  0
  5  4  1  0  0  0  0
  6  5  1  0  0  0  0
  6  7  2  0  0  0  0
  7  3  1  0  0  0  0
  8  6  1  0  0  0  0
 10  8  1  0  0  0  0
 11  8  1  0  0  0  0
 13 12  1  0  0  0  0
 14  5  1  1  0  0  0
 14 13  1  0  0  0  0
 15 17  1  0  0  0  0
 15 14  1  0  0  0  0
 16 15  1  0  0  0  0
 17 18  1  0  0  0  0
 18 19  1  0  0  0  0
 19 13  1  0  0  0  0
 20 25  1  0  0  0  0
 21 20  2  0  0  0  0
 21 22  1  0  0  0  0
 22 23  2  0  0  0  0
 23 24  1  0  0  0  0
 24 27  1  0  0  0  0
 25 24  2  0  0  0  0
 26 20  1  0  0  0  0
 28 29  2  0  0  0  0
 28 22  1  0  0  0  0
 29 33  1  0  0  0  0
 30 34  1  0  0  0  0
 30 29  1  0  0  0  0
 31 32  1  0  0  0  0
 31 30  2  0  0  0  0
 32 28  1  0  0  0  0
 35 31  1  0  0  0  0
M  END
>  <minimizedAffinity>
-4.66143894

>  <minimizedRMSD>
0.404428482

$$$$
