
 OpenBabel03252503153D

 35 38  0  0  1  0  0  0  0  0999 V2000
   46.1270   34.5610   41.8100 C   0  0  0  0  0  0  0  0  0  0  0  0
   47.2750   35.0490   41.5560 O   0  0  0  0  0  0  0  0  0  0  0  0
   45.2990   33.7930   40.8230 C   0  0  0  0  0  0  0  0  0  0  0  0
   43.9770   33.4180   41.0000 C   0  0  0  0  0  0  0  0  0  0  0  0
   43.6400   32.7560   39.8770 N   0  0  0  0  0  0  0  0  0  0  0  0
   44.7100   32.7320   39.0550 C   0  0  0  0  0  0  0  0  0  0  0  0
   45.7460   33.3780   39.6410 N   0  0  0  0  0  0  0  0  0  0  0  0
   44.8800   32.1630   37.7560 N   0  0  0  0  0  0  0  0  0  0  0  0
   43.3450   33.6020   41.8380 H   0  0  0  0  0  0  0  0  0  0  0  0
   44.5650   31.1530   37.7160 H   0  0  0  0  0  0  0  0  0  0  0  0
   45.2670   32.6520   36.9150 H   0  0  0  0  0  0  0  0  0  0  0  0
   42.7000   30.2570   40.2530 H   0  0  0  0  0  0  0  0  0  0  0  0
   42.4690   30.7070   39.3250 N   0  0  0  0  0  0  0  0  0  0  0  0
   42.3830   32.1580   39.5470 C   0  0  2  0  0  3  0  0  0  0  0  0
   41.6950   32.7830   38.3740 C   0  0  0  0  0  3  0  0  0  0  0  0
   42.2120   33.6920   38.0290 H   0  0  0  0  0  0  0  0  0  0  0  0
   41.6120   31.8800   37.3170 O   0  0  0  0  0  0  0  0  0  0  0  0
   40.8010   30.7940   37.6390 C   0  0  0  0  0  2  0  0  0  0  0  0
   41.0690   30.3290   39.0660 C   0  0  0  0  0  2  0  0  0  0  0  0
   44.9860   35.9900   43.4440 C   0  0  0  0  0  0  0  0  0  0  0  0
   45.6490   34.7880   43.1270 C   0  0  0  0  0  0  0  0  0  0  0  0
   45.7710   33.9100   44.1800 C   0  0  0  0  0  0  0  0  0  0  0  0
   45.2990   34.1710   45.4130 N   0  0  0  0  0  0  0  0  0  0  0  0
   44.6680   35.3510   45.6590 C   0  0  0  0  0  0  0  0  0  0  0  0
   44.5170   36.2460   44.6770 N   0  0  0  0  0  0  0  0  0  0  0  0
   44.8520   36.7340   42.6620 H   0  0  0  0  0  0  0  0  0  0  0  0
   44.3130   35.4960   46.6750 H   0  0  0  0  0  0  0  0  0  0  0  0
   46.4250   32.6750   43.9530 C   0  0  0  0  0  0  0  0  0  0  0  0
   47.7240   32.2710   43.8780 C   0  0  0  0  0  0  0  0  0  0  0  0
   48.0450   31.0160   43.6490 C   0  0  0  0  0  0  0  0  0  0  0  0
   47.0470   30.1200   43.4880 C   0  0  0  0  0  0  0  0  0  0  0  0
   45.5570   31.1480   43.6770 S   0  0  0  0  0  0  0  0  0  0  0  0
   48.4610   33.0870   44.0240 H   0  0  0  0  0  0  0  0  0  0  0  0
   49.0480   30.6170   43.5740 H   0  0  0  0  0  0  0  0  0  0  0  0
   47.0070   29.0520   43.2930 H   0  0  0  0  0  0  0  0  0  0  0  0
  1 21  1  0  0  0  0
  2  1  2  0  0  0  0
  3  4  2  0  0  0  0
  3  1  1  0  0  0  0
  4  9  1  0  0  0  0
  5  4  1  0  0  0  0
  6  7  2  0  0  0  0
  6  5  1  0  0  0  0
  7  3  1  0  0  0  0
  8  6  1  0  0  0  0
 10  8  1  0  0  0  0
 11  8  1  0  0  0  0
 13 14  1  0  0  0  0
 13 12  1  0  0  0  0
 14  5  1  6  0  0  0
 15 14  1  0  0  0  0
 16 15  1  0  0  0  0
 17 18  1  0  0  0  0
 17 15  1  0  0  0  0
 18 19  1  0  0  0  0
 19 13  1  0  0  0  0
 20 25  1  0  0  0  0
 21 20  2  0  0  0  0
 21 22  1  0  0  0  0
 22 23  2  0  0  0  0
 23 24  1  0  0  0  0
 24 27  1  0  0  0  0
 25 24  2  0  0  0  0
 26 20  1  0  0  0  0
 28 22  1  0  0  0  0
 29 28  2  0  0  0  0
 29 33  1  0  0  0  0
 30 29  1  0  0  0  0
 31 30  2  0  0  0  0
 31 32  1  0  0  0  0
 32 28  1  0  0  0  0
 34 30  1  0  0  0  0
 35 31  1  0  0  0  0
M  END
>  <minimizedAffinity>
-4.58800268

>  <minimizedRMSD>
0.993696511

$$$$
