
 OpenBabel03252503153D

 35 38  0  0  1  0  0  0  0  0999 V2000
   45.4870   34.5220   41.5720 C   0  0  0  0  0  0  0  0  0  0  0  0
   46.6980   34.6450   41.1980 O   0  0  0  0  0  0  0  0  0  0  0  0
   44.3480   34.1970   40.6520 C   0  0  0  0  0  0  0  0  0  0  0  0
   43.0150   34.4940   40.8850 C   0  0  0  0  0  0  0  0  0  0  0  0
   42.3510   34.0260   39.8110 N   0  0  0  0  0  0  0  0  0  0  0  0
   43.2440   33.4700   38.9640 C   0  0  0  0  0  0  0  0  0  0  0  0
   44.4890   33.5750   39.4860 N   0  0  0  0  0  0  0  0  0  0  0  0
   43.0620   32.8380   37.6960 N   0  0  0  0  0  0  0  0  0  0  0  0
   42.5850   34.9860   41.7270 H   0  0  0  0  0  0  0  0  0  0  0  0
   42.3100   32.0950   37.7230 H   0  0  0  0  0  0  0  0  0  0  0  0
   43.5910   33.0550   36.8180 H   0  0  0  0  0  0  0  0  0  0  0  0
   40.4890   32.0790   39.6780 H   0  0  0  0  0  0  0  0  0  0  0  0
   40.4210   32.8420   38.9480 N   0  0  0  0  0  0  0  0  0  0  0  0
   40.9470   34.0770   39.5490 C   0  0  2  0  0  3  0  0  0  0  0  0
   40.5200   35.2380   38.7050 C   0  0  0  0  0  3  0  0  0  0  0  0
   41.3480   35.9420   38.5270 H   0  0  0  0  0  0  0  0  0  0  0  0
   40.0270   34.7990   37.4800 O   0  0  0  0  0  0  0  0  0  0  0  0
   38.8590   34.0570   37.6380 C   0  0  0  0  0  2  0  0  0  0  0  0
   38.9780   33.1170   38.8340 C   0  0  0  0  0  2  0  0  0  0  0  0
   44.7910   35.9590   43.4350 C   0  0  0  0  0  0  0  0  0  0  0  0
   45.2580   34.7170   42.9590 C   0  0  0  0  0  0  0  0  0  0  0  0
   45.4540   33.7700   43.9390 C   0  0  0  0  0  0  0  0  0  0  0  0
   45.2210   34.0030   45.2440 N   0  0  0  0  0  0  0  0  0  0  0  0
   44.7710   35.2230   45.6420 C   0  0  0  0  0  0  0  0  0  0  0  0
   44.5610   36.1860   44.7390 N   0  0  0  0  0  0  0  0  0  0  0  0
   44.6140   36.7570   42.7190 H   0  0  0  0  0  0  0  0  0  0  0  0
   44.6060   35.3420   46.7090 H   0  0  0  0  0  0  0  0  0  0  0  0
   45.9230   32.4910   43.5520 C   0  0  0  0  0  0  0  0  0  0  0  0
   47.1460   31.8970   43.4680 C   0  0  0  0  0  0  0  0  0  0  0  0
   47.2840   30.6540   43.0630 C   0  0  0  0  0  0  0  0  0  0  0  0
   46.1720   29.9630   42.7280 C   0  0  0  0  0  0  0  0  0  0  0  0
   44.8500   31.1800   43.0120 S   0  0  0  0  0  0  0  0  0  0  0  0
   47.9890   32.5540   43.7660 H   0  0  0  0  0  0  0  0  0  0  0  0
   48.2160   30.1120   42.9680 H   0  0  0  0  0  0  0  0  0  0  0  0
   45.9810   28.9550   42.3720 H   0  0  0  0  0  0  0  0  0  0  0  0
  1 21  1  0  0  0  0
  2  1  2  0  0  0  0
  3  4  2  0  0  0  0
  3  1  1  0  0  0  0
  4  9  1  0  0  0  0
  5  4  1  0  0  0  0
  6  7  2  0  0  0  0
  6  5  1  0  0  0  0
  7  3  1  0  0  0  0
  8 10  1  0  0  0  0
  8  6  1  0  0  0  0
 11  8  1  0  0  0  0
 13 14  1  0  0  0  0
 13 12  1  0  0  0  0
 14  5  1  6  0  0  0
 15 14  1  0  0  0  0
 16 15  1  0  0  0  0
 17 18  1  0  0  0  0
 17 15  1  0  0  0  0
 18 19  1  0  0  0  0
 19 13  1  0  0  0  0
 20 25  1  0  0  0  0
 21 20  2  0  0  0  0
 21 22  1  0  0  0  0
 22 23  2  0  0  0  0
 23 24  1  0  0  0  0
 24 27  1  0  0  0  0
 25 24  2  0  0  0  0
 26 20  1  0  0  0  0
 28 22  1  0  0  0  0
 29 28  2  0  0  0  0
 29 33  1  0  0  0  0
 30 29  1  0  0  0  0
 31 32  1  0  0  0  0
 31 30  2  0  0  0  0
 32 28  1  0  0  0  0
 34 30  1  0  0  0  0
 35 31  1  0  0  0  0
M  END
>  <minimizedAffinity>
-5.51668835

>  <minimizedRMSD>
1.86987305

$$$$
