
 OpenBabel03252503153D

 35 38  0  0  1  0  0  0  0  0999 V2000
   45.8970   34.5480   41.6580 C   0  0  0  0  0  0  0  0  0  0  0  0
   47.1210   34.7850   41.3990 O   0  0  0  0  0  0  0  0  0  0  0  0
   44.8960   34.0770   40.6460 C   0  0  0  0  0  0  0  0  0  0  0  0
   43.5200   34.0810   40.8110 C   0  0  0  0  0  0  0  0  0  0  0  0
   43.0210   33.5790   39.6660 N   0  0  0  0  0  0  0  0  0  0  0  0
   44.0490   33.2840   38.8420 C   0  0  0  0  0  0  0  0  0  0  0  0
   45.2190   33.5940   39.4500 N   0  0  0  0  0  0  0  0  0  0  0  0
   44.0640   32.7350   37.5240 N   0  0  0  0  0  0  0  0  0  0  0  0
   42.9580   34.4050   41.6560 H   0  0  0  0  0  0  0  0  0  0  0  0
   43.4800   31.8560   37.4490 H   0  0  0  0  0  0  0  0  0  0  0  0
   44.5790   33.1250   36.7000 H   0  0  0  0  0  0  0  0  0  0  0  0
   41.7490   33.6660   37.2890 H   0  0  0  0  0  0  0  0  0  0  0  0
   41.2370   34.0950   38.1090 N   0  0  0  0  0  0  0  0  0  0  0  0
   41.6500   33.3670   39.3170 C   0  0  2  0  0  3  0  0  0  0  0  0
   40.6830   33.6760   40.4170 C   0  0  0  0  0  3  0  0  0  0  0  0
   41.1940   33.8970   41.3660 H   0  0  0  0  0  0  0  0  0  0  0  0
   39.8790   34.7580   40.0730 O   0  0  0  0  0  0  0  0  0  0  0  0
   39.0610   34.4600   38.9860 C   0  0  0  0  0  2  0  0  0  0  0  0
   39.8360   33.6750   37.9310 C   0  0  0  0  0  2  0  0  0  0  0  0
   44.9450   35.9920   43.3980 C   0  0  0  0  0  0  0  0  0  0  0  0
   45.5090   34.7610   43.0070 C   0  0  0  0  0  0  0  0  0  0  0  0
   45.6330   33.8430   44.0250 C   0  0  0  0  0  0  0  0  0  0  0  0
   45.2500   34.0920   45.2910 N   0  0  0  0  0  0  0  0  0  0  0  0
   44.7110   35.3000   45.6080 C   0  0  0  0  0  0  0  0  0  0  0  0
   44.5640   36.2350   44.6630 N   0  0  0  0  0  0  0  0  0  0  0  0
   44.8160   36.7670   42.6480 H   0  0  0  0  0  0  0  0  0  0  0  0
   44.4250   35.4330   46.6470 H   0  0  0  0  0  0  0  0  0  0  0  0
   46.1920   32.5770   43.7230 C   0  0  0  0  0  0  0  0  0  0  0  0
   47.4500   32.0530   43.7230 C   0  0  0  0  0  0  0  0  0  0  0  0
   47.6770   30.8020   43.3860 C   0  0  0  0  0  0  0  0  0  0  0  0
   46.6220   30.0320   43.0370 C   0  0  0  0  0  0  0  0  0  0  0  0
   45.2210   31.1820   43.2020 S   0  0  0  0  0  0  0  0  0  0  0  0
   48.2390   32.7710   44.0250 H   0  0  0  0  0  0  0  0  0  0  0  0
   48.6410   30.3120   43.3600 H   0  0  0  0  0  0  0  0  0  0  0  0
   46.5060   28.9990   42.7230 H   0  0  0  0  0  0  0  0  0  0  0  0
  1 21  1  0  0  0  0
  2  1  2  0  0  0  0
  3  4  2  0  0  0  0
  3  1  1  0  0  0  0
  4  9  1  0  0  0  0
  5  4  1  0  0  0  0
  6  7  2  0  0  0  0
  6  5  1  0  0  0  0
  7  3  1  0  0  0  0
  8  6  1  0  0  0  0
 10  8  1  0  0  0  0
 11  8  1  0  0  0  0
 12 13  1  0  0  0  0
 13 14  1  0  0  0  0
 14  5  1  1  0  0  0
 14 15  1  0  0  0  0
 15 16  1  0  0  0  0
 17 15  1  0  0  0  0
 18 17  1  0  0  0  0
 19 13  1  0  0  0  0
 19 18  1  0  0  0  0
 20 25  1  0  0  0  0
 21 20  2  0  0  0  0
 21 22  1  0  0  0  0
 22 23  2  0  0  0  0
 23 24  1  0  0  0  0
 24 27  1  0  0  0  0
 25 24  2  0  0  0  0
 26 20  1  0  0  0  0
 28 29  2  0  0  0  0
 28 22  1  0  0  0  0
 29 33  1  0  0  0  0
 30 29  1  0  0  0  0
 31 32  1  0  0  0  0
 31 30  2  0  0  0  0
 32 28  1  0  0  0  0
 34 30  1  0  0  0  0
 35 31  1  0  0  0  0
M  END
>  <minimizedAffinity>
-5.59042168

>  <minimizedRMSD>
1.30583668

$$$$
