
 OpenBabel03242513453D

 45 48  0  0  0  0  0  0  0  0999 V2000
   41.0130   32.0160   40.7890 C   0  0  0  0  0  0  0  0  0  0  0  0
   41.0480   31.3040   41.9530 C   0  0  0  0  0  0  0  0  0  0  0  0
   42.0820   31.5530   42.8170 C   0  0  0  0  0  0  0  0  0  0  0  0
   43.0790   32.4790   42.5690 C   0  0  0  0  0  0  0  0  0  0  0  0
   44.1880   32.9370   43.1960 N   0  0  0  0  0  0  0  0  0  0  0  0
   44.7850   33.8910   42.4180 C   0  0  0  0  0  0  0  0  0  0  0  0
   44.0300   34.0110   41.3100 N   0  0  0  0  0  0  0  0  0  0  0  0
   42.9930   33.1600   41.3910 C   0  0  0  0  0  0  0  0  0  0  0  0
   41.9870   32.9630   40.4780 C   0  0  0  0  0  0  0  0  0  0  0  0
   40.2320   31.8830   40.0490 H   0  0  0  0  0  0  0  0  0  0  0  0
   42.1500   31.0080   43.7610 H   0  0  0  0  0  0  0  0  0  0  0  0
   44.4660   32.5560   44.1360 H   0  0  0  0  0  0  0  0  0  0  0  0
   45.6870   34.3950   42.7200 H   0  0  0  0  0  0  0  0  0  0  0  0
   37.7920   29.6760   42.2850 C   0  0  0  0  0  0  0  0  0  0  0  0
   38.1250   28.4250   42.8520 C   0  0  0  0  0  0  0  0  0  0  0  0
   39.4860   28.1950   43.1000 C   0  0  0  0  0  0  0  0  0  0  0  0
   40.4180   29.1350   42.8040 N   0  0  0  0  0  0  0  0  0  0  0  0
   40.0170   30.3160   42.2580 C   0  0  0  0  0  0  0  0  0  0  0  0
   38.7330   30.5990   41.9960 N   0  0  0  0  0  0  0  0  0  0  0  0
   36.7730   29.9340   42.0620 H   0  0  0  0  0  0  0  0  0  0  0  0
   39.7420   27.2360   43.5350 H   0  0  0  0  0  0  0  0  0  0  0  0
   37.0360   27.4690   43.1370 C   0  0  0  0  0  0  0  0  0  0  0  0
   36.0010   27.8530   42.3120 F   0  0  0  0  0  0  0  0  0  0  0  0
   36.6600   27.6140   44.4290 F   0  0  0  0  0  0  0  0  0  0  0  0
   37.4950   26.1860   42.8480 F   0  0  0  0  0  0  0  0  0  0  0  0
   41.9530   33.6880   39.2950 O   0  0  0  0  0  0  0  0  0  0  0  0
   44.0580   32.7900   38.0700 O   0  0  0  0  0  0  0  0  0  0  0  0
   42.6120   33.1940   37.8310 P   0  0  2  0  0  0  0  0  0  0  0  0
   42.6510   34.5380   36.7940 O   0  0  0  0  0  0  0  0  0  0  0  0
   43.4800   35.0410   36.8480 H   0  0  0  0  0  0  0  0  0  0  0  0
   41.7810   31.9360   37.1070 O   0  0  0  0  0  0  0  0  0  0  0  0
   40.4170   31.9620   37.2650 C   0  0  0  0  0  0  0  0  0  0  0  0
   40.1570   32.6480   38.1130 H   0  0  0  0  0  0  0  0  0  0  0  0
   39.9460   32.2990   36.3440 H   0  0  0  0  0  0  0  0  0  0  0  0
   39.9870   30.5720   37.7200 C   0  0  0  0  0  0  0  0  0  0  0  0
   40.0010   29.8660   36.8480 H   0  0  0  0  0  0  0  0  0  0  0  0
   40.6970   30.2250   38.4690 H   0  0  0  0  0  0  0  0  0  0  0  0
   38.6760   30.6010   38.3280 N   0  0  0  0  0  0  0  0  0  0  0  0
   37.7860   29.8520   37.4260 C   0  0  0  0  0  3  0  0  0  0  0  0
   37.8540   30.3280   36.4270 H   0  0  0  0  0  0  0  0  0  0  0  0
   36.3820   30.0560   37.9540 C   0  0  0  0  0  3  0  0  0  0  0  0
   35.7930   30.7510   37.3250 H   0  0  0  0  0  0  0  0  0  0  0  0
   36.3760   30.6060   39.2380 O   0  0  0  0  0  0  0  0  0  0  0  0
   36.9010   31.8850   39.2590 C   0  0  0  0  0  2  0  0  0  0  0  0
   38.1090   31.9360   38.3460 C   0  0  0  0  0  2  0  0  0  0  0  0
  1  2  1  0  0  0  0
  2 18  1  0  0  0  0
  2  3  2  0  0  0  0
  3 11  1  0  0  0  0
  4  3  1  0  0  0  0
  4  5  1  0  0  0  0
  5 12  1  0  0  0  0
  6 13  1  0  0  0  0
  6  5  1  0  0  0  0
  7  8  1  0  0  0  0
  7  6  2  0  0  0  0
  8  4  2  0  0  0  0
  9  1  2  0  0  0  0
  9  8  1  0  0  0  0
 10  1  1  0  0  0  0
 14 15  1  0  0  0  0
 15 16  2  0  0  0  0
 15 22  1  0  0  0  0
 16 21  1  0  0  0  0
 17 16  1  0  0  0  0
 18 17  2  0  0  0  0
 19 18  1  0  0  0  0
 19 14  2  0  0  0  0
 20 14  1  0  0  0  0
 22 24  1  0  0  0  0
 23 22  1  0  0  0  0
 25 22  1  0  0  0  0
 26  9  1  0  0  0  0
 28 27  2  1  0  0  0
 28 26  1  0  0  0  0
 29 30  1  0  0  0  0
 29 28  1  0  0  0  0
 31 32  1  0  0  0  0
 31 28  1  0  0  0  0
 32 35  1  0  0  0  0
 32 33  1  0  0  0  0
 34 32  1  0  0  0  0
 35 38  1  0  0  0  0
 35 37  1  0  0  0  0
 36 35  1  0  0  0  0
 38 45  1  0  0  0  0
 39 41  1  0  0  0  0
 39 38  1  0  0  0  0
 40 39  1  0  0  0  0
 41 43  1  0  0  0  0
 42 41  1  0  0  0  0
 43 44  1  0  0  0  0
 45 44  1  0  0  0  0
M  END
>  <minimizedAffinity>
-6.47182417

$$$$

 OpenBabel03242513453D

 45 48  0  0  0  0  0  0  0  0999 V2000
   42.0740   31.1990   41.1470 C   0  0  0  0  0  0  0  0  0  0  0  0
   41.7110   30.7840   42.3960 C   0  0  0  0  0  0  0  0  0  0  0  0
   42.4850   31.1940   43.4500 C   0  0  0  0  0  0  0  0  0  0  0  0
   43.6020   31.9960   43.3110 C   0  0  0  0  0  0  0  0  0  0  0  0
   44.5360   32.5500   44.1200 N   0  0  0  0  0  0  0  0  0  0  0  0
   45.4210   33.2680   43.3640 C   0  0  0  0  0  0  0  0  0  0  0  0
   45.0200   33.1480   42.0850 N   0  0  0  0  0  0  0  0  0  0  0  0
   43.9180   32.3790   42.0410 C   0  0  0  0  0  0  0  0  0  0  0  0
   43.1900   32.0080   40.9380 C   0  0  0  0  0  0  0  0  0  0  0  0
   41.5200   30.9220   40.2590 H   0  0  0  0  0  0  0  0  0  0  0  0
   42.2310   30.8880   44.4680 H   0  0  0  0  0  0  0  0  0  0  0  0
   44.5010   32.3950   45.1590 H   0  0  0  0  0  0  0  0  0  0  0  0
   46.2520   33.7960   43.8010 H   0  0  0  0  0  0  0  0  0  0  0  0
   38.2380   29.6690   42.6500 C   0  0  0  0  0  0  0  0  0  0  0  0
   38.3740   28.2990   42.9720 C   0  0  0  0  0  0  0  0  0  0  0  0
   39.6840   27.8120   43.0890 C   0  0  0  0  0  0  0  0  0  0  0  0
   40.7510   28.6280   42.9010 N   0  0  0  0  0  0  0  0  0  0  0  0
   40.5380   29.9370   42.5920 C   0  0  0  0  0  0  0  0  0  0  0  0
   39.3120   30.4650   42.4650 N   0  0  0  0  0  0  0  0  0  0  0  0
   37.2710   30.1230   42.5400 H   0  0  0  0  0  0  0  0  0  0  0  0
   39.7880   26.7620   43.3370 H   0  0  0  0  0  0  0  0  0  0  0  0
   37.1490   27.4960   43.1570 C   0  0  0  0  0  0  0  0  0  0  0  0
   37.5280   26.2000   42.8850 F   0  0  0  0  0  0  0  0  0  0  0  0
   36.2280   27.8960   42.2500 F   0  0  0  0  0  0  0  0  0  0  0  0
   36.7170   27.6570   44.4720 F   0  0  0  0  0  0  0  0  0  0  0  0
   43.5610   32.4300   39.6690 O   0  0  0  0  0  0  0  0  0  0  0  0
   42.3240   33.4950   37.6510 O   0  0  0  0  0  0  0  0  0  0  0  0
   43.0600   33.8540   38.9310 P   0  0  2  0  0  0  0  0  0  0  0  0
   44.4460   34.7170   38.4650 O   0  0  0  0  0  0  0  0  0  0  0  0
   44.7440   34.5090   37.5650 H   0  0  0  0  0  0  0  0  0  0  0  0
   42.0880   34.8100   39.8990 O   0  0  0  0  0  0  0  0  0  0  0  0
   40.7890   34.9500   39.4760 C   0  0  0  0  0  0  0  0  0  0  0  0
   40.4180   35.9710   39.7550 H   0  0  0  0  0  0  0  0  0  0  0  0
   40.7350   34.8050   38.3990 H   0  0  0  0  0  0  0  0  0  0  0  0
   39.9410   33.9750   40.2850 C   0  0  0  0  0  0  0  0  0  0  0  0
   40.6060   33.2370   40.8070 H   0  0  0  0  0  0  0  0  0  0  0  0
   39.3890   34.5440   41.0320 H   0  0  0  0  0  0  0  0  0  0  0  0
   38.9820   33.2920   39.4470 N   0  0  0  0  0  0  0  0  0  0  0  0
   37.8820   32.8780   40.3330 C   0  0  0  0  0  3  0  0  0  0  0  0
   38.3240   32.2630   41.1430 H   0  0  0  0  0  0  0  0  0  0  0  0
   36.9820   31.9890   39.5010 C   0  0  0  0  0  3  0  0  0  0  0  0
   37.0820   30.9200   39.7700 H   0  0  0  0  0  0  0  0  0  0  0  0
   37.2780   32.0670   38.1380 O   0  0  0  0  0  0  0  0  0  0  0  0
   38.5410   31.5820   37.8500 C   0  0  0  0  0  2  0  0  0  0  0  0
   39.5010   32.0400   38.9300 C   0  0  0  0  0  2  0  0  0  0  0  0
  1  2  1  0  0  0  0
  2 18  1  0  0  0  0
  2  3  2  0  0  0  0
  3 11  1  0  0  0  0
  4  3  1  0  0  0  0
  4  5  1  0  0  0  0
  5 12  1  0  0  0  0
  6 13  1  0  0  0  0
  6  5  1  0  0  0  0
  7  6  2  0  0  0  0
  8  7  1  0  0  0  0
  8  4  2  0  0  0  0
  9  1  2  0  0  0  0
  9  8  1  0  0  0  0
 10  1  1  0  0  0  0
 14 15  1  0  0  0  0
 15 16  2  0  0  0  0
 15 22  1  0  0  0  0
 16 21  1  0  0  0  0
 17 16  1  0  0  0  0
 18 17  2  0  0  0  0
 19 18  1  0  0  0  0
 19 14  2  0  0  0  0
 20 14  1  0  0  0  0
 22 25  1  0  0  0  0
 23 22  1  0  0  0  0
 24 22  1  0  0  0  0
 26  9  1  0  0  0  0
 28 27  2  6  0  0  0
 28 26  1  0  0  0  0
 28 31  1  0  0  0  0
 29 28  1  0  0  0  0
 30 29  1  0  0  0  0
 32 33  1  0  0  0  0
 32 31  1  0  0  0  0
 32 35  1  0  0  0  0
 34 32  1  0  0  0  0
 35 36  1  0  0  0  0
 35 37  1  0  0  0  0
 38 35  1  0  0  0  0
 38 39  1  0  0  0  0
 39 40  1  0  0  0  0
 41 42  1  0  0  0  0
 41 39  1  0  0  0  0
 43 41  1  0  0  0  0
 44 43  1  0  0  0  0
 44 45  1  0  0  0  0
 45 38  1  0  0  0  0
M  END
>  <minimizedAffinity>
-6.22450161

$$$$

 OpenBabel03242513453D

 45 48  0  0  0  0  0  0  0  0999 V2000
   39.6910   31.1940   39.1960 C   0  0  0  0  0  0  0  0  0  0  0  0
   39.0160   30.9360   40.3540 C   0  0  0  0  0  0  0  0  0  0  0  0
   38.7170   32.0000   41.1640 C   0  0  0  0  0  0  0  0  0  0  0  0
   39.0620   33.3050   40.8690 C   0  0  0  0  0  0  0  0  0  0  0  0
   38.9180   34.5250   41.4390 N   0  0  0  0  0  0  0  0  0  0  0  0
   39.4930   35.4710   40.6350 C   0  0  0  0  0  0  0  0  0  0  0  0
   39.9910   34.8170   39.5680 N   0  0  0  0  0  0  0  0  0  0  0  0
   39.7360   33.5040   39.7000 C   0  0  0  0  0  0  0  0  0  0  0  0
   40.0690   32.4880   38.8400 C   0  0  0  0  0  0  0  0  0  0  0  0
   39.9680   30.4130   38.4980 H   0  0  0  0  0  0  0  0  0  0  0  0
   38.1770   31.8400   42.1000 H   0  0  0  0  0  0  0  0  0  0  0  0
   38.4220   34.6290   42.3600 H   0  0  0  0  0  0  0  0  0  0  0  0
   39.4970   36.5160   40.8920 H   0  0  0  0  0  0  0  0  0  0  0  0
   38.8580   27.2840   40.4360 C   0  0  0  0  0  0  0  0  0  0  0  0
   37.8650   27.0370   41.4110 C   0  0  0  0  0  0  0  0  0  0  0  0
   37.2830   28.1650   42.0090 C   0  0  0  0  0  0  0  0  0  0  0  0
   37.6650   29.4170   41.6560 N   0  0  0  0  0  0  0  0  0  0  0  0
   38.6300   29.5730   40.7080 C   0  0  0  0  0  0  0  0  0  0  0  0
   39.2260   28.5380   40.0990 N   0  0  0  0  0  0  0  0  0  0  0  0
   39.3550   26.4780   39.9290 H   0  0  0  0  0  0  0  0  0  0  0  0
   36.5210   27.9750   42.7560 H   0  0  0  0  0  0  0  0  0  0  0  0
   37.5200   25.6360   41.7240 C   0  0  0  0  0  0  0  0  0  0  0  0
   38.7030   25.0610   42.1350 F   0  0  0  0  0  0  0  0  0  0  0  0
   37.0950   25.0320   40.5900 F   0  0  0  0  0  0  0  0  0  0  0  0
   36.5550   25.6380   42.7290 F   0  0  0  0  0  0  0  0  0  0  0  0
   40.7560   32.7520   37.6630 O   0  0  0  0  0  0  0  0  0  0  0  0
   42.9850   33.1720   38.9240 O   0  0  0  0  0  0  0  0  0  0  0  0
   42.4180   32.9580   37.5310 P   0  0  2  0  0  0  0  0  0  0  0  0
   42.7000   34.3930   36.6690 O   0  0  0  0  0  0  0  0  0  0  0  0
   42.7810   35.1750   37.2390 H   0  0  0  0  0  0  0  0  0  0  0  0
   43.1990   31.6810   36.7870 O   0  0  0  0  0  0  0  0  0  0  0  0
   42.4120   30.5900   36.5060 C   0  0  0  0  0  0  0  0  0  0  0  0
   41.3500   30.8220   36.7830 H   0  0  0  0  0  0  0  0  0  0  0  0
   42.4860   30.3450   35.4490 H   0  0  0  0  0  0  0  0  0  0  0  0
   42.8410   29.4680   37.4440 C   0  0  0  0  0  0  0  0  0  0  0  0
   43.9560   29.3520   37.4110 H   0  0  0  0  0  0  0  0  0  0  0  0
   42.5420   29.7380   38.4560 H   0  0  0  0  0  0  0  0  0  0  0  0
   42.1900   28.2230   37.1050 N   0  0  0  0  0  0  0  0  0  0  0  0
   40.7720   28.5470   36.8810 C   0  0  0  0  0  3  0  0  0  0  0  0
   40.3970   29.0410   37.8000 H   0  0  0  0  0  0  0  0  0  0  0  0
   40.0550   27.2220   36.7300 C   0  0  0  0  0  3  0  0  0  0  0  0
   39.4530   26.9660   37.6230 H   0  0  0  0  0  0  0  0  0  0  0  0
   40.9440   26.1590   36.5530 O   0  0  0  0  0  0  0  0  0  0  0  0
   41.7390   25.9540   37.6660 C   0  0  0  0  0  2  0  0  0  0  0  0
   42.1620   27.2980   38.2230 C   0  0  0  0  0  2  0  0  0  0  0  0
  1  2  1  0  0  0  0
  2 18  1  0  0  0  0
  2  3  2  0  0  0  0
  3 11  1  0  0  0  0
  4  3  1  0  0  0  0
  4  5  1  0  0  0  0
  5 12  1  0  0  0  0
  6 13  1  0  0  0  0
  6  5  1  0  0  0  0
  7  8  1  0  0  0  0
  7  6  2  0  0  0  0
  8  4  2  0  0  0  0
  9  1  2  0  0  0  0
  9  8  1  0  0  0  0
 10  1  1  0  0  0  0
 14 15  1  0  0  0  0
 15 22  1  0  0  0  0
 15 16  2  0  0  0  0
 16 21  1  0  0  0  0
 17 16  1  0  0  0  0
 18 17  2  0  0  0  0
 19 14  2  0  0  0  0
 19 18  1  0  0  0  0
 20 14  1  0  0  0  0
 22 23  1  0  0  0  0
 22 25  1  0  0  0  0
 24 22  1  0  0  0  0
 26  9  1  0  0  0  0
 28 26  1  0  0  0  0
 28 27  2  1  0  0  0
 29 30  1  0  0  0  0
 29 28  1  0  0  0  0
 31 28  1  0  0  0  0
 32 33  1  0  0  0  0
 32 31  1  0  0  0  0
 32 35  1  0  0  0  0
 34 32  1  0  0  0  0
 35 37  1  0  0  0  0
 36 35  1  0  0  0  0
 38 35  1  0  0  0  0
 38 45  1  0  0  0  0
 39 38  1  0  0  0  0
 39 40  1  0  0  0  0
 41 39  1  0  0  0  0
 41 42  1  0  0  0  0
 43 41  1  0  0  0  0
 43 44  1  0  0  0  0
 44 45  1  0  0  0  0
M  END
>  <minimizedAffinity>
-6.20376825

$$$$

 OpenBabel03242513453D

 45 48  0  0  0  0  0  0  0  0999 V2000
   36.6780   27.7090   39.9180 C   0  0  0  0  0  0  0  0  0  0  0  0
   36.8950   27.2160   38.6630 C   0  0  0  0  0  0  0  0  0  0  0  0
   37.2690   25.9020   38.5550 C   0  0  0  0  0  0  0  0  0  0  0  0
   37.4340   25.0630   39.6410 C   0  0  0  0  0  0  0  0  0  0  0  0
   37.7800   23.7720   39.8560 N   0  0  0  0  0  0  0  0  0  0  0  0
   37.7660   23.5170   41.1990 C   0  0  0  0  0  0  0  0  0  0  0  0
   37.4080   24.6660   41.8040 N   0  0  0  0  0  0  0  0  0  0  0  0
   37.2040   25.6090   40.8690 C   0  0  0  0  0  0  0  0  0  0  0  0
   36.8280   26.9160   41.0540 C   0  0  0  0  0  0  0  0  0  0  0  0
   36.3810   28.7360   40.0950 H   0  0  0  0  0  0  0  0  0  0  0  0
   37.4520   25.4640   37.5700 H   0  0  0  0  0  0  0  0  0  0  0  0
   38.0070   23.1380   39.0480 H   0  0  0  0  0  0  0  0  0  0  0  0
   38.0100   22.5490   41.6030 H   0  0  0  0  0  0  0  0  0  0  0  0
   36.8570   30.1440   36.4750 C   0  0  0  0  0  0  0  0  0  0  0  0
   36.4080   29.6090   35.2460 C   0  0  0  0  0  0  0  0  0  0  0  0
   36.1340   28.2330   35.2270 C   0  0  0  0  0  0  0  0  0  0  0  0
   36.2950   27.4750   36.3400 N   0  0  0  0  0  0  0  0  0  0  0  0
   36.7320   28.0650   37.4860 C   0  0  0  0  0  0  0  0  0  0  0  0
   37.0130   29.3730   37.5710 N   0  0  0  0  0  0  0  0  0  0  0  0
   37.0900   31.1880   36.5770 H   0  0  0  0  0  0  0  0  0  0  0  0
   35.7890   27.8230   34.2860 H   0  0  0  0  0  0  0  0  0  0  0  0
   36.2650   30.5200   34.0930 C   0  0  0  0  0  0  0  0  0  0  0  0
   34.9050   30.6640   33.9200 F   0  0  0  0  0  0  0  0  0  0  0  0
   36.7980   29.9240   33.0010 F   0  0  0  0  0  0  0  0  0  0  0  0
   36.8890   31.7250   34.4090 F   0  0  0  0  0  0  0  0  0  0  0  0
   36.6080   27.4150   42.3300 O   0  0  0  0  0  0  0  0  0  0  0  0
   38.9240   27.9230   43.3860 O   0  0  0  0  0  0  0  0  0  0  0  0
   37.5690   28.5520   43.1100 P   0  0  2  0  0  0  0  0  0  0  0  0
   36.8710   28.8770   44.6230 O   0  0  0  0  0  0  0  0  0  0  0  0
   37.2040   28.3020   45.3320 H   0  0  0  0  0  0  0  0  0  0  0  0
   37.7640   29.9740   42.2520 O   0  0  0  0  0  0  0  0  0  0  0  0
   39.0450   30.2420   41.8370 C   0  0  0  0  0  0  0  0  0  0  0  0
   39.4820   31.0470   42.4840 H   0  0  0  0  0  0  0  0  0  0  0  0
   39.6480   29.3370   41.8950 H   0  0  0  0  0  0  0  0  0  0  0  0
   38.9520   30.8480   40.4410 C   0  0  0  0  0  0  0  0  0  0  0  0
   39.5730   30.2480   39.7250 H   0  0  0  0  0  0  0  0  0  0  0  0
   37.9110   30.8110   40.1240 H   0  0  0  0  0  0  0  0  0  0  0  0
   39.3700   32.2310   40.4400 N   0  0  0  0  0  0  0  0  0  0  0  0
   38.1360   33.0340   40.4290 C   0  0  0  0  0  3  0  0  0  0  0  0
   37.5450   32.7180   39.5460 H   0  0  0  0  0  0  0  0  0  0  0  0
   38.5690   34.4700   40.2210 C   0  0  0  0  0  3  0  0  0  0  0  0
   38.3510   34.8300   39.1970 H   0  0  0  0  0  0  0  0  0  0  0  0
   39.9460   34.6360   40.3970 O   0  0  0  0  0  0  0  0  0  0  0  0
   40.6790   33.9520   39.4440 C   0  0  0  0  0  2  0  0  0  0  0  0
   40.0360   32.6010   39.2050 C   0  0  0  0  0  2  0  0  0  0  0  0
  1 10  1  0  0  0  0
  1  9  1  0  0  0  0
  2  1  2  0  0  0  0
  3  2  1  0  0  0  0
  3  4  2  0  0  0  0
  4  5  1  0  0  0  0
  4  8  1  0  0  0  0
  5  6  1  0  0  0  0
  6 13  1  0  0  0  0
  6  7  2  0  0  0  0
  8  9  2  0  0  0  0
  8  7  1  0  0  0  0
  9 26  1  0  0  0  0
 11  3  1  0  0  0  0
 12  5  1  0  0  0  0
 14 20  1  0  0  0  0
 14 19  1  0  0  0  0
 15 14  2  0  0  0  0
 16 15  1  0  0  0  0
 16 17  2  0  0  0  0
 17 18  1  0  0  0  0
 18 19  2  0  0  0  0
 18  2  1  0  0  0  0
 21 16  1  0  0  0  0
 22 25  1  0  0  0  0
 22 15  1  0  0  0  0
 23 22  1  0  0  0  0
 24 22  1  0  0  0  0
 26 28  1  0  0  0  0
 28 27  2  1  0  0  0
 28 29  1  0  0  0  0
 29 30  1  0  0  0  0
 31 28  1  0  0  0  0
 32 34  1  0  0  0  0
 32 31  1  0  0  0  0
 32 33  1  0  0  0  0
 35 32  1  0  0  0  0
 36 35  1  0  0  0  0
 37 35  1  0  0  0  0
 38 35  1  0  0  0  0
 39 38  1  0  0  0  0
 40 39  1  0  0  0  0
 41 43  1  0  0  0  0
 41 39  1  0  0  0  0
 42 41  1  0  0  0  0
 44 43  1  0  0  0  0
 45 44  1  0  0  0  0
 45 38  1  0  0  0  0
M  END
>  <minimizedAffinity>
-6.11633539

$$$$

 OpenBabel03242513453D

 45 48  0  0  0  0  0  0  0  0999 V2000
   39.5880   30.7880   39.3290 C   0  0  0  0  0  0  0  0  0  0  0  0
   38.8700   30.5800   40.4720 C   0  0  0  0  0  0  0  0  0  0  0  0
   38.5500   31.6770   41.2280 C   0  0  0  0  0  0  0  0  0  0  0  0
   38.9160   32.9680   40.8940 C   0  0  0  0  0  0  0  0  0  0  0  0
   38.7600   34.2100   41.4090 N   0  0  0  0  0  0  0  0  0  0  0  0
   39.3710   35.1190   40.5900 C   0  0  0  0  0  0  0  0  0  0  0  0
   39.9020   34.4210   39.5690 N   0  0  0  0  0  0  0  0  0  0  0  0
   39.6320   33.1160   39.7430 C   0  0  0  0  0  0  0  0  0  0  0  0
   39.9880   32.0640   38.9360 C   0  0  0  0  0  0  0  0  0  0  0  0
   39.8830   29.9780   38.6730 H   0  0  0  0  0  0  0  0  0  0  0  0
   37.9760   31.5580   42.1500 H   0  0  0  0  0  0  0  0  0  0  0  0
   38.2330   34.3530   42.3070 H   0  0  0  0  0  0  0  0  0  0  0  0
   39.3730   36.1740   40.8050 H   0  0  0  0  0  0  0  0  0  0  0  0
   38.6430   27.4110   42.2810 C   0  0  0  0  0  0  0  0  0  0  0  0
   37.6540   26.7080   41.5560 C   0  0  0  0  0  0  0  0  0  0  0  0
   37.0980   27.3730   40.4530 C   0  0  0  0  0  0  0  0  0  0  0  0
   37.5030   28.6230   40.1150 N   0  0  0  0  0  0  0  0  0  0  0  0
   38.4610   29.2340   40.8650 C   0  0  0  0  0  0  0  0  0  0  0  0
   39.0310   28.6550   41.9310 N   0  0  0  0  0  0  0  0  0  0  0  0
   39.1200   26.9760   43.1400 H   0  0  0  0  0  0  0  0  0  0  0  0
   36.3410   26.8340   39.8960 H   0  0  0  0  0  0  0  0  0  0  0  0
   37.2850   25.3510   42.0050 C   0  0  0  0  0  0  0  0  0  0  0  0
   36.8070   24.7200   40.8770 F   0  0  0  0  0  0  0  0  0  0  0  0
   36.2930   25.4530   42.9200 F   0  0  0  0  0  0  0  0  0  0  0  0
   38.4270   24.7340   42.5130 F   0  0  0  0  0  0  0  0  0  0  0  0
   40.7180   32.2770   37.7750 O   0  0  0  0  0  0  0  0  0  0  0  0
   42.5550   34.0740   37.4090 O   0  0  0  0  0  0  0  0  0  0  0  0
   42.3660   32.5960   37.7060 P   0  0  2  0  0  0  0  0  0  0  0  0
   43.0070   31.7520   36.3800 O   0  0  0  0  0  0  0  0  0  0  0  0
   43.0060   32.2680   35.5580 H   0  0  0  0  0  0  0  0  0  0  0  0
   43.1920   32.1850   39.1010 O   0  0  0  0  0  0  0  0  0  0  0  0
   43.4030   33.2140   39.9870 C   0  0  0  0  0  0  0  0  0  0  0  0
   44.5060   33.3770   40.1060 H   0  0  0  0  0  0  0  0  0  0  0  0
   42.9190   34.1180   39.6230 H   0  0  0  0  0  0  0  0  0  0  0  0
   42.9110   32.7440   41.3510 C   0  0  0  0  0  0  0  0  0  0  0  0
   41.8020   32.8950   41.4290 H   0  0  0  0  0  0  0  0  0  0  0  0
   43.1310   31.6810   41.4440 H   0  0  0  0  0  0  0  0  0  0  0  0
   43.5950   33.4340   42.4220 N   0  0  0  0  0  0  0  0  0  0  0  0
   43.8120   34.8120   41.9510 C   0  0  0  0  0  3  0  0  0  0  0  0
   44.3720   34.7490   40.9960 H   0  0  0  0  0  0  0  0  0  0  0  0
   44.7030   35.4740   42.9800 C   0  0  0  0  0  3  0  0  0  0  0  0
   45.7420   35.6000   42.6180 H   0  0  0  0  0  0  0  0  0  0  0  0
   44.7990   34.7230   44.1550 O   0  0  0  0  0  0  0  0  0  0  0  0
   45.4210   33.5060   43.9470 C   0  0  0  0  0  2  0  0  0  0  0  0
   44.9360   32.9240   42.6340 C   0  0  0  0  0  2  0  0  0  0  0  0
  1  2  1  0  0  0  0
  2 18  1  0  0  0  0
  2  3  2  0  0  0  0
  3 11  1  0  0  0  0
  4  3  1  0  0  0  0
  4  5  1  0  0  0  0
  5 12  1  0  0  0  0
  6 13  1  0  0  0  0
  6  5  1  0  0  0  0
  7  8  1  0  0  0  0
  7  6  2  0  0  0  0
  8  4  2  0  0  0  0
  9  1  2  0  0  0  0
  9  8  1  0  0  0  0
 10  1  1  0  0  0  0
 14 20  1  0  0  0  0
 15 22  1  0  0  0  0
 15 14  2  0  0  0  0
 16 15  1  0  0  0  0
 17 16  2  0  0  0  0
 17 18  1  0  0  0  0
 18 19  2  0  0  0  0
 19 14  1  0  0  0  0
 21 16  1  0  0  0  0
 22 25  1  0  0  0  0
 22 24  1  0  0  0  0
 23 22  1  0  0  0  0
 26  9  1  0  0  0  0
 28 27  2  6  0  0  0
 28 26  1  0  0  0  0
 28 31  1  0  0  0  0
 29 28  1  0  0  0  0
 30 29  1  0  0  0  0
 31 32  1  0  0  0  0
 32 33  1  0  0  0  0
 32 35  1  0  0  0  0
 34 32  1  0  0  0  0
 35 36  1  0  0  0  0
 35 37  1  0  0  0  0
 35 38  1  0  0  0  0
 38 45  1  0  0  0  0
 39 38  1  0  0  0  0
 39 41  1  0  0  0  0
 40 39  1  0  0  0  0
 41 43  1  0  0  0  0
 42 41  1  0  0  0  0
 44 43  1  0  0  0  0
 45 44  1  0  0  0  0
M  END
>  <minimizedAffinity>
-6.09877491

$$$$

 OpenBabel03242513453D

 45 48  0  0  0  0  0  0  0  0999 V2000
   40.4320   31.0950   40.4820 C   0  0  0  0  0  0  0  0  0  0  0  0
   39.1370   30.9090   40.8740 C   0  0  0  0  0  0  0  0  0  0  0  0
   38.3280   32.0140   40.9290 C   0  0  0  0  0  0  0  0  0  0  0  0
   38.7540   33.2900   40.6130 C   0  0  0  0  0  0  0  0  0  0  0  0
   38.2210   34.5340   40.5700 N   0  0  0  0  0  0  0  0  0  0  0  0
   39.1790   35.4230   40.1640 C   0  0  0  0  0  0  0  0  0  0  0  0
   40.3030   34.7100   39.9610 N   0  0  0  0  0  0  0  0  0  0  0  0
   40.0570   33.4160   40.2290 C   0  0  0  0  0  0  0  0  0  0  0  0
   40.9250   32.3560   40.1500 C   0  0  0  0  0  0  0  0  0  0  0  0
   41.1400   30.2780   40.4100 H   0  0  0  0  0  0  0  0  0  0  0  0
   37.2840   31.9130   41.2360 H   0  0  0  0  0  0  0  0  0  0  0  0
   37.2140   34.6930   40.8260 H   0  0  0  0  0  0  0  0  0  0  0  0
   38.9770   36.4750   40.0580 H   0  0  0  0  0  0  0  0  0  0  0  0
   37.1640   27.8320   40.8640 C   0  0  0  0  0  0  0  0  0  0  0  0
   37.7540   27.0800   41.9040 C   0  0  0  0  0  0  0  0  0  0  0  0
   38.8290   27.6810   42.5770 C   0  0  0  0  0  0  0  0  0  0  0  0
   39.2630   28.9180   42.2320 N   0  0  0  0  0  0  0  0  0  0  0  0
   38.6420   29.5800   41.2170 C   0  0  0  0  0  0  0  0  0  0  0  0
   37.6110   29.0620   40.5340 N   0  0  0  0  0  0  0  0  0  0  0  0
   36.3360   27.4470   40.2970 H   0  0  0  0  0  0  0  0  0  0  0  0
   39.2810   27.1050   43.3750 H   0  0  0  0  0  0  0  0  0  0  0  0
   37.2070   25.7410   42.2020 C   0  0  0  0  0  0  0  0  0  0  0  0
   38.2900   24.9970   42.6160 F   0  0  0  0  0  0  0  0  0  0  0  0
   36.7080   25.2140   41.0600 F   0  0  0  0  0  0  0  0  0  0  0  0
   36.2440   25.8760   43.2010 F   0  0  0  0  0  0  0  0  0  0  0  0
   42.2410   32.5460   39.7530 O   0  0  0  0  0  0  0  0  0  0  0  0
   43.1420   32.9310   42.1560 O   0  0  0  0  0  0  0  0  0  0  0  0
   43.4560   33.2210   40.6980 P   0  0  2  0  0  0  0  0  0  0  0  0
   43.3860   34.9070   40.5140 O   0  0  0  0  0  0  0  0  0  0  0  0
   42.8160   35.3420   41.1690 H   0  0  0  0  0  0  0  0  0  0  0  0
   44.9880   32.6660   40.3230 O   0  0  0  0  0  0  0  0  0  0  0  0
   45.0620   31.8230   39.2410 C   0  0  0  0  0  0  0  0  0  0  0  0
   46.0370   31.2700   39.2710 H   0  0  0  0  0  0  0  0  0  0  0  0
   44.2270   31.1250   39.2600 H   0  0  0  0  0  0  0  0  0  0  0  0
   45.1260   32.6930   37.9910 C   0  0  0  0  0  0  0  0  0  0  0  0
   44.3070   33.4600   38.0210 H   0  0  0  0  0  0  0  0  0  0  0  0
   46.0880   33.2030   37.9810 H   0  0  0  0  0  0  0  0  0  0  0  0
   45.0320   31.8960   36.7900 N   0  0  0  0  0  0  0  0  0  0  0  0
   43.6820   31.3070   36.7910 C   0  0  0  0  0  3  0  0  0  0  0  0
   43.5670   30.7470   37.7400 H   0  0  0  0  0  0  0  0  0  0  0  0
   43.6540   30.3150   35.6480 C   0  0  0  0  0  3  0  0  0  0  0  0
   43.6890   29.2660   36.0010 H   0  0  0  0  0  0  0  0  0  0  0  0
   44.7500   30.4640   34.7920 O   0  0  0  0  0  0  0  0  0  0  0  0
   45.9460   30.1750   35.4230 C   0  0  0  0  0  2  0  0  0  0  0  0
   45.9130   30.7440   36.8270 C   0  0  0  0  0  2  0  0  0  0  0  0
  1  2  1  0  0  0  0
  2  3  2  0  0  0  0
  2 18  1  0  0  0  0
  3 11  1  0  0  0  0
  4  3  1  0  0  0  0
  5  4  1  0  0  0  0
  5 12  1  0  0  0  0
  6  5  1  0  0  0  0
  7  6  2  0  0  0  0
  7  8  1  0  0  0  0
  8  4  2  0  0  0  0
  9  8  1  0  0  0  0
  9  1  2  0  0  0  0
 10  1  1  0  0  0  0
 13  6  1  0  0  0  0
 14 15  1  0  0  0  0
 15 22  1  0  0  0  0
 15 16  2  0  0  0  0
 16 21  1  0  0  0  0
 17 16  1  0  0  0  0
 18 17  2  0  0  0  0
 19 14  2  0  0  0  0
 19 18  1  0  0  0  0
 20 14  1  0  0  0  0
 22 23  1  0  0  0  0
 22 25  1  0  0  0  0
 24 22  1  0  0  0  0
 26  9  1  0  0  0  0
 26 28  1  0  0  0  0
 28 27  2  1  0  0  0
 29 28  1  0  0  0  0
 29 30  1  0  0  0  0
 31 28  1  0  0  0  0
 32 34  1  0  0  0  0
 32 33  1  0  0  0  0
 32 31  1  0  0  0  0
 35 36  1  0  0  0  0
 35 32  1  0  0  0  0
 37 35  1  0  0  0  0
 38 39  1  0  0  0  0
 38 45  1  0  0  0  0
 38 35  1  0  0  0  0
 39 40  1  0  0  0  0
 41 42  1  0  0  0  0
 41 39  1  0  0  0  0
 43 44  1  0  0  0  0
 43 41  1  0  0  0  0
 44 45  1  0  0  0  0
M  END
>  <minimizedAffinity>
-5.96569061

$$$$

 OpenBabel03242513453D

 45 48  0  0  0  0  0  0  0  0999 V2000
   41.7530   32.0420   40.7860 C   0  0  0  0  0  0  0  0  0  0  0  0
   40.6700   31.4870   41.4050 C   0  0  0  0  0  0  0  0  0  0  0  0
   39.5080   32.2150   41.4220 C   0  0  0  0  0  0  0  0  0  0  0  0
   39.3840   33.4680   40.8510 C   0  0  0  0  0  0  0  0  0  0  0  0
   38.4140   34.4020   40.7060 N   0  0  0  0  0  0  0  0  0  0  0  0
   38.9180   35.4740   40.0210 C   0  0  0  0  0  0  0  0  0  0  0  0
   40.2050   35.1860   39.7500 N   0  0  0  0  0  0  0  0  0  0  0  0
   40.4980   33.9720   40.2480 C   0  0  0  0  0  0  0  0  0  0  0  0
   41.6940   33.3010   40.1920 C   0  0  0  0  0  0  0  0  0  0  0  0
   42.7100   31.5370   40.7260 H   0  0  0  0  0  0  0  0  0  0  0  0
   38.6160   31.8100   41.9040 H   0  0  0  0  0  0  0  0  0  0  0  0
   37.4510   34.2370   41.0940 H   0  0  0  0  0  0  0  0  0  0  0  0
   38.3210   36.3390   39.7900 H   0  0  0  0  0  0  0  0  0  0  0  0
   42.0170   28.4290   42.8860 C   0  0  0  0  0  0  0  0  0  0  0  0
   40.8510   27.6840   43.1770 C   0  0  0  0  0  0  0  0  0  0  0  0
   39.6280   28.2820   42.8410 C   0  0  0  0  0  0  0  0  0  0  0  0
   39.5860   29.5110   42.2690 N   0  0  0  0  0  0  0  0  0  0  0  0
   40.7540   30.1660   42.0210 C   0  0  0  0  0  0  0  0  0  0  0  0
   41.9560   29.6510   42.3180 N   0  0  0  0  0  0  0  0  0  0  0  0
   42.9950   28.0450   43.1110 H   0  0  0  0  0  0  0  0  0  0  0  0
   38.7350   27.7110   43.0630 H   0  0  0  0  0  0  0  0  0  0  0  0
   41.0040   26.3540   43.8010 C   0  0  0  0  0  0  0  0  0  0  0  0
   41.9310   26.5360   44.8040 F   0  0  0  0  0  0  0  0  0  0  0  0
   41.5000   25.4970   42.8780 F   0  0  0  0  0  0  0  0  0  0  0  0
   39.7620   25.9580   44.2930 F   0  0  0  0  0  0  0  0  0  0  0  0
   42.7940   33.8670   39.5630 O   0  0  0  0  0  0  0  0  0  0  0  0
   44.8260   33.8280   37.9480 O   0  0  0  0  0  0  0  0  0  0  0  0
   43.3530   33.4660   38.0290 P   0  0  2  0  0  0  0  0  0  0  0  0
   42.5500   34.4540   36.9060 O   0  0  0  0  0  0  0  0  0  0  0  0
   43.0200   35.2830   36.7180 H   0  0  0  0  0  0  0  0  0  0  0  0
   43.1370   31.8560   37.6330 O   0  0  0  0  0  0  0  0  0  0  0  0
   41.9570   31.5570   36.9970 C   0  0  0  0  0  0  0  0  0  0  0  0
   41.1110   32.0590   37.5360 H   0  0  0  0  0  0  0  0  0  0  0  0
   42.0010   31.8920   35.9620 H   0  0  0  0  0  0  0  0  0  0  0  0
   41.7170   30.0620   37.1650 C   0  0  0  0  0  0  0  0  0  0  0  0
   42.0370   29.5190   36.2360 H   0  0  0  0  0  0  0  0  0  0  0  0
   42.3190   29.7130   38.0030 H   0  0  0  0  0  0  0  0  0  0  0  0
   40.3310   29.7820   37.4660 N   0  0  0  0  0  0  0  0  0  0  0  0
   39.7150   31.0750   37.8040 C   0  0  0  0  0  3  0  0  0  0  0  0
   40.3000   31.5120   38.6380 H   0  0  0  0  0  0  0  0  0  0  0  0
   38.3250   30.7580   38.3150 C   0  0  0  0  0  3  0  0  0  0  0  0
   38.2450   30.8740   39.4140 H   0  0  0  0  0  0  0  0  0  0  0  0
   37.9510   29.4390   38.0440 O   0  0  0  0  0  0  0  0  0  0  0  0
   38.7420   28.5250   38.7150 C   0  0  0  0  0  2  0  0  0  0  0  0
   40.1810   28.9980   38.6770 C   0  0  0  0  0  2  0  0  0  0  0  0
  1  2  1  0  0  0  0
  2  3  2  0  0  0  0
  2 18  1  0  0  0  0
  3 11  1  0  0  0  0
  4  3  1  0  0  0  0
  5  4  1  0  0  0  0
  5 12  1  0  0  0  0
  6  5  1  0  0  0  0
  7  6  2  0  0  0  0
  7  8  1  0  0  0  0
  8  4  2  0  0  0  0
  9  8  1  0  0  0  0
  9  1  2  0  0  0  0
 10  1  1  0  0  0  0
 13  6  1  0  0  0  0
 14 20  1  0  0  0  0
 14 15  1  0  0  0  0
 15 22  1  0  0  0  0
 16 21  1  0  0  0  0
 16 15  2  0  0  0  0
 17 16  1  0  0  0  0
 18 17  2  0  0  0  0
 18 19  1  0  0  0  0
 19 14  2  0  0  0  0
 22 25  1  0  0  0  0
 22 23  1  0  0  0  0
 24 22  1  0  0  0  0
 26  9  1  0  0  0  0
 28 27  2  6  0  0  0
 28 26  1  0  0  0  0
 29 28  1  0  0  0  0
 30 29  1  0  0  0  0
 31 28  1  0  0  0  0
 32 35  1  0  0  0  0
 32 33  1  0  0  0  0
 32 31  1  0  0  0  0
 34 32  1  0  0  0  0
 35 38  1  0  0  0  0
 35 37  1  0  0  0  0
 36 35  1  0  0  0  0
 38 39  1  0  0  0  0
 38 45  1  0  0  0  0
 39 41  1  0  0  0  0
 39 40  1  0  0  0  0
 41 42  1  0  0  0  0
 43 41  1  0  0  0  0
 43 44  1  0  0  0  0
 45 44  1  0  0  0  0
M  END
>  <minimizedAffinity>
-5.96402359

$$$$

 OpenBabel03242513453D

 45 48  0  0  0  0  0  0  0  0999 V2000
   38.7470   30.9390   39.5520 C   0  0  0  0  0  0  0  0  0  0  0  0
   37.5500   31.3580   39.0440 C   0  0  0  0  0  0  0  0  0  0  0  0
   37.2780   32.7010   39.0880 C   0  0  0  0  0  0  0  0  0  0  0  0
   38.1450   33.6390   39.6170 C   0  0  0  0  0  0  0  0  0  0  0  0
   38.1680   34.9800   39.7990 N   0  0  0  0  0  0  0  0  0  0  0  0
   39.3450   35.3350   40.3980 C   0  0  0  0  0  0  0  0  0  0  0  0
   40.0420   34.1980   40.5800 N   0  0  0  0  0  0  0  0  0  0  0  0
   39.3250   33.1630   40.1100 C   0  0  0  0  0  0  0  0  0  0  0  0
   39.6650   31.8340   40.0990 C   0  0  0  0  0  0  0  0  0  0  0  0
   39.0430   29.8970   39.5580 H   0  0  0  0  0  0  0  0  0  0  0  0
   36.3340   33.0810   38.6920 H   0  0  0  0  0  0  0  0  0  0  0  0
   37.3560   35.5740   39.4930 H   0  0  0  0  0  0  0  0  0  0  0  0
   39.5800   36.3580   40.6390 H   0  0  0  0  0  0  0  0  0  0  0  0
   35.7890   29.2180   36.6600 C   0  0  0  0  0  0  0  0  0  0  0  0
   34.8000   28.6060   37.4630 C   0  0  0  0  0  0  0  0  0  0  0  0
   34.7840   28.9670   38.8180 C   0  0  0  0  0  0  0  0  0  0  0  0
   35.6790   29.8580   39.3130 N   0  0  0  0  0  0  0  0  0  0  0  0
   36.6030   30.4040   38.4750 C   0  0  0  0  0  0  0  0  0  0  0  0
   36.6720   30.1010   37.1710 N   0  0  0  0  0  0  0  0  0  0  0  0
   35.8720   28.9980   35.6120 H   0  0  0  0  0  0  0  0  0  0  0  0
   34.0250   28.4980   39.4330 H   0  0  0  0  0  0  0  0  0  0  0  0
   33.8720   27.6490   36.8270 C   0  0  0  0  0  0  0  0  0  0  0  0
   32.6240   28.2170   36.9660 F   0  0  0  0  0  0  0  0  0  0  0  0
   33.9160   26.4830   37.5130 F   0  0  0  0  0  0  0  0  0  0  0  0
   34.2420   27.5050   35.4910 F   0  0  0  0  0  0  0  0  0  0  0  0
   40.8810   31.4100   40.6170 O   0  0  0  0  0  0  0  0  0  0  0  0
   39.8400   31.0340   42.9650 O   0  0  0  0  0  0  0  0  0  0  0  0
   41.1620   30.9780   42.2170 P   0  0  2  0  0  0  0  0  0  0  0  0
   42.1590   32.1640   42.9100 O   0  0  0  0  0  0  0  0  0  0  0  0
   41.6640   32.8860   43.3300 H   0  0  0  0  0  0  0  0  0  0  0  0
   41.8560   29.4680   42.3960 O   0  0  0  0  0  0  0  0  0  0  0  0
   41.0360   28.5000   42.9210 C   0  0  0  0  0  0  0  0  0  0  0  0
   41.6580   27.7530   43.4800 H   0  0  0  0  0  0  0  0  0  0  0  0
   40.3030   28.9580   43.5830 H   0  0  0  0  0  0  0  0  0  0  0  0
   40.4320   27.7330   41.7510 C   0  0  0  0  0  0  0  0  0  0  0  0
   40.8160   28.1530   40.7830 H   0  0  0  0  0  0  0  0  0  0  0  0
   40.7420   26.6910   41.8310 H   0  0  0  0  0  0  0  0  0  0  0  0
   38.9880   27.7720   41.7850 N   0  0  0  0  0  0  0  0  0  0  0  0
   38.6080   27.7030   43.2050 C   0  0  0  0  0  3  0  0  0  0  0  0
   39.0660   26.7850   43.6260 H   0  0  0  0  0  0  0  0  0  0  0  0
   37.1030   27.5380   43.2320 C   0  0  0  0  0  3  0  0  0  0  0  0
   36.7990   26.5080   43.5030 H   0  0  0  0  0  0  0  0  0  0  0  0
   36.5230   27.7910   41.9860 O   0  0  0  0  0  0  0  0  0  0  0  0
   36.9170   26.8710   41.0310 C   0  0  0  0  0  2  0  0  0  0  0  0
   38.3940   26.5800   41.2090 C   0  0  0  0  0  2  0  0  0  0  0  0
  1 10  1  0  0  0  0
  1  9  1  0  0  0  0
  2  3  1  0  0  0  0
  2  1  2  0  0  0  0
  3  4  2  0  0  0  0
  4  5  1  0  0  0  0
  4  8  1  0  0  0  0
  5  6  1  0  0  0  0
  6  7  2  0  0  0  0
  6 13  1  0  0  0  0
  8  7  1  0  0  0  0
  9  8  2  0  0  0  0
  9 26  1  0  0  0  0
 11  3  1  0  0  0  0
 12  5  1  0  0  0  0
 14 19  2  0  0  0  0
 14 15  1  0  0  0  0
 15 16  2  0  0  0  0
 16 17  1  0  0  0  0
 16 21  1  0  0  0  0
 18  2  1  0  0  0  0
 18 17  2  0  0  0  0
 19 18  1  0  0  0  0
 20 14  1  0  0  0  0
 22 23  1  0  0  0  0
 22 15  1  0  0  0  0
 22 24  1  0  0  0  0
 25 22  1  0  0  0  0
 26 28  1  0  0  0  0
 28 31  1  0  0  0  0
 28 29  1  0  0  0  0
 28 27  2  1  0  0  0
 29 30  1  0  0  0  0
 31 32  1  0  0  0  0
 32 33  1  0  0  0  0
 32 34  1  0  0  0  0
 35 38  1  0  0  0  0
 35 37  1  0  0  0  0
 35 32  1  0  0  0  0
 36 35  1  0  0  0  0
 38 39  1  0  0  0  0
 39 41  1  0  0  0  0
 39 40  1  0  0  0  0
 41 42  1  0  0  0  0
 43 41  1  0  0  0  0
 44 45  1  0  0  0  0
 44 43  1  0  0  0  0
 45 38  1  0  0  0  0
M  END
>  <minimizedAffinity>
-5.96303701

$$$$

 OpenBabel03242513453D

 45 48  0  0  0  0  0  0  0  0999 V2000
   40.0740   30.7990   40.9430 C   0  0  0  0  0  0  0  0  0  0  0  0
   40.4290   29.8330   41.8400 C   0  0  0  0  0  0  0  0  0  0  0  0
   41.4990   30.0910   42.6570 C   0  0  0  0  0  0  0  0  0  0  0  0
   42.2250   31.2660   42.6170 C   0  0  0  0  0  0  0  0  0  0  0  0
   43.2870   31.8010   43.2650 N   0  0  0  0  0  0  0  0  0  0  0  0
   43.5460   33.0450   42.7590 C   0  0  0  0  0  0  0  0  0  0  0  0
   42.6300   33.2660   41.7960 N   0  0  0  0  0  0  0  0  0  0  0  0
   41.8250   32.1950   41.7020 C   0  0  0  0  0  0  0  0  0  0  0  0
   40.7640   32.0060   40.8510 C   0  0  0  0  0  0  0  0  0  0  0  0
   39.2420   30.6790   40.2590 H   0  0  0  0  0  0  0  0  0  0  0  0
   41.8190   29.3470   43.3910 H   0  0  0  0  0  0  0  0  0  0  0  0
   43.7740   31.2640   44.0270 H   0  0  0  0  0  0  0  0  0  0  0  0
   44.3510   33.6580   43.1260 H   0  0  0  0  0  0  0  0  0  0  0  0
   38.8970   26.6450   40.9160 C   0  0  0  0  0  0  0  0  0  0  0  0
   38.2960   26.2270   42.1250 C   0  0  0  0  0  0  0  0  0  0  0  0
   38.4490   27.0810   43.2270 C   0  0  0  0  0  0  0  0  0  0  0  0
   39.1400   28.2430   43.1180 N   0  0  0  0  0  0  0  0  0  0  0  0
   39.6920   28.5760   41.9190 C   0  0  0  0  0  0  0  0  0  0  0  0
   39.5830   27.8040   40.8280 N   0  0  0  0  0  0  0  0  0  0  0  0
   38.8290   26.0510   40.0240 H   0  0  0  0  0  0  0  0  0  0  0  0
   37.9870   26.7610   44.1530 H   0  0  0  0  0  0  0  0  0  0  0  0
   37.5630   24.9440   42.1390 C   0  0  0  0  0  0  0  0  0  0  0  0
   38.3990   24.0640   42.7910 F   0  0  0  0  0  0  0  0  0  0  0  0
   37.3840   24.5350   40.8620 F   0  0  0  0  0  0  0  0  0  0  0  0
   36.3620   25.1360   42.8200 F   0  0  0  0  0  0  0  0  0  0  0  0
   40.4040   32.9890   39.9400 O   0  0  0  0  0  0  0  0  0  0  0  0
   39.6560   35.4680   39.7550 O   0  0  0  0  0  0  0  0  0  0  0  0
   39.1480   34.0880   40.1390 P   0  0  2  0  0  0  0  0  0  0  0  0
   38.7700   34.1560   41.7920 O   0  0  0  0  0  0  0  0  0  0  0  0
   39.2670   34.8370   42.2730 H   0  0  0  0  0  0  0  0  0  0  0  0
   37.7800   33.7160   39.2520 O   0  0  0  0  0  0  0  0  0  0  0  0
   37.0730   32.6220   39.6890 C   0  0  0  0  0  0  0  0  0  0  0  0
   37.4930   32.2800   40.6710 H   0  0  0  0  0  0  0  0  0  0  0  0
   36.0210   32.8810   39.7920 H   0  0  0  0  0  0  0  0  0  0  0  0
   37.3490   31.4850   38.7110 C   0  0  0  0  0  0  0  0  0  0  0  0
   36.8830   31.7180   37.7170 H   0  0  0  0  0  0  0  0  0  0  0  0
   38.4270   31.3990   38.5860 H   0  0  0  0  0  0  0  0  0  0  0  0
   36.8580   30.2240   39.2200 N   0  0  0  0  0  0  0  0  0  0  0  0
   35.8200   29.7760   38.2770 C   0  0  0  0  0  3  0  0  0  0  0  0
   35.0650   30.5850   38.2080 H   0  0  0  0  0  0  0  0  0  0  0  0
   35.1660   28.5680   38.9130 C   0  0  0  0  0  3  0  0  0  0  0  0
   34.1570   28.7960   39.3080 H   0  0  0  0  0  0  0  0  0  0  0  0
   35.8990   28.0820   39.9980 O   0  0  0  0  0  0  0  0  0  0  0  0
   35.9500   28.9890   41.0410 C   0  0  0  0  0  2  0  0  0  0  0  0
   36.1440   30.3800   40.4730 C   0  0  0  0  0  2  0  0  0  0  0  0
  1  2  1  0  0  0  0
  2 18  1  0  0  0  0
  2  3  2  0  0  0  0
  3 11  1  0  0  0  0
  4  3  1  0  0  0  0
  4  5  1  0  0  0  0
  5 12  1  0  0  0  0
  6 13  1  0  0  0  0
  6  5  1  0  0  0  0
  7  6  2  0  0  0  0
  8  7  1  0  0  0  0
  8  4  2  0  0  0  0
  9  1  2  0  0  0  0
  9  8  1  0  0  0  0
 10  1  1  0  0  0  0
 14 15  1  0  0  0  0
 15 22  1  0  0  0  0
 15 16  2  0  0  0  0
 16 21  1  0  0  0  0
 17 16  1  0  0  0  0
 18 17  2  0  0  0  0
 19 14  2  0  0  0  0
 19 18  1  0  0  0  0
 20 14  1  0  0  0  0
 22 23  1  0  0  0  0
 22 25  1  0  0  0  0
 24 22  1  0  0  0  0
 26 28  1  0  0  0  0
 26  9  1  0  0  0  0
 28 27  2  6  0  0  0
 28 29  1  0  0  0  0
 29 30  1  0  0  0  0
 31 32  1  0  0  0  0
 31 28  1  0  0  0  0
 32 34  1  0  0  0  0
 32 33  1  0  0  0  0
 35 38  1  0  0  0  0
 35 32  1  0  0  0  0
 36 35  1  0  0  0  0
 37 35  1  0  0  0  0
 38 45  1  0  0  0  0
 39 41  1  0  0  0  0
 39 38  1  0  0  0  0
 40 39  1  0  0  0  0
 41 42  1  0  0  0  0
 41 43  1  0  0  0  0
 43 44  1  0  0  0  0
 45 44  1  0  0  0  0
M  END
>  <minimizedAffinity>
-5.95517397

$$$$
