
 OpenBabel03242513433D

 45 48  0  0  0  0  0  0  0  0999 V2000
   47.7320   31.0810   46.0240 C   0  0  0  0  0  0  0  0  0  0  0  0
   46.9600   32.0760   45.4960 C   0  0  0  0  0  0  0  0  0  0  0  0
   45.9040   32.5240   46.2450 C   0  0  0  0  0  0  0  0  0  0  0  0
   45.5850   32.0220   47.4930 C   0  0  0  0  0  0  0  0  0  0  0  0
   44.6470   32.2440   48.4440 N   0  0  0  0  0  0  0  0  0  0  0  0
   44.8640   31.4000   49.4980 C   0  0  0  0  0  0  0  0  0  0  0  0
   45.9440   30.6610   49.1840 N   0  0  0  0  0  0  0  0  0  0  0  0
   46.3900   31.0300   47.9710 C   0  0  0  0  0  0  0  0  0  0  0  0
   47.4640   30.5320   47.2770 C   0  0  0  0  0  0  0  0  0  0  0  0
   48.5860   30.6670   45.5010 H   0  0  0  0  0  0  0  0  0  0  0  0
   45.2600   33.3190   45.8630 H   0  0  0  0  0  0  0  0  0  0  0  0
   43.9050   32.9750   48.3010 H   0  0  0  0  0  0  0  0  0  0  0  0
   44.2350   31.4010   50.3720 H   0  0  0  0  0  0  0  0  0  0  0  0
   47.2270   34.4180   42.7020 C   0  0  0  0  0  0  0  0  0  0  0  0
   47.8410   33.6360   41.6970 C   0  0  0  0  0  0  0  0  0  0  0  0
   48.1410   32.3080   42.0360 C   0  0  0  0  0  0  0  0  0  0  0  0
   47.8500   31.8190   43.2670 N   0  0  0  0  0  0  0  0  0  0  0  0
   47.2580   32.6360   44.1810 C   0  0  0  0  0  0  0  0  0  0  0  0
   46.9460   33.9140   43.9220 N   0  0  0  0  0  0  0  0  0  0  0  0
   46.9640   35.4440   42.5270 H   0  0  0  0  0  0  0  0  0  0  0  0
   48.6100   31.7080   41.2650 H   0  0  0  0  0  0  0  0  0  0  0  0
   48.1160   34.2620   40.3880 C   0  0  0  0  0  0  0  0  0  0  0  0
   48.6450   35.4980   40.6890 F   0  0  0  0  0  0  0  0  0  0  0  0
   46.9450   34.4200   39.7290 F   0  0  0  0  0  0  0  0  0  0  0  0
   49.0190   33.4540   39.7000 F   0  0  0  0  0  0  0  0  0  0  0  0
   48.2470   29.5200   47.8160 O   0  0  0  0  0  0  0  0  0  0  0  0
   50.0080   28.3680   49.3350 O   0  0  0  0  0  0  0  0  0  0  0  0
   49.4850   29.7360   48.9320 P   0  0  2  0  0  0  0  0  0  0  0  0
   48.8140   30.4280   50.3290 O   0  0  0  0  0  0  0  0  0  0  0  0
   48.5190   29.7700   50.9810 H   0  0  0  0  0  0  0  0  0  0  0  0
   50.7420   30.6850   48.3700 O   0  0  0  0  0  0  0  0  0  0  0  0
   51.6830   31.0340   49.3080 C   0  0  0  0  0  0  0  0  0  0  0  0
   51.6500   30.2980   50.1540 H   0  0  0  0  0  0  0  0  0  0  0  0
   52.6710   31.0470   48.8520 H   0  0  0  0  0  0  0  0  0  0  0  0
   51.2510   32.3660   49.9100 C   0  0  0  0  0  0  0  0  0  0  0  0
   51.9050   33.1890   49.5180 H   0  0  0  0  0  0  0  0  0  0  0  0
   50.2220   32.5570   49.6090 H   0  0  0  0  0  0  0  0  0  0  0  0
   51.2920   32.3280   51.3540 N   0  0  0  0  0  0  0  0  0  0  0  0
   52.0190   33.5370   51.7770 C   0  0  0  0  0  3  0  0  0  0  0  0
   53.0060   33.5210   51.2760 H   0  0  0  0  0  0  0  0  0  0  0  0
   52.2390   33.3960   53.2670 C   0  0  0  0  0  3  0  0  0  0  0  0
   53.2900   33.1500   53.5150 H   0  0  0  0  0  0  0  0  0  0  0  0
   51.4690   32.3690   53.8210 O   0  0  0  0  0  0  0  0  0  0  0  0
   51.8320   31.1260   53.3360 C   0  0  0  0  0  2  0  0  0  0  0  0
   52.1110   31.2390   51.8520 C   0  0  0  0  0  2  0  0  0  0  0  0
  1  9  1  0  0  0  0
  2  1  2  0  0  0  0
  2  3  1  0  0  0  0
  3  4  2  0  0  0  0
  4  8  1  0  0  0  0
  4  5  1  0  0  0  0
  5  6  1  0  0  0  0
  6 13  1  0  0  0  0
  7  6  2  0  0  0  0
  8  7  1  0  0  0  0
  9 26  1  0  0  0  0
  9  8  2  0  0  0  0
 10  1  1  0  0  0  0
 11  3  1  0  0  0  0
 12  5  1  0  0  0  0
 14 19  1  0  0  0  0
 15 16  1  0  0  0  0
 15 14  2  0  0  0  0
 16 17  2  0  0  0  0
 17 18  1  0  0  0  0
 18  2  1  0  0  0  0
 19 18  2  0  0  0  0
 20 14  1  0  0  0  0
 21 16  1  0  0  0  0
 22 23  1  0  0  0  0
 22 15  1  0  0  0  0
 24 22  1  0  0  0  0
 25 22  1  0  0  0  0
 26 28  1  0  0  0  0
 28 27  2  1  0  0  0
 28 29  1  0  0  0  0
 29 30  1  0  0  0  0
 31 28  1  0  0  0  0
 31 32  1  0  0  0  0
 32 35  1  0  0  0  0
 32 33  1  0  0  0  0
 34 32  1  0  0  0  0
 35 38  1  0  0  0  0
 36 35  1  0  0  0  0
 37 35  1  0  0  0  0
 38 39  1  0  0  0  0
 38 45  1  0  0  0  0
 39 41  1  0  0  0  0
 40 39  1  0  0  0  0
 41 42  1  0  0  0  0
 41 43  1  0  0  0  0
 44 43  1  0  0  0  0
 45 44  1  0  0  0  0
M  END
>  <minimizedAffinity>
-6.09926033

>  <minimizedRMSD>
1.32939065

$$$$
