
 OpenBabel03242521103D

 18 19  0  0  1  0  0  0  0  0999 V2000
   44.6080   35.3940   45.4770 C   0  0  0  0  0  0  0  0  0  0  0  0
   44.6090   36.2190   44.3210 C   0  0  0  0  0  0  0  0  0  0  0  0
   45.3340   35.7660   43.1980 C   0  0  0  0  0  0  0  0  0  0  0  0
   45.9710   34.5830   43.3070 N   0  0  0  0  0  0  0  0  0  0  0  0
   45.9520   33.8190   44.4190 C   0  0  0  0  0  0  0  0  0  0  0  0
   45.2730   34.2240   45.4990 N   0  0  0  0  0  0  0  0  0  0  0  0
   44.0640   35.7080   46.3580 H   0  0  0  0  0  0  0  0  0  0  0  0
   44.0830   37.1530   44.2970 H   0  0  0  0  0  0  0  0  0  0  0  0
   45.3410   36.3850   42.3170 H   0  0  0  0  0  0  0  0  0  0  0  0
   46.8850   32.3200   44.2590 S   0  0  0  0  0  0  0  0  0  0  0  0
   48.1020   34.4800   42.8520 H   0  0  0  0  0  0  0  0  0  0  0  0
   48.8130   33.8140   43.1730 N   0  0  0  0  0  0  0  0  0  0  0  0
   48.3710   32.4470   43.3170 C   0  0  2  0  0  3  0  0  0  0  0  0
   48.3100   31.9100   41.8980 C   0  0  0  0  0  3  0  0  0  0  0  0
   47.8700   32.6570   41.1860 H   0  0  0  0  0  0  0  0  0  0  0  0
   49.6340   31.7600   41.5160 O   0  0  0  0  0  0  0  0  0  0  0  0
   50.3990   32.8810   41.5280 C   0  0  0  0  0  3  0  0  0  0  0  0
   50.0750   33.9450   42.5260 C   0  0  0  0  0  3  0  0  0  0  0  0
  1  6  1  0  0  0  0
  1  7  1  0  0  0  0
  2  1  2  0  0  0  0
  3  4  2  0  0  0  0
  3  2  1  0  0  0  0
  4  5  1  0  0  0  0
  5  6  2  0  0  0  0
  8  2  1  0  0  0  0
  9  3  1  0  0  0  0
 10  5  1  0  0  0  0
 11 12  1  0  0  0  0
 12 13  1  0  0  0  0
 13 10  1  6  0  0  0
 14 13  1  0  0  0  0
 15 14  1  0  0  0  0
 16 17  1  0  0  0  0
 16 14  1  0  0  0  0
 17 18  2  0  0  0  0
 18 12  1  0  0  0  0
M  END
>  <minimizedAffinity>
-3.7299974

>  <minimizedRMSD>
4.13463926

$$$$
