
 OpenBabel03242523263D

 44 47  0  0  1  0  0  0  0  0999 V2000
   46.4640   33.7710   43.3060 C   0  0  0  0  0  0  0  0  0  0  0  0
   47.7460   33.4620   43.3060 C   0  0  0  0  0  0  0  0  0  0  0  0
   48.0650   32.3050   44.0010 C   0  0  0  0  0  0  0  0  0  0  0  0
   47.0050   31.6020   44.6200 N   0  0  0  0  0  0  0  0  0  0  0  0
   45.7530   31.9750   44.5760 C   0  0  0  0  0  0  0  0  0  0  0  0
   45.4150   33.1290   43.8830 N   0  0  0  0  0  0  0  0  0  0  0  0
   49.0530   31.8790   44.1190 H   0  0  0  0  0  0  0  0  0  0  0  0
   45.0560   31.3340   45.1000 H   0  0  0  0  0  0  0  0  0  0  0  0
   48.8480   34.2330   42.7820 C   0  0  1  0  0  0  0  0  0  0  0  0
   50.1390   33.8460   42.6750 C   0  0  0  0  0  0  0  0  0  0  0  0
   49.4050   33.7140   41.3700 C   0  0  1  0  0  0  0  0  0  0  0  0
   48.5140   35.3090   42.6220 H   0  0  0  0  0  0  0  0  0  0  0  0
   50.9930   34.5710   42.6200 H   0  0  0  0  0  0  0  0  0  0  0  0
   50.5260   32.8830   43.1110 H   0  0  0  0  0  0  0  0  0  0  0  0
   49.5470   34.4960   40.6060 H   0  0  0  0  0  0  0  0  0  0  0  0
   48.9740   32.4170   40.9990 N   0  0  0  0  0  0  0  0  0  0  0  0
   47.9820   32.2080   41.1920 H   0  0  0  0  0  0  0  0  0  0  0  0
   51.1290   33.0790   39.3340 H   0  0  0  0  0  0  0  0  0  0  0  0
   50.7250   32.1340   39.4660 N   0  0  0  0  0  0  0  0  0  0  0  0
   49.3010   32.1920   39.6070 C   0  0  1  0  0  3  0  0  0  0  0  0
   48.6130   30.9240   39.1680 C   0  0  0  0  0  3  0  0  0  0  0  0
   48.2850   30.9690   38.1190 H   0  0  0  0  0  0  0  0  0  0  0  0
   49.5410   29.8770   39.3740 O   0  0  0  0  0  0  0  0  0  0  0  0
   50.4740   29.9740   38.3420 C   0  0  0  0  0  2  0  0  0  0  0  0
   51.1180   31.3450   38.3140 C   0  0  0  0  0  2  0  0  0  0  0  0
   45.8510   34.9170   42.5760 C   0  0  0  0  0  0  0  0  0  0  0  0
   45.5470   36.0610   42.4210 O   0  0  0  0  0  0  0  0  0  0  0  0
   42.8190   35.2590   42.0400 Cl  0  0  0  0  0  0  0  0  0  0  0  0
   43.8970   34.4580   40.9130 C   0  0  0  0  0  0  0  0  0  0  0  0
   45.2650   34.3860   41.2860 C   0  0  0  0  0  0  0  0  0  0  0  0
   45.9940   33.7460   40.3210 C   0  0  0  0  0  0  0  0  0  0  0  0
   45.6310   33.2210   39.1710 C   0  0  0  0  0  0  0  0  0  0  0  0
   44.2880   33.3180   38.8550 C   0  0  0  0  0  0  0  0  0  0  0  0
   43.4330   33.9250   39.7090 C   0  0  0  0  0  0  0  0  0  0  0  0
   47.0940   33.6510   40.5180 H   0  0  0  0  0  0  0  0  0  0  0  0
   46.3050   32.7270   38.4650 H   0  0  0  0  0  0  0  0  0  0  0  0
   43.9580   32.8850   37.8940 H   0  0  0  0  0  0  0  0  0  0  0  0
   42.1260   33.9650   39.2940 O   0  0  0  0  0  0  0  0  0  0  0  0
   40.2220   34.5290   37.5830 O   0  0  0  0  0  0  0  0  0  0  0  0
   41.2970   35.1540   38.4280 P   0  0  0  0  0  0  0  0  0  0  0  0
   40.6410   36.2690   39.5260 O   0  0  0  0  0  0  0  0  0  0  0  0
   39.8770   35.8170   40.0020 H   0  0  0  0  0  0  0  0  0  0  0  0
   42.3460   36.0460   37.4380 O   0  0  0  0  0  0  0  0  0  0  0  0
   41.7810   36.5070   36.7710 H   0  0  0  0  0  0  0  0  0  0  0  0
  1  6  1  0  0  0  0
  2  1  2  0  0  0  0
  2  3  1  0  0  0  0
  3  7  1  0  0  0  0
  3  4  2  0  0  0  0
  5  4  1  0  0  0  0
  5  8  1  0  0  0  0
  6  5  2  0  0  0  0
  9 12  1  1  0  0  0
  9  2  1  0  0  0  0
 10  9  1  0  0  0  0
 10 14  1  0  0  0  0
 11 15  1  6  0  0  0
 11 10  1  0  0  0  0
 11  9  1  0  0  0  0
 13 10  1  0  0  0  0
 16 17  1  0  0  0  0
 16 11  1  0  0  0  0
 18 19  1  0  0  0  0
 19 20  1  0  0  0  0
 20 16  1  1  0  0  0
 21 23  1  0  0  0  0
 21 20  1  0  0  0  0
 22 21  1  0  0  0  0
 24 23  1  0  0  0  0
 25 24  1  0  0  0  0
 25 19  1  0  0  0  0
 26  1  1  0  0  0  0
 27 26  2  0  0  0  0
 29 30  1  0  0  0  0
 29 28  1  0  0  0  0
 30 26  1  0  0  0  0
 31 35  1  0  0  0  0
 31 30  2  0  0  0  0
 32 31  1  0  0  0  0
 33 32  2  0  0  0  0
 33 34  1  0  0  0  0
 34 29  2  0  0  0  0
 36 32  1  0  0  0  0
 37 33  1  0  0  0  0
 38 34  1  0  0  0  0
 39 40  2  0  0  0  0
 40 38  1  0  0  0  0
 40 41  1  0  0  0  0
 41 42  1  0  0  0  0
 43 40  1  0  0  0  0
 44 43  1  0  0  0  0
M  END
>  <minimizedAffinity>
-5.39860058

>  <minimizedRMSD>
3.44035673

$$$$
