
 OpenBabel03242521103D

 18 19  0  0  1  0  0  0  0  0999 V2000
   41.5640   29.4350   43.4820 C   0  0  0  0  0  0  0  0  0  0  0  0
   40.5060   30.2990   43.0910 C   0  0  0  0  0  0  0  0  0  0  0  0
   40.8420   31.4310   42.3200 C   0  0  0  0  0  0  0  0  0  0  0  0
   42.1420   31.6100   42.0120 N   0  0  0  0  0  0  0  0  0  0  0  0
   43.1270   30.7720   42.3980 C   0  0  0  0  0  0  0  0  0  0  0  0
   42.8380   29.6890   43.1300 N   0  0  0  0  0  0  0  0  0  0  0  0
   41.3460   28.5560   44.0740 H   0  0  0  0  0  0  0  0  0  0  0  0
   39.4900   30.1030   43.3690 H   0  0  0  0  0  0  0  0  0  0  0  0
   40.0470   32.0920   42.0190 H   0  0  0  0  0  0  0  0  0  0  0  0
   44.7350   31.2730   41.8430 S   0  0  0  0  0  0  0  0  0  0  0  0
   43.4920   33.2800   43.4400 H   0  0  0  0  0  0  0  0  0  0  0  0
   44.5140   33.3390   43.5180 N   0  0  0  0  0  0  0  0  0  0  0  0
   45.2580   32.8720   42.3720 C   0  0  2  0  0  3  0  0  0  0  0  0
   45.1320   33.9870   41.3500 C   0  0  0  0  0  3  0  0  0  0  0  0
   44.0930   34.4080   41.3140 H   0  0  0  0  0  0  0  0  0  0  0  0
   45.9360   35.0080   41.8340 O   0  0  0  0  0  0  0  0  0  0  0  0
   45.6190   35.4980   43.0590 C   0  0  0  0  0  3  0  0  0  0  0  0
   44.9920   34.5710   44.0500 C   0  0  0  0  0  3  0  0  0  0  0  0
  1  7  1  0  0  0  0
  2  8  1  0  0  0  0
  2  1  2  0  0  0  0
  3  2  1  0  0  0  0
  4  3  2  0  0  0  0
  4  5  1  0  0  0  0
  5  6  2  0  0  0  0
  6  1  1  0  0  0  0
  9  3  1  0  0  0  0
 10  5  1  0  0  0  0
 11 12  1  0  0  0  0
 12 18  1  0  0  0  0
 13 10  1  6  0  0  0
 13 12  1  0  0  0  0
 14 16  1  0  0  0  0
 14 13  1  0  0  0  0
 15 14  1  0  0  0  0
 16 17  1  0  0  0  0
 17 18  2  0  0  0  0
M  END
>  <minimizedAffinity>
-2.94865894

>  <minimizedRMSD>
6.53984022

$$$$
