
 OpenBabel03242523263D

 44 47  0  0  1  0  0  0  0  0999 V2000
   47.2920   32.5290   44.2440 C   0  0  0  0  0  0  0  0  0  0  0  0
   48.1830   32.9390   43.3610 C   0  0  0  0  0  0  0  0  0  0  0  0
   48.9570   31.9310   42.8070 C   0  0  0  0  0  0  0  0  0  0  0  0
   48.7140   30.6070   43.2410 N   0  0  0  0  0  0  0  0  0  0  0  0
   47.8100   30.2800   44.1260 C   0  0  0  0  0  0  0  0  0  0  0  0
   47.0240   31.2750   44.6900 N   0  0  0  0  0  0  0  0  0  0  0  0
   49.7370   32.0550   42.0660 H   0  0  0  0  0  0  0  0  0  0  0  0
   47.7440   29.2240   44.3580 H   0  0  0  0  0  0  0  0  0  0  0  0
   48.5200   34.2950   43.0000 C   0  0  1  0  0  0  0  0  0  0  0  0
   49.4760   34.6960   42.1330 C   0  0  0  0  0  0  0  0  0  0  0  0
   48.1120   34.7010   41.5020 C   0  0  1  0  0  0  0  0  0  0  0  0
   47.9750   35.0170   43.6910 H   0  0  0  0  0  0  0  0  0  0  0  0
   49.9430   35.7160   42.1640 H   0  0  0  0  0  0  0  0  0  0  0  0
   50.2190   33.9870   41.6710 H   0  0  0  0  0  0  0  0  0  0  0  0
   47.5810   35.6630   41.4060 H   0  0  0  0  0  0  0  0  0  0  0  0
   47.7860   33.6130   40.6570 N   0  0  0  0  0  0  0  0  0  0  0  0
   47.0930   32.9490   41.0370 H   0  0  0  0  0  0  0  0  0  0  0  0
   48.8390   35.4560   38.8240 H   0  0  0  0  0  0  0  0  0  0  0  0
   48.5410   34.4850   38.6150 N   0  0  0  0  0  0  0  0  0  0  0  0
   47.3760   34.1250   39.3660 C   0  0  1  0  0  3  0  0  0  0  0  0
   46.5440   33.0640   38.6910 C   0  0  0  0  0  3  0  0  0  0  0  0
   45.7380   33.4950   38.0770 H   0  0  0  0  0  0  0  0  0  0  0  0
   47.4360   32.2990   37.9070 O   0  0  0  0  0  0  0  0  0  0  0  0
   47.7350   33.0730   36.7870 C   0  0  0  0  0  2  0  0  0  0  0  0
   48.3000   34.4210   37.1870 C   0  0  0  0  0  2  0  0  0  0  0  0
   46.2910   33.3970   44.9290 C   0  0  0  0  0  0  0  0  0  0  0  0
   45.7470   33.8780   45.8750 O   0  0  0  0  0  0  0  0  0  0  0  0
   44.4690   31.6930   43.0910 Cl  0  0  0  0  0  0  0  0  0  0  0  0
   44.6040   33.4350   42.9430 C   0  0  0  0  0  0  0  0  0  0  0  0
   45.4680   34.0850   43.8620 C   0  0  0  0  0  0  0  0  0  0  0  0
   45.4750   35.4360   43.6430 C   0  0  0  0  0  0  0  0  0  0  0  0
   44.8370   36.1710   42.7590 C   0  0  0  0  0  0  0  0  0  0  0  0
   44.0070   35.4890   41.8870 C   0  0  0  0  0  0  0  0  0  0  0  0
   43.8900   34.1450   41.9740 C   0  0  0  0  0  0  0  0  0  0  0  0
   46.1220   36.0420   44.3320 H   0  0  0  0  0  0  0  0  0  0  0  0
   44.9160   37.2580   42.6710 H   0  0  0  0  0  0  0  0  0  0  0  0
   43.4600   36.0840   41.1340 H   0  0  0  0  0  0  0  0  0  0  0  0
   43.0410   33.5730   41.0620 O   0  0  0  0  0  0  0  0  0  0  0  0
   40.8160   32.9990   39.7980 O   0  0  0  0  0  0  0  0  0  0  0  0
   41.3840   33.2610   41.1660 P   0  0  0  0  0  0  0  0  0  0  0  0
   41.1440   31.9330   42.1930 O   0  0  0  0  0  0  0  0  0  0  0  0
   41.4590   31.1090   41.7070 H   0  0  0  0  0  0  0  0  0  0  0  0
   40.5540   34.5540   41.8840 O   0  0  0  0  0  0  0  0  0  0  0  0
   39.5990   34.4370   41.6570 H   0  0  0  0  0  0  0  0  0  0  0  0
  1  6  1  0  0  0  0
  1 26  1  0  0  0  0
  2  1  2  0  0  0  0
  3  4  2  0  0  0  0
  3  2  1  0  0  0  0
  4  5  1  0  0  0  0
  5  8  1  0  0  0  0
  5  6  2  0  0  0  0
  7  3  1  0  0  0  0
  9  2  1  0  0  0  0
  9 12  1  1  0  0  0
 10 13  1  0  0  0  0
 10  9  1  0  0  0  0
 11 15  1  6  0  0  0
 11 10  1  0  0  0  0
 11  9  1  0  0  0  0
 14 10  1  0  0  0  0
 16 17  1  0  0  0  0
 16 11  1  0  0  0  0
 19 18  1  0  0  0  0
 19 20  1  0  0  0  0
 20 16  1  1  0  0  0
 21 20  1  0  0  0  0
 22 21  1  0  0  0  0
 23 21  1  0  0  0  0
 24 25  1  0  0  0  0
 24 23  1  0  0  0  0
 25 19  1  0  0  0  0
 26 27  2  0  0  0  0
 29 28  1  0  0  0  0
 29 30  1  0  0  0  0
 30 26  1  0  0  0  0
 31 30  2  0  0  0  0
 31 35  1  0  0  0  0
 32 31  1  0  0  0  0
 33 34  1  0  0  0  0
 33 32  2  0  0  0  0
 34 29  2  0  0  0  0
 36 32  1  0  0  0  0
 37 33  1  0  0  0  0
 38 40  1  0  0  0  0
 38 34  1  0  0  0  0
 39 40  2  0  0  0  0
 40 43  1  0  0  0  0
 40 41  1  0  0  0  0
 42 41  1  0  0  0  0
 44 43  1  0  0  0  0
M  END
>  <minimizedAffinity>
-6.14490175

>  <minimizedRMSD>
1.27162659

$$$$
