
 OpenBabel03242521103D

 18 19  0  0  1  0  0  0  0  0999 V2000
   44.5650   35.7080   44.8010 C   0  0  0  0  0  0  0  0  0  0  0  0
   44.8610   36.2970   43.5430 C   0  0  0  0  0  0  0  0  0  0  0  0
   45.8020   35.6400   42.7220 C   0  0  0  0  0  0  0  0  0  0  0  0
   46.3500   34.5030   43.1930 N   0  0  0  0  0  0  0  0  0  0  0  0
   46.0490   33.9660   44.3940 C   0  0  0  0  0  0  0  0  0  0  0  0
   45.1610   34.5660   45.1940 N   0  0  0  0  0  0  0  0  0  0  0  0
   43.8490   36.1820   45.4590 H   0  0  0  0  0  0  0  0  0  0  0  0
   44.3920   37.2060   43.2260 H   0  0  0  0  0  0  0  0  0  0  0  0
   46.0330   36.0800   41.7670 H   0  0  0  0  0  0  0  0  0  0  0  0
   46.9340   32.4670   44.7360 S   0  0  0  0  0  0  0  0  0  0  0  0
   47.9070   33.3090   47.2790 H   0  0  0  0  0  0  0  0  0  0  0  0
   47.0190   32.8050   47.3810 N   0  0  0  0  0  0  0  0  0  0  0  0
   46.7350   31.8210   46.3650 C   0  0  2  0  0  3  0  0  0  0  0  0
   47.6100   30.6340   46.7230 C   0  0  0  0  0  3  0  0  0  0  0  0
   48.6380   30.9500   47.0420 H   0  0  0  0  0  0  0  0  0  0  0  0
   47.0180   30.0810   47.8490 O   0  0  0  0  0  0  0  0  0  0  0  0
   46.9120   30.8890   48.9330 C   0  0  0  0  0  3  0  0  0  0  0  0
   46.7490   32.3570   48.7070 C   0  0  0  0  0  3  0  0  0  0  0  0
  1  6  1  0  0  0  0
  1  7  1  0  0  0  0
  2  1  2  0  0  0  0
  3  4  2  0  0  0  0
  3  2  1  0  0  0  0
  4  5  1  0  0  0  0
  5 10  1  0  0  0  0
  5  6  2  0  0  0  0
  8  2  1  0  0  0  0
  9  3  1  0  0  0  0
 11 12  1  0  0  0  0
 12 18  1  0  0  0  0
 13 10  1  6  0  0  0
 13 14  1  0  0  0  0
 13 12  1  0  0  0  0
 14 15  1  0  0  0  0
 14 16  1  0  0  0  0
 16 17  1  0  0  0  0
 18 17  2  0  0  0  0
M  END
>  <minimizedAffinity>
-4.14424992

>  <minimizedRMSD>
2.12625718

$$$$
