
 OpenBabel03242523263D

 44 47  0  0  1  0  0  0  0  0999 V2000
   47.2980   32.7840   44.1450 C   0  0  0  0  0  0  0  0  0  0  0  0
   48.1040   33.2120   43.1920 C   0  0  0  0  0  0  0  0  0  0  0  0
   48.9520   32.2460   42.6710 C   0  0  0  0  0  0  0  0  0  0  0  0
   48.8630   30.9410   43.2090 N   0  0  0  0  0  0  0  0  0  0  0  0
   48.0360   30.5940   44.1600 C   0  0  0  0  0  0  0  0  0  0  0  0
   47.1780   31.5470   44.6920 N   0  0  0  0  0  0  0  0  0  0  0  0
   49.6820   32.3890   41.8860 H   0  0  0  0  0  0  0  0  0  0  0  0
   48.0870   29.5570   44.4680 H   0  0  0  0  0  0  0  0  0  0  0  0
   48.2860   34.5630   42.7200 C   0  0  1  0  0  0  0  0  0  0  0  0
   49.1680   34.9920   41.7890 C   0  0  0  0  0  0  0  0  0  0  0  0
   47.7920   34.8100   41.2130 C   0  0  1  0  0  0  0  0  0  0  0  0
   47.6900   35.2770   43.3760 H   0  0  0  0  0  0  0  0  0  0  0  0
   49.5270   36.0530   41.7280 H   0  0  0  0  0  0  0  0  0  0  0  0
   49.9670   34.3290   41.3530 H   0  0  0  0  0  0  0  0  0  0  0  0
   47.1610   35.7020   41.0670 H   0  0  0  0  0  0  0  0  0  0  0  0
   47.5560   33.6320   40.4630 N   0  0  0  0  0  0  0  0  0  0  0  0
   46.5750   33.3130   40.4360 H   0  0  0  0  0  0  0  0  0  0  0  0
   50.0880   33.3660   39.2890 H   0  0  0  0  0  0  0  0  0  0  0  0
   49.2100   32.9290   38.9570 N   0  0  0  0  0  0  0  0  0  0  0  0
   48.0920   33.8070   39.1300 C   0  0  1  0  0  3  0  0  0  0  0  0
   46.9800   33.5470   38.1450 C   0  0  0  0  0  3  0  0  0  0  0  0
   47.0560   34.1860   37.2530 H   0  0  0  0  0  0  0  0  0  0  0  0
   47.0620   32.1760   37.8080 O   0  0  0  0  0  0  0  0  0  0  0  0
   48.1420   32.0520   36.9360 C   0  0  0  0  0  2  0  0  0  0  0  0
   49.4140   32.5890   37.5620 C   0  0  0  0  0  2  0  0  0  0  0  0
   46.2450   33.5990   44.8160 C   0  0  0  0  0  0  0  0  0  0  0  0
   45.6700   34.0590   45.7560 O   0  0  0  0  0  0  0  0  0  0  0  0
   44.5210   31.7620   43.0130 Cl  0  0  0  0  0  0  0  0  0  0  0  0
   44.5560   33.5060   42.8340 C   0  0  0  0  0  0  0  0  0  0  0  0
   45.3830   34.2200   43.7400 C   0  0  0  0  0  0  0  0  0  0  0  0
   45.3130   35.5650   43.4970 C   0  0  0  0  0  0  0  0  0  0  0  0
   44.6330   36.2470   42.6010 C   0  0  0  0  0  0  0  0  0  0  0  0
   43.8430   35.5030   41.7430 C   0  0  0  0  0  0  0  0  0  0  0  0
   43.8020   34.1560   41.8540 C   0  0  0  0  0  0  0  0  0  0  0  0
   45.9240   36.2190   44.1740 H   0  0  0  0  0  0  0  0  0  0  0  0
   44.6500   37.3340   42.4940 H   0  0  0  0  0  0  0  0  0  0  0  0
   43.2620   36.0530   40.9810 H   0  0  0  0  0  0  0  0  0  0  0  0
   42.9860   33.5220   40.9530 O   0  0  0  0  0  0  0  0  0  0  0  0
   40.8520   32.6110   39.7340 O   0  0  0  0  0  0  0  0  0  0  0  0
   41.3380   33.1640   41.0440 P   0  0  0  0  0  0  0  0  0  0  0  0
   41.0900   32.0580   42.3060 O   0  0  0  0  0  0  0  0  0  0  0  0
   41.4580   31.1680   42.0100 H   0  0  0  0  0  0  0  0  0  0  0  0
   40.4280   34.5370   41.4500 O   0  0  0  0  0  0  0  0  0  0  0  0
   39.4900   34.3350   41.2100 H   0  0  0  0  0  0  0  0  0  0  0  0
  1  6  1  0  0  0  0
  1 26  1  0  0  0  0
  2  1  2  0  0  0  0
  3  2  1  0  0  0  0
  3  4  2  0  0  0  0
  4  5  1  0  0  0  0
  5  8  1  0  0  0  0
  5  6  2  0  0  0  0
  7  3  1  0  0  0  0
  9  2  1  0  0  0  0
  9 12  1  1  0  0  0
 10  9  1  0  0  0  0
 11 15  1  6  0  0  0
 11 10  1  0  0  0  0
 11  9  1  0  0  0  0
 13 10  1  0  0  0  0
 14 10  1  0  0  0  0
 16 11  1  0  0  0  0
 17 16  1  0  0  0  0
 19 20  1  0  0  0  0
 19 18  1  0  0  0  0
 20 16  1  1  0  0  0
 21 20  1  0  0  0  0
 22 21  1  0  0  0  0
 23 21  1  0  0  0  0
 24 25  1  0  0  0  0
 24 23  1  0  0  0  0
 25 19  1  0  0  0  0
 26 27  2  0  0  0  0
 29 28  1  0  0  0  0
 29 30  1  0  0  0  0
 30 26  1  0  0  0  0
 31 30  2  0  0  0  0
 31 35  1  0  0  0  0
 32 31  1  0  0  0  0
 33 34  1  0  0  0  0
 33 32  2  0  0  0  0
 34 29  2  0  0  0  0
 36 32  1  0  0  0  0
 37 33  1  0  0  0  0
 38 40  1  0  0  0  0
 38 34  1  0  0  0  0
 39 40  2  0  0  0  0
 40 43  1  0  0  0  0
 40 41  1  0  0  0  0
 42 41  1  0  0  0  0
 44 43  1  0  0  0  0
M  END
>  <minimizedAffinity>
-5.98803806

>  <minimizedRMSD>
1.40307641

$$$$
