
 OpenBabel03252507373D

 37 41  0  0  0  0  0  0  0  0999 V2000
   45.8130   34.6740   43.7140 C   0  0  0  0  0  0  0  0  0  0  0  0
   46.5450   33.6330   44.3410 C   0  0  0  0  0  0  0  0  0  0  0  0
   46.2570   33.3770   45.6730 C   0  0  0  0  0  0  0  0  0  0  0  0
   45.3200   34.1070   46.3010 N   0  0  0  0  0  0  0  0  0  0  0  0
   44.6350   35.0960   45.6810 C   0  0  0  0  0  0  0  0  0  0  0  0
   44.8820   35.3700   44.4050 N   0  0  0  0  0  0  0  0  0  0  0  0
   47.2870   33.0460   43.8680 H   0  0  0  0  0  0  0  0  0  0  0  0
   43.9170   35.6000   46.2940 H   0  0  0  0  0  0  0  0  0  0  0  0
   47.2260   32.6220   47.7770 C   0  0  0  0  0  0  0  0  0  0  0  0
   46.9290   32.3310   46.4520 C   0  0  0  0  0  0  0  0  0  0  0  0
   47.2750   31.0990   45.9660 C   0  0  0  0  0  0  0  0  0  0  0  0
   47.9000   30.1550   46.7510 C   0  0  0  0  0  0  0  0  0  0  0  0
   48.3250   28.8950   46.4810 N   0  0  0  0  0  0  0  0  0  0  0  0
   48.8880   28.3940   47.6400 C   0  0  0  0  0  0  0  0  0  0  0  0
   48.7920   29.3630   48.5850 N   0  0  0  0  0  0  0  0  0  0  0  0
   48.1930   30.4350   48.0500 C   0  0  0  0  0  0  0  0  0  0  0  0
   47.8550   31.6710   48.5690 C   0  0  0  0  0  0  0  0  0  0  0  0
   46.9850   33.5820   48.2530 H   0  0  0  0  0  0  0  0  0  0  0  0
   47.0300   30.9090   44.9300 H   0  0  0  0  0  0  0  0  0  0  0  0
   48.2130   28.4450   45.5400 H   0  0  0  0  0  0  0  0  0  0  0  0
   49.2810   27.4030   47.6160 H   0  0  0  0  0  0  0  0  0  0  0  0
   48.0950   31.8850   49.6120 H   0  0  0  0  0  0  0  0  0  0  0  0
   46.0990   34.9380   42.3750 O   0  0  0  0  0  0  0  0  0  0  0  0
   45.2400   34.4580   41.3840 C   0  0  0  0  0  0  0  0  0  0  0  0
   46.1260   33.8530   40.5710 C   0  0  0  0  0  0  0  0  0  0  0  0
   44.9870   33.1700   39.1940 S   0  0  0  0  0  0  0  0  0  0  0  0
   43.5040   33.9120   40.1000 C   0  0  0  0  0  0  0  0  0  0  0  0
   43.9970   34.3680   40.9630 N   0  0  0  0  0  0  0  0  0  0  0  0
   47.2180   33.4290   40.1040 H   0  0  0  0  0  0  0  0  0  0  0  0
   42.1270   33.8000   39.6320 N   0  0  0  0  0  0  0  0  0  0  0  0
   41.7360   32.8900   38.5830 C   0  0  0  0  0  3  0  0  0  0  0  0
   42.5640   32.7540   37.8350 H   0  0  0  0  0  0  0  0  0  0  0  0
   40.4570   33.3060   37.9390 C   0  0  0  0  0  3  0  0  0  0  0  0
   39.6140   32.7470   38.4280 H   0  0  0  0  0  0  0  0  0  0  0  0
   40.2270   34.6500   37.8530 O   0  0  0  0  0  0  0  0  0  0  0  0
   40.5270   35.4010   38.9590 C   0  0  0  0  0  2  0  0  0  0  0  0
   41.0340   34.5810   40.1420 C   0  0  0  0  0  2  0  0  0  0  0  0
  1  2  2  0  0  0  0
  1  6  1  0  0  0  0
  2  3  1  0  0  0  0
  3  4  2  0  0  0  0
  3 10  1  0  0  0  0
  5  8  1  0  0  0  0
  5  4  1  0  0  0  0
  6  5  2  0  0  0  0
  7  2  1  0  0  0  0
  9 18  1  0  0  0  0
  9 17  1  0  0  0  0
 10  9  2  0  0  0  0
 11 10  1  0  0  0  0
 11 12  2  0  0  0  0
 12 16  1  0  0  0  0
 13 12  1  0  0  0  0
 13 14  1  0  0  0  0
 14 15  2  0  0  0  0
 16 17  2  0  0  0  0
 16 15  1  0  0  0  0
 17 22  1  0  0  0  0
 19 11  1  0  0  0  0
 20 13  1  0  0  0  0
 21 14  1  0  0  0  0
 23  1  1  0  0  0  0
 24 23  1  0  0  0  0
 25 24  2  0  0  0  0
 26 27  1  0  0  0  0
 26 25  1  0  0  0  0
 27 28  2  0  0  0  0
 28 24  1  0  0  0  0
 29 25  1  0  0  0  0
 30 27  1  0  0  0  0
 30 37  1  0  0  0  0
 31 30  1  0  0  0  0
 32 31  1  0  0  0  0
 33 34  1  0  0  0  0
 33 31  1  0  0  0  0
 35 33  1  0  0  0  0
 35 36  1  0  0  0  0
 36 37  1  0  0  0  0
M  END
>  <minimizedAffinity>
-6.49588966

>  <minimizedRMSD>
1.25246048

$$$$
