
 OpenBabel03252507373D

 37 41  0  0  0  0  0  0  0  0999 V2000
   46.3260   34.9350   43.2200 C   0  0  0  0  0  0  0  0  0  0  0  0
   46.9280   33.8550   43.9150 C   0  0  0  0  0  0  0  0  0  0  0  0
   46.3630   33.4940   45.1270 C   0  0  0  0  0  0  0  0  0  0  0  0
   45.2930   34.1660   45.5860 N   0  0  0  0  0  0  0  0  0  0  0  0
   44.7360   35.1940   44.9060 C   0  0  0  0  0  0  0  0  0  0  0  0
   45.2490   35.5680   43.7390 N   0  0  0  0  0  0  0  0  0  0  0  0
   47.7700   33.3120   43.5740 H   0  0  0  0  0  0  0  0  0  0  0  0
   43.8890   35.6440   45.3810 H   0  0  0  0  0  0  0  0  0  0  0  0
   46.9940   32.6360   47.3190 C   0  0  0  0  0  0  0  0  0  0  0  0
   46.8740   32.3970   45.9560 C   0  0  0  0  0  0  0  0  0  0  0  0
   47.2310   31.1640   45.4810 C   0  0  0  0  0  0  0  0  0  0  0  0
   47.7000   30.1700   46.3120 C   0  0  0  0  0  0  0  0  0  0  0  0
   48.1050   28.8990   46.0610 N   0  0  0  0  0  0  0  0  0  0  0  0
   48.4780   28.3400   47.2690 C   0  0  0  0  0  0  0  0  0  0  0  0
   48.2920   29.2860   48.2240 N   0  0  0  0  0  0  0  0  0  0  0  0
   47.8200   30.3990   47.6480 C   0  0  0  0  0  0  0  0  0  0  0  0
   47.4650   31.6350   48.1570 C   0  0  0  0  0  0  0  0  0  0  0  0
   46.7300   33.5920   47.7890 H   0  0  0  0  0  0  0  0  0  0  0  0
   47.1270   31.0140   44.4150 H   0  0  0  0  0  0  0  0  0  0  0  0
   48.1070   28.4820   45.0990 H   0  0  0  0  0  0  0  0  0  0  0  0
   48.8280   27.3330   47.2650 H   0  0  0  0  0  0  0  0  0  0  0  0
   47.5650   31.8080   49.2300 H   0  0  0  0  0  0  0  0  0  0  0  0
   46.8900   35.3040   41.9990 O   0  0  0  0  0  0  0  0  0  0  0  0
   46.8410   34.4140   40.9250 C   0  0  0  0  0  0  0  0  0  0  0  0
   48.0660   34.6040   40.4010 C   0  0  0  0  0  0  0  0  0  0  0  0
   48.0480   33.3920   38.9210 S   0  0  0  0  0  0  0  0  0  0  0  0
   46.2870   32.8940   39.3950 C   0  0  0  0  0  0  0  0  0  0  0  0
   46.1240   33.5250   40.2720 N   0  0  0  0  0  0  0  0  0  0  0  0
   49.2320   35.0520   40.2290 H   0  0  0  0  0  0  0  0  0  0  0  0
   45.5020   31.9010   38.6710 N   0  0  0  0  0  0  0  0  0  0  0  0
   45.9900   31.2360   37.4880 C   0  0  0  0  0  3  0  0  0  0  0  0
   46.6690   31.9100   36.8970 H   0  0  0  0  0  0  0  0  0  0  0  0
   44.8780   30.6920   36.6600 C   0  0  0  0  0  3  0  0  0  0  0  0
   44.7280   29.6110   36.9300 H   0  0  0  0  0  0  0  0  0  0  0  0
   43.7130   31.4050   36.6580 O   0  0  0  0  0  0  0  0  0  0  0  0
   43.2810   31.8880   37.8660 C   0  0  0  0  0  2  0  0  0  0  0  0
   44.1730   31.4950   39.0390 C   0  0  0  0  0  2  0  0  0  0  0  0
  1  6  2  0  0  0  0
  1  2  1  0  0  0  0
  2  3  2  0  0  0  0
  3  4  1  0  0  0  0
  3 10  1  0  0  0  0
  5  8  1  0  0  0  0
  5  4  2  0  0  0  0
  6  5  1  0  0  0  0
  7  2  1  0  0  0  0
  9 18  1  0  0  0  0
  9 17  1  0  0  0  0
 10  9  2  0  0  0  0
 11 10  1  0  0  0  0
 11 12  2  0  0  0  0
 12 16  1  0  0  0  0
 13 12  1  0  0  0  0
 13 14  1  0  0  0  0
 14 15  2  0  0  0  0
 16 17  2  0  0  0  0
 16 15  1  0  0  0  0
 17 22  1  0  0  0  0
 19 11  1  0  0  0  0
 20 13  1  0  0  0  0
 21 14  1  0  0  0  0
 23  1  1  0  0  0  0
 24 23  1  0  0  0  0
 25 24  2  0  0  0  0
 26 27  1  0  0  0  0
 26 25  1  0  0  0  0
 27 28  2  0  0  0  0
 28 24  1  0  0  0  0
 29 25  1  0  0  0  0
 30 37  1  0  0  0  0
 30 27  1  0  0  0  0
 31 30  1  0  0  0  0
 32 31  1  0  0  0  0
 33 34  1  0  0  0  0
 33 31  1  0  0  0  0
 35 33  1  0  0  0  0
 35 36  1  0  0  0  0
 36 37  1  0  0  0  0
M  END
>  <minimizedAffinity>
-5.77892733

>  <minimizedRMSD>
3.53046608

$$$$
