
 OpenBabel03252507373D

 37 41  0  0  0  0  0  0  0  0999 V2000
   46.3390   34.9100   43.2380 C   0  0  0  0  0  0  0  0  0  0  0  0
   46.9400   33.8320   43.9380 C   0  0  0  0  0  0  0  0  0  0  0  0
   46.3750   33.4780   45.1530 C   0  0  0  0  0  0  0  0  0  0  0  0
   45.3070   34.1540   45.6090 N   0  0  0  0  0  0  0  0  0  0  0  0
   44.7510   35.1800   44.9240 C   0  0  0  0  0  0  0  0  0  0  0  0
   45.2640   35.5470   43.7550 N   0  0  0  0  0  0  0  0  0  0  0  0
   47.7810   33.2850   43.5990 H   0  0  0  0  0  0  0  0  0  0  0  0
   43.9050   35.6330   45.3980 H   0  0  0  0  0  0  0  0  0  0  0  0
   47.0060   32.6300   47.3480 C   0  0  0  0  0  0  0  0  0  0  0  0
   46.8850   32.3840   45.9870 C   0  0  0  0  0  0  0  0  0  0  0  0
   47.2390   31.1480   45.5170 C   0  0  0  0  0  0  0  0  0  0  0  0
   47.7070   30.1570   46.3530 C   0  0  0  0  0  0  0  0  0  0  0  0
   48.1080   28.8840   46.1080 N   0  0  0  0  0  0  0  0  0  0  0  0
   48.4820   28.3310   47.3190 C   0  0  0  0  0  0  0  0  0  0  0  0
   48.2990   29.2820   48.2690 N   0  0  0  0  0  0  0  0  0  0  0  0
   47.8280   30.3930   47.6880 C   0  0  0  0  0  0  0  0  0  0  0  0
   47.4770   31.6320   48.1910 C   0  0  0  0  0  0  0  0  0  0  0  0
   46.7450   33.5890   47.8140 H   0  0  0  0  0  0  0  0  0  0  0  0
   47.1330   30.9930   44.4520 H   0  0  0  0  0  0  0  0  0  0  0  0
   48.1080   28.4620   45.1480 H   0  0  0  0  0  0  0  0  0  0  0  0
   48.8300   27.3230   47.3200 H   0  0  0  0  0  0  0  0  0  0  0  0
   47.5780   31.8100   49.2630 H   0  0  0  0  0  0  0  0  0  0  0  0
   46.9030   35.2720   42.0150 O   0  0  0  0  0  0  0  0  0  0  0  0
   46.7780   34.4120   40.9220 C   0  0  0  0  0  0  0  0  0  0  0  0
   47.9940   34.5560   40.3640 C   0  0  0  0  0  0  0  0  0  0  0  0
   47.8700   33.3840   38.8560 S   0  0  0  0  0  0  0  0  0  0  0  0
   46.1020   32.9620   39.3730 C   0  0  0  0  0  0  0  0  0  0  0  0
   45.9980   33.5770   40.2710 N   0  0  0  0  0  0  0  0  0  0  0  0
   49.1750   34.9500   40.1670 H   0  0  0  0  0  0  0  0  0  0  0  0
   45.2460   32.0270   38.6510 N   0  0  0  0  0  0  0  0  0  0  0  0
   45.3220   31.8510   37.2210 C   0  0  0  0  0  3  0  0  0  0  0  0
   45.6120   32.8100   36.7110 H   0  0  0  0  0  0  0  0  0  0  0  0
   44.0640   31.2760   36.6660 C   0  0  0  0  0  3  0  0  0  0  0  0
   44.1890   30.1620   36.5830 H   0  0  0  0  0  0  0  0  0  0  0  0
   42.9030   31.6360   37.2890 O   0  0  0  0  0  0  0  0  0  0  0  0
   42.9150   31.6510   38.6600 C   0  0  0  0  0  2  0  0  0  0  0  0
   44.2410   31.2070   39.2690 C   0  0  0  0  0  2  0  0  0  0  0  0
  1  6  2  0  0  0  0
  1  2  1  0  0  0  0
  2  3  2  0  0  0  0
  3  4  1  0  0  0  0
  3 10  1  0  0  0  0
  5  8  1  0  0  0  0
  5  4  2  0  0  0  0
  6  5  1  0  0  0  0
  7  2  1  0  0  0  0
  9 18  1  0  0  0  0
  9 17  1  0  0  0  0
 10  9  2  0  0  0  0
 11 10  1  0  0  0  0
 11 12  2  0  0  0  0
 12 16  1  0  0  0  0
 13 12  1  0  0  0  0
 13 14  1  0  0  0  0
 14 21  1  0  0  0  0
 14 15  2  0  0  0  0
 16 17  2  0  0  0  0
 16 15  1  0  0  0  0
 17 22  1  0  0  0  0
 19 11  1  0  0  0  0
 20 13  1  0  0  0  0
 23  1  1  0  0  0  0
 24 23  1  0  0  0  0
 25 24  2  0  0  0  0
 26 27  1  0  0  0  0
 26 25  1  0  0  0  0
 27 28  2  0  0  0  0
 28 24  1  0  0  0  0
 29 25  1  0  0  0  0
 30 37  1  0  0  0  0
 30 27  1  0  0  0  0
 31 30  1  0  0  0  0
 32 31  1  0  0  0  0
 33 31  1  0  0  0  0
 33 35  1  0  0  0  0
 34 33  1  0  0  0  0
 35 36  1  0  0  0  0
 36 37  1  0  0  0  0
M  END
>  <minimizedAffinity>
-5.79521751

>  <minimizedRMSD>
3.37846065

$$$$
