
 OpenBabel03252506353D

 32 34  0  0  1  0  0  0  0  0999 V2000
   41.8310   32.9250   37.0440 C   0  0  0  0  0  0  0  0  0  0  0  0
   42.7260   33.5350   37.9370 C   0  0  0  0  0  0  0  0  0  0  0  0
   42.4470   33.5220   39.2680 C   0  0  0  0  0  0  0  0  0  0  0  0
   41.3010   32.9070   39.6450 N   0  0  0  0  0  0  0  0  0  0  0  0
   40.4550   32.3300   38.8000 C   0  0  0  0  0  0  0  0  0  0  0  0
   40.7060   32.3300   37.4840 N   0  0  0  0  0  0  0  0  0  0  0  0
   39.2930   31.7140   39.3210 N   0  0  0  0  0  0  0  0  0  0  0  0
   38.4260   30.7960   38.5770 C   0  0  0  0  0  0  0  0  0  0  0  0
   37.0440   31.2200   39.0710 C   0  0  0  0  0  0  0  0  0  0  0  0
   37.2600   32.0790   40.2840 C   0  0  0  0  0  0  0  0  0  0  0  0
   38.7000   31.8140   40.6250 C   0  0  1  0  0  0  0  0  0  0  0  0
   42.0280   32.9170   35.9590 H   0  0  0  0  0  0  0  0  0  0  0  0
   43.1510   33.9980   39.9360 H   0  0  0  0  0  0  0  0  0  0  0  0
   38.6760   29.7660   38.9440 H   0  0  0  0  0  0  0  0  0  0  0  0
   38.5250   30.8920   37.4950 H   0  0  0  0  0  0  0  0  0  0  0  0
   36.3780   30.3720   39.2350 H   0  0  0  0  0  0  0  0  0  0  0  0
   36.6040   31.8860   38.2740 H   0  0  0  0  0  0  0  0  0  0  0  0
   37.0270   33.1500   40.1240 H   0  0  0  0  0  0  0  0  0  0  0  0
   36.6510   31.6560   41.1240 H   0  0  0  0  0  0  0  0  0  0  0  0
   39.0950   32.6900   41.1950 H   0  0  0  0  0  0  0  0  0  0  0  0
   43.8890   34.1350   37.3280 N   0  0  0  0  0  0  0  0  0  0  0  0
   44.2010   35.1210   37.5040 H   0  0  0  0  0  0  0  0  0  0  0  0
   44.5590   33.7040   36.6610 H   0  0  0  0  0  0  0  0  0  0  0  0
   38.8010   30.2850   41.5600 S   0  0  0  0  0  0  0  0  0  0  0  0
   36.3470   29.4300   43.9420 H   0  0  0  0  0  0  0  0  0  0  0  0
   37.3020   29.4010   43.5160 N   0  0  0  0  0  0  0  0  0  0  0  0
   37.1860   29.6560   42.0820 C   0  0  2  0  0  3  0  0  0  0  0  0
   36.8980   28.3710   41.3310 C   0  0  0  0  0  3  0  0  0  0  0  0
   36.3080   28.6670   40.4470 H   0  0  0  0  0  0  0  0  0  0  0  0
   36.1590   27.4690   42.0590 O   0  0  0  0  0  0  0  0  0  0  0  0
   36.6810   27.1230   43.2850 C   0  0  0  0  0  2  0  0  0  0  0  0
   37.8130   28.0480   43.6800 C   0  0  0  0  0  2  0  0  0  0  0  0
  1  6  2  0  0  0  0
  1  2  1  0  0  0  0
  2  3  2  0  0  0  0
  3  4  1  0  0  0  0
  3 13  1  0  0  0  0
  5  7  1  0  0  0  0
  5  4  2  0  0  0  0
  6  5  1  0  0  0  0
  7 11  1  0  0  0  0
  8 14  1  0  0  0  0
  8  9  1  0  0  0  0
  8  7  1  0  0  0  0
  9 16  1  0  0  0  0
  9 10  1  0  0  0  0
 10 11  1  0  0  0  0
 10 19  1  0  0  0  0
 11 20  1  1  0  0  0
 11 24  1  0  0  0  0
 12  1  1  0  0  0  0
 15  8  1  0  0  0  0
 17  9  1  0  0  0  0
 18 10  1  0  0  0  0
 21 22  1  0  0  0  0
 21  2  1  0  0  0  0
 23 21  1  0  0  0  0
 26 32  1  0  0  0  0
 26 25  1  0  0  0  0
 27 24  1  6  0  0  0
 27 26  1  0  0  0  0
 28 30  1  0  0  0  0
 28 27  1  0  0  0  0
 29 28  1  0  0  0  0
 30 31  1  0  0  0  0
 31 32  1  0  0  0  0
M  END
>  <minimizedAffinity>
-5.42516518

$$$$

 OpenBabel03252506353D

 32 34  0  0  1  0  0  0  0  0999 V2000
   36.9410   26.7850   42.5630 C   0  0  0  0  0  0  0  0  0  0  0  0
   37.1410   25.7150   41.6750 C   0  0  0  0  0  0  0  0  0  0  0  0
   37.5670   25.9740   40.4100 C   0  0  0  0  0  0  0  0  0  0  0  0
   37.7750   27.2730   40.0900 N   0  0  0  0  0  0  0  0  0  0  0  0
   37.5860   28.2840   40.9290 C   0  0  0  0  0  0  0  0  0  0  0  0
   37.1660   28.0570   42.1810 N   0  0  0  0  0  0  0  0  0  0  0  0
   37.8460   29.5980   40.4740 N   0  0  0  0  0  0  0  0  0  0  0  0
   37.9720   30.7750   41.3390 C   0  0  0  0  0  0  0  0  0  0  0  0
   37.2700   31.8410   40.5000 C   0  0  0  0  0  0  0  0  0  0  0  0
   37.1210   31.2790   39.1160 C   0  0  0  0  0  0  0  0  0  0  0  0
   38.0440   30.0920   39.1410 C   0  0  1  0  0  0  0  0  0  0  0  0
   36.5980   26.6100   43.5950 H   0  0  0  0  0  0  0  0  0  0  0  0
   37.7130   25.1340   39.7450 H   0  0  0  0  0  0  0  0  0  0  0  0
   39.0700   30.9900   41.4120 H   0  0  0  0  0  0  0  0  0  0  0  0
   37.5040   30.6430   42.3150 H   0  0  0  0  0  0  0  0  0  0  0  0
   37.7760   32.8070   40.5400 H   0  0  0  0  0  0  0  0  0  0  0  0
   36.2290   31.9520   40.9210 H   0  0  0  0  0  0  0  0  0  0  0  0
   36.0770   31.0300   38.8410 H   0  0  0  0  0  0  0  0  0  0  0  0
   37.5640   32.0110   38.3930 H   0  0  0  0  0  0  0  0  0  0  0  0
   37.6970   29.3600   38.3710 H   0  0  0  0  0  0  0  0  0  0  0  0
   36.8610   24.4060   42.2170 N   0  0  0  0  0  0  0  0  0  0  0  0
   36.2350   23.7020   41.7570 H   0  0  0  0  0  0  0  0  0  0  0  0
   37.2200   23.9860   43.0970 H   0  0  0  0  0  0  0  0  0  0  0  0
   39.7210   30.6560   38.8440 S   0  0  0  0  0  0  0  0  0  0  0  0
   40.1280   33.0940   36.3300 H   0  0  0  0  0  0  0  0  0  0  0  0
   40.4120   32.2580   36.8900 N   0  0  0  0  0  0  0  0  0  0  0  0
   39.8060   32.3530   38.2180 C   0  0  2  0  0  3  0  0  0  0  0  0
   40.6800   33.1720   39.1470 C   0  0  0  0  0  3  0  0  0  0  0  0
   39.9890   33.6500   39.8620 H   0  0  0  0  0  0  0  0  0  0  0  0
   41.3840   34.1610   38.5010 O   0  0  0  0  0  0  0  0  0  0  0  0
   42.1740   33.7420   37.4550 C   0  0  0  0  0  2  0  0  0  0  0  0
   41.8560   32.3140   37.0640 C   0  0  0  0  0  2  0  0  0  0  0  0
  1 12  1  0  0  0  0
  2 21  1  0  0  0  0
  2  1  2  0  0  0  0
  3  2  1  0  0  0  0
  4  3  2  0  0  0  0
  4  5  1  0  0  0  0
  5  6  2  0  0  0  0
  6  1  1  0  0  0  0
  7  5  1  0  0  0  0
  7  8  1  0  0  0  0
  8 14  1  0  0  0  0
  8 15  1  0  0  0  0
  9 16  1  0  0  0  0
  9 17  1  0  0  0  0
  9  8  1  0  0  0  0
 10 11  1  0  0  0  0
 10  9  1  0  0  0  0
 11 20  1  6  0  0  0
 11  7  1  0  0  0  0
 13  3  1  0  0  0  0
 18 10  1  0  0  0  0
 19 10  1  0  0  0  0
 21 23  1  0  0  0  0
 22 21  1  0  0  0  0
 24 11  1  0  0  0  0
 25 26  1  0  0  0  0
 26 32  1  0  0  0  0
 26 27  1  0  0  0  0
 27 24  1  1  0  0  0
 27 28  1  0  0  0  0
 28 29  1  0  0  0  0
 30 28  1  0  0  0  0
 31 30  1  0  0  0  0
 32 31  1  0  0  0  0
M  END
>  <minimizedAffinity>
-5.16990232

$$$$

 OpenBabel03252506353D

 32 34  0  0  1  0  0  0  0  0999 V2000
   37.5750   26.3650   42.4740 C   0  0  0  0  0  0  0  0  0  0  0  0
   38.9740   26.3900   42.3530 C   0  0  0  0  0  0  0  0  0  0  0  0
   39.5420   27.1460   41.3770 C   0  0  0  0  0  0  0  0  0  0  0  0
   38.7000   27.8370   40.5720 N   0  0  0  0  0  0  0  0  0  0  0  0
   37.3770   27.8130   40.6860 C   0  0  0  0  0  0  0  0  0  0  0  0
   36.7920   27.0770   41.6400 N   0  0  0  0  0  0  0  0  0  0  0  0
   36.6070   28.5860   39.7860 N   0  0  0  0  0  0  0  0  0  0  0  0
   35.1850   28.9000   39.9550 C   0  0  0  0  0  0  0  0  0  0  0  0
   34.6810   28.7940   38.5170 C   0  0  0  0  0  0  0  0  0  0  0  0
   35.8920   28.7760   37.6300 C   0  0  0  0  0  0  0  0  0  0  0  0
   36.9870   29.2250   38.5580 C   0  0  1  0  0  0  0  0  0  0  0  0
   37.0820   25.7640   43.2560 H   0  0  0  0  0  0  0  0  0  0  0  0
   40.6210   27.1490   41.3030 H   0  0  0  0  0  0  0  0  0  0  0  0
   35.1430   29.9630   40.3100 H   0  0  0  0  0  0  0  0  0  0  0  0
   34.6700   28.2130   40.6260 H   0  0  0  0  0  0  0  0  0  0  0  0
   33.9540   29.5690   38.2690 H   0  0  0  0  0  0  0  0  0  0  0  0
   34.1900   27.7830   38.4190 H   0  0  0  0  0  0  0  0  0  0  0  0
   36.0850   27.7970   37.1500 H   0  0  0  0  0  0  0  0  0  0  0  0
   35.7740   29.5850   36.8630 H   0  0  0  0  0  0  0  0  0  0  0  0
   37.9600   28.8350   38.1700 H   0  0  0  0  0  0  0  0  0  0  0  0
   39.6880   25.5820   43.3130 N   0  0  0  0  0  0  0  0  0  0  0  0
   40.4190   24.8750   43.0560 H   0  0  0  0  0  0  0  0  0  0  0  0
   39.5910   25.5770   44.3480 H   0  0  0  0  0  0  0  0  0  0  0  0
   36.9600   31.0170   38.6620 S   0  0  0  0  0  0  0  0  0  0  0  0
   36.8310   33.2170   41.4140 H   0  0  0  0  0  0  0  0  0  0  0  0
   36.9030   32.9760   40.3990 N   0  0  0  0  0  0  0  0  0  0  0  0
   37.5010   31.6490   40.2700 C   0  0  2  0  0  3  0  0  0  0  0  0
   39.0140   31.7410   40.2730 C   0  0  0  0  0  3  0  0  0  0  0  0
   39.3700   30.7950   40.7150 H   0  0  0  0  0  0  0  0  0  0  0  0
   39.4950   32.7800   41.0350 O   0  0  0  0  0  0  0  0  0  0  0  0
   39.0060   34.0270   40.7180 C   0  0  0  0  0  2  0  0  0  0  0  0
   37.8160   33.9290   39.7860 C   0  0  0  0  0  2  0  0  0  0  0  0
  1 12  1  0  0  0  0
  2  1  1  0  0  0  0
  2 21  1  0  0  0  0
  3  2  2  0  0  0  0
  4  5  2  0  0  0  0
  4  3  1  0  0  0  0
  5  6  1  0  0  0  0
  6  1  2  0  0  0  0
  7  8  1  0  0  0  0
  7  5  1  0  0  0  0
  8 14  1  0  0  0  0
  8 15  1  0  0  0  0
  9  8  1  0  0  0  0
 10  9  1  0  0  0  0
 10 11  1  0  0  0  0
 11 20  1  6  0  0  0
 11 24  1  0  0  0  0
 11  7  1  0  0  0  0
 13  3  1  0  0  0  0
 16  9  1  0  0  0  0
 17  9  1  0  0  0  0
 18 10  1  0  0  0  0
 19 10  1  0  0  0  0
 21 23  1  0  0  0  0
 22 21  1  0  0  0  0
 26 25  1  0  0  0  0
 27 24  1  6  0  0  0
 27 28  1  0  0  0  0
 27 26  1  0  0  0  0
 28 29  1  0  0  0  0
 28 30  1  0  0  0  0
 31 30  1  0  0  0  0
 32 26  1  0  0  0  0
 32 31  1  0  0  0  0
M  END
>  <minimizedAffinity>
-5.03151083

$$$$

 OpenBabel03252506353D

 32 34  0  0  1  0  0  0  0  0999 V2000
   38.8760   32.0510   38.9530 C   0  0  0  0  0  0  0  0  0  0  0  0
   39.5700   31.4530   37.8890 C   0  0  0  0  0  0  0  0  0  0  0  0
   39.8270   30.1190   37.9310 C   0  0  0  0  0  0  0  0  0  0  0  0
   39.3850   29.4460   39.0200 N   0  0  0  0  0  0  0  0  0  0  0  0
   38.7280   30.0120   40.0260 C   0  0  0  0  0  0  0  0  0  0  0  0
   38.4630   31.3250   40.0100 N   0  0  0  0  0  0  0  0  0  0  0  0
   38.3130   29.1970   41.1050 N   0  0  0  0  0  0  0  0  0  0  0  0
   37.3430   29.5940   42.1300 C   0  0  0  0  0  0  0  0  0  0  0  0
   37.9590   28.9750   43.3840 C   0  0  0  0  0  0  0  0  0  0  0  0
   39.0100   28.0070   42.9200 C   0  0  0  0  0  0  0  0  0  0  0  0
   38.7000   27.8600   41.4560 C   0  0  1  0  0  0  0  0  0  0  0  0
   38.6510   33.1300   38.9500 H   0  0  0  0  0  0  0  0  0  0  0  0
   40.3630   29.6810   37.1010 H   0  0  0  0  0  0  0  0  0  0  0  0
   36.3840   29.0780   41.8670 H   0  0  0  0  0  0  0  0  0  0  0  0
   37.2270   30.6750   42.2170 H   0  0  0  0  0  0  0  0  0  0  0  0
   37.2110   28.5410   44.0480 H   0  0  0  0  0  0  0  0  0  0  0  0
   38.4970   29.8050   43.9250 H   0  0  0  0  0  0  0  0  0  0  0  0
   40.0470   28.3340   43.1290 H   0  0  0  0  0  0  0  0  0  0  0  0
   38.7990   27.0120   43.3910 H   0  0  0  0  0  0  0  0  0  0  0  0
   39.6340   27.5460   40.9280 H   0  0  0  0  0  0  0  0  0  0  0  0
   39.9530   32.3490   36.8240 N   0  0  0  0  0  0  0  0  0  0  0  0
   40.9270   32.4250   36.4420 H   0  0  0  0  0  0  0  0  0  0  0  0
   39.3540   33.0190   36.3010 H   0  0  0  0  0  0  0  0  0  0  0  0
   37.3700   26.6710   41.2620 S   0  0  0  0  0  0  0  0  0  0  0  0
   39.6640   24.0500   41.8060 H   0  0  0  0  0  0  0  0  0  0  0  0
   39.2020   24.8000   41.2420 N   0  0  0  0  0  0  0  0  0  0  0  0
   37.8380   24.9880   41.7350 C   0  0  2  0  0  3  0  0  0  0  0  0
   36.8890   24.0120   41.0680 C   0  0  0  0  0  3  0  0  0  0  0  0
   36.0940   23.8170   41.8070 H   0  0  0  0  0  0  0  0  0  0  0  0
   37.4790   22.8130   40.7440 O   0  0  0  0  0  0  0  0  0  0  0  0
   38.6050   22.8970   39.9570 C   0  0  0  0  0  2  0  0  0  0  0  0
   39.1090   24.3230   39.8700 C   0  0  0  0  0  2  0  0  0  0  0  0
  1  6  1  0  0  0  0
  2  3  1  0  0  0  0
  2  1  2  0  0  0  0
  3  4  2  0  0  0  0
  4  5  1  0  0  0  0
  5  7  1  0  0  0  0
  6  5  2  0  0  0  0
  7 11  1  0  0  0  0
  7  8  1  0  0  0  0
  8 15  1  0  0  0  0
  8  9  1  0  0  0  0
  9 17  1  0  0  0  0
  9 16  1  0  0  0  0
 10 18  1  0  0  0  0
 10  9  1  0  0  0  0
 10 19  1  0  0  0  0
 11 20  1  6  0  0  0
 11 10  1  0  0  0  0
 12  1  1  0  0  0  0
 13  3  1  0  0  0  0
 14  8  1  0  0  0  0
 21  2  1  0  0  0  0
 22 21  1  0  0  0  0
 23 21  1  0  0  0  0
 24 11  1  0  0  0  0
 26 27  1  0  0  0  0
 26 25  1  0  0  0  0
 27 24  1  6  0  0  0
 28 27  1  0  0  0  0
 28 29  1  0  0  0  0
 30 28  1  0  0  0  0
 31 30  1  0  0  0  0
 32 31  1  0  0  0  0
 32 26  1  0  0  0  0
M  END
>  <minimizedAffinity>
-5.01982117

$$$$

 OpenBabel03252506353D

 32 34  0  0  1  0  0  0  0  0999 V2000
   36.6030   29.7020   39.7270 C   0  0  0  0  0  0  0  0  0  0  0  0
   36.7920   30.4990   40.8670 C   0  0  0  0  0  0  0  0  0  0  0  0
   37.1940   29.9130   42.0260 C   0  0  0  0  0  0  0  0  0  0  0  0
   37.3870   28.5740   41.9980 N   0  0  0  0  0  0  0  0  0  0  0  0
   37.2090   27.8200   40.9200 C   0  0  0  0  0  0  0  0  0  0  0  0
   36.8130   28.3720   39.7650 N   0  0  0  0  0  0  0  0  0  0  0  0
   37.4520   26.4300   41.0180 N   0  0  0  0  0  0  0  0  0  0  0  0
   37.5860   25.5200   39.8770 C   0  0  0  0  0  0  0  0  0  0  0  0
   36.8630   24.2780   40.3960 C   0  0  0  0  0  0  0  0  0  0  0  0
   36.6920   24.4600   41.8770 C   0  0  0  0  0  0  0  0  0  0  0  0
   37.6220   25.6020   42.1790 C   0  0  1  0  0  0  0  0  0  0  0  0
   36.2790   30.1450   38.7710 H   0  0  0  0  0  0  0  0  0  0  0  0
   37.3330   30.5480   42.8910 H   0  0  0  0  0  0  0  0  0  0  0  0
   38.6840   25.3190   39.7690 H   0  0  0  0  0  0  0  0  0  0  0  0
   37.1380   25.9070   38.9620 H   0  0  0  0  0  0  0  0  0  0  0  0
   37.3640   23.3510   40.1130 H   0  0  0  0  0  0  0  0  0  0  0  0
   35.8290   24.2920   39.9440 H   0  0  0  0  0  0  0  0  0  0  0  0
   35.6450   24.6390   42.1910 H   0  0  0  0  0  0  0  0  0  0  0  0
   37.1170   23.5590   42.3900 H   0  0  0  0  0  0  0  0  0  0  0  0
   37.2660   26.1100   43.1080 H   0  0  0  0  0  0  0  0  0  0  0  0
   36.5310   31.9070   40.6830 N   0  0  0  0  0  0  0  0  0  0  0  0
   35.9000   32.4730   41.3010 H   0  0  0  0  0  0  0  0  0  0  0  0
   36.9080   32.5400   39.9490 H   0  0  0  0  0  0  0  0  0  0  0  0
   39.2910   24.9620   42.3440 S   0  0  0  0  0  0  0  0  0  0  0  0
   40.0790   27.6810   44.4450 H   0  0  0  0  0  0  0  0  0  0  0  0
   39.8850   27.2230   43.5250 N   0  0  0  0  0  0  0  0  0  0  0  0
   40.2620   25.8130   43.6130 C   0  0  2  0  0  3  0  0  0  0  0  0
   41.7340   25.6330   43.3010 C   0  0  0  0  0  3  0  0  0  0  0  0
   42.0580   24.7540   43.8840 H   0  0  0  0  0  0  0  0  0  0  0  0
   42.5060   26.7070   43.6780 O   0  0  0  0  0  0  0  0  0  0  0  0
   42.1220   27.9250   43.1660 C   0  0  0  0  0  2  0  0  0  0  0  0
   40.7480   27.8450   42.5330 C   0  0  0  0  0  2  0  0  0  0  0  0
  1  6  2  0  0  0  0
  1  2  1  0  0  0  0
  2  3  2  0  0  0  0
  3 13  1  0  0  0  0
  4  3  1  0  0  0  0
  5  7  1  0  0  0  0
  5  4  2  0  0  0  0
  6  5  1  0  0  0  0
  7 11  1  0  0  0  0
  8  9  1  0  0  0  0
  8  7  1  0  0  0  0
  9 10  1  0  0  0  0
 10 11  1  0  0  0  0
 10 18  1  0  0  0  0
 10 19  1  0  0  0  0
 11 24  1  0  0  0  0
 11 20  1  1  0  0  0
 12  1  1  0  0  0  0
 14  8  1  0  0  0  0
 15  8  1  0  0  0  0
 16  9  1  0  0  0  0
 17  9  1  0  0  0  0
 21  2  1  0  0  0  0
 21 22  1  0  0  0  0
 23 21  1  0  0  0  0
 26 27  1  0  0  0  0
 26 25  1  0  0  0  0
 27 24  1  6  0  0  0
 28 27  1  0  0  0  0
 28 30  1  0  0  0  0
 28 29  1  0  0  0  0
 31 30  1  0  0  0  0
 32 31  1  0  0  0  0
 32 26  1  0  0  0  0
M  END
>  <minimizedAffinity>
-4.88816977

$$$$

 OpenBabel03252506353D

 32 34  0  0  1  0  0  0  0  0999 V2000
   36.4170   29.4510   35.9090 C   0  0  0  0  0  0  0  0  0  0  0  0
   37.1670   28.2700   35.7860 C   0  0  0  0  0  0  0  0  0  0  0  0
   38.1510   28.0120   36.6880 C   0  0  0  0  0  0  0  0  0  0  0  0
   38.3420   28.9330   37.6620 N   0  0  0  0  0  0  0  0  0  0  0  0
   37.6330   30.0490   37.7790 C   0  0  0  0  0  0  0  0  0  0  0  0
   36.6580   30.3270   36.9030 N   0  0  0  0  0  0  0  0  0  0  0  0
   37.9260   30.9290   38.8470 N   0  0  0  0  0  0  0  0  0  0  0  0
   37.0660   32.0320   39.2850 C   0  0  0  0  0  0  0  0  0  0  0  0
   38.1000   33.1070   39.6150 C   0  0  0  0  0  0  0  0  0  0  0  0
   39.4360   32.4250   39.6700 C   0  0  0  0  0  0  0  0  0  0  0  0
   39.0620   30.9700   39.7250 C   0  0  1  0  0  0  0  0  0  0  0  0
   35.6110   29.6890   35.1960 H   0  0  0  0  0  0  0  0  0  0  0  0
   38.7140   27.0970   36.5730 H   0  0  0  0  0  0  0  0  0  0  0  0
   36.5570   31.6760   40.2180 H   0  0  0  0  0  0  0  0  0  0  0  0
   36.3610   32.3570   38.5200 H   0  0  0  0  0  0  0  0  0  0  0  0
   37.8470   33.6720   40.5130 H   0  0  0  0  0  0  0  0  0  0  0  0
   38.1300   33.8100   38.7330 H   0  0  0  0  0  0  0  0  0  0  0  0
   40.1100   32.6830   38.8300 H   0  0  0  0  0  0  0  0  0  0  0  0
   39.9110   32.6680   40.6560 H   0  0  0  0  0  0  0  0  0  0  0  0
   39.9170   30.3700   39.3260 H   0  0  0  0  0  0  0  0  0  0  0  0
   36.8010   27.4230   34.6760 N   0  0  0  0  0  0  0  0  0  0  0  0
   37.4840   27.0510   33.9720 H   0  0  0  0  0  0  0  0  0  0  0  0
   35.8570   27.0710   34.4200 H   0  0  0  0  0  0  0  0  0  0  0  0
   38.6540   30.5390   41.4190 S   0  0  0  0  0  0  0  0  0  0  0  0
   35.8450   29.1680   43.0500 H   0  0  0  0  0  0  0  0  0  0  0  0
   36.8530   29.4350   42.9670 N   0  0  0  0  0  0  0  0  0  0  0  0
   37.2240   29.4360   41.5530 C   0  0  2  0  0  3  0  0  0  0  0  0
   37.6380   28.0470   41.1070 C   0  0  0  0  0  3  0  0  0  0  0  0
   37.3720   27.9850   40.0380 H   0  0  0  0  0  0  0  0  0  0  0  0
   36.9780   27.0420   41.7740 O   0  0  0  0  0  0  0  0  0  0  0  0
   37.0690   27.0790   43.1470 C   0  0  0  0  0  2  0  0  0  0  0  0
   37.6370   28.4000   43.6240 C   0  0  0  0  0  2  0  0  0  0  0  0
  1  6  1  0  0  0  0
  2  1  2  0  0  0  0
  2  3  1  0  0  0  0
  3  4  2  0  0  0  0
  4  5  1  0  0  0  0
  5  7  1  0  0  0  0
  6  5  2  0  0  0  0
  7  8  1  0  0  0  0
  7 11  1  0  0  0  0
  8  9  1  0  0  0  0
  8 14  1  0  0  0  0
  9 10  1  0  0  0  0
  9 16  1  0  0  0  0
 10 11  1  0  0  0  0
 10 19  1  0  0  0  0
 11 20  1  6  0  0  0
 11 24  1  0  0  0  0
 12  1  1  0  0  0  0
 13  3  1  0  0  0  0
 15  8  1  0  0  0  0
 17  9  1  0  0  0  0
 18 10  1  0  0  0  0
 21  2  1  0  0  0  0
 22 21  1  0  0  0  0
 23 21  1  0  0  0  0
 26 25  1  0  0  0  0
 26 32  1  0  0  0  0
 27 24  1  1  0  0  0
 27 26  1  0  0  0  0
 28 27  1  0  0  0  0
 28 30  1  0  0  0  0
 29 28  1  0  0  0  0
 30 31  1  0  0  0  0
 31 32  1  0  0  0  0
M  END
>  <minimizedAffinity>
-4.82762003

$$$$

 OpenBabel03252506353D

 32 34  0  0  1  0  0  0  0  0999 V2000
   37.3700   31.7940   38.4880 C   0  0  0  0  0  0  0  0  0  0  0  0
   38.2800   31.4530   37.4750 C   0  0  0  0  0  0  0  0  0  0  0  0
   39.1000   30.3830   37.6520 C   0  0  0  0  0  0  0  0  0  0  0  0
   38.9780   29.7080   38.8200 N   0  0  0  0  0  0  0  0  0  0  0  0
   38.1180   30.0310   39.7780 C   0  0  0  0  0  0  0  0  0  0  0  0
   37.2990   31.0800   39.6280 N   0  0  0  0  0  0  0  0  0  0  0  0
   38.0830   29.2400   40.9500 N   0  0  0  0  0  0  0  0  0  0  0  0
   37.0160   29.2770   41.9550 C   0  0  0  0  0  0  0  0  0  0  0  0
   37.8160   29.1350   43.2490 C   0  0  0  0  0  0  0  0  0  0  0  0
   39.1960   28.6880   42.8610 C   0  0  0  0  0  0  0  0  0  0  0  0
   39.0160   28.2600   41.4310 C   0  0  1  0  0  0  0  0  0  0  0  0
   36.6900   32.6540   38.3750 H   0  0  0  0  0  0  0  0  0  0  0  0
   39.7920   30.1400   36.8580 H   0  0  0  0  0  0  0  0  0  0  0  0
   36.3910   28.3630   41.7770 H   0  0  0  0  0  0  0  0  0  0  0  0
   36.4320   30.1970   41.9290 H   0  0  0  0  0  0  0  0  0  0  0  0
   37.3240   28.4900   43.9780 H   0  0  0  0  0  0  0  0  0  0  0  0
   37.9190   30.1710   43.6820 H   0  0  0  0  0  0  0  0  0  0  0  0
   39.9770   29.4610   43.0020 H   0  0  0  0  0  0  0  0  0  0  0  0
   39.4380   27.7610   43.4430 H   0  0  0  0  0  0  0  0  0  0  0  0
   40.0030   28.3360   40.9130 H   0  0  0  0  0  0  0  0  0  0  0  0
   38.2480   32.3030   36.3080 N   0  0  0  0  0  0  0  0  0  0  0  0
   39.0960   32.7600   35.8920 H   0  0  0  0  0  0  0  0  0  0  0  0
   37.4260   32.5770   35.7350 H   0  0  0  0  0  0  0  0  0  0  0  0
   38.3540   26.5920   41.4050 S   0  0  0  0  0  0  0  0  0  0  0  0
   40.0700   23.7050   42.4770 H   0  0  0  0  0  0  0  0  0  0  0  0
   39.6760   24.6660   42.5910 N   0  0  0  0  0  0  0  0  0  0  0  0
   39.6330   25.3160   41.2820 C   0  0  2  0  0  3  0  0  0  0  0  0
   40.9580   25.9830   40.9720 C   0  0  0  0  0  3  0  0  0  0  0  0
   41.0580   25.9510   39.8740 H   0  0  0  0  0  0  0  0  0  0  0  0
   42.0370   25.3320   41.5220 O   0  0  0  0  0  0  0  0  0  0  0  0
   41.9820   25.1360   42.8840 C   0  0  0  0  0  2  0  0  0  0  0  0
   40.5970   25.4240   43.4240 C   0  0  0  0  0  2  0  0  0  0  0  0
  1  6  1  0  0  0  0
  2  3  1  0  0  0  0
  2  1  2  0  0  0  0
  3  4  2  0  0  0  0
  4  5  1  0  0  0  0
  5  7  1  0  0  0  0
  6  5  2  0  0  0  0
  7 11  1  0  0  0  0
  7  8  1  0  0  0  0
  8  9  1  0  0  0  0
  9 17  1  0  0  0  0
  9 16  1  0  0  0  0
 10 18  1  0  0  0  0
 10  9  1  0  0  0  0
 10 19  1  0  0  0  0
 11 20  1  6  0  0  0
 11 10  1  0  0  0  0
 12  1  1  0  0  0  0
 13  3  1  0  0  0  0
 14  8  1  0  0  0  0
 15  8  1  0  0  0  0
 21  2  1  0  0  0  0
 22 21  1  0  0  0  0
 23 21  1  0  0  0  0
 24 11  1  0  0  0  0
 25 26  1  0  0  0  0
 26 32  1  0  0  0  0
 27 24  1  1  0  0  0
 27 26  1  0  0  0  0
 28 27  1  0  0  0  0
 28 30  1  0  0  0  0
 29 28  1  0  0  0  0
 30 31  1  0  0  0  0
 31 32  1  0  0  0  0
M  END
>  <minimizedAffinity>
-4.80960655

$$$$

 OpenBabel03252506353D

 32 34  0  0  1  0  0  0  0  0999 V2000
   37.3700   25.8990   42.2360 C   0  0  0  0  0  0  0  0  0  0  0  0
   38.6840   25.4130   42.1330 C   0  0  0  0  0  0  0  0  0  0  0  0
   39.6650   26.2420   41.6880 C   0  0  0  0  0  0  0  0  0  0  0  0
   39.2980   27.5050   41.3690 N   0  0  0  0  0  0  0  0  0  0  0  0
   38.0560   27.9650   41.4670 C   0  0  0  0  0  0  0  0  0  0  0  0
   37.0710   27.1690   41.9020 N   0  0  0  0  0  0  0  0  0  0  0  0
   37.8030   29.3100   41.1080 N   0  0  0  0  0  0  0  0  0  0  0  0
   36.5770   30.0460   41.4300 C   0  0  0  0  0  0  0  0  0  0  0  0
   36.3690   30.8580   40.1520 C   0  0  0  0  0  0  0  0  0  0  0  0
   37.6510   30.7810   39.3740 C   0  0  0  0  0  0  0  0  0  0  0  0
   38.6220   30.2450   40.3890 C   0  0  1  0  0  0  0  0  0  0  0  0
   36.5520   25.2540   42.5950 H   0  0  0  0  0  0  0  0  0  0  0  0
   40.6680   25.8450   41.6170 H   0  0  0  0  0  0  0  0  0  0  0  0
   36.8360   30.7210   42.2860 H   0  0  0  0  0  0  0  0  0  0  0  0
   35.7300   29.3960   41.6490 H   0  0  0  0  0  0  0  0  0  0  0  0
   36.0250   31.8730   40.3500 H   0  0  0  0  0  0  0  0  0  0  0  0
   35.5880   30.3140   39.5460 H   0  0  0  0  0  0  0  0  0  0  0  0
   37.5840   30.1710   38.4520 H   0  0  0  0  0  0  0  0  0  0  0  0
   37.9800   31.8270   39.1410 H   0  0  0  0  0  0  0  0  0  0  0  0
   39.4550   29.7350   39.8460 H   0  0  0  0  0  0  0  0  0  0  0  0
   38.8610   24.0340   42.5250 N   0  0  0  0  0  0  0  0  0  0  0  0
   39.3370   23.3120   41.9310 H   0  0  0  0  0  0  0  0  0  0  0  0
   38.5610   23.5730   43.4060 H   0  0  0  0  0  0  0  0  0  0  0  0
   39.2000   31.6010   41.4120 S   0  0  0  0  0  0  0  0  0  0  0  0
   41.7660   34.0100   41.2020 H   0  0  0  0  0  0  0  0  0  0  0  0
   40.7970   33.6460   41.0530 N   0  0  0  0  0  0  0  0  0  0  0  0
   40.8520   32.1880   40.9570 C   0  0  2  0  0  3  0  0  0  0  0  0
   41.1470   31.7560   39.5350 C   0  0  0  0  0  3  0  0  0  0  0  0
   41.6950   30.8020   39.6210 H   0  0  0  0  0  0  0  0  0  0  0  0
   41.9400   32.6460   38.8490 O   0  0  0  0  0  0  0  0  0  0  0  0
   41.4740   33.9400   38.7980 C   0  0  0  0  0  2  0  0  0  0  0  0
   40.3310   34.1510   39.7700 C   0  0  0  0  0  2  0  0  0  0  0  0
  1 12  1  0  0  0  0
  2  1  1  0  0  0  0
  2 21  1  0  0  0  0
  3  2  2  0  0  0  0
  4  5  2  0  0  0  0
  4  3  1  0  0  0  0
  5  6  1  0  0  0  0
  6  1  2  0  0  0  0
  7  8  1  0  0  0  0
  7  5  1  0  0  0  0
  8 15  1  0  0  0  0
  8 14  1  0  0  0  0
  9 16  1  0  0  0  0
  9  8  1  0  0  0  0
 10  9  1  0  0  0  0
 10 11  1  0  0  0  0
 11 20  1  6  0  0  0
 11  7  1  0  0  0  0
 11 24  1  0  0  0  0
 13  3  1  0  0  0  0
 17  9  1  0  0  0  0
 18 10  1  0  0  0  0
 19 10  1  0  0  0  0
 21 23  1  0  0  0  0
 22 21  1  0  0  0  0
 26 25  1  0  0  0  0
 27 26  1  0  0  0  0
 27 24  1  6  0  0  0
 28 29  1  0  0  0  0
 28 27  1  0  0  0  0
 30 28  1  0  0  0  0
 31 30  1  0  0  0  0
 31 32  1  0  0  0  0
 32 26  1  0  0  0  0
M  END
>  <minimizedAffinity>
-4.75119448

$$$$

 OpenBabel03252506353D

 32 34  0  0  1  0  0  0  0  0999 V2000
   38.1710   24.5480   39.0140 C   0  0  0  0  0  0  0  0  0  0  0  0
   37.0580   24.7590   38.1850 C   0  0  0  0  0  0  0  0  0  0  0  0
   36.1910   25.7630   38.4820 C   0  0  0  0  0  0  0  0  0  0  0  0
   36.4680   26.5040   39.5810 N   0  0  0  0  0  0  0  0  0  0  0  0
   37.5210   26.3040   40.3650 C   0  0  0  0  0  0  0  0  0  0  0  0
   38.3910   25.3220   40.0950 N   0  0  0  0  0  0  0  0  0  0  0  0
   37.7040   27.1530   41.4810 N   0  0  0  0  0  0  0  0  0  0  0  0
   38.9410   27.2580   42.2610 C   0  0  0  0  0  0  0  0  0  0  0  0
   38.3920   27.3970   43.6800 C   0  0  0  0  0  0  0  0  0  0  0  0
   36.9270   27.7050   43.5520 C   0  0  0  0  0  0  0  0  0  0  0  0
   36.7930   28.0740   42.1010 C   0  0  1  0  0  0  0  0  0  0  0  0
   38.8950   23.7440   38.8010 H   0  0  0  0  0  0  0  0  0  0  0  0
   35.3410   25.9060   37.8290 H   0  0  0  0  0  0  0  0  0  0  0  0
   39.4330   28.2110   41.9350 H   0  0  0  0  0  0  0  0  0  0  0  0
   39.5920   26.3910   42.1530 H   0  0  0  0  0  0  0  0  0  0  0  0
   38.9510   28.1170   44.2780 H   0  0  0  0  0  0  0  0  0  0  0  0
   38.4700   26.3790   44.1590 H   0  0  0  0  0  0  0  0  0  0  0  0
   36.2640   26.8770   43.8670 H   0  0  0  0  0  0  0  0  0  0  0  0
   36.7150   28.6370   44.1380 H   0  0  0  0  0  0  0  0  0  0  0  0
   35.7370   27.8890   41.7860 H   0  0  0  0  0  0  0  0  0  0  0  0
   36.9470   23.8560   37.0640 N   0  0  0  0  0  0  0  0  0  0  0  0
   36.0820   23.3090   36.8350 H   0  0  0  0  0  0  0  0  0  0  0  0
   37.6670   23.6250   36.3510 H   0  0  0  0  0  0  0  0  0  0  0  0
   37.2800   29.7890   41.8910 S   0  0  0  0  0  0  0  0  0  0  0  0
   35.4630   29.9530   38.8740 H   0  0  0  0  0  0  0  0  0  0  0  0
   36.2880   29.7090   39.4680 N   0  0  0  0  0  0  0  0  0  0  0  0
   36.3530   30.6430   40.5910 C   0  0  2  0  0  3  0  0  0  0  0  0
   37.1080   31.8980   40.2000 C   0  0  0  0  0  3  0  0  0  0  0  0
   36.6730   32.7090   40.8080 H   0  0  0  0  0  0  0  0  0  0  0  0
   36.9620   32.2300   38.8730 O   0  0  0  0  0  0  0  0  0  0  0  0
   37.3040   31.2460   37.9730 C   0  0  0  0  0  2  0  0  0  0  0  0
   37.4840   29.9090   38.6630 C   0  0  0  0  0  2  0  0  0  0  0  0
  1  6  1  0  0  0  0
  2  3  1  0  0  0  0
  2  1  2  0  0  0  0
  3  4  2  0  0  0  0
  4  5  1  0  0  0  0
  5  7  1  0  0  0  0
  6  5  2  0  0  0  0
  7 11  1  0  0  0  0
  7  8  1  0  0  0  0
  8  9  1  0  0  0  0
  9 17  1  0  0  0  0
  9 16  1  0  0  0  0
 10  9  1  0  0  0  0
 10 18  1  0  0  0  0
 10 19  1  0  0  0  0
 11 20  1  6  0  0  0
 11 10  1  0  0  0  0
 12  1  1  0  0  0  0
 13  3  1  0  0  0  0
 14  8  1  0  0  0  0
 15  8  1  0  0  0  0
 21  2  1  0  0  0  0
 22 21  1  0  0  0  0
 23 21  1  0  0  0  0
 24 11  1  0  0  0  0
 25 26  1  0  0  0  0
 26 27  1  0  0  0  0
 27 24  1  1  0  0  0
 28 27  1  0  0  0  0
 28 29  1  0  0  0  0
 30 28  1  0  0  0  0
 31 32  1  0  0  0  0
 31 30  1  0  0  0  0
 32 26  1  0  0  0  0
M  END
>  <minimizedAffinity>
-4.6572113

$$$$
