
 OpenBabel03252507393D

 37 41  0  0  0  0  0  0  0  0999 V2000
   36.6940   28.7480   41.8340 C   0  0  0  0  0  0  0  0  0  0  0  0
   37.5120   29.9040   41.7590 C   0  0  0  0  0  0  0  0  0  0  0  0
   37.2240   30.8150   40.7560 C   0  0  0  0  0  0  0  0  0  0  0  0
   36.2050   30.5720   39.9130 N   0  0  0  0  0  0  0  0  0  0  0  0
   35.4380   29.4620   40.0040 C   0  0  0  0  0  0  0  0  0  0  0  0
   35.6830   28.5660   40.9530 N   0  0  0  0  0  0  0  0  0  0  0  0
   38.3190   30.1160   42.4110 H   0  0  0  0  0  0  0  0  0  0  0  0
   34.6610   29.3900   39.2720 H   0  0  0  0  0  0  0  0  0  0  0  0
   37.3080   33.1190   39.9660 C   0  0  0  0  0  0  0  0  0  0  0  0
   37.9800   32.0560   40.5570 C   0  0  0  0  0  0  0  0  0  0  0  0
   39.2890   32.2360   40.9170 C   0  0  0  0  0  0  0  0  0  0  0  0
   39.9440   33.4300   40.7080 C   0  0  0  0  0  0  0  0  0  0  0  0
   41.2140   33.8220   40.9810 N   0  0  0  0  0  0  0  0  0  0  0  0
   41.3390   35.1340   40.5600 C   0  0  0  0  0  0  0  0  0  0  0  0
   40.1420   35.5050   40.0420 N   0  0  0  0  0  0  0  0  0  0  0  0
   39.2910   34.4740   40.1300 C   0  0  0  0  0  0  0  0  0  0  0  0
   37.9680   34.3220   39.7560 C   0  0  0  0  0  0  0  0  0  0  0  0
   36.2590   33.0660   39.6470 H   0  0  0  0  0  0  0  0  0  0  0  0
   39.7800   31.3870   41.3720 H   0  0  0  0  0  0  0  0  0  0  0  0
   41.9210   33.1910   41.4310 H   0  0  0  0  0  0  0  0  0  0  0  0
   42.2820   35.6130   40.6960 H   0  0  0  0  0  0  0  0  0  0  0  0
   37.4540   35.1660   39.2930 H   0  0  0  0  0  0  0  0  0  0  0  0
   36.9790   27.8260   42.8400 O   0  0  0  0  0  0  0  0  0  0  0  0
   38.2980   27.4100   43.0350 C   0  0  0  0  0  0  0  0  0  0  0  0
   38.1990   26.1200   42.6660 C   0  0  0  0  0  0  0  0  0  0  0  0
   39.9950   25.5070   42.9110 S   0  0  0  0  0  0  0  0  0  0  0  0
   40.4720   27.2430   43.4870 C   0  0  0  0  0  0  0  0  0  0  0  0
   39.5110   27.7570   43.4060 N   0  0  0  0  0  0  0  0  0  0  0  0
   37.7100   25.0300   42.2630 H   0  0  0  0  0  0  0  0  0  0  0  0
   41.8220   27.6220   43.8880 N   0  0  0  0  0  0  0  0  0  0  0  0
   42.5860   28.6280   43.1920 C   0  0  0  0  0  3  0  0  0  0  0  0
   42.3350   28.6390   42.0970 H   0  0  0  0  0  0  0  0  0  0  0  0
   44.0490   28.4780   43.4350 C   0  0  0  0  0  3  0  0  0  0  0  0
   44.3420   29.1620   44.2770 H   0  0  0  0  0  0  0  0  0  0  0  0
   44.5130   27.2040   43.5990 O   0  0  0  0  0  0  0  0  0  0  0  0
   43.7610   26.3680   44.3840 C   0  0  0  0  0  2  0  0  0  0  0  0
   42.5310   27.0350   44.9920 C   0  0  0  0  0  2  0  0  0  0  0  0
  1 23  1  0  0  0  0
  2  1  1  0  0  0  0
  2  7  1  0  0  0  0
  3  2  2  0  0  0  0
  4  5  2  0  0  0  0
  4  3  1  0  0  0  0
  5  6  1  0  0  0  0
  6  1  2  0  0  0  0
  8  5  1  0  0  0  0
  9 10  1  0  0  0  0
 10  3  1  0  0  0  0
 10 11  2  0  0  0  0
 11 19  1  0  0  0  0
 12 11  1  0  0  0  0
 12 13  1  0  0  0  0
 13 20  1  0  0  0  0
 14 21  1  0  0  0  0
 14 13  1  0  0  0  0
 15 16  1  0  0  0  0
 15 14  2  0  0  0  0
 16 12  2  0  0  0  0
 17  9  2  0  0  0  0
 17 16  1  0  0  0  0
 18  9  1  0  0  0  0
 22 17  1  0  0  0  0
 23 24  1  0  0  0  0
 24 28  1  0  0  0  0
 25 26  1  0  0  0  0
 25 24  2  0  0  0  0
 26 27  1  0  0  0  0
 27 30  1  0  0  0  0
 28 27  2  0  0  0  0
 29 25  1  0  0  0  0
 30 37  1  0  0  0  0
 31 33  1  0  0  0  0
 31 30  1  0  0  0  0
 32 31  1  0  0  0  0
 33 35  1  0  0  0  0
 33 34  1  0  0  0  0
 35 36  1  0  0  0  0
 36 37  1  0  0  0  0
M  END
>  <minimizedAffinity>
-6.70652342

$$$$

 OpenBabel03252507393D

 37 41  0  0  0  0  0  0  0  0999 V2000
   38.4060   33.7260   39.9520 C   0  0  0  0  0  0  0  0  0  0  0  0
   39.5490   33.0660   39.4330 C   0  0  0  0  0  0  0  0  0  0  0  0
   40.7340   33.7840   39.4110 C   0  0  0  0  0  0  0  0  0  0  0  0
   40.7520   35.0460   39.8720 N   0  0  0  0  0  0  0  0  0  0  0  0
   39.6490   35.6560   40.3630 C   0  0  0  0  0  0  0  0  0  0  0  0
   38.4950   34.9990   40.4010 N   0  0  0  0  0  0  0  0  0  0  0  0
   39.5590   32.0730   39.0650 H   0  0  0  0  0  0  0  0  0  0  0  0
   39.7990   36.6610   40.6960 H   0  0  0  0  0  0  0  0  0  0  0  0
   42.3380   31.9520   39.3180 C   0  0  0  0  0  0  0  0  0  0  0  0
   41.9970   33.2340   38.9060 C   0  0  0  0  0  0  0  0  0  0  0  0
   42.8500   33.8920   38.0610 C   0  0  0  0  0  0  0  0  0  0  0  0
   44.0210   33.3180   37.6160 C   0  0  0  0  0  0  0  0  0  0  0  0
   44.9950   33.7790   36.7920 N   0  0  0  0  0  0  0  0  0  0  0  0
   45.9490   32.7830   36.6860 C   0  0  0  0  0  0  0  0  0  0  0  0
   45.5300   31.7430   37.4490 N   0  0  0  0  0  0  0  0  0  0  0  0
   44.3600   32.0620   38.0160 C   0  0  0  0  0  0  0  0  0  0  0  0
   43.5170   31.3730   38.8690 C   0  0  0  0  0  0  0  0  0  0  0  0
   41.7150   31.3490   39.9920 H   0  0  0  0  0  0  0  0  0  0  0  0
   42.5530   34.8880   37.7630 H   0  0  0  0  0  0  0  0  0  0  0  0
   44.9650   34.7300   36.3500 H   0  0  0  0  0  0  0  0  0  0  0  0
   46.8000   32.9720   36.0700 H   0  0  0  0  0  0  0  0  0  0  0  0
   43.7990   30.3670   39.1840 H   0  0  0  0  0  0  0  0  0  0  0  0
   37.2100   33.0090   39.9760 O   0  0  0  0  0  0  0  0  0  0  0  0
   37.2260   31.6620   40.3430 C   0  0  0  0  0  0  0  0  0  0  0  0
   36.6880   31.1080   39.2410 C   0  0  0  0  0  0  0  0  0  0  0  0
   36.6950   29.2490   39.6980 S   0  0  0  0  0  0  0  0  0  0  0  0
   37.4660   29.6980   41.3640 C   0  0  0  0  0  0  0  0  0  0  0  0
   37.5380   30.7850   41.2710 N   0  0  0  0  0  0  0  0  0  0  0  0
   36.1750   30.9910   38.0950 H   0  0  0  0  0  0  0  0  0  0  0  0
   37.8190   28.7180   42.3850 N   0  0  0  0  0  0  0  0  0  0  0  0
   39.1740   28.5190   42.8370 C   0  0  0  0  0  3  0  0  0  0  0  0
   39.9080   28.7080   42.0070 H   0  0  0  0  0  0  0  0  0  0  0  0
   39.3580   27.1770   43.4590 C   0  0  0  0  0  3  0  0  0  0  0  0
   39.2430   27.2810   44.5720 H   0  0  0  0  0  0  0  0  0  0  0  0
   38.6140   26.1560   42.9400 O   0  0  0  0  0  0  0  0  0  0  0  0
   37.2990   26.4300   42.6600 C   0  0  0  0  0  2  0  0  0  0  0  0
   36.8730   27.8480   43.0290 C   0  0  0  0  0  2  0  0  0  0  0  0
  1 23  1  0  0  0  0
  1  6  1  0  0  0  0
  2  1  2  0  0  0  0
  3  2  1  0  0  0  0
  3  4  2  0  0  0  0
  4  5  1  0  0  0  0
  5  6  2  0  0  0  0
  5  8  1  0  0  0  0
  7  2  1  0  0  0  0
  9 18  1  0  0  0  0
 10  9  1  0  0  0  0
 10  3  1  0  0  0  0
 11 10  2  0  0  0  0
 12 16  2  0  0  0  0
 12 11  1  0  0  0  0
 13 12  1  0  0  0  0
 14 13  1  0  0  0  0
 14 15  2  0  0  0  0
 15 16  1  0  0  0  0
 16 17  1  0  0  0  0
 17 22  1  0  0  0  0
 17  9  2  0  0  0  0
 19 11  1  0  0  0  0
 20 13  1  0  0  0  0
 21 14  1  0  0  0  0
 23 24  1  0  0  0  0
 24 28  1  0  0  0  0
 25 26  1  0  0  0  0
 25 24  2  0  0  0  0
 26 27  1  0  0  0  0
 27 30  1  0  0  0  0
 28 27  2  0  0  0  0
 29 25  1  0  0  0  0
 30 31  1  0  0  0  0
 30 37  1  0  0  0  0
 31 33  1  0  0  0  0
 32 31  1  0  0  0  0
 33 34  1  0  0  0  0
 35 33  1  0  0  0  0
 36 35  1  0  0  0  0
 36 37  1  0  0  0  0
M  END
>  <minimizedAffinity>
-6.67818022

$$$$

 OpenBabel03252507393D

 37 41  0  0  0  0  0  0  0  0999 V2000
   37.0320   31.1060   40.7030 C   0  0  0  0  0  0  0  0  0  0  0  0
   38.1260   30.5190   41.3910 C   0  0  0  0  0  0  0  0  0  0  0  0
   37.9640   29.2170   41.8340 C   0  0  0  0  0  0  0  0  0  0  0  0
   36.8060   28.5760   41.6010 N   0  0  0  0  0  0  0  0  0  0  0  0
   35.7760   29.1560   40.9430 C   0  0  0  0  0  0  0  0  0  0  0  0
   35.8940   30.4040   40.5010 N   0  0  0  0  0  0  0  0  0  0  0  0
   39.0470   31.0040   41.5870 H   0  0  0  0  0  0  0  0  0  0  0  0
   34.9110   28.5380   40.8240 H   0  0  0  0  0  0  0  0  0  0  0  0
   38.6120   27.3450   43.2540 C   0  0  0  0  0  0  0  0  0  0  0  0
   39.0070   28.4800   42.5570 C   0  0  0  0  0  0  0  0  0  0  0  0
   40.3300   28.8300   42.5840 C   0  0  0  0  0  0  0  0  0  0  0  0
   41.2650   28.0920   43.2780 C   0  0  0  0  0  0  0  0  0  0  0  0
   42.6020   28.2510   43.4390 N   0  0  0  0  0  0  0  0  0  0  0  0
   43.0470   27.2150   44.2390 C   0  0  0  0  0  0  0  0  0  0  0  0
   41.9680   26.4510   44.5430 N   0  0  0  0  0  0  0  0  0  0  0  0
   40.8830   26.9790   43.9630 C   0  0  0  0  0  0  0  0  0  0  0  0
   39.5530   26.6010   43.9530 C   0  0  0  0  0  0  0  0  0  0  0  0
   37.5740   26.9880   43.2870 H   0  0  0  0  0  0  0  0  0  0  0  0
   40.6000   29.7190   42.0320 H   0  0  0  0  0  0  0  0  0  0  0  0
   43.1370   29.0430   43.0060 H   0  0  0  0  0  0  0  0  0  0  0  0
   44.0870   27.1780   44.4740 H   0  0  0  0  0  0  0  0  0  0  0  0
   39.2580   25.7070   44.5050 H   0  0  0  0  0  0  0  0  0  0  0  0
   37.1880   32.4170   40.2550 O   0  0  0  0  0  0  0  0  0  0  0  0
   38.4600   32.8760   39.9070 C   0  0  0  0  0  0  0  0  0  0  0  0
   38.4500   34.0830   40.5010 C   0  0  0  0  0  0  0  0  0  0  0  0
   40.1870   34.7500   40.0540 S   0  0  0  0  0  0  0  0  0  0  0  0
   40.5240   33.1450   39.1160 C   0  0  0  0  0  0  0  0  0  0  0  0
   39.5830   32.6120   39.2750 N   0  0  0  0  0  0  0  0  0  0  0  0
   38.0580   35.0820   41.1630 H   0  0  0  0  0  0  0  0  0  0  0  0
   41.7760   32.8550   38.4260 N   0  0  0  0  0  0  0  0  0  0  0  0
   42.6320   31.7550   38.7960 C   0  0  0  0  0  3  0  0  0  0  0  0
   42.5760   31.5540   39.9000 H   0  0  0  0  0  0  0  0  0  0  0  0
   44.0320   31.9620   38.3300 C   0  0  0  0  0  3  0  0  0  0  0  0
   44.1620   31.4350   37.3460 H   0  0  0  0  0  0  0  0  0  0  0  0
   44.4830   33.2510   38.3070 O   0  0  0  0  0  0  0  0  0  0  0  0
   43.6220   34.2000   37.8190 C   0  0  0  0  0  2  0  0  0  0  0  0
   42.2920   33.6310   37.3310 C   0  0  0  0  0  2  0  0  0  0  0  0
  1  2  1  0  0  0  0
  2  7  1  0  0  0  0
  2  3  2  0  0  0  0
  3 10  1  0  0  0  0
  4  3  1  0  0  0  0
  5  4  2  0  0  0  0
  6  1  2  0  0  0  0
  6  5  1  0  0  0  0
  8  5  1  0  0  0  0
  9 18  1  0  0  0  0
  9 17  1  0  0  0  0
 10 11  1  0  0  0  0
 10  9  2  0  0  0  0
 11 12  2  0  0  0  0
 12 13  1  0  0  0  0
 12 16  1  0  0  0  0
 13 14  1  0  0  0  0
 14 21  1  0  0  0  0
 14 15  2  0  0  0  0
 16 15  1  0  0  0  0
 17 16  2  0  0  0  0
 17 22  1  0  0  0  0
 19 11  1  0  0  0  0
 20 13  1  0  0  0  0
 23  1  1  0  0  0  0
 24 23  1  0  0  0  0
 24 25  2  0  0  0  0
 25 29  1  0  0  0  0
 26 25  1  0  0  0  0
 27 28  2  0  0  0  0
 27 26  1  0  0  0  0
 28 24  1  0  0  0  0
 30 31  1  0  0  0  0
 30 27  1  0  0  0  0
 31 32  1  0  0  0  0
 33 31  1  0  0  0  0
 34 33  1  0  0  0  0
 35 33  1  0  0  0  0
 36 35  1  0  0  0  0
 37 36  1  0  0  0  0
 37 30  1  0  0  0  0
M  END
>  <minimizedAffinity>
-6.59892845

$$$$

 OpenBabel03252507393D

 37 41  0  0  0  0  0  0  0  0999 V2000
   37.0230   29.0250   42.0600 C   0  0  0  0  0  0  0  0  0  0  0  0
   36.8920   27.8830   41.2290 C   0  0  0  0  0  0  0  0  0  0  0  0
   37.2940   26.6680   41.7620 C   0  0  0  0  0  0  0  0  0  0  0  0
   37.7800   26.6230   43.0150 N   0  0  0  0  0  0  0  0  0  0  0  0
   37.8950   27.7260   43.7890 C   0  0  0  0  0  0  0  0  0  0  0  0
   37.5200   28.9080   43.3130 N   0  0  0  0  0  0  0  0  0  0  0  0
   36.5140   27.8940   40.2410 H   0  0  0  0  0  0  0  0  0  0  0  0
   38.2970   27.5520   44.7650 H   0  0  0  0  0  0  0  0  0  0  0  0
   36.4860   25.4030   39.8430 C   0  0  0  0  0  0  0  0  0  0  0  0
   37.2160   25.4030   41.0250 C   0  0  0  0  0  0  0  0  0  0  0  0
   37.8140   24.2350   41.4170 C   0  0  0  0  0  0  0  0  0  0  0  0
   37.7080   23.0780   40.6760 C   0  0  0  0  0  0  0  0  0  0  0  0
   38.2080   21.8320   40.8730 N   0  0  0  0  0  0  0  0  0  0  0  0
   37.7910   21.0490   39.8120 C   0  0  0  0  0  0  0  0  0  0  0  0
   37.0480   21.8400   38.9980 N   0  0  0  0  0  0  0  0  0  0  0  0
   36.9940   23.0730   39.5180 C   0  0  0  0  0  0  0  0  0  0  0  0
   36.3790   24.2380   39.0960 C   0  0  0  0  0  0  0  0  0  0  0  0
   35.9750   26.2920   39.4500 H   0  0  0  0  0  0  0  0  0  0  0  0
   38.3720   24.2720   42.3420 H   0  0  0  0  0  0  0  0  0  0  0  0
   38.7980   21.5790   41.7030 H   0  0  0  0  0  0  0  0  0  0  0  0
   38.0930   20.0270   39.7980 H   0  0  0  0  0  0  0  0  0  0  0  0
   35.8090   24.2220   38.1660 H   0  0  0  0  0  0  0  0  0  0  0  0
   36.6220   30.2510   41.5290 O   0  0  0  0  0  0  0  0  0  0  0  0
   37.4850   30.9440   40.6770 C   0  0  0  0  0  0  0  0  0  0  0  0
   36.7000   31.0680   39.5910 C   0  0  0  0  0  0  0  0  0  0  0  0
   37.8450   32.0230   38.3920 S   0  0  0  0  0  0  0  0  0  0  0  0
   39.1840   32.0210   39.7250 C   0  0  0  0  0  0  0  0  0  0  0  0
   38.6740   31.4850   40.5290 N   0  0  0  0  0  0  0  0  0  0  0  0
   35.7030   30.9750   38.8240 H   0  0  0  0  0  0  0  0  0  0  0  0
   40.4980   32.6330   39.5570 N   0  0  0  0  0  0  0  0  0  0  0  0
   40.9580   33.7260   40.3780 C   0  0  0  0  0  3  0  0  0  0  0  0
   40.1020   34.3840   40.6900 H   0  0  0  0  0  0  0  0  0  0  0  0
   42.0490   34.4950   39.7150 C   0  0  0  0  0  3  0  0  0  0  0  0
   43.0360   34.1020   40.0830 H   0  0  0  0  0  0  0  0  0  0  0  0
   41.9880   34.5910   38.3540 O   0  0  0  0  0  0  0  0  0  0  0  0
   41.6570   33.4510   37.6680 C   0  0  0  0  0  2  0  0  0  0  0  0
   41.4540   32.2310   38.5620 C   0  0  0  0  0  2  0  0  0  0  0  0
  1  6  1  0  0  0  0
  2  3  1  0  0  0  0
  2  1  2  0  0  0  0
  3  4  2  0  0  0  0
  4  5  1  0  0  0  0
  5  8  1  0  0  0  0
  6  5  2  0  0  0  0
  7  2  1  0  0  0  0
  9 10  1  0  0  0  0
 10 11  2  0  0  0  0
 10  3  1  0  0  0  0
 11 19  1  0  0  0  0
 12 13  1  0  0  0  0
 12 11  1  0  0  0  0
 13 20  1  0  0  0  0
 14 13  1  0  0  0  0
 15 16  1  0  0  0  0
 15 14  2  0  0  0  0
 16 12  2  0  0  0  0
 17 16  1  0  0  0  0
 17  9  2  0  0  0  0
 18  9  1  0  0  0  0
 21 14  1  0  0  0  0
 22 17  1  0  0  0  0
 23  1  1  0  0  0  0
 24 23  1  0  0  0  0
 25 24  2  0  0  0  0
 26 25  1  0  0  0  0
 26 27  1  0  0  0  0
 27 28  2  0  0  0  0
 28 24  1  0  0  0  0
 29 25  1  0  0  0  0
 30 27  1  0  0  0  0
 30 31  1  0  0  0  0
 31 32  1  0  0  0  0
 33 34  1  0  0  0  0
 33 31  1  0  0  0  0
 35 33  1  0  0  0  0
 36 35  1  0  0  0  0
 36 37  1  0  0  0  0
 37 30  1  0  0  0  0
M  END
>  <minimizedAffinity>
-6.48590946

$$$$

 OpenBabel03252507393D

 37 41  0  0  0  0  0  0  0  0999 V2000
   38.1100   31.9390   40.2360 C   0  0  0  0  0  0  0  0  0  0  0  0
   38.9540   31.0000   40.8830 C   0  0  0  0  0  0  0  0  0  0  0  0
   38.3360   29.9760   41.5810 C   0  0  0  0  0  0  0  0  0  0  0  0
   36.9940   29.9140   41.6180 N   0  0  0  0  0  0  0  0  0  0  0  0
   36.2090   30.8220   40.9940 C   0  0  0  0  0  0  0  0  0  0  0  0
   36.7650   31.8180   40.3130 N   0  0  0  0  0  0  0  0  0  0  0  0
   40.0130   31.0290   40.8680 H   0  0  0  0  0  0  0  0  0  0  0  0
   35.1570   30.6580   41.1020 H   0  0  0  0  0  0  0  0  0  0  0  0
   38.3380   28.0530   43.0790 C   0  0  0  0  0  0  0  0  0  0  0  0
   39.0780   28.9310   42.2960 C   0  0  0  0  0  0  0  0  0  0  0  0
   40.4350   28.7610   42.2390 C   0  0  0  0  0  0  0  0  0  0  0  0
   41.0740   27.7550   42.9310 C   0  0  0  0  0  0  0  0  0  0  0  0
   42.3830   27.4100   43.0170 N   0  0  0  0  0  0  0  0  0  0  0  0
   42.4650   26.3130   43.8550 C   0  0  0  0  0  0  0  0  0  0  0  0
   41.2030   26.0210   44.2570 N   0  0  0  0  0  0  0  0  0  0  0  0
   40.3540   26.8930   43.6990 C   0  0  0  0  0  0  0  0  0  0  0  0
   38.9810   27.0390   43.7750 C   0  0  0  0  0  0  0  0  0  0  0  0
   37.2470   28.1110   43.1830 H   0  0  0  0  0  0  0  0  0  0  0  0
   40.9780   29.4640   41.6210 H   0  0  0  0  0  0  0  0  0  0  0  0
   43.1430   27.9270   42.5110 H   0  0  0  0  0  0  0  0  0  0  0  0
   43.4300   25.9000   44.0420 H   0  0  0  0  0  0  0  0  0  0  0  0
   38.4140   26.3420   44.3950 H   0  0  0  0  0  0  0  0  0  0  0  0
   38.7250   32.9740   39.5330 O   0  0  0  0  0  0  0  0  0  0  0  0
   39.8960   33.5440   40.0370 C   0  0  0  0  0  0  0  0  0  0  0  0
   39.5270   34.8370   40.0960 C   0  0  0  0  0  0  0  0  0  0  0  0
   41.1070   35.6610   40.7930 S   0  0  0  0  0  0  0  0  0  0  0  0
   41.9320   33.9610   40.8360 C   0  0  0  0  0  0  0  0  0  0  0  0
   41.1270   33.3310   40.4500 N   0  0  0  0  0  0  0  0  0  0  0  0
   38.8280   35.8820   39.9990 H   0  0  0  0  0  0  0  0  0  0  0  0
   43.2950   33.7320   41.3040 N   0  0  0  0  0  0  0  0  0  0  0  0
   43.5960   32.9020   42.4440 C   0  0  0  0  0  3  0  0  0  0  0  0
   42.7740   32.9530   43.2080 H   0  0  0  0  0  0  0  0  0  0  0  0
   44.9290   33.2250   43.0260 C   0  0  0  0  0  3  0  0  0  0  0  0
   45.6870   32.5150   42.5960 H   0  0  0  0  0  0  0  0  0  0  0  0
   45.3240   34.5310   42.9600 O   0  0  0  0  0  0  0  0  0  0  0  0
   45.0940   35.1870   41.7780 C   0  0  0  0  0  2  0  0  0  0  0  0
   44.4640   34.3110   40.7000 C   0  0  0  0  0  2  0  0  0  0  0  0
  1  6  2  0  0  0  0
  1  2  1  0  0  0  0
  2  3  2  0  0  0  0
  3  4  1  0  0  0  0
  3 10  1  0  0  0  0
  5  8  1  0  0  0  0
  5  4  2  0  0  0  0
  6  5  1  0  0  0  0
  7  2  1  0  0  0  0
  9 18  1  0  0  0  0
  9 17  1  0  0  0  0
 10  9  2  0  0  0  0
 11 10  1  0  0  0  0
 11 12  2  0  0  0  0
 12 13  1  0  0  0  0
 12 16  1  0  0  0  0
 13 14  1  0  0  0  0
 14 21  1  0  0  0  0
 14 15  2  0  0  0  0
 16 17  2  0  0  0  0
 16 15  1  0  0  0  0
 17 22  1  0  0  0  0
 19 11  1  0  0  0  0
 20 13  1  0  0  0  0
 23 24  1  0  0  0  0
 23  1  1  0  0  0  0
 24 25  2  0  0  0  0
 24 28  1  0  0  0  0
 25 26  1  0  0  0  0
 26 27  1  0  0  0  0
 27 30  1  0  0  0  0
 28 27  2  0  0  0  0
 29 25  1  0  0  0  0
 30 31  1  0  0  0  0
 31 33  1  0  0  0  0
 31 32  1  0  0  0  0
 34 33  1  0  0  0  0
 35 33  1  0  0  0  0
 36 35  1  0  0  0  0
 37 30  1  0  0  0  0
 37 36  1  0  0  0  0
M  END
>  <minimizedAffinity>
-6.38069534

$$$$

 OpenBabel03252507393D

 37 41  0  0  0  0  0  0  0  0999 V2000
   36.9380   28.7170   41.7980 C   0  0  0  0  0  0  0  0  0  0  0  0
   37.7530   29.8710   41.6670 C   0  0  0  0  0  0  0  0  0  0  0  0
   37.2890   30.8770   40.8340 C   0  0  0  0  0  0  0  0  0  0  0  0
   36.1150   30.7230   40.1990 N   0  0  0  0  0  0  0  0  0  0  0  0
   35.3540   29.6130   40.3400 C   0  0  0  0  0  0  0  0  0  0  0  0
   35.7650   28.6270   41.1300 N   0  0  0  0  0  0  0  0  0  0  0  0
   38.6810   30.0140   42.1560 H   0  0  0  0  0  0  0  0  0  0  0  0
   34.4430   29.6170   39.7790 H   0  0  0  0  0  0  0  0  0  0  0  0
   37.3360   33.1500   39.9570 C   0  0  0  0  0  0  0  0  0  0  0  0
   38.0200   32.1280   40.6020 C   0  0  0  0  0  0  0  0  0  0  0  0
   39.3160   32.3530   40.9810 C   0  0  0  0  0  0  0  0  0  0  0  0
   39.9470   33.5550   40.7400 C   0  0  0  0  0  0  0  0  0  0  0  0
   41.2020   33.9880   41.0230 N   0  0  0  0  0  0  0  0  0  0  0  0
   41.3050   35.2840   40.5540 C   0  0  0  0  0  0  0  0  0  0  0  0
   40.1100   35.6060   39.9980 N   0  0  0  0  0  0  0  0  0  0  0  0
   39.2820   34.5590   40.1080 C   0  0  0  0  0  0  0  0  0  0  0  0
   37.9710   34.3600   39.7140 C   0  0  0  0  0  0  0  0  0  0  0  0
   36.2950   33.0600   39.6190 H   0  0  0  0  0  0  0  0  0  0  0  0
   39.8170   31.5350   41.4800 H   0  0  0  0  0  0  0  0  0  0  0  0
   41.9130   33.3910   41.5110 H   0  0  0  0  0  0  0  0  0  0  0  0
   42.2330   35.7910   40.6900 H   0  0  0  0  0  0  0  0  0  0  0  0
   37.4470   35.1730   39.2080 H   0  0  0  0  0  0  0  0  0  0  0  0
   37.3990   27.7000   42.6330 O   0  0  0  0  0  0  0  0  0  0  0  0
   37.7580   26.4700   42.0800 C   0  0  0  0  0  0  0  0  0  0  0  0
   38.7490   26.1110   42.9170 C   0  0  0  0  0  0  0  0  0  0  0  0
   39.2700   24.4160   42.1980 S   0  0  0  0  0  0  0  0  0  0  0  0
   37.9490   24.6160   40.8620 C   0  0  0  0  0  0  0  0  0  0  0  0
   37.5260   25.5860   41.1340 N   0  0  0  0  0  0  0  0  0  0  0  0
   39.5730   26.1430   43.8700 H   0  0  0  0  0  0  0  0  0  0  0  0
   37.6910   23.6260   39.8210 N   0  0  0  0  0  0  0  0  0  0  0  0
   36.4260   22.9460   39.6910 C   0  0  0  0  0  3  0  0  0  0  0  0
   35.9430   22.7990   40.6950 H   0  0  0  0  0  0  0  0  0  0  0  0
   36.5610   21.6680   38.9370 C   0  0  0  0  0  3  0  0  0  0  0  0
   36.3080   21.8630   37.8590 H   0  0  0  0  0  0  0  0  0  0  0  0
   37.7330   20.9860   39.0940 O   0  0  0  0  0  0  0  0  0  0  0  0
   38.8860   21.7280   39.0800 C   0  0  0  0  0  2  0  0  0  0  0  0
   38.6570   23.2170   38.8390 C   0  0  0  0  0  2  0  0  0  0  0  0
  1 23  1  0  0  0  0
  2  1  1  0  0  0  0
  2  7  1  0  0  0  0
  3  2  2  0  0  0  0
  4  5  2  0  0  0  0
  4  3  1  0  0  0  0
  5  6  1  0  0  0  0
  6  1  2  0  0  0  0
  8  5  1  0  0  0  0
  9 10  1  0  0  0  0
 10  3  1  0  0  0  0
 10 11  2  0  0  0  0
 11 19  1  0  0  0  0
 12 11  1  0  0  0  0
 12 13  1  0  0  0  0
 13 20  1  0  0  0  0
 14 21  1  0  0  0  0
 14 13  1  0  0  0  0
 15 16  1  0  0  0  0
 15 14  2  0  0  0  0
 16 12  2  0  0  0  0
 17  9  2  0  0  0  0
 17 16  1  0  0  0  0
 18  9  1  0  0  0  0
 22 17  1  0  0  0  0
 24 23  1  0  0  0  0
 24 25  2  0  0  0  0
 25 29  1  0  0  0  0
 26 25  1  0  0  0  0
 27 28  2  0  0  0  0
 27 26  1  0  0  0  0
 28 24  1  0  0  0  0
 30 27  1  0  0  0  0
 31 30  1  0  0  0  0
 31 32  1  0  0  0  0
 33 35  1  0  0  0  0
 33 31  1  0  0  0  0
 34 33  1  0  0  0  0
 36 35  1  0  0  0  0
 37 36  1  0  0  0  0
 37 30  1  0  0  0  0
M  END
>  <minimizedAffinity>
-6.32573557

$$$$

 OpenBabel03252507393D

 37 41  0  0  0  0  0  0  0  0999 V2000
   37.4440   31.8220   39.8090 C   0  0  0  0  0  0  0  0  0  0  0  0
   37.4930   30.6240   40.5670 C   0  0  0  0  0  0  0  0  0  0  0  0
   37.1900   29.4470   39.9020 C   0  0  0  0  0  0  0  0  0  0  0  0
   36.8710   29.4860   38.5970 N   0  0  0  0  0  0  0  0  0  0  0  0
   36.8320   30.6420   37.8940 C   0  0  0  0  0  0  0  0  0  0  0  0
   37.1160   31.7910   38.4970 N   0  0  0  0  0  0  0  0  0  0  0  0
   37.7400   30.5690   41.5950 H   0  0  0  0  0  0  0  0  0  0  0  0
   36.5640   30.5340   36.8640 H   0  0  0  0  0  0  0  0  0  0  0  0
   36.9150   28.0960   41.9110 C   0  0  0  0  0  0  0  0  0  0  0  0
   37.2010   28.1320   40.5520 C   0  0  0  0  0  0  0  0  0  0  0  0
   37.4660   26.9500   39.9140 C   0  0  0  0  0  0  0  0  0  0  0  0
   37.4550   25.7440   40.5800 C   0  0  0  0  0  0  0  0  0  0  0  0
   37.6840   24.4760   40.1550 N   0  0  0  0  0  0  0  0  0  0  0  0
   37.5420   23.6430   41.2490 C   0  0  0  0  0  0  0  0  0  0  0  0
   37.2300   24.4260   42.3120 N   0  0  0  0  0  0  0  0  0  0  0  0
   37.1760   25.7030   41.9110 C   0  0  0  0  0  0  0  0  0  0  0  0
   36.9040   26.8810   42.5830 C   0  0  0  0  0  0  0  0  0  0  0  0
   36.6900   28.9920   42.5040 H   0  0  0  0  0  0  0  0  0  0  0  0
   37.6860   27.0170   38.8570 H   0  0  0  0  0  0  0  0  0  0  0  0
   37.9220   24.2430   39.1600 H   0  0  0  0  0  0  0  0  0  0  0  0
   37.6880   22.5970   41.1010 H   0  0  0  0  0  0  0  0  0  0  0  0
   36.6810   26.8360   43.6500 H   0  0  0  0  0  0  0  0  0  0  0  0
   37.7460   33.0110   40.4730 O   0  0  0  0  0  0  0  0  0  0  0  0
   39.0740   33.4340   40.5510 C   0  0  0  0  0  0  0  0  0  0  0  0
   38.9180   34.7540   40.3350 C   0  0  0  0  0  0  0  0  0  0  0  0
   40.7230   35.3800   40.4400 S   0  0  0  0  0  0  0  0  0  0  0  0
   41.2830   33.6060   40.7670 C   0  0  0  0  0  0  0  0  0  0  0  0
   40.3260   33.0790   40.7410 N   0  0  0  0  0  0  0  0  0  0  0  0
   38.3730   35.8670   40.1070 H   0  0  0  0  0  0  0  0  0  0  0  0
   42.6730   33.2210   40.9860 N   0  0  0  0  0  0  0  0  0  0  0  0
   43.1320   32.6300   42.2200 C   0  0  0  0  0  3  0  0  0  0  0  0
   42.5440   33.0180   43.0960 H   0  0  0  0  0  0  0  0  0  0  0  0
   44.6000   32.8030   42.4040 C   0  0  0  0  0  3  0  0  0  0  0  0
   45.1180   31.8770   42.0330 H   0  0  0  0  0  0  0  0  0  0  0  0
   45.1460   33.9530   41.9080 O   0  0  0  0  0  0  0  0  0  0  0  0
   44.7210   34.3540   40.6680 C   0  0  0  0  0  2  0  0  0  0  0  0
   43.7230   33.4000   40.0200 C   0  0  0  0  0  2  0  0  0  0  0  0
  1 23  1  0  0  0  0
  1  2  1  0  0  0  0
  2  7  1  0  0  0  0
  3 10  1  0  0  0  0
  3  2  2  0  0  0  0
  4  3  1  0  0  0  0
  5  6  1  0  0  0  0
  5  4  2  0  0  0  0
  6  1  2  0  0  0  0
  8  5  1  0  0  0  0
  9 18  1  0  0  0  0
  9 17  1  0  0  0  0
 10  9  2  0  0  0  0
 11 10  1  0  0  0  0
 11 12  2  0  0  0  0
 12 16  1  0  0  0  0
 13 12  1  0  0  0  0
 13 14  1  0  0  0  0
 14 15  2  0  0  0  0
 16 15  1  0  0  0  0
 16 17  2  0  0  0  0
 17 22  1  0  0  0  0
 19 11  1  0  0  0  0
 20 13  1  0  0  0  0
 21 14  1  0  0  0  0
 23 24  1  0  0  0  0
 24 28  1  0  0  0  0
 25 26  1  0  0  0  0
 25 24  2  0  0  0  0
 26 27  1  0  0  0  0
 27 30  1  0  0  0  0
 28 27  2  0  0  0  0
 29 25  1  0  0  0  0
 30 31  1  0  0  0  0
 31 33  1  0  0  0  0
 31 32  1  0  0  0  0
 34 33  1  0  0  0  0
 35 33  1  0  0  0  0
 36 35  1  0  0  0  0
 37 36  1  0  0  0  0
 37 30  1  0  0  0  0
M  END
>  <minimizedAffinity>
-6.18230104

$$$$

 OpenBabel03252507393D

 37 41  0  0  0  0  0  0  0  0999 V2000
   37.5120   29.2310   42.0180 C   0  0  0  0  0  0  0  0  0  0  0  0
   37.4270   28.1020   41.1630 C   0  0  0  0  0  0  0  0  0  0  0  0
   37.3570   26.8580   41.7690 C   0  0  0  0  0  0  0  0  0  0  0  0
   37.3730   26.7720   43.1100 N   0  0  0  0  0  0  0  0  0  0  0  0
   37.4540   27.8640   43.9060 C   0  0  0  0  0  0  0  0  0  0  0  0
   37.5220   29.0730   43.3620 N   0  0  0  0  0  0  0  0  0  0  0  0
   37.4140   28.1440   40.1050 H   0  0  0  0  0  0  0  0  0  0  0  0
   37.4580   27.6570   44.9560 H   0  0  0  0  0  0  0  0  0  0  0  0
   36.5650   25.6350   39.8160 C   0  0  0  0  0  0  0  0  0  0  0  0
   37.2630   25.6020   41.0160 C   0  0  0  0  0  0  0  0  0  0  0  0
   37.8160   24.4140   41.4120 C   0  0  0  0  0  0  0  0  0  0  0  0
   37.6980   23.2680   40.6560 C   0  0  0  0  0  0  0  0  0  0  0  0
   38.1570   22.0060   40.8530 N   0  0  0  0  0  0  0  0  0  0  0  0
   37.7460   21.2460   39.7730 C   0  0  0  0  0  0  0  0  0  0  0  0
   37.0480   22.0660   38.9480 N   0  0  0  0  0  0  0  0  0  0  0  0
   37.0150   23.2950   39.4800 C   0  0  0  0  0  0  0  0  0  0  0  0
   36.4460   24.4810   39.0540 C   0  0  0  0  0  0  0  0  0  0  0  0
   36.0900   26.5420   39.4190 H   0  0  0  0  0  0  0  0  0  0  0  0
   38.3510   24.4260   42.3520 H   0  0  0  0  0  0  0  0  0  0  0  0
   38.7160   21.7280   41.6950 H   0  0  0  0  0  0  0  0  0  0  0  0
   38.0190   20.2160   39.7560 H   0  0  0  0  0  0  0  0  0  0  0  0
   35.9010   24.4910   38.1090 H   0  0  0  0  0  0  0  0  0  0  0  0
   37.5840   30.4860   41.4150 O   0  0  0  0  0  0  0  0  0  0  0  0
   38.7360   30.8420   40.7100 C   0  0  0  0  0  0  0  0  0  0  0  0
   39.4220   31.4760   41.6780 C   0  0  0  0  0  0  0  0  0  0  0  0
   41.0210   31.9800   40.7550 S   0  0  0  0  0  0  0  0  0  0  0  0
   40.3340   31.1650   39.1940 C   0  0  0  0  0  0  0  0  0  0  0  0
   39.3700   30.8030   39.5590 N   0  0  0  0  0  0  0  0  0  0  0  0
   39.7210   31.9680   42.8000 H   0  0  0  0  0  0  0  0  0  0  0  0
   41.0480   31.1180   37.9230 N   0  0  0  0  0  0  0  0  0  0  0  0
   41.4450   29.8790   37.3000 C   0  0  0  0  0  3  0  0  0  0  0  0
   41.6830   29.0970   38.0720 H   0  0  0  0  0  0  0  0  0  0  0  0
   42.5630   30.0790   36.3350 C   0  0  0  0  0  3  0  0  0  0  0  0
   42.1280   30.1930   35.3050 H   0  0  0  0  0  0  0  0  0  0  0  0
   43.4680   31.0540   36.6430 O   0  0  0  0  0  0  0  0  0  0  0  0
   42.9640   32.2380   37.1150 C   0  0  0  0  0  2  0  0  0  0  0  0
   41.4400   32.2800   37.1730 C   0  0  0  0  0  2  0  0  0  0  0  0
  1  6  1  0  0  0  0
  2  3  1  0  0  0  0
  2  1  2  0  0  0  0
  3  4  2  0  0  0  0
  4  5  1  0  0  0  0
  5  8  1  0  0  0  0
  6  5  2  0  0  0  0
  7  2  1  0  0  0  0
  9 10  1  0  0  0  0
 10 11  2  0  0  0  0
 10  3  1  0  0  0  0
 11 19  1  0  0  0  0
 12 13  1  0  0  0  0
 12 11  1  0  0  0  0
 13 20  1  0  0  0  0
 14 13  1  0  0  0  0
 15 16  1  0  0  0  0
 15 14  2  0  0  0  0
 16 12  2  0  0  0  0
 17 16  1  0  0  0  0
 17  9  2  0  0  0  0
 18  9  1  0  0  0  0
 21 14  1  0  0  0  0
 22 17  1  0  0  0  0
 23  1  1  0  0  0  0
 24 23  1  0  0  0  0
 24 25  2  0  0  0  0
 25 29  1  0  0  0  0
 26 25  1  0  0  0  0
 27 28  2  0  0  0  0
 27 26  1  0  0  0  0
 28 24  1  0  0  0  0
 30 27  1  0  0  0  0
 31 30  1  0  0  0  0
 31 32  1  0  0  0  0
 33 35  1  0  0  0  0
 33 31  1  0  0  0  0
 34 33  1  0  0  0  0
 35 36  1  0  0  0  0
 36 37  1  0  0  0  0
 37 30  1  0  0  0  0
M  END
>  <minimizedAffinity>
-6.12318516

$$$$

 OpenBabel03252507393D

 37 41  0  0  0  0  0  0  0  0999 V2000
   37.0120   28.7360   38.9610 C   0  0  0  0  0  0  0  0  0  0  0  0
   38.0230   29.6950   39.2240 C   0  0  0  0  0  0  0  0  0  0  0  0
   38.2330   30.6680   38.2610 C   0  0  0  0  0  0  0  0  0  0  0  0
   37.4880   30.6650   37.1420 N   0  0  0  0  0  0  0  0  0  0  0  0
   36.5280   29.7400   36.9130 C   0  0  0  0  0  0  0  0  0  0  0  0
   36.2970   28.7910   37.8140 N   0  0  0  0  0  0  0  0  0  0  0  0
   38.6230   29.7170   40.0970 H   0  0  0  0  0  0  0  0  0  0  0  0
   36.0080   29.8500   35.9840 H   0  0  0  0  0  0  0  0  0  0  0  0
   39.1680   32.5300   39.5240 C   0  0  0  0  0  0  0  0  0  0  0  0
   39.2410   31.7260   38.3940 C   0  0  0  0  0  0  0  0  0  0  0  0
   40.2410   31.9660   37.4910 C   0  0  0  0  0  0  0  0  0  0  0  0
   41.1630   32.9740   37.6750 C   0  0  0  0  0  0  0  0  0  0  0  0
   42.2170   33.3820   36.9240 N   0  0  0  0  0  0  0  0  0  0  0  0
   42.8060   34.4440   37.5840 C   0  0  0  0  0  0  0  0  0  0  0  0
   42.0960   34.6540   38.7200 N   0  0  0  0  0  0  0  0  0  0  0  0
   41.0970   33.7640   38.7800 C   0  0  0  0  0  0  0  0  0  0  0  0
   40.0970   33.5450   39.7110 C   0  0  0  0  0  0  0  0  0  0  0  0
   38.4030   32.4100   40.3020 H   0  0  0  0  0  0  0  0  0  0  0  0
   40.2660   31.3220   36.6230 H   0  0  0  0  0  0  0  0  0  0  0  0
   42.4790   32.9270   36.0150 H   0  0  0  0  0  0  0  0  0  0  0  0
   43.6600   34.8980   37.1340 H   0  0  0  0  0  0  0  0  0  0  0  0
   40.0530   34.1850   40.5940 H   0  0  0  0  0  0  0  0  0  0  0  0
   36.7960   27.7530   39.9260 O   0  0  0  0  0  0  0  0  0  0  0  0
   37.7240   27.5890   40.9570 C   0  0  0  0  0  0  0  0  0  0  0  0
   36.9230   27.7410   42.0270 C   0  0  0  0  0  0  0  0  0  0  0  0
   38.1580   27.5170   43.4710 S   0  0  0  0  0  0  0  0  0  0  0  0
   39.5370   27.2600   42.2060 C   0  0  0  0  0  0  0  0  0  0  0  0
   38.9810   27.3600   41.2710 N   0  0  0  0  0  0  0  0  0  0  0  0
   35.8910   27.9350   42.7250 H   0  0  0  0  0  0  0  0  0  0  0  0
   40.9270   26.9960   42.5630 N   0  0  0  0  0  0  0  0  0  0  0  0
   41.6050   25.7760   42.2000 C   0  0  0  0  0  3  0  0  0  0  0  0
   40.8900   24.9090   42.1750 H   0  0  0  0  0  0  0  0  0  0  0  0
   42.7790   25.5130   43.0790 C   0  0  0  0  0  3  0  0  0  0  0  0
   43.7010   25.9080   42.5700 H   0  0  0  0  0  0  0  0  0  0  0  0
   42.6730   25.9200   44.3780 O   0  0  0  0  0  0  0  0  0  0  0  0
   42.1200   27.1560   44.5960 C   0  0  0  0  0  2  0  0  0  0  0  0
   41.7530   27.9000   43.3150 C   0  0  0  0  0  2  0  0  0  0  0  0
  1  2  1  0  0  0  0
  1 23  1  0  0  0  0
  2  7  1  0  0  0  0
  3 10  1  0  0  0  0
  3  2  2  0  0  0  0
  4  3  1  0  0  0  0
  5  4  2  0  0  0  0
  5  6  1  0  0  0  0
  6  1  2  0  0  0  0
  8  5  1  0  0  0  0
  9 17  1  0  0  0  0
  9 18  1  0  0  0  0
 10  9  2  0  0  0  0
 11 12  2  0  0  0  0
 11 10  1  0  0  0  0
 12 16  1  0  0  0  0
 13 14  1  0  0  0  0
 13 12  1  0  0  0  0
 14 15  2  0  0  0  0
 15 16  1  0  0  0  0
 16 17  2  0  0  0  0
 17 22  1  0  0  0  0
 19 11  1  0  0  0  0
 20 13  1  0  0  0  0
 21 14  1  0  0  0  0
 23 24  1  0  0  0  0
 24 28  1  0  0  0  0
 24 25  2  0  0  0  0
 25 29  1  0  0  0  0
 25 26  1  0  0  0  0
 27 30  1  0  0  0  0
 27 26  1  0  0  0  0
 28 27  2  0  0  0  0
 30 37  1  0  0  0  0
 31 30  1  0  0  0  0
 31 33  1  0  0  0  0
 32 31  1  0  0  0  0
 33 35  1  0  0  0  0
 34 33  1  0  0  0  0
 35 36  1  0  0  0  0
 37 36  1  0  0  0  0
M  END
>  <minimizedAffinity>
-6.00798225

$$$$
