
 OpenBabel03252509123D

 31 34  0  0  1  0  0  0  0  0999 V2000
   47.5370   32.6760   44.2720 C   0  0  0  0  0  0  0  0  0  0  0  0
   46.8380   33.6500   43.5570 C   0  0  0  0  0  0  0  0  0  0  0  0
   45.7810   34.3680   44.0950 C   0  0  0  0  0  0  0  0  0  0  0  0
   45.3910   34.1140   45.4160 C   0  0  0  0  0  0  0  0  0  0  0  0
   44.4470   34.5890   46.2480 N   0  0  0  0  0  0  0  0  0  0  0  0
   44.5230   33.9640   47.4370 C   0  0  0  0  0  0  0  0  0  0  0  0
   45.5360   33.0920   47.3210 N   0  0  0  0  0  0  0  0  0  0  0  0
   46.0920   33.1550   46.0990 C   0  0  0  0  0  0  0  0  0  0  0  0
   47.1520   32.4190   45.5900 C   0  0  0  0  0  0  0  0  0  0  0  0
   48.3590   32.1220   43.8460 H   0  0  0  0  0  0  0  0  0  0  0  0
   43.7600   35.3290   46.0130 H   0  0  0  0  0  0  0  0  0  0  0  0
   43.8980   34.1350   48.2980 H   0  0  0  0  0  0  0  0  0  0  0  0
   47.6640   31.6800   46.1710 H   0  0  0  0  0  0  0  0  0  0  0  0
   47.0590   33.4310   39.9060 C   0  0  0  0  0  0  0  0  0  0  0  0
   47.9750   34.4410   39.5860 C   0  0  0  0  0  0  0  0  0  0  0  0
   48.5050   35.1850   40.6380 C   0  0  0  0  0  0  0  0  0  0  0  0
   48.1180   34.9090   41.9270 N   0  0  0  0  0  0  0  0  0  0  0  0
   47.2320   33.9240   42.1780 C   0  0  0  0  0  0  0  0  0  0  0  0
   46.6870   33.1690   41.1850 N   0  0  0  0  0  0  0  0  0  0  0  0
   46.5710   32.7780   39.1900 H   0  0  0  0  0  0  0  0  0  0  0  0
   48.1930   34.5550   38.5440 H   0  0  0  0  0  0  0  0  0  0  0  0
   49.2040   35.9530   40.3850 H   0  0  0  0  0  0  0  0  0  0  0  0
   44.9130   35.6050   43.1680 S   0  0  0  0  0  0  0  0  0  0  0  0
   42.6340   36.6210   42.8470 H   0  0  0  0  0  0  0  0  0  0  0  0
   42.3260   35.6120   42.6980 N   0  0  0  0  0  0  0  0  0  0  0  0
   43.5190   34.9460   42.2180 C   0  0  1  0  0  0  0  0  0  0  0  0
   43.8030   35.2940   40.7530 C   0  0  0  0  0  0  0  0  0  0  0  0
   44.2880   36.2860   40.6620 H   0  0  0  0  0  0  0  0  0  0  0  0
   42.6840   35.2810   39.9620 O   0  0  0  0  0  0  0  0  0  0  0  0
   41.5440   34.7710   40.5270 C   0  0  0  0  0  0  0  0  0  0  0  0
   41.2220   35.5370   41.7860 C   0  0  0  0  0  0  0  0  0  0  0  0
  1  9  1  0  0  0  0
  2  3  1  0  0  0  0
  2  1  2  0  0  0  0
  3  4  2  0  0  0  0
  4  8  1  0  0  0  0
  4  5  1  0  0  0  0
  5  6  1  0  0  0  0
  6 12  1  0  0  0  0
  7  6  2  0  0  0  0
  8  7  1  0  0  0  0
  9  8  2  0  0  0  0
  9 13  1  0  0  0  0
 10  1  1  0  0  0  0
 11  5  1  0  0  0  0
 14 19  1  0  0  0  0
 15 14  2  0  0  0  0
 15 16  1  0  0  0  0
 16 17  2  0  0  0  0
 17 18  1  0  0  0  0
 18  2  1  0  0  0  0
 19 18  2  0  0  0  0
 20 14  1  0  0  0  0
 21 15  1  0  0  0  0
 22 16  1  0  0  0  0
 23  3  1  0  0  0  0
 25 24  1  0  0  0  0
 26 25  1  0  0  0  0
 26 23  1  1  0  0  0
 27 26  1  0  0  0  0
 28 27  1  0  0  0  0
 29 30  1  0  0  0  0
 29 27  1  0  0  0  0
 30 31  1  0  0  0  0
 31 25  1  0  0  0  0
M  END
>  <minimizedAffinity>
-5.8241024

>  <minimizedRMSD>
1.71776676

$$$$
