
 OpenBabel03252509123D

 31 34  0  0  1  0  0  0  0  0999 V2000
   47.5510   31.6920   44.5560 C   0  0  0  0  0  0  0  0  0  0  0  0
   47.0840   32.7630   43.7910 C   0  0  0  0  0  0  0  0  0  0  0  0
   46.1900   33.7040   44.2780 C   0  0  0  0  0  0  0  0  0  0  0  0
   45.7300   33.5850   45.5960 C   0  0  0  0  0  0  0  0  0  0  0  0
   44.8900   34.2760   46.3860 N   0  0  0  0  0  0  0  0  0  0  0  0
   44.8110   33.6940   47.5970 C   0  0  0  0  0  0  0  0  0  0  0  0
   45.6230   32.6270   47.5360 N   0  0  0  0  0  0  0  0  0  0  0  0
   46.2030   32.5280   46.3280 C   0  0  0  0  0  0  0  0  0  0  0  0
   47.0960   31.5700   45.8710 C   0  0  0  0  0  0  0  0  0  0  0  0
   48.2480   30.9640   44.1700 H   0  0  0  0  0  0  0  0  0  0  0  0
   44.3770   35.1340   46.1100 H   0  0  0  0  0  0  0  0  0  0  0  0
   44.2190   34.0220   48.4350 H   0  0  0  0  0  0  0  0  0  0  0  0
   47.4310   30.7630   46.4890 H   0  0  0  0  0  0  0  0  0  0  0  0
   47.4090   32.2690   40.1750 C   0  0  0  0  0  0  0  0  0  0  0  0
   48.4380   33.1540   39.8280 C   0  0  0  0  0  0  0  0  0  0  0  0
   49.0060   33.9100   40.8510 C   0  0  0  0  0  0  0  0  0  0  0  0
   48.5470   33.7660   42.1370 N   0  0  0  0  0  0  0  0  0  0  0  0
   47.5530   32.8980   42.4160 C   0  0  0  0  0  0  0  0  0  0  0  0
   46.9660   32.1360   41.4520 N   0  0  0  0  0  0  0  0  0  0  0  0
   46.8790   31.6210   39.4840 H   0  0  0  0  0  0  0  0  0  0  0  0
   48.7020   33.1710   38.7920 H   0  0  0  0  0  0  0  0  0  0  0  0
   49.7910   34.5820   40.5780 H   0  0  0  0  0  0  0  0  0  0  0  0
   45.6160   35.0590   43.2890 S   0  0  0  0  0  0  0  0  0  0  0  0
   44.5500   35.9730   41.2030 H   0  0  0  0  0  0  0  0  0  0  0  0
   43.6510   35.9230   41.7720 N   0  0  0  0  0  0  0  0  0  0  0  0
   43.9020   34.8720   42.7370 C   0  0  1  0  0  3  0  0  0  0  0  0
   43.8150   33.4860   42.0910 C   0  0  0  0  0  3  0  0  0  0  0  0
   44.7440   33.2390   41.5390 H   0  0  0  0  0  0  0  0  0  0  0  0
   42.7520   33.3480   41.2360 O   0  0  0  0  0  0  0  0  0  0  0  0
   41.8290   34.3610   41.2420 C   0  0  0  0  0  2  0  0  0  0  0  0
   42.5170   35.6680   40.9300 C   0  0  0  0  0  2  0  0  0  0  0  0
  1  9  1  0  0  0  0
  2  3  1  0  0  0  0
  2  1  2  0  0  0  0
  3  4  2  0  0  0  0
  4  8  1  0  0  0  0
  4  5  1  0  0  0  0
  5  6  1  0  0  0  0
  6 12  1  0  0  0  0
  7  6  2  0  0  0  0
  8  7  1  0  0  0  0
  9  8  2  0  0  0  0
  9 13  1  0  0  0  0
 10  1  1  0  0  0  0
 11  5  1  0  0  0  0
 14 19  1  0  0  0  0
 15 14  2  0  0  0  0
 15 16  1  0  0  0  0
 16 17  2  0  0  0  0
 17 18  1  0  0  0  0
 18  2  1  0  0  0  0
 19 18  2  0  0  0  0
 20 14  1  0  0  0  0
 21 15  1  0  0  0  0
 22 16  1  0  0  0  0
 23  3  1  0  0  0  0
 24 25  1  0  0  0  0
 25 26  1  0  0  0  0
 26 23  1  6  0  0  0
 27 26  1  0  0  0  0
 28 27  1  0  0  0  0
 29 30  1  0  0  0  0
 29 27  1  0  0  0  0
 31 30  1  0  0  0  0
 31 25  1  0  0  0  0
M  END
>  <minimizedAffinity>
-4.68792152

>  <minimizedRMSD>
1.49061453

$$$$
