
 OpenBabel03252509123D

 31 34  0  0  1  0  0  0  0  0999 V2000
   47.5370   32.6760   44.2730 C   0  0  0  0  0  0  0  0  0  0  0  0
   46.8380   33.6500   43.5570 C   0  0  0  0  0  0  0  0  0  0  0  0
   45.7820   34.3680   44.0960 C   0  0  0  0  0  0  0  0  0  0  0  0
   45.3920   34.1130   45.4170 C   0  0  0  0  0  0  0  0  0  0  0  0
   44.4480   34.5870   46.2490 N   0  0  0  0  0  0  0  0  0  0  0  0
   44.5230   33.9620   47.4380 C   0  0  0  0  0  0  0  0  0  0  0  0
   45.5360   33.0910   47.3210 N   0  0  0  0  0  0  0  0  0  0  0  0
   46.0920   33.1540   46.1000 C   0  0  0  0  0  0  0  0  0  0  0  0
   47.1520   32.4180   45.5900 C   0  0  0  0  0  0  0  0  0  0  0  0
   48.3600   32.1220   43.8460 H   0  0  0  0  0  0  0  0  0  0  0  0
   43.7610   35.3280   46.0140 H   0  0  0  0  0  0  0  0  0  0  0  0
   43.8980   34.1330   48.2990 H   0  0  0  0  0  0  0  0  0  0  0  0
   47.6640   31.6790   46.1710 H   0  0  0  0  0  0  0  0  0  0  0  0
   47.0590   33.4330   39.9060 C   0  0  0  0  0  0  0  0  0  0  0  0
   47.9760   34.4430   39.5870 C   0  0  0  0  0  0  0  0  0  0  0  0
   48.5050   35.1850   40.6390 C   0  0  0  0  0  0  0  0  0  0  0  0
   48.1190   34.9090   41.9280 N   0  0  0  0  0  0  0  0  0  0  0  0
   47.2320   33.9240   42.1790 C   0  0  0  0  0  0  0  0  0  0  0  0
   46.6870   33.1700   41.1850 N   0  0  0  0  0  0  0  0  0  0  0  0
   46.5710   32.7800   39.1900 H   0  0  0  0  0  0  0  0  0  0  0  0
   48.1930   34.5570   38.5450 H   0  0  0  0  0  0  0  0  0  0  0  0
   49.2050   35.9540   40.3870 H   0  0  0  0  0  0  0  0  0  0  0  0
   44.9130   35.6050   43.1700 S   0  0  0  0  0  0  0  0  0  0  0  0
   42.6340   36.6200   42.8490 H   0  0  0  0  0  0  0  0  0  0  0  0
   42.3260   35.6110   42.7000 N   0  0  0  0  0  0  0  0  0  0  0  0
   43.5200   34.9460   42.2190 C   0  0  1  0  0  3  0  0  0  0  0  0
   43.8040   35.2960   40.7550 C   0  0  0  0  0  3  0  0  0  0  0  0
   44.2880   36.2890   40.6640 H   0  0  0  0  0  0  0  0  0  0  0  0
   42.6840   35.2830   39.9630 O   0  0  0  0  0  0  0  0  0  0  0  0
   41.5450   34.7720   40.5270 C   0  0  0  0  0  2  0  0  0  0  0  0
   41.2220   35.5370   41.7870 C   0  0  0  0  0  2  0  0  0  0  0  0
  1  9  1  0  0  0  0
  2  3  1  0  0  0  0
  2  1  2  0  0  0  0
  3  4  2  0  0  0  0
  4  8  1  0  0  0  0
  4  5  1  0  0  0  0
  5  6  1  0  0  0  0
  6 12  1  0  0  0  0
  7  6  2  0  0  0  0
  8  7  1  0  0  0  0
  9  8  2  0  0  0  0
  9 13  1  0  0  0  0
 10  1  1  0  0  0  0
 11  5  1  0  0  0  0
 14 19  1  0  0  0  0
 15 14  2  0  0  0  0
 15 16  1  0  0  0  0
 16 17  2  0  0  0  0
 17 18  1  0  0  0  0
 18  2  1  0  0  0  0
 19 18  2  0  0  0  0
 20 14  1  0  0  0  0
 21 15  1  0  0  0  0
 22 16  1  0  0  0  0
 23  3  1  0  0  0  0
 25 24  1  0  0  0  0
 26 25  1  0  0  0  0
 26 23  1  1  0  0  0
 27 26  1  0  0  0  0
 28 27  1  0  0  0  0
 29 30  1  0  0  0  0
 29 27  1  0  0  0  0
 30 31  1  0  0  0  0
 31 25  1  0  0  0  0
M  END
>  <minimizedAffinity>
-5.82378578

>  <minimizedRMSD>
1.75056934

$$$$
