
 OpenBabel03252501183D

 20 21  0  0  0  0  0  0  0  0999 V2000
   39.8350   29.1050   42.2380 C   0  0  0  0  0  0  0  0  0  0  0  0
   38.5250   28.5790   42.0400 C   0  0  0  0  0  0  0  0  0  0  0  0
   38.2240   27.3600   42.6200 C   0  0  0  0  0  0  0  0  0  0  0  0
   39.1770   26.7170   43.3460 N   0  0  0  0  0  0  0  0  0  0  0  0
   40.4180   27.2630   43.5050 C   0  0  0  0  0  0  0  0  0  0  0  0
   40.7410   28.4340   42.9620 N   0  0  0  0  0  0  0  0  0  0  0  0
   40.2010   30.0420   41.8450 H   0  0  0  0  0  0  0  0  0  0  0  0
   41.0110   26.6010   44.1060 H   0  0  0  0  0  0  0  0  0  0  0  0
   37.7720   29.4420   41.2450 N   0  0  0  0  0  0  0  0  0  0  0  0
   36.6450   30.3540   41.3180 C   0  0  0  0  0  3  0  0  0  0  0  0
   36.2500   30.5190   42.3220 H   0  0  0  0  0  0  0  0  0  0  0  0
   37.0210   31.6110   40.5920 C   0  0  0  0  0  3  0  0  0  0  0  0
   36.2960   32.4420   40.8140 H   0  0  0  0  0  0  0  0  0  0  0  0
   36.8910   31.3480   39.2330 O   0  0  0  0  0  0  0  0  0  0  0  0
   37.2130   30.0370   38.9100 C   0  0  0  0  0  2  0  0  0  0  0  0
   38.2570   29.4620   39.8550 C   0  0  0  0  0  2  0  0  0  0  0  0
   36.8720   26.8890   42.3800 C   0  0  0  0  0  0  0  0  0  0  0  0
   36.7770   25.5550   42.8000 F   0  0  0  0  0  0  0  0  0  0  0  0
   36.6800   26.8290   41.0210 F   0  0  0  0  0  0  0  0  0  0  0  0
   35.9020   27.5770   43.0540 F   0  0  0  0  0  0  0  0  0  0  0  0
  1  6  1  0  0  0  0
  2  1  2  0  0  0  0
  2  3  1  0  0  0  0
  3  4  2  0  0  0  0
  4  5  1  0  0  0  0
  5  8  1  0  0  0  0
  6  5  2  0  0  0  0
  7  1  1  0  0  0  0
  9 10  1  0  0  0  0
  9  2  1  0  0  0  0
 10 11  1  0  0  0  0
 12 13  1  0  0  0  0
 12 10  1  0  0  0  0
 14 12  1  0  0  0  0
 15 14  1  0  0  0  0
 15 16  1  0  0  0  0
 16  9  1  0  0  0  0
 17  3  1  0  0  0  0
 17 18  1  0  0  0  0
 17 20  1  0  0  0  0
 19 17  1  0  0  0  0
M  END
>  <minimizedAffinity>
-4.33022976

$$$$

 OpenBabel03252501183D

 20 21  0  0  0  0  0  0  0  0999 V2000
   39.5550   27.6010   40.3740 C   0  0  0  0  0  0  0  0  0  0  0  0
   38.4680   28.1120   41.1420 C   0  0  0  0  0  0  0  0  0  0  0  0
   37.8950   27.2770   42.0850 C   0  0  0  0  0  0  0  0  0  0  0  0
   38.3840   26.0170   42.2410 N   0  0  0  0  0  0  0  0  0  0  0  0
   39.4270   25.5760   41.4790 C   0  0  0  0  0  0  0  0  0  0  0  0
   40.0010   26.3520   40.5630 N   0  0  0  0  0  0  0  0  0  0  0  0
   40.0920   28.1420   39.6090 H   0  0  0  0  0  0  0  0  0  0  0  0
   39.6540   24.5650   41.7580 H   0  0  0  0  0  0  0  0  0  0  0  0
   38.1750   29.4190   40.7560 N   0  0  0  0  0  0  0  0  0  0  0  0
   37.2880   30.1690   39.8870 C   0  0  0  0  0  3  0  0  0  0  0  0
   36.5190   29.5750   39.3890 H   0  0  0  0  0  0  0  0  0  0  0  0
   36.7550   31.3340   40.6660 C   0  0  0  0  0  3  0  0  0  0  0  0
   35.8850   31.8150   40.1380 H   0  0  0  0  0  0  0  0  0  0  0  0
   37.7590   32.2960   40.6940 O   0  0  0  0  0  0  0  0  0  0  0  0
   39.0300   31.7400   40.7360 C   0  0  0  0  0  2  0  0  0  0  0  0
   39.0340   30.3950   41.4460 C   0  0  0  0  0  2  0  0  0  0  0  0
   36.7990   27.8650   42.8310 C   0  0  0  0  0  0  0  0  0  0  0  0
   36.2120   26.8720   43.6290 F   0  0  0  0  0  0  0  0  0  0  0  0
   35.8120   28.2040   41.9370 F   0  0  0  0  0  0  0  0  0  0  0  0
   37.1630   28.8750   43.6760 F   0  0  0  0  0  0  0  0  0  0  0  0
  1  6  2  0  0  0  0
  1  2  1  0  0  0  0
  2  3  2  0  0  0  0
  3  4  1  0  0  0  0
  3 17  1  0  0  0  0
  5  8  1  0  0  0  0
  5  4  2  0  0  0  0
  6  5  1  0  0  0  0
  7  1  1  0  0  0  0
  9  2  1  0  0  0  0
  9 16  1  0  0  0  0
 10 12  1  0  0  0  0
 10  9  1  0  0  0  0
 11 10  1  0  0  0  0
 12 14  1  0  0  0  0
 13 12  1  0  0  0  0
 14 15  1  0  0  0  0
 15 16  1  0  0  0  0
 17 18  1  0  0  0  0
 17 20  1  0  0  0  0
 19 17  1  0  0  0  0
M  END
>  <minimizedAffinity>
-4.23448324

$$$$

 OpenBabel03252501183D

 20 21  0  0  0  0  0  0  0  0999 V2000
   36.5090   27.2370   39.3770 C   0  0  0  0  0  0  0  0  0  0  0  0
   36.8620   27.0380   40.7450 C   0  0  0  0  0  0  0  0  0  0  0  0
   36.7420   28.1130   41.6060 C   0  0  0  0  0  0  0  0  0  0  0  0
   36.2980   29.3040   41.1230 N   0  0  0  0  0  0  0  0  0  0  0  0
   35.9730   29.4440   39.8040 C   0  0  0  0  0  0  0  0  0  0  0  0
   36.0770   28.4310   38.9490 N   0  0  0  0  0  0  0  0  0  0  0  0
   36.5540   26.4880   38.6020 H   0  0  0  0  0  0  0  0  0  0  0  0
   35.6490   30.4520   39.6340 H   0  0  0  0  0  0  0  0  0  0  0  0
   37.2960   25.7280   40.9460 N   0  0  0  0  0  0  0  0  0  0  0  0
   36.8910   24.4870   41.5790 C   0  0  0  0  0  3  0  0  0  0  0  0
   35.8820   24.4920   41.9990 H   0  0  0  0  0  0  0  0  0  0  0  0
   37.1480   23.3710   40.6120 C   0  0  0  0  0  3  0  0  0  0  0  0
   36.6380   22.4220   40.9400 H   0  0  0  0  0  0  0  0  0  0  0  0
   38.5120   23.1030   40.6570 O   0  0  0  0  0  0  0  0  0  0  0  0
   39.2720   24.2410   40.8800 C   0  0  0  0  0  2  0  0  0  0  0  0
   38.6040   25.4860   40.3150 C   0  0  0  0  0  2  0  0  0  0  0  0
   37.1140   27.8360   42.9810 C   0  0  0  0  0  0  0  0  0  0  0  0
   37.1980   29.0480   43.6800 F   0  0  0  0  0  0  0  0  0  0  0  0
   38.4020   27.3570   42.9820 F   0  0  0  0  0  0  0  0  0  0  0  0
   36.2250   27.0560   43.6650 F   0  0  0  0  0  0  0  0  0  0  0  0
  1  2  1  0  0  0  0
  2  9  1  0  0  0  0
  2  3  2  0  0  0  0
  3 17  1  0  0  0  0
  4  3  1  0  0  0  0
  5  4  2  0  0  0  0
  6  1  2  0  0  0  0
  6  5  1  0  0  0  0
  7  1  1  0  0  0  0
  8  5  1  0  0  0  0
  9 10  1  0  0  0  0
 10 11  1  0  0  0  0
 12 14  1  0  0  0  0
 12 13  1  0  0  0  0
 12 10  1  0  0  0  0
 14 15  1  0  0  0  0
 16 15  1  0  0  0  0
 16  9  1  0  0  0  0
 17 19  1  0  0  0  0
 17 20  1  0  0  0  0
 17 18  1  0  0  0  0
M  END
>  <minimizedAffinity>
-4.19451332

$$$$

 OpenBabel03252501183D

 20 21  0  0  0  0  0  0  0  0999 V2000
   38.9380   30.6370   41.1590 C   0  0  0  0  0  0  0  0  0  0  0  0
   38.0390   29.5300   41.1890 C   0  0  0  0  0  0  0  0  0  0  0  0
   36.7220   29.7580   40.8320 C   0  0  0  0  0  0  0  0  0  0  0  0
   36.3390   31.0120   40.4710 N   0  0  0  0  0  0  0  0  0  0  0  0
   37.2390   32.0390   40.4590 C   0  0  0  0  0  0  0  0  0  0  0  0
   38.5120   31.8550   40.7960 N   0  0  0  0  0  0  0  0  0  0  0  0
   39.9860   30.6010   41.4110 H   0  0  0  0  0  0  0  0  0  0  0  0
   36.7360   32.9340   40.1480 H   0  0  0  0  0  0  0  0  0  0  0  0
   38.7030   28.3790   41.6100 N   0  0  0  0  0  0  0  0  0  0  0  0
   39.2360   27.1300   41.1000 C   0  0  0  0  0  3  0  0  0  0  0  0
   39.2000   27.0230   40.0130 H   0  0  0  0  0  0  0  0  0  0  0  0
   40.6010   26.9360   41.6900 C   0  0  0  0  0  3  0  0  0  0  0  0
   41.1640   26.1200   41.1560 H   0  0  0  0  0  0  0  0  0  0  0  0
   40.4180   26.4790   42.9910 O   0  0  0  0  0  0  0  0  0  0  0  0
   39.2880   27.0170   43.5900 C   0  0  0  0  0  2  0  0  0  0  0  0
   38.9720   28.4060   43.0570 C   0  0  0  0  0  2  0  0  0  0  0  0
   35.8670   28.5860   40.8820 C   0  0  0  0  0  0  0  0  0  0  0  0
   34.5470   28.9790   40.6220 F   0  0  0  0  0  0  0  0  0  0  0  0
   35.8370   28.1400   42.1810 F   0  0  0  0  0  0  0  0  0  0  0  0
   36.1710   27.6210   39.9630 F   0  0  0  0  0  0  0  0  0  0  0  0
  1  2  1  0  0  0  0
  1  7  1  0  0  0  0
  2  9  1  0  0  0  0
  3 17  1  0  0  0  0
  3  2  2  0  0  0  0
  4  3  1  0  0  0  0
  5  4  2  0  0  0  0
  5  6  1  0  0  0  0
  6  1  2  0  0  0  0
  8  5  1  0  0  0  0
  9 16  1  0  0  0  0
 10  9  1  0  0  0  0
 10 12  1  0  0  0  0
 11 10  1  0  0  0  0
 12 14  1  0  0  0  0
 13 12  1  0  0  0  0
 14 15  1  0  0  0  0
 16 15  1  0  0  0  0
 17 19  1  0  0  0  0
 18 17  1  0  0  0  0
 20 17  1  0  0  0  0
M  END
>  <minimizedAffinity>
-4.17534781

$$$$

 OpenBabel03252501183D

 20 21  0  0  0  0  0  0  0  0999 V2000
   36.5410   26.9070   39.9490 C   0  0  0  0  0  0  0  0  0  0  0  0
   37.0850   27.8530   40.8670 C   0  0  0  0  0  0  0  0  0  0  0  0
   37.7770   27.3670   41.9620 C   0  0  0  0  0  0  0  0  0  0  0  0
   37.9100   26.0220   42.1190 N   0  0  0  0  0  0  0  0  0  0  0  0
   37.3700   25.1580   41.2110 C   0  0  0  0  0  0  0  0  0  0  0  0
   36.6990   25.5910   40.1470 N   0  0  0  0  0  0  0  0  0  0  0  0
   35.9820   27.1480   39.0580 H   0  0  0  0  0  0  0  0  0  0  0  0
   37.5880   24.1540   41.5190 H   0  0  0  0  0  0  0  0  0  0  0  0
   36.7790   29.1520   40.4620 N   0  0  0  0  0  0  0  0  0  0  0  0
   36.0240   30.3180   40.8790 C   0  0  0  0  0  3  0  0  0  0  0  0
   35.5740   30.2460   41.8720 H   0  0  0  0  0  0  0  0  0  0  0  0
   36.8940   31.5240   40.6860 C   0  0  0  0  0  3  0  0  0  0  0  0
   36.4650   32.4240   41.2100 H   0  0  0  0  0  0  0  0  0  0  0  0
   36.8690   31.8280   39.3290 O   0  0  0  0  0  0  0  0  0  0  0  0
   36.7740   30.6980   38.5310 C   0  0  0  0  0  2  0  0  0  0  0  0
   37.4270   29.4890   39.1840 C   0  0  0  0  0  2  0  0  0  0  0  0
   38.3050   28.3860   42.8500 C   0  0  0  0  0  0  0  0  0  0  0  0
   39.0600   29.2950   42.0950 F   0  0  0  0  0  0  0  0  0  0  0  0
   39.2250   27.7890   43.6780 F   0  0  0  0  0  0  0  0  0  0  0  0
   37.3550   29.1200   43.5020 F   0  0  0  0  0  0  0  0  0  0  0  0
  1  6  2  0  0  0  0
  1  2  1  0  0  0  0
  2  3  2  0  0  0  0
  3  4  1  0  0  0  0
  3 17  1  0  0  0  0
  5  8  1  0  0  0  0
  5  4  2  0  0  0  0
  6  5  1  0  0  0  0
  7  1  1  0  0  0  0
  9  2  1  0  0  0  0
  9 10  1  0  0  0  0
 10 11  1  0  0  0  0
 12 10  1  0  0  0  0
 12 13  1  0  0  0  0
 14 12  1  0  0  0  0
 15 16  1  0  0  0  0
 15 14  1  0  0  0  0
 16  9  1  0  0  0  0
 17 20  1  0  0  0  0
 17 19  1  0  0  0  0
 18 17  1  0  0  0  0
M  END
>  <minimizedAffinity>
-4.16867352

$$$$

 OpenBabel03252501183D

 20 21  0  0  0  0  0  0  0  0999 V2000
   37.5520   28.3500   38.6860 C   0  0  0  0  0  0  0  0  0  0  0  0
   37.4580   29.3740   39.6730 C   0  0  0  0  0  0  0  0  0  0  0  0
   37.1910   30.6620   39.2450 C   0  0  0  0  0  0  0  0  0  0  0  0
   37.0310   30.9000   37.9160 N   0  0  0  0  0  0  0  0  0  0  0  0
   37.1320   29.8840   37.0090 C   0  0  0  0  0  0  0  0  0  0  0  0
   37.3880   28.6340   37.3860 N   0  0  0  0  0  0  0  0  0  0  0  0
   37.7540   27.3080   38.8800 H   0  0  0  0  0  0  0  0  0  0  0  0
   36.9740   30.2830   36.0260 H   0  0  0  0  0  0  0  0  0  0  0  0
   37.6810   28.8440   40.9440 N   0  0  0  0  0  0  0  0  0  0  0  0
   38.7070   28.7470   41.9640 C   0  0  0  0  0  3  0  0  0  0  0  0
   39.6140   29.3210   41.7620 H   0  0  0  0  0  0  0  0  0  0  0  0
   38.0720   29.0500   43.2880 C   0  0  0  0  0  3  0  0  0  0  0  0
   38.8500   29.2290   44.0820 H   0  0  0  0  0  0  0  0  0  0  0  0
   37.3870   27.9050   43.6800 O   0  0  0  0  0  0  0  0  0  0  0  0
   36.8510   27.2100   42.6050 C   0  0  0  0  0  2  0  0  0  0  0  0
   36.4940   28.1390   41.4540 C   0  0  0  0  0  2  0  0  0  0  0  0
   37.1050   31.6500   40.3040 C   0  0  0  0  0  0  0  0  0  0  0  0
   36.8160   32.8980   39.7350 F   0  0  0  0  0  0  0  0  0  0  0  0
   38.3600   31.8070   40.8400 F   0  0  0  0  0  0  0  0  0  0  0  0
   36.1260   31.4100   41.2280 F   0  0  0  0  0  0  0  0  0  0  0  0
  1  7  1  0  0  0  0
  1  2  1  0  0  0  0
  2  9  1  0  0  0  0
  3  2  2  0  0  0  0
  3 17  1  0  0  0  0
  4  3  1  0  0  0  0
  5  6  1  0  0  0  0
  5  4  2  0  0  0  0
  6  1  2  0  0  0  0
  8  5  1  0  0  0  0
  9 16  1  0  0  0  0
  9 10  1  0  0  0  0
 10 12  1  0  0  0  0
 11 10  1  0  0  0  0
 12 14  1  0  0  0  0
 12 13  1  0  0  0  0
 15 14  1  0  0  0  0
 16 15  1  0  0  0  0
 17 19  1  0  0  0  0
 17 20  1  0  0  0  0
 18 17  1  0  0  0  0
M  END
>  <minimizedAffinity>
-4.1599946

$$$$

 OpenBabel03252501183D

 20 21  0  0  0  0  0  0  0  0999 V2000
   39.0700   28.9360   42.4090 C   0  0  0  0  0  0  0  0  0  0  0  0
   38.1300   29.4470   41.4670 C   0  0  0  0  0  0  0  0  0  0  0  0
   36.8360   28.9620   41.5180 C   0  0  0  0  0  0  0  0  0  0  0  0
   36.5130   28.0280   42.4520 N   0  0  0  0  0  0  0  0  0  0  0  0
   37.4510   27.5700   43.3320 C   0  0  0  0  0  0  0  0  0  0  0  0
   38.7040   28.0150   43.3110 N   0  0  0  0  0  0  0  0  0  0  0  0
   40.1080   29.2250   42.4810 H   0  0  0  0  0  0  0  0  0  0  0  0
   36.9930   26.8460   43.9780 H   0  0  0  0  0  0  0  0  0  0  0  0
   38.7440   30.3750   40.6260 N   0  0  0  0  0  0  0  0  0  0  0  0
   39.2280   30.5220   39.2660 C   0  0  0  0  0  3  0  0  0  0  0  0
   39.0050   29.6820   38.6040 H   0  0  0  0  0  0  0  0  0  0  0  0
   38.7600   31.8500   38.7510 C   0  0  0  0  0  3  0  0  0  0  0  0
   38.8920   31.9240   37.6350 H   0  0  0  0  0  0  0  0  0  0  0  0
   39.6010   32.8140   39.2960 O   0  0  0  0  0  0  0  0  0  0  0  0
   40.0280   32.4880   40.5750 C   0  0  0  0  0  2  0  0  0  0  0  0
   38.9990   31.6490   41.3170 C   0  0  0  0  0  2  0  0  0  0  0  0
   35.9340   29.5310   40.5330 C   0  0  0  0  0  0  0  0  0  0  0  0
   34.6580   28.9810   40.7190 F   0  0  0  0  0  0  0  0  0  0  0  0
   36.3190   29.0760   39.2950 F   0  0  0  0  0  0  0  0  0  0  0  0
   35.7860   30.8870   40.6130 F   0  0  0  0  0  0  0  0  0  0  0  0
  1  7  1  0  0  0  0
  1  6  1  0  0  0  0
  2  3  1  0  0  0  0
  2  1  2  0  0  0  0
  3  4  2  0  0  0  0
  4  5  1  0  0  0  0
  5  8  1  0  0  0  0
  6  5  2  0  0  0  0
  9 16  1  0  0  0  0
  9  2  1  0  0  0  0
 10  9  1  0  0  0  0
 11 10  1  0  0  0  0
 12 10  1  0  0  0  0
 12 14  1  0  0  0  0
 13 12  1  0  0  0  0
 14 15  1  0  0  0  0
 15 16  1  0  0  0  0
 17 20  1  0  0  0  0
 17 18  1  0  0  0  0
 17  3  1  0  0  0  0
 19 17  1  0  0  0  0
M  END
>  <minimizedAffinity>
-4.11952829

$$$$

 OpenBabel03252501183D

 20 21  0  0  0  0  0  0  0  0999 V2000
   36.3250   27.1790   39.2950 C   0  0  0  0  0  0  0  0  0  0  0  0
   36.8080   26.5080   40.4560 C   0  0  0  0  0  0  0  0  0  0  0  0
   36.9090   25.1290   40.4110 C   0  0  0  0  0  0  0  0  0  0  0  0
   36.5480   24.4750   39.2740 N   0  0  0  0  0  0  0  0  0  0  0  0
   36.0910   25.1640   38.1880 C   0  0  0  0  0  0  0  0  0  0  0  0
   35.9810   26.4900   38.1980 N   0  0  0  0  0  0  0  0  0  0  0  0
   36.1970   28.2470   39.1940 H   0  0  0  0  0  0  0  0  0  0  0  0
   35.8640   24.4650   37.4070 H   0  0  0  0  0  0  0  0  0  0  0  0
   37.0830   27.4280   41.4680 N   0  0  0  0  0  0  0  0  0  0  0  0
   36.5900   27.8700   42.7590 C   0  0  0  0  0  3  0  0  0  0  0  0
   35.7690   27.2760   43.1670 H   0  0  0  0  0  0  0  0  0  0  0  0
   37.7660   28.0050   43.6800 C   0  0  0  0  0  3  0  0  0  0  0  0
   37.4350   28.1080   44.7510 H   0  0  0  0  0  0  0  0  0  0  0  0
   38.3940   29.2040   43.3600 O   0  0  0  0  0  0  0  0  0  0  0  0
   38.3200   29.5010   42.0070 C   0  0  0  0  0  2  0  0  0  0  0  0
   38.2690   28.2410   41.1540 C   0  0  0  0  0  2  0  0  0  0  0  0
   37.4110   24.5160   41.6260 C   0  0  0  0  0  0  0  0  0  0  0  0
   37.5600   23.1390   41.4080 F   0  0  0  0  0  0  0  0  0  0  0  0
   36.4270   24.6010   42.5810 F   0  0  0  0  0  0  0  0  0  0  0  0
   38.6310   24.9770   42.0340 F   0  0  0  0  0  0  0  0  0  0  0  0
  1  2  1  0  0  0  0
  2  9  1  0  0  0  0
  3  2  2  0  0  0  0
  3 17  1  0  0  0  0
  4  3  1  0  0  0  0
  5  6  1  0  0  0  0
  5  4  2  0  0  0  0
  6  1  2  0  0  0  0
  7  1  1  0  0  0  0
  8  5  1  0  0  0  0
  9 10  1  0  0  0  0
 10 11  1  0  0  0  0
 10 12  1  0  0  0  0
 12 13  1  0  0  0  0
 14 12  1  0  0  0  0
 15 14  1  0  0  0  0
 16  9  1  0  0  0  0
 16 15  1  0  0  0  0
 17 20  1  0  0  0  0
 17 19  1  0  0  0  0
 18 17  1  0  0  0  0
M  END
>  <minimizedAffinity>
-4.09680176

$$$$

 OpenBabel03252501183D

 20 21  0  0  0  0  0  0  0  0999 V2000
   39.4240   27.3930   40.2590 C   0  0  0  0  0  0  0  0  0  0  0  0
   38.4110   27.9950   41.0610 C   0  0  0  0  0  0  0  0  0  0  0  0
   37.7850   27.2070   42.0110 C   0  0  0  0  0  0  0  0  0  0  0  0
   38.1560   25.9050   42.1410 N   0  0  0  0  0  0  0  0  0  0  0  0
   39.1320   25.3750   41.3470 C   0  0  0  0  0  0  0  0  0  0  0  0
   39.7540   26.1050   40.4250 N   0  0  0  0  0  0  0  0  0  0  0  0
   39.9900   27.8900   39.4850 H   0  0  0  0  0  0  0  0  0  0  0  0
   39.2700   24.3450   41.6110 H   0  0  0  0  0  0  0  0  0  0  0  0
   38.2330   29.3290   40.6960 N   0  0  0  0  0  0  0  0  0  0  0  0
   38.5240   30.6740   41.1530 C   0  0  0  0  0  3  0  0  0  0  0  0
   39.1530   30.7330   42.0450 H   0  0  0  0  0  0  0  0  0  0  0  0
   39.0420   31.4570   39.9850 C   0  0  0  0  0  3  0  0  0  0  0  0
   39.5100   32.4260   40.3170 H   0  0  0  0  0  0  0  0  0  0  0  0
   37.9400   31.8140   39.2160 O   0  0  0  0  0  0  0  0  0  0  0  0
   36.9430   30.8490   39.2330 C   0  0  0  0  0  2  0  0  0  0  0  0
   37.5130   29.4510   39.4180 C   0  0  0  0  0  2  0  0  0  0  0  0
   36.7690   27.8870   42.7920 C   0  0  0  0  0  0  0  0  0  0  0  0
   36.1450   26.9530   43.6310 F   0  0  0  0  0  0  0  0  0  0  0  0
   35.7730   28.2860   41.9340 F   0  0  0  0  0  0  0  0  0  0  0  0
   37.2440   28.8790   43.6020 F   0  0  0  0  0  0  0  0  0  0  0  0
  1  6  2  0  0  0  0
  1  2  1  0  0  0  0
  2  3  2  0  0  0  0
  3  4  1  0  0  0  0
  3 17  1  0  0  0  0
  5  8  1  0  0  0  0
  5  4  2  0  0  0  0
  6  5  1  0  0  0  0
  7  1  1  0  0  0  0
  9  2  1  0  0  0  0
  9 10  1  0  0  0  0
 10 11  1  0  0  0  0
 12 13  1  0  0  0  0
 12 10  1  0  0  0  0
 14 15  1  0  0  0  0
 14 12  1  0  0  0  0
 15 16  1  0  0  0  0
 16  9  1  0  0  0  0
 17 20  1  0  0  0  0
 17 18  1  0  0  0  0
 19 17  1  0  0  0  0
M  END
>  <minimizedAffinity>
-4.00384331

$$$$
