
 OpenBabel03242519013D

 38 41  0  0  1  0  0  0  0  0999 V2000
   37.7670   27.8630   43.5890 C   0  0  1  0  0  0  0  0  0  0  0  0
   36.3190   27.7990   43.1930 C   0  0  0  0  0  0  0  0  0  0  0  0
   37.0550   26.6290   43.0910 C   0  0  1  0  0  0  0  0  0  0  0  0
   38.0720   27.8690   44.6700 H   0  0  0  0  0  0  0  0  0  0  0  0
   35.6400   27.9640   44.0850 H   0  0  0  0  0  0  0  0  0  0  0  0
   35.9870   28.4730   42.3680 H   0  0  0  0  0  0  0  0  0  0  0  0
   37.1120   25.8380   43.8740 H   0  0  0  0  0  0  0  0  0  0  0  0
   38.7030   28.6200   42.7610 C   0  0  0  0  0  0  0  0  0  0  0  0
   40.0660   28.3390   42.9370 C   0  0  0  0  0  0  0  0  0  0  0  0
   40.9660   29.0650   42.1380 C   0  0  0  0  0  0  0  0  0  0  0  0
   40.4470   29.9790   41.2610 N   0  0  0  0  0  0  0  0  0  0  0  0
   39.0990   30.2070   41.1370 C   0  0  0  0  0  0  0  0  0  0  0  0
   38.2050   29.5210   41.8950 N   0  0  0  0  0  0  0  0  0  0  0  0
   40.5360   27.6840   43.6010 H   0  0  0  0  0  0  0  0  0  0  0  0
   42.0400   28.9410   42.1770 H   0  0  0  0  0  0  0  0  0  0  0  0
   38.6810   31.1820   40.1920 N   0  0  0  0  0  0  0  0  0  0  0  0
   39.2650   31.1930   38.8870 C   0  0  0  0  0  3  0  0  0  0  0  0
   40.1450   31.8690   38.8070 H   0  0  0  0  0  0  0  0  0  0  0  0
   38.2120   31.4680   37.8670 C   0  0  0  0  0  3  0  0  0  0  0  0
   37.7270   30.4980   37.5930 H   0  0  0  0  0  0  0  0  0  0  0  0
   37.2230   32.3350   38.2240 O   0  0  0  0  0  0  0  0  0  0  0  0
   37.3790   33.0190   39.3980 C   0  0  0  0  0  2  0  0  0  0  0  0
   37.6800   32.1300   40.5800 C   0  0  0  0  0  2  0  0  0  0  0  0
   37.3090   26.0250   41.7550 C   0  0  0  0  0  0  0  0  0  0  0  0
   36.8680   26.5970   40.5840 C   0  0  0  0  0  0  0  0  0  0  0  0
   37.0400   26.0590   39.3370 C   0  0  0  0  0  0  0  0  0  0  0  0
   37.7030   24.8580   39.2450 C   0  0  0  0  0  0  0  0  0  0  0  0
   38.1660   24.2470   40.4090 C   0  0  0  0  0  0  0  0  0  0  0  0
   37.9570   24.8410   41.6220 C   0  0  0  0  0  0  0  0  0  0  0  0
   36.3420   27.5460   40.6190 H   0  0  0  0  0  0  0  0  0  0  0  0
   36.6620   26.5670   38.4530 H   0  0  0  0  0  0  0  0  0  0  0  0
   37.8190   24.4630   38.2210 H   0  0  0  0  0  0  0  0  0  0  0  0
   38.6610   23.3170   40.1530 H   0  0  0  0  0  0  0  0  0  0  0  0
   39.9120   24.2540   42.8790 C   0  0  0  0  0  0  0  0  0  0  0  0
   40.2370   25.2190   42.1840 O   0  0  0  0  0  0  0  0  0  0  0  0
   38.5270   23.9650   42.6130 N   0  0  0  0  0  0  0  0  0  0  0  0
   40.3910   23.6080   43.6000 H   0  0  0  0  0  0  0  0  0  0  0  0
   37.9310   23.2140   43.0540 H   0  0  0  0  0  0  0  0  0  0  0  0
  1  4  1  1  0  0  0
  2  1  1  0  0  0  0
  2  5  1  0  0  0  0
  3  2  1  0  0  0  0
  3  1  1  0  0  0  0
  3  7  1  1  0  0  0
  6  2  1  0  0  0  0
  8  9  1  0  0  0  0
  8  1  1  0  0  0  0
  9 14  1  0  0  0  0
 10 15  1  0  0  0  0
 10  9  2  0  0  0  0
 11 10  1  0  0  0  0
 12 11  2  0  0  0  0
 12 13  1  0  0  0  0
 13  8  2  0  0  0  0
 16 23  1  0  0  0  0
 16 12  1  0  0  0  0
 17 16  1  0  0  0  0
 18 17  1  0  0  0  0
 19 21  1  0  0  0  0
 19 17  1  0  0  0  0
 20 19  1  0  0  0  0
 21 22  1  0  0  0  0
 22 23  1  0  0  0  0
 24  3  1  0  0  0  0
 25 30  1  0  0  0  0
 25 24  2  0  0  0  0
 26 25  1  0  0  0  0
 27 26  2  0  0  0  0
 27 28  1  0  0  0  0
 28 29  2  0  0  0  0
 29 24  1  0  0  0  0
 29 36  1  0  0  0  0
 31 26  1  0  0  0  0
 32 27  1  0  0  0  0
 33 28  1  0  0  0  0
 34 37  1  0  0  0  0
 35 34  2  0  0  0  0
 36 34  1  0  0  0  0
 36 38  1  0  0  0  0
M  END
>  <minimizedAffinity>
-6.04759407

$$$$

 OpenBabel03242519013D

 38 41  0  0  1  0  0  0  0  0999 V2000
   36.3430   29.4290   37.2140 C   0  0  1  0  0  0  0  0  0  0  0  0
   35.5720   28.1470   37.0740 C   0  0  0  0  0  0  0  0  0  0  0  0
   35.4700   28.8190   38.2820 C   0  0  1  0  0  0  0  0  0  0  0  0
   35.9760   30.3800   36.7420 H   0  0  0  0  0  0  0  0  0  0  0  0
   34.7490   28.2440   36.3010 H   0  0  0  0  0  0  0  0  0  0  0  0
   36.1570   27.2240   36.8520 H   0  0  0  0  0  0  0  0  0  0  0  0
   34.6630   29.5420   38.5470 H   0  0  0  0  0  0  0  0  0  0  0  0
   37.8030   29.3850   37.2700 C   0  0  0  0  0  0  0  0  0  0  0  0
   38.4110   28.1840   36.8780 C   0  0  0  0  0  0  0  0  0  0  0  0
   39.8140   28.1440   36.9280 C   0  0  0  0  0  0  0  0  0  0  0  0
   40.4700   29.2690   37.3530 N   0  0  0  0  0  0  0  0  0  0  0  0
   39.8140   30.4150   37.7240 C   0  0  0  0  0  0  0  0  0  0  0  0
   38.4590   30.4840   37.6860 N   0  0  0  0  0  0  0  0  0  0  0  0
   37.9800   27.2820   36.5730 H   0  0  0  0  0  0  0  0  0  0  0  0
   40.4020   27.2790   36.6510 H   0  0  0  0  0  0  0  0  0  0  0  0
   40.6040   31.5170   38.1490 N   0  0  0  0  0  0  0  0  0  0  0  0
   41.7640   31.8810   37.3970 C   0  0  0  0  0  3  0  0  0  0  0  0
   42.6960   31.4020   37.7700 H   0  0  0  0  0  0  0  0  0  0  0  0
   41.8580   33.3670   37.3050 C   0  0  0  0  0  3  0  0  0  0  0  0
   41.2430   33.7040   36.4330 H   0  0  0  0  0  0  0  0  0  0  0  0
   41.4500   34.0770   38.3950 O   0  0  0  0  0  0  0  0  0  0  0  0
   41.1750   33.3750   39.5350 C   0  0  0  0  0  2  0  0  0  0  0  0
   40.2100   32.2330   39.3240 C   0  0  0  0  0  2  0  0  0  0  0  0
   36.0100   28.2020   39.5230 C   0  0  0  0  0  0  0  0  0  0  0  0
   36.5330   26.9310   39.5560 C   0  0  0  0  0  0  0  0  0  0  0  0
   37.0030   26.3060   40.6790 C   0  0  0  0  0  0  0  0  0  0  0  0
   36.9500   26.9990   41.8660 C   0  0  0  0  0  0  0  0  0  0  0  0
   36.4270   28.2910   41.8740 C   0  0  0  0  0  0  0  0  0  0  0  0
   35.9730   28.8530   40.7140 C   0  0  0  0  0  0  0  0  0  0  0  0
   36.5920   26.3550   38.6370 H   0  0  0  0  0  0  0  0  0  0  0  0
   37.4030   25.2960   40.6300 H   0  0  0  0  0  0  0  0  0  0  0  0
   37.3400   26.4560   42.7450 H   0  0  0  0  0  0  0  0  0  0  0  0
   36.4610   28.6840   42.8830 H   0  0  0  0  0  0  0  0  0  0  0  0
   36.5230   31.1610   41.0550 C   0  0  0  0  0  0  0  0  0  0  0  0
   37.5760   30.6100   40.7280 O   0  0  0  0  0  0  0  0  0  0  0  0
   35.4830   30.1640   41.0550 N   0  0  0  0  0  0  0  0  0  0  0  0
   36.2080   32.1580   41.3270 H   0  0  0  0  0  0  0  0  0  0  0  0
   34.4600   30.3020   41.2690 H   0  0  0  0  0  0  0  0  0  0  0  0
  1  4  1  6  0  0  0
  1  8  1  0  0  0  0
  1  3  1  0  0  0  0
  2  1  1  0  0  0  0
  2  3  1  0  0  0  0
  3  7  1  1  0  0  0
  3 24  1  0  0  0  0
  5  2  1  0  0  0  0
  6  2  1  0  0  0  0
  8 13  1  0  0  0  0
  9 10  1  0  0  0  0
  9  8  2  0  0  0  0
 10 11  2  0  0  0  0
 11 12  1  0  0  0  0
 12 16  1  0  0  0  0
 13 12  2  0  0  0  0
 14  9  1  0  0  0  0
 15 10  1  0  0  0  0
 16 23  1  0  0  0  0
 17 18  1  0  0  0  0
 17 16  1  0  0  0  0
 19 17  1  0  0  0  0
 19 21  1  0  0  0  0
 20 19  1  0  0  0  0
 21 22  1  0  0  0  0
 23 22  1  0  0  0  0
 24 25  2  0  0  0  0
 24 29  1  0  0  0  0
 25 26  1  0  0  0  0
 26 27  2  0  0  0  0
 27 28  1  0  0  0  0
 27 32  1  0  0  0  0
 28 33  1  0  0  0  0
 29 36  1  0  0  0  0
 29 28  2  0  0  0  0
 30 25  1  0  0  0  0
 31 26  1  0  0  0  0
 34 36  1  0  0  0  0
 34 37  1  0  0  0  0
 35 34  2  0  0  0  0
 36 38  1  0  0  0  0
M  END
>  <minimizedAffinity>
-5.82436943

$$$$

 OpenBabel03242519013D

 38 41  0  0  1  0  0  0  0  0999 V2000
   37.4240   28.4890   42.8900 C   0  0  1  0  0  0  0  0  0  0  0  0
   36.5070   27.5230   43.5840 C   0  0  0  0  0  0  0  0  0  0  0  0
   37.7920   27.0870   43.3040 C   0  0  1  0  0  0  0  0  0  0  0  0
   37.9140   29.3290   43.4520 H   0  0  0  0  0  0  0  0  0  0  0  0
   36.2450   27.8800   44.6270 H   0  0  0  0  0  0  0  0  0  0  0  0
   35.5610   27.2500   43.0580 H   0  0  0  0  0  0  0  0  0  0  0  0
   38.6530   27.1330   44.0120 H   0  0  0  0  0  0  0  0  0  0  0  0
   37.1590   28.8560   41.5000 C   0  0  0  0  0  0  0  0  0  0  0  0
   35.8230   28.7920   41.0770 C   0  0  0  0  0  0  0  0  0  0  0  0
   35.5690   29.1480   39.7410 C   0  0  0  0  0  0  0  0  0  0  0  0
   36.6340   29.5250   38.9670 N   0  0  0  0  0  0  0  0  0  0  0  0
   37.9210   29.5670   39.4440 C   0  0  0  0  0  0  0  0  0  0  0  0
   38.1970   29.2270   40.7290 N   0  0  0  0  0  0  0  0  0  0  0  0
   34.9690   28.4890   41.5950 H   0  0  0  0  0  0  0  0  0  0  0  0
   34.5840   29.1420   39.2940 H   0  0  0  0  0  0  0  0  0  0  0  0
   38.9430   29.9720   38.5440 N   0  0  0  0  0  0  0  0  0  0  0  0
   38.7310   31.1130   37.7080 C   0  0  0  0  0  3  0  0  0  0  0  0
   38.3140   30.8530   36.7100 H   0  0  0  0  0  0  0  0  0  0  0  0
   39.9820   31.9220   37.6360 C   0  0  0  0  0  3  0  0  0  0  0  0
   39.9990   32.6210   38.5090 H   0  0  0  0  0  0  0  0  0  0  0  0
   41.1590   31.2340   37.6370 O   0  0  0  0  0  0  0  0  0  0  0  0
   41.0930   29.8740   37.5120 C   0  0  0  0  0  2  0  0  0  0  0  0
   40.1600   29.2210   38.5030 C   0  0  0  0  0  2  0  0  0  0  0  0
   38.0060   25.9790   42.3340 C   0  0  0  0  0  0  0  0  0  0  0  0
   37.0890   24.9730   42.1390 C   0  0  0  0  0  0  0  0  0  0  0  0
   37.2580   23.9120   41.2910 C   0  0  0  0  0  0  0  0  0  0  0  0
   38.4320   23.8460   40.5780 C   0  0  0  0  0  0  0  0  0  0  0  0
   39.3870   24.8470   40.7470 C   0  0  0  0  0  0  0  0  0  0  0  0
   39.1510   25.8770   41.6140 C   0  0  0  0  0  0  0  0  0  0  0  0
   36.1510   24.9940   42.6850 H   0  0  0  0  0  0  0  0  0  0  0  0
   36.4890   23.1510   41.1890 H   0  0  0  0  0  0  0  0  0  0  0  0
   38.5250   22.9740   39.9060 H   0  0  0  0  0  0  0  0  0  0  0  0
   40.2410   24.6380   40.1130 H   0  0  0  0  0  0  0  0  0  0  0  0
   41.3030   26.3460   42.5600 C   0  0  0  0  0  0  0  0  0  0  0  0
   40.8790   25.3600   43.1640 O   0  0  0  0  0  0  0  0  0  0  0  0
   40.3180   26.7210   41.5780 N   0  0  0  0  0  0  0  0  0  0  0  0
   42.1890   26.9650   42.5870 H   0  0  0  0  0  0  0  0  0  0  0  0
   40.3740   27.5090   40.8800 H   0  0  0  0  0  0  0  0  0  0  0  0
  1  3  1  0  0  0  0
  1  4  1  1  0  0  0
  1  2  1  0  0  0  0
  2  5  1  0  0  0  0
  3  2  1  0  0  0  0
  3  7  1  1  0  0  0
  6  2  1  0  0  0  0
  8  1  1  0  0  0  0
  9  8  1  0  0  0  0
  9 14  1  0  0  0  0
 10  9  2  0  0  0  0
 11 12  2  0  0  0  0
 11 10  1  0  0  0  0
 12 13  1  0  0  0  0
 13  8  2  0  0  0  0
 15 10  1  0  0  0  0
 16 12  1  0  0  0  0
 17 16  1  0  0  0  0
 18 17  1  0  0  0  0
 19 21  1  0  0  0  0
 19 17  1  0  0  0  0
 19 20  1  0  0  0  0
 22 21  1  0  0  0  0
 22 23  1  0  0  0  0
 23 16  1  0  0  0  0
 24  3  1  0  0  0  0
 25 24  1  0  0  0  0
 25 30  1  0  0  0  0
 26 25  2  0  0  0  0
 27 28  2  0  0  0  0
 27 26  1  0  0  0  0
 28 29  1  0  0  0  0
 29 24  2  0  0  0  0
 31 26  1  0  0  0  0
 32 27  1  0  0  0  0
 33 28  1  0  0  0  0
 34 37  1  0  0  0  0
 34 35  2  0  0  0  0
 36 29  1  0  0  0  0
 36 34  1  0  0  0  0
 38 36  1  0  0  0  0
M  END
>  <minimizedAffinity>
-5.74022961

$$$$

 OpenBabel03242519013D

 38 41  0  0  1  0  0  0  0  0999 V2000
   35.8120   30.2510   40.3600 C   0  0  1  0  0  0  0  0  0  0  0  0
   34.8120   29.2310   39.8960 C   0  0  0  0  0  0  0  0  0  0  0  0
   35.6960   28.8440   40.8910 C   0  0  1  0  0  0  0  0  0  0  0  0
   35.5130   31.0810   41.0550 H   0  0  0  0  0  0  0  0  0  0  0  0
   33.7550   29.5370   40.1660 H   0  0  0  0  0  0  0  0  0  0  0  0
   34.8320   28.9520   38.8160 H   0  0  0  0  0  0  0  0  0  0  0  0
   35.4870   28.8870   41.9860 H   0  0  0  0  0  0  0  0  0  0  0  0
   36.8830   30.6660   39.4560 C   0  0  0  0  0  0  0  0  0  0  0  0
   36.6440   30.5100   38.0830 C   0  0  0  0  0  0  0  0  0  0  0  0
   37.6730   30.9130   37.2160 C   0  0  0  0  0  0  0  0  0  0  0  0
   38.8160   31.4200   37.7730 N   0  0  0  0  0  0  0  0  0  0  0  0
   38.9890   31.5460   39.1290 C   0  0  0  0  0  0  0  0  0  0  0  0
   38.0120   31.1650   39.9920 N   0  0  0  0  0  0  0  0  0  0  0  0
   35.8170   30.1080   37.5880 H   0  0  0  0  0  0  0  0  0  0  0  0
   37.6120   30.8450   36.1370 H   0  0  0  0  0  0  0  0  0  0  0  0
   40.2210   32.0840   39.5880 N   0  0  0  0  0  0  0  0  0  0  0  0
   40.7610   33.2450   38.9520 C   0  0  0  0  0  3  0  0  0  0  0  0
   41.4710   33.0030   38.1300 H   0  0  0  0  0  0  0  0  0  0  0  0
   41.3350   34.1610   39.9800 C   0  0  0  0  0  3  0  0  0  0  0  0
   40.5120   34.8120   40.3680 H   0  0  0  0  0  0  0  0  0  0  0  0
   41.9380   33.5780   41.0540 O   0  0  0  0  0  0  0  0  0  0  0  0
   42.1350   32.2250   41.0070 C   0  0  0  0  0  2  0  0  0  0  0  0
   40.8860   31.4430   40.6820 C   0  0  0  0  0  2  0  0  0  0  0  0
   36.7030   27.7840   40.6190 C   0  0  0  0  0  0  0  0  0  0  0  0
   36.4680   26.7370   39.7600 C   0  0  0  0  0  0  0  0  0  0  0  0
   37.3450   25.7160   39.5090 C   0  0  0  0  0  0  0  0  0  0  0  0
   38.5540   25.7380   40.1640 C   0  0  0  0  0  0  0  0  0  0  0  0
   38.8310   26.7840   41.0420 C   0  0  0  0  0  0  0  0  0  0  0  0
   37.9060   27.7700   41.2460 C   0  0  0  0  0  0  0  0  0  0  0  0
   35.5240   26.6870   39.2250 H   0  0  0  0  0  0  0  0  0  0  0  0
   37.0890   24.9180   38.8170 H   0  0  0  0  0  0  0  0  0  0  0  0
   39.2300   24.8970   39.9310 H   0  0  0  0  0  0  0  0  0  0  0  0
   39.8190   26.6440   41.4650 H   0  0  0  0  0  0  0  0  0  0  0  0
   38.0820   28.3700   43.5600 C   0  0  0  0  0  0  0  0  0  0  0  0
   37.3640   27.3680   43.5270 O   0  0  0  0  0  0  0  0  0  0  0  0
   38.4760   28.6770   42.2090 N   0  0  0  0  0  0  0  0  0  0  0  0
   38.4660   29.0370   44.3180 H   0  0  0  0  0  0  0  0  0  0  0  0
   39.1050   29.4580   41.8850 H   0  0  0  0  0  0  0  0  0  0  0  0
  1  3  1  0  0  0  0
  1  4  1  1  0  0  0
  2  5  1  0  0  0  0
  2  1  1  0  0  0  0
  2  3  1  0  0  0  0
  3  7  1  1  0  0  0
  6  2  1  0  0  0  0
  8 13  1  0  0  0  0
  8  1  1  0  0  0  0
  9  8  2  0  0  0  0
 10 11  2  0  0  0  0
 10  9  1  0  0  0  0
 11 12  1  0  0  0  0
 12 16  1  0  0  0  0
 12 13  2  0  0  0  0
 14  9  1  0  0  0  0
 15 10  1  0  0  0  0
 16 23  1  0  0  0  0
 17 16  1  0  0  0  0
 17 19  1  0  0  0  0
 18 17  1  0  0  0  0
 19 20  1  0  0  0  0
 19 21  1  0  0  0  0
 22 21  1  0  0  0  0
 23 22  1  0  0  0  0
 24  3  1  0  0  0  0
 24 29  1  0  0  0  0
 25 24  2  0  0  0  0
 26 25  1  0  0  0  0
 26 27  2  0  0  0  0
 27 28  1  0  0  0  0
 28 29  2  0  0  0  0
 28 33  1  0  0  0  0
 29 36  1  0  0  0  0
 30 25  1  0  0  0  0
 31 26  1  0  0  0  0
 32 27  1  0  0  0  0
 34 37  1  0  0  0  0
 35 34  2  0  0  0  0
 36 34  1  0  0  0  0
 38 36  1  0  0  0  0
M  END
>  <minimizedAffinity>
-5.64897728

$$$$

 OpenBabel03242519013D

 38 41  0  0  1  0  0  0  0  0999 V2000
   37.7010   29.2240   37.9780 C   0  0  1  0  0  0  0  0  0  0  0  0
   36.8060   30.1750   37.2350 C   0  0  0  0  0  0  0  0  0  0  0  0
   38.0840   30.6160   37.5420 C   0  0  1  0  0  0  0  0  0  0  0  0
   38.2060   28.3710   37.4500 H   0  0  0  0  0  0  0  0  0  0  0  0
   36.5750   29.7940   36.1920 H   0  0  0  0  0  0  0  0  0  0  0  0
   35.8460   30.4610   37.7260 H   0  0  0  0  0  0  0  0  0  0  0  0
   38.9650   30.5530   36.8620 H   0  0  0  0  0  0  0  0  0  0  0  0
   37.3940   28.8900   39.3670 C   0  0  0  0  0  0  0  0  0  0  0  0
   36.0560   29.0270   39.7660 C   0  0  0  0  0  0  0  0  0  0  0  0
   35.7620   28.7020   41.1010 C   0  0  0  0  0  0  0  0  0  0  0  0
   36.7930   28.2820   41.8980 N   0  0  0  0  0  0  0  0  0  0  0  0
   38.0830   28.1690   41.4450 C   0  0  0  0  0  0  0  0  0  0  0  0
   38.3980   28.4760   40.1610 N   0  0  0  0  0  0  0  0  0  0  0  0
   35.2280   29.3670   39.2290 H   0  0  0  0  0  0  0  0  0  0  0  0
   34.7710   28.7650   41.5310 H   0  0  0  0  0  0  0  0  0  0  0  0
   39.0680   27.7240   42.3680 N   0  0  0  0  0  0  0  0  0  0  0  0
   38.7840   26.6060   43.2140 C   0  0  0  0  0  3  0  0  0  0  0  0
   38.3640   26.9000   44.2010 H   0  0  0  0  0  0  0  0  0  0  0  0
   39.9910   25.7360   43.3180 C   0  0  0  0  0  3  0  0  0  0  0  0
   39.9870   25.0250   42.4540 H   0  0  0  0  0  0  0  0  0  0  0  0
   41.2010   26.3620   43.3290 O   0  0  0  0  0  0  0  0  0  0  0  0
   41.2020   27.7260   43.4360 C   0  0  0  0  0  2  0  0  0  0  0  0
   40.3210   28.4130   42.4210 C   0  0  0  0  0  2  0  0  0  0  0  0
   38.2700   31.7460   38.4920 C   0  0  0  0  0  0  0  0  0  0  0  0
   37.2640   32.6300   38.8040 C   0  0  0  0  0  0  0  0  0  0  0  0
   37.3980   33.7070   39.6390 C   0  0  0  0  0  0  0  0  0  0  0  0
   38.6310   33.9230   40.2090 C   0  0  0  0  0  0  0  0  0  0  0  0
   39.6760   33.0480   39.9190 C   0  0  0  0  0  0  0  0  0  0  0  0
   39.4710   31.9940   39.0740 C   0  0  0  0  0  0  0  0  0  0  0  0
   36.2780   32.4890   38.3730 H   0  0  0  0  0  0  0  0  0  0  0  0
   36.5570   34.3660   39.8390 H   0  0  0  0  0  0  0  0  0  0  0  0
   38.6920   34.8020   40.8750 H   0  0  0  0  0  0  0  0  0  0  0  0
   40.5660   33.3650   40.4500 H   0  0  0  0  0  0  0  0  0  0  0  0
   41.5050   31.7420   37.8320 C   0  0  0  0  0  0  0  0  0  0  0  0
   40.8730   32.6350   37.2640 O   0  0  0  0  0  0  0  0  0  0  0  0
   40.7300   31.3030   38.9630 N   0  0  0  0  0  0  0  0  0  0  0  0
   42.4500   31.2360   37.6930 H   0  0  0  0  0  0  0  0  0  0  0  0
   40.9880   30.5670   39.6720 H   0  0  0  0  0  0  0  0  0  0  0  0
  1  4  1  6  0  0  0
  1  8  1  0  0  0  0
  2  3  1  0  0  0  0
  2  6  1  0  0  0  0
  2  1  1  0  0  0  0
  3  7  1  6  0  0  0
  3  1  1  0  0  0  0
  3 24  1  0  0  0  0
  5  2  1  0  0  0  0
  8  9  2  0  0  0  0
  8 13  1  0  0  0  0
  9 10  1  0  0  0  0
 10 15  1  0  0  0  0
 10 11  2  0  0  0  0
 12 11  1  0  0  0  0
 12 16  1  0  0  0  0
 13 12  2  0  0  0  0
 14  9  1  0  0  0  0
 16 23  1  0  0  0  0
 16 17  1  0  0  0  0
 17 19  1  0  0  0  0
 17 18  1  0  0  0  0
 19 21  1  0  0  0  0
 20 19  1  0  0  0  0
 21 22  1  0  0  0  0
 23 22  1  0  0  0  0
 24 25  2  0  0  0  0
 24 29  1  0  0  0  0
 25 26  1  0  0  0  0
 26 31  1  0  0  0  0
 26 27  2  0  0  0  0
 27 32  1  0  0  0  0
 28 27  1  0  0  0  0
 28 33  1  0  0  0  0
 29 28  2  0  0  0  0
 30 25  1  0  0  0  0
 34 36  1  0  0  0  0
 35 34  2  0  0  0  0
 36 29  1  0  0  0  0
 36 38  1  0  0  0  0
 37 34  1  0  0  0  0
M  END
>  <minimizedAffinity>
-5.63216925

$$$$

 OpenBabel03242519013D

 38 41  0  0  1  0  0  0  0  0999 V2000
   36.7960   25.3790   42.4410 C   0  0  1  0  0  0  0  0  0  0  0  0
   36.9080   24.5400   41.2010 C   0  0  0  0  0  0  0  0  0  0  0  0
   37.8600   24.3400   42.1880 C   0  0  1  0  0  0  0  0  0  0  0  0
   36.0370   25.1430   43.2340 H   0  0  0  0  0  0  0  0  0  0  0  0
   36.0330   23.8250   41.1060 H   0  0  0  0  0  0  0  0  0  0  0  0
   37.0300   25.0770   40.2310 H   0  0  0  0  0  0  0  0  0  0  0  0
   37.8040   23.5630   42.9850 H   0  0  0  0  0  0  0  0  0  0  0  0
   37.0620   26.8140   42.3620 C   0  0  0  0  0  0  0  0  0  0  0  0
   37.3340   27.4710   43.5710 C   0  0  0  0  0  0  0  0  0  0  0  0
   37.5930   28.8500   43.4920 C   0  0  0  0  0  0  0  0  0  0  0  0
   37.5600   29.4370   42.2560 N   0  0  0  0  0  0  0  0  0  0  0  0
   37.2870   28.7350   41.1080 C   0  0  0  0  0  0  0  0  0  0  0  0
   37.0320   27.4020   41.1520 N   0  0  0  0  0  0  0  0  0  0  0  0
   37.3480   27.1010   44.5470 H   0  0  0  0  0  0  0  0  0  0  0  0
   37.8170   29.4700   44.3510 H   0  0  0  0  0  0  0  0  0  0  0  0
   37.2790   29.4550   39.8830 N   0  0  0  0  0  0  0  0  0  0  0  0
   38.3300   30.3850   39.6080 C   0  0  0  0  0  3  0  0  0  0  0  0
   38.0870   31.4250   39.9210 H   0  0  0  0  0  0  0  0  0  0  0  0
   38.7350   30.2770   38.1760 C   0  0  0  0  0  3  0  0  0  0  0  0
   39.4950   29.4610   38.0870 H   0  0  0  0  0  0  0  0  0  0  0  0
   37.7450   30.0160   37.2760 O   0  0  0  0  0  0  0  0  0  0  0  0
   36.4550   30.0660   37.7280 C   0  0  0  0  0  2  0  0  0  0  0  0
   36.2120   29.2250   38.9570 C   0  0  0  0  0  2  0  0  0  0  0  0
   39.2850   24.6790   41.9260 C   0  0  0  0  0  0  0  0  0  0  0  0
   40.2480   24.6610   42.9070 C   0  0  0  0  0  0  0  0  0  0  0  0
   41.5600   25.0040   42.7250 C   0  0  0  0  0  0  0  0  0  0  0  0
   41.9480   25.3960   41.4650 C   0  0  0  0  0  0  0  0  0  0  0  0
   41.0020   25.4270   40.4420 C   0  0  0  0  0  0  0  0  0  0  0  0
   39.7070   25.0730   40.6980 C   0  0  0  0  0  0  0  0  0  0  0  0
   39.9770   24.3550   43.9140 H   0  0  0  0  0  0  0  0  0  0  0  0
   42.2670   24.9670   43.5500 H   0  0  0  0  0  0  0  0  0  0  0  0
   43.0150   25.6630   41.3630 H   0  0  0  0  0  0  0  0  0  0  0  0
   41.4760   25.7560   39.5250 H   0  0  0  0  0  0  0  0  0  0  0  0
   39.0770   24.0660   38.6150 C   0  0  0  0  0  0  0  0  0  0  0  0
   39.7470   23.2190   39.2090 O   0  0  0  0  0  0  0  0  0  0  0  0
   38.9850   25.2280   39.4610 N   0  0  0  0  0  0  0  0  0  0  0  0
   38.5700   24.1440   37.6640 H   0  0  0  0  0  0  0  0  0  0  0  0
   38.4680   26.1260   39.2650 H   0  0  0  0  0  0  0  0  0  0  0  0
  1  4  1  1  0  0  0
  2  3  1  0  0  0  0
  2  1  1  0  0  0  0
  3  1  1  0  0  0  0
  3  7  1  1  0  0  0
  5  2  1  0  0  0  0
  6  2  1  0  0  0  0
  8  1  1  0  0  0  0
  8  9  1  0  0  0  0
  9 14  1  0  0  0  0
 10  9  2  0  0  0  0
 10 15  1  0  0  0  0
 11 10  1  0  0  0  0
 12 13  1  0  0  0  0
 12 11  2  0  0  0  0
 13  8  2  0  0  0  0
 16 12  1  0  0  0  0
 17 16  1  0  0  0  0
 17 18  1  0  0  0  0
 19 17  1  0  0  0  0
 20 19  1  0  0  0  0
 21 22  1  0  0  0  0
 21 19  1  0  0  0  0
 22 23  1  0  0  0  0
 23 16  1  0  0  0  0
 24  3  1  0  0  0  0
 24 25  1  0  0  0  0
 25 30  1  0  0  0  0
 26 25  2  0  0  0  0
 26 31  1  0  0  0  0
 27 26  1  0  0  0  0
 28 29  1  0  0  0  0
 28 27  2  0  0  0  0
 29 24  2  0  0  0  0
 32 27  1  0  0  0  0
 33 28  1  0  0  0  0
 34 35  2  0  0  0  0
 34 36  1  0  0  0  0
 36 29  1  0  0  0  0
 37 34  1  0  0  0  0
 38 36  1  0  0  0  0
M  END
>  <minimizedAffinity>
-5.61836529

$$$$

 OpenBabel03242519013D

 38 41  0  0  1  0  0  0  0  0999 V2000
   38.2170   32.2040   38.3350 C   0  0  1  0  0  0  0  0  0  0  0  0
   36.9560   31.3870   38.3640 C   0  0  0  0  0  0  0  0  0  0  0  0
   37.3340   32.0100   39.5430 C   0  0  1  0  0  0  0  0  0  0  0  0
   38.2320   33.2300   37.8790 H   0  0  0  0  0  0  0  0  0  0  0  0
   36.1510   31.8480   37.7130 H   0  0  0  0  0  0  0  0  0  0  0  0
   37.0440   30.3060   38.1030 H   0  0  0  0  0  0  0  0  0  0  0  0
   36.9690   33.0050   39.8880 H   0  0  0  0  0  0  0  0  0  0  0  0
   39.5040   31.5290   38.1850 C   0  0  0  0  0  0  0  0  0  0  0  0
   39.4670   30.1850   37.7850 C   0  0  0  0  0  0  0  0  0  0  0  0
   40.7050   29.5390   37.6360 C   0  0  0  0  0  0  0  0  0  0  0  0
   41.8390   30.2630   37.8910 N   0  0  0  0  0  0  0  0  0  0  0  0
   41.8070   31.5790   38.2800 C   0  0  0  0  0  0  0  0  0  0  0  0
   40.6250   32.2310   38.4320 N   0  0  0  0  0  0  0  0  0  0  0  0
   38.6490   29.5620   37.6020 H   0  0  0  0  0  0  0  0  0  0  0  0
   40.8120   28.5060   37.3330 H   0  0  0  0  0  0  0  0  0  0  0  0
   43.0500   32.2260   38.5170 N   0  0  0  0  0  0  0  0  0  0  0  0
   44.1200   32.0530   37.5850 C   0  0  0  0  0  3  0  0  0  0  0  0
   44.8010   31.2150   37.8510 H   0  0  0  0  0  0  0  0  0  0  0  0
   44.8290   33.3510   37.3880 C   0  0  0  0  0  3  0  0  0  0  0  0
   44.2910   33.9280   36.5940 H   0  0  0  0  0  0  0  0  0  0  0  0
   44.9420   34.1610   38.4790 O   0  0  0  0  0  0  0  0  0  0  0  0
   44.5730   33.6420   39.6890 C   0  0  0  0  0  2  0  0  0  0  0  0
   43.1910   33.0340   39.6900 C   0  0  0  0  0  2  0  0  0  0  0  0
   37.7320   31.1920   40.7210 C   0  0  0  0  0  0  0  0  0  0  0  0
   39.0040   31.2060   41.2420 C   0  0  0  0  0  0  0  0  0  0  0  0
   39.4290   30.4420   42.2950 C   0  0  0  0  0  0  0  0  0  0  0  0
   38.5150   29.5970   42.8800 C   0  0  0  0  0  0  0  0  0  0  0  0
   37.2140   29.5540   42.3810 C   0  0  0  0  0  0  0  0  0  0  0  0
   36.8600   30.3450   41.3240 C   0  0  0  0  0  0  0  0  0  0  0  0
   39.7520   31.8630   40.8060 H   0  0  0  0  0  0  0  0  0  0  0  0
   40.4530   30.5050   42.6530 H   0  0  0  0  0  0  0  0  0  0  0  0
   38.9000   29.0010   43.7260 H   0  0  0  0  0  0  0  0  0  0  0  0
   36.6330   28.8410   42.9560 H   0  0  0  0  0  0  0  0  0  0  0  0
   35.3120   28.8750   40.2330 C   0  0  0  0  0  0  0  0  0  0  0  0
   36.4300   28.4010   40.0230 O   0  0  0  0  0  0  0  0  0  0  0  0
   35.4780   30.0580   41.0390 N   0  0  0  0  0  0  0  0  0  0  0  0
   34.2920   28.6310   39.9740 H   0  0  0  0  0  0  0  0  0  0  0  0
   34.7230   30.6910   41.4130 H   0  0  0  0  0  0  0  0  0  0  0  0
  1  4  1  6  0  0  0
  1  2  1  0  0  0  0
  1  3  1  0  0  0  0
  2  3  1  0  0  0  0
  3  7  1  1  0  0  0
  3 24  1  0  0  0  0
  5  2  1  0  0  0  0
  6  2  1  0  0  0  0
  8  1  1  0  0  0  0
  8 13  1  0  0  0  0
  9  8  2  0  0  0  0
 10  9  1  0  0  0  0
 10 11  2  0  0  0  0
 11 12  1  0  0  0  0
 12 13  2  0  0  0  0
 12 16  1  0  0  0  0
 14  9  1  0  0  0  0
 15 10  1  0  0  0  0
 16 23  1  0  0  0  0
 17 18  1  0  0  0  0
 17 16  1  0  0  0  0
 19 17  1  0  0  0  0
 19 21  1  0  0  0  0
 20 19  1  0  0  0  0
 21 22  1  0  0  0  0
 22 23  1  0  0  0  0
 24 25  2  0  0  0  0
 24 29  1  0  0  0  0
 25 26  1  0  0  0  0
 26 31  1  0  0  0  0
 26 27  2  0  0  0  0
 27 32  1  0  0  0  0
 28 27  1  0  0  0  0
 28 33  1  0  0  0  0
 29 28  2  0  0  0  0
 30 25  1  0  0  0  0
 34 36  1  0  0  0  0
 35 34  2  0  0  0  0
 36 29  1  0  0  0  0
 36 38  1  0  0  0  0
 37 34  1  0  0  0  0
M  END
>  <minimizedAffinity>
-5.57380247

$$$$

 OpenBabel03242519013D

 38 41  0  0  1  0  0  0  0  0999 V2000
   36.2540   27.8680   39.3810 C   0  0  1  0  0  0  0  0  0  0  0  0
   37.2840   26.8790   38.9170 C   0  0  0  0  0  0  0  0  0  0  0  0
   36.7080   26.6580   40.1580 C   0  0  1  0  0  0  0  0  0  0  0  0
   35.2060   27.8460   38.9770 H   0  0  0  0  0  0  0  0  0  0  0  0
   36.9200   26.2980   38.0130 H   0  0  0  0  0  0  0  0  0  0  0  0
   38.3040   27.2710   38.6950 H   0  0  0  0  0  0  0  0  0  0  0  0
   35.8290   26.0000   40.3490 H   0  0  0  0  0  0  0  0  0  0  0  0
   36.6690   29.2270   39.7250 C   0  0  0  0  0  0  0  0  0  0  0  0
   35.8210   29.9460   40.5790 C   0  0  0  0  0  0  0  0  0  0  0  0
   36.2240   31.2500   40.9120 C   0  0  0  0  0  0  0  0  0  0  0  0
   37.3990   31.7120   40.3820 N   0  0  0  0  0  0  0  0  0  0  0  0
   38.1850   30.9550   39.5490 C   0  0  0  0  0  0  0  0  0  0  0  0
   37.8220   29.6910   39.2090 N   0  0  0  0  0  0  0  0  0  0  0  0
   34.9030   29.6760   40.9960 H   0  0  0  0  0  0  0  0  0  0  0  0
   35.6590   31.9070   41.5620 H   0  0  0  0  0  0  0  0  0  0  0  0
   39.3820   31.5430   39.0600 N   0  0  0  0  0  0  0  0  0  0  0  0
   40.2320   32.2600   39.9600 C   0  0  0  0  0  3  0  0  0  0  0  0
   40.0150   33.3500   39.9910 H   0  0  0  0  0  0  0  0  0  0  0  0
   41.6590   31.9480   39.6590 C   0  0  0  0  0  3  0  0  0  0  0  0
   41.9380   31.0150   40.2100 H   0  0  0  0  0  0  0  0  0  0  0  0
   41.9840   31.7640   38.3480 O   0  0  0  0  0  0  0  0  0  0  0  0
   41.0310   32.0650   37.4150 C   0  0  0  0  0  2  0  0  0  0  0  0
   39.7020   31.3980   37.6720 C   0  0  0  0  0  2  0  0  0  0  0  0
   37.5410   26.7440   41.3880 C   0  0  0  0  0  0  0  0  0  0  0  0
   37.1070   27.3610   42.5380 C   0  0  0  0  0  0  0  0  0  0  0  0
   37.8500   27.5020   43.6800 C   0  0  0  0  0  0  0  0  0  0  0  0
   39.1260   26.9890   43.6780 C   0  0  0  0  0  0  0  0  0  0  0  0
   39.6020   26.3550   42.5320 C   0  0  0  0  0  0  0  0  0  0  0  0
   38.8050   26.2520   41.4260 C   0  0  0  0  0  0  0  0  0  0  0  0
   36.1050   27.7770   42.5750 H   0  0  0  0  0  0  0  0  0  0  0  0
   37.4420   28.0040   44.5530 H   0  0  0  0  0  0  0  0  0  0  0  0
   39.6880   27.1250   44.6190 H   0  0  0  0  0  0  0  0  0  0  0  0
   40.6160   26.0140   42.7060 H   0  0  0  0  0  0  0  0  0  0  0  0
   39.3700   24.1510   40.4210 C   0  0  0  0  0  0  0  0  0  0  0  0
   38.5370   23.8930   41.2920 O   0  0  0  0  0  0  0  0  0  0  0  0
   39.5810   25.5760   40.4200 N   0  0  0  0  0  0  0  0  0  0  0  0
   39.9490   23.5960   39.6970 H   0  0  0  0  0  0  0  0  0  0  0  0
   40.2150   26.1310   39.7860 H   0  0  0  0  0  0  0  0  0  0  0  0
  1  4  1  6  0  0  0
  1  8  1  0  0  0  0
  1  3  1  0  0  0  0
  2  1  1  0  0  0  0
  2  3  1  0  0  0  0
  3  7  1  1  0  0  0
  3 24  1  0  0  0  0
  5  2  1  0  0  0  0
  6  2  1  0  0  0  0
  8  9  1  0  0  0  0
  9 10  2  0  0  0  0
  9 14  1  0  0  0  0
 10 15  1  0  0  0  0
 11 10  1  0  0  0  0
 12 11  2  0  0  0  0
 13 12  1  0  0  0  0
 13  8  2  0  0  0  0
 16 12  1  0  0  0  0
 16 17  1  0  0  0  0
 17 18  1  0  0  0  0
 19 17  1  0  0  0  0
 19 20  1  0  0  0  0
 21 19  1  0  0  0  0
 22 23  1  0  0  0  0
 22 21  1  0  0  0  0
 23 16  1  0  0  0  0
 24 29  2  0  0  0  0
 24 25  1  0  0  0  0
 25 30  1  0  0  0  0
 25 26  2  0  0  0  0
 26 31  1  0  0  0  0
 27 26  1  0  0  0  0
 27 32  1  0  0  0  0
 28 33  1  0  0  0  0
 28 27  2  0  0  0  0
 29 28  1  0  0  0  0
 34 35  2  0  0  0  0
 36 34  1  0  0  0  0
 36 29  1  0  0  0  0
 37 34  1  0  0  0  0
 38 36  1  0  0  0  0
M  END
>  <minimizedAffinity>
-5.56299686

$$$$

 OpenBabel03242519013D

 38 41  0  0  1  0  0  0  0  0999 V2000
   36.9610   25.2600   42.5400 C   0  0  1  0  0  0  0  0  0  0  0  0
   36.6290   24.3820   41.3670 C   0  0  0  0  0  0  0  0  0  0  0  0
   37.8920   24.2470   41.9210 C   0  0  1  0  0  0  0  0  0  0  0  0
   36.5700   25.0260   43.5670 H   0  0  0  0  0  0  0  0  0  0  0  0
   35.8150   23.6370   41.6260 H   0  0  0  0  0  0  0  0  0  0  0  0
   36.3500   24.8890   40.4130 H   0  0  0  0  0  0  0  0  0  0  0  0
   38.1760   23.4960   42.6950 H   0  0  0  0  0  0  0  0  0  0  0  0
   37.1150   26.6990   42.3370 C   0  0  0  0  0  0  0  0  0  0  0  0
   37.4580   27.4590   43.4640 C   0  0  0  0  0  0  0  0  0  0  0  0
   37.6090   28.8420   43.2670 C   0  0  0  0  0  0  0  0  0  0  0  0
   37.4120   29.3330   42.0040 N   0  0  0  0  0  0  0  0  0  0  0  0
   37.0770   28.5320   40.9400 C   0  0  0  0  0  0  0  0  0  0  0  0
   36.9230   27.1930   41.1000 N   0  0  0  0  0  0  0  0  0  0  0  0
   37.5950   27.1640   44.4560 H   0  0  0  0  0  0  0  0  0  0  0  0
   37.8730   29.5370   44.0540 H   0  0  0  0  0  0  0  0  0  0  0  0
   36.8960   29.1580   39.6770 N   0  0  0  0  0  0  0  0  0  0  0  0
   37.8450   30.1300   39.2320 C   0  0  0  0  0  3  0  0  0  0  0  0
   37.5620   31.1720   39.4990 H   0  0  0  0  0  0  0  0  0  0  0  0
   38.1130   29.9420   37.7770 C   0  0  0  0  0  3  0  0  0  0  0  0
   38.9160   29.1710   37.6640 H   0  0  0  0  0  0  0  0  0  0  0  0
   37.0590   29.5520   37.0050 O   0  0  0  0  0  0  0  0  0  0  0  0
   35.8200   29.5530   37.5840 C   0  0  0  0  0  2  0  0  0  0  0  0
   35.7610   28.7920   38.8850 C   0  0  0  0  0  2  0  0  0  0  0  0
   39.0940   24.6220   41.1290 C   0  0  0  0  0  0  0  0  0  0  0  0
   39.0740   24.7480   39.7600 C   0  0  0  0  0  0  0  0  0  0  0  0
   40.1610   25.0500   38.9840 C   0  0  0  0  0  0  0  0  0  0  0  0
   41.3650   25.2420   39.6200 C   0  0  0  0  0  0  0  0  0  0  0  0
   41.4270   25.1240   41.0080 C   0  0  0  0  0  0  0  0  0  0  0  0
   40.3000   24.8180   41.7190 C   0  0  0  0  0  0  0  0  0  0  0  0
   38.1400   24.6040   39.2250 H   0  0  0  0  0  0  0  0  0  0  0  0
   40.0710   25.1320   37.9040 H   0  0  0  0  0  0  0  0  0  0  0  0
   42.2140   25.4830   38.9560 H   0  0  0  0  0  0  0  0  0  0  0  0
   42.4430   25.3060   41.3370 H   0  0  0  0  0  0  0  0  0  0  0  0
   40.9320   26.0470   43.6780 C   0  0  0  0  0  0  0  0  0  0  0  0
   40.7020   26.8920   42.8100 O   0  0  0  0  0  0  0  0  0  0  0  0
   40.6930   24.7480   43.1030 N   0  0  0  0  0  0  0  0  0  0  0  0
   41.2510   26.0450   44.7100 H   0  0  0  0  0  0  0  0  0  0  0  0
   40.7760   23.8100   43.5770 H   0  0  0  0  0  0  0  0  0  0  0  0
  1  4  1  1  0  0  0
  2  5  1  0  0  0  0
  2  3  1  0  0  0  0
  2  1  1  0  0  0  0
  3  1  1  0  0  0  0
  3  7  1  1  0  0  0
  6  2  1  0  0  0  0
  8  1  1  0  0  0  0
  8  9  1  0  0  0  0
  9 14  1  0  0  0  0
 10  9  2  0  0  0  0
 10 15  1  0  0  0  0
 11 10  1  0  0  0  0
 12 13  1  0  0  0  0
 12 11  2  0  0  0  0
 13  8  2  0  0  0  0
 16 12  1  0  0  0  0
 17 18  1  0  0  0  0
 17 16  1  0  0  0  0
 19 17  1  0  0  0  0
 20 19  1  0  0  0  0
 21 22  1  0  0  0  0
 21 19  1  0  0  0  0
 22 23  1  0  0  0  0
 23 16  1  0  0  0  0
 24 29  1  0  0  0  0
 24  3  1  0  0  0  0
 25 24  2  0  0  0  0
 26 27  2  0  0  0  0
 26 25  1  0  0  0  0
 27 28  1  0  0  0  0
 28 33  1  0  0  0  0
 28 29  2  0  0  0  0
 29 36  1  0  0  0  0
 30 25  1  0  0  0  0
 31 26  1  0  0  0  0
 32 27  1  0  0  0  0
 34 37  1  0  0  0  0
 35 34  2  0  0  0  0
 36 38  1  0  0  0  0
 36 34  1  0  0  0  0
M  END
>  <minimizedAffinity>
-5.5050478

$$$$
