
 OpenBabel03242512503D

 43 47  0  0  1  0  0  0  0  0999 V2000
   47.1830   34.3280   42.6360 N   0  0  0  0  0  0  0  0  0  0  0  0
   48.5520   33.8110   42.5570 C   0  0  0  0  0  0  0  0  0  0  0  0
   49.1150   34.8480   41.6320 C   0  0  0  0  0  0  0  0  0  0  0  0
   48.0950   34.8160   40.5080 C   0  0  0  0  0  0  0  0  0  0  0  0
   46.7820   34.6830   41.2500 C   0  0  1  0  0  0  0  0  0  0  0  0
   48.5610   32.7950   42.1160 H   0  0  0  0  0  0  0  0  0  0  0  0
   48.9660   33.8740   43.5790 H   0  0  0  0  0  0  0  0  0  0  0  0
   49.1080   35.8210   42.1470 H   0  0  0  0  0  0  0  0  0  0  0  0
   50.1180   34.5610   41.2550 H   0  0  0  0  0  0  0  0  0  0  0  0
   48.2210   33.8920   39.9390 H   0  0  0  0  0  0  0  0  0  0  0  0
   48.1340   35.7260   39.8830 H   0  0  0  0  0  0  0  0  0  0  0  0
   46.3770   35.6480   41.3670 H   0  0  0  0  0  0  0  0  0  0  0  0
   44.5450   35.5550   44.9420 C   0  0  0  0  0  0  0  0  0  0  0  0
   45.3370   35.4720   43.8060 C   0  0  0  0  0  0  0  0  0  0  0  0
   46.3280   34.5030   43.7360 C   0  0  0  0  0  0  0  0  0  0  0  0
   46.4810   33.6690   44.7970 N   0  0  0  0  0  0  0  0  0  0  0  0
   45.7020   33.7540   45.9100 C   0  0  0  0  0  0  0  0  0  0  0  0
   44.7360   34.6990   45.9750 N   0  0  0  0  0  0  0  0  0  0  0  0
   43.7700   36.3110   44.9990 H   0  0  0  0  0  0  0  0  0  0  0  0
   45.1870   36.1720   43.0110 H   0  0  0  0  0  0  0  0  0  0  0  0
   45.9300   32.8410   46.9750 N   0  0  0  0  0  0  0  0  0  0  0  0
   47.1570   32.0770   47.0050 C   0  0  0  0  0  0  0  0  0  0  0  0
   47.0240   31.0620   46.5680 H   0  0  0  0  0  0  0  0  0  0  0  0
   47.4730   31.8580   48.4750 C   0  0  0  0  0  0  0  0  0  0  0  0
   48.4700   31.3570   48.5730 H   0  0  0  0  0  0  0  0  0  0  0  0
   46.4840   31.1450   49.1060 O   0  0  0  0  0  0  0  0  0  0  0  0
   45.2290   31.2470   48.5630 C   0  0  0  0  0  0  0  0  0  0  0  0
   44.9590   32.6600   48.0280 C   0  0  0  0  0  0  0  0  0  0  0  0
   45.9680   33.5730   40.7930 C   0  0  0  0  0  0  0  0  0  0  0  0
   46.5020   32.3390   40.6010 N   0  0  0  0  0  0  0  0  0  0  0  0
   45.8140   31.2610   40.1740 C   0  0  0  0  0  0  0  0  0  0  0  0
   44.5030   31.4060   39.9160 N   0  0  0  0  0  0  0  0  0  0  0  0
   43.9310   32.5940   40.0860 C   0  0  0  0  0  0  0  0  0  0  0  0
   42.5730   32.6770   39.8040 C   0  0  0  0  0  0  0  0  0  0  0  0
   41.9830   33.9220   39.9860 C   0  0  0  0  0  0  0  0  0  0  0  0
   42.6390   35.0700   40.4220 C   0  0  0  0  0  0  0  0  0  0  0  0
   43.9830   34.8870   40.6760 C   0  0  0  0  0  0  0  0  0  0  0  0
   44.6310   33.7120   40.5250 C   0  0  0  0  0  0  0  0  0  0  0  0
   46.3290   30.3080   40.0500 H   0  0  0  0  0  0  0  0  0  0  0  0
   41.9850   31.8370   39.4610 H   0  0  0  0  0  0  0  0  0  0  0  0
   40.9120   33.9630   39.7580 H   0  0  0  0  0  0  0  0  0  0  0  0
   42.0730   35.9700   40.5220 H   0  0  0  0  0  0  0  0  0  0  0  0
   44.4630   35.7970   40.9850 H   0  0  0  0  0  0  0  0  0  0  0  0
  1 15  1  0  0  0  0
  2  1  1  0  0  0  0
  2  7  1  0  0  0  0
  3  8  1  0  0  0  0
  3  2  1  0  0  0  0
  4  5  1  0  0  0  0
  4  3  1  0  0  0  0
  5 12  1  6  0  0  0
  5  1  1  0  0  0  0
  6  2  1  0  0  0  0
  9  3  1  0  0  0  0
 10  4  1  0  0  0  0
 11  4  1  0  0  0  0
 13 19  1  0  0  0  0
 13 18  1  0  0  0  0
 14 13  2  0  0  0  0
 15 14  1  0  0  0  0
 15 16  2  0  0  0  0
 16 17  1  0  0  0  0
 17 18  2  0  0  0  0
 17 21  1  0  0  0  0
 20 14  1  0  0  0  0
 21 22  1  0  0  0  0
 21 28  1  0  0  0  0
 22 24  1  0  0  0  0
 23 22  1  0  0  0  0
 24 25  1  0  0  0  0
 24 26  1  0  0  0  0
 27 26  1  0  0  0  0
 28 27  1  0  0  0  0
 29  5  1  0  0  0  0
 30 29  1  0  0  0  0
 31 30  2  0  0  0  0
 32 33  2  0  0  0  0
 32 31  1  0  0  0  0
 33 38  1  0  0  0  0
 34 35  2  0  0  0  0
 34 33  1  0  0  0  0
 35 36  1  0  0  0  0
 36 42  1  0  0  0  0
 36 37  2  0  0  0  0
 37 43  1  0  0  0  0
 38 37  1  0  0  0  0
 38 29  2  0  0  0  0
 39 31  1  0  0  0  0
 40 34  1  0  0  0  0
 41 35  1  0  0  0  0
M  END
>  <minimizedAffinity>
-7.20229197

>  <minimizedRMSD>
0.213921219

$$$$
