
 OpenBabel03252508533D

 42 45  0  0  1  0  0  0  0  0999 V2000
   43.3810   34.5030   40.7780 C   0  0  0  0  0  0  0  0  0  0  0  0
   43.3040   35.7630   40.5560 O   0  0  0  0  0  0  0  0  0  0  0  0
   42.0350   34.1170   40.3950 N   0  0  0  0  0  0  0  0  0  0  0  0
   41.6840   34.3940   39.0240 C   0  0  0  0  0  0  0  0  0  0  0  0
   40.8530   35.6880   39.0840 C   0  0  0  0  0  0  0  0  0  0  0  0
   40.0330   35.6120   40.3670 C   0  0  0  0  0  0  0  0  0  0  0  0
   39.7110   34.1680   40.7550 C   0  0  0  0  0  0  0  0  0  0  0  0
   41.0040   33.4960   41.1980 C   0  0  1  0  0  0  0  0  0  0  0  0
   42.5480   34.6000   38.3660 H   0  0  0  0  0  0  0  0  0  0  0  0
   41.0240   33.6180   38.5730 H   0  0  0  0  0  0  0  0  0  0  0  0
   41.5180   36.5800   39.1390 H   0  0  0  0  0  0  0  0  0  0  0  0
   40.2100   35.7980   38.1930 H   0  0  0  0  0  0  0  0  0  0  0  0
   39.0360   36.0870   40.1630 H   0  0  0  0  0  0  0  0  0  0  0  0
   40.5610   36.0830   41.2070 H   0  0  0  0  0  0  0  0  0  0  0  0
   39.2750   33.6670   39.8600 H   0  0  0  0  0  0  0  0  0  0  0  0
   38.9730   34.2440   41.5640 H   0  0  0  0  0  0  0  0  0  0  0  0
   41.1640   33.6710   42.2830 H   0  0  0  0  0  0  0  0  0  0  0  0
   40.8540   32.1000   40.9730 N   0  0  2  0  0  0  0  0  0  0  0  0
   39.4630   31.8350   40.6750 C   0  0  0  0  0  3  0  0  0  0  0  0
   39.2990   31.6370   39.5910 H   0  0  0  0  0  0  0  0  0  0  0  0
   38.8990   30.7290   41.5360 C   0  0  0  0  0  3  0  0  0  0  0  0
   37.8920   30.4870   41.1360 H   0  0  0  0  0  0  0  0  0  0  0  0
   39.6620   29.5710   41.4890 O   0  0  0  0  0  0  0  0  0  0  0  0
   41.0150   29.8090   41.6100 C   0  0  0  0  0  2  0  0  0  0  0  0
   41.2740   31.2490   42.0420 C   0  0  0  0  0  2  0  0  0  0  0  0
   44.4530   33.8060   41.2390 O   0  0  0  0  0  0  0  0  0  0  0  0
   45.7850   34.1370   41.1040 C   0  0  0  0  0  0  0  0  0  0  0  0
   46.4130   34.7510   42.1840 C   0  0  0  0  0  0  0  0  0  0  0  0
   47.7740   35.0750   42.0100 C   0  0  0  0  0  0  0  0  0  0  0  0
   48.3730   34.7760   40.8230 N   0  0  0  0  0  0  0  0  0  0  0  0
   47.7180   34.1890   39.8280 C   0  0  0  0  0  0  0  0  0  0  0  0
   46.4250   33.8650   39.9550 N   0  0  0  0  0  0  0  0  0  0  0  0
   48.2550   35.5480   42.8460 H   0  0  0  0  0  0  0  0  0  0  0  0
   48.2510   33.9750   38.9030 H   0  0  0  0  0  0  0  0  0  0  0  0
   45.6810   35.0230   43.4000 C   0  0  0  0  0  0  0  0  0  0  0  0
   45.0420   36.2460   43.6270 C   0  0  0  0  0  0  0  0  0  0  0  0
   44.4790   36.0910   44.8690 C   0  0  0  0  0  0  0  0  0  0  0  0
   44.7550   34.8580   45.3680 N   0  0  0  0  0  0  0  0  0  0  0  0
   45.4800   34.2480   44.4500 N   0  0  0  0  0  0  0  0  0  0  0  0
   44.9940   37.1190   42.9820 H   0  0  0  0  0  0  0  0  0  0  0  0
   43.8920   36.8310   45.4020 H   0  0  0  0  0  0  0  0  0  0  0  0
   44.4300   34.5020   46.3100 H   0  0  0  0  0  0  0  0  0  0  0  0
  1 26  1  0  0  0  0
  2  1  2  0  0  0  0
  3  1  1  0  0  0  0
  3  8  1  0  0  0  0
  4  5  1  0  0  0  0
  4  3  1  0  0  0  0
  5 11  1  0  0  0  0
  5  6  1  0  0  0  0
  6  7  1  0  0  0  0
  6 14  1  0  0  0  0
  7  8  1  0  0  0  0
  7 16  1  0  0  0  0
  8 17  1  1  0  0  0
  9  4  1  0  0  0  0
 10  4  1  0  0  0  0
 12  5  1  0  0  0  0
 13  6  1  0  0  0  0
 15  7  1  0  0  0  0
 18  8  1  0  0  0  0
 18 25  1  1  0  0  0
 19 18  1  0  0  0  0
 19 21  1  0  0  0  0
 20 19  1  0  0  0  0
 22 21  1  0  0  0  0
 23 21  1  0  0  0  0
 23 24  1  0  0  0  0
 24 25  1  0  0  0  0
 27 26  1  0  0  0  0
 27 28  1  0  0  0  0
 28 35  1  0  0  0  0
 29 28  2  0  0  0  0
 29 33  1  0  0  0  0
 30 29  1  0  0  0  0
 31 32  1  0  0  0  0
 31 30  2  0  0  0  0
 32 27  2  0  0  0  0
 34 31  1  0  0  0  0
 35 36  1  0  0  0  0
 35 39  2  0  0  0  0
 36 37  2  0  0  0  0
 37 38  1  0  0  0  0
 37 41  1  0  0  0  0
 38 42  1  0  0  0  0
 39 38  1  0  0  0  0
 40 36  1  0  0  0  0
M  END
>  <minimizedAffinity>
-6.74022627

>  <minimizedRMSD>
0.0798603892

$$$$
