
 OpenBabel03242513403D

 39 42  0  0  1  0  0  0  0  0999 V2000
   47.7280   31.0320   45.9710 C   0  0  0  0  0  0  0  0  0  0  0  0
   46.9680   32.0580   45.4490 C   0  0  0  0  0  0  0  0  0  0  0  0
   45.9140   32.5290   46.2050 C   0  0  0  0  0  0  0  0  0  0  0  0
   45.6000   32.0170   47.4440 C   0  0  0  0  0  0  0  0  0  0  0  0
   44.6730   32.2410   48.4050 N   0  0  0  0  0  0  0  0  0  0  0  0
   44.8620   31.3980   49.4520 C   0  0  0  0  0  0  0  0  0  0  0  0
   45.9220   30.6410   49.1320 N   0  0  0  0  0  0  0  0  0  0  0  0
   46.3920   31.0000   47.9100 C   0  0  0  0  0  0  0  0  0  0  0  0
   47.4470   30.4890   47.2130 C   0  0  0  0  0  0  0  0  0  0  0  0
   48.5600   30.6400   45.4060 H   0  0  0  0  0  0  0  0  0  0  0  0
   45.2980   33.3340   45.8210 H   0  0  0  0  0  0  0  0  0  0  0  0
   43.9520   32.9950   48.2510 H   0  0  0  0  0  0  0  0  0  0  0  0
   44.2390   31.3910   50.3410 H   0  0  0  0  0  0  0  0  0  0  0  0
   47.2920   34.4060   42.6720 C   0  0  0  0  0  0  0  0  0  0  0  0
   47.8710   33.6340   41.6720 C   0  0  0  0  0  0  0  0  0  0  0  0
   48.1390   32.3030   41.9810 C   0  0  0  0  0  0  0  0  0  0  0  0
   47.8340   31.8240   43.2160 N   0  0  0  0  0  0  0  0  0  0  0  0
   47.2760   32.6170   44.1440 C   0  0  0  0  0  0  0  0  0  0  0  0
   47.0050   33.8920   43.8870 N   0  0  0  0  0  0  0  0  0  0  0  0
   47.0620   35.4600   42.4790 H   0  0  0  0  0  0  0  0  0  0  0  0
   48.5900   31.7000   41.2050 H   0  0  0  0  0  0  0  0  0  0  0  0
   48.1560   34.2770   40.3640 C   0  0  0  0  0  0  0  0  0  0  0  0
   48.7110   35.5050   40.6770 F   0  0  0  0  0  0  0  0  0  0  0  0
   46.9890   34.4400   39.6940 F   0  0  0  0  0  0  0  0  0  0  0  0
   49.0430   33.4510   39.6620 F   0  0  0  0  0  0  0  0  0  0  0  0
   48.2110   29.4530   47.7460 O   0  0  0  0  0  0  0  0  0  0  0  0
   49.8430   28.2550   49.3460 O   0  0  0  0  0  0  0  0  0  0  0  0
   49.4530   29.6530   48.8790 P   0  0  2  0  0  0  0  0  0  0  0  0
   48.7910   30.4610   50.2310 O   0  0  0  0  0  0  0  0  0  0  0  0
   48.2810   29.8170   50.7890 H   0  0  0  0  0  0  0  0  0  0  0  0
   50.7830   30.4790   48.3010 O   0  0  0  0  0  0  0  0  0  0  0  0
   49.9050   32.0730   49.6890 H   0  0  0  0  0  0  0  0  0  0  0  0
   50.9350   32.1870   49.8160 N   0  0  0  0  0  0  0  0  0  0  0  0
   51.5850   31.0110   49.3210 C   0  0  1  0  0  0  0  0  0  0  0  0
   51.6280   29.9630   50.4050 C   0  0  0  0  0  0  0  0  0  0  0  0
   52.1240   29.0330   50.0510 H   0  0  0  0  0  0  0  0  0  0  0  0
   52.3610   30.4270   51.5220 O   0  0  0  0  0  0  0  0  0  0  0  0
   51.5630   31.4190   52.0810 C   0  0  0  0  0  0  0  0  0  0  0  0
   51.2600   32.5550   51.1590 C   0  0  0  0  0  0  0  0  0  0  0  0
  1  9  1  0  0  0  0
  2  1  2  0  0  0  0
  2  3  1  0  0  0  0
  3  4  2  0  0  0  0
  4  8  1  0  0  0  0
  4  5  1  0  0  0  0
  5  6  1  0  0  0  0
  6 13  1  0  0  0  0
  7  6  2  0  0  0  0
  8  7  1  0  0  0  0
  9 26  1  0  0  0  0
  9  8  2  0  0  0  0
 10  1  1  0  0  0  0
 11  3  1  0  0  0  0
 12  5  1  0  0  0  0
 14 19  1  0  0  0  0
 15 16  1  0  0  0  0
 15 14  2  0  0  0  0
 16 17  2  0  0  0  0
 17 18  1  0  0  0  0
 18  2  1  0  0  0  0
 19 18  2  0  0  0  0
 20 14  1  0  0  0  0
 21 16  1  0  0  0  0
 22 23  1  0  0  0  0
 22 15  1  0  0  0  0
 24 22  1  0  0  0  0
 25 22  1  0  0  0  0
 26 28  1  0  0  0  0
 28 27  2  1  0  0  0
 28 29  1  0  0  0  0
 29 30  1  0  0  0  0
 31 28  1  0  0  0  0
 32 33  1  0  0  0  0
 33 39  1  0  0  0  0
 34 31  1  6  0  0  0
 34 33  1  0  0  0  0
 34 35  1  0  0  0  0
 35 37  1  0  0  0  0
 36 35  1  0  0  0  0
 37 38  1  0  0  0  0
 39 38  1  0  0  0  0
M  END
>  <minimizedAffinity>
-6.24097252

>  <minimizedRMSD>
0.209430143

$$$$
