
 OpenBabel03242512113D

 40 43  0  0  1  0  0  0  0  0999 V2000
   48.8800   32.1160   43.4130 O   0  0  0  0  0  0  0  0  0  0  0  0
   49.9400   32.3320   42.3430 P   0  0  2  0  0  0  0  0  0  0  0  0
   51.3640   31.5810   42.7110 O   0  0  0  0  0  0  0  0  0  0  0  0
   52.1360   32.1700   42.8640 H   0  0  0  0  0  0  0  0  0  0  0  0
   50.0450   34.0000   42.0830 O   0  0  0  0  0  0  0  0  0  0  0  0
   47.8010   34.5010   41.1950 C   0  0  1  0  0  0  0  0  0  0  0  0
   48.5670   35.8070   41.6520 C   0  0  0  0  0  0  0  0  0  0  0  0
   48.7880   34.5360   42.3020 C   0  0  2  0  0  0  0  0  0  0  0  0
   48.1250   34.1170   40.2320 H   0  0  0  0  0  0  0  0  0  0  0  0
   47.9640   36.5570   42.2000 H   0  0  0  0  0  0  0  0  0  0  0  0
   49.2430   36.2120   40.8860 H   0  0  0  0  0  0  0  0  0  0  0  0
   48.3390   34.2060   43.2470 H   0  0  0  0  0  0  0  0  0  0  0  0
   46.3450   34.5840   41.5000 C   0  0  0  0  0  0  0  0  0  0  0  0
   45.5610   34.3980   40.5800 O   0  0  0  0  0  0  0  0  0  0  0  0
   45.2390   36.0270   43.1500 C   0  0  0  0  0  0  0  0  0  0  0  0
   45.7950   34.8620   42.7820 C   0  0  0  0  0  0  0  0  0  0  0  0
   45.8250   33.8350   43.7840 C   0  0  0  0  0  0  0  0  0  0  0  0
   45.3180   34.0480   45.0180 N   0  0  0  0  0  0  0  0  0  0  0  0
   44.7680   35.2530   45.3270 C   0  0  0  0  0  0  0  0  0  0  0  0
   44.7340   36.2050   44.4150 N   0  0  0  0  0  0  0  0  0  0  0  0
   45.1980   36.8250   42.4210 H   0  0  0  0  0  0  0  0  0  0  0  0
   46.2200   32.8670   43.6440 H   0  0  0  0  0  0  0  0  0  0  0  0
   44.3370   35.5330   46.2770 H   0  0  0  0  0  0  0  0  0  0  0  0
   49.2210   31.6440   40.9160 O   0  0  0  0  0  0  0  0  0  0  0  0
   49.7950   31.6900   39.6670 C   0  0  0  0  0  0  0  0  0  0  0  0
   49.2310   32.0710   38.4560 C   0  0  0  0  0  0  0  0  0  0  0  0
   49.9850   32.0470   37.3020 C   0  0  0  0  0  0  0  0  0  0  0  0
   51.2810   31.6480   37.3650 N   0  0  0  0  0  0  0  0  0  0  0  0
   51.8350   31.2750   38.5410 C   0  0  0  0  0  0  0  0  0  0  0  0
   51.1070   31.2890   39.7040 N   0  0  0  0  0  0  0  0  0  0  0  0
   48.2030   32.3590   38.5740 H   0  0  0  0  0  0  0  0  0  0  0  0
   49.4800   32.3560   36.4010 H   0  0  0  0  0  0  0  0  0  0  0  0
   53.2000   30.8670   38.5290 N   0  0  0  0  0  0  0  0  0  0  0  0
   53.5610   29.6900   39.2550 C   0  0  0  0  0  0  0  0  0  0  0  0
   52.7510   28.9360   39.3320 H   0  0  0  0  0  0  0  0  0  0  0  0
   54.7530   28.9710   38.6280 C   0  0  0  0  0  0  0  0  0  0  0  0
   55.2090   28.3200   39.4020 H   0  0  0  0  0  0  0  0  0  0  0  0
   55.7310   29.8830   38.2330 O   0  0  0  0  0  0  0  0  0  0  0  0
   55.1840   30.6060   37.1830 C   0  0  0  0  0  0  0  0  0  0  0  0
   54.2100   31.6140   37.8060 C   0  0  0  0  0  0  0  0  0  0  0  0
  2  3  1  0  0  0  0
  2  1  2  1  0  0  0
  3  4  1  0  0  0  0
  5  8  1  0  0  0  0
  5  2  1  0  0  0  0
  6  9  1  6  0  0  0
  6 13  1  0  0  0  0
  6  7  1  0  0  0  0
  6  8  1  0  0  0  0
  7 10  1  0  0  0  0
  7  8  1  0  0  0  0
  8 12  1  1  0  0  0
 11  7  1  0  0  0  0
 13 16  1  0  0  0  0
 14 13  2  0  0  0  0
 15 20  1  0  0  0  0
 16 15  2  0  0  0  0
 16 17  1  0  0  0  0
 17 18  2  0  0  0  0
 18 19  1  0  0  0  0
 19 23  1  0  0  0  0
 20 19  2  0  0  0  0
 21 15  1  0  0  0  0
 22 17  1  0  0  0  0
 24  2  1  0  0  0  0
 25 30  1  0  0  0  0
 25 24  1  0  0  0  0
 26 31  1  0  0  0  0
 26 25  2  0  0  0  0
 27 28  2  0  0  0  0
 27 26  1  0  0  0  0
 28 29  1  0  0  0  0
 29 30  2  0  0  0  0
 32 27  1  0  0  0  0
 33 29  1  0  0  0  0
 33 34  1  0  0  0  0
 34 35  1  0  0  0  0
 36 34  1  0  0  0  0
 36 37  1  0  0  0  0
 38 36  1  0  0  0  0
 39 40  1  0  0  0  0
 39 38  1  0  0  0  0
 40 33  1  0  0  0  0
M  END
>  <minimizedAffinity>
-5.50935555

>  <minimizedRMSD>
1.196733

$$$$
