
 OpenBabel03252506003D

 27 29  0  0  0  0  0  0  0  0999 V2000
   44.8140   36.3190   42.9190 Cl  0  0  0  0  0  0  0  0  0  0  0  0
   45.4260   35.0950   43.9720 C   0  0  0  0  0  0  0  0  0  0  0  0
   46.4620   34.2820   43.5820 C   0  0  0  0  0  0  0  0  0  0  0  0
   46.8870   33.3300   44.4890 C   0  0  0  0  0  0  0  0  0  0  0  0
   46.3280   33.1580   45.7490 C   0  0  0  0  0  0  0  0  0  0  0  0
   45.2950   33.9820   46.1150 C   0  0  0  0  0  0  0  0  0  0  0  0
   44.6310   33.7250   47.7070 Cl  0  0  0  0  0  0  0  0  0  0  0  0
   44.8480   34.9380   45.2390 C   0  0  0  0  0  0  0  0  0  0  0  0
   47.7090   32.7070   44.1400 H   0  0  0  0  0  0  0  0  0  0  0  0
   44.0270   35.5750   45.5620 H   0  0  0  0  0  0  0  0  0  0  0  0
   48.7710   35.3970   40.9770 C   0  0  0  0  0  0  0  0  0  0  0  0
   48.3240   34.7080   39.8350 C   0  0  0  0  0  0  0  0  0  0  0  0
   47.2160   33.8510   39.9710 C   0  0  0  0  0  0  0  0  0  0  0  0
   46.6460   33.7450   41.2000 N   0  0  0  0  0  0  0  0  0  0  0  0
   47.0930   34.4130   42.2650 C   0  0  0  0  0  0  0  0  0  0  0  0
   48.1640   35.2480   42.1670 N   0  0  0  0  0  0  0  0  0  0  0  0
   49.6300   36.0490   40.8320 H   0  0  0  0  0  0  0  0  0  0  0  0
   48.8090   34.8250   38.8860 H   0  0  0  0  0  0  0  0  0  0  0  0
   46.8360   33.3000   39.1210 H   0  0  0  0  0  0  0  0  0  0  0  0
   46.9210   32.1090   46.5310 N   0  0  0  0  0  0  0  0  0  0  0  0
   47.5420   32.4090   47.8180 C   0  0  0  0  0  0  0  0  0  0  0  0
   47.0040   33.1360   48.4200 H   0  0  0  0  0  0  0  0  0  0  0  0
   47.7240   31.1610   48.6210 C   0  0  0  0  0  0  0  0  0  0  0  0
   46.8480   31.0100   49.3100 H   0  0  0  0  0  0  0  0  0  0  0  0
   48.0130   30.0360   47.8590 O   0  0  0  0  0  0  0  0  0  0  0  0
   46.9300   29.7120   47.0600 C   0  0  0  0  0  0  0  0  0  0  0  0
   46.8620   30.7550   45.9670 C   0  0  0  0  0  0  0  0  0  0  0  0
  1  2  1  0  0  0  0
  2  8  1  0  0  0  0
  3  2  2  0  0  0  0
  3  4  1  0  0  0  0
  4  5  2  0  0  0  0
  5  6  1  0  0  0  0
  5 20  1  0  0  0  0
  6  7  1  0  0  0  0
  8 10  1  0  0  0  0
  8  6  2  0  0  0  0
  9  4  1  0  0  0  0
 11 16  1  0  0  0  0
 12 13  1  0  0  0  0
 12 11  2  0  0  0  0
 13 14  2  0  0  0  0
 14 15  1  0  0  0  0
 15  3  1  0  0  0  0
 16 15  2  0  0  0  0
 17 11  1  0  0  0  0
 18 12  1  0  0  0  0
 19 13  1  0  0  0  0
 20 21  1  0  0  0  0
 21 22  1  0  0  0  0
 21 23  1  0  0  0  0
 23 24  1  0  0  0  0
 25 23  1  0  0  0  0
 26 25  1  0  0  0  0
 27 20  1  0  0  0  0
 27 26  1  0  0  0  0
M  END
>  <minimizedAffinity>
-5.60027695

>  <minimizedRMSD>
0.768609107

$$$$
