
 OpenBabel03242517453D

 36 39  0  0  0  0  0  0  0  0999 V2000
   41.0640   34.0490   39.6620 C   0  0  0  0  0  0  0  0  0  0  0  0
   39.9900   34.0750   38.7850 C   0  0  0  0  0  0  0  0  0  0  0  0
   40.0070   34.9380   37.7050 C   0  0  0  0  0  0  0  0  0  0  0  0
   41.0630   35.7730   37.4770 C   0  0  0  0  0  0  0  0  0  0  0  0
   42.1260   35.7430   38.3490 C   0  0  0  0  0  0  0  0  0  0  0  0
   42.1470   34.8840   39.4560 C   0  0  0  0  0  0  0  0  0  0  0  0
   39.1660   33.4070   38.9830 H   0  0  0  0  0  0  0  0  0  0  0  0
   39.1580   34.9420   37.0310 H   0  0  0  0  0  0  0  0  0  0  0  0
   41.1240   36.4590   36.6550 H   0  0  0  0  0  0  0  0  0  0  0  0
   42.9950   36.3780   38.2290 H   0  0  0  0  0  0  0  0  0  0  0  0
   43.2760   34.8650   40.3660 C   0  0  0  0  0  0  0  0  0  0  0  0
   44.3790   34.0890   40.2010 C   0  0  0  0  0  0  0  0  0  0  0  0
   45.4630   34.0860   41.0940 C   0  0  0  0  0  0  0  0  0  0  0  0
   45.4060   34.8910   42.1690 N   0  0  0  0  0  0  0  0  0  0  0  0
   44.3010   35.6670   42.3340 C   0  0  0  0  0  0  0  0  0  0  0  0
   43.2720   35.6530   41.4610 N   0  0  0  0  0  0  0  0  0  0  0  0
   44.4330   33.4400   39.3390 H   0  0  0  0  0  0  0  0  0  0  0  0
   46.2930   33.4220   40.8570 H   0  0  0  0  0  0  0  0  0  0  0  0
   44.2080   36.3310   43.1840 H   0  0  0  0  0  0  0  0  0  0  0  0
   41.1310   32.9780   41.0710 S   0  0  0  0  0  0  0  0  0  0  0  0
   38.5980   31.8670   41.2500 C   0  0  0  0  0  0  0  0  0  0  0  0
   39.9430   31.6610   40.9180 C   0  0  0  0  0  0  0  0  0  0  0  0
   40.3360   30.3990   40.4620 C   0  0  0  0  0  0  0  0  0  0  0  0
   39.3830   29.4350   40.3660 N   0  0  0  0  0  0  0  0  0  0  0  0
   38.1010   29.6830   40.6990 C   0  0  0  0  0  0  0  0  0  0  0  0
   37.6760   30.8540   41.1340 N   0  0  0  0  0  0  0  0  0  0  0  0
   38.3170   32.8500   41.6010 H   0  0  0  0  0  0  0  0  0  0  0  0
   41.3620   30.2140   40.2000 H   0  0  0  0  0  0  0  0  0  0  0  0
   37.2180   28.5770   40.5470 N   0  0  0  0  0  0  0  0  0  0  0  0
   36.0780   28.6470   39.6540 C   0  0  0  0  0  0  0  0  0  0  0  0
   36.3010   29.2020   38.7290 H   0  0  0  0  0  0  0  0  0  0  0  0
   35.5720   27.2430   39.4300 C   0  0  0  0  0  0  0  0  0  0  0  0
   34.9160   27.2710   38.5330 H   0  0  0  0  0  0  0  0  0  0  0  0
   36.5700   26.3150   39.1710 O   0  0  0  0  0  0  0  0  0  0  0  0
   37.5500   26.2710   40.1460 C   0  0  0  0  0  0  0  0  0  0  0  0
   37.3560   27.3080   41.2380 C   0  0  0  0  0  0  0  0  0  0  0  0
  1 20  1  0  0  0  0
  2  7  1  0  0  0  0
  2  1  2  0  0  0  0
  3  2  1  0  0  0  0
  4  3  2  0  0  0  0
  4  5  1  0  0  0  0
  5  6  2  0  0  0  0
  6  1  1  0  0  0  0
  6 11  1  0  0  0  0
  8  3  1  0  0  0  0
  9  4  1  0  0  0  0
 10  5  1  0  0  0  0
 11 16  1  0  0  0  0
 12 11  2  0  0  0  0
 12 13  1  0  0  0  0
 13 14  2  0  0  0  0
 14 15  1  0  0  0  0
 15 19  1  0  0  0  0
 16 15  2  0  0  0  0
 17 12  1  0  0  0  0
 18 13  1  0  0  0  0
 21 27  1  0  0  0  0
 22 20  1  0  0  0  0
 22 21  2  0  0  0  0
 23 22  1  0  0  0  0
 24 23  2  0  0  0  0
 24 25  1  0  0  0  0
 25 26  2  0  0  0  0
 26 21  1  0  0  0  0
 28 23  1  0  0  0  0
 29 25  1  0  0  0  0
 29 36  1  0  0  0  0
 30 29  1  0  0  0  0
 31 30  1  0  0  0  0
 32 30  1  0  0  0  0
 33 32  1  0  0  0  0
 34 32  1  0  0  0  0
 34 35  1  0  0  0  0
 35 36  1  0  0  0  0
M  END
>  <minimizedAffinity>
-5.77498674

>  <minimizedRMSD>
2.40654683

$$$$
