
 OpenBabel03242521543D

 47 51  0  0  1  0  0  0  0  0999 V2000
   46.0460   32.3590   46.0960 C   0  0  0  0  0  0  0  0  0  0  0  0
   45.5870   33.0100   47.2380 C   0  0  0  0  0  0  0  0  0  0  0  0
   45.8060   32.5230   48.5320 C   0  0  0  0  0  0  0  0  0  0  0  0
   46.4970   31.3610   48.7320 C   0  0  0  0  0  0  0  0  0  0  0  0
   46.9670   30.6760   47.5910 C   0  0  0  0  0  0  0  0  0  0  0  0
   47.5960   29.4990   47.8280 C   0  0  0  0  0  0  0  0  0  0  0  0
   48.0060   28.7560   46.7160 C   0  0  0  0  0  0  0  0  0  0  0  0
   47.7300   29.2760   45.4000 C   0  0  0  0  0  0  0  0  0  0  0  0
   47.0800   30.4880   45.3320 C   0  0  0  0  0  0  0  0  0  0  0  0
   46.6880   31.2440   46.3460 C   0  0  0  0  0  0  0  0  0  0  0  0
   45.0280   33.9500   47.0960 H   0  0  0  0  0  0  0  0  0  0  0  0
   45.3990   33.1170   49.3550 H   0  0  0  0  0  0  0  0  0  0  0  0
   46.6680   30.9940   49.7360 H   0  0  0  0  0  0  0  0  0  0  0  0
   47.7740   29.1510   48.8350 H   0  0  0  0  0  0  0  0  0  0  0  0
   48.5030   27.8360   46.9760 H   0  0  0  0  0  0  0  0  0  0  0  0
   48.1460   28.5120   44.7630 H   0  0  0  0  0  0  0  0  0  0  0  0
   45.4120   29.7460   43.8810 C   0  0  0  0  0  0  0  0  0  0  0  0
   46.7490   30.3040   43.9370 C   0  0  0  0  0  0  0  0  0  0  0  0
   47.2930   30.3390   42.7220 C   0  0  0  0  0  0  0  0  0  0  0  0
   46.6890   29.9030   41.5550 C   0  0  0  0  0  0  0  0  0  0  0  0
   45.4260   29.3760   41.5340 C   0  0  0  0  0  0  0  0  0  0  0  0
   44.7730   29.2970   42.7360 C   0  0  0  0  0  0  0  0  0  0  0  0
   48.2890   30.7740   42.8560 H   0  0  0  0  0  0  0  0  0  0  0  0
   47.4080   30.0710   40.7380 H   0  0  0  0  0  0  0  0  0  0  0  0
   45.2560   29.1410   40.5050 H   0  0  0  0  0  0  0  0  0  0  0  0
   44.5290   29.5660   44.9790 O   0  0  0  0  0  0  0  0  0  0  0  0
   44.2410   28.6500   45.2820 H   0  0  0  0  0  0  0  0  0  0  0  0
   43.5210   28.7510   42.6560 O   0  0  0  0  0  0  0  0  0  0  0  0
   42.2690   29.9350   44.5950 H   0  0  0  0  0  0  0  0  0  0  0  0
   41.7100   29.4340   43.8930 N   0  0  0  0  0  0  0  0  0  0  0  0
   42.3620   29.4710   42.5720 C   0  0  1  0  0  0  0  0  0  0  0  0
   42.5880   30.9580   42.3110 C   0  0  0  0  0  0  0  0  0  0  0  0
   43.2380   31.1190   41.4380 H   0  0  0  0  0  0  0  0  0  0  0  0
   41.3590   31.5250   42.0790 O   0  0  0  0  0  0  0  0  0  0  0  0
   40.2730   30.7940   42.4900 C   0  0  0  0  0  0  0  0  0  0  0  0
   40.4270   30.0750   43.7900 C   0  0  0  0  0  0  0  0  0  0  0  0
   45.2870   34.0170   42.8400 C   0  0  0  0  0  0  0  0  0  0  0  0
   46.5780   34.4760   42.4960 C   0  0  0  0  0  0  0  0  0  0  0  0
   47.5930   34.1640   43.3760 C   0  0  0  0  0  0  0  0  0  0  0  0
   47.2230   33.4680   44.4490 N   0  0  0  0  0  0  0  0  0  0  0  0
   46.0220   33.0230   44.8040 C   0  0  0  0  0  0  0  0  0  0  0  0
   45.0770   33.3210   43.9610 N   0  0  0  0  0  0  0  0  0  0  0  0
   44.5200   34.2780   42.1280 H   0  0  0  0  0  0  0  0  0  0  0  0
   46.7710   35.0360   41.6040 H   0  0  0  0  0  0  0  0  0  0  0  0
   48.9450   34.5010   43.1260 N   0  0  0  0  0  0  0  0  0  0  0  0
   49.4250   35.4150   43.2440 H   0  0  0  0  0  0  0  0  0  0  0  0
   49.6060   33.7790   42.7740 H   0  0  0  0  0  0  0  0  0  0  0  0
  1 10  2  0  0  0  0
  1  2  1  0  0  0  0
  2  3  2  0  0  0  0
  3  4  1  0  0  0  0
  3 12  1  0  0  0  0
  4 13  1  0  0  0  0
  5  6  1  0  0  0  0
  5  4  2  0  0  0  0
  6 14  1  0  0  0  0
  7 15  1  0  0  0  0
  7  6  2  0  0  0  0
  8  7  1  0  0  0  0
  9  8  2  0  0  0  0
  9 10  1  0  0  0  0
 10  5  1  0  0  0  0
 11  2  1  0  0  0  0
 16  8  1  0  0  0  0
 17 18  1  0  0  0  0
 17 26  1  0  0  0  0
 18  9  1  0  0  0  0
 19 23  1  0  0  0  0
 19 18  2  0  0  0  0
 20 19  1  0  0  0  0
 21 20  2  0  0  0  0
 21 22  1  0  0  0  0
 22 17  2  0  0  0  0
 24 20  1  0  0  0  0
 25 21  1  0  0  0  0
 26 27  1  0  0  0  0
 28 22  1  0  0  0  0
 30 29  1  0  0  0  0
 31 28  1  1  0  0  0
 31 30  1  0  0  0  0
 32 31  1  0  0  0  0
 33 32  1  0  0  0  0
 34 32  1  0  0  0  0
 34 35  1  0  0  0  0
 35 36  1  0  0  0  0
 36 30  1  0  0  0  0
 37 42  1  0  0  0  0
 38 37  2  0  0  0  0
 38 39  1  0  0  0  0
 39 40  2  0  0  0  0
 40 41  1  0  0  0  0
 41  1  1  0  0  0  0
 42 41  2  0  0  0  0
 43 37  1  0  0  0  0
 44 38  1  0  0  0  0
 45 46  1  0  0  0  0
 45 39  1  0  0  0  0
 47 45  1  0  0  0  0
M  END
>  <minimizedAffinity>
-5.64520884

>  <minimizedRMSD>
1.79165769

$$$$
