
 OpenBabel03252508523D

 42 45  0  0  1  0  0  0  0  0999 V2000
   43.2920   34.3920   40.7450 C   0  0  0  0  0  0  0  0  0  0  0  0
   43.2340   35.5860   40.2810 O   0  0  0  0  0  0  0  0  0  0  0  0
   41.9200   33.9820   40.5030 N   0  0  0  0  0  0  0  0  0  0  0  0
   41.5120   33.9950   39.1200 C   0  0  0  0  0  0  0  0  0  0  0  0
   40.7150   35.3020   38.9570 C   0  0  0  0  0  0  0  0  0  0  0  0
   39.9550   35.5060   40.2620 C   0  0  0  0  0  0  0  0  0  0  0  0
   39.6180   34.1790   40.9420 C   0  0  0  0  0  0  0  0  0  0  0  0
   40.9140   33.5650   41.4550 C   0  0  1  0  0  0  0  0  0  0  0  0
   42.3480   34.0390   38.3990 H   0  0  0  0  0  0  0  0  0  0  0  0
   40.8120   33.1670   38.8590 H   0  0  0  0  0  0  0  0  0  0  0  0
   41.4020   36.1650   38.8060 H   0  0  0  0  0  0  0  0  0  0  0  0
   40.0340   35.2550   38.0890 H   0  0  0  0  0  0  0  0  0  0  0  0
   38.9610   35.9640   40.0100 H   0  0  0  0  0  0  0  0  0  0  0  0
   40.5330   36.1160   40.9700 H   0  0  0  0  0  0  0  0  0  0  0  0
   39.1280   33.5250   40.1830 H   0  0  0  0  0  0  0  0  0  0  0  0
   38.9200   34.4360   41.7500 H   0  0  0  0  0  0  0  0  0  0  0  0
   41.1290   33.9450   42.4760 H   0  0  0  0  0  0  0  0  0  0  0  0
   40.7210   32.1580   41.5180 N   0  0  2  0  0  0  0  0  0  0  0  0
   41.9770   31.5440   41.8960 C   0  0  0  0  0  3  0  0  0  0  0  0
   41.9710   31.2050   42.9570 H   0  0  0  0  0  0  0  0  0  0  0  0
   42.3690   30.4290   40.9550 C   0  0  0  0  0  3  0  0  0  0  0  0
   43.2470   29.9180   41.4030 H   0  0  0  0  0  0  0  0  0  0  0  0
   41.3660   29.4850   40.7960 O   0  0  0  0  0  0  0  0  0  0  0  0
   40.1220   30.0450   40.5920 C   0  0  0  0  0  2  0  0  0  0  0  0
   40.2410   31.5400   40.3200 C   0  0  0  0  0  2  0  0  0  0  0  0
   44.3670   33.7650   41.2910 O   0  0  0  0  0  0  0  0  0  0  0  0
   45.6960   34.0970   41.1320 C   0  0  0  0  0  0  0  0  0  0  0  0
   46.3380   34.7250   42.1950 C   0  0  0  0  0  0  0  0  0  0  0  0
   47.6960   35.0500   41.9970 C   0  0  0  0  0  0  0  0  0  0  0  0
   48.2780   34.7380   40.8040 N   0  0  0  0  0  0  0  0  0  0  0  0
   47.6100   34.1380   39.8270 C   0  0  0  0  0  0  0  0  0  0  0  0
   46.3200   33.8120   39.9760 N   0  0  0  0  0  0  0  0  0  0  0  0
   48.1890   35.5340   42.8200 H   0  0  0  0  0  0  0  0  0  0  0  0
   48.1300   33.9140   38.8960 H   0  0  0  0  0  0  0  0  0  0  0  0
   45.6240   35.0110   43.4180 C   0  0  0  0  0  0  0  0  0  0  0  0
   44.9890   36.2360   43.6410 C   0  0  0  0  0  0  0  0  0  0  0  0
   44.4440   36.0940   44.8930 C   0  0  0  0  0  0  0  0  0  0  0  0
   44.7260   34.8660   45.4000 N   0  0  0  0  0  0  0  0  0  0  0  0
   45.4380   34.2460   44.4790 N   0  0  0  0  0  0  0  0  0  0  0  0
   44.9330   37.1030   42.9880 H   0  0  0  0  0  0  0  0  0  0  0  0
   43.8650   36.8400   45.4270 H   0  0  0  0  0  0  0  0  0  0  0  0
   44.4140   34.5200   46.3510 H   0  0  0  0  0  0  0  0  0  0  0  0
  1 26  1  0  0  0  0
  2  1  2  0  0  0  0
  3  1  1  0  0  0  0
  3  8  1  0  0  0  0
  4  3  1  0  0  0  0
  5  4  1  0  0  0  0
  5  6  1  0  0  0  0
  6  7  1  0  0  0  0
  6 14  1  0  0  0  0
  7  8  1  0  0  0  0
  7 16  1  0  0  0  0
  8 18  1  0  0  0  0
  8 17  1  1  0  0  0
  9  4  1  0  0  0  0
 10  4  1  0  0  0  0
 11  5  1  0  0  0  0
 12  5  1  0  0  0  0
 13  6  1  0  0  0  0
 15  7  1  0  0  0  0
 18 25  1  6  0  0  0
 18 19  1  0  0  0  0
 19 20  1  0  0  0  0
 21 22  1  0  0  0  0
 21 19  1  0  0  0  0
 23 21  1  0  0  0  0
 24 23  1  0  0  0  0
 25 24  1  0  0  0  0
 27 26  1  0  0  0  0
 27 28  1  0  0  0  0
 28 35  1  0  0  0  0
 29 28  2  0  0  0  0
 29 33  1  0  0  0  0
 30 29  1  0  0  0  0
 31 32  1  0  0  0  0
 31 30  2  0  0  0  0
 32 27  2  0  0  0  0
 34 31  1  0  0  0  0
 35 36  1  0  0  0  0
 35 39  2  0  0  0  0
 36 37  2  0  0  0  0
 37 38  1  0  0  0  0
 37 41  1  0  0  0  0
 38 42  1  0  0  0  0
 39 38  1  0  0  0  0
 40 36  1  0  0  0  0
M  END
>  <minimizedAffinity>
-6.51611376

>  <minimizedRMSD>
0.725490391

$$$$
