
 OpenBabel03252502253D

 33 35  0  0  1  0  0  0  0  0999 V2000
   36.7150   28.2030   40.9720 N   0  0  0  0  0  0  0  0  0  0  0  0
   36.9740   26.9230   41.6000 C   0  0  0  0  0  0  0  0  0  0  0  0
   36.6550   27.1510   43.0860 C   0  0  0  0  0  0  0  0  0  0  0  0
   37.6250   28.1330   43.6780 C   0  0  0  0  0  0  0  0  0  0  0  0
   37.9650   29.2800   42.7850 C   0  0  0  0  0  0  0  0  0  0  0  0
   37.0710   29.4410   41.5850 C   0  0  1  0  0  0  0  0  0  0  0  0
   36.3080   26.1330   41.2230 H   0  0  0  0  0  0  0  0  0  0  0  0
   38.0470   26.6760   41.5230 H   0  0  0  0  0  0  0  0  0  0  0  0
   35.6150   27.4300   43.2440 H   0  0  0  0  0  0  0  0  0  0  0  0
   36.8240   26.1570   43.5760 H   0  0  0  0  0  0  0  0  0  0  0  0
   37.2100   28.5120   44.6390 H   0  0  0  0  0  0  0  0  0  0  0  0
   38.5430   27.5650   43.9640 H   0  0  0  0  0  0  0  0  0  0  0  0
   37.9430   30.2290   43.3520 H   0  0  0  0  0  0  0  0  0  0  0  0
   39.0200   29.1440   42.4210 H   0  0  0  0  0  0  0  0  0  0  0  0
   36.1560   29.9310   41.9420 H   0  0  0  0  0  0  0  0  0  0  0  0
   34.3120   28.9250   38.2040 C   0  0  0  0  0  0  0  0  0  0  0  0
   34.8530   28.9240   39.5030 C   0  0  0  0  0  0  0  0  0  0  0  0
   36.0850   28.2620   39.7010 C   0  0  0  0  0  0  0  0  0  0  0  0
   36.6550   27.6730   38.6100 N   0  0  0  0  0  0  0  0  0  0  0  0
   36.1020   27.6980   37.3840 C   0  0  0  0  0  0  0  0  0  0  0  0
   34.9260   28.3290   37.1900 N   0  0  0  0  0  0  0  0  0  0  0  0
   33.3640   29.4270   38.0270 H   0  0  0  0  0  0  0  0  0  0  0  0
   34.3790   29.3960   40.3350 H   0  0  0  0  0  0  0  0  0  0  0  0
   36.6990   27.1720   36.6220 H   0  0  0  0  0  0  0  0  0  0  0  0
   37.7860   30.2320   40.6680 O   0  0  0  0  0  0  0  0  0  0  0  0
   35.9750   31.8110   39.9790 H   0  0  0  0  0  0  0  0  0  0  0  0
   36.7440   32.3550   40.4310 N   0  0  0  0  0  0  0  0  0  0  0  0
   37.8020   31.5750   40.9930 C   0  0  2  0  0  3  0  0  0  0  0  0
   39.1200   32.2400   40.7860 C   0  0  0  0  0  3  0  0  0  0  0  0
   39.5000   32.2200   39.7460 H   0  0  0  0  0  0  0  0  0  0  0  0
   38.9550   33.5950   41.1060 O   0  0  0  0  0  0  0  0  0  0  0  0
   38.3460   34.1610   39.9780 C   0  0  0  0  0  2  0  0  0  0  0  0
   37.1960   33.3280   39.4820 C   0  0  0  0  0  2  0  0  0  0  0  0
  1  6  1  0  0  0  0
  1  2  1  0  0  0  0
  2  3  1  0  0  0  0
  3  9  1  0  0  0  0
  3 10  1  0  0  0  0
  3  4  1  0  0  0  0
  4 12  1  0  0  0  0
  4 11  1  0  0  0  0
  5 13  1  0  0  0  0
  5  4  1  0  0  0  0
  6 15  1  1  0  0  0
  6  5  1  0  0  0  0
  7  2  1  0  0  0  0
  8  2  1  0  0  0  0
 14  5  1  0  0  0  0
 16 17  1  0  0  0  0
 17 18  2  0  0  0  0
 17 23  1  0  0  0  0
 18  1  1  0  0  0  0
 19 18  1  0  0  0  0
 20 19  2  0  0  0  0
 21 20  1  0  0  0  0
 21 16  2  0  0  0  0
 22 16  1  0  0  0  0
 24 20  1  0  0  0  0
 25  6  1  0  0  0  0
 26 27  1  0  0  0  0
 27 28  1  0  0  0  0
 28 25  1  6  0  0  0
 29 28  1  0  0  0  0
 29 31  1  0  0  0  0
 30 29  1  0  0  0  0
 32 31  1  0  0  0  0
 33 32  1  0  0  0  0
 33 27  1  0  0  0  0
M  END
>  <minimizedAffinity>
-5.32531214

$$$$

 OpenBabel03252502253D

 33 35  0  0  1  0  0  0  0  0999 V2000
   37.0840   30.6410   39.0020 N   0  0  0  0  0  0  0  0  0  0  0  0
   37.3770   29.9880   37.7430 C   0  0  0  0  0  0  0  0  0  0  0  0
   35.9970   29.6560   37.1500 C   0  0  0  0  0  0  0  0  0  0  0  0
   35.2940   28.6470   38.0140 C   0  0  0  0  0  0  0  0  0  0  0  0
   35.4640   28.8650   39.4800 C   0  0  0  0  0  0  0  0  0  0  0  0
   36.0360   30.2030   39.8650 C   0  0  1  0  0  0  0  0  0  0  0  0
   37.8990   30.6540   37.0410 H   0  0  0  0  0  0  0  0  0  0  0  0
   37.9000   29.0330   37.9260 H   0  0  0  0  0  0  0  0  0  0  0  0
   35.4040   30.5490   36.9680 H   0  0  0  0  0  0  0  0  0  0  0  0
   36.2130   29.1750   36.1600 H   0  0  0  0  0  0  0  0  0  0  0  0
   34.2120   28.6450   37.7540 H   0  0  0  0  0  0  0  0  0  0  0  0
   35.6650   27.6370   37.7150 H   0  0  0  0  0  0  0  0  0  0  0  0
   34.4950   28.7500   40.0010 H   0  0  0  0  0  0  0  0  0  0  0  0
   36.1440   28.0640   39.8800 H   0  0  0  0  0  0  0  0  0  0  0  0
   35.2100   30.9230   39.8080 H   0  0  0  0  0  0  0  0  0  0  0  0
   38.1280   34.0960   39.9680 C   0  0  0  0  0  0  0  0  0  0  0  0
   37.2850   33.0520   39.5440 C   0  0  0  0  0  0  0  0  0  0  0  0
   37.8480   31.7620   39.4210 C   0  0  0  0  0  0  0  0  0  0  0  0
   39.1720   31.6320   39.7250 N   0  0  0  0  0  0  0  0  0  0  0  0
   39.9420   32.6600   40.1250 C   0  0  0  0  0  0  0  0  0  0  0  0
   39.4090   33.8930   40.2450 N   0  0  0  0  0  0  0  0  0  0  0  0
   37.7170   35.0970   40.0690 H   0  0  0  0  0  0  0  0  0  0  0  0
   36.2510   33.1900   39.3150 H   0  0  0  0  0  0  0  0  0  0  0  0
   40.9870   32.3730   40.3270 H   0  0  0  0  0  0  0  0  0  0  0  0
   36.5340   30.0540   41.1720 O   0  0  0  0  0  0  0  0  0  0  0  0
   35.4690   28.6570   42.9500 H   0  0  0  0  0  0  0  0  0  0  0  0
   36.3030   28.1510   42.5770 N   0  0  0  0  0  0  0  0  0  0  0  0
   36.9500   28.7690   41.4620 C   0  0  2  0  0  3  0  0  0  0  0  0
   38.4300   28.6090   41.5510 C   0  0  0  0  0  3  0  0  0  0  0  0
   38.9240   29.2240   42.3280 H   0  0  0  0  0  0  0  0  0  0  0  0
   38.6820   27.2750   41.9010 O   0  0  0  0  0  0  0  0  0  0  0  0
   38.4620   27.2170   43.2840 C   0  0  0  0  0  2  0  0  0  0  0  0
   37.1820   27.9020   43.6800 C   0  0  0  0  0  2  0  0  0  0  0  0
  1 18  1  0  0  0  0
  1  6  1  0  0  0  0
  2  8  1  0  0  0  0
  2  1  1  0  0  0  0
  3  2  1  0  0  0  0
  3  4  1  0  0  0  0
  4  5  1  0  0  0  0
  5  6  1  0  0  0  0
  5 14  1  0  0  0  0
  5 13  1  0  0  0  0
  6 15  1  1  0  0  0
  6 25  1  0  0  0  0
  7  2  1  0  0  0  0
  9  3  1  0  0  0  0
 10  3  1  0  0  0  0
 11  4  1  0  0  0  0
 12  4  1  0  0  0  0
 16 22  1  0  0  0  0
 16 21  1  0  0  0  0
 17 16  2  0  0  0  0
 18 17  1  0  0  0  0
 18 19  2  0  0  0  0
 19 20  1  0  0  0  0
 20 21  2  0  0  0  0
 20 24  1  0  0  0  0
 23 17  1  0  0  0  0
 27 26  1  0  0  0  0
 27 33  1  0  0  0  0
 28 25  1  1  0  0  0
 28 29  1  0  0  0  0
 28 27  1  0  0  0  0
 29 31  1  0  0  0  0
 29 30  1  0  0  0  0
 31 32  1  0  0  0  0
 32 33  1  0  0  0  0
M  END
>  <minimizedAffinity>
-5.02491856

$$$$

 OpenBabel03252502253D

 33 35  0  0  1  0  0  0  0  0999 V2000
   37.4540   29.3660   40.1660 N   0  0  0  0  0  0  0  0  0  0  0  0
   36.5200   28.7370   39.2540 C   0  0  0  0  0  0  0  0  0  0  0  0
   37.0610   29.0730   37.8550 C   0  0  0  0  0  0  0  0  0  0  0  0
   36.9810   30.5530   37.6120 C   0  0  0  0  0  0  0  0  0  0  0  0
   37.3400   31.3930   38.7920 C   0  0  0  0  0  0  0  0  0  0  0  0
   38.0110   30.6560   39.9200 C   0  0  1  0  0  0  0  0  0  0  0  0
   36.5070   27.6430   39.3630 H   0  0  0  0  0  0  0  0  0  0  0  0
   35.5260   29.2070   39.3500 H   0  0  0  0  0  0  0  0  0  0  0  0
   38.0580   28.6670   37.6930 H   0  0  0  0  0  0  0  0  0  0  0  0
   36.3610   28.5650   37.1420 H   0  0  0  0  0  0  0  0  0  0  0  0
   37.6360   30.8110   36.7500 H   0  0  0  0  0  0  0  0  0  0  0  0
   35.9440   30.7780   37.2640 H   0  0  0  0  0  0  0  0  0  0  0  0
   38.0060   32.2220   38.4860 H   0  0  0  0  0  0  0  0  0  0  0  0
   36.4000   31.8630   39.1900 H   0  0  0  0  0  0  0  0  0  0  0  0
   39.0630   30.5340   39.6290 H   0  0  0  0  0  0  0  0  0  0  0  0
   37.4200   27.6960   43.5080 C   0  0  0  0  0  0  0  0  0  0  0  0
   36.9250   28.3540   42.3660 C   0  0  0  0  0  0  0  0  0  0  0  0
   37.8500   28.7020   41.3560 C   0  0  0  0  0  0  0  0  0  0  0  0
   39.1570   28.3710   41.5710 N   0  0  0  0  0  0  0  0  0  0  0  0
   39.5860   27.7420   42.6800 C   0  0  0  0  0  0  0  0  0  0  0  0
   38.7070   27.4070   43.6470 N   0  0  0  0  0  0  0  0  0  0  0  0
   36.7270   27.4190   44.2980 H   0  0  0  0  0  0  0  0  0  0  0  0
   35.8950   28.5980   42.2310 H   0  0  0  0  0  0  0  0  0  0  0  0
   40.6710   27.5530   42.6850 H   0  0  0  0  0  0  0  0  0  0  0  0
   37.8570   31.4620   41.0610 O   0  0  0  0  0  0  0  0  0  0  0  0
   37.8740   33.9610   41.0610 H   0  0  0  0  0  0  0  0  0  0  0  0
   38.8470   33.6170   41.2220 N   0  0  0  0  0  0  0  0  0  0  0  0
   38.9820   32.2010   41.3720 C   0  0  2  0  0  3  0  0  0  0  0  0
   40.2340   31.7150   40.7240 C   0  0  0  0  0  3  0  0  0  0  0  0
   40.2210   31.7130   39.6170 H   0  0  0  0  0  0  0  0  0  0  0  0
   41.2600   32.5950   41.0930 O   0  0  0  0  0  0  0  0  0  0  0  0
   41.1030   33.7060   40.2530 C   0  0  0  0  0  2  0  0  0  0  0  0
   39.6700   34.1600   40.1830 C   0  0  0  0  0  2  0  0  0  0  0  0
  1 18  1  0  0  0  0
  2  8  1  0  0  0  0
  2  7  1  0  0  0  0
  2  1  1  0  0  0  0
  3  2  1  0  0  0  0
  4  3  1  0  0  0  0
  4  5  1  0  0  0  0
  5 14  1  0  0  0  0
  5  6  1  0  0  0  0
  6 15  1  6  0  0  0
  6  1  1  0  0  0  0
  6 25  1  0  0  0  0
  9  3  1  0  0  0  0
 10  3  1  0  0  0  0
 11  4  1  0  0  0  0
 12  4  1  0  0  0  0
 13  5  1  0  0  0  0
 16 21  1  0  0  0  0
 16 22  1  0  0  0  0
 17 16  2  0  0  0  0
 18 19  2  0  0  0  0
 18 17  1  0  0  0  0
 19 20  1  0  0  0  0
 20 24  1  0  0  0  0
 20 21  2  0  0  0  0
 23 17  1  0  0  0  0
 26 27  1  0  0  0  0
 27 28  1  0  0  0  0
 28 25  1  6  0  0  0
 29 31  1  0  0  0  0
 29 28  1  0  0  0  0
 30 29  1  0  0  0  0
 32 31  1  0  0  0  0
 33 32  1  0  0  0  0
 33 27  1  0  0  0  0
M  END
>  <minimizedAffinity>
-4.78332233

$$$$

 OpenBabel03252502253D

 33 35  0  0  1  0  0  0  0  0999 V2000
   38.1030   25.7600   41.5020 N   0  0  0  0  0  0  0  0  0  0  0  0
   39.5180   25.4480   41.4770 C   0  0  0  0  0  0  0  0  0  0  0  0
   39.9030   25.2790   42.9560 C   0  0  0  0  0  0  0  0  0  0  0  0
   39.7560   26.5870   43.6800 C   0  0  0  0  0  0  0  0  0  0  0  0
   38.5520   27.3780   43.2880 C   0  0  0  0  0  0  0  0  0  0  0  0
   37.5290   26.6250   42.4790 C   0  0  1  0  0  0  0  0  0  0  0  0
   39.7250   24.5000   40.9590 H   0  0  0  0  0  0  0  0  0  0  0  0
   40.0860   26.3070   41.0800 H   0  0  0  0  0  0  0  0  0  0  0  0
   39.3580   24.4660   43.4300 H   0  0  0  0  0  0  0  0  0  0  0  0
   40.9900   25.0080   42.9450 H   0  0  0  0  0  0  0  0  0  0  0  0
   39.7400   26.3910   44.7750 H   0  0  0  0  0  0  0  0  0  0  0  0
   40.6910   27.1720   43.5040 H   0  0  0  0  0  0  0  0  0  0  0  0
   38.0450   27.7770   44.1870 H   0  0  0  0  0  0  0  0  0  0  0  0
   38.8920   28.2650   42.6870 H   0  0  0  0  0  0  0  0  0  0  0  0
   36.9550   26.0180   43.1920 H   0  0  0  0  0  0  0  0  0  0  0  0
   36.2330   25.0910   38.3370 C   0  0  0  0  0  0  0  0  0  0  0  0
   37.1300   25.7190   39.2230 C   0  0  0  0  0  0  0  0  0  0  0  0
   37.2300   25.2010   40.5330 C   0  0  0  0  0  0  0  0  0  0  0  0
   36.4430   24.1270   40.8370 N   0  0  0  0  0  0  0  0  0  0  0  0
   35.5980   23.5590   39.9580 C   0  0  0  0  0  0  0  0  0  0  0  0
   35.5000   24.0500   38.7060 N   0  0  0  0  0  0  0  0  0  0  0  0
   36.1390   25.4730   37.3240 H   0  0  0  0  0  0  0  0  0  0  0  0
   37.7310   26.5580   38.9500 H   0  0  0  0  0  0  0  0  0  0  0  0
   35.0430   22.7030   40.3740 H   0  0  0  0  0  0  0  0  0  0  0  0
   36.7410   27.6000   41.8420 O   0  0  0  0  0  0  0  0  0  0  0  0
   35.7270   29.7100   42.7150 H   0  0  0  0  0  0  0  0  0  0  0  0
   36.5980   29.9470   42.1900 N   0  0  0  0  0  0  0  0  0  0  0  0
   37.3630   28.8280   41.7320 C   0  0  2  0  0  3  0  0  0  0  0  0
   37.9500   29.1010   40.3890 C   0  0  0  0  0  3  0  0  0  0  0  0
   37.2290   29.0990   39.5500 H   0  0  0  0  0  0  0  0  0  0  0  0
   38.4890   30.3950   40.4280 O   0  0  0  0  0  0  0  0  0  0  0  0
   37.3900   31.2490   40.2630 C   0  0  0  0  0  2  0  0  0  0  0  0
   36.2360   30.8550   41.1440 C   0  0  0  0  0  2  0  0  0  0  0  0
  1  6  1  0  0  0  0
  2  1  1  0  0  0  0
  2  3  1  0  0  0  0
  3  9  1  0  0  0  0
  3  4  1  0  0  0  0
  4 11  1  0  0  0  0
  5  4  1  0  0  0  0
  5 13  1  0  0  0  0
  6 15  1  1  0  0  0
  6  5  1  0  0  0  0
  7  2  1  0  0  0  0
  8  2  1  0  0  0  0
 10  3  1  0  0  0  0
 12  4  1  0  0  0  0
 14  5  1  0  0  0  0
 16 21  2  0  0  0  0
 16 17  1  0  0  0  0
 17 18  2  0  0  0  0
 18 19  1  0  0  0  0
 18  1  1  0  0  0  0
 20 24  1  0  0  0  0
 20 19  2  0  0  0  0
 21 20  1  0  0  0  0
 22 16  1  0  0  0  0
 23 17  1  0  0  0  0
 25  6  1  0  0  0  0
 27 26  1  0  0  0  0
 28 25  1  6  0  0  0
 28 27  1  0  0  0  0
 29 31  1  0  0  0  0
 29 28  1  0  0  0  0
 30 29  1  0  0  0  0
 32 31  1  0  0  0  0
 32 33  1  0  0  0  0
 33 27  1  0  0  0  0
M  END
>  <minimizedAffinity>
-4.77869129

$$$$

 OpenBabel03252502253D

 33 35  0  0  1  0  0  0  0  0999 V2000
   36.6620   28.9380   40.0660 N   0  0  0  0  0  0  0  0  0  0  0  0
   35.2160   29.0150   40.0010 C   0  0  0  0  0  0  0  0  0  0  0  0
   34.8670   28.5360   38.5830 C   0  0  0  0  0  0  0  0  0  0  0  0
   35.4030   29.5020   37.5650 C   0  0  0  0  0  0  0  0  0  0  0  0
   36.7600   30.0390   37.8780 C   0  0  0  0  0  0  0  0  0  0  0  0
   37.4970   29.3140   38.9730 C   0  0  1  0  0  0  0  0  0  0  0  0
   34.7310   28.3390   40.7200 H   0  0  0  0  0  0  0  0  0  0  0  0
   34.8910   30.0670   40.0880 H   0  0  0  0  0  0  0  0  0  0  0  0
   35.1850   27.5110   38.4070 H   0  0  0  0  0  0  0  0  0  0  0  0
   33.7470   28.5640   38.5330 H   0  0  0  0  0  0  0  0  0  0  0  0
   35.4140   29.0050   36.5690 H   0  0  0  0  0  0  0  0  0  0  0  0
   34.6600   30.3300   37.4670 H   0  0  0  0  0  0  0  0  0  0  0  0
   37.3980   30.0230   36.9740 H   0  0  0  0  0  0  0  0  0  0  0  0
   36.6530   31.1160   38.1810 H   0  0  0  0  0  0  0  0  0  0  0  0
   37.9120   28.4040   38.5190 H   0  0  0  0  0  0  0  0  0  0  0  0
   37.9030   28.6390   43.5770 C   0  0  0  0  0  0  0  0  0  0  0  0
   37.2330   29.1840   42.4650 C   0  0  0  0  0  0  0  0  0  0  0  0
   37.3010   28.4740   41.2450 C   0  0  0  0  0  0  0  0  0  0  0  0
   38.0150   27.3110   41.2430 N   0  0  0  0  0  0  0  0  0  0  0  0
   38.6410   26.8270   42.3310 C   0  0  0  0  0  0  0  0  0  0  0  0
   38.5780   27.5000   43.4980 N   0  0  0  0  0  0  0  0  0  0  0  0
   37.8650   29.1670   44.5260 H   0  0  0  0  0  0  0  0  0  0  0  0
   36.6840   30.0980   42.5030 H   0  0  0  0  0  0  0  0  0  0  0  0
   39.1680   25.8770   42.1480 H   0  0  0  0  0  0  0  0  0  0  0  0
   38.4950   30.1960   39.4230 O   0  0  0  0  0  0  0  0  0  0  0  0
   40.0300   31.7430   38.2020 H   0  0  0  0  0  0  0  0  0  0  0  0
   39.2290   32.2940   38.5820 N   0  0  0  0  0  0  0  0  0  0  0  0
   38.1960   31.5270   39.2050 C   0  0  2  0  0  3  0  0  0  0  0  0
   37.6520   32.2370   40.3980 C   0  0  0  0  0  3  0  0  0  0  0  0
   38.3230   32.2630   41.2770 H   0  0  0  0  0  0  0  0  0  0  0  0
   37.4540   33.5750   40.0280 O   0  0  0  0  0  0  0  0  0  0  0  0
   38.7250   34.1610   40.0980 C   0  0  0  0  0  2  0  0  0  0  0  0
   39.7730   33.3110   39.4310 C   0  0  0  0  0  2  0  0  0  0  0  0
  1 18  1  0  0  0  0
  2  1  1  0  0  0  0
  2  8  1  0  0  0  0
  2  7  1  0  0  0  0
  3  2  1  0  0  0  0
  4  5  1  0  0  0  0
  4  3  1  0  0  0  0
  5 14  1  0  0  0  0
  5  6  1  0  0  0  0
  6 15  1  6  0  0  0
  6 25  1  0  0  0  0
  6  1  1  0  0  0  0
  9  3  1  0  0  0  0
 10  3  1  0  0  0  0
 11  4  1  0  0  0  0
 12  4  1  0  0  0  0
 13  5  1  0  0  0  0
 16 22  1  0  0  0  0
 17 23  1  0  0  0  0
 17 16  2  0  0  0  0
 18 17  1  0  0  0  0
 19 18  2  0  0  0  0
 19 20  1  0  0  0  0
 20 21  2  0  0  0  0
 21 16  1  0  0  0  0
 24 20  1  0  0  0  0
 26 27  1  0  0  0  0
 27 28  1  0  0  0  0
 27 33  1  0  0  0  0
 28 25  1  1  0  0  0
 28 29  1  0  0  0  0
 29 30  1  0  0  0  0
 31 32  1  0  0  0  0
 31 29  1  0  0  0  0
 33 32  1  0  0  0  0
M  END
>  <minimizedAffinity>
-4.75178385

$$$$

 OpenBabel03252502253D

 33 35  0  0  1  0  0  0  0  0999 V2000
   37.9080   30.6120   41.3400 N   0  0  0  0  0  0  0  0  0  0  0  0
   36.6530   31.1670   40.8740 C   0  0  0  0  0  0  0  0  0  0  0  0
   37.0260   31.9570   39.6090 C   0  0  0  0  0  0  0  0  0  0  0  0
   37.9110   33.1170   39.9680 C   0  0  0  0  0  0  0  0  0  0  0  0
   38.9360   32.8130   41.0090 C   0  0  0  0  0  0  0  0  0  0  0  0
   39.1280   31.3500   41.3080 C   0  0  1  0  0  0  0  0  0  0  0  0
   35.9330   30.3850   40.5900 H   0  0  0  0  0  0  0  0  0  0  0  0
   36.2610   31.8860   41.6140 H   0  0  0  0  0  0  0  0  0  0  0  0
   37.4520   31.3180   38.8380 H   0  0  0  0  0  0  0  0  0  0  0  0
   36.0560   32.3660   39.2240 H   0  0  0  0  0  0  0  0  0  0  0  0
   38.4090   33.4870   39.0440 H   0  0  0  0  0  0  0  0  0  0  0  0
   37.2480   33.9540   40.2940 H   0  0  0  0  0  0  0  0  0  0  0  0
   39.9180   33.2290   40.7160 H   0  0  0  0  0  0  0  0  0  0  0  0
   38.6360   33.3290   41.9620 H   0  0  0  0  0  0  0  0  0  0  0  0
   39.7600   30.9490   40.5050 H   0  0  0  0  0  0  0  0  0  0  0  0
   38.5330   26.9490   41.7220 C   0  0  0  0  0  0  0  0  0  0  0  0
   38.5320   28.2230   41.1250 C   0  0  0  0  0  0  0  0  0  0  0  0
   37.9590   29.2900   41.8530 C   0  0  0  0  0  0  0  0  0  0  0  0
   37.4490   28.9960   43.0840 N   0  0  0  0  0  0  0  0  0  0  0  0
   37.4700   27.7610   43.6170 C   0  0  0  0  0  0  0  0  0  0  0  0
   38.0170   26.7400   42.9260 N   0  0  0  0  0  0  0  0  0  0  0  0
   38.9680   26.1130   41.1810 H   0  0  0  0  0  0  0  0  0  0  0  0
   38.9410   28.4170   40.1580 H   0  0  0  0  0  0  0  0  0  0  0  0
   37.0150   27.7070   44.6190 H   0  0  0  0  0  0  0  0  0  0  0  0
   39.7500   31.2870   42.5680 O   0  0  0  0  0  0  0  0  0  0  0  0
   41.5600   32.6940   43.5630 H   0  0  0  0  0  0  0  0  0  0  0  0
   41.9970   31.9070   43.0340 N   0  0  0  0  0  0  0  0  0  0  0  0
   41.0860   30.9390   42.5070 C   0  0  2  0  0  3  0  0  0  0  0  0
   41.5350   30.4610   41.1670 C   0  0  0  0  0  3  0  0  0  0  0  0
   41.4180   31.1910   40.3430 H   0  0  0  0  0  0  0  0  0  0  0  0
   42.9100   30.2050   41.2590 O   0  0  0  0  0  0  0  0  0  0  0  0
   43.5200   31.4620   41.1580 C   0  0  0  0  0  2  0  0  0  0  0  0
   42.8540   32.4830   42.0400 C   0  0  0  0  0  2  0  0  0  0  0  0
  1 18  1  0  0  0  0
  2  1  1  0  0  0  0
  2  8  1  0  0  0  0
  3  4  1  0  0  0  0
  3  2  1  0  0  0  0
  4 12  1  0  0  0  0
  4  5  1  0  0  0  0
  5  6  1  0  0  0  0
  5 14  1  0  0  0  0
  6 15  1  6  0  0  0
  6  1  1  0  0  0  0
  6 25  1  0  0  0  0
  7  2  1  0  0  0  0
  9  3  1  0  0  0  0
 10  3  1  0  0  0  0
 11  4  1  0  0  0  0
 13  5  1  0  0  0  0
 16 21  1  0  0  0  0
 17 16  2  0  0  0  0
 17 18  1  0  0  0  0
 18 19  2  0  0  0  0
 19 20  1  0  0  0  0
 20 24  1  0  0  0  0
 21 20  2  0  0  0  0
 22 16  1  0  0  0  0
 23 17  1  0  0  0  0
 27 26  1  0  0  0  0
 28 25  1  6  0  0  0
 28 27  1  0  0  0  0
 29 31  1  0  0  0  0
 29 28  1  0  0  0  0
 30 29  1  0  0  0  0
 32 31  1  0  0  0  0
 32 33  1  0  0  0  0
 33 27  1  0  0  0  0
M  END
>  <minimizedAffinity>
-4.70236063

$$$$

 OpenBabel03252502253D

 33 35  0  0  1  0  0  0  0  0999 V2000
   36.2950   28.7300   39.9870 N   0  0  0  0  0  0  0  0  0  0  0  0
   35.0050   29.3900   39.9930 C   0  0  0  0  0  0  0  0  0  0  0  0
   34.2670   28.8060   38.7770 C   0  0  0  0  0  0  0  0  0  0  0  0
   34.9610   29.2120   37.5080 C   0  0  0  0  0  0  0  0  0  0  0  0
   36.4510   29.1840   37.5830 C   0  0  0  0  0  0  0  0  0  0  0  0
   37.0170   28.4740   38.7840 C   0  0  1  0  0  0  0  0  0  0  0  0
   34.4210   29.1530   40.8940 H   0  0  0  0  0  0  0  0  0  0  0  0
   35.1340   30.4720   39.8160 H   0  0  0  0  0  0  0  0  0  0  0  0
   34.1260   27.7300   38.8610 H   0  0  0  0  0  0  0  0  0  0  0  0
   33.2560   29.2890   38.7900 H   0  0  0  0  0  0  0  0  0  0  0  0
   34.6120   28.5530   36.6820 H   0  0  0  0  0  0  0  0  0  0  0  0
   34.5950   30.2320   37.2390 H   0  0  0  0  0  0  0  0  0  0  0  0
   36.8740   28.7070   36.6790 H   0  0  0  0  0  0  0  0  0  0  0  0
   36.8240   30.2450   37.5950 H   0  0  0  0  0  0  0  0  0  0  0  0
   36.9630   27.4000   38.5640 H   0  0  0  0  0  0  0  0  0  0  0  0
   37.6920   26.6340   42.7460 C   0  0  0  0  0  0  0  0  0  0  0  0
   37.0960   26.9450   41.5100 C   0  0  0  0  0  0  0  0  0  0  0  0
   36.8880   28.3100   41.2060 C   0  0  0  0  0  0  0  0  0  0  0  0
   37.2850   29.2200   42.1420 N   0  0  0  0  0  0  0  0  0  0  0  0
   37.8520   28.8770   43.3130 C   0  0  0  0  0  0  0  0  0  0  0  0
   38.0520   27.5760   43.6070 N   0  0  0  0  0  0  0  0  0  0  0  0
   37.8610   25.5910   43.0020 H   0  0  0  0  0  0  0  0  0  0  0  0
   36.7970   26.2050   40.8010 H   0  0  0  0  0  0  0  0  0  0  0  0
   38.1090   29.7410   43.9460 H   0  0  0  0  0  0  0  0  0  0  0  0
   38.3400   28.9310   38.9220 O   0  0  0  0  0  0  0  0  0  0  0  0
   39.8770   29.3890   37.0060 H   0  0  0  0  0  0  0  0  0  0  0  0
   39.5320   30.2980   37.3870 N   0  0  0  0  0  0  0  0  0  0  0  0
   38.5410   30.1990   38.4130 C   0  0  2  0  0  3  0  0  0  0  0  0
   38.7450   31.2520   39.4500 C   0  0  0  0  0  3  0  0  0  0  0  0
   39.6160   31.0970   40.1140 H   0  0  0  0  0  0  0  0  0  0  0  0
   38.9870   32.4560   38.7760 O   0  0  0  0  0  0  0  0  0  0  0  0
   40.3340   32.3910   38.3930 C   0  0  0  0  0  2  0  0  0  0  0  0
   40.6790   31.0640   37.7740 C   0  0  0  0  0  2  0  0  0  0  0  0
  1  2  1  0  0  0  0
  1 18  1  0  0  0  0
  2  7  1  0  0  0  0
  3 10  1  0  0  0  0
  3  9  1  0  0  0  0
  3  2  1  0  0  0  0
  4  5  1  0  0  0  0
  4  3  1  0  0  0  0
  5 14  1  0  0  0  0
  5  6  1  0  0  0  0
  6 15  1  6  0  0  0
  6 25  1  0  0  0  0
  6  1  1  0  0  0  0
  8  2  1  0  0  0  0
 11  4  1  0  0  0  0
 12  4  1  0  0  0  0
 13  5  1  0  0  0  0
 16 22  1  0  0  0  0
 16 21  1  0  0  0  0
 17 16  2  0  0  0  0
 18 17  1  0  0  0  0
 18 19  2  0  0  0  0
 19 20  1  0  0  0  0
 20 21  2  0  0  0  0
 20 24  1  0  0  0  0
 23 17  1  0  0  0  0
 26 27  1  0  0  0  0
 27 33  1  0  0  0  0
 27 28  1  0  0  0  0
 28 25  1  1  0  0  0
 28 29  1  0  0  0  0
 29 30  1  0  0  0  0
 31 29  1  0  0  0  0
 32 31  1  0  0  0  0
 33 32  1  0  0  0  0
M  END
>  <minimizedAffinity>
-4.55715084

$$$$

 OpenBabel03252502253D

 33 35  0  0  1  0  0  0  0  0999 V2000
   36.2450   29.4670   37.9170 N   0  0  0  0  0  0  0  0  0  0  0  0
   35.9760   29.3420   36.4990 C   0  0  0  0  0  0  0  0  0  0  0  0
   34.4980   28.9240   36.4220 C   0  0  0  0  0  0  0  0  0  0  0  0
   34.3160   27.5600   37.0250 C   0  0  0  0  0  0  0  0  0  0  0  0
   35.1140   27.3200   38.2620 C   0  0  0  0  0  0  0  0  0  0  0  0
   35.7240   28.5510   38.8780 C   0  0  1  0  0  0  0  0  0  0  0  0
   36.0890   30.2990   35.9690 H   0  0  0  0  0  0  0  0  0  0  0  0
   36.5780   28.5210   36.0720 H   0  0  0  0  0  0  0  0  0  0  0  0
   33.8370   29.6730   36.8540 H   0  0  0  0  0  0  0  0  0  0  0  0
   34.2720   28.8530   35.3270 H   0  0  0  0  0  0  0  0  0  0  0  0
   33.2340   27.4030   37.2360 H   0  0  0  0  0  0  0  0  0  0  0  0
   34.5680   26.8110   36.2360 H   0  0  0  0  0  0  0  0  0  0  0  0
   34.4910   26.8290   39.0340 H   0  0  0  0  0  0  0  0  0  0  0  0
   35.9450   26.6040   38.0130 H   0  0  0  0  0  0  0  0  0  0  0  0
   34.9220   29.0480   39.4390 H   0  0  0  0  0  0  0  0  0  0  0  0
   39.0640   31.8640   38.4370 C   0  0  0  0  0  0  0  0  0  0  0  0
   38.3440   30.7850   37.8890 C   0  0  0  0  0  0  0  0  0  0  0  0
   37.0520   30.5300   38.4010 C   0  0  0  0  0  0  0  0  0  0  0  0
   36.6040   31.3540   39.3920 N   0  0  0  0  0  0  0  0  0  0  0  0
   37.3280   32.3740   39.8880 C   0  0  0  0  0  0  0  0  0  0  0  0
   38.5610   32.6230   39.4020 N   0  0  0  0  0  0  0  0  0  0  0  0
   40.0600   32.0790   38.0590 H   0  0  0  0  0  0  0  0  0  0  0  0
   38.7270   30.1600   37.1130 H   0  0  0  0  0  0  0  0  0  0  0  0
   36.8100   32.9340   40.6830 H   0  0  0  0  0  0  0  0  0  0  0  0
   36.7640   28.0980   39.7100 O   0  0  0  0  0  0  0  0  0  0  0  0
   36.6630   30.1170   41.1790 H   0  0  0  0  0  0  0  0  0  0  0  0
   36.5080   29.2660   41.7640 N   0  0  0  0  0  0  0  0  0  0  0  0
   36.4140   28.0340   41.0450 C   0  0  2  0  0  3  0  0  0  0  0  0
   37.0710   26.9280   41.7990 C   0  0  0  0  0  3  0  0  0  0  0  0
   38.1770   26.9650   41.8210 H   0  0  0  0  0  0  0  0  0  0  0  0
   36.6580   27.0340   43.1340 O   0  0  0  0  0  0  0  0  0  0  0  0
   37.4530   28.0510   43.6790 C   0  0  0  0  0  2  0  0  0  0  0  0
   37.5170   29.2560   42.7810 C   0  0  0  0  0  2  0  0  0  0  0  0
  1 18  1  0  0  0  0
  1  6  1  0  0  0  0
  2  1  1  0  0  0  0
  3  2  1  0  0  0  0
  3  9  1  0  0  0  0
  3  4  1  0  0  0  0
  4 11  1  0  0  0  0
  4  5  1  0  0  0  0
  5  6  1  0  0  0  0
  5 13  1  0  0  0  0
  6 15  1  1  0  0  0
  6 25  1  0  0  0  0
  7  2  1  0  0  0  0
  8  2  1  0  0  0  0
 10  3  1  0  0  0  0
 12  4  1  0  0  0  0
 14  5  1  0  0  0  0
 16 21  1  0  0  0  0
 17 18  1  0  0  0  0
 17 16  2  0  0  0  0
 18 19  2  0  0  0  0
 19 20  1  0  0  0  0
 20 24  1  0  0  0  0
 21 20  2  0  0  0  0
 22 16  1  0  0  0  0
 23 17  1  0  0  0  0
 26 27  1  0  0  0  0
 27 33  1  0  0  0  0
 28 25  1  6  0  0  0
 28 27  1  0  0  0  0
 28 29  1  0  0  0  0
 29 30  1  0  0  0  0
 29 31  1  0  0  0  0
 31 32  1  0  0  0  0
 33 32  1  0  0  0  0
M  END
>  <minimizedAffinity>
-4.52858973

$$$$

 OpenBabel03252502253D

 33 35  0  0  1  0  0  0  0  0999 V2000
   36.9710   29.7210   38.4870 N   0  0  0  0  0  0  0  0  0  0  0  0
   36.3560   28.7430   37.6140 C   0  0  0  0  0  0  0  0  0  0  0  0
   34.8800   29.1660   37.5380 C   0  0  0  0  0  0  0  0  0  0  0  0
   34.2310   29.0200   38.8860 C   0  0  0  0  0  0  0  0  0  0  0  0
   35.0890   29.4400   40.0320 C   0  0  0  0  0  0  0  0  0  0  0  0
   36.3220   30.2170   39.6560 C   0  0  1  0  0  0  0  0  0  0  0  0
   36.7730   28.7720   36.5970 H   0  0  0  0  0  0  0  0  0  0  0  0
   36.3930   27.7440   38.0820 H   0  0  0  0  0  0  0  0  0  0  0  0
   34.7600   30.1610   37.1130 H   0  0  0  0  0  0  0  0  0  0  0  0
   34.4010   28.4310   36.8400 H   0  0  0  0  0  0  0  0  0  0  0  0
   33.2820   29.6010   38.8910 H   0  0  0  0  0  0  0  0  0  0  0  0
   33.9180   27.9540   38.9910 H   0  0  0  0  0  0  0  0  0  0  0  0
   34.5060   30.0540   40.7440 H   0  0  0  0  0  0  0  0  0  0  0  0
   35.4110   28.5170   40.5880 H   0  0  0  0  0  0  0  0  0  0  0  0
   35.9950   31.2480   39.4660 H   0  0  0  0  0  0  0  0  0  0  0  0
   39.8260   32.0010   37.7060 C   0  0  0  0  0  0  0  0  0  0  0  0
   38.5060   31.6030   37.9890 C   0  0  0  0  0  0  0  0  0  0  0  0
   38.2650   30.2260   38.1960 C   0  0  0  0  0  0  0  0  0  0  0  0
   39.3390   29.3880   38.1040 N   0  0  0  0  0  0  0  0  0  0  0  0
   40.5860   29.8130   37.8300 C   0  0  0  0  0  0  0  0  0  0  0  0
   40.8210   31.1260   37.6330 N   0  0  0  0  0  0  0  0  0  0  0  0
   40.0360   33.0550   37.5430 H   0  0  0  0  0  0  0  0  0  0  0  0
   37.6890   32.2870   38.0540 H   0  0  0  0  0  0  0  0  0  0  0  0
   41.3280   29.0000   37.7940 H   0  0  0  0  0  0  0  0  0  0  0  0
   37.1950   30.1220   40.7560 O   0  0  0  0  0  0  0  0  0  0  0  0
   36.6500   30.0030   43.1910 H   0  0  0  0  0  0  0  0  0  0  0  0
   36.8770   29.0430   42.8490 N   0  0  0  0  0  0  0  0  0  0  0  0
   37.0920   28.9270   41.4400 C   0  0  2  0  0  3  0  0  0  0  0  0
   38.1850   27.9560   41.1480 C   0  0  0  0  0  3  0  0  0  0  0  0
   39.2060   28.3080   41.3920 H   0  0  0  0  0  0  0  0  0  0  0  0
   37.9660   26.8300   41.9550 O   0  0  0  0  0  0  0  0  0  0  0  0
   38.4500   27.1920   43.2190 C   0  0  0  0  0  2  0  0  0  0  0  0
   37.9730   28.5570   43.6340 C   0  0  0  0  0  2  0  0  0  0  0  0
  1  6  1  0  0  0  0
  2  8  1  0  0  0  0
  2  1  1  0  0  0  0
  3  2  1  0  0  0  0
  3  4  1  0  0  0  0
  4 11  1  0  0  0  0
  4 12  1  0  0  0  0
  4  5  1  0  0  0  0
  5 14  1  0  0  0  0
  5 13  1  0  0  0  0
  6 15  1  6  0  0  0
  6  5  1  0  0  0  0
  6 25  1  0  0  0  0
  7  2  1  0  0  0  0
  9  3  1  0  0  0  0
 10  3  1  0  0  0  0
 16 17  1  0  0  0  0
 17 23  1  0  0  0  0
 17 18  2  0  0  0  0
 18  1  1  0  0  0  0
 19 18  1  0  0  0  0
 20 19  2  0  0  0  0
 21 16  2  0  0  0  0
 21 20  1  0  0  0  0
 22 16  1  0  0  0  0
 24 20  1  0  0  0  0
 27 26  1  0  0  0  0
 27 33  1  0  0  0  0
 28 25  1  1  0  0  0
 28 27  1  0  0  0  0
 29 30  1  0  0  0  0
 29 28  1  0  0  0  0
 29 31  1  0  0  0  0
 31 32  1  0  0  0  0
 32 33  1  0  0  0  0
M  END
>  <minimizedAffinity>
-4.5154829

$$$$
