
 OpenBabel03252508523D

 42 45  0  0  1  0  0  0  0  0999 V2000
   43.3320   34.4480   40.7280 C   0  0  0  0  0  0  0  0  0  0  0  0
   43.2750   35.6660   40.3330 O   0  0  0  0  0  0  0  0  0  0  0  0
   41.9690   34.0440   40.4300 N   0  0  0  0  0  0  0  0  0  0  0  0
   41.5930   34.1350   39.0400 C   0  0  0  0  0  0  0  0  0  0  0  0
   40.7910   35.4440   38.9350 C   0  0  0  0  0  0  0  0  0  0  0  0
   39.9990   35.5670   40.2310 C   0  0  0  0  0  0  0  0  0  0  0  0
   39.6560   34.2000   40.8240 C   0  0  0  0  0  0  0  0  0  0  0  0
   40.9440   33.5660   41.3320 C   0  0  1  0  0  0  0  0  0  0  0  0
   42.4460   34.2260   38.3440 H   0  0  0  0  0  0  0  0  0  0  0  0
   40.9060   33.3190   38.7160 H   0  0  0  0  0  0  0  0  0  0  0  0
   41.4750   36.3190   38.8510 H   0  0  0  0  0  0  0  0  0  0  0  0
   40.1300   35.4430   38.0500 H   0  0  0  0  0  0  0  0  0  0  0  0
   39.0080   36.0320   39.9820 H   0  0  0  0  0  0  0  0  0  0  0  0
   40.5560   36.1380   40.9870 H   0  0  0  0  0  0  0  0  0  0  0  0
   39.1890   33.5890   40.0180 H   0  0  0  0  0  0  0  0  0  0  0  0
   38.9380   34.4060   41.6300 H   0  0  0  0  0  0  0  0  0  0  0  0
   41.1320   33.8880   42.3790 H   0  0  0  0  0  0  0  0  0  0  0  0
   40.7610   32.1560   41.3090 N   0  0  2  0  0  0  0  0  0  0  0  0
   41.1960   31.6640   40.0180 C   0  0  0  0  0  3  0  0  0  0  0  0
   42.1800   31.1480   40.0800 H   0  0  0  0  0  0  0  0  0  0  0  0
   40.1500   30.7940   39.3610 C   0  0  0  0  0  3  0  0  0  0  0  0
   40.6210   30.3360   38.4670 H   0  0  0  0  0  0  0  0  0  0  0  0
   39.7170   29.7630   40.1830 O   0  0  0  0  0  0  0  0  0  0  0  0
   39.4460   30.1750   41.4720 C   0  0  0  0  0  2  0  0  0  0  0  0
   39.4300   31.6970   41.5590 C   0  0  0  0  0  2  0  0  0  0  0  0
   44.3990   33.7970   41.2620 O   0  0  0  0  0  0  0  0  0  0  0  0
   45.7320   34.1210   41.1160 C   0  0  0  0  0  0  0  0  0  0  0  0
   46.3690   34.7370   42.1900 C   0  0  0  0  0  0  0  0  0  0  0  0
   47.7310   35.0530   42.0050 C   0  0  0  0  0  0  0  0  0  0  0  0
   48.3210   34.7440   40.8160 N   0  0  0  0  0  0  0  0  0  0  0  0
   47.6570   34.1560   39.8280 C   0  0  0  0  0  0  0  0  0  0  0  0
   46.3630   33.8390   39.9650 N   0  0  0  0  0  0  0  0  0  0  0  0
   48.2200   35.5280   42.8360 H   0  0  0  0  0  0  0  0  0  0  0  0
   48.1840   33.9350   38.9010 H   0  0  0  0  0  0  0  0  0  0  0  0
   45.6460   35.0190   43.4080 C   0  0  0  0  0  0  0  0  0  0  0  0
   45.0080   36.2430   43.6300 C   0  0  0  0  0  0  0  0  0  0  0  0
   44.4540   36.0980   44.8770 C   0  0  0  0  0  0  0  0  0  0  0  0
   44.7350   34.8700   45.3840 N   0  0  0  0  0  0  0  0  0  0  0  0
   45.4540   34.2520   44.4660 N   0  0  0  0  0  0  0  0  0  0  0  0
   44.9550   37.1110   42.9780 H   0  0  0  0  0  0  0  0  0  0  0  0
   43.8710   36.8420   45.4080 H   0  0  0  0  0  0  0  0  0  0  0  0
   44.4180   34.5210   46.3320 H   0  0  0  0  0  0  0  0  0  0  0  0
  1 26  1  0  0  0  0
  2  1  2  0  0  0  0
  3  1  1  0  0  0  0
  3  8  1  0  0  0  0
  4  3  1  0  0  0  0
  5  4  1  0  0  0  0
  5  6  1  0  0  0  0
  6  7  1  0  0  0  0
  6 14  1  0  0  0  0
  7  8  1  0  0  0  0
  7 16  1  0  0  0  0
  8 17  1  1  0  0  0
  9  4  1  0  0  0  0
 10  4  1  0  0  0  0
 11  5  1  0  0  0  0
 12  5  1  0  0  0  0
 13  6  1  0  0  0  0
 15  7  1  0  0  0  0
 18  8  1  0  0  0  0
 18 25  1  6  0  0  0
 19 20  1  0  0  0  0
 19 18  1  0  0  0  0
 21 19  1  0  0  0  0
 21 23  1  0  0  0  0
 22 21  1  0  0  0  0
 23 24  1  0  0  0  0
 24 25  1  0  0  0  0
 27 26  1  0  0  0  0
 27 28  1  0  0  0  0
 28 35  1  0  0  0  0
 29 28  2  0  0  0  0
 29 33  1  0  0  0  0
 30 29  1  0  0  0  0
 31 32  1  0  0  0  0
 31 30  2  0  0  0  0
 32 27  2  0  0  0  0
 34 31  1  0  0  0  0
 35 36  1  0  0  0  0
 35 39  2  0  0  0  0
 36 37  2  0  0  0  0
 37 38  1  0  0  0  0
 37 41  1  0  0  0  0
 38 42  1  0  0  0  0
 39 38  1  0  0  0  0
 40 36  1  0  0  0  0
M  END
>  <minimizedAffinity>
-6.71334648

>  <minimizedRMSD>
0.393026799

$$$$
