
 OpenBabel03242512133D

 40 43  0  0  1  0  0  0  0  0999 V2000
   36.5260   30.7650   38.9330 O   0  0  0  0  0  0  0  0  0  0  0  0
   37.1910   31.4160   40.1370 P   0  0  2  0  0  0  0  0  0  0  0  0
   36.7590   33.0010   40.3100 O   0  0  0  0  0  0  0  0  0  0  0  0
   37.4810   33.6590   40.2040 H   0  0  0  0  0  0  0  0  0  0  0  0
   38.8520   31.1280   39.9970 O   0  0  0  0  0  0  0  0  0  0  0  0
   40.8650   32.5490   40.0700 C   0  0  1  0  0  0  0  0  0  0  0  0
   40.5910   31.8320   41.4520 C   0  0  0  0  0  0  0  0  0  0  0  0
   39.5110   32.2030   40.5680 C   0  0  2  0  0  0  0  0  0  0  0  0
   41.3160   31.9030   39.3230 H   0  0  0  0  0  0  0  0  0  0  0  0
   40.7380   32.4510   42.3590 H   0  0  0  0  0  0  0  0  0  0  0  0
   40.9940   30.8110   41.5070 H   0  0  0  0  0  0  0  0  0  0  0  0
   38.8790   33.0960   40.6570 H   0  0  0  0  0  0  0  0  0  0  0  0
   41.3940   33.9290   40.2630 C   0  0  0  0  0  0  0  0  0  0  0  0
   40.6220   34.8620   40.0980 O   0  0  0  0  0  0  0  0  0  0  0  0
   43.1040   34.8280   41.7790 C   0  0  0  0  0  0  0  0  0  0  0  0
   42.7320   34.2450   40.6290 C   0  0  0  0  0  0  0  0  0  0  0  0
   43.7910   33.9290   39.7130 C   0  0  0  0  0  0  0  0  0  0  0  0
   45.0790   34.2100   40.0100 N   0  0  0  0  0  0  0  0  0  0  0  0
   45.3880   34.8030   41.1950 C   0  0  0  0  0  0  0  0  0  0  0  0
   44.4240   35.0980   42.0450 N   0  0  0  0  0  0  0  0  0  0  0  0
   42.3330   35.0810   42.4940 H   0  0  0  0  0  0  0  0  0  0  0  0
   43.6600   33.4630   38.7750 H   0  0  0  0  0  0  0  0  0  0  0  0
   46.3770   35.0720   41.5350 H   0  0  0  0  0  0  0  0  0  0  0  0
   36.6250   30.4630   41.4770 O   0  0  0  0  0  0  0  0  0  0  0  0
   37.2890   29.3670   41.9760 C   0  0  0  0  0  0  0  0  0  0  0  0
   38.2260   29.2990   43.0000 C   0  0  0  0  0  0  0  0  0  0  0  0
   38.7800   28.0880   43.3530 C   0  0  0  0  0  0  0  0  0  0  0  0
   38.3990   26.9660   42.6910 N   0  0  0  0  0  0  0  0  0  0  0  0
   37.4880   27.0250   41.6940 C   0  0  0  0  0  0  0  0  0  0  0  0
   36.9210   28.2180   41.3210 N   0  0  0  0  0  0  0  0  0  0  0  0
   38.4180   30.2680   43.4210 H   0  0  0  0  0  0  0  0  0  0  0  0
   39.4990   28.1140   44.1560 H   0  0  0  0  0  0  0  0  0  0  0  0
   37.1380   25.8070   41.0430 N   0  0  0  0  0  0  0  0  0  0  0  0
   37.0630   25.7990   39.6170 C   0  0  0  0  0  3  0  0  0  0  0  0
   37.7380   26.5250   39.1210 H   0  0  0  0  0  0  0  0  0  0  0  0
   37.4040   24.4300   39.0310 C   0  0  0  0  0  3  0  0  0  0  0  0
   36.9780   24.3770   38.0090 H   0  0  0  0  0  0  0  0  0  0  0  0
   36.8110   23.4100   39.7740 O   0  0  0  0  0  0  0  0  0  0  0  0
   37.4430   23.4150   41.0100 C   0  0  0  0  0  2  0  0  0  0  0  0
   36.8630   24.5980   41.7940 C   0  0  0  0  0  2  0  0  0  0  0  0
  2  1  2  6  0  0  0
  2  3  1  0  0  0  0
  2 24  1  0  0  0  0
  4  3  1  0  0  0  0
  5  2  1  0  0  0  0
  5  8  1  0  0  0  0
  6  9  1  6  0  0  0
  6 13  1  0  0  0  0
  6  8  1  0  0  0  0
  6  7  1  0  0  0  0
  7 11  1  0  0  0  0
  7 10  1  0  0  0  0
  8 12  1  1  0  0  0
  8  7  1  0  0  0  0
 13 16  1  0  0  0  0
 14 13  2  0  0  0  0
 15 20  1  0  0  0  0
 15 21  1  0  0  0  0
 16 15  2  0  0  0  0
 17 18  2  0  0  0  0
 17 16  1  0  0  0  0
 18 19  1  0  0  0  0
 19 23  1  0  0  0  0
 19 20  2  0  0  0  0
 22 17  1  0  0  0  0
 24 25  1  0  0  0  0
 25 26  1  0  0  0  0
 26 27  2  0  0  0  0
 26 31  1  0  0  0  0
 27 32  1  0  0  0  0
 28 27  1  0  0  0  0
 29 28  2  0  0  0  0
 30 29  1  0  0  0  0
 30 25  2  0  0  0  0
 33 29  1  0  0  0  0
 33 40  1  0  0  0  0
 34 33  1  0  0  0  0
 35 34  1  0  0  0  0
 36 34  1  0  0  0  0
 36 38  1  0  0  0  0
 37 36  1  0  0  0  0
 38 39  1  0  0  0  0
 39 40  1  0  0  0  0
M  END
>  <minimizedAffinity>
-6.059865

$$$$

 OpenBabel03242512133D

 40 43  0  0  1  0  0  0  0  0999 V2000
   38.0680   30.1860   41.8810 O   0  0  0  0  0  0  0  0  0  0  0  0
   36.7920   30.0020   41.0740 P   0  0  2  0  0  0  0  0  0  0  0  0
   35.7440   31.2660   41.2620 O   0  0  0  0  0  0  0  0  0  0  0  0
   34.8880   31.0550   41.6950 H   0  0  0  0  0  0  0  0  0  0  0  0
   36.1710   28.4800   41.4730 O   0  0  0  0  0  0  0  0  0  0  0  0
   37.1770   26.3450   42.1830 C   0  0  1  0  0  0  0  0  0  0  0  0
   36.5970   27.1670   43.4040 C   0  0  0  0  0  0  0  0  0  0  0  0
   37.1260   27.8270   42.2330 C   0  0  2  0  0  0  0  0  0  0  0  0
   36.4190   25.8260   41.6050 H   0  0  0  0  0  0  0  0  0  0  0  0
   37.2210   27.1830   44.3190 H   0  0  0  0  0  0  0  0  0  0  0  0
   35.5220   27.0110   43.5690 H   0  0  0  0  0  0  0  0  0  0  0  0
   38.1270   28.2640   42.1330 H   0  0  0  0  0  0  0  0  0  0  0  0
   38.4360   25.6360   42.5480 C   0  0  0  0  0  0  0  0  0  0  0  0
   38.3990   24.4160   42.6250 O   0  0  0  0  0  0  0  0  0  0  0  0
   40.1730   26.5330   44.0330 C   0  0  0  0  0  0  0  0  0  0  0  0
   39.6810   26.2700   42.8120 C   0  0  0  0  0  0  0  0  0  0  0  0
   40.4990   26.6760   41.7050 C   0  0  0  0  0  0  0  0  0  0  0  0
   41.6890   27.2850   41.9000 N   0  0  0  0  0  0  0  0  0  0  0  0
   42.1290   27.5210   43.1660 C   0  0  0  0  0  0  0  0  0  0  0  0
   41.3880   27.1540   44.1920 N   0  0  0  0  0  0  0  0  0  0  0  0
   39.5850   26.2410   44.8920 H   0  0  0  0  0  0  0  0  0  0  0  0
   40.2530   26.5330   40.6880 H   0  0  0  0  0  0  0  0  0  0  0  0
   43.0600   27.9990   43.4380 H   0  0  0  0  0  0  0  0  0  0  0  0
   37.3610   29.9000   39.4340 O   0  0  0  0  0  0  0  0  0  0  0  0
   38.6900   29.9080   39.0790 C   0  0  0  0  0  0  0  0  0  0  0  0
   39.5600   28.8380   38.9140 C   0  0  0  0  0  0  0  0  0  0  0  0
   40.8710   29.0600   38.5500 C   0  0  0  0  0  0  0  0  0  0  0  0
   41.2980   30.3330   38.3540 N   0  0  0  0  0  0  0  0  0  0  0  0
   40.4560   31.3790   38.5130 C   0  0  0  0  0  0  0  0  0  0  0  0
   39.1470   31.1860   38.8760 N   0  0  0  0  0  0  0  0  0  0  0  0
   39.0710   27.9000   39.1040 H   0  0  0  0  0  0  0  0  0  0  0  0
   41.4860   28.1810   38.4410 H   0  0  0  0  0  0  0  0  0  0  0  0
   40.9760   32.6870   38.2920 N   0  0  0  0  0  0  0  0  0  0  0  0
   40.6550   33.7110   39.2350 C   0  0  0  0  0  3  0  0  0  0  0  0
   40.4840   33.3420   40.2670 H   0  0  0  0  0  0  0  0  0  0  0  0
   41.7550   34.7650   39.3350 C   0  0  0  0  0  3  0  0  0  0  0  0
   41.3120   35.6860   39.7660 H   0  0  0  0  0  0  0  0  0  0  0  0
   42.2400   35.0980   38.0710 O   0  0  0  0  0  0  0  0  0  0  0  0
   42.8970   33.9700   37.6000 C   0  0  0  0  0  2  0  0  0  0  0  0
   41.8090   32.9880   37.1460 C   0  0  0  0  0  2  0  0  0  0  0  0
  2  3  1  0  0  0  0
  2  5  1  0  0  0  0
  2  1  2  1  0  0  0
  3  4  1  0  0  0  0
  5  8  1  0  0  0  0
  6  9  1  6  0  0  0
  6  8  1  0  0  0  0
  6 13  1  0  0  0  0
  6  7  1  0  0  0  0
  7 11  1  0  0  0  0
  7 10  1  0  0  0  0
  8 12  1  1  0  0  0
  8  7  1  0  0  0  0
 13 14  2  0  0  0  0
 13 16  1  0  0  0  0
 15 20  1  0  0  0  0
 15 21  1  0  0  0  0
 16 15  2  0  0  0  0
 17 18  2  0  0  0  0
 17 16  1  0  0  0  0
 18 19  1  0  0  0  0
 19 23  1  0  0  0  0
 19 20  2  0  0  0  0
 22 17  1  0  0  0  0
 24  2  1  0  0  0  0
 25 24  1  0  0  0  0
 26 25  1  0  0  0  0
 26 31  1  0  0  0  0
 27 26  2  0  0  0  0
 28 29  2  0  0  0  0
 28 27  1  0  0  0  0
 29 30  1  0  0  0  0
 30 25  2  0  0  0  0
 32 27  1  0  0  0  0
 33 29  1  0  0  0  0
 33 34  1  0  0  0  0
 34 36  1  0  0  0  0
 34 35  1  0  0  0  0
 36 37  1  0  0  0  0
 38 36  1  0  0  0  0
 39 38  1  0  0  0  0
 40 39  1  0  0  0  0
 40 33  1  0  0  0  0
M  END
>  <minimizedAffinity>
-6.03066826

$$$$

 OpenBabel03242512133D

 40 43  0  0  1  0  0  0  0  0999 V2000
   38.0020   30.2480   42.1740 O   0  0  0  0  0  0  0  0  0  0  0  0
   36.9440   30.1890   41.0830 P   0  0  2  0  0  0  0  0  0  0  0  0
   35.5700   31.0080   41.4980 O   0  0  0  0  0  0  0  0  0  0  0  0
   34.7580   30.4650   41.6000 H   0  0  0  0  0  0  0  0  0  0  0  0
   36.7250   28.5570   40.6970 O   0  0  0  0  0  0  0  0  0  0  0  0
   37.2770   26.3330   41.6050 C   0  0  1  0  0  0  0  0  0  0  0  0
   36.5780   27.2600   42.6790 C   0  0  0  0  0  0  0  0  0  0  0  0
   37.4130   27.8100   41.6380 C   0  0  2  0  0  0  0  0  0  0  0  0
   36.5880   25.8980   40.8880 H   0  0  0  0  0  0  0  0  0  0  0  0
   37.0020   27.2240   43.7020 H   0  0  0  0  0  0  0  0  0  0  0  0
   35.4800   27.2490   42.6230 H   0  0  0  0  0  0  0  0  0  0  0  0
   38.4620   28.1120   41.7420 H   0  0  0  0  0  0  0  0  0  0  0  0
   38.3320   25.4800   42.2210 C   0  0  0  0  0  0  0  0  0  0  0  0
   38.0460   24.3190   42.4780 O   0  0  0  0  0  0  0  0  0  0  0  0
   40.6520   26.0440   41.6470 C   0  0  0  0  0  0  0  0  0  0  0  0
   39.6510   25.9120   42.5320 C   0  0  0  0  0  0  0  0  0  0  0  0
   39.9700   26.2360   43.8930 C   0  0  0  0  0  0  0  0  0  0  0  0
   41.2080   26.6480   44.2420 N   0  0  0  0  0  0  0  0  0  0  0  0
   42.1770   26.7610   43.2950 C   0  0  0  0  0  0  0  0  0  0  0  0
   41.8980   26.4670   42.0410 N   0  0  0  0  0  0  0  0  0  0  0  0
   40.4490   25.8090   40.6110 H   0  0  0  0  0  0  0  0  0  0  0  0
   39.2910   26.1890   44.7000 H   0  0  0  0  0  0  0  0  0  0  0  0
   43.1970   27.0790   43.4590 H   0  0  0  0  0  0  0  0  0  0  0  0
   37.7260   30.9300   39.7180 O   0  0  0  0  0  0  0  0  0  0  0  0
   38.4330   32.1080   39.7820 C   0  0  0  0  0  0  0  0  0  0  0  0
   37.9860   33.3830   40.1040 C   0  0  0  0  0  0  0  0  0  0  0  0
   38.8660   34.4440   40.1120 C   0  0  0  0  0  0  0  0  0  0  0  0
   40.1700   34.2270   39.8040 N   0  0  0  0  0  0  0  0  0  0  0  0
   40.6110   32.9880   39.4900 C   0  0  0  0  0  0  0  0  0  0  0  0
   39.7560   31.9150   39.4730 N   0  0  0  0  0  0  0  0  0  0  0  0
   36.9350   33.3880   40.3230 H   0  0  0  0  0  0  0  0  0  0  0  0
   38.4470   35.4030   40.3720 H   0  0  0  0  0  0  0  0  0  0  0  0
   41.9920   32.8370   39.1760 N   0  0  0  0  0  0  0  0  0  0  0  0
   42.3450   32.0470   38.0390 C   0  0  0  0  0  3  0  0  0  0  0  0
   41.5840   32.0440   37.2330 H   0  0  0  0  0  0  0  0  0  0  0  0
   43.6470   32.5190   37.3940 C   0  0  0  0  0  3  0  0  0  0  0  0
   44.0530   31.6840   36.7880 H   0  0  0  0  0  0  0  0  0  0  0  0
   44.6000   32.8240   38.3640 O   0  0  0  0  0  0  0  0  0  0  0  0
   44.1290   33.9460   39.0300 C   0  0  0  0  0  2  0  0  0  0  0  0
   43.0250   33.4610   39.9790 C   0  0  0  0  0  2  0  0  0  0  0  0
  2  3  1  0  0  0  0
  2  1  2  1  0  0  0
  3  4  1  0  0  0  0
  5  2  1  0  0  0  0
  5  8  1  0  0  0  0
  6  9  1  6  0  0  0
  6  8  1  0  0  0  0
  6 13  1  0  0  0  0
  6  7  1  0  0  0  0
  7 10  1  0  0  0  0
  8 12  1  1  0  0  0
  8  7  1  0  0  0  0
 11  7  1  0  0  0  0
 13 14  2  0  0  0  0
 13 16  1  0  0  0  0
 15 20  2  0  0  0  0
 15 16  1  0  0  0  0
 16 17  2  0  0  0  0
 17 18  1  0  0  0  0
 17 22  1  0  0  0  0
 19 23  1  0  0  0  0
 19 18  2  0  0  0  0
 20 19  1  0  0  0  0
 21 15  1  0  0  0  0
 24 25  1  0  0  0  0
 24  2  1  0  0  0  0
 25 26  1  0  0  0  0
 26 27  2  0  0  0  0
 26 31  1  0  0  0  0
 27 32  1  0  0  0  0
 28 27  1  0  0  0  0
 29 28  2  0  0  0  0
 30 29  1  0  0  0  0
 30 25  2  0  0  0  0
 33 29  1  0  0  0  0
 33 40  1  0  0  0  0
 34 33  1  0  0  0  0
 35 34  1  0  0  0  0
 36 34  1  0  0  0  0
 36 38  1  0  0  0  0
 37 36  1  0  0  0  0
 38 39  1  0  0  0  0
 39 40  1  0  0  0  0
M  END
>  <minimizedAffinity>
-6.01863909

$$$$

 OpenBabel03242512133D

 40 43  0  0  1  0  0  0  0  0999 V2000
   34.1280   29.1340   39.6670 O   0  0  0  0  0  0  0  0  0  0  0  0
   35.5280   29.6140   40.0190 P   0  0  2  0  0  0  0  0  0  0  0  0
   35.5360   30.6100   41.3370 O   0  0  0  0  0  0  0  0  0  0  0  0
   35.8170   31.5380   41.1750 H   0  0  0  0  0  0  0  0  0  0  0  0
   36.1920   30.2720   38.6090 O   0  0  0  0  0  0  0  0  0  0  0  0
   37.3140   32.3470   39.3200 C   0  0  1  0  0  0  0  0  0  0  0  0
   37.8810   31.8030   37.9480 C   0  0  0  0  0  0  0  0  0  0  0  0
   37.3690   30.9100   38.9600 C   0  0  2  0  0  0  0  0  0  0  0  0
   36.3630   32.8630   39.2280 H   0  0  0  0  0  0  0  0  0  0  0  0
   38.9810   31.8500   37.8240 H   0  0  0  0  0  0  0  0  0  0  0  0
   37.2940   32.1160   37.0730 H   0  0  0  0  0  0  0  0  0  0  0  0
   37.9660   30.3400   39.6830 H   0  0  0  0  0  0  0  0  0  0  0  0
   38.3920   32.9410   40.1620 C   0  0  0  0  0  0  0  0  0  0  0  0
   38.4180   34.1580   40.2770 O   0  0  0  0  0  0  0  0  0  0  0  0
   40.7170   32.3360   40.6690 C   0  0  0  0  0  0  0  0  0  0  0  0
   39.3940   32.1990   40.8460 C   0  0  0  0  0  0  0  0  0  0  0  0
   38.9880   31.2130   41.8070 C   0  0  0  0  0  0  0  0  0  0  0  0
   39.8990   30.4790   42.4830 N   0  0  0  0  0  0  0  0  0  0  0  0
   41.2270   30.6690   42.2550 C   0  0  0  0  0  0  0  0  0  0  0  0
   41.6130   31.5710   41.3750 N   0  0  0  0  0  0  0  0  0  0  0  0
   41.0600   33.0700   39.9520 H   0  0  0  0  0  0  0  0  0  0  0  0
   37.9880   30.9940   42.0620 H   0  0  0  0  0  0  0  0  0  0  0  0
   42.0380   30.1410   42.7340 H   0  0  0  0  0  0  0  0  0  0  0  0
   36.3930   28.1400   40.3430 O   0  0  0  0  0  0  0  0  0  0  0  0
   37.0560   27.8810   41.5200 C   0  0  0  0  0  0  0  0  0  0  0  0
   36.6440   28.1060   42.8280 C   0  0  0  0  0  0  0  0  0  0  0  0
   37.4680   27.7700   43.8810 C   0  0  0  0  0  0  0  0  0  0  0  0
   38.6810   27.2190   43.6240 N   0  0  0  0  0  0  0  0  0  0  0  0
   39.0880   26.9990   42.3540 C   0  0  0  0  0  0  0  0  0  0  0  0
   38.2880   27.3230   41.2870 N   0  0  0  0  0  0  0  0  0  0  0  0
   35.6640   28.5440   42.8610 H   0  0  0  0  0  0  0  0  0  0  0  0
   37.0800   27.9740   44.8660 H   0  0  0  0  0  0  0  0  0  0  0  0
   40.3750   26.4190   42.1620 N   0  0  0  0  0  0  0  0  0  0  0  0
   41.2290   26.9810   41.1640 C   0  0  0  0  0  3  0  0  0  0  0  0
   41.0700   28.0640   40.9860 H   0  0  0  0  0  0  0  0  0  0  0  0
   42.7060   26.8180   41.5140 C   0  0  0  0  0  3  0  0  0  0  0  0
   43.2950   26.9180   40.5800 H   0  0  0  0  0  0  0  0  0  0  0  0
   42.9590   25.5450   42.0220 O   0  0  0  0  0  0  0  0  0  0  0  0
   42.3140   25.4830   43.2490 C   0  0  0  0  0  2  0  0  0  0  0  0
   40.8220   25.2870   42.9500 C   0  0  0  0  0  2  0  0  0  0  0  0
  2  1  2  6  0  0  0
  2 24  1  0  0  0  0
  2  3  1  0  0  0  0
  4  3  1  0  0  0  0
  5  8  1  0  0  0  0
  5  2  1  0  0  0  0
  6  9  1  6  0  0  0
  6 13  1  0  0  0  0
  7  8  1  0  0  0  0
  7  6  1  0  0  0  0
  8  6  1  0  0  0  0
  8 12  1  1  0  0  0
 10  7  1  0  0  0  0
 11  7  1  0  0  0  0
 13 14  2  0  0  0  0
 13 16  1  0  0  0  0
 15 16  2  0  0  0  0
 15 20  1  0  0  0  0
 16 17  1  0  0  0  0
 17 22  1  0  0  0  0
 17 18  2  0  0  0  0
 19 18  1  0  0  0  0
 19 23  1  0  0  0  0
 20 19  2  0  0  0  0
 21 15  1  0  0  0  0
 24 25  1  0  0  0  0
 25 26  1  0  0  0  0
 26 31  1  0  0  0  0
 26 27  2  0  0  0  0
 27 32  1  0  0  0  0
 28 27  1  0  0  0  0
 29 28  2  0  0  0  0
 30 25  2  0  0  0  0
 30 29  1  0  0  0  0
 33 29  1  0  0  0  0
 33 40  1  0  0  0  0
 34 36  1  0  0  0  0
 34 33  1  0  0  0  0
 35 34  1  0  0  0  0
 36 38  1  0  0  0  0
 37 36  1  0  0  0  0
 38 39  1  0  0  0  0
 40 39  1  0  0  0  0
M  END
>  <minimizedAffinity>
-5.94893026

$$$$

 OpenBabel03242512133D

 40 43  0  0  1  0  0  0  0  0999 V2000
   37.4190   29.0070   37.0060 O   0  0  0  0  0  0  0  0  0  0  0  0
   37.7760   29.5770   38.3710 P   0  0  2  0  0  0  0  0  0  0  0  0
   39.3770   29.3840   38.7310 O   0  0  0  0  0  0  0  0  0  0  0  0
   39.5810   28.8000   39.4940 H   0  0  0  0  0  0  0  0  0  0  0  0
   36.6970   28.9010   39.4840 O   0  0  0  0  0  0  0  0  0  0  0  0
   36.5770   28.4180   41.8980 C   0  0  1  0  0  0  0  0  0  0  0  0
   37.0970   29.8830   41.6080 C   0  0  0  0  0  0  0  0  0  0  0  0
   37.3590   28.7950   40.6950 C   0  0  2  0  0  0  0  0  0  0  0  0
   35.5020   28.3070   41.7960 H   0  0  0  0  0  0  0  0  0  0  0  0
   37.9410   30.2320   42.2350 H   0  0  0  0  0  0  0  0  0  0  0  0
   36.2910   30.6140   41.4520 H   0  0  0  0  0  0  0  0  0  0  0  0
   38.2880   28.2180   40.6270 H   0  0  0  0  0  0  0  0  0  0  0  0
   37.2690   27.8120   43.0700 C   0  0  0  0  0  0  0  0  0  0  0  0
   37.0540   28.2990   44.1710 O   0  0  0  0  0  0  0  0  0  0  0  0
   37.9540   25.5810   42.3070 C   0  0  0  0  0  0  0  0  0  0  0  0
   38.1620   26.7070   43.0080 C   0  0  0  0  0  0  0  0  0  0  0  0
   39.3920   26.7690   43.7460 C   0  0  0  0  0  0  0  0  0  0  0  0
   40.2730   25.7450   43.7230 N   0  0  0  0  0  0  0  0  0  0  0  0
   40.0000   24.6320   42.9900 C   0  0  0  0  0  0  0  0  0  0  0  0
   38.8750   24.5620   42.3080 N   0  0  0  0  0  0  0  0  0  0  0  0
   37.0380   25.4990   41.7380 H   0  0  0  0  0  0  0  0  0  0  0  0
   39.7010   27.5870   44.3370 H   0  0  0  0  0  0  0  0  0  0  0  0
   40.6290   23.7580   42.9000 H   0  0  0  0  0  0  0  0  0  0  0  0
   37.3650   31.2600   38.2270 O   0  0  0  0  0  0  0  0  0  0  0  0
   38.0300   32.2730   38.8790 C   0  0  0  0  0  0  0  0  0  0  0  0
   37.5150   33.3040   39.6550 C   0  0  0  0  0  0  0  0  0  0  0  0
   38.3610   34.2290   40.2290 C   0  0  0  0  0  0  0  0  0  0  0  0
   39.6980   34.1190   40.0270 N   0  0  0  0  0  0  0  0  0  0  0  0
   40.2060   33.1180   39.2720 C   0  0  0  0  0  0  0  0  0  0  0  0
   39.3860   32.1840   38.6890 N   0  0  0  0  0  0  0  0  0  0  0  0
   36.4440   33.2510   39.7180 H   0  0  0  0  0  0  0  0  0  0  0  0
   37.8890   34.9990   40.8170 H   0  0  0  0  0  0  0  0  0  0  0  0
   41.6190   33.0680   39.1030 N   0  0  0  0  0  0  0  0  0  0  0  0
   42.1360   32.8270   37.7930 C   0  0  0  0  0  3  0  0  0  0  0  0
   41.4860   33.1940   36.9730 H   0  0  0  0  0  0  0  0  0  0  0  0
   43.4990   33.4840   37.5830 C   0  0  0  0  0  3  0  0  0  0  0  0
   44.0010   32.9740   36.7370 H   0  0  0  0  0  0  0  0  0  0  0  0
   44.3100   33.3120   38.7040 O   0  0  0  0  0  0  0  0  0  0  0  0
   43.7300   34.0580   39.7200 C   0  0  0  0  0  2  0  0  0  0  0  0
   42.5240   33.2530   40.2200 C   0  0  0  0  0  2  0  0  0  0  0  0
  2  1  2  6  0  0  0
  2  3  1  0  0  0  0
  2  5  1  0  0  0  0
  3  4  1  0  0  0  0
  5  8  1  0  0  0  0
  6  9  1  6  0  0  0
  6 13  1  0  0  0  0
  7  6  1  0  0  0  0
  7 10  1  0  0  0  0
  8 12  1  6  0  0  0
  8  7  1  0  0  0  0
  8  6  1  0  0  0  0
 11  7  1  0  0  0  0
 13 14  2  0  0  0  0
 15 20  2  0  0  0  0
 15 16  1  0  0  0  0
 16 13  1  0  0  0  0
 16 17  2  0  0  0  0
 17 22  1  0  0  0  0
 18 17  1  0  0  0  0
 19 18  2  0  0  0  0
 20 19  1  0  0  0  0
 21 15  1  0  0  0  0
 23 19  1  0  0  0  0
 24  2  1  0  0  0  0
 24 25  1  0  0  0  0
 25 26  1  0  0  0  0
 26 31  1  0  0  0  0
 26 27  2  0  0  0  0
 27 32  1  0  0  0  0
 28 27  1  0  0  0  0
 29 28  2  0  0  0  0
 30 25  2  0  0  0  0
 30 29  1  0  0  0  0
 33 29  1  0  0  0  0
 33 40  1  0  0  0  0
 34 33  1  0  0  0  0
 35 34  1  0  0  0  0
 36 34  1  0  0  0  0
 36 38  1  0  0  0  0
 37 36  1  0  0  0  0
 38 39  1  0  0  0  0
 39 40  1  0  0  0  0
M  END
>  <minimizedAffinity>
-5.89879227

$$$$

 OpenBabel03242512133D

 40 43  0  0  1  0  0  0  0  0999 V2000
   37.0970   30.9940   38.9740 O   0  0  0  0  0  0  0  0  0  0  0  0
   37.0510   31.2920   40.4660 P   0  0  2  0  0  0  0  0  0  0  0  0
   35.6060   30.8690   41.1450 O   0  0  0  0  0  0  0  0  0  0  0  0
   35.0650   31.6070   41.5040 H   0  0  0  0  0  0  0  0  0  0  0  0
   37.4960   32.9120   40.6580 O   0  0  0  0  0  0  0  0  0  0  0  0
   39.9280   33.3020   40.7460 C   0  0  1  0  0  0  0  0  0  0  0  0
   39.1650   34.4640   39.9930 C   0  0  0  0  0  0  0  0  0  0  0  0
   38.6810   33.1040   39.9680 C   0  0  2  0  0  0  0  0  0  0  0  0
   39.8540   33.3580   41.8280 H   0  0  0  0  0  0  0  0  0  0  0  0
   39.6480   34.8470   39.0730 H   0  0  0  0  0  0  0  0  0  0  0  0
   38.7570   35.2320   40.6660 H   0  0  0  0  0  0  0  0  0  0  0  0
   38.8280   32.3800   39.1580 H   0  0  0  0  0  0  0  0  0  0  0  0
   41.2470   33.0140   40.1150 C   0  0  0  0  0  0  0  0  0  0  0  0
   42.2210   33.6270   40.5280 O   0  0  0  0  0  0  0  0  0  0  0  0
   41.7170   32.3870   37.7880 C   0  0  0  0  0  0  0  0  0  0  0  0
   41.4620   32.0750   39.0680 C   0  0  0  0  0  0  0  0  0  0  0  0
   41.4050   30.6740   39.3740 C   0  0  0  0  0  0  0  0  0  0  0  0
   41.5990   29.7410   38.4160 N   0  0  0  0  0  0  0  0  0  0  0  0
   41.8540   30.1260   37.1370 C   0  0  0  0  0  0  0  0  0  0  0  0
   41.9090   31.4100   36.8430 N   0  0  0  0  0  0  0  0  0  0  0  0
   41.7680   33.4340   37.5210 H   0  0  0  0  0  0  0  0  0  0  0  0
   41.2220   30.2720   40.3320 H   0  0  0  0  0  0  0  0  0  0  0  0
   42.0230   29.4700   36.2950 H   0  0  0  0  0  0  0  0  0  0  0  0
   38.3500   30.3320   41.1110 O   0  0  0  0  0  0  0  0  0  0  0  0
   38.1660   29.1840   41.8470 C   0  0  0  0  0  0  0  0  0  0  0  0
   38.0150   29.0380   43.2200 C   0  0  0  0  0  0  0  0  0  0  0  0
   37.8400   27.7860   43.7690 C   0  0  0  0  0  0  0  0  0  0  0  0
   37.8160   26.7020   42.9520 N   0  0  0  0  0  0  0  0  0  0  0  0
   37.9630   26.8380   41.6150 C   0  0  0  0  0  0  0  0  0  0  0  0
   38.1400   28.0730   41.0430 N   0  0  0  0  0  0  0  0  0  0  0  0
   38.0560   29.9860   43.7240 H   0  0  0  0  0  0  0  0  0  0  0  0
   37.7290   27.7510   44.8400 H   0  0  0  0  0  0  0  0  0  0  0  0
   37.9290   25.6550   40.8210 N   0  0  0  0  0  0  0  0  0  0  0  0
   38.9140   25.4980   39.7980 C   0  0  0  0  0  3  0  0  0  0  0  0
   39.8790   26.0010   40.0140 H   0  0  0  0  0  0  0  0  0  0  0  0
   39.2460   24.0300   39.5410 C   0  0  0  0  0  3  0  0  0  0  0  0
   39.7010   23.9510   38.5330 H   0  0  0  0  0  0  0  0  0  0  0  0
   38.0890   23.2530   39.5310 O   0  0  0  0  0  0  0  0  0  0  0  0
   37.6030   23.2660   40.8300 C   0  0  0  0  0  2  0  0  0  0  0  0
   36.9280   24.6280   41.0320 C   0  0  0  0  0  2  0  0  0  0  0  0
  2  1  2  6  0  0  0
  2  5  1  0  0  0  0
  2 24  1  0  0  0  0
  2  3  1  0  0  0  0
  3  4  1  0  0  0  0
  6  9  1  1  0  0  0
  7 11  1  0  0  0  0
  7  6  1  0  0  0  0
  8 12  1  6  0  0  0
  8  7  1  0  0  0  0
  8  5  1  0  0  0  0
  8  6  1  0  0  0  0
 10  7  1  0  0  0  0
 13 14  2  0  0  0  0
 13  6  1  0  0  0  0
 15 16  1  0  0  0  0
 16 17  2  0  0  0  0
 16 13  1  0  0  0  0
 17 22  1  0  0  0  0
 18 17  1  0  0  0  0
 19 18  2  0  0  0  0
 20 19  1  0  0  0  0
 20 15  2  0  0  0  0
 21 15  1  0  0  0  0
 23 19  1  0  0  0  0
 24 25  1  0  0  0  0
 25 26  1  0  0  0  0
 26 31  1  0  0  0  0
 26 27  2  0  0  0  0
 27 32  1  0  0  0  0
 28 27  1  0  0  0  0
 29 28  2  0  0  0  0
 30 29  1  0  0  0  0
 30 25  2  0  0  0  0
 33 40  1  0  0  0  0
 33 29  1  0  0  0  0
 34 35  1  0  0  0  0
 34 33  1  0  0  0  0
 36 34  1  0  0  0  0
 37 36  1  0  0  0  0
 38 36  1  0  0  0  0
 38 39  1  0  0  0  0
 39 40  1  0  0  0  0
M  END
>  <minimizedAffinity>
-5.70425653

$$$$

 OpenBabel03242512133D

 40 43  0  0  1  0  0  0  0  0999 V2000
   39.6990   30.3030   38.0470 O   0  0  0  0  0  0  0  0  0  0  0  0
   39.0880   31.6880   37.8930 P   0  0  2  0  0  0  0  0  0  0  0  0
   39.6500   32.4750   36.5530 O   0  0  0  0  0  0  0  0  0  0  0  0
   40.1760   33.2880   36.7180 H   0  0  0  0  0  0  0  0  0  0  0  0
   39.3240   32.4970   39.3590 O   0  0  0  0  0  0  0  0  0  0  0  0
   41.2740   33.5180   40.4660 C   0  0  1  0  0  0  0  0  0  0  0  0
   40.3680   34.5940   39.7430 C   0  0  0  0  0  0  0  0  0  0  0  0
   40.4830   33.2440   39.2420 C   0  0  2  0  0  0  0  0  0  0  0  0
   40.8780   33.1810   41.4190 H   0  0  0  0  0  0  0  0  0  0  0  0
   40.9050   35.3870   39.1880 H   0  0  0  0  0  0  0  0  0  0  0  0
   39.5190   34.9360   40.3520 H   0  0  0  0  0  0  0  0  0  0  0  0
   41.1260   32.9130   38.4180 H   0  0  0  0  0  0  0  0  0  0  0  0
   42.7220   33.8550   40.3510 C   0  0  0  0  0  0  0  0  0  0  0  0
   43.1930   34.6270   41.1740 O   0  0  0  0  0  0  0  0  0  0  0  0
   44.0190   34.0160   38.2730 C   0  0  0  0  0  0  0  0  0  0  0  0
   43.6010   33.3430   39.3570 C   0  0  0  0  0  0  0  0  0  0  0  0
   44.0940   32.0030   39.4940 C   0  0  0  0  0  0  0  0  0  0  0  0
   44.9290   31.4680   38.5760 N   0  0  0  0  0  0  0  0  0  0  0  0
   45.3150   32.2050   37.4990 C   0  0  0  0  0  0  0  0  0  0  0  0
   44.8690   33.4380   37.3620 N   0  0  0  0  0  0  0  0  0  0  0  0
   43.6680   35.0300   38.1360 H   0  0  0  0  0  0  0  0  0  0  0  0
   43.8630   31.3520   40.2920 H   0  0  0  0  0  0  0  0  0  0  0  0
   45.9750   31.8810   36.7080 H   0  0  0  0  0  0  0  0  0  0  0  0
   37.3840   31.3680   37.7610 O   0  0  0  0  0  0  0  0  0  0  0  0
   36.7800   30.2190   38.2150 C   0  0  0  0  0  0  0  0  0  0  0  0
   35.7550   29.4790   37.6380 C   0  0  0  0  0  0  0  0  0  0  0  0
   35.2850   28.3430   38.2610 C   0  0  0  0  0  0  0  0  0  0  0  0
   35.8350   27.9570   39.4400 N   0  0  0  0  0  0  0  0  0  0  0  0
   36.8320   28.6730   40.0070 C   0  0  0  0  0  0  0  0  0  0  0  0
   37.3190   29.8080   39.4090 N   0  0  0  0  0  0  0  0  0  0  0  0
   35.4300   29.9140   36.7110 H   0  0  0  0  0  0  0  0  0  0  0  0
   34.4890   27.8220   37.7540 H   0  0  0  0  0  0  0  0  0  0  0  0
   37.3600   28.2080   41.2460 N   0  0  0  0  0  0  0  0  0  0  0  0
   37.5790   29.1600   42.2880 C   0  0  0  0  0  3  0  0  0  0  0  0
   36.8920   30.0300   42.2630 H   0  0  0  0  0  0  0  0  0  0  0  0
   37.4300   28.5390   43.6750 C   0  0  0  0  0  3  0  0  0  0  0  0
   37.9590   29.1880   44.4020 H   0  0  0  0  0  0  0  0  0  0  0  0
   38.0380   27.2860   43.7260 O   0  0  0  0  0  0  0  0  0  0  0  0
   37.2870   26.4580   42.9040 C   0  0  0  0  0  2  0  0  0  0  0  0
   37.6710   26.8090   41.4610 C   0  0  0  0  0  2  0  0  0  0  0  0
  2  1  2  1  0  0  0
  2  5  1  0  0  0  0
  3  4  1  0  0  0  0
  3  2  1  0  0  0  0
  6  9  1  1  0  0  0
  7 11  1  0  0  0  0
  7  6  1  0  0  0  0
  8 12  1  6  0  0  0
  8  5  1  0  0  0  0
  8  7  1  0  0  0  0
  8  6  1  0  0  0  0
 10  7  1  0  0  0  0
 13  6  1  0  0  0  0
 13 14  2  0  0  0  0
 15 16  1  0  0  0  0
 16 17  2  0  0  0  0
 16 13  1  0  0  0  0
 17 22  1  0  0  0  0
 18 17  1  0  0  0  0
 19 18  2  0  0  0  0
 20 19  1  0  0  0  0
 20 15  2  0  0  0  0
 21 15  1  0  0  0  0
 23 19  1  0  0  0  0
 24  2  1  0  0  0  0
 24 25  1  0  0  0  0
 25 30  1  0  0  0  0
 26 25  2  0  0  0  0
 26 27  1  0  0  0  0
 27 28  2  0  0  0  0
 28 29  1  0  0  0  0
 29 33  1  0  0  0  0
 30 29  2  0  0  0  0
 31 26  1  0  0  0  0
 32 27  1  0  0  0  0
 33 40  1  0  0  0  0
 33 34  1  0  0  0  0
 34 36  1  0  0  0  0
 35 34  1  0  0  0  0
 36 38  1  0  0  0  0
 36 37  1  0  0  0  0
 39 38  1  0  0  0  0
 40 39  1  0  0  0  0
M  END
>  <minimizedAffinity>
-5.70170021

$$$$

 OpenBabel03242512133D

 40 43  0  0  1  0  0  0  0  0999 V2000
   36.4730   31.2510   40.8000 O   0  0  0  0  0  0  0  0  0  0  0  0
   37.7890   30.5490   41.0990 P   0  0  2  0  0  0  0  0  0  0  0  0
   38.4710   29.8920   39.7450 O   0  0  0  0  0  0  0  0  0  0  0  0
   38.5440   28.9120   39.7310 H   0  0  0  0  0  0  0  0  0  0  0  0
   37.4920   29.4630   42.3610 O   0  0  0  0  0  0  0  0  0  0  0  0
   38.6050   27.5020   43.3560 C   0  0  1  0  0  0  0  0  0  0  0  0
   39.6420   28.5580   42.8010 C   0  0  0  0  0  0  0  0  0  0  0  0
   38.3440   28.3850   42.1930 C   0  0  2  0  0  0  0  0  0  0  0  0
   38.1720   27.7750   44.3140 H   0  0  0  0  0  0  0  0  0  0  0  0
   40.5150   28.1440   42.2580 H   0  0  0  0  0  0  0  0  0  0  0  0
   39.8680   29.3690   43.5080 H   0  0  0  0  0  0  0  0  0  0  0  0
   38.1240   27.8010   41.2910 H   0  0  0  0  0  0  0  0  0  0  0  0
   39.0730   26.1050   43.1340 C   0  0  0  0  0  0  0  0  0  0  0  0
   39.9470   25.6740   43.8720 O   0  0  0  0  0  0  0  0  0  0  0  0
   39.3110   24.6940   41.1370 C   0  0  0  0  0  0  0  0  0  0  0  0
   38.5790   25.2300   42.1270 C   0  0  0  0  0  0  0  0  0  0  0  0
   37.1880   24.8760   42.1420 C   0  0  0  0  0  0  0  0  0  0  0  0
   36.6660   24.0510   41.2070 N   0  0  0  0  0  0  0  0  0  0  0  0
   37.4650   23.5420   40.2310 C   0  0  0  0  0  0  0  0  0  0  0  0
   38.7440   23.8590   40.2050 N   0  0  0  0  0  0  0  0  0  0  0  0
   40.3640   24.9390   41.0940 H   0  0  0  0  0  0  0  0  0  0  0  0
   36.4870   25.2090   42.8570 H   0  0  0  0  0  0  0  0  0  0  0  0
   37.1570   22.8780   39.4370 H   0  0  0  0  0  0  0  0  0  0  0  0
   38.7870   31.8170   41.7490 O   0  0  0  0  0  0  0  0  0  0  0  0
   39.3460   32.8200   40.9930 C   0  0  0  0  0  0  0  0  0  0  0  0
   38.9020   34.1220   40.7960 C   0  0  0  0  0  0  0  0  0  0  0  0
   39.6160   34.9830   39.9910 C   0  0  0  0  0  0  0  0  0  0  0  0
   40.7530   34.5440   39.3940 N   0  0  0  0  0  0  0  0  0  0  0  0
   41.1900   33.2780   39.5810 C   0  0  0  0  0  0  0  0  0  0  0  0
   40.4990   32.4000   40.3770 N   0  0  0  0  0  0  0  0  0  0  0  0
   37.9930   34.3130   41.3350 H   0  0  0  0  0  0  0  0  0  0  0  0
   39.2100   35.9770   39.8860 H   0  0  0  0  0  0  0  0  0  0  0  0
   42.3910   32.8880   38.9220 N   0  0  0  0  0  0  0  0  0  0  0  0
   42.4190   31.6220   38.2600 C   0  0  0  0  0  3  0  0  0  0  0  0
   41.4340   31.2870   37.8750 H   0  0  0  0  0  0  0  0  0  0  0  0
   43.3670   31.6210   37.0630 C   0  0  0  0  0  3  0  0  0  0  0  0
   43.6310   30.5680   36.8330 H   0  0  0  0  0  0  0  0  0  0  0  0
   44.5550   32.2830   37.3690 O   0  0  0  0  0  0  0  0  0  0  0  0
   44.2220   33.6190   37.5330 C   0  0  0  0  0  2  0  0  0  0  0  0
   43.5630   33.7400   38.9130 C   0  0  0  0  0  2  0  0  0  0  0  0
  2  1  2  6  0  0  0
  2 24  1  0  0  0  0
  2  5  1  0  0  0  0
  3  2  1  0  0  0  0
  4  3  1  0  0  0  0
  6  9  1  1  0  0  0
  7  6  1  0  0  0  0
  7 11  1  0  0  0  0
  8 12  1  6  0  0  0
  8  5  1  0  0  0  0
  8  7  1  0  0  0  0
  8  6  1  0  0  0  0
 10  7  1  0  0  0  0
 13  6  1  0  0  0  0
 13 14  2  0  0  0  0
 15 16  1  0  0  0  0
 16 17  2  0  0  0  0
 16 13  1  0  0  0  0
 17 22  1  0  0  0  0
 18 17  1  0  0  0  0
 19 18  2  0  0  0  0
 20 19  1  0  0  0  0
 20 15  2  0  0  0  0
 21 15  1  0  0  0  0
 23 19  1  0  0  0  0
 25 24  1  0  0  0  0
 26 25  1  0  0  0  0
 26 31  1  0  0  0  0
 27 26  2  0  0  0  0
 28 29  2  0  0  0  0
 28 27  1  0  0  0  0
 29 30  1  0  0  0  0
 30 25  2  0  0  0  0
 32 27  1  0  0  0  0
 33 29  1  0  0  0  0
 34 33  1  0  0  0  0
 35 34  1  0  0  0  0
 36 38  1  0  0  0  0
 36 34  1  0  0  0  0
 37 36  1  0  0  0  0
 38 39  1  0  0  0  0
 39 40  1  0  0  0  0
 40 33  1  0  0  0  0
M  END
>  <minimizedAffinity>
-5.67739868

$$$$

 OpenBabel03242512133D

 40 43  0  0  1  0  0  0  0  0999 V2000
   35.0580   28.8140   39.9780 O   0  0  0  0  0  0  0  0  0  0  0  0
   36.1120   29.4890   40.8430 P   0  0  2  0  0  0  0  0  0  0  0  0
   35.6260   30.9750   41.3770 O   0  0  0  0  0  0  0  0  0  0  0  0
   36.1450   31.7430   41.0490 H   0  0  0  0  0  0  0  0  0  0  0  0
   37.5560   29.4720   39.9630 O   0  0  0  0  0  0  0  0  0  0  0  0
   39.2650   31.1300   39.3300 C   0  0  1  0  0  0  0  0  0  0  0  0
   39.6300   30.3820   40.6740 C   0  0  0  0  0  0  0  0  0  0  0  0
   38.2580   30.6190   40.2910 C   0  0  2  0  0  0  0  0  0  0  0  0
   39.4630   30.5470   38.4360 H   0  0  0  0  0  0  0  0  0  0  0  0
   40.0460   31.0130   41.4840 H   0  0  0  0  0  0  0  0  0  0  0  0
   40.1370   29.4190   40.5190 H   0  0  0  0  0  0  0  0  0  0  0  0
   37.6130   31.4260   40.6600 H   0  0  0  0  0  0  0  0  0  0  0  0
   39.6680   32.5650   39.3740 C   0  0  0  0  0  0  0  0  0  0  0  0
   38.8830   33.3600   39.8690 O   0  0  0  0  0  0  0  0  0  0  0  0
   41.3130   33.0220   37.6090 C   0  0  0  0  0  0  0  0  0  0  0  0
   40.9000   33.0810   38.8840 C   0  0  0  0  0  0  0  0  0  0  0  0
   41.7970   33.7180   39.8060 C   0  0  0  0  0  0  0  0  0  0  0  0
   42.9810   34.2230   39.3940 N   0  0  0  0  0  0  0  0  0  0  0  0
   43.3380   34.1300   38.0840 C   0  0  0  0  0  0  0  0  0  0  0  0
   42.5240   33.5460   37.2280 N   0  0  0  0  0  0  0  0  0  0  0  0
   40.6630   32.5480   36.8850 H   0  0  0  0  0  0  0  0  0  0  0  0
   41.6120   33.8490   40.8370 H   0  0  0  0  0  0  0  0  0  0  0  0
   44.2550   34.4950   37.6460 H   0  0  0  0  0  0  0  0  0  0  0  0
   36.3160   28.3840   42.1700 O   0  0  0  0  0  0  0  0  0  0  0  0
   37.3000   27.4240   42.2280 C   0  0  0  0  0  0  0  0  0  0  0  0
   38.4160   27.3610   43.0520 C   0  0  0  0  0  0  0  0  0  0  0  0
   39.2920   26.3010   42.9520 C   0  0  0  0  0  0  0  0  0  0  0  0
   39.0490   25.3240   42.0420 N   0  0  0  0  0  0  0  0  0  0  0  0
   37.9650   25.3800   41.2370 C   0  0  0  0  0  0  0  0  0  0  0  0
   37.0770   26.4240   41.3150 N   0  0  0  0  0  0  0  0  0  0  0  0
   38.4650   28.2050   43.7140 H   0  0  0  0  0  0  0  0  0  0  0  0
   40.1350   26.3200   43.6240 H   0  0  0  0  0  0  0  0  0  0  0  0
   37.7760   24.3190   40.3050 N   0  0  0  0  0  0  0  0  0  0  0  0
   37.4140   24.6530   38.9640 C   0  0  0  0  0  3  0  0  0  0  0  0
   37.7900   25.6390   38.6220 H   0  0  0  0  0  0  0  0  0  0  0  0
   37.9300   23.6270   37.9570 C   0  0  0  0  0  3  0  0  0  0  0  0
   37.3280   23.7200   37.0310 H   0  0  0  0  0  0  0  0  0  0  0  0
   37.7510   22.3300   38.4340 O   0  0  0  0  0  0  0  0  0  0  0  0
   38.6040   22.1950   39.5200 C   0  0  0  0  0  2  0  0  0  0  0  0
   37.9420   22.9320   40.6900 C   0  0  0  0  0  2  0  0  0  0  0  0
  2  1  2  6  0  0  0
  2  3  1  0  0  0  0
  2 24  1  0  0  0  0
  4  3  1  0  0  0  0
  5  8  1  0  0  0  0
  5  2  1  0  0  0  0
  6  9  1  6  0  0  0
  6 13  1  0  0  0  0
  6  8  1  0  0  0  0
  6  7  1  0  0  0  0
  7 10  1  0  0  0  0
  8 12  1  1  0  0  0
  8  7  1  0  0  0  0
 11  7  1  0  0  0  0
 13 14  2  0  0  0  0
 15 16  1  0  0  0  0
 16 13  1  0  0  0  0
 16 17  2  0  0  0  0
 17 22  1  0  0  0  0
 18 17  1  0  0  0  0
 19 18  2  0  0  0  0
 20 15  2  0  0  0  0
 20 19  1  0  0  0  0
 21 15  1  0  0  0  0
 23 19  1  0  0  0  0
 24 25  1  0  0  0  0
 25 26  1  0  0  0  0
 26 31  1  0  0  0  0
 27 26  2  0  0  0  0
 27 32  1  0  0  0  0
 28 27  1  0  0  0  0
 29 30  1  0  0  0  0
 29 28  2  0  0  0  0
 30 25  2  0  0  0  0
 33 40  1  0  0  0  0
 33 29  1  0  0  0  0
 34 33  1  0  0  0  0
 35 34  1  0  0  0  0
 36 38  1  0  0  0  0
 36 34  1  0  0  0  0
 37 36  1  0  0  0  0
 38 39  1  0  0  0  0
 39 40  1  0  0  0  0
M  END
>  <minimizedAffinity>
-5.67385054

$$$$
