
 OpenBabel03252508523D

 42 45  0  0  1  0  0  0  0  0999 V2000
   43.3820   34.4930   40.7690 C   0  0  0  0  0  0  0  0  0  0  0  0
   43.3170   35.7420   40.4850 O   0  0  0  0  0  0  0  0  0  0  0  0
   42.0200   34.1110   40.4400 N   0  0  0  0  0  0  0  0  0  0  0  0
   41.6370   34.3240   39.0660 C   0  0  0  0  0  0  0  0  0  0  0  0
   40.8280   35.6330   39.0820 C   0  0  0  0  0  0  0  0  0  0  0  0
   40.0410   35.6350   40.3880 C   0  0  0  0  0  0  0  0  0  0  0  0
   39.7080   34.2180   40.8570 C   0  0  0  0  0  0  0  0  0  0  0  0
   41.0010   33.5480   41.3000 C   0  0  1  0  0  0  0  0  0  0  0  0
   42.4860   34.4820   38.3780 H   0  0  0  0  0  0  0  0  0  0  0  0
   40.9530   33.5370   38.6730 H   0  0  0  0  0  0  0  0  0  0  0  0
   41.5070   36.5160   39.0750 H   0  0  0  0  0  0  0  0  0  0  0  0
   40.1630   35.7080   38.2040 H   0  0  0  0  0  0  0  0  0  0  0  0
   39.0460   36.1150   40.1850 H   0  0  0  0  0  0  0  0  0  0  0  0
   40.5980   36.1380   41.1900 H   0  0  0  0  0  0  0  0  0  0  0  0
   39.2400   33.6790   40.0000 H   0  0  0  0  0  0  0  0  0  0  0  0
   38.9920   34.3470   41.6800 H   0  0  0  0  0  0  0  0  0  0  0  0
   41.1920   33.7750   42.3710 H   0  0  0  0  0  0  0  0  0  0  0  0
   40.8250   32.1450   41.1510 N   0  0  2  0  0  0  0  0  0  0  0  0
   41.8760   31.4750   41.8870 C   0  0  0  0  0  3  0  0  0  0  0  0
   41.5000   31.0310   42.8370 H   0  0  0  0  0  0  0  0  0  0  0  0
   42.5970   30.4500   41.0410 C   0  0  0  0  0  3  0  0  0  0  0  0
   43.2660   29.8810   41.7180 H   0  0  0  0  0  0  0  0  0  0  0  0
   41.7320   29.5450   40.4420 O   0  0  0  0  0  0  0  0  0  0  0  0
   40.6310   30.1460   39.8670 C   0  0  0  0  0  2  0  0  0  0  0  0
   40.8130   31.6580   39.8050 C   0  0  0  0  0  2  0  0  0  0  0  0
   44.4540   33.8020   41.2370 O   0  0  0  0  0  0  0  0  0  0  0  0
   45.7860   34.1360   41.1010 C   0  0  0  0  0  0  0  0  0  0  0  0
   46.4130   34.7530   42.1790 C   0  0  0  0  0  0  0  0  0  0  0  0
   47.7740   35.0790   42.0040 C   0  0  0  0  0  0  0  0  0  0  0  0
   48.3720   34.7780   40.8170 N   0  0  0  0  0  0  0  0  0  0  0  0
   47.7180   34.1890   39.8240 C   0  0  0  0  0  0  0  0  0  0  0  0
   46.4260   33.8620   39.9520 N   0  0  0  0  0  0  0  0  0  0  0  0
   48.2550   35.5550   42.8390 H   0  0  0  0  0  0  0  0  0  0  0  0
   48.2510   33.9740   38.8990 H   0  0  0  0  0  0  0  0  0  0  0  0
   45.6810   35.0260   43.3950 C   0  0  0  0  0  0  0  0  0  0  0  0
   45.0370   36.2470   43.6180 C   0  0  0  0  0  0  0  0  0  0  0  0
   44.4760   36.0940   44.8610 C   0  0  0  0  0  0  0  0  0  0  0  0
   44.7580   34.8640   45.3640 N   0  0  0  0  0  0  0  0  0  0  0  0
   45.4850   34.2540   44.4480 N   0  0  0  0  0  0  0  0  0  0  0  0
   44.9840   37.1170   42.9700 H   0  0  0  0  0  0  0  0  0  0  0  0
   43.8860   36.8330   45.3920 H   0  0  0  0  0  0  0  0  0  0  0  0
   44.4360   34.5090   46.3080 H   0  0  0  0  0  0  0  0  0  0  0  0
  1 26  1  0  0  0  0
  2  1  2  0  0  0  0
  3  1  1  0  0  0  0
  3  8  1  0  0  0  0
  4  5  1  0  0  0  0
  4  3  1  0  0  0  0
  5  6  1  0  0  0  0
  6  7  1  0  0  0  0
  6 14  1  0  0  0  0
  7  8  1  0  0  0  0
  7 16  1  0  0  0  0
  8 17  1  1  0  0  0
  9  4  1  0  0  0  0
 10  4  1  0  0  0  0
 11  5  1  0  0  0  0
 12  5  1  0  0  0  0
 13  6  1  0  0  0  0
 15  7  1  0  0  0  0
 18 25  1  6  0  0  0
 18  8  1  0  0  0  0
 18 19  1  0  0  0  0
 19 20  1  0  0  0  0
 21 22  1  0  0  0  0
 21 19  1  0  0  0  0
 23 21  1  0  0  0  0
 24 23  1  0  0  0  0
 25 24  1  0  0  0  0
 27 26  1  0  0  0  0
 27 28  1  0  0  0  0
 28 35  1  0  0  0  0
 29 28  2  0  0  0  0
 29 33  1  0  0  0  0
 30 29  1  0  0  0  0
 31 32  1  0  0  0  0
 31 30  2  0  0  0  0
 32 27  2  0  0  0  0
 34 31  1  0  0  0  0
 35 36  1  0  0  0  0
 35 39  2  0  0  0  0
 36 37  2  0  0  0  0
 37 38  1  0  0  0  0
 37 41  1  0  0  0  0
 38 42  1  0  0  0  0
 39 38  1  0  0  0  0
 40 36  1  0  0  0  0
M  END
>  <minimizedAffinity>
-6.48720694

>  <minimizedRMSD>
0.142933398

$$$$
