
 OpenBabel03252508533D

 42 45  0  0  1  0  0  0  0  0999 V2000
   43.3160   34.4890   40.7880 C   0  0  0  0  0  0  0  0  0  0  0  0
   43.2740   35.7400   40.5130 O   0  0  0  0  0  0  0  0  0  0  0  0
   41.9560   34.1270   40.4290 N   0  0  0  0  0  0  0  0  0  0  0  0
   41.6040   34.3570   39.0490 C   0  0  0  0  0  0  0  0  0  0  0  0
   40.8120   35.6760   39.0600 C   0  0  0  0  0  0  0  0  0  0  0  0
   39.9990   35.6780   40.3500 C   0  0  0  0  0  0  0  0  0  0  0  0
   39.6370   34.2620   40.8000 C   0  0  0  0  0  0  0  0  0  0  0  0
   40.9130   33.5710   41.2630 C   0  0  1  0  0  0  0  0  0  0  0  0
   42.4680   34.5100   38.3790 H   0  0  0  0  0  0  0  0  0  0  0  0
   40.9180   33.5820   38.6350 H   0  0  0  0  0  0  0  0  0  0  0  0
   41.5020   36.5500   39.0740 H   0  0  0  0  0  0  0  0  0  0  0  0
   40.1660   35.7670   38.1690 H   0  0  0  0  0  0  0  0  0  0  0  0
   39.0150   36.1730   40.1320 H   0  0  0  0  0  0  0  0  0  0  0  0
   40.5460   36.1670   41.1670 H   0  0  0  0  0  0  0  0  0  0  0  0
   39.1800   33.7360   39.9300 H   0  0  0  0  0  0  0  0  0  0  0  0
   38.9070   34.3930   41.6100 H   0  0  0  0  0  0  0  0  0  0  0  0
   41.0860   33.7870   42.3390 H   0  0  0  0  0  0  0  0  0  0  0  0
   40.7210   32.1720   41.0980 N   0  0  2  0  0  0  0  0  0  0  0  0
   39.3940   31.9570   40.5610 C   0  0  0  0  0  3  0  0  0  0  0  0
   39.4210   31.6910   39.4790 H   0  0  0  0  0  0  0  0  0  0  0  0
   38.6140   30.9430   41.3650 C   0  0  0  0  0  3  0  0  0  0  0  0
   37.6840   30.7230   40.7990 H   0  0  0  0  0  0  0  0  0  0  0  0
   39.3000   29.7480   41.5310 O   0  0  0  0  0  0  0  0  0  0  0  0
   40.6190   29.9260   41.8890 C   0  0  0  0  0  2  0  0  0  0  0  0
   40.8830   31.3770   42.2770 C   0  0  0  0  0  2  0  0  0  0  0  0
   44.3700   33.7800   41.2720 O   0  0  0  0  0  0  0  0  0  0  0  0
   45.7100   34.0750   41.1280 C   0  0  0  0  0  0  0  0  0  0  0  0
   46.3570   34.6840   42.1990 C   0  0  0  0  0  0  0  0  0  0  0  0
   47.7260   34.9710   42.0170 C   0  0  0  0  0  0  0  0  0  0  0  0
   48.3120   34.6420   40.8320 N   0  0  0  0  0  0  0  0  0  0  0  0
   47.6390   34.0620   39.8460 C   0  0  0  0  0  0  0  0  0  0  0  0
   46.3380   33.7730   39.9800 N   0  0  0  0  0  0  0  0  0  0  0  0
   48.2220   35.4400   42.8470 H   0  0  0  0  0  0  0  0  0  0  0  0
   48.1630   33.8230   38.9220 H   0  0  0  0  0  0  0  0  0  0  0  0
   45.6360   34.9890   43.4140 C   0  0  0  0  0  0  0  0  0  0  0  0
   45.0280   36.2300   43.6280 C   0  0  0  0  0  0  0  0  0  0  0  0
   44.4660   36.1040   44.8740 C   0  0  0  0  0  0  0  0  0  0  0  0
   44.7150   34.8710   45.3870 N   0  0  0  0  0  0  0  0  0  0  0  0
   45.4220   34.2320   44.4750 N   0  0  0  0  0  0  0  0  0  0  0  0
   44.9990   37.0960   42.9720 H   0  0  0  0  0  0  0  0  0  0  0  0
   43.9000   36.8650   45.4000 H   0  0  0  0  0  0  0  0  0  0  0  0
   44.3850   34.5340   46.3350 H   0  0  0  0  0  0  0  0  0  0  0  0
  1 26  1  0  0  0  0
  2  1  2  0  0  0  0
  3  1  1  0  0  0  0
  3  8  1  0  0  0  0
  4  5  1  0  0  0  0
  4  3  1  0  0  0  0
  5 11  1  0  0  0  0
  5  6  1  0  0  0  0
  6  7  1  0  0  0  0
  6 14  1  0  0  0  0
  7  8  1  0  0  0  0
  7 16  1  0  0  0  0
  8 17  1  1  0  0  0
  9  4  1  0  0  0  0
 10  4  1  0  0  0  0
 12  5  1  0  0  0  0
 13  6  1  0  0  0  0
 15  7  1  0  0  0  0
 18  8  1  0  0  0  0
 18 25  1  1  0  0  0
 19 18  1  0  0  0  0
 19 21  1  0  0  0  0
 20 19  1  0  0  0  0
 21 23  1  0  0  0  0
 22 21  1  0  0  0  0
 23 24  1  0  0  0  0
 24 25  1  0  0  0  0
 27 26  1  0  0  0  0
 27 28  1  0  0  0  0
 28 35  1  0  0  0  0
 29 28  2  0  0  0  0
 29 33  1  0  0  0  0
 30 29  1  0  0  0  0
 31 32  1  0  0  0  0
 31 30  2  0  0  0  0
 32 27  2  0  0  0  0
 34 31  1  0  0  0  0
 35 36  1  0  0  0  0
 35 39  2  0  0  0  0
 36 37  2  0  0  0  0
 37 38  1  0  0  0  0
 37 41  1  0  0  0  0
 38 42  1  0  0  0  0
 39 38  1  0  0  0  0
 40 36  1  0  0  0  0
M  END
>  <minimizedAffinity>
-6.80192375

>  <minimizedRMSD>
0.255810469

$$$$
