
 OpenBabel03252504233D

 31 34  0  0  1  0  0  0  0  0999 V2000
   37.4500   30.8810   39.7050 C   0  0  0  0  0  0  0  0  0  0  0  0
   37.0100   30.3830   38.4880 C   0  0  0  0  0  0  0  0  0  0  0  0
   37.7430   30.7260   37.3380 C   0  0  0  0  0  0  0  0  0  0  0  0
   38.8370   31.5250   37.5090 N   0  0  0  0  0  0  0  0  0  0  0  0
   39.2230   31.9800   38.7030 C   0  0  0  0  0  0  0  0  0  0  0  0
   38.5360   31.6660   39.8160 N   0  0  0  0  0  0  0  0  0  0  0  0
   40.3840   32.8100   38.7890 N   0  0  0  0  0  0  0  0  0  0  0  0
   40.5120   33.9450   39.5230 C   0  0  0  0  0  0  0  0  0  0  0  0
   41.7730   34.4280   39.3310 N   0  0  0  0  0  0  0  0  0  0  0  0
   42.3860   33.5830   38.4890 C   0  0  0  0  0  0  0  0  0  0  0  0
   43.6400   33.5420   37.9370 C   0  0  0  0  0  0  0  0  0  0  0  0
   44.0200   32.5850   37.1120 N   0  0  0  0  0  0  0  0  0  0  0  0
   43.1930   31.5700   36.7510 C   0  0  0  0  0  0  0  0  0  0  0  0
   41.9670   31.6120   37.2940 N   0  0  0  0  0  0  0  0  0  0  0  0
   41.5340   32.5570   38.1330 C   0  0  0  0  0  0  0  0  0  0  0  0
   36.1580   29.7620   38.3380 H   0  0  0  0  0  0  0  0  0  0  0  0
   37.4690   30.3840   36.3680 H   0  0  0  0  0  0  0  0  0  0  0  0
   39.7710   34.4120   40.1580 H   0  0  0  0  0  0  0  0  0  0  0  0
   43.5560   30.8110   36.0740 H   0  0  0  0  0  0  0  0  0  0  0  0
   44.6090   34.5360   38.2250 N   0  0  0  0  0  0  0  0  0  0  0  0
   45.4730   34.4910   38.8450 H   0  0  0  0  0  0  0  0  0  0  0  0
   44.3930   35.4370   37.7270 H   0  0  0  0  0  0  0  0  0  0  0  0
   36.4400   30.4060   41.1420 S   0  0  0  0  0  0  0  0  0  0  0  0
   37.3300   29.5400   44.3830 H   0  0  0  0  0  0  0  0  0  0  0  0
   36.9490   29.1490   43.4940 N   0  0  0  0  0  0  0  0  0  0  0  0
   37.6120   29.6630   42.3240 C   0  0  1  0  0  3  0  0  0  0  0  0
   38.3230   28.5500   41.5830 C   0  0  0  0  0  3  0  0  0  0  0  0
   37.5170   27.9550   41.0820 H   0  0  0  0  0  0  0  0  0  0  0  0
   39.0810   27.7590   42.4080 O   0  0  0  0  0  0  0  0  0  0  0  0
   38.4100   27.2560   43.5060 C   0  0  0  0  0  2  0  0  0  0  0  0
   36.9890   27.7140   43.6140 C   0  0  0  0  0  2  0  0  0  0  0  0
  1  6  1  0  0  0  0
  1 23  1  0  0  0  0
  2  1  2  0  0  0  0
  3  4  2  0  0  0  0
  3  2  1  0  0  0  0
  4  5  1  0  0  0  0
  5  7  1  0  0  0  0
  5  6  2  0  0  0  0
  7  8  1  0  0  0  0
  8 18  1  0  0  0  0
  9  8  2  0  0  0  0
 10  9  1  0  0  0  0
 11 20  1  0  0  0  0
 11 10  2  0  0  0  0
 12 11  1  0  0  0  0
 13 12  2  0  0  0  0
 13 14  1  0  0  0  0
 14 15  2  0  0  0  0
 15 10  1  0  0  0  0
 15  7  1  0  0  0  0
 16  2  1  0  0  0  0
 17  3  1  0  0  0  0
 19 13  1  0  0  0  0
 20 21  1  0  0  0  0
 22 20  1  0  0  0  0
 25 31  1  0  0  0  0
 25 24  1  0  0  0  0
 26 23  1  6  0  0  0
 26 25  1  0  0  0  0
 27 26  1  0  0  0  0
 27 29  1  0  0  0  0
 28 27  1  0  0  0  0
 29 30  1  0  0  0  0
 30 31  1  0  0  0  0
M  END
>  <minimizedAffinity>
-6.3548069

$$$$

 OpenBabel03252504233D

 31 34  0  0  1  0  0  0  0  0999 V2000
   39.3450   27.1230   43.2340 C   0  0  0  0  0  0  0  0  0  0  0  0
   38.1120   27.1350   43.8670 C   0  0  0  0  0  0  0  0  0  0  0  0
   37.3840   28.3390   43.8590 C   0  0  0  0  0  0  0  0  0  0  0  0
   37.9510   29.4070   43.2260 N   0  0  0  0  0  0  0  0  0  0  0  0
   39.1430   29.3470   42.6280 C   0  0  0  0  0  0  0  0  0  0  0  0
   39.8550   28.2070   42.6230 N   0  0  0  0  0  0  0  0  0  0  0  0
   39.6570   30.5160   41.9850 N   0  0  0  0  0  0  0  0  0  0  0  0
   40.9300   30.9850   42.0610 C   0  0  0  0  0  0  0  0  0  0  0  0
   41.0060   32.1150   41.3010 N   0  0  0  0  0  0  0  0  0  0  0  0
   39.7860   32.3120   40.7800 C   0  0  0  0  0  0  0  0  0  0  0  0
   39.2560   33.2660   39.9510 C   0  0  0  0  0  0  0  0  0  0  0  0
   37.9930   33.2480   39.5660 N   0  0  0  0  0  0  0  0  0  0  0  0
   37.1290   32.2800   39.9670 C   0  0  0  0  0  0  0  0  0  0  0  0
   37.6510   31.3480   40.7770 N   0  0  0  0  0  0  0  0  0  0  0  0
   38.9200   31.3210   41.1940 C   0  0  0  0  0  0  0  0  0  0  0  0
   37.6580   26.3110   44.3680 H   0  0  0  0  0  0  0  0  0  0  0  0
   36.4310   28.4280   44.3250 H   0  0  0  0  0  0  0  0  0  0  0  0
   41.7600   30.5650   42.6130 H   0  0  0  0  0  0  0  0  0  0  0  0
   36.1060   32.3130   39.6210 H   0  0  0  0  0  0  0  0  0  0  0  0
   40.0420   34.3360   39.4530 N   0  0  0  0  0  0  0  0  0  0  0  0
   40.4460   34.4960   38.4820 H   0  0  0  0  0  0  0  0  0  0  0  0
   40.2270   35.0540   40.2000 H   0  0  0  0  0  0  0  0  0  0  0  0
   40.2300   25.5350   43.3010 S   0  0  0  0  0  0  0  0  0  0  0  0
   38.2360   22.8580   42.3470 H   0  0  0  0  0  0  0  0  0  0  0  0
   38.2380   23.8960   42.4530 N   0  0  0  0  0  0  0  0  0  0  0  0
   39.4620   24.5050   42.0050 C   0  0  1  0  0  3  0  0  0  0  0  0
   39.2030   25.4200   40.8270 C   0  0  0  0  0  3  0  0  0  0  0  0
   38.6990   26.3270   41.2500 H   0  0  0  0  0  0  0  0  0  0  0  0
   38.4310   24.8330   39.8580 O   0  0  0  0  0  0  0  0  0  0  0  0
   37.2470   24.2830   40.3120 C   0  0  0  0  0  2  0  0  0  0  0  0
   37.0560   24.3880   41.7930 C   0  0  0  0  0  2  0  0  0  0  0  0
  1 23  1  0  0  0  0
  1  2  1  0  0  0  0
  2 16  1  0  0  0  0
  3  2  2  0  0  0  0
  3 17  1  0  0  0  0
  4  3  1  0  0  0  0
  5  4  2  0  0  0  0
  6  5  1  0  0  0  0
  6  1  2  0  0  0  0
  7  8  1  0  0  0  0
  7  5  1  0  0  0  0
  8 18  1  0  0  0  0
  9  8  2  0  0  0  0
 10 15  1  0  0  0  0
 10  9  1  0  0  0  0
 11 10  2  0  0  0  0
 12 11  1  0  0  0  0
 12 13  2  0  0  0  0
 13 14  1  0  0  0  0
 14 15  2  0  0  0  0
 15  7  1  0  0  0  0
 19 13  1  0  0  0  0
 20 11  1  0  0  0  0
 20 22  1  0  0  0  0
 21 20  1  0  0  0  0
 24 25  1  0  0  0  0
 26 25  1  0  0  0  0
 26 23  1  1  0  0  0
 27 28  1  0  0  0  0
 27 26  1  0  0  0  0
 29 30  1  0  0  0  0
 29 27  1  0  0  0  0
 30 31  1  0  0  0  0
 31 25  1  0  0  0  0
M  END
>  <minimizedAffinity>
-6.08532286

$$$$

 OpenBabel03252504233D

 31 34  0  0  1  0  0  0  0  0999 V2000
   36.8430   25.4060   40.4070 C   0  0  0  0  0  0  0  0  0  0  0  0
   36.3590   24.9370   39.1960 C   0  0  0  0  0  0  0  0  0  0  0  0
   35.8850   25.8840   38.2700 C   0  0  0  0  0  0  0  0  0  0  0  0
   35.9400   27.1980   38.6370 N   0  0  0  0  0  0  0  0  0  0  0  0
   36.4170   27.6030   39.8160 C   0  0  0  0  0  0  0  0  0  0  0  0
   36.8740   26.7140   40.7160 N   0  0  0  0  0  0  0  0  0  0  0  0
   36.4400   29.0010   40.1150 N   0  0  0  0  0  0  0  0  0  0  0  0
   36.0740   29.5810   41.2870 C   0  0  0  0  0  0  0  0  0  0  0  0
   36.2490   30.9280   41.1590 N   0  0  0  0  0  0  0  0  0  0  0  0
   36.7150   31.1410   39.9190 C   0  0  0  0  0  0  0  0  0  0  0  0
   37.0730   32.2670   39.2250 C   0  0  0  0  0  0  0  0  0  0  0  0
   37.5140   32.2220   37.9810 N   0  0  0  0  0  0  0  0  0  0  0  0
   37.6450   31.0540   37.3010 C   0  0  0  0  0  0  0  0  0  0  0  0
   37.2940   29.9540   37.9840 N   0  0  0  0  0  0  0  0  0  0  0  0
   36.8440   29.9460   39.2420 C   0  0  0  0  0  0  0  0  0  0  0  0
   36.3060   23.9160   38.8960 H   0  0  0  0  0  0  0  0  0  0  0  0
   35.4980   25.6030   37.3200 H   0  0  0  0  0  0  0  0  0  0  0  0
   35.7070   29.0970   42.1810 H   0  0  0  0  0  0  0  0  0  0  0  0
   38.0120   31.0740   36.2860 H   0  0  0  0  0  0  0  0  0  0  0  0
   36.9900   33.5560   39.8080 N   0  0  0  0  0  0  0  0  0  0  0  0
   37.7590   34.1960   40.1710 H   0  0  0  0  0  0  0  0  0  0  0  0
   35.9910   33.8830   39.8720 H   0  0  0  0  0  0  0  0  0  0  0  0
   37.4220   24.1190   41.5560 S   0  0  0  0  0  0  0  0  0  0  0  0
   40.3580   24.9490   39.9020 H   0  0  0  0  0  0  0  0  0  0  0  0
   39.7040   25.2750   40.6450 N   0  0  0  0  0  0  0  0  0  0  0  0
   39.2420   24.2100   41.4960 C   0  0  1  0  0  3  0  0  0  0  0  0
   39.7090   24.4240   42.9200 C   0  0  0  0  0  3  0  0  0  0  0  0
   39.0800   25.2580   43.3250 H   0  0  0  0  0  0  0  0  0  0  0  0
   41.0440   24.7280   43.0030 O   0  0  0  0  0  0  0  0  0  0  0  0
   41.4520   25.7750   42.1990 C   0  0  0  0  0  2  0  0  0  0  0  0
   40.3620   26.3480   41.3460 C   0  0  0  0  0  2  0  0  0  0  0  0
  1  6  1  0  0  0  0
  1 23  1  0  0  0  0
  2  1  2  0  0  0  0
  3  4  2  0  0  0  0
  3  2  1  0  0  0  0
  4  5  1  0  0  0  0
  5  7  1  0  0  0  0
  5  6  2  0  0  0  0
  7  8  1  0  0  0  0
  8 18  1  0  0  0  0
  9  8  2  0  0  0  0
 10  9  1  0  0  0  0
 11 20  1  0  0  0  0
 11 10  2  0  0  0  0
 12 11  1  0  0  0  0
 13 12  2  0  0  0  0
 13 14  1  0  0  0  0
 14 15  2  0  0  0  0
 15 10  1  0  0  0  0
 15  7  1  0  0  0  0
 16  2  1  0  0  0  0
 17  3  1  0  0  0  0
 19 13  1  0  0  0  0
 20 22  1  0  0  0  0
 20 21  1  0  0  0  0
 24 25  1  0  0  0  0
 25 31  1  0  0  0  0
 25 26  1  0  0  0  0
 26 23  1  1  0  0  0
 26 27  1  0  0  0  0
 27 29  1  0  0  0  0
 27 28  1  0  0  0  0
 30 29  1  0  0  0  0
 31 30  1  0  0  0  0
M  END
>  <minimizedAffinity>
-5.72891617

$$$$

 OpenBabel03252504233D

 31 34  0  0  1  0  0  0  0  0999 V2000
   39.3240   27.4130   43.1600 C   0  0  0  0  0  0  0  0  0  0  0  0
   38.0820   27.6090   43.7430 C   0  0  0  0  0  0  0  0  0  0  0  0
   37.2860   28.6580   43.2460 C   0  0  0  0  0  0  0  0  0  0  0  0
   37.8010   29.4030   42.2250 N   0  0  0  0  0  0  0  0  0  0  0  0
   39.0040   29.1750   41.6950 C   0  0  0  0  0  0  0  0  0  0  0  0
   39.7820   28.1790   42.1540 N   0  0  0  0  0  0  0  0  0  0  0  0
   39.4610   30.0050   40.6240 N   0  0  0  0  0  0  0  0  0  0  0  0
   40.7030   30.5390   40.4910 C   0  0  0  0  0  0  0  0  0  0  0  0
   40.7270   31.2600   39.3330 N   0  0  0  0  0  0  0  0  0  0  0  0
   39.5070   31.1520   38.7870 C   0  0  0  0  0  0  0  0  0  0  0  0
   38.9360   31.6480   37.6430 C   0  0  0  0  0  0  0  0  0  0  0  0
   37.6840   31.3980   37.3100 N   0  0  0  0  0  0  0  0  0  0  0  0
   36.8700   30.6300   38.0800 C   0  0  0  0  0  0  0  0  0  0  0  0
   37.4310   30.1460   39.1970 N   0  0  0  0  0  0  0  0  0  0  0  0
   38.6920   30.3690   39.5780 C   0  0  0  0  0  0  0  0  0  0  0  0
   37.6680   27.0390   44.5410 H   0  0  0  0  0  0  0  0  0  0  0  0
   36.3220   28.8730   43.6420 H   0  0  0  0  0  0  0  0  0  0  0  0
   41.5460   30.4340   41.1600 H   0  0  0  0  0  0  0  0  0  0  0  0
   35.8530   30.4550   37.7590 H   0  0  0  0  0  0  0  0  0  0  0  0
   39.6670   32.4640   36.7430 N   0  0  0  0  0  0  0  0  0  0  0  0
   40.0780   32.2350   35.7890 H   0  0  0  0  0  0  0  0  0  0  0  0
   39.7980   33.4350   37.1280 H   0  0  0  0  0  0  0  0  0  0  0  0
   40.2990   26.0490   43.8670 S   0  0  0  0  0  0  0  0  0  0  0  0
   39.0400   23.4990   41.8770 H   0  0  0  0  0  0  0  0  0  0  0  0
   39.2370   24.5230   41.8880 N   0  0  0  0  0  0  0  0  0  0  0  0
   40.4940   24.8470   42.5080 C   0  0  1  0  0  3  0  0  0  0  0  0
   41.4350   25.4810   41.5060 C   0  0  0  0  0  3  0  0  0  0  0  0
   41.0480   26.5190   41.3380 H   0  0  0  0  0  0  0  0  0  0  0  0
   41.5060   24.7840   40.3270 O   0  0  0  0  0  0  0  0  0  0  0  0
   40.2850   24.5140   39.7380 C   0  0  0  0  0  2  0  0  0  0  0  0
   39.1080   24.9910   40.5320 C   0  0  0  0  0  2  0  0  0  0  0  0
  1  2  1  0  0  0  0
  1 23  1  0  0  0  0
  2 16  1  0  0  0  0
  3 17  1  0  0  0  0
  3  2  2  0  0  0  0
  4  3  1  0  0  0  0
  5  6  1  0  0  0  0
  5  4  2  0  0  0  0
  6  1  2  0  0  0  0
  7  5  1  0  0  0  0
  8  7  1  0  0  0  0
  8 18  1  0  0  0  0
  9  8  2  0  0  0  0
 10  9  1  0  0  0  0
 10 15  1  0  0  0  0
 11 10  2  0  0  0  0
 12 11  1  0  0  0  0
 12 13  2  0  0  0  0
 13 14  1  0  0  0  0
 14 15  2  0  0  0  0
 15  7  1  0  0  0  0
 19 13  1  0  0  0  0
 20 22  1  0  0  0  0
 20 11  1  0  0  0  0
 21 20  1  0  0  0  0
 24 25  1  0  0  0  0
 25 26  1  0  0  0  0
 26 23  1  1  0  0  0
 27 26  1  0  0  0  0
 28 27  1  0  0  0  0
 29 27  1  0  0  0  0
 30 29  1  0  0  0  0
 30 31  1  0  0  0  0
 31 25  1  0  0  0  0
M  END
>  <minimizedAffinity>
-5.5621829

$$$$

 OpenBabel03252504233D

 31 34  0  0  1  0  0  0  0  0999 V2000
   38.4760   30.8750   40.6060 C   0  0  0  0  0  0  0  0  0  0  0  0
   37.8310   32.0970   40.4940 C   0  0  0  0  0  0  0  0  0  0  0  0
   37.1150   32.3510   39.3090 C   0  0  0  0  0  0  0  0  0  0  0  0
   37.1110   31.3720   38.3590 N   0  0  0  0  0  0  0  0  0  0  0  0
   37.7480   30.2090   38.5130 C   0  0  0  0  0  0  0  0  0  0  0  0
   38.4390   29.9440   39.6360 N   0  0  0  0  0  0  0  0  0  0  0  0
   37.6870   29.2380   37.4640 N   0  0  0  0  0  0  0  0  0  0  0  0
   38.7220   28.5010   36.9860 C   0  0  0  0  0  0  0  0  0  0  0  0
   38.2410   27.6950   35.9960 N   0  0  0  0  0  0  0  0  0  0  0  0
   36.9290   27.9550   35.8920 C   0  0  0  0  0  0  0  0  0  0  0  0
   35.9300   27.4680   35.0890 C   0  0  0  0  0  0  0  0  0  0  0  0
   34.6830   27.8920   35.1740 N   0  0  0  0  0  0  0  0  0  0  0  0
   34.3010   28.8430   36.0650 C   0  0  0  0  0  0  0  0  0  0  0  0
   35.2800   29.3170   36.8490 N   0  0  0  0  0  0  0  0  0  0  0  0
   36.5560   28.9210   36.8030 C   0  0  0  0  0  0  0  0  0  0  0  0
   37.8270   32.8720   41.2240 H   0  0  0  0  0  0  0  0  0  0  0  0
   36.5950   33.2650   39.1480 H   0  0  0  0  0  0  0  0  0  0  0  0
   39.7550   28.5210   37.3070 H   0  0  0  0  0  0  0  0  0  0  0  0
   33.2660   29.1520   36.0940 H   0  0  0  0  0  0  0  0  0  0  0  0
   36.1830   26.4710   34.1140 N   0  0  0  0  0  0  0  0  0  0  0  0
   35.9430   25.4340   34.1150 H   0  0  0  0  0  0  0  0  0  0  0  0
   36.6900   26.8690   33.2820 H   0  0  0  0  0  0  0  0  0  0  0  0
   39.3920   30.6280   42.1590 S   0  0  0  0  0  0  0  0  0  0  0  0
   36.3400   29.6270   43.4740 H   0  0  0  0  0  0  0  0  0  0  0  0
   37.0100   29.4400   42.6970 N   0  0  0  0  0  0  0  0  0  0  0  0
   38.3850   29.4540   43.1250 C   0  0  1  0  0  3  0  0  0  0  0  0
   39.0150   28.0900   42.9380 C   0  0  0  0  0  3  0  0  0  0  0  0
   39.1750   27.9770   41.8350 H   0  0  0  0  0  0  0  0  0  0  0  0
   38.2400   27.0730   43.4320 O   0  0  0  0  0  0  0  0  0  0  0  0
   36.9340   27.0670   42.9800 C   0  0  0  0  0  2  0  0  0  0  0  0
   36.5990   28.2100   42.0720 C   0  0  0  0  0  2  0  0  0  0  0  0
  1 23  1  0  0  0  0
  2  1  1  0  0  0  0
  2 16  1  0  0  0  0
  3  2  2  0  0  0  0
  4  5  2  0  0  0  0
  4  3  1  0  0  0  0
  5  6  1  0  0  0  0
  6  1  2  0  0  0  0
  7  5  1  0  0  0  0
  8 18  1  0  0  0  0
  8  7  1  0  0  0  0
  9  8  2  0  0  0  0
 10  9  1  0  0  0  0
 10 15  1  0  0  0  0
 11 12  1  0  0  0  0
 11 10  2  0  0  0  0
 12 13  2  0  0  0  0
 13 19  1  0  0  0  0
 13 14  1  0  0  0  0
 15 14  2  0  0  0  0
 15  7  1  0  0  0  0
 17  3  1  0  0  0  0
 20 21  1  0  0  0  0
 20 11  1  0  0  0  0
 22 20  1  0  0  0  0
 25 26  1  0  0  0  0
 25 24  1  0  0  0  0
 26 23  1  6  0  0  0
 27 26  1  0  0  0  0
 27 29  1  0  0  0  0
 28 27  1  0  0  0  0
 30 29  1  0  0  0  0
 31 25  1  0  0  0  0
 31 30  1  0  0  0  0
M  END
>  <minimizedAffinity>
-5.55225658

$$$$

 OpenBabel03252504233D

 31 34  0  0  1  0  0  0  0  0999 V2000
   37.7390   26.2490   42.0210 C   0  0  0  0  0  0  0  0  0  0  0  0
   37.1300   26.8710   43.1000 C   0  0  0  0  0  0  0  0  0  0  0  0
   37.1560   28.2770   43.1440 C   0  0  0  0  0  0  0  0  0  0  0  0
   37.7820   28.9220   42.1170 N   0  0  0  0  0  0  0  0  0  0  0  0
   38.3540   28.2790   41.0970 C   0  0  0  0  0  0  0  0  0  0  0  0
   38.3410   26.9360   41.0350 N   0  0  0  0  0  0  0  0  0  0  0  0
   38.9840   29.0380   40.0610 N   0  0  0  0  0  0  0  0  0  0  0  0
   40.1860   28.7760   39.4870 C   0  0  0  0  0  0  0  0  0  0  0  0
   40.4170   29.7340   38.5430 N   0  0  0  0  0  0  0  0  0  0  0  0
   39.3570   30.5560   38.5620 C   0  0  0  0  0  0  0  0  0  0  0  0
   39.0220   31.6810   37.8530 C   0  0  0  0  0  0  0  0  0  0  0  0
   37.8940   32.3360   38.0570 N   0  0  0  0  0  0  0  0  0  0  0  0
   36.9840   31.9400   38.9840 C   0  0  0  0  0  0  0  0  0  0  0  0
   37.3150   30.8390   39.6740 N   0  0  0  0  0  0  0  0  0  0  0  0
   38.4420   30.1410   39.5070 C   0  0  0  0  0  0  0  0  0  0  0  0
   36.6410   26.3820   43.9110 H   0  0  0  0  0  0  0  0  0  0  0  0
   36.7120   28.8270   43.9390 H   0  0  0  0  0  0  0  0  0  0  0  0
   40.8650   27.9640   39.7090 H   0  0  0  0  0  0  0  0  0  0  0  0
   36.0760   32.5120   39.1080 H   0  0  0  0  0  0  0  0  0  0  0  0
   39.8750   32.2080   36.8520 N   0  0  0  0  0  0  0  0  0  0  0  0
   39.7900   32.1760   35.7910 H   0  0  0  0  0  0  0  0  0  0  0  0
   40.7070   32.6940   37.2760 H   0  0  0  0  0  0  0  0  0  0  0  0
   37.6760   24.4300   42.0450 S   0  0  0  0  0  0  0  0  0  0  0  0
   35.3480   25.2980   39.6200 H   0  0  0  0  0  0  0  0  0  0  0  0
   36.3550   25.0620   39.7580 N   0  0  0  0  0  0  0  0  0  0  0  0
   36.5570   23.9740   40.6790 C   0  0  1  0  0  3  0  0  0  0  0  0
   37.1940   22.7930   39.9770 C   0  0  0  0  0  3  0  0  0  0  0  0
   38.2630   23.0810   39.8060 H   0  0  0  0  0  0  0  0  0  0  0  0
   36.5730   22.4770   38.7960 O   0  0  0  0  0  0  0  0  0  0  0  0
   36.4200   23.5340   37.9190 C   0  0  0  0  0  2  0  0  0  0  0  0
   36.9180   24.8420   38.4510 C   0  0  0  0  0  2  0  0  0  0  0  0
  1 23  1  0  0  0  0
  1  2  1  0  0  0  0
  2  3  2  0  0  0  0
  2 16  1  0  0  0  0
  3 17  1  0  0  0  0
  4  3  1  0  0  0  0
  5  4  2  0  0  0  0
  6  5  1  0  0  0  0
  6  1  2  0  0  0  0
  7  5  1  0  0  0  0
  8 18  1  0  0  0  0
  8  7  1  0  0  0  0
  9 10  1  0  0  0  0
  9  8  2  0  0  0  0
 10 15  1  0  0  0  0
 11 12  1  0  0  0  0
 11 10  2  0  0  0  0
 12 13  2  0  0  0  0
 13 19  1  0  0  0  0
 13 14  1  0  0  0  0
 15 14  2  0  0  0  0
 15  7  1  0  0  0  0
 20 22  1  0  0  0  0
 20 11  1  0  0  0  0
 21 20  1  0  0  0  0
 24 25  1  0  0  0  0
 25 26  1  0  0  0  0
 26 23  1  1  0  0  0
 27 26  1  0  0  0  0
 28 27  1  0  0  0  0
 29 27  1  0  0  0  0
 30 31  1  0  0  0  0
 30 29  1  0  0  0  0
 31 25  1  0  0  0  0
M  END
>  <minimizedAffinity>
-5.35377026

$$$$

 OpenBabel03252504233D

 31 34  0  0  1  0  0  0  0  0999 V2000
   38.6770   28.7510   41.6990 C   0  0  0  0  0  0  0  0  0  0  0  0
   39.5280   28.5560   42.7750 C   0  0  0  0  0  0  0  0  0  0  0  0
   40.8040   29.1460   42.7140 C   0  0  0  0  0  0  0  0  0  0  0  0
   41.1050   29.8690   41.5960 N   0  0  0  0  0  0  0  0  0  0  0  0
   40.2500   30.0300   40.5840 C   0  0  0  0  0  0  0  0  0  0  0  0
   39.0260   29.4740   40.6200 N   0  0  0  0  0  0  0  0  0  0  0  0
   40.6500   30.8080   39.4520 N   0  0  0  0  0  0  0  0  0  0  0  0
   40.4490   30.4940   38.1460 C   0  0  0  0  0  0  0  0  0  0  0  0
   40.9760   31.4980   37.3880 N   0  0  0  0  0  0  0  0  0  0  0  0
   41.4850   32.3990   38.2420 C   0  0  0  0  0  0  0  0  0  0  0  0
   42.1310   33.5970   38.0780 C   0  0  0  0  0  0  0  0  0  0  0  0
   42.5490   34.3220   39.0990 N   0  0  0  0  0  0  0  0  0  0  0  0
   42.3690   33.9310   40.3860 C   0  0  0  0  0  0  0  0  0  0  0  0
   41.7360   32.7590   40.5430 N   0  0  0  0  0  0  0  0  0  0  0  0
   41.2930   31.9890   39.5450 C   0  0  0  0  0  0  0  0  0  0  0  0
   39.3100   27.9920   43.6520 H   0  0  0  0  0  0  0  0  0  0  0  0
   41.5140   29.0410   43.4990 H   0  0  0  0  0  0  0  0  0  0  0  0
   39.9630   29.6170   37.7410 H   0  0  0  0  0  0  0  0  0  0  0  0
   42.7300   34.5630   41.1840 H   0  0  0  0  0  0  0  0  0  0  0  0
   42.3870   34.1310   36.7900 N   0  0  0  0  0  0  0  0  0  0  0  0
   41.9170   34.9340   36.2750 H   0  0  0  0  0  0  0  0  0  0  0  0
   43.1700   33.6150   36.3110 H   0  0  0  0  0  0  0  0  0  0  0  0
   37.0530   27.9430   41.8460 S   0  0  0  0  0  0  0  0  0  0  0  0
   38.4010   25.9640   39.3340 H   0  0  0  0  0  0  0  0  0  0  0  0
   38.5080   26.2140   40.3400 N   0  0  0  0  0  0  0  0  0  0  0  0
   37.2490   26.3240   41.0290 C   0  0  1  0  0  3  0  0  0  0  0  0
   37.1450   25.2780   42.1190 C   0  0  0  0  0  3  0  0  0  0  0  0
   37.8250   25.6230   42.9390 H   0  0  0  0  0  0  0  0  0  0  0  0
   37.4890   24.0230   41.6870 O   0  0  0  0  0  0  0  0  0  0  0  0
   38.7160   23.9420   41.0560 C   0  0  0  0  0  2  0  0  0  0  0  0
   39.4170   25.2580   40.9180 C   0  0  0  0  0  2  0  0  0  0  0  0
  1 23  1  0  0  0  0
  1  2  1  0  0  0  0
  2 16  1  0  0  0  0
  3  2  2  0  0  0  0
  3 17  1  0  0  0  0
  4  3  1  0  0  0  0
  5  6  1  0  0  0  0
  5  4  2  0  0  0  0
  6  1  2  0  0  0  0
  7 15  1  0  0  0  0
  7  5  1  0  0  0  0
  8  7  1  0  0  0  0
  9  8  2  0  0  0  0
  9 10  1  0  0  0  0
 10 15  1  0  0  0  0
 11 10  2  0  0  0  0
 11 12  1  0  0  0  0
 12 13  2  0  0  0  0
 13 14  1  0  0  0  0
 13 19  1  0  0  0  0
 15 14  2  0  0  0  0
 18  8  1  0  0  0  0
 20 11  1  0  0  0  0
 21 20  1  0  0  0  0
 22 20  1  0  0  0  0
 24 25  1  0  0  0  0
 25 31  1  0  0  0  0
 25 26  1  0  0  0  0
 26 23  1  1  0  0  0
 26 27  1  0  0  0  0
 27 28  1  0  0  0  0
 29 27  1  0  0  0  0
 30 29  1  0  0  0  0
 31 30  1  0  0  0  0
M  END
>  <minimizedAffinity>
-5.33395338

$$$$

 OpenBabel03252504233D

 31 34  0  0  1  0  0  0  0  0999 V2000
   37.5890   30.1220   39.6900 C   0  0  0  0  0  0  0  0  0  0  0  0
   36.9540   29.1350   38.9530 C   0  0  0  0  0  0  0  0  0  0  0  0
   37.5460   28.7420   37.7380 C   0  0  0  0  0  0  0  0  0  0  0  0
   38.7060   29.3660   37.3790 N   0  0  0  0  0  0  0  0  0  0  0  0
   39.2820   30.3130   38.1230 C   0  0  0  0  0  0  0  0  0  0  0  0
   38.7330   30.7030   39.2870 N   0  0  0  0  0  0  0  0  0  0  0  0
   40.4990   30.9100   37.6690 N   0  0  0  0  0  0  0  0  0  0  0  0
   40.8050   32.2330   37.6890 C   0  0  0  0  0  0  0  0  0  0  0  0
   42.0590   32.3810   37.1730 N   0  0  0  0  0  0  0  0  0  0  0  0
   42.4900   31.1520   36.8510 C   0  0  0  0  0  0  0  0  0  0  0  0
   43.6520   30.6720   36.3030 C   0  0  0  0  0  0  0  0  0  0  0  0
   43.8480   29.3870   36.0730 N   0  0  0  0  0  0  0  0  0  0  0  0
   42.9110   28.4480   36.3630 C   0  0  0  0  0  0  0  0  0  0  0  0
   41.7760   28.9210   36.9000 N   0  0  0  0  0  0  0  0  0  0  0  0
   41.5290   30.2100   37.1530 C   0  0  0  0  0  0  0  0  0  0  0  0
   36.0480   28.6410   39.2180 H   0  0  0  0  0  0  0  0  0  0  0  0
   37.1190   27.9920   37.1160 H   0  0  0  0  0  0  0  0  0  0  0  0
   40.1920   33.0500   38.0430 H   0  0  0  0  0  0  0  0  0  0  0  0
   43.1240   27.4100   36.1560 H   0  0  0  0  0  0  0  0  0  0  0  0
   44.7180   31.5370   35.9510 N   0  0  0  0  0  0  0  0  0  0  0  0
   45.6540   31.7020   36.4310 H   0  0  0  0  0  0  0  0  0  0  0  0
   44.5000   32.0760   35.0740 H   0  0  0  0  0  0  0  0  0  0  0  0
   36.7540   30.5850   41.2390 S   0  0  0  0  0  0  0  0  0  0  0  0
   35.9990   27.9320   43.3470 H   0  0  0  0  0  0  0  0  0  0  0  0
   36.4130   28.1620   42.4180 N   0  0  0  0  0  0  0  0  0  0  0  0
   37.2650   29.3220   42.4520 C   0  0  1  0  0  3  0  0  0  0  0  0
   38.6900   28.9470   42.1080 C   0  0  0  0  0  3  0  0  0  0  0  0
   38.6980   28.7560   41.0040 H   0  0  0  0  0  0  0  0  0  0  0  0
   39.1350   27.8510   42.8020 O   0  0  0  0  0  0  0  0  0  0  0  0
   38.3130   26.7430   42.7250 C   0  0  0  0  0  2  0  0  0  0  0  0
   37.0600   26.9680   41.9370 C   0  0  0  0  0  2  0  0  0  0  0  0
  1 23  1  0  0  0  0
  2 16  1  0  0  0  0
  2  1  2  0  0  0  0
  3  2  1  0  0  0  0
  4  3  2  0  0  0  0
  4  5  1  0  0  0  0
  5  6  2  0  0  0  0
  6  1  1  0  0  0  0
  7  8  1  0  0  0  0
  7  5  1  0  0  0  0
  8 18  1  0  0  0  0
  9  8  2  0  0  0  0
 10 15  1  0  0  0  0
 10  9  1  0  0  0  0
 11 10  2  0  0  0  0
 12 11  1  0  0  0  0
 12 13  2  0  0  0  0
 13 14  1  0  0  0  0
 14 15  2  0  0  0  0
 15  7  1  0  0  0  0
 17  3  1  0  0  0  0
 19 13  1  0  0  0  0
 20 11  1  0  0  0  0
 20 21  1  0  0  0  0
 22 20  1  0  0  0  0
 25 26  1  0  0  0  0
 25 24  1  0  0  0  0
 26 23  1  6  0  0  0
 27 26  1  0  0  0  0
 27 29  1  0  0  0  0
 28 27  1  0  0  0  0
 30 29  1  0  0  0  0
 31 25  1  0  0  0  0
 31 30  1  0  0  0  0
M  END
>  <minimizedAffinity>
-5.33069897

$$$$

 OpenBabel03252504233D

 31 34  0  0  1  0  0  0  0  0999 V2000
   37.5940   31.2740   39.1550 C   0  0  0  0  0  0  0  0  0  0  0  0
   37.4820   31.0900   37.7860 C   0  0  0  0  0  0  0  0  0  0  0  0
   37.6460   29.7860   37.2860 C   0  0  0  0  0  0  0  0  0  0  0  0
   37.9040   28.7980   38.1920 N   0  0  0  0  0  0  0  0  0  0  0  0
   38.0020   29.0230   39.5040 C   0  0  0  0  0  0  0  0  0  0  0  0
   37.8490   30.2620   40.0040 N   0  0  0  0  0  0  0  0  0  0  0  0
   38.2710   27.9260   40.3800 N   0  0  0  0  0  0  0  0  0  0  0  0
   39.1500   27.9170   41.4160 C   0  0  0  0  0  0  0  0  0  0  0  0
   39.1010   26.6840   41.9960 N   0  0  0  0  0  0  0  0  0  0  0  0
   38.1990   25.9690   41.3070 C   0  0  0  0  0  0  0  0  0  0  0  0
   37.7280   24.6860   41.4160 C   0  0  0  0  0  0  0  0  0  0  0  0
   36.8160   24.1950   40.5970 N   0  0  0  0  0  0  0  0  0  0  0  0
   36.2800   24.9280   39.5870 C   0  0  0  0  0  0  0  0  0  0  0  0
   36.7430   26.1820   39.4840 N   0  0  0  0  0  0  0  0  0  0  0  0
   37.6630   26.7260   40.2860 C   0  0  0  0  0  0  0  0  0  0  0  0
   37.2840   31.8510   37.0670 H   0  0  0  0  0  0  0  0  0  0  0  0
   37.5760   29.5640   36.2480 H   0  0  0  0  0  0  0  0  0  0  0  0
   39.7890   28.7230   41.7510 H   0  0  0  0  0  0  0  0  0  0  0  0
   35.5350   24.4770   38.9480 H   0  0  0  0  0  0  0  0  0  0  0  0
   38.1960   23.8070   42.4240 N   0  0  0  0  0  0  0  0  0  0  0  0
   37.7240   23.4770   43.3190 H   0  0  0  0  0  0  0  0  0  0  0  0
   39.1650   23.4580   42.2070 H   0  0  0  0  0  0  0  0  0  0  0  0
   37.3840   32.9910   39.7220 S   0  0  0  0  0  0  0  0  0  0  0  0
   39.5850   33.2180   42.3960 H   0  0  0  0  0  0  0  0  0  0  0  0
   39.3690   32.6560   41.5450 N   0  0  0  0  0  0  0  0  0  0  0  0
   39.0030   33.4670   40.4130 C   0  0  1  0  0  3  0  0  0  0  0  0
   40.0110   33.3070   39.2950 C   0  0  0  0  0  3  0  0  0  0  0  0
   39.8210   32.2950   38.8550 H   0  0  0  0  0  0  0  0  0  0  0  0
   41.3080   33.4220   39.7260 O   0  0  0  0  0  0  0  0  0  0  0  0
   41.6390   32.6090   40.7940 C   0  0  0  0  0  2  0  0  0  0  0  0
   40.4970   31.7910   41.3120 C   0  0  0  0  0  2  0  0  0  0  0  0
  1 23  1  0  0  0  0
  1  6  1  0  0  0  0
  2  1  2  0  0  0  0
  3  2  1  0  0  0  0
  3  4  2  0  0  0  0
  4  5  1  0  0  0  0
  5  6  2  0  0  0  0
  5  7  1  0  0  0  0
  7  8  1  0  0  0  0
  8 18  1  0  0  0  0
  8  9  2  0  0  0  0
 10 11  1  0  0  0  0
 10  9  1  0  0  0  0
 11 20  1  0  0  0  0
 12 11  2  0  0  0  0
 13 12  1  0  0  0  0
 14 13  2  0  0  0  0
 14 15  1  0  0  0  0
 15  7  1  0  0  0  0
 15 10  2  0  0  0  0
 16  2  1  0  0  0  0
 17  3  1  0  0  0  0
 19 13  1  0  0  0  0
 20 21  1  0  0  0  0
 22 20  1  0  0  0  0
 25 24  1  0  0  0  0
 26 23  1  6  0  0  0
 26 25  1  0  0  0  0
 27 29  1  0  0  0  0
 27 26  1  0  0  0  0
 28 27  1  0  0  0  0
 29 30  1  0  0  0  0
 30 31  1  0  0  0  0
 31 25  1  0  0  0  0
M  END
>  <minimizedAffinity>
-5.32480192

$$$$
