
 OpenBabel03252508523D

 42 45  0  0  1  0  0  0  0  0999 V2000
   43.3160   34.4870   40.7880 C   0  0  0  0  0  0  0  0  0  0  0  0
   43.2740   35.7390   40.5140 O   0  0  0  0  0  0  0  0  0  0  0  0
   41.9560   34.1260   40.4300 N   0  0  0  0  0  0  0  0  0  0  0  0
   41.6040   34.3560   39.0500 C   0  0  0  0  0  0  0  0  0  0  0  0
   40.8120   35.6750   39.0610 C   0  0  0  0  0  0  0  0  0  0  0  0
   40.0000   35.6770   40.3510 C   0  0  0  0  0  0  0  0  0  0  0  0
   39.6380   34.2610   40.8010 C   0  0  0  0  0  0  0  0  0  0  0  0
   40.9140   33.5700   41.2640 C   0  0  1  0  0  0  0  0  0  0  0  0
   42.4690   34.5080   38.3800 H   0  0  0  0  0  0  0  0  0  0  0  0
   40.9180   33.5810   38.6360 H   0  0  0  0  0  0  0  0  0  0  0  0
   41.5030   36.5490   39.0750 H   0  0  0  0  0  0  0  0  0  0  0  0
   40.1660   35.7660   38.1700 H   0  0  0  0  0  0  0  0  0  0  0  0
   39.0160   36.1720   40.1330 H   0  0  0  0  0  0  0  0  0  0  0  0
   40.5470   36.1660   41.1680 H   0  0  0  0  0  0  0  0  0  0  0  0
   39.1810   33.7350   39.9310 H   0  0  0  0  0  0  0  0  0  0  0  0
   38.9080   34.3920   41.6110 H   0  0  0  0  0  0  0  0  0  0  0  0
   41.0860   33.7850   42.3400 H   0  0  0  0  0  0  0  0  0  0  0  0
   40.7210   32.1700   41.0990 N   0  0  2  0  0  0  0  0  0  0  0  0
   39.3940   31.9560   40.5610 C   0  0  0  0  0  3  0  0  0  0  0  0
   39.4220   31.6900   39.4800 H   0  0  0  0  0  0  0  0  0  0  0  0
   38.6130   30.9420   41.3650 C   0  0  0  0  0  3  0  0  0  0  0  0
   37.6840   30.7240   40.8000 H   0  0  0  0  0  0  0  0  0  0  0  0
   39.2990   29.7470   41.5320 O   0  0  0  0  0  0  0  0  0  0  0  0
   40.6190   29.9250   41.8900 C   0  0  0  0  0  2  0  0  0  0  0  0
   40.8820   31.3760   42.2770 C   0  0  0  0  0  2  0  0  0  0  0  0
   44.3700   33.7780   41.2720 O   0  0  0  0  0  0  0  0  0  0  0  0
   45.7100   34.0730   41.1280 C   0  0  0  0  0  0  0  0  0  0  0  0
   46.3570   34.6820   42.2000 C   0  0  0  0  0  0  0  0  0  0  0  0
   47.7260   34.9690   42.0170 C   0  0  0  0  0  0  0  0  0  0  0  0
   48.3130   34.6390   40.8320 N   0  0  0  0  0  0  0  0  0  0  0  0
   47.6400   34.0590   39.8460 C   0  0  0  0  0  0  0  0  0  0  0  0
   46.3390   33.7710   39.9810 N   0  0  0  0  0  0  0  0  0  0  0  0
   48.2230   35.4380   42.8470 H   0  0  0  0  0  0  0  0  0  0  0  0
   48.1640   33.8210   38.9220 H   0  0  0  0  0  0  0  0  0  0  0  0
   45.6370   34.9880   43.4150 C   0  0  0  0  0  0  0  0  0  0  0  0
   45.0280   36.2280   43.6270 C   0  0  0  0  0  0  0  0  0  0  0  0
   44.4660   36.1030   44.8740 C   0  0  0  0  0  0  0  0  0  0  0  0
   44.7160   34.8700   45.3880 N   0  0  0  0  0  0  0  0  0  0  0  0
   45.4230   34.2310   44.4750 N   0  0  0  0  0  0  0  0  0  0  0  0
   44.9980   37.0930   42.9710 H   0  0  0  0  0  0  0  0  0  0  0  0
   43.8990   36.8630   45.3990 H   0  0  0  0  0  0  0  0  0  0  0  0
   44.3870   34.5340   46.3360 H   0  0  0  0  0  0  0  0  0  0  0  0
  1 26  1  0  0  0  0
  2  1  2  0  0  0  0
  3  1  1  0  0  0  0
  3  8  1  0  0  0  0
  4  5  1  0  0  0  0
  4  3  1  0  0  0  0
  5 11  1  0  0  0  0
  5  6  1  0  0  0  0
  6  7  1  0  0  0  0
  6 14  1  0  0  0  0
  7  8  1  0  0  0  0
  7 16  1  0  0  0  0
  8 17  1  1  0  0  0
  9  4  1  0  0  0  0
 10  4  1  0  0  0  0
 12  5  1  0  0  0  0
 13  6  1  0  0  0  0
 15  7  1  0  0  0  0
 18  8  1  0  0  0  0
 18 25  1  1  0  0  0
 19 18  1  0  0  0  0
 19 21  1  0  0  0  0
 20 19  1  0  0  0  0
 21 23  1  0  0  0  0
 22 21  1  0  0  0  0
 23 24  1  0  0  0  0
 24 25  1  0  0  0  0
 27 26  1  0  0  0  0
 27 28  1  0  0  0  0
 28 35  1  0  0  0  0
 29 28  2  0  0  0  0
 29 33  1  0  0  0  0
 30 29  1  0  0  0  0
 31 32  1  0  0  0  0
 31 30  2  0  0  0  0
 32 27  2  0  0  0  0
 34 31  1  0  0  0  0
 35 36  1  0  0  0  0
 35 39  2  0  0  0  0
 36 37  2  0  0  0  0
 37 38  1  0  0  0  0
 37 41  1  0  0  0  0
 38 42  1  0  0  0  0
 39 38  1  0  0  0  0
 40 36  1  0  0  0  0
M  END
>  <minimizedAffinity>
-6.79491663

>  <minimizedRMSD>
0.390778422

$$$$
