
 OpenBabel03242513433D

 39 42  0  0  1  0  0  0  0  0999 V2000
   39.7190   30.1640   39.8270 C   0  0  0  0  0  0  0  0  0  0  0  0
   38.4880   29.8980   40.3890 C   0  0  0  0  0  0  0  0  0  0  0  0
   37.6560   30.9660   40.6530 C   0  0  0  0  0  0  0  0  0  0  0  0
   38.0060   32.2690   40.3790 C   0  0  0  0  0  0  0  0  0  0  0  0
   37.4490   33.4960   40.5080 N   0  0  0  0  0  0  0  0  0  0  0  0
   38.2960   34.4530   40.0480 C   0  0  0  0  0  0  0  0  0  0  0  0
   39.3930   33.8060   39.6290 N   0  0  0  0  0  0  0  0  0  0  0  0
   39.2410   32.4700   39.8200 C   0  0  0  0  0  0  0  0  0  0  0  0
   40.1110   31.4590   39.5340 C   0  0  0  0  0  0  0  0  0  0  0  0
   40.3950   29.3520   39.6070 H   0  0  0  0  0  0  0  0  0  0  0  0
   36.6810   30.7890   41.0950 H   0  0  0  0  0  0  0  0  0  0  0  0
   36.4820   33.5760   40.9220 H   0  0  0  0  0  0  0  0  0  0  0  0
   38.0660   35.5130   40.0500 H   0  0  0  0  0  0  0  0  0  0  0  0
   38.0220   26.7290   42.1410 C   0  0  0  0  0  0  0  0  0  0  0  0
   37.3240   25.9580   41.2200 C   0  0  0  0  0  0  0  0  0  0  0  0
   37.0260   26.5560   39.9980 C   0  0  0  0  0  0  0  0  0  0  0  0
   37.4190   27.8360   39.7610 N   0  0  0  0  0  0  0  0  0  0  0  0
   38.0910   28.5330   40.6900 C   0  0  0  0  0  0  0  0  0  0  0  0
   38.3930   27.9980   41.8680 N   0  0  0  0  0  0  0  0  0  0  0  0
   38.2800   26.3050   43.1190 H   0  0  0  0  0  0  0  0  0  0  0  0
   36.4830   25.9580   39.2790 H   0  0  0  0  0  0  0  0  0  0  0  0
   36.9520   24.5720   41.6010 C   0  0  0  0  0  0  0  0  0  0  0  0
   36.1020   24.1370   40.6000 F   0  0  0  0  0  0  0  0  0  0  0  0
   36.3050   24.6050   42.7920 F   0  0  0  0  0  0  0  0  0  0  0  0
   38.1280   23.8150   41.6740 F   0  0  0  0  0  0  0  0  0  0  0  0
   41.3540   31.7340   38.9660 O   0  0  0  0  0  0  0  0  0  0  0  0
   42.2100   33.5870   37.3880 O   0  0  0  0  0  0  0  0  0  0  0  0
   41.5980   32.1900   37.3550 P   0  0  2  0  0  0  0  0  0  0  0  0
   40.0620   32.3390   36.6220 O   0  0  0  0  0  0  0  0  0  0  0  0
   39.6480   33.2030   36.8840 H   0  0  0  0  0  0  0  0  0  0  0  0
   42.5600   31.1410   36.4830 O   0  0  0  0  0  0  0  0  0  0  0  0
   40.8170   29.7440   35.9820 H   0  0  0  0  0  0  0  0  0  0  0  0
   41.2460   29.2990   36.8240 N   0  0  0  0  0  0  0  0  0  0  0  0
   42.5600   29.8370   37.0010 C   0  0  1  0  0  3  0  0  0  0  0  0
   43.5430   29.0580   36.1630 C   0  0  0  0  0  3  0  0  0  0  0  0
   44.5760   29.4540   36.2750 H   0  0  0  0  0  0  0  0  0  0  0  0
   43.5730   27.7010   36.5580 O   0  0  0  0  0  0  0  0  0  0  0  0
   42.3450   27.1880   36.1540 C   0  0  0  0  0  2  0  0  0  0  0  0
   41.1640   27.8730   36.7610 C   0  0  0  0  0  2  0  0  0  0  0  0
  1  2  1  0  0  0  0
  2  3  2  0  0  0  0
  2 18  1  0  0  0  0
  3 11  1  0  0  0  0
  4  5  1  0  0  0  0
  4  3  1  0  0  0  0
  5 12  1  0  0  0  0
  6 13  1  0  0  0  0
  6  5  1  0  0  0  0
  7  8  1  0  0  0  0
  7  6  2  0  0  0  0
  8  4  2  0  0  0  0
  9  8  1  0  0  0  0
  9  1  2  0  0  0  0
 10  1  1  0  0  0  0
 14 20  1  0  0  0  0
 15 22  1  0  0  0  0
 15 14  2  0  0  0  0
 16 15  1  0  0  0  0
 17 16  2  0  0  0  0
 17 18  1  0  0  0  0
 18 19  2  0  0  0  0
 19 14  1  0  0  0  0
 21 16  1  0  0  0  0
 22 25  1  0  0  0  0
 22 24  1  0  0  0  0
 23 22  1  0  0  0  0
 26  9  1  0  0  0  0
 28 27  2  6  0  0  0
 28 26  1  0  0  0  0
 29 30  1  0  0  0  0
 29 28  1  0  0  0  0
 31 28  1  0  0  0  0
 32 33  1  0  0  0  0
 33 34  1  0  0  0  0
 34 31  1  6  0  0  0
 35 36  1  0  0  0  0
 35 37  1  0  0  0  0
 35 34  1  0  0  0  0
 38 37  1  0  0  0  0
 38 39  1  0  0  0  0
 39 33  1  0  0  0  0
M  END
>  <minimizedAffinity>
-6.5031333

$$$$

 OpenBabel03242513433D

 39 42  0  0  1  0  0  0  0  0999 V2000
   41.0760   31.9670   40.6220 C   0  0  0  0  0  0  0  0  0  0  0  0
   41.0880   31.2570   41.8040 C   0  0  0  0  0  0  0  0  0  0  0  0
   42.0610   31.5660   42.7320 C   0  0  0  0  0  0  0  0  0  0  0  0
   43.0060   32.5460   42.5220 C   0  0  0  0  0  0  0  0  0  0  0  0
   44.0530   33.0770   43.1960 N   0  0  0  0  0  0  0  0  0  0  0  0
   44.6420   34.0560   42.4630 C   0  0  0  0  0  0  0  0  0  0  0  0
   43.9480   34.1300   41.3180 N   0  0  0  0  0  0  0  0  0  0  0  0
   42.9420   33.2180   41.3290 C   0  0  0  0  0  0  0  0  0  0  0  0
   42.0070   32.9600   40.3700 C   0  0  0  0  0  0  0  0  0  0  0  0
   40.3290   31.7510   39.8740 H   0  0  0  0  0  0  0  0  0  0  0  0
   42.0960   31.0250   43.6710 H   0  0  0  0  0  0  0  0  0  0  0  0
   44.2850   32.7020   44.1540 H   0  0  0  0  0  0  0  0  0  0  0  0
   45.5020   34.6260   42.7980 H   0  0  0  0  0  0  0  0  0  0  0  0
   39.5640   28.0920   42.8000 C   0  0  0  0  0  0  0  0  0  0  0  0
   38.2190   28.2840   42.5090 C   0  0  0  0  0  0  0  0  0  0  0  0
   37.8630   29.5170   41.9680 C   0  0  0  0  0  0  0  0  0  0  0  0
   38.8190   30.4590   41.7520 N   0  0  0  0  0  0  0  0  0  0  0  0
   40.1040   30.2180   42.0530 C   0  0  0  0  0  0  0  0  0  0  0  0
   40.4830   29.0540   42.5710 N   0  0  0  0  0  0  0  0  0  0  0  0
   39.8960   27.1390   43.2270 H   0  0  0  0  0  0  0  0  0  0  0  0
   36.8160   29.6690   41.7410 H   0  0  0  0  0  0  0  0  0  0  0  0
   37.2740   27.1750   42.7920 C   0  0  0  0  0  0  0  0  0  0  0  0
   38.0710   26.0700   43.0310 F   0  0  0  0  0  0  0  0  0  0  0  0
   36.4980   26.9730   41.6990 F   0  0  0  0  0  0  0  0  0  0  0  0
   36.5080   27.5350   43.9080 F   0  0  0  0  0  0  0  0  0  0  0  0
   42.0000   33.6820   39.1780 O   0  0  0  0  0  0  0  0  0  0  0  0
   44.2720   33.0780   38.1140 O   0  0  0  0  0  0  0  0  0  0  0  0
   42.7940   33.2100   37.7590 P   0  0  2  0  0  0  0  0  0  0  0  0
   42.6650   34.4980   36.6440 O   0  0  0  0  0  0  0  0  0  0  0  0
   43.3250   35.2050   36.8700 H   0  0  0  0  0  0  0  0  0  0  0  0
   42.2160   31.7970   37.0860 O   0  0  0  0  0  0  0  0  0  0  0  0
   42.4370   30.3080   38.8100 H   0  0  0  0  0  0  0  0  0  0  0  0
   43.3450   30.2220   38.3020 N   0  0  0  0  0  0  0  0  0  0  0  0
   43.1900   30.7920   36.9980 C   0  0  1  0  0  3  0  0  0  0  0  0
   42.6330   29.7550   36.0550 C   0  0  0  0  0  3  0  0  0  0  0  0
   42.4970   30.1680   35.0320 H   0  0  0  0  0  0  0  0  0  0  0  0
   43.5120   28.6530   35.9460 O   0  0  0  0  0  0  0  0  0  0  0  0
   43.4410   28.0190   37.1820 C   0  0  0  0  0  2  0  0  0  0  0  0
   43.8380   28.8800   38.3370 C   0  0  0  0  0  2  0  0  0  0  0  0
  1  2  1  0  0  0  0
  2 18  1  0  0  0  0
  2  3  2  0  0  0  0
  3 11  1  0  0  0  0
  4  3  1  0  0  0  0
  4  5  1  0  0  0  0
  5 12  1  0  0  0  0
  6 13  1  0  0  0  0
  6  5  1  0  0  0  0
  7  8  1  0  0  0  0
  7  6  2  0  0  0  0
  8  4  2  0  0  0  0
  9  1  2  0  0  0  0
  9  8  1  0  0  0  0
 10  1  1  0  0  0  0
 14 20  1  0  0  0  0
 15 22  1  0  0  0  0
 15 14  2  0  0  0  0
 16 15  1  0  0  0  0
 17 16  2  0  0  0  0
 17 18  1  0  0  0  0
 18 19  2  0  0  0  0
 19 14  1  0  0  0  0
 21 16  1  0  0  0  0
 22 23  1  0  0  0  0
 22 25  1  0  0  0  0
 24 22  1  0  0  0  0
 26  9  1  0  0  0  0
 28 27  2  1  0  0  0
 28 26  1  0  0  0  0
 29 30  1  0  0  0  0
 29 28  1  0  0  0  0
 31 28  1  0  0  0  0
 33 39  1  0  0  0  0
 33 32  1  0  0  0  0
 34 31  1  1  0  0  0
 34 33  1  0  0  0  0
 35 34  1  0  0  0  0
 36 35  1  0  0  0  0
 37 35  1  0  0  0  0
 37 38  1  0  0  0  0
 38 39  1  0  0  0  0
M  END
>  <minimizedAffinity>
-6.11445427

$$$$

 OpenBabel03242513433D

 39 42  0  0  1  0  0  0  0  0999 V2000
   36.6950   30.3810   39.8790 C   0  0  0  0  0  0  0  0  0  0  0  0
   35.8900   29.2790   39.6760 C   0  0  0  0  0  0  0  0  0  0  0  0
   35.8800   28.2990   40.6470 C   0  0  0  0  0  0  0  0  0  0  0  0
   36.6350   28.3820   41.7960 C   0  0  0  0  0  0  0  0  0  0  0  0
   36.8480   27.6300   42.9010 N   0  0  0  0  0  0  0  0  0  0  0  0
   37.7320   28.2420   43.7290 C   0  0  0  0  0  0  0  0  0  0  0  0
   38.0720   29.3910   43.1250 N   0  0  0  0  0  0  0  0  0  0  0  0
   37.4140   29.5000   41.9420 C   0  0  0  0  0  0  0  0  0  0  0  0
   37.4690   30.5040   41.0200 C   0  0  0  0  0  0  0  0  0  0  0  0
   36.7260   31.1660   39.1400 H   0  0  0  0  0  0  0  0  0  0  0  0
   35.2570   27.4210   40.5160 H   0  0  0  0  0  0  0  0  0  0  0  0
   36.3390   26.7110   42.9980 H   0  0  0  0  0  0  0  0  0  0  0  0
   38.0580   27.8270   44.6780 H   0  0  0  0  0  0  0  0  0  0  0  0
   33.0200   28.9190   37.4480 C   0  0  0  0  0  0  0  0  0  0  0  0
   33.5950   28.9520   36.1840 C   0  0  0  0  0  0  0  0  0  0  0  0
   34.9790   29.0980   36.1270 C   0  0  0  0  0  0  0  0  0  0  0  0
   35.6930   29.2010   37.2800 N   0  0  0  0  0  0  0  0  0  0  0  0
   35.0820   29.1640   38.4740 C   0  0  0  0  0  0  0  0  0  0  0  0
   33.7640   29.0260   38.5690 N   0  0  0  0  0  0  0  0  0  0  0  0
   31.9340   28.8060   37.5470 H   0  0  0  0  0  0  0  0  0  0  0  0
   35.4300   29.1230   35.1440 H   0  0  0  0  0  0  0  0  0  0  0  0
   32.7050   28.8290   35.0030 C   0  0  0  0  0  0  0  0  0  0  0  0
   32.6880   30.0870   34.4280 F   0  0  0  0  0  0  0  0  0  0  0  0
   31.4630   28.4840   35.4260 F   0  0  0  0  0  0  0  0  0  0  0  0
   33.2480   27.8580   34.1520 F   0  0  0  0  0  0  0  0  0  0  0  0
   38.2840   31.6140   41.2310 O   0  0  0  0  0  0  0  0  0  0  0  0
   39.3060   33.9550   40.8630 O   0  0  0  0  0  0  0  0  0  0  0  0
   38.4410   32.9150   40.1590 P   0  0  2  0  0  0  0  0  0  0  0  0
   36.8920   33.6090   39.9620 O   0  0  0  0  0  0  0  0  0  0  0  0
   36.6790   34.1810   40.7460 H   0  0  0  0  0  0  0  0  0  0  0  0
   39.0890   32.5080   38.6770 O   0  0  0  0  0  0  0  0  0  0  0  0
   40.4220   31.0120   39.7830 H   0  0  0  0  0  0  0  0  0  0  0  0
   41.0530   31.8310   39.6370 N   0  0  0  0  0  0  0  0  0  0  0  0
   40.4820   32.6670   38.6240 C   0  0  1  0  0  3  0  0  0  0  0  0
   40.9050   32.1730   37.2630 C   0  0  0  0  0  3  0  0  0  0  0  0
   40.4740   32.8000   36.4520 H   0  0  0  0  0  0  0  0  0  0  0  0
   42.3110   32.2250   37.1260 O   0  0  0  0  0  0  0  0  0  0  0  0
   42.7860   31.2330   37.9780 C   0  0  0  0  0  2  0  0  0  0  0  0
   42.4030   31.4180   39.4100 C   0  0  0  0  0  2  0  0  0  0  0  0
  1  9  1  0  0  0  0
  2  1  2  0  0  0  0
  2  3  1  0  0  0  0
  3  4  2  0  0  0  0
  4  8  1  0  0  0  0
  4  5  1  0  0  0  0
  5 12  1  0  0  0  0
  5  6  1  0  0  0  0
  6 13  1  0  0  0  0
  7  6  2  0  0  0  0
  8  7  1  0  0  0  0
  9 26  1  0  0  0  0
  9  8  2  0  0  0  0
 10  1  1  0  0  0  0
 11  3  1  0  0  0  0
 14 20  1  0  0  0  0
 14 19  1  0  0  0  0
 15 14  2  0  0  0  0
 16 15  1  0  0  0  0
 16 17  2  0  0  0  0
 17 18  1  0  0  0  0
 18 19  2  0  0  0  0
 18  2  1  0  0  0  0
 21 16  1  0  0  0  0
 22 24  1  0  0  0  0
 22 15  1  0  0  0  0
 23 22  1  0  0  0  0
 25 22  1  0  0  0  0
 28 27  2  1  0  0  0
 28 26  1  0  0  0  0
 29 28  1  0  0  0  0
 29 30  1  0  0  0  0
 31 28  1  0  0  0  0
 33 32  1  0  0  0  0
 34 31  1  6  0  0  0
 34 33  1  0  0  0  0
 35 34  1  0  0  0  0
 36 35  1  0  0  0  0
 37 35  1  0  0  0  0
 37 38  1  0  0  0  0
 38 39  1  0  0  0  0
 39 33  1  0  0  0  0
M  END
>  <minimizedAffinity>
-6.11347628

$$$$

 OpenBabel03242513433D

 39 42  0  0  1  0  0  0  0  0999 V2000
   39.8310   30.7170   41.3080 C   0  0  0  0  0  0  0  0  0  0  0  0
   38.5470   30.2710   41.0780 C   0  0  0  0  0  0  0  0  0  0  0  0
   37.6120   31.1890   40.6480 C   0  0  0  0  0  0  0  0  0  0  0  0
   37.9120   32.5170   40.4420 C   0  0  0  0  0  0  0  0  0  0  0  0
   37.2580   33.6330   40.0410 N   0  0  0  0  0  0  0  0  0  0  0  0
   38.1010   34.6970   40.0270 C   0  0  0  0  0  0  0  0  0  0  0  0
   39.2930   34.2310   40.4270 N   0  0  0  0  0  0  0  0  0  0  0  0
   39.2050   32.9010   40.6860 C   0  0  0  0  0  0  0  0  0  0  0  0
   40.1760   32.0440   41.1130 C   0  0  0  0  0  0  0  0  0  0  0  0
   40.5880   30.0260   41.6450 H   0  0  0  0  0  0  0  0  0  0  0  0
   36.5930   30.8670   40.4590 H   0  0  0  0  0  0  0  0  0  0  0  0
   36.2350   33.5630   39.7970 H   0  0  0  0  0  0  0  0  0  0  0  0
   37.8020   35.7000   39.7390 H   0  0  0  0  0  0  0  0  0  0  0  0
   37.1080   27.2300   42.4990 C   0  0  0  0  0  0  0  0  0  0  0  0
   37.5690   26.2350   41.6460 C   0  0  0  0  0  0  0  0  0  0  0  0
   38.3770   26.6390   40.5860 C   0  0  0  0  0  0  0  0  0  0  0  0
   38.6750   27.9570   40.4310 N   0  0  0  0  0  0  0  0  0  0  0  0
   38.2000   28.8750   41.2870 C   0  0  0  0  0  0  0  0  0  0  0  0
   37.4260   28.5290   42.3100 N   0  0  0  0  0  0  0  0  0  0  0  0
   36.4690   26.9640   43.3480 H   0  0  0  0  0  0  0  0  0  0  0  0
   38.7370   25.8660   39.9210 H   0  0  0  0  0  0  0  0  0  0  0  0
   37.1720   24.8320   41.9240 C   0  0  0  0  0  0  0  0  0  0  0  0
   36.1950   24.9180   42.9000 F   0  0  0  0  0  0  0  0  0  0  0  0
   38.2510   24.1560   42.3910 F   0  0  0  0  0  0  0  0  0  0  0  0
   36.6910   24.2750   40.7320 F   0  0  0  0  0  0  0  0  0  0  0  0
   41.4720   32.5020   41.3430 O   0  0  0  0  0  0  0  0  0  0  0  0
   43.9610   32.9860   40.8660 O   0  0  0  0  0  0  0  0  0  0  0  0
   42.6450   32.7230   40.1430 P   0  0  2  0  0  0  0  0  0  0  0  0
   42.2510   34.1530   39.2950 O   0  0  0  0  0  0  0  0  0  0  0  0
   42.5330   34.9450   39.8240 H   0  0  0  0  0  0  0  0  0  0  0  0
   42.7940   31.4410   39.0840 O   0  0  0  0  0  0  0  0  0  0  0  0
   44.9710   32.1250   38.9070 H   0  0  0  0  0  0  0  0  0  0  0  0
   44.5300   32.5020   38.0380 N   0  0  0  0  0  0  0  0  0  0  0  0
   43.2890   31.8210   37.8280 C   0  0  1  0  0  3  0  0  0  0  0  0
   43.5360   30.5380   37.0740 C   0  0  0  0  0  3  0  0  0  0  0  0
   42.5900   29.9820   36.8980 H   0  0  0  0  0  0  0  0  0  0  0  0
   44.1060   30.8030   35.8080 O   0  0  0  0  0  0  0  0  0  0  0  0
   45.3920   31.2540   36.0850 C   0  0  0  0  0  2  0  0  0  0  0  0
   45.4430   32.4800   36.9370 C   0  0  0  0  0  2  0  0  0  0  0  0
  1 10  1  0  0  0  0
  2 18  1  0  0  0  0
  2  1  2  0  0  0  0
  3  2  1  0  0  0  0
  4  3  2  0  0  0  0
  4  8  1  0  0  0  0
  5  4  1  0  0  0  0
  6  5  1  0  0  0  0
  6  7  2  0  0  0  0
  7  8  1  0  0  0  0
  8  9  2  0  0  0  0
  9  1  1  0  0  0  0
  9 26  1  0  0  0  0
 11  3  1  0  0  0  0
 12  5  1  0  0  0  0
 13  6  1  0  0  0  0
 14 20  1  0  0  0  0
 15 22  1  0  0  0  0
 15 14  2  0  0  0  0
 16 15  1  0  0  0  0
 17 16  2  0  0  0  0
 17 18  1  0  0  0  0
 18 19  2  0  0  0  0
 19 14  1  0  0  0  0
 21 16  1  0  0  0  0
 22 24  1  0  0  0  0
 22 23  1  0  0  0  0
 25 22  1  0  0  0  0
 28 27  2  1  0  0  0
 28 26  1  0  0  0  0
 29 30  1  0  0  0  0
 29 28  1  0  0  0  0
 31 28  1  0  0  0  0
 33 32  1  0  0  0  0
 34 33  1  0  0  0  0
 34 31  1  1  0  0  0
 35 34  1  0  0  0  0
 36 35  1  0  0  0  0
 37 38  1  0  0  0  0
 37 35  1  0  0  0  0
 38 39  1  0  0  0  0
 39 33  1  0  0  0  0
M  END
>  <minimizedAffinity>
-6.05979681

$$$$

 OpenBabel03242513433D

 39 42  0  0  1  0  0  0  0  0999 V2000
   38.1760   30.3720   40.3990 C   0  0  0  0  0  0  0  0  0  0  0  0
   37.2230   29.5900   39.7820 C   0  0  0  0  0  0  0  0  0  0  0  0
   36.5590   28.6560   40.5510 C   0  0  0  0  0  0  0  0  0  0  0  0
   36.8110   28.4810   41.8930 C   0  0  0  0  0  0  0  0  0  0  0  0
   36.3590   27.6900   42.8950 N   0  0  0  0  0  0  0  0  0  0  0  0
   37.0020   27.9790   44.0540 C   0  0  0  0  0  0  0  0  0  0  0  0
   37.8670   28.9630   43.7650 N   0  0  0  0  0  0  0  0  0  0  0  0
   37.7690   29.2880   42.4500 C   0  0  0  0  0  0  0  0  0  0  0  0
   38.4610   30.2300   41.7460 C   0  0  0  0  0  0  0  0  0  0  0  0
   38.7140   31.1120   39.8270 H   0  0  0  0  0  0  0  0  0  0  0  0
   35.8030   28.0260   40.0940 H   0  0  0  0  0  0  0  0  0  0  0  0
   35.6060   26.9830   42.6840 H   0  0  0  0  0  0  0  0  0  0  0  0
   36.8070   27.4730   44.9950 H   0  0  0  0  0  0  0  0  0  0  0  0
   35.8180   29.0850   36.4500 C   0  0  0  0  0  0  0  0  0  0  0  0
   36.4180   30.0890   35.6990 C   0  0  0  0  0  0  0  0  0  0  0  0
   37.3060   30.9270   36.3670 C   0  0  0  0  0  0  0  0  0  0  0  0
   37.5450   30.7380   37.6920 N   0  0  0  0  0  0  0  0  0  0  0  0
   36.9350   29.7510   38.3670 C   0  0  0  0  0  0  0  0  0  0  0  0
   36.0800   28.9310   37.7650 N   0  0  0  0  0  0  0  0  0  0  0  0
   35.1100   28.3990   35.9710 H   0  0  0  0  0  0  0  0  0  0  0  0
   37.7750   31.7090   35.7850 H   0  0  0  0  0  0  0  0  0  0  0  0
   36.0730   30.1900   34.2590 C   0  0  0  0  0  0  0  0  0  0  0  0
   34.7270   29.8770   34.1850 F   0  0  0  0  0  0  0  0  0  0  0  0
   36.8090   29.2850   33.5680 F   0  0  0  0  0  0  0  0  0  0  0  0
   36.3430   31.5000   33.8420 F   0  0  0  0  0  0  0  0  0  0  0  0
   39.4230   31.0170   42.3750 O   0  0  0  0  0  0  0  0  0  0  0  0
   41.3410   29.3080   42.6180 O   0  0  0  0  0  0  0  0  0  0  0  0
   41.0940   30.7710   42.2660 P   0  0  2  0  0  0  0  0  0  0  0  0
   41.8340   31.7070   43.4880 O   0  0  0  0  0  0  0  0  0  0  0  0
   41.7460   31.2460   44.3630 H   0  0  0  0  0  0  0  0  0  0  0  0
   41.7460   31.1410   40.7750 O   0  0  0  0  0  0  0  0  0  0  0  0
   42.1400   33.2320   41.6180 H   0  0  0  0  0  0  0  0  0  0  0  0
   41.2690   33.3600   41.0570 N   0  0  0  0  0  0  0  0  0  0  0  0
   41.1350   32.2470   40.1670 C   0  0  1  0  0  3  0  0  0  0  0  0
   41.9160   32.5120   38.9040 C   0  0  0  0  0  3  0  0  0  0  0  0
   41.8360   31.6620   38.1920 H   0  0  0  0  0  0  0  0  0  0  0  0
   41.4230   33.6590   38.2410 O   0  0  0  0  0  0  0  0  0  0  0  0
   41.7860   34.7240   39.0600 C   0  0  0  0  0  2  0  0  0  0  0  0
   41.2270   34.6520   40.4430 C   0  0  0  0  0  2  0  0  0  0  0  0
  1  9  1  0  0  0  0
  2  1  2  0  0  0  0
  2  3  1  0  0  0  0
  3  4  2  0  0  0  0
  4  8  1  0  0  0  0
  4  5  1  0  0  0  0
  5  6  1  0  0  0  0
  6 13  1  0  0  0  0
  7  6  2  0  0  0  0
  8  7  1  0  0  0  0
  9 26  1  0  0  0  0
  9  8  2  0  0  0  0
 10  1  1  0  0  0  0
 11  3  1  0  0  0  0
 12  5  1  0  0  0  0
 14 19  1  0  0  0  0
 15 16  1  0  0  0  0
 15 14  2  0  0  0  0
 16 17  2  0  0  0  0
 17 18  1  0  0  0  0
 18  2  1  0  0  0  0
 19 18  2  0  0  0  0
 20 14  1  0  0  0  0
 21 16  1  0  0  0  0
 22 15  1  0  0  0  0
 23 22  1  0  0  0  0
 24 22  1  0  0  0  0
 25 22  1  0  0  0  0
 28 26  1  0  0  0  0
 28 27  2  1  0  0  0
 28 29  1  0  0  0  0
 29 30  1  0  0  0  0
 31 28  1  0  0  0  0
 33 32  1  0  0  0  0
 34 31  1  1  0  0  0
 34 33  1  0  0  0  0
 35 34  1  0  0  0  0
 36 35  1  0  0  0  0
 37 35  1  0  0  0  0
 37 38  1  0  0  0  0
 38 39  1  0  0  0  0
 39 33  1  0  0  0  0
M  END
>  <minimizedAffinity>
-6.03808594

$$$$

 OpenBabel03242513433D

 39 42  0  0  1  0  0  0  0  0999 V2000
   36.9120   26.9850   39.7430 C   0  0  0  0  0  0  0  0  0  0  0  0
   36.8320   28.3400   39.5040 C   0  0  0  0  0  0  0  0  0  0  0  0
   36.8980   29.1920   40.5870 C   0  0  0  0  0  0  0  0  0  0  0  0
   37.0390   28.7420   41.8810 C   0  0  0  0  0  0  0  0  0  0  0  0
   37.1330   29.2850   43.1170 N   0  0  0  0  0  0  0  0  0  0  0  0
   37.2640   28.3120   44.0540 C   0  0  0  0  0  0  0  0  0  0  0  0
   37.2500   27.1490   43.3860 N   0  0  0  0  0  0  0  0  0  0  0  0
   37.1140   27.3850   42.0560 C   0  0  0  0  0  0  0  0  0  0  0  0
   37.0550   26.4890   41.0280 C   0  0  0  0  0  0  0  0  0  0  0  0
   36.8640   26.2900   38.9190 H   0  0  0  0  0  0  0  0  0  0  0  0
   36.8370   30.2630   40.4300 H   0  0  0  0  0  0  0  0  0  0  0  0
   37.0980   30.3350   43.2160 H   0  0  0  0  0  0  0  0  0  0  0  0
   37.3560   28.5070   45.1180 H   0  0  0  0  0  0  0  0  0  0  0  0
   36.9570   30.5320   36.5860 C   0  0  0  0  0  0  0  0  0  0  0  0
   36.3820   29.7590   35.5850 C   0  0  0  0  0  0  0  0  0  0  0  0
   35.9580   28.4820   35.9430 C   0  0  0  0  0  0  0  0  0  0  0  0
   36.1190   28.0530   37.2240 N   0  0  0  0  0  0  0  0  0  0  0  0
   36.6820   28.8450   38.1490 C   0  0  0  0  0  0  0  0  0  0  0  0
   37.1000   30.0690   37.8460 N   0  0  0  0  0  0  0  0  0  0  0  0
   37.3080   31.5450   36.3550 H   0  0  0  0  0  0  0  0  0  0  0  0
   35.5100   27.8770   35.1660 H   0  0  0  0  0  0  0  0  0  0  0  0
   36.2640   30.3430   34.2260 C   0  0  0  0  0  0  0  0  0  0  0  0
   36.8680   31.5850   34.3110 F   0  0  0  0  0  0  0  0  0  0  0  0
   34.9490   30.4750   33.9200 F   0  0  0  0  0  0  0  0  0  0  0  0
   36.9180   29.4880   33.3300 F   0  0  0  0  0  0  0  0  0  0  0  0
   37.1370   25.1210   41.2770 O   0  0  0  0  0  0  0  0  0  0  0  0
   39.3540   24.6010   40.0620 O   0  0  0  0  0  0  0  0  0  0  0  0
   38.5780   24.2320   41.3210 P   0  0  2  0  0  0  0  0  0  0  0  0
   38.1680   22.5800   41.1850 O   0  0  0  0  0  0  0  0  0  0  0  0
   37.9720   22.3590   40.2370 H   0  0  0  0  0  0  0  0  0  0  0  0
   39.5020   24.4920   42.6860 O   0  0  0  0  0  0  0  0  0  0  0  0
   39.9150   25.8160   44.5070 H   0  0  0  0  0  0  0  0  0  0  0  0
   40.2140   26.4130   43.7040 N   0  0  0  0  0  0  0  0  0  0  0  0
   40.3830   25.5760   42.5550 C   0  0  1  0  0  3  0  0  0  0  0  0
   41.7710   24.9870   42.5570 C   0  0  0  0  0  3  0  0  0  0  0  0
   41.9330   24.3270   41.6770 H   0  0  0  0  0  0  0  0  0  0  0  0
   42.7480   26.0070   42.4970 O   0  0  0  0  0  0  0  0  0  0  0  0
   42.6770   26.6370   43.7350 C   0  0  0  0  0  2  0  0  0  0  0  0
   41.3400   27.2260   44.0480 C   0  0  0  0  0  2  0  0  0  0  0  0
  1  9  1  0  0  0  0
  2  1  2  0  0  0  0
  2  3  1  0  0  0  0
  3  4  2  0  0  0  0
  4  8  1  0  0  0  0
  4  5  1  0  0  0  0
  5 12  1  0  0  0  0
  5  6  1  0  0  0  0
  6 13  1  0  0  0  0
  7  6  2  0  0  0  0
  8  7  1  0  0  0  0
  9 26  1  0  0  0  0
  9  8  2  0  0  0  0
 10  1  1  0  0  0  0
 11  3  1  0  0  0  0
 14 19  1  0  0  0  0
 15 16  1  0  0  0  0
 15 14  2  0  0  0  0
 16 17  2  0  0  0  0
 17 18  1  0  0  0  0
 18  2  1  0  0  0  0
 19 18  2  0  0  0  0
 20 14  1  0  0  0  0
 21 16  1  0  0  0  0
 22 23  1  0  0  0  0
 22 15  1  0  0  0  0
 24 22  1  0  0  0  0
 25 22  1  0  0  0  0
 26 28  1  0  0  0  0
 28 27  2  6  0  0  0
 28 31  1  0  0  0  0
 29 28  1  0  0  0  0
 30 29  1  0  0  0  0
 33 39  1  0  0  0  0
 33 32  1  0  0  0  0
 34 35  1  0  0  0  0
 34 31  1  1  0  0  0
 34 33  1  0  0  0  0
 36 35  1  0  0  0  0
 37 35  1  0  0  0  0
 37 38  1  0  0  0  0
 38 39  1  0  0  0  0
M  END
>  <minimizedAffinity>
-6.03700018

$$$$

 OpenBabel03242513433D

 39 42  0  0  1  0  0  0  0  0999 V2000
   37.9240   28.5450   41.4010 C   0  0  0  0  0  0  0  0  0  0  0  0
   37.1680   27.5500   40.8170 C   0  0  0  0  0  0  0  0  0  0  0  0
   37.4430   26.2430   41.1620 C   0  0  0  0  0  0  0  0  0  0  0  0
   38.4330   25.9030   42.0580 C   0  0  0  0  0  0  0  0  0  0  0  0
   38.9400   24.7670   42.5930 N   0  0  0  0  0  0  0  0  0  0  0  0
   39.9470   25.0580   43.4550 C   0  0  0  0  0  0  0  0  0  0  0  0
   40.0640   26.3940   43.4520 N   0  0  0  0  0  0  0  0  0  0  0  0
   39.1490   26.9340   42.6060 C   0  0  0  0  0  0  0  0  0  0  0  0
   38.9270   28.2470   42.3070 C   0  0  0  0  0  0  0  0  0  0  0  0
   37.7350   29.5780   41.1540 H   0  0  0  0  0  0  0  0  0  0  0  0
   36.8660   25.4400   40.7190 H   0  0  0  0  0  0  0  0  0  0  0  0
   38.5280   23.8400   42.3050 H   0  0  0  0  0  0  0  0  0  0  0  0
   40.5060   24.3080   44.0050 H   0  0  0  0  0  0  0  0  0  0  0  0
   35.0430   27.5190   37.8480 C   0  0  0  0  0  0  0  0  0  0  0  0
   34.1240   28.5290   38.1070 C   0  0  0  0  0  0  0  0  0  0  0  0
   34.2610   29.2080   39.3140 C   0  0  0  0  0  0  0  0  0  0  0  0
   35.2600   28.8660   40.1710 N   0  0  0  0  0  0  0  0  0  0  0  0
   36.1180   27.8800   39.8680 C   0  0  0  0  0  0  0  0  0  0  0  0
   36.0200   27.2080   38.7260 N   0  0  0  0  0  0  0  0  0  0  0  0
   34.9780   26.9540   36.9110 H   0  0  0  0  0  0  0  0  0  0  0  0
   33.5470   29.9960   39.5180 H   0  0  0  0  0  0  0  0  0  0  0  0
   33.0800   28.8070   37.0890 C   0  0  0  0  0  0  0  0  0  0  0  0
   33.7140   29.5550   36.1130 F   0  0  0  0  0  0  0  0  0  0  0  0
   32.0860   29.5260   37.6680 F   0  0  0  0  0  0  0  0  0  0  0  0
   32.6120   27.5790   36.6050 F   0  0  0  0  0  0  0  0  0  0  0  0
   39.6940   29.2470   42.9010 O   0  0  0  0  0  0  0  0  0  0  0  0
   41.9840   29.4150   41.7220 O   0  0  0  0  0  0  0  0  0  0  0  0
   40.7650   30.2620   42.0730 P   0  0  2  0  0  0  0  0  0  0  0  0
   41.2930   31.4600   43.1700 O   0  0  0  0  0  0  0  0  0  0  0  0
   41.9920   31.0830   43.7670 H   0  0  0  0  0  0  0  0  0  0  0  0
   40.1210   30.9700   40.7050 O   0  0  0  0  0  0  0  0  0  0  0  0
   40.6650   33.1770   40.4350 H   0  0  0  0  0  0  0  0  0  0  0  0
   39.8320   33.2110   41.0650 N   0  0  0  0  0  0  0  0  0  0  0  0
   39.1600   31.9490   40.9950 C   0  0  1  0  0  3  0  0  0  0  0  0
   38.2030   31.9490   39.8280 C   0  0  0  0  0  3  0  0  0  0  0  0
   37.6660   30.9800   39.7440 H   0  0  0  0  0  0  0  0  0  0  0  0
   37.2230   32.9560   39.9850 O   0  0  0  0  0  0  0  0  0  0  0  0
   37.9140   34.1520   39.8200 C   0  0  0  0  0  2  0  0  0  0  0  0
   39.0230   34.3590   40.7990 C   0  0  0  0  0  2  0  0  0  0  0  0
  1  9  1  0  0  0  0
  2  3  1  0  0  0  0
  2  1  2  0  0  0  0
  3  4  2  0  0  0  0
  4  5  1  0  0  0  0
  4  8  1  0  0  0  0
  5  6  1  0  0  0  0
  6 13  1  0  0  0  0
  7  6  2  0  0  0  0
  8  7  1  0  0  0  0
  9  8  2  0  0  0  0
  9 26  1  0  0  0  0
 10  1  1  0  0  0  0
 11  3  1  0  0  0  0
 12  5  1  0  0  0  0
 14 15  2  0  0  0  0
 14 19  1  0  0  0  0
 15 16  1  0  0  0  0
 16 21  1  0  0  0  0
 16 17  2  0  0  0  0
 18 17  1  0  0  0  0
 18  2  1  0  0  0  0
 19 18  2  0  0  0  0
 20 14  1  0  0  0  0
 22 24  1  0  0  0  0
 22 15  1  0  0  0  0
 23 22  1  0  0  0  0
 25 22  1  0  0  0  0
 28 27  2  6  0  0  0
 28 26  1  0  0  0  0
 28 29  1  0  0  0  0
 29 30  1  0  0  0  0
 31 28  1  0  0  0  0
 32 33  1  0  0  0  0
 34 31  1  6  0  0  0
 34 33  1  0  0  0  0
 35 37  1  0  0  0  0
 35 34  1  0  0  0  0
 36 35  1  0  0  0  0
 38 37  1  0  0  0  0
 38 39  1  0  0  0  0
 39 33  1  0  0  0  0
M  END
>  <minimizedAffinity>
-5.95141983

$$$$

 OpenBabel03242513433D

 39 42  0  0  1  0  0  0  0  0999 V2000
   37.5970   27.8590   39.1530 C   0  0  0  0  0  0  0  0  0  0  0  0
   36.8410   27.4880   38.0620 C   0  0  0  0  0  0  0  0  0  0  0  0
   36.2200   26.2560   38.0950 C   0  0  0  0  0  0  0  0  0  0  0  0
   36.3290   25.3960   39.1660 C   0  0  0  0  0  0  0  0  0  0  0  0
   35.8690   24.1690   39.5050 N   0  0  0  0  0  0  0  0  0  0  0  0
   36.3210   23.8170   40.7360 C   0  0  0  0  0  0  0  0  0  0  0  0
   37.0730   24.8420   41.1620 N   0  0  0  0  0  0  0  0  0  0  0  0
   37.0930   25.8210   40.2210 C   0  0  0  0  0  0  0  0  0  0  0  0
   37.7320   27.0250   40.2510 C   0  0  0  0  0  0  0  0  0  0  0  0
   38.0960   28.8150   39.1610 H   0  0  0  0  0  0  0  0  0  0  0  0
   35.6190   25.9360   37.2520 H   0  0  0  0  0  0  0  0  0  0  0  0
   35.2500   23.6520   38.8260 H   0  0  0  0  0  0  0  0  0  0  0  0
   36.0830   22.8740   41.2190 H   0  0  0  0  0  0  0  0  0  0  0  0
   36.2330   28.7100   34.6760 C   0  0  0  0  0  0  0  0  0  0  0  0
   36.4690   30.0750   34.7860 C   0  0  0  0  0  0  0  0  0  0  0  0
   36.8380   30.5500   36.0410 C   0  0  0  0  0  0  0  0  0  0  0  0
   36.9490   29.6830   37.0830 N   0  0  0  0  0  0  0  0  0  0  0  0
   36.7080   28.3740   36.9180 C   0  0  0  0  0  0  0  0  0  0  0  0
   36.3540   27.8820   35.7350 N   0  0  0  0  0  0  0  0  0  0  0  0
   35.9400   28.2870   33.7080 H   0  0  0  0  0  0  0  0  0  0  0  0
   37.0220   31.6120   36.1300 H   0  0  0  0  0  0  0  0  0  0  0  0
   36.3130   30.9160   33.5720 C   0  0  0  0  0  0  0  0  0  0  0  0
   36.6580   30.0930   32.5140 F   0  0  0  0  0  0  0  0  0  0  0  0
   37.1670   31.9660   33.6550 F   0  0  0  0  0  0  0  0  0  0  0  0
   34.9800   31.3400   33.5090 F   0  0  0  0  0  0  0  0  0  0  0  0
   38.4950   27.3940   41.3570 O   0  0  0  0  0  0  0  0  0  0  0  0
   38.2450   27.5480   43.9210 O   0  0  0  0  0  0  0  0  0  0  0  0
   37.9310   28.3300   42.6500 P   0  0  2  0  0  0  0  0  0  0  0  0
   36.2290   28.4100   42.5240 O   0  0  0  0  0  0  0  0  0  0  0  0
   35.8280   27.5660   42.8600 H   0  0  0  0  0  0  0  0  0  0  0  0
   38.5820   29.8650   42.7220 O   0  0  0  0  0  0  0  0  0  0  0  0
   36.7620   31.0610   42.0150 H   0  0  0  0  0  0  0  0  0  0  0  0
   37.2910   30.8860   41.1320 N   0  0  0  0  0  0  0  0  0  0  0  0
   38.6270   30.5010   41.4720 C   0  0  1  0  0  3  0  0  0  0  0  0
   39.4750   31.7340   41.6650 C   0  0  0  0  0  3  0  0  0  0  0  0
   40.5210   31.4700   41.9340 H   0  0  0  0  0  0  0  0  0  0  0  0
   39.5320   32.4930   40.4740 O   0  0  0  0  0  0  0  0  0  0  0  0
   38.2520   33.0170   40.3260 C   0  0  0  0  0  2  0  0  0  0  0  0
   37.1750   31.9860   40.2260 C   0  0  0  0  0  2  0  0  0  0  0  0
  1 10  1  0  0  0  0
  1  9  1  0  0  0  0
  2  3  1  0  0  0  0
  2  1  2  0  0  0  0
  3  4  2  0  0  0  0
  4  5  1  0  0  0  0
  4  8  1  0  0  0  0
  5  6  1  0  0  0  0
  6  7  2  0  0  0  0
  6 13  1  0  0  0  0
  8  9  2  0  0  0  0
  8  7  1  0  0  0  0
  9 26  1  0  0  0  0
 11  3  1  0  0  0  0
 12  5  1  0  0  0  0
 14 15  2  0  0  0  0
 14 19  1  0  0  0  0
 15 16  1  0  0  0  0
 16 21  1  0  0  0  0
 16 17  2  0  0  0  0
 18 17  1  0  0  0  0
 18  2  1  0  0  0  0
 19 18  2  0  0  0  0
 20 14  1  0  0  0  0
 22 24  1  0  0  0  0
 22 15  1  0  0  0  0
 23 22  1  0  0  0  0
 25 22  1  0  0  0  0
 26 28  1  0  0  0  0
 28 31  1  0  0  0  0
 28 27  2  1  0  0  0
 29 28  1  0  0  0  0
 29 30  1  0  0  0  0
 33 34  1  0  0  0  0
 33 32  1  0  0  0  0
 34 35  1  0  0  0  0
 34 31  1  1  0  0  0
 35 36  1  0  0  0  0
 37 35  1  0  0  0  0
 38 37  1  0  0  0  0
 39 38  1  0  0  0  0
 39 33  1  0  0  0  0
M  END
>  <minimizedAffinity>
-5.8007102

$$$$

 OpenBabel03242513433D

 39 42  0  0  1  0  0  0  0  0999 V2000
   39.5410   30.4160   39.2580 C   0  0  0  0  0  0  0  0  0  0  0  0
   38.8970   30.1670   40.4520 C   0  0  0  0  0  0  0  0  0  0  0  0
   38.5820   31.2460   41.2530 C   0  0  0  0  0  0  0  0  0  0  0  0
   38.8830   32.5440   40.9050 C   0  0  0  0  0  0  0  0  0  0  0  0
   38.7210   33.7780   41.4380 N   0  0  0  0  0  0  0  0  0  0  0  0
   39.2380   34.7230   40.6110 C   0  0  0  0  0  0  0  0  0  0  0  0
   39.7270   34.0620   39.5520 N   0  0  0  0  0  0  0  0  0  0  0  0
   39.5220   32.7280   39.7070 C   0  0  0  0  0  0  0  0  0  0  0  0
   39.8620   31.7060   38.8700 C   0  0  0  0  0  0  0  0  0  0  0  0
   39.8020   29.5960   38.6080 H   0  0  0  0  0  0  0  0  0  0  0  0
   38.0760   31.0820   42.1970 H   0  0  0  0  0  0  0  0  0  0  0  0
   38.2440   33.8700   42.3740 H   0  0  0  0  0  0  0  0  0  0  0  0
   39.2250   35.7860   40.8270 H   0  0  0  0  0  0  0  0  0  0  0  0
   39.2080   26.6240   41.2770 C   0  0  0  0  0  0  0  0  0  0  0  0
   37.9050   26.2580   41.5920 C   0  0  0  0  0  0  0  0  0  0  0  0
   36.9350   27.2540   41.5110 C   0  0  0  0  0  0  0  0  0  0  0  0
   37.2910   28.5120   41.1380 N   0  0  0  0  0  0  0  0  0  0  0  0
   38.5670   28.8080   40.8460 C   0  0  0  0  0  0  0  0  0  0  0  0
   39.5210   27.8850   40.9110 N   0  0  0  0  0  0  0  0  0  0  0  0
   40.0080   25.8770   41.3260 H   0  0  0  0  0  0  0  0  0  0  0  0
   35.9200   26.9710   41.7560 H   0  0  0  0  0  0  0  0  0  0  0  0
   37.6460   24.8500   41.9860 C   0  0  0  0  0  0  0  0  0  0  0  0
   38.6730   24.5210   42.8530 F   0  0  0  0  0  0  0  0  0  0  0  0
   37.6940   24.0710   40.8770 F   0  0  0  0  0  0  0  0  0  0  0  0
   36.3890   24.7980   42.5990 F   0  0  0  0  0  0  0  0  0  0  0  0
   40.5110   31.9640   37.6650 O   0  0  0  0  0  0  0  0  0  0  0  0
   42.6910   33.1180   36.9050 O   0  0  0  0  0  0  0  0  0  0  0  0
   42.1730   31.7730   37.4040 P   0  0  2  0  0  0  0  0  0  0  0  0
   42.3690   30.6600   36.1230 O   0  0  0  0  0  0  0  0  0  0  0  0
   42.2070   31.1160   35.2550 H   0  0  0  0  0  0  0  0  0  0  0  0
   43.0250   31.2700   38.7470 O   0  0  0  0  0  0  0  0  0  0  0  0
   41.8660   32.8970   39.8640 H   0  0  0  0  0  0  0  0  0  0  0  0
   42.7970   33.3390   39.6980 N   0  0  0  0  0  0  0  0  0  0  0  0
   43.7350   32.3090   39.3690 C   0  0  1  0  0  3  0  0  0  0  0  0
   44.3070   31.7210   40.6350 C   0  0  0  0  0  3  0  0  0  0  0  0
   45.0380   30.9130   40.4140 H   0  0  0  0  0  0  0  0  0  0  0  0
   44.9910   32.7080   41.3800 O   0  0  0  0  0  0  0  0  0  0  0  0
   43.9900   33.5510   41.8530 C   0  0  0  0  0  2  0  0  0  0  0  0
   43.1720   34.1940   40.7810 C   0  0  0  0  0  2  0  0  0  0  0  0
  1  2  1  0  0  0  0
  2 18  1  0  0  0  0
  2  3  2  0  0  0  0
  3 11  1  0  0  0  0
  4  3  1  0  0  0  0
  4  5  1  0  0  0  0
  5 12  1  0  0  0  0
  6 13  1  0  0  0  0
  6  5  1  0  0  0  0
  7  8  1  0  0  0  0
  7  6  2  0  0  0  0
  8  4  2  0  0  0  0
  9  1  2  0  0  0  0
  9  8  1  0  0  0  0
 10  1  1  0  0  0  0
 14 20  1  0  0  0  0
 14 15  1  0  0  0  0
 15 22  1  0  0  0  0
 16 15  2  0  0  0  0
 16 21  1  0  0  0  0
 17 16  1  0  0  0  0
 18 19  1  0  0  0  0
 18 17  2  0  0  0  0
 19 14  2  0  0  0  0
 22 25  1  0  0  0  0
 22 23  1  0  0  0  0
 24 22  1  0  0  0  0
 26  9  1  0  0  0  0
 28 27  2  6  0  0  0
 28 26  1  0  0  0  0
 28 31  1  0  0  0  0
 29 28  1  0  0  0  0
 30 29  1  0  0  0  0
 33 32  1  0  0  0  0
 33 39  1  0  0  0  0
 34 31  1  1  0  0  0
 34 33  1  0  0  0  0
 34 35  1  0  0  0  0
 35 37  1  0  0  0  0
 36 35  1  0  0  0  0
 37 38  1  0  0  0  0
 39 38  1  0  0  0  0
M  END
>  <minimizedAffinity>
-5.76438427

$$$$
