
 OpenBabel03252506303D

 46 50  0  0  0  0  0  0  0  0999 V2000
   35.6610   29.4180   37.4570 C   0  0  0  0  0  0  0  0  0  0  0  0
   35.8620   28.4800   36.8960 H   0  0  0  0  0  0  0  0  0  0  0  0
   35.0560   30.0450   36.7900 H   0  0  0  0  0  0  0  0  0  0  0  0
   38.3110   31.5790   38.5010 C   0  0  0  0  0  0  0  0  0  0  0  0
   39.0220   30.5160   37.9170 C   0  0  0  0  0  0  0  0  0  0  0  0
   38.1330   29.6050   37.4700 C   0  0  0  0  0  0  0  0  0  0  0  0
   36.9230   30.0760   37.7600 N   0  0  0  0  0  0  0  0  0  0  0  0
   37.0050   31.2610   38.3800 N   0  0  0  0  0  0  0  0  0  0  0  0
   40.0960   30.3860   37.8130 H   0  0  0  0  0  0  0  0  0  0  0  0
   38.3360   28.6750   36.9750 H   0  0  0  0  0  0  0  0  0  0  0  0
   38.7120   34.6880   40.3760 C   0  0  0  0  0  0  0  0  0  0  0  0
   40.0560   34.9850   40.2380 C   0  0  0  0  0  0  0  0  0  0  0  0
   40.8220   34.0920   39.4870 C   0  0  0  0  0  0  0  0  0  0  0  0
   40.2160   33.0210   38.9530 N   0  0  0  0  0  0  0  0  0  0  0  0
   38.9230   32.7470   39.0940 C   0  0  0  0  0  0  0  0  0  0  0  0
   38.1690   33.6040   39.8210 N   0  0  0  0  0  0  0  0  0  0  0  0
   38.0960   35.3640   40.9550 H   0  0  0  0  0  0  0  0  0  0  0  0
   40.5490   35.8270   40.6530 H   0  0  0  0  0  0  0  0  0  0  0  0
   42.2170   34.2340   39.2380 N   0  0  0  0  0  0  0  0  0  0  0  0
   43.2200   34.1580   40.3010 C   0  0  0  0  0  3  0  0  0  0  0  0
   43.8550   35.0570   40.3550 H   0  0  0  0  0  0  0  0  0  0  0  0
   44.0520   32.9320   40.0140 C   0  0  0  0  0  3  0  0  0  0  0  0
   43.4770   32.0620   40.4420 H   0  0  0  0  0  0  0  0  0  0  0  0
   44.2090   32.6570   38.6760 O   0  0  0  0  0  0  0  0  0  0  0  0
   44.1290   33.7830   37.8690 C   0  0  0  0  0  2  0  0  0  0  0  0
   42.7800   34.4650   37.9250 C   0  0  0  0  0  2  0  0  0  0  0  0
   34.9460   29.0620   38.7130 C   0  0  0  0  0  0  0  0  0  0  0  0
   34.0240   28.4860   38.4460 H   0  0  0  0  0  0  0  0  0  0  0  0
   34.5530   30.0170   39.1580 H   0  0  0  0  0  0  0  0  0  0  0  0
   36.3110   27.1250   39.6840 C   0  0  0  0  0  0  0  0  0  0  0  0
   35.7100   28.3710   39.7320 C   0  0  0  0  0  0  0  0  0  0  0  0
   35.8550   29.0710   40.9280 C   0  0  0  0  0  0  0  0  0  0  0  0
   36.5540   28.5510   41.9920 C   0  0  0  0  0  0  0  0  0  0  0  0
   36.8490   28.9880   43.2350 N   0  0  0  0  0  0  0  0  0  0  0  0
   37.5760   28.0930   43.9150 C   0  0  0  0  0  0  0  0  0  0  0  0
   37.7870   26.9880   43.0950 C   0  0  0  0  0  0  0  0  0  0  0  0
   37.1420   27.3180   41.9320 C   0  0  0  0  0  0  0  0  0  0  0  0
   37.0020   26.6210   40.7500 C   0  0  0  0  0  0  0  0  0  0  0  0
   36.1730   26.6110   38.7340 H   0  0  0  0  0  0  0  0  0  0  0  0
   35.4350   30.0540   41.0960 H   0  0  0  0  0  0  0  0  0  0  0  0
   36.5580   29.9070   43.6380 H   0  0  0  0  0  0  0  0  0  0  0  0
   37.9460   28.1880   44.9270 H   0  0  0  0  0  0  0  0  0  0  0  0
   38.3360   26.1080   43.3630 H   0  0  0  0  0  0  0  0  0  0  0  0
   37.6090   25.2960   40.6250 C   0  0  0  0  0  0  0  0  0  0  0  0
   37.0050   24.3420   40.0580 O   0  0  0  0  0  0  0  0  0  0  0  0
   38.6150   25.1070   41.0290 H   0  0  0  0  0  0  0  0  0  0  0  0
  1  7  1  0  0  0  0
  1 27  1  0  0  0  0
  2  1  1  0  0  0  0
  3  1  1  0  0  0  0
  4 15  1  0  0  0  0
  5  4  1  0  0  0  0
  6  7  1  0  0  0  0
  6  5  2  0  0  0  0
  7  8  1  0  0  0  0
  8  4  2  0  0  0  0
  9  5  1  0  0  0  0
 10  6  1  0  0  0  0
 11 17  1  0  0  0  0
 12 11  1  0  0  0  0
 12 18  1  0  0  0  0
 13 12  2  0  0  0  0
 14 15  2  0  0  0  0
 14 13  1  0  0  0  0
 15 16  1  0  0  0  0
 16 11  2  0  0  0  0
 19 13  1  0  0  0  0
 19 20  1  0  0  0  0
 20 21  1  0  0  0  0
 22 20  1  0  0  0  0
 22 23  1  0  0  0  0
 24 22  1  0  0  0  0
 25 26  1  0  0  0  0
 25 24  1  0  0  0  0
 26 19  1  0  0  0  0
 27 29  1  0  0  0  0
 27 31  1  0  0  0  0
 28 27  1  0  0  0  0
 30 31  2  0  0  0  0
 30 38  1  0  0  0  0
 31 32  1  0  0  0  0
 32 40  1  0  0  0  0
 32 33  2  0  0  0  0
 33 34  1  0  0  0  0
 34 41  1  0  0  0  0
 34 35  1  0  0  0  0
 35 42  1  0  0  0  0
 36 43  1  0  0  0  0
 36 35  2  0  0  0  0
 37 33  1  0  0  0  0
 37 36  1  0  0  0  0
 38 37  2  0  0  0  0
 39 30  1  0  0  0  0
 44 38  1  0  0  0  0
 44 46  1  0  0  0  0
 45 44  2  0  0  0  0
M  END
>  <minimizedAffinity>
-6.80297136

$$$$

 OpenBabel03252506303D

 46 50  0  0  0  0  0  0  0  0999 V2000
   37.7010   28.6930   42.9000 C   0  0  0  0  0  0  0  0  0  0  0  0
   37.5880   29.0000   43.9620 H   0  0  0  0  0  0  0  0  0  0  0  0
   38.6830   28.2080   42.8290 H   0  0  0  0  0  0  0  0  0  0  0  0
   38.3470   31.6610   41.0140 C   0  0  0  0  0  0  0  0  0  0  0  0
   36.9890   31.4330   40.7320 C   0  0  0  0  0  0  0  0  0  0  0  0
   36.5990   30.3210   41.3900 C   0  0  0  0  0  0  0  0  0  0  0  0
   37.6630   29.8750   42.0520 N   0  0  0  0  0  0  0  0  0  0  0  0
   38.7250   30.6650   41.8420 N   0  0  0  0  0  0  0  0  0  0  0  0
   36.3130   32.0080   40.1030 H   0  0  0  0  0  0  0  0  0  0  0  0
   35.6280   29.8650   41.3930 H   0  0  0  0  0  0  0  0  0  0  0  0
   39.6560   35.0360   40.5280 C   0  0  0  0  0  0  0  0  0  0  0  0
   40.5760   34.8890   39.5060 C   0  0  0  0  0  0  0  0  0  0  0  0
   40.7380   33.6030   38.9880 C   0  0  0  0  0  0  0  0  0  0  0  0
   40.0010   32.6080   39.5040 N   0  0  0  0  0  0  0  0  0  0  0  0
   39.1200   32.7640   40.4870 C   0  0  0  0  0  0  0  0  0  0  0  0
   38.9540   34.0050   40.9990 N   0  0  0  0  0  0  0  0  0  0  0  0
   39.5120   36.0230   40.9480 H   0  0  0  0  0  0  0  0  0  0  0  0
   41.1660   35.6650   39.0880 H   0  0  0  0  0  0  0  0  0  0  0  0
   41.6360   33.2610   37.9360 N   0  0  0  0  0  0  0  0  0  0  0  0
   42.6680   34.1790   37.4510 C   0  0  0  0  0  3  0  0  0  0  0  0
   42.5910   34.3760   36.3700 H   0  0  0  0  0  0  0  0  0  0  0  0
   43.9950   33.5410   37.7860 C   0  0  0  0  0  3  0  0  0  0  0  0
   44.2050   33.8120   38.8600 H   0  0  0  0  0  0  0  0  0  0  0  0
   43.9890   32.1670   37.7390 O   0  0  0  0  0  0  0  0  0  0  0  0
   43.0450   31.6500   36.8630 C   0  0  0  0  0  2  0  0  0  0  0  0
   41.6210   31.9890   37.2480 C   0  0  0  0  0  2  0  0  0  0  0  0
   36.5810   27.7730   42.5610 C   0  0  0  0  0  0  0  0  0  0  0  0
   35.6970   28.3870   42.2550 H   0  0  0  0  0  0  0  0  0  0  0  0
   36.2530   27.2780   43.5160 H   0  0  0  0  0  0  0  0  0  0  0  0
   36.7360   26.7750   40.2080 C   0  0  0  0  0  0  0  0  0  0  0  0
   36.8530   26.7360   41.5870 C   0  0  0  0  0  0  0  0  0  0  0  0
   37.2980   25.5300   42.1260 C   0  0  0  0  0  0  0  0  0  0  0  0
   37.6000   24.4490   41.3320 C   0  0  0  0  0  0  0  0  0  0  0  0
   38.0380   23.1930   41.5690 N   0  0  0  0  0  0  0  0  0  0  0  0
   38.1840   22.4990   40.4350 C   0  0  0  0  0  0  0  0  0  0  0  0
   37.8280   23.3200   39.3680 C   0  0  0  0  0  0  0  0  0  0  0  0
   37.4780   24.5010   39.9710 C   0  0  0  0  0  0  0  0  0  0  0  0
   37.0390   25.6920   39.4320 C   0  0  0  0  0  0  0  0  0  0  0  0
   36.3850   27.7330   39.8280 H   0  0  0  0  0  0  0  0  0  0  0  0
   37.4340   25.3680   43.1870 H   0  0  0  0  0  0  0  0  0  0  0  0
   38.2440   22.7930   42.5110 H   0  0  0  0  0  0  0  0  0  0  0  0
   38.5200   21.4740   40.3370 H   0  0  0  0  0  0  0  0  0  0  0  0
   37.8420   23.0420   38.3340 H   0  0  0  0  0  0  0  0  0  0  0  0
   36.8890   25.8080   37.9810 C   0  0  0  0  0  0  0  0  0  0  0  0
   36.4810   26.8750   37.4420 O   0  0  0  0  0  0  0  0  0  0  0  0
   37.1330   24.9560   37.3290 H   0  0  0  0  0  0  0  0  0  0  0  0
  1  2  1  0  0  0  0
  3  1  1  0  0  0  0
  4  8  2  0  0  0  0
  5  4  1  0  0  0  0
  5  6  2  0  0  0  0
  6 10  1  0  0  0  0
  6  7  1  0  0  0  0
  7  1  1  0  0  0  0
  8  7  1  0  0  0  0
  9  5  1  0  0  0  0
 11 17  1  0  0  0  0
 11 16  1  0  0  0  0
 12 11  2  0  0  0  0
 13 14  2  0  0  0  0
 13 12  1  0  0  0  0
 14 15  1  0  0  0  0
 15 16  2  0  0  0  0
 15  4  1  0  0  0  0
 18 12  1  0  0  0  0
 19 13  1  0  0  0  0
 20 22  1  0  0  0  0
 20 19  1  0  0  0  0
 21 20  1  0  0  0  0
 22 23  1  0  0  0  0
 24 22  1  0  0  0  0
 25 26  1  0  0  0  0
 25 24  1  0  0  0  0
 26 19  1  0  0  0  0
 27  1  1  0  0  0  0
 27 29  1  0  0  0  0
 28 27  1  0  0  0  0
 30 31  1  0  0  0  0
 31 32  2  0  0  0  0
 31 27  1  0  0  0  0
 32 40  1  0  0  0  0
 33 34  1  0  0  0  0
 33 32  1  0  0  0  0
 34 41  1  0  0  0  0
 35 34  1  0  0  0  0
 36 37  1  0  0  0  0
 36 35  2  0  0  0  0
 37 33  2  0  0  0  0
 38 37  1  0  0  0  0
 38 30  2  0  0  0  0
 39 30  1  0  0  0  0
 42 35  1  0  0  0  0
 43 36  1  0  0  0  0
 44 38  1  0  0  0  0
 45 44  2  0  0  0  0
 46 44  1  0  0  0  0
M  END
>  <minimizedAffinity>
-6.69454145

$$$$

 OpenBabel03252506303D

 46 50  0  0  0  0  0  0  0  0999 V2000
   35.8020   28.8350   40.0160 C   0  0  0  0  0  0  0  0  0  0  0  0
   36.1300   27.8860   39.5400 H   0  0  0  0  0  0  0  0  0  0  0  0
   34.7260   28.9170   39.8170 H   0  0  0  0  0  0  0  0  0  0  0  0
   37.7460   31.7340   39.2400 C   0  0  0  0  0  0  0  0  0  0  0  0
   37.3140   31.3290   37.9650 C   0  0  0  0  0  0  0  0  0  0  0  0
   36.5540   30.2220   38.1050 C   0  0  0  0  0  0  0  0  0  0  0  0
   36.5130   29.9490   39.4060 N   0  0  0  0  0  0  0  0  0  0  0  0
   37.2210   30.8430   40.1080 N   0  0  0  0  0  0  0  0  0  0  0  0
   37.5200   31.7800   36.9980 H   0  0  0  0  0  0  0  0  0  0  0  0
   36.0690   29.6570   37.3340 H   0  0  0  0  0  0  0  0  0  0  0  0
   38.7880   35.0880   40.2400 C   0  0  0  0  0  0  0  0  0  0  0  0
   40.1500   35.0980   39.9950 C   0  0  0  0  0  0  0  0  0  0  0  0
   40.7010   33.9250   39.4780 C   0  0  0  0  0  0  0  0  0  0  0  0
   39.8900   32.8790   39.2550 N   0  0  0  0  0  0  0  0  0  0  0  0
   38.5830   32.8850   39.4960 C   0  0  0  0  0  0  0  0  0  0  0  0
   38.0350   34.0150   39.9970 N   0  0  0  0  0  0  0  0  0  0  0  0
   38.3350   35.9860   40.6420 H   0  0  0  0  0  0  0  0  0  0  0  0
   40.8030   35.9150   40.1660 H   0  0  0  0  0  0  0  0  0  0  0  0
   42.0800   33.7490   39.1640 N   0  0  0  0  0  0  0  0  0  0  0  0
   42.9350   32.7960   39.8730 C   0  0  0  0  0  3  0  0  0  0  0  0
   43.8230   33.2700   40.3210 H   0  0  0  0  0  0  0  0  0  0  0  0
   43.3390   31.7530   38.8590 C   0  0  0  0  0  3  0  0  0  0  0  0
   42.4870   31.0160   38.8190 H   0  0  0  0  0  0  0  0  0  0  0  0
   43.4810   32.2340   37.5800 O   0  0  0  0  0  0  0  0  0  0  0  0
   43.8220   33.5780   37.5310 C   0  0  0  0  0  2  0  0  0  0  0  0
   42.7670   34.4850   38.1260 C   0  0  0  0  0  2  0  0  0  0  0  0
   36.1110   28.7540   41.4700 C   0  0  0  0  0  0  0  0  0  0  0  0
   35.1480   28.7000   42.0360 H   0  0  0  0  0  0  0  0  0  0  0  0
   36.5530   29.7420   41.7750 H   0  0  0  0  0  0  0  0  0  0  0  0
   36.9080   26.3340   41.7350 C   0  0  0  0  0  0  0  0  0  0  0  0
   37.0180   27.7060   41.8920 C   0  0  0  0  0  0  0  0  0  0  0  0
   38.1630   28.1530   42.5480 C   0  0  0  0  0  0  0  0  0  0  0  0
   39.1210   27.2820   43.0090 C   0  0  0  0  0  0  0  0  0  0  0  0
   40.2970   27.4250   43.6600 N   0  0  0  0  0  0  0  0  0  0  0  0
   40.8780   26.2430   43.8950 C   0  0  0  0  0  0  0  0  0  0  0  0
   40.0600   25.2410   43.3790 C   0  0  0  0  0  0  0  0  0  0  0  0
   39.0000   25.9300   42.8490 C   0  0  0  0  0  0  0  0  0  0  0  0
   37.8680   25.4810   42.1990 C   0  0  0  0  0  0  0  0  0  0  0  0
   36.0000   26.0270   41.2190 H   0  0  0  0  0  0  0  0  0  0  0  0
   38.3710   29.1990   42.7340 H   0  0  0  0  0  0  0  0  0  0  0  0
   40.7170   28.3340   43.9540 H   0  0  0  0  0  0  0  0  0  0  0  0
   41.8210   26.0690   44.3980 H   0  0  0  0  0  0  0  0  0  0  0  0
   40.2620   24.1900   43.4150 H   0  0  0  0  0  0  0  0  0  0  0  0
   37.6830   24.0440   41.9980 C   0  0  0  0  0  0  0  0  0  0  0  0
   38.1290   23.4570   40.9720 O   0  0  0  0  0  0  0  0  0  0  0  0
   37.1450   23.4440   42.7470 H   0  0  0  0  0  0  0  0  0  0  0  0
  1 27  1  0  0  0  0
  2  1  1  0  0  0  0
  3  1  1  0  0  0  0
  4 15  1  0  0  0  0
  4  8  2  0  0  0  0
  5  6  2  0  0  0  0
  5  4  1  0  0  0  0
  6  7  1  0  0  0  0
  7  1  1  0  0  0  0
  7  8  1  0  0  0  0
  9  5  1  0  0  0  0
 10  6  1  0  0  0  0
 11 17  1  0  0  0  0
 12 18  1  0  0  0  0
 12 11  2  0  0  0  0
 13 12  1  0  0  0  0
 14 13  2  0  0  0  0
 14 15  1  0  0  0  0
 15 16  2  0  0  0  0
 16 11  1  0  0  0  0
 19 13  1  0  0  0  0
 19 20  1  0  0  0  0
 20 21  1  0  0  0  0
 22 20  1  0  0  0  0
 23 22  1  0  0  0  0
 24 22  1  0  0  0  0
 25 24  1  0  0  0  0
 25 26  1  0  0  0  0
 26 19  1  0  0  0  0
 27 29  1  0  0  0  0
 27 31  1  0  0  0  0
 27 28  1  0  0  0  0
 30 31  2  0  0  0  0
 30 38  1  0  0  0  0
 31 32  1  0  0  0  0
 32 40  1  0  0  0  0
 32 33  2  0  0  0  0
 33 34  1  0  0  0  0
 34 35  1  0  0  0  0
 34 41  1  0  0  0  0
 35 42  1  0  0  0  0
 36 43  1  0  0  0  0
 36 35  2  0  0  0  0
 37 33  1  0  0  0  0
 37 36  1  0  0  0  0
 38 37  2  0  0  0  0
 39 30  1  0  0  0  0
 44 38  1  0  0  0  0
 44 46  1  0  0  0  0
 45 44  2  0  0  0  0
M  END
>  <minimizedAffinity>
-6.60419846

$$$$

 OpenBabel03252506303D

 46 50  0  0  0  0  0  0  0  0999 V2000
   37.3650   33.3190   39.9170 C   0  0  0  0  0  0  0  0  0  0  0  0
   36.6760   34.1310   39.5980 H   0  0  0  0  0  0  0  0  0  0  0  0
   37.1070   33.0960   40.9600 H   0  0  0  0  0  0  0  0  0  0  0  0
   40.8610   33.8160   39.3520 C   0  0  0  0  0  0  0  0  0  0  0  0
   40.5050   35.0070   40.0100 C   0  0  0  0  0  0  0  0  0  0  0  0
   39.1860   34.9600   40.2910 C   0  0  0  0  0  0  0  0  0  0  0  0
   38.7380   33.7950   39.8300 N   0  0  0  0  0  0  0  0  0  0  0  0
   39.7270   33.0900   39.2620 N   0  0  0  0  0  0  0  0  0  0  0  0
   41.1300   35.8560   40.2760 H   0  0  0  0  0  0  0  0  0  0  0  0
   38.5920   35.7030   40.7860 H   0  0  0  0  0  0  0  0  0  0  0  0
   44.4920   33.9070   38.9750 C   0  0  0  0  0  0  0  0  0  0  0  0
   44.7510   32.9240   38.0350 C   0  0  0  0  0  0  0  0  0  0  0  0
   43.6490   32.2300   37.5350 C   0  0  0  0  0  0  0  0  0  0  0  0
   42.4280   32.5540   37.9880 N   0  0  0  0  0  0  0  0  0  0  0  0
   42.1950   33.5000   38.8920 C   0  0  0  0  0  0  0  0  0  0  0  0
   43.2540   34.1810   39.3860 N   0  0  0  0  0  0  0  0  0  0  0  0
   45.3300   34.4590   39.3790 H   0  0  0  0  0  0  0  0  0  0  0  0
   45.7090   32.6570   37.6680 H   0  0  0  0  0  0  0  0  0  0  0  0
   43.7210   31.1890   36.5650 N   0  0  0  0  0  0  0  0  0  0  0  0
   44.9460   30.8830   35.8250 C   0  0  0  0  0  3  0  0  0  0  0  0
   44.8100   30.9310   34.7330 H   0  0  0  0  0  0  0  0  0  0  0  0
   45.3650   29.4980   36.2520 C   0  0  0  0  0  3  0  0  0  0  0  0
   45.9350   29.6300   37.2160 H   0  0  0  0  0  0  0  0  0  0  0  0
   44.3180   28.6570   36.5470 O   0  0  0  0  0  0  0  0  0  0  0  0
   43.1510   28.9720   35.8660 C   0  0  0  0  0  2  0  0  0  0  0  0
   42.6040   30.3390   36.2140 C   0  0  0  0  0  2  0  0  0  0  0  0
   37.1600   32.1550   39.0130 C   0  0  0  0  0  0  0  0  0  0  0  0
   37.9920   32.1340   38.2650 H   0  0  0  0  0  0  0  0  0  0  0  0
   36.2430   32.3660   38.3970 H   0  0  0  0  0  0  0  0  0  0  0  0
   36.6630   29.6430   39.0610 C   0  0  0  0  0  0  0  0  0  0  0  0
   36.9940   30.8580   39.6380 C   0  0  0  0  0  0  0  0  0  0  0  0
   37.2000   30.8430   41.0150 C   0  0  0  0  0  0  0  0  0  0  0  0
   37.0810   29.6890   41.7530 C   0  0  0  0  0  0  0  0  0  0  0  0
   37.2180   29.3830   43.0620 N   0  0  0  0  0  0  0  0  0  0  0  0
   36.9930   28.0840   43.2920 C   0  0  0  0  0  0  0  0  0  0  0  0
   36.6850   27.4710   42.0810 C   0  0  0  0  0  0  0  0  0  0  0  0
   36.7530   28.4950   41.1720 C   0  0  0  0  0  0  0  0  0  0  0  0
   36.5480   28.5050   39.8080 C   0  0  0  0  0  0  0  0  0  0  0  0
   36.5100   29.6990   37.9850 H   0  0  0  0  0  0  0  0  0  0  0  0
   37.4630   31.7230   41.5870 H   0  0  0  0  0  0  0  0  0  0  0  0
   37.4680   30.0590   43.8170 H   0  0  0  0  0  0  0  0  0  0  0  0
   37.0350   27.5750   44.2470 H   0  0  0  0  0  0  0  0  0  0  0  0
   36.4560   26.4330   41.9470 H   0  0  0  0  0  0  0  0  0  0  0  0
   36.1940   27.2570   39.1300 C   0  0  0  0  0  0  0  0  0  0  0  0
   35.2920   27.2180   38.2460 O   0  0  0  0  0  0  0  0  0  0  0  0
   36.7150   26.3220   39.3820 H   0  0  0  0  0  0  0  0  0  0  0  0
  1  3  1  0  0  0  0
  2  1  1  0  0  0  0
  4  5  1  0  0  0  0
  5  9  1  0  0  0  0
  5  6  2  0  0  0  0
  6 10  1  0  0  0  0
  7  1  1  0  0  0  0
  7  6  1  0  0  0  0
  8  4  2  0  0  0  0
  8  7  1  0  0  0  0
 11 17  1  0  0  0  0
 11 16  1  0  0  0  0
 12 11  2  0  0  0  0
 13 14  2  0  0  0  0
 13 12  1  0  0  0  0
 14 15  1  0  0  0  0
 15  4  1  0  0  0  0
 15 16  2  0  0  0  0
 18 12  1  0  0  0  0
 19 13  1  0  0  0  0
 20 22  1  0  0  0  0
 20 19  1  0  0  0  0
 21 20  1  0  0  0  0
 22 24  1  0  0  0  0
 22 23  1  0  0  0  0
 25 26  1  0  0  0  0
 25 24  1  0  0  0  0
 26 19  1  0  0  0  0
 27 31  1  0  0  0  0
 27  1  1  0  0  0  0
 28 27  1  0  0  0  0
 29 27  1  0  0  0  0
 30 31  2  0  0  0  0
 30 38  1  0  0  0  0
 31 32  1  0  0  0  0
 32 40  1  0  0  0  0
 32 33  2  0  0  0  0
 33 34  1  0  0  0  0
 34 35  1  0  0  0  0
 34 41  1  0  0  0  0
 35 42  1  0  0  0  0
 36 35  2  0  0  0  0
 37 33  1  0  0  0  0
 37 36  1  0  0  0  0
 38 37  2  0  0  0  0
 39 30  1  0  0  0  0
 43 36  1  0  0  0  0
 44 46  1  0  0  0  0
 44 38  1  0  0  0  0
 45 44  2  0  0  0  0
M  END
>  <minimizedAffinity>
-6.47063112

$$$$

 OpenBabel03252506303D

 46 50  0  0  0  0  0  0  0  0999 V2000
   35.4690   29.2820   38.9540 C   0  0  0  0  0  0  0  0  0  0  0  0
   34.6520   29.3620   38.2050 H   0  0  0  0  0  0  0  0  0  0  0  0
   35.0170   29.5360   39.9220 H   0  0  0  0  0  0  0  0  0  0  0  0
   37.9310   31.8740   38.8580 C   0  0  0  0  0  0  0  0  0  0  0  0
   38.0420   31.3250   37.5690 C   0  0  0  0  0  0  0  0  0  0  0  0
   37.1540   30.3150   37.4580 C   0  0  0  0  0  0  0  0  0  0  0  0
   36.5170   30.2360   38.6230 N   0  0  0  0  0  0  0  0  0  0  0  0
   36.9670   31.1620   39.4810 N   0  0  0  0  0  0  0  0  0  0  0  0
   38.7050   31.6140   36.7570 H   0  0  0  0  0  0  0  0  0  0  0  0
   36.9780   29.6850   36.6080 H   0  0  0  0  0  0  0  0  0  0  0  0
   38.8560   34.9530   40.5910 C   0  0  0  0  0  0  0  0  0  0  0  0
   40.2020   35.0990   40.3080 C   0  0  0  0  0  0  0  0  0  0  0  0
   40.7850   34.1140   39.5090 C   0  0  0  0  0  0  0  0  0  0  0  0
   40.0160   33.1060   39.0710 N   0  0  0  0  0  0  0  0  0  0  0  0
   38.7220   32.9780   39.3520 C   0  0  0  0  0  0  0  0  0  0  0  0
   38.1450   33.9250   40.1260 N   0  0  0  0  0  0  0  0  0  0  0  0
   38.3800   35.7030   41.2090 H   0  0  0  0  0  0  0  0  0  0  0  0
   40.8230   35.8890   40.6460 H   0  0  0  0  0  0  0  0  0  0  0  0
   42.1540   34.0980   39.1140 N   0  0  0  0  0  0  0  0  0  0  0  0
   43.2510   33.9830   40.0770 C   0  0  0  0  0  3  0  0  0  0  0  0
   43.9710   34.8140   40.0060 H   0  0  0  0  0  0  0  0  0  0  0  0
   43.9270   32.6630   39.7940 C   0  0  0  0  0  3  0  0  0  0  0  0
   43.3190   31.8830   40.3360 H   0  0  0  0  0  0  0  0  0  0  0  0
   43.9160   32.2950   38.4700 O   0  0  0  0  0  0  0  0  0  0  0  0
   43.8600   33.3740   37.5990 C   0  0  0  0  0  2  0  0  0  0  0  0
   42.5960   34.1930   37.7400 C   0  0  0  0  0  2  0  0  0  0  0  0
   35.9980   27.8920   38.9160 C   0  0  0  0  0  0  0  0  0  0  0  0
   36.6080   27.7690   37.9860 H   0  0  0  0  0  0  0  0  0  0  0  0
   35.1230   27.2030   38.7620 H   0  0  0  0  0  0  0  0  0  0  0  0
   36.6580   27.8740   41.3910 C   0  0  0  0  0  0  0  0  0  0  0  0
   36.7310   27.4350   40.0790 C   0  0  0  0  0  0  0  0  0  0  0  0
   37.6350   26.4040   39.8320 C   0  0  0  0  0  0  0  0  0  0  0  0
   38.4060   25.8600   40.8330 C   0  0  0  0  0  0  0  0  0  0  0  0
   39.3370   24.8830   40.8860 N   0  0  0  0  0  0  0  0  0  0  0  0
   39.8130   24.7200   42.1260 C   0  0  0  0  0  0  0  0  0  0  0  0
   39.1740   25.6310   42.9630 C   0  0  0  0  0  0  0  0  0  0  0  0
   38.3250   26.3040   42.1230 C   0  0  0  0  0  0  0  0  0  0  0  0
   37.4300   27.3240   42.3740 C   0  0  0  0  0  0  0  0  0  0  0  0
   35.9410   28.6790   41.5410 H   0  0  0  0  0  0  0  0  0  0  0  0
   37.7890   25.9700   38.8530 H   0  0  0  0  0  0  0  0  0  0  0  0
   39.6620   24.3140   40.0730 H   0  0  0  0  0  0  0  0  0  0  0  0
   40.5640   24.0100   42.4480 H   0  0  0  0  0  0  0  0  0  0  0  0
   39.3460   25.7390   44.0150 H   0  0  0  0  0  0  0  0  0  0  0  0
   37.3000   27.8400   43.7370 C   0  0  0  0  0  0  0  0  0  0  0  0
   36.2660   27.6230   44.4290 O   0  0  0  0  0  0  0  0  0  0  0  0
   38.1100   28.4330   44.1850 H   0  0  0  0  0  0  0  0  0  0  0  0
  1  3  1  0  0  0  0
  2  1  1  0  0  0  0
  4 15  1  0  0  0  0
  4  8  2  0  0  0  0
  5  4  1  0  0  0  0
  6  5  2  0  0  0  0
  6  7  1  0  0  0  0
  7  1  1  0  0  0  0
  7  8  1  0  0  0  0
  9  5  1  0  0  0  0
 10  6  1  0  0  0  0
 11 17  1  0  0  0  0
 12 11  1  0  0  0  0
 12 18  1  0  0  0  0
 13 12  2  0  0  0  0
 14 15  2  0  0  0  0
 14 13  1  0  0  0  0
 15 16  1  0  0  0  0
 16 11  2  0  0  0  0
 19 13  1  0  0  0  0
 19 20  1  0  0  0  0
 21 20  1  0  0  0  0
 22 20  1  0  0  0  0
 22 23  1  0  0  0  0
 24 22  1  0  0  0  0
 25 26  1  0  0  0  0
 25 24  1  0  0  0  0
 26 19  1  0  0  0  0
 27  1  1  0  0  0  0
 27 31  1  0  0  0  0
 28 27  1  0  0  0  0
 29 27  1  0  0  0  0
 30 39  1  0  0  0  0
 30 38  1  0  0  0  0
 31 30  2  0  0  0  0
 32 31  1  0  0  0  0
 32 33  2  0  0  0  0
 33 34  1  0  0  0  0
 33 37  1  0  0  0  0
 34 35  1  0  0  0  0
 35 42  1  0  0  0  0
 35 36  2  0  0  0  0
 36 43  1  0  0  0  0
 37 38  2  0  0  0  0
 37 36  1  0  0  0  0
 38 44  1  0  0  0  0
 40 32  1  0  0  0  0
 41 34  1  0  0  0  0
 44 46  1  0  0  0  0
 44 45  2  0  0  0  0
M  END
>  <minimizedAffinity>
-6.42087889

$$$$

 OpenBabel03252506303D

 46 50  0  0  0  0  0  0  0  0999 V2000
   37.1370   30.7310   37.8410 C   0  0  0  0  0  0  0  0  0  0  0  0
   37.8110   29.8730   37.6300 H   0  0  0  0  0  0  0  0  0  0  0  0
   36.8120   31.1070   36.8620 H   0  0  0  0  0  0  0  0  0  0  0  0
   39.5740   32.8660   39.3530 C   0  0  0  0  0  0  0  0  0  0  0  0
   38.3730   33.4940   39.7250 C   0  0  0  0  0  0  0  0  0  0  0  0
   37.3450   32.7840   39.2140 C   0  0  0  0  0  0  0  0  0  0  0  0
   37.8780   31.7600   38.5530 N   0  0  0  0  0  0  0  0  0  0  0  0
   39.2170   31.7880   38.6230 N   0  0  0  0  0  0  0  0  0  0  0  0
   38.2250   34.3950   40.3160 H   0  0  0  0  0  0  0  0  0  0  0  0
   36.2960   32.9860   39.3070 H   0  0  0  0  0  0  0  0  0  0  0  0
   42.2330   34.7440   41.0080 C   0  0  0  0  0  0  0  0  0  0  0  0
   43.3910   34.2550   40.4290 C   0  0  0  0  0  0  0  0  0  0  0  0
   43.2370   33.2650   39.4590 C   0  0  0  0  0  0  0  0  0  0  0  0
   41.9970   32.8570   39.1510 N   0  0  0  0  0  0  0  0  0  0  0  0
   40.8920   33.3360   39.7160 C   0  0  0  0  0  0  0  0  0  0  0  0
   41.0270   34.2950   40.6590 N   0  0  0  0  0  0  0  0  0  0  0  0
   42.3250   35.5120   41.7650 H   0  0  0  0  0  0  0  0  0  0  0  0
   44.3770   34.5670   40.6620 H   0  0  0  0  0  0  0  0  0  0  0  0
   44.3120   32.6460   38.7570 N   0  0  0  0  0  0  0  0  0  0  0  0
   44.6040   31.2160   38.8640 C   0  0  0  0  0  3  0  0  0  0  0  0
   45.6350   31.0140   39.1960 H   0  0  0  0  0  0  0  0  0  0  0  0
   44.3570   30.6280   37.4960 C   0  0  0  0  0  3  0  0  0  0  0  0
   43.2470   30.4360   37.4390 H   0  0  0  0  0  0  0  0  0  0  0  0
   44.6450   31.4790   36.4560 O   0  0  0  0  0  0  0  0  0  0  0  0
   45.6200   32.4170   36.7650 C   0  0  0  0  0  2  0  0  0  0  0  0
   45.2130   33.3580   37.8780 C   0  0  0  0  0  2  0  0  0  0  0  0
   36.0040   30.2370   38.6700 C   0  0  0  0  0  0  0  0  0  0  0  0
   35.1920   29.8820   37.9870 H   0  0  0  0  0  0  0  0  0  0  0  0
   35.5550   31.1280   39.1890 H   0  0  0  0  0  0  0  0  0  0  0  0
   36.4770   27.8710   39.5270 C   0  0  0  0  0  0  0  0  0  0  0  0
   36.3100   29.2380   39.6740 C   0  0  0  0  0  0  0  0  0  0  0  0
   36.4560   29.7340   40.9670 C   0  0  0  0  0  0  0  0  0  0  0  0
   36.7480   28.9120   42.0300 C   0  0  0  0  0  0  0  0  0  0  0  0
   36.9400   29.1080   43.3530 N   0  0  0  0  0  0  0  0  0  0  0  0
   37.2060   27.9610   43.9880 C   0  0  0  0  0  0  0  0  0  0  0  0
   37.1950   26.9290   43.0530 C   0  0  0  0  0  0  0  0  0  0  0  0
   36.9090   27.5640   41.8730 C   0  0  0  0  0  0  0  0  0  0  0  0
   36.7670   27.0670   40.5940 C   0  0  0  0  0  0  0  0  0  0  0  0
   36.3540   27.5240   38.5030 H   0  0  0  0  0  0  0  0  0  0  0  0
   36.3510   30.7820   41.2170 H   0  0  0  0  0  0  0  0  0  0  0  0
   36.8920   30.0300   43.8400 H   0  0  0  0  0  0  0  0  0  0  0  0
   37.4000   27.8310   45.0450 H   0  0  0  0  0  0  0  0  0  0  0  0
   37.3740   25.8940   43.2640 H   0  0  0  0  0  0  0  0  0  0  0  0
   36.9280   25.6310   40.3630 C   0  0  0  0  0  0  0  0  0  0  0  0
   37.2660   25.1780   39.2330 O   0  0  0  0  0  0  0  0  0  0  0  0
   36.7560   24.9150   41.1800 H   0  0  0  0  0  0  0  0  0  0  0  0
  1  7  1  0  0  0  0
  1 27  1  0  0  0  0
  2  1  1  0  0  0  0
  3  1  1  0  0  0  0
  4 15  1  0  0  0  0
  4  5  1  0  0  0  0
  5  9  1  0  0  0  0
  6 10  1  0  0  0  0
  6  5  2  0  0  0  0
  7  8  1  0  0  0  0
  7  6  1  0  0  0  0
  8  4  2  0  0  0  0
 11 17  1  0  0  0  0
 12 18  1  0  0  0  0
 12 11  2  0  0  0  0
 13 12  1  0  0  0  0
 14 13  2  0  0  0  0
 14 15  1  0  0  0  0
 15 16  2  0  0  0  0
 16 11  1  0  0  0  0
 19 20  1  0  0  0  0
 19 13  1  0  0  0  0
 20 21  1  0  0  0  0
 22 20  1  0  0  0  0
 23 22  1  0  0  0  0
 24 25  1  0  0  0  0
 24 22  1  0  0  0  0
 25 26  1  0  0  0  0
 26 19  1  0  0  0  0
 27 29  1  0  0  0  0
 27 31  1  0  0  0  0
 28 27  1  0  0  0  0
 30 31  2  0  0  0  0
 30 38  1  0  0  0  0
 31 32  1  0  0  0  0
 32 40  1  0  0  0  0
 32 33  2  0  0  0  0
 33 34  1  0  0  0  0
 34 41  1  0  0  0  0
 34 35  1  0  0  0  0
 35 42  1  0  0  0  0
 36 43  1  0  0  0  0
 36 35  2  0  0  0  0
 37 33  1  0  0  0  0
 37 36  1  0  0  0  0
 38 37  2  0  0  0  0
 39 30  1  0  0  0  0
 44 38  1  0  0  0  0
 44 46  1  0  0  0  0
 45 44  2  0  0  0  0
M  END
>  <minimizedAffinity>
-6.29863358

$$$$

 OpenBabel03252506303D

 46 50  0  0  0  0  0  0  0  0999 V2000
   37.8390   32.5410   39.1720 C   0  0  0  0  0  0  0  0  0  0  0  0
   38.3070   31.6600   38.6820 H   0  0  0  0  0  0  0  0  0  0  0  0
   37.2660   33.0530   38.3890 H   0  0  0  0  0  0  0  0  0  0  0  0
   40.8710   34.1090   40.2370 C   0  0  0  0  0  0  0  0  0  0  0  0
   39.9160   35.0950   40.5420 C   0  0  0  0  0  0  0  0  0  0  0  0
   38.6990   34.6330   40.1870 C   0  0  0  0  0  0  0  0  0  0  0  0
   38.8840   33.4160   39.6840 N   0  0  0  0  0  0  0  0  0  0  0  0
   40.1810   33.0790   39.7040 N   0  0  0  0  0  0  0  0  0  0  0  0
   40.0630   36.0770   40.9850 H   0  0  0  0  0  0  0  0  0  0  0  0
   37.7540   35.1310   40.2800 H   0  0  0  0  0  0  0  0  0  0  0  0
   44.0350   35.0880   41.7760 C   0  0  0  0  0  0  0  0  0  0  0  0
   44.9910   34.5130   40.9570 C   0  0  0  0  0  0  0  0  0  0  0  0
   44.5240   33.7810   39.8650 C   0  0  0  0  0  0  0  0  0  0  0  0
   43.1990   33.6830   39.6800 N   0  0  0  0  0  0  0  0  0  0  0  0
   42.2910   34.2410   40.4750 C   0  0  0  0  0  0  0  0  0  0  0  0
   42.7300   34.9530   41.5380 N   0  0  0  0  0  0  0  0  0  0  0  0
   44.3720   35.6610   42.6300 H   0  0  0  0  0  0  0  0  0  0  0  0
   46.0410   34.5810   41.0910 H   0  0  0  0  0  0  0  0  0  0  0  0
   45.3570   33.1210   38.9180 N   0  0  0  0  0  0  0  0  0  0  0  0
   45.7980   31.7350   39.0850 C   0  0  0  0  0  3  0  0  0  0  0  0
   46.8950   31.6300   39.0670 H   0  0  0  0  0  0  0  0  0  0  0  0
   45.1680   30.9500   37.9600 C   0  0  0  0  0  3  0  0  0  0  0  0
   44.1240   30.7000   38.3070 H   0  0  0  0  0  0  0  0  0  0  0  0
   45.0160   31.6580   36.7920 O   0  0  0  0  0  0  0  0  0  0  0  0
   45.9480   32.6750   36.6400 C   0  0  0  0  0  2  0  0  0  0  0  0
   45.8480   33.7430   37.7080 C   0  0  0  0  0  2  0  0  0  0  0  0
   36.9800   32.0500   40.2840 C   0  0  0  0  0  0  0  0  0  0  0  0
   35.9660   31.8170   39.8740 H   0  0  0  0  0  0  0  0  0  0  0  0
   36.8020   32.9160   40.9790 H   0  0  0  0  0  0  0  0  0  0  0  0
   38.7820   30.6860   41.4890 C   0  0  0  0  0  0  0  0  0  0  0  0
   37.4870   30.9420   41.0680 C   0  0  0  0  0  0  0  0  0  0  0  0
   36.5270   30.0080   41.4480 C   0  0  0  0  0  0  0  0  0  0  0  0
   36.8500   28.9000   42.1960 C   0  0  0  0  0  0  0  0  0  0  0  0
   36.1500   27.8570   42.6950 N   0  0  0  0  0  0  0  0  0  0  0  0
   36.9360   27.0140   43.3740 C   0  0  0  0  0  0  0  0  0  0  0  0
   38.2390   27.5030   43.3370 C   0  0  0  0  0  0  0  0  0  0  0  0
   38.1310   28.6570   42.6040 C   0  0  0  0  0  0  0  0  0  0  0  0
   39.0870   29.5800   42.2310 C   0  0  0  0  0  0  0  0  0  0  0  0
   39.5000   31.4380   41.1710 H   0  0  0  0  0  0  0  0  0  0  0  0
   35.4800   30.0900   41.1850 H   0  0  0  0  0  0  0  0  0  0  0  0
   35.1230   27.7080   42.5780 H   0  0  0  0  0  0  0  0  0  0  0  0
   36.6350   26.1020   43.8730 H   0  0  0  0  0  0  0  0  0  0  0  0
   39.0910   27.0430   43.7930 H   0  0  0  0  0  0  0  0  0  0  0  0
   40.4760   29.3740   42.6390 C   0  0  0  0  0  0  0  0  0  0  0  0
   41.3120   28.8110   41.8780 O   0  0  0  0  0  0  0  0  0  0  0  0
   40.8200   29.7110   43.6290 H   0  0  0  0  0  0  0  0  0  0  0  0
  1  7  1  0  0  0  0
  1 27  1  0  0  0  0
  2  1  1  0  0  0  0
  3  1  1  0  0  0  0
  4 15  1  0  0  0  0
  4  5  1  0  0  0  0
  5  9  1  0  0  0  0
  6 10  1  0  0  0  0
  6  5  2  0  0  0  0
  7  8  1  0  0  0  0
  7  6  1  0  0  0  0
  8  4  2  0  0  0  0
 11 17  1  0  0  0  0
 12 18  1  0  0  0  0
 12 11  2  0  0  0  0
 13 12  1  0  0  0  0
 14 13  2  0  0  0  0
 14 15  1  0  0  0  0
 15 16  2  0  0  0  0
 16 11  1  0  0  0  0
 19 20  1  0  0  0  0
 19 13  1  0  0  0  0
 21 20  1  0  0  0  0
 22 23  1  0  0  0  0
 22 20  1  0  0  0  0
 24 22  1  0  0  0  0
 25 24  1  0  0  0  0
 25 26  1  0  0  0  0
 26 19  1  0  0  0  0
 27 29  1  0  0  0  0
 27 31  1  0  0  0  0
 28 27  1  0  0  0  0
 30 38  1  0  0  0  0
 31 32  1  0  0  0  0
 31 30  2  0  0  0  0
 32 33  2  0  0  0  0
 33 37  1  0  0  0  0
 33 34  1  0  0  0  0
 34 35  1  0  0  0  0
 35 42  1  0  0  0  0
 36 35  2  0  0  0  0
 36 43  1  0  0  0  0
 37 36  1  0  0  0  0
 38 37  2  0  0  0  0
 38 44  1  0  0  0  0
 39 30  1  0  0  0  0
 40 32  1  0  0  0  0
 41 34  1  0  0  0  0
 44 46  1  0  0  0  0
 45 44  2  0  0  0  0
M  END
>  <minimizedAffinity>
-6.23005867

$$$$

 OpenBabel03252506303D

 46 50  0  0  0  0  0  0  0  0999 V2000
   37.3540   23.7010   39.6010 C   0  0  0  0  0  0  0  0  0  0  0  0
   38.4560   23.7080   39.4620 H   0  0  0  0  0  0  0  0  0  0  0  0
   36.9990   22.7650   39.1500 H   0  0  0  0  0  0  0  0  0  0  0  0
   36.5660   26.8690   38.1430 C   0  0  0  0  0  0  0  0  0  0  0  0
   35.4540   26.0950   37.7660 C   0  0  0  0  0  0  0  0  0  0  0  0
   35.6160   24.8490   38.2560 C   0  0  0  0  0  0  0  0  0  0  0  0
   36.7750   24.8430   38.9100 N   0  0  0  0  0  0  0  0  0  0  0  0
   37.3640   26.0460   38.8550 N   0  0  0  0  0  0  0  0  0  0  0  0
   34.5840   26.3860   37.1820 H   0  0  0  0  0  0  0  0  0  0  0  0
   34.9560   24.0100   38.1530 H   0  0  0  0  0  0  0  0  0  0  0  0
   36.8860   29.9220   36.1650 C   0  0  0  0  0  0  0  0  0  0  0  0
   37.1020   30.9070   37.1120 C   0  0  0  0  0  0  0  0  0  0  0  0
   37.1350   30.4990   38.4460 C   0  0  0  0  0  0  0  0  0  0  0  0
   36.9580   29.1970   38.7210 N   0  0  0  0  0  0  0  0  0  0  0  0
   36.7510   28.2610   37.8000 C   0  0  0  0  0  0  0  0  0  0  0  0
   36.7170   28.6440   36.5030 N   0  0  0  0  0  0  0  0  0  0  0  0
   36.8560   30.2130   35.1230 H   0  0  0  0  0  0  0  0  0  0  0  0
   37.2430   31.9390   36.9100 H   0  0  0  0  0  0  0  0  0  0  0  0
   37.3450   31.3690   39.5540 N   0  0  0  0  0  0  0  0  0  0  0  0
   37.5210   30.8770   40.9210 C   0  0  0  0  0  3  0  0  0  0  0  0
   36.7910   31.3050   41.6260 H   0  0  0  0  0  0  0  0  0  0  0  0
   38.9300   31.2380   41.3250 C   0  0  0  0  0  3  0  0  0  0  0  0
   39.5890   30.4240   40.9070 H   0  0  0  0  0  0  0  0  0  0  0  0
   39.3900   32.4120   40.7780 O   0  0  0  0  0  0  0  0  0  0  0  0
   38.3800   33.3170   40.4850 C   0  0  0  0  0  2  0  0  0  0  0  0
   37.4060   32.8100   39.4440 C   0  0  0  0  0  2  0  0  0  0  0  0
   37.0710   23.7770   41.0600 C   0  0  0  0  0  0  0  0  0  0  0  0
   37.1120   22.7430   41.4850 H   0  0  0  0  0  0  0  0  0  0  0  0
   35.9940   24.0780   41.1780 H   0  0  0  0  0  0  0  0  0  0  0  0
   37.5370   25.9090   42.4000 C   0  0  0  0  0  0  0  0  0  0  0  0
   37.8810   24.6900   41.8410 C   0  0  0  0  0  0  0  0  0  0  0  0
   39.1920   24.2700   42.0560 C   0  0  0  0  0  0  0  0  0  0  0  0
   40.0850   25.0240   42.7780 C   0  0  0  0  0  0  0  0  0  0  0  0
   41.3800   24.8740   43.1370 N   0  0  0  0  0  0  0  0  0  0  0  0
   41.8160   25.9120   43.8600 C   0  0  0  0  0  0  0  0  0  0  0  0
   40.7680   26.8170   44.0040 C   0  0  0  0  0  0  0  0  0  0  0  0
   39.7340   26.2270   43.3240 C   0  0  0  0  0  0  0  0  0  0  0  0
   38.4370   26.6480   43.1150 C   0  0  0  0  0  0  0  0  0  0  0  0
   36.5060   26.2010   42.2080 H   0  0  0  0  0  0  0  0  0  0  0  0
   39.5870   23.3370   41.6740 H   0  0  0  0  0  0  0  0  0  0  0  0
   41.9840   24.0590   42.8900 H   0  0  0  0  0  0  0  0  0  0  0  0
   42.8070   26.0480   44.2730 H   0  0  0  0  0  0  0  0  0  0  0  0
   40.8150   27.7470   44.5340 H   0  0  0  0  0  0  0  0  0  0  0  0
   38.0020   27.9280   43.6750 C   0  0  0  0  0  0  0  0  0  0  0  0
   36.9610   28.0190   44.3850 O   0  0  0  0  0  0  0  0  0  0  0  0
   38.5820   28.8430   43.4840 H   0  0  0  0  0  0  0  0  0  0  0  0
  1 27  1  0  0  0  0
  2  1  1  0  0  0  0
  3  1  1  0  0  0  0
  4  8  2  0  0  0  0
  5  4  1  0  0  0  0
  5  6  2  0  0  0  0
  6  7  1  0  0  0  0
  7  1  1  0  0  0  0
  8  7  1  0  0  0  0
  9  5  1  0  0  0  0
 10  6  1  0  0  0  0
 11 16  2  0  0  0  0
 11 12  1  0  0  0  0
 12 13  2  0  0  0  0
 13 14  1  0  0  0  0
 13 19  1  0  0  0  0
 15  4  1  0  0  0  0
 15 14  2  0  0  0  0
 16 15  1  0  0  0  0
 17 11  1  0  0  0  0
 18 12  1  0  0  0  0
 19 20  1  0  0  0  0
 20 22  1  0  0  0  0
 20 21  1  0  0  0  0
 23 22  1  0  0  0  0
 24 22  1  0  0  0  0
 25 24  1  0  0  0  0
 26 19  1  0  0  0  0
 26 25  1  0  0  0  0
 27 29  1  0  0  0  0
 27 28  1  0  0  0  0
 27 31  1  0  0  0  0
 30 38  1  0  0  0  0
 31 32  1  0  0  0  0
 31 30  2  0  0  0  0
 32 33  2  0  0  0  0
 33 34  1  0  0  0  0
 33 37  1  0  0  0  0
 34 35  1  0  0  0  0
 35 36  2  0  0  0  0
 35 42  1  0  0  0  0
 36 43  1  0  0  0  0
 37 36  1  0  0  0  0
 38 37  2  0  0  0  0
 38 44  1  0  0  0  0
 39 30  1  0  0  0  0
 40 32  1  0  0  0  0
 41 34  1  0  0  0  0
 44 45  2  0  0  0  0
 46 44  1  0  0  0  0
M  END
>  <minimizedAffinity>
-6.20038748

$$$$

 OpenBabel03252506303D

 46 50  0  0  0  0  0  0  0  0999 V2000
   37.3820   31.0760   38.0910 C   0  0  0  0  0  0  0  0  0  0  0  0
   38.0890   30.2450   37.8810 H   0  0  0  0  0  0  0  0  0  0  0  0
   37.1290   31.5110   37.1150 H   0  0  0  0  0  0  0  0  0  0  0  0
   39.6200   33.0640   40.0470 C   0  0  0  0  0  0  0  0  0  0  0  0
   38.4240   33.7970   40.1470 C   0  0  0  0  0  0  0  0  0  0  0  0
   37.4700   33.1520   39.4430 C   0  0  0  0  0  0  0  0  0  0  0  0
   38.0420   32.0680   38.9270 N   0  0  0  0  0  0  0  0  0  0  0  0
   39.3340   31.9930   39.2760 N   0  0  0  0  0  0  0  0  0  0  0  0
   38.2330   34.7250   40.6790 H   0  0  0  0  0  0  0  0  0  0  0  0
   36.4460   33.4390   39.3090 H   0  0  0  0  0  0  0  0  0  0  0  0
   42.4390   35.0940   41.1730 C   0  0  0  0  0  0  0  0  0  0  0  0
   43.2450   34.1940   41.8480 C   0  0  0  0  0  0  0  0  0  0  0  0
   42.7960   32.8750   41.9090 C   0  0  0  0  0  0  0  0  0  0  0  0
   41.6330   32.5660   41.3170 N   0  0  0  0  0  0  0  0  0  0  0  0
   40.8690   33.4410   40.6710 C   0  0  0  0  0  0  0  0  0  0  0  0
   41.2910   34.7240   40.6050 N   0  0  0  0  0  0  0  0  0  0  0  0
   42.7640   36.1250   41.1120 H   0  0  0  0  0  0  0  0  0  0  0  0
   44.1660   34.4230   42.3210 H   0  0  0  0  0  0  0  0  0  0  0  0
   43.4900   31.8140   42.5590 N   0  0  0  0  0  0  0  0  0  0  0  0
   42.9020   31.0410   43.6540 C   0  0  0  0  0  3  0  0  0  0  0  0
   43.5160   31.0600   44.5690 H   0  0  0  0  0  0  0  0  0  0  0  0
   42.7480   29.6290   43.1430 C   0  0  0  0  0  3  0  0  0  0  0  0
   41.7800   29.6150   42.5630 H   0  0  0  0  0  0  0  0  0  0  0  0
   43.7230   29.2400   42.2560 O   0  0  0  0  0  0  0  0  0  0  0  0
   44.9280   29.9030   42.4370 C   0  0  0  0  0  2  0  0  0  0  0  0
   44.8300   31.3960   42.2090 C   0  0  0  0  0  2  0  0  0  0  0  0
   36.1970   30.5110   38.7920 C   0  0  0  0  0  0  0  0  0  0  0  0
   35.4540   30.1790   38.0240 H   0  0  0  0  0  0  0  0  0  0  0  0
   35.6830   31.3600   39.3210 H   0  0  0  0  0  0  0  0  0  0  0  0
   36.5420   28.0930   39.5640 C   0  0  0  0  0  0  0  0  0  0  0  0
   36.4440   29.4610   39.7600 C   0  0  0  0  0  0  0  0  0  0  0  0
   36.6070   29.9020   41.0710 C   0  0  0  0  0  0  0  0  0  0  0  0
   36.8480   29.0280   42.1050 C   0  0  0  0  0  0  0  0  0  0  0  0
   37.0420   29.1650   43.4350 N   0  0  0  0  0  0  0  0  0  0  0  0
   37.2440   27.9830   44.0290 C   0  0  0  0  0  0  0  0  0  0  0  0
   37.1850   26.9880   43.0570 C   0  0  0  0  0  0  0  0  0  0  0  0
   36.9410   27.6800   41.8990 C   0  0  0  0  0  0  0  0  0  0  0  0
   36.7820   27.2380   40.6020 C   0  0  0  0  0  0  0  0  0  0  0  0
   36.4080   27.7910   38.5270 H   0  0  0  0  0  0  0  0  0  0  0  0
   36.5540   30.9440   41.3580 H   0  0  0  0  0  0  0  0  0  0  0  0
   37.0380   30.0700   43.9560 H   0  0  0  0  0  0  0  0  0  0  0  0
   37.4230   27.8050   45.0820 H   0  0  0  0  0  0  0  0  0  0  0  0
   37.3100   25.9380   43.2300 H   0  0  0  0  0  0  0  0  0  0  0  0
   36.8710   25.8050   40.3190 C   0  0  0  0  0  0  0  0  0  0  0  0
   37.6230   25.3560   39.4090 O   0  0  0  0  0  0  0  0  0  0  0  0
   36.2770   25.0860   40.9030 H   0  0  0  0  0  0  0  0  0  0  0  0
  1 27  1  0  0  0  0
  1  7  1  0  0  0  0
  2  1  1  0  0  0  0
  3  1  1  0  0  0  0
  4  5  1  0  0  0  0
  4 15  1  0  0  0  0
  5  9  1  0  0  0  0
  6  5  2  0  0  0  0
  7  8  1  0  0  0  0
  7  6  1  0  0  0  0
  8  4  2  0  0  0  0
 10  6  1  0  0  0  0
 11 12  1  0  0  0  0
 12 13  2  0  0  0  0
 12 18  1  0  0  0  0
 13 19  1  0  0  0  0
 14 13  1  0  0  0  0
 15 14  2  0  0  0  0
 16 15  1  0  0  0  0
 16 11  2  0  0  0  0
 17 11  1  0  0  0  0
 19 20  1  0  0  0  0
 20 21  1  0  0  0  0
 22 20  1  0  0  0  0
 23 22  1  0  0  0  0
 24 25  1  0  0  0  0
 24 22  1  0  0  0  0
 26 25  1  0  0  0  0
 26 19  1  0  0  0  0
 27 29  1  0  0  0  0
 27 31  1  0  0  0  0
 28 27  1  0  0  0  0
 30 31  2  0  0  0  0
 30 38  1  0  0  0  0
 31 32  1  0  0  0  0
 32 40  1  0  0  0  0
 32 33  2  0  0  0  0
 33 34  1  0  0  0  0
 34 41  1  0  0  0  0
 34 35  1  0  0  0  0
 35 42  1  0  0  0  0
 36 43  1  0  0  0  0
 36 35  2  0  0  0  0
 37 33  1  0  0  0  0
 37 36  1  0  0  0  0
 38 37  2  0  0  0  0
 39 30  1  0  0  0  0
 44 38  1  0  0  0  0
 44 46  1  0  0  0  0
 45 44  2  0  0  0  0
M  END
>  <minimizedAffinity>
-6.19328165

$$$$
