
 OpenBabel03252506453D

 41 44  0  0  1  0  0  0  0  0999 V2000
   49.5120   33.4470   41.4400 N   0  0  1  0  0  0  0  0  0  0  0  0
   50.7080   33.1490   42.1920 C   0  0  0  0  0  0  0  0  0  0  0  0
   51.3280   31.8210   41.8460 C   0  0  0  0  0  0  0  0  0  0  0  0
   50.3880   30.7220   42.2630 C   0  0  0  0  0  0  0  0  0  0  0  0
   48.9320   31.1350   42.0850 C   0  0  0  0  0  0  0  0  0  0  0  0
   48.8870   32.2180   41.0500 C   0  0  2  0  0  0  0  0  0  0  0  0
   50.3960   33.0610   43.2660 H   0  0  0  0  0  0  0  0  0  0  0  0
   51.4390   33.9840   42.1780 H   0  0  0  0  0  0  0  0  0  0  0  0
   51.7520   31.7450   40.8480 H   0  0  0  0  0  0  0  0  0  0  0  0
   52.2120   31.7300   42.5380 H   0  0  0  0  0  0  0  0  0  0  0  0
   50.5610   30.4530   43.3150 H   0  0  0  0  0  0  0  0  0  0  0  0
   50.5520   29.8610   41.5810 H   0  0  0  0  0  0  0  0  0  0  0  0
   48.5840   31.5970   43.0600 H   0  0  0  0  0  0  0  0  0  0  0  0
   48.2620   30.3330   41.8430 H   0  0  0  0  0  0  0  0  0  0  0  0
   47.7890   32.4680   40.9490 H   0  0  0  0  0  0  0  0  0  0  0  0
   47.2860   34.6370   41.9660 C   0  0  1  0  0  0  0  0  0  0  0  0
   48.3500   35.6260   41.6730 C   0  0  0  0  0  0  0  0  0  0  0  0
   48.7090   34.3090   42.2300 C   0  0  2  0  0  0  0  0  0  0  0  0
   46.7790   34.1980   41.0560 H   0  0  0  0  0  0  0  0  0  0  0  0
   48.6250   35.8470   40.6140 H   0  0  0  0  0  0  0  0  0  0  0  0
   48.4420   36.5290   42.3180 H   0  0  0  0  0  0  0  0  0  0  0  0
   48.9670   34.3140   43.3270 H   0  0  0  0  0  0  0  0  0  0  0  0
   45.5490   36.0280   43.1340 C   0  0  0  0  0  0  0  0  0  0  0  0
   46.3680   34.8930   43.0740 C   0  0  0  0  0  0  0  0  0  0  0  0
   46.2590   33.9780   44.1430 C   0  0  0  0  0  0  0  0  0  0  0  0
   45.3840   34.2430   45.1490 N   0  0  0  0  0  0  0  0  0  0  0  0
   44.6160   35.3380   45.1710 C   0  0  0  0  0  0  0  0  0  0  0  0
   44.6900   36.2530   44.1570 N   0  0  0  0  0  0  0  0  0  0  0  0
   45.6540   36.7160   42.3000 H   0  0  0  0  0  0  0  0  0  0  0  0
   46.8650   33.0700   44.1680 H   0  0  0  0  0  0  0  0  0  0  0  0
   43.9540   35.4480   46.0210 H   0  0  0  0  0  0  0  0  0  0  0  0
   49.3290   31.7310   39.7740 N   0  0  0  0  0  0  0  0  0  0  0  0
   49.4310   30.6590   39.8140 H   0  0  0  0  0  0  0  0  0  0  0  0
   46.8320   33.1860   38.4010 H   0  0  0  0  0  0  0  0  0  0  0  0
   47.8280   33.2630   38.7090 N   0  0  0  0  0  0  0  0  0  0  0  0
   48.3650   31.9140   38.7130 C   0  0  1  0  0  3  0  0  0  0  0  0
   48.8690   31.5110   37.3680 C   0  0  0  0  0  3  0  0  0  0  0  0
   48.7700   30.4170   37.1980 H   0  0  0  0  0  0  0  0  0  0  0  0
   48.0040   32.1660   36.4390 O   0  0  0  0  0  0  0  0  0  0  0  0
   48.4810   33.4750   36.3560 C   0  0  0  0  0  2  0  0  0  0  0  0
   48.4720   34.1240   37.7280 C   0  0  0  0  0  2  0  0  0  0  0  0
  1  2  1  1  0  0  0
  1 18  1  0  0  0  0
  2  7  1  0  0  0  0
  3  2  1  0  0  0  0
  3  4  1  0  0  0  0
  3 10  1  0  0  0  0
  4 11  1  0  0  0  0
  5  4  1  0  0  0  0
  5 13  1  0  0  0  0
  6 15  1  6  0  0  0
  6  1  1  0  0  0  0
  6  5  1  0  0  0  0
  8  2  1  0  0  0  0
  9  3  1  0  0  0  0
 12  4  1  0  0  0  0
 14  5  1  0  0  0  0
 16 19  1  6  0  0  0
 16 18  1  0  0  0  0
 16 24  1  0  0  0  0
 17 16  1  0  0  0  0
 17 18  1  0  0  0  0
 17 21  1  0  0  0  0
 18 22  1  1  0  0  0
 20 17  1  0  0  0  0
 23 28  1  0  0  0  0
 24 23  2  0  0  0  0
 24 25  1  0  0  0  0
 25 30  1  0  0  0  0
 25 26  2  0  0  0  0
 26 27  1  0  0  0  0
 27 31  1  0  0  0  0
 28 27  2  0  0  0  0
 29 23  1  0  0  0  0
 32 33  1  0  0  0  0
 32  6  1  0  0  0  0
 34 35  1  0  0  0  0
 35 36  1  0  0  0  0
 36 32  1  1  0  0  0
 37 36  1  0  0  0  0
 38 37  1  0  0  0  0
 39 37  1  0  0  0  0
 40 39  1  0  0  0  0
 40 41  1  0  0  0  0
 41 35  1  0  0  0  0
M  END
>  <minimizedAffinity>
-5.19525242

>  <minimizedRMSD>
1.40141511

$$$$
