
 OpenBabel03252506453D

 41 44  0  0  1  0  0  0  0  0999 V2000
   49.4570   33.4340   41.3280 N   0  0  1  0  0  0  0  0  0  0  0  0
   50.6700   33.0710   42.0220 C   0  0  0  0  0  0  0  0  0  0  0  0
   51.2480   31.7510   41.5860 C   0  0  0  0  0  0  0  0  0  0  0  0
   50.2980   30.6500   41.9770 C   0  0  0  0  0  0  0  0  0  0  0  0
   48.8460   31.1030   41.8700 C   0  0  0  0  0  0  0  0  0  0  0  0
   48.7920   32.2400   40.8950 C   0  0  2  0  0  0  0  0  0  0  0  0
   50.3920   32.9320   43.1000 H   0  0  0  0  0  0  0  0  0  0  0  0
   51.4190   33.8900   42.0270 H   0  0  0  0  0  0  0  0  0  0  0  0
   51.6380   31.7190   40.5710 H   0  0  0  0  0  0  0  0  0  0  0  0
   52.1520   31.6040   42.2410 H   0  0  0  0  0  0  0  0  0  0  0  0
   50.4990   30.3220   43.0060 H   0  0  0  0  0  0  0  0  0  0  0  0
   50.4200   29.8250   41.2440 H   0  0  0  0  0  0  0  0  0  0  0  0
   48.5410   31.5200   42.8800 H   0  0  0  0  0  0  0  0  0  0  0  0
   48.1510   30.3290   41.6090 H   0  0  0  0  0  0  0  0  0  0  0  0
   47.6970   32.5180   40.8460 H   0  0  0  0  0  0  0  0  0  0  0  0
   47.3140   34.7310   41.9340 C   0  0  1  0  0  0  0  0  0  0  0  0
   48.4560   35.6610   41.7670 C   0  0  0  0  0  0  0  0  0  0  0  0
   48.7000   34.2690   42.1900 C   0  0  2  0  0  0  0  0  0  0  0  0
   46.8000   34.4300   40.9740 H   0  0  0  0  0  0  0  0  0  0  0  0
   48.7750   35.9680   40.7430 H   0  0  0  0  0  0  0  0  0  0  0  0
   48.5990   36.4810   42.5060 H   0  0  0  0  0  0  0  0  0  0  0  0
   48.9280   34.1400   43.2850 H   0  0  0  0  0  0  0  0  0  0  0  0
   45.5450   36.0590   43.1320 C   0  0  0  0  0  0  0  0  0  0  0  0
   46.3880   34.9410   43.0460 C   0  0  0  0  0  0  0  0  0  0  0  0
   46.2950   33.9990   44.0920 C   0  0  0  0  0  0  0  0  0  0  0  0
   45.4120   34.2220   45.1020 N   0  0  0  0  0  0  0  0  0  0  0  0
   44.6230   35.3010   45.1490 C   0  0  0  0  0  0  0  0  0  0  0  0
   44.6800   36.2410   44.1570 N   0  0  0  0  0  0  0  0  0  0  0  0
   45.6380   36.7690   42.3150 H   0  0  0  0  0  0  0  0  0  0  0  0
   46.9190   33.1030   44.0970 H   0  0  0  0  0  0  0  0  0  0  0  0
   43.9570   35.3760   45.9990 H   0  0  0  0  0  0  0  0  0  0  0  0
   49.1800   31.8130   39.5810 N   0  0  0  0  0  0  0  0  0  0  0  0
   48.4760   31.0830   39.2180 H   0  0  0  0  0  0  0  0  0  0  0  0
   50.3600   33.5730   37.1840 H   0  0  0  0  0  0  0  0  0  0  0  0
   50.0430   32.6290   37.5030 N   0  0  0  0  0  0  0  0  0  0  0  0
   49.0970   32.8520   38.5810 C   0  0  1  0  0  3  0  0  0  0  0  0
   47.7150   33.0850   38.0710 C   0  0  0  0  0  3  0  0  0  0  0  0
   47.1320   33.7540   38.7390 H   0  0  0  0  0  0  0  0  0  0  0  0
   47.8900   33.7700   36.8290 O   0  0  0  0  0  0  0  0  0  0  0  0
   48.1930   32.7730   35.9010 C   0  0  0  0  0  2  0  0  0  0  0  0
   49.4320   32.0130   36.3350 C   0  0  0  0  0  2  0  0  0  0  0  0
  1  2  1  1  0  0  0
  1 18  1  0  0  0  0
  2  8  1  0  0  0  0
  2  7  1  0  0  0  0
  3  4  1  0  0  0  0
  3  2  1  0  0  0  0
  3 10  1  0  0  0  0
  4 11  1  0  0  0  0
  5  4  1  0  0  0  0
  5 13  1  0  0  0  0
  6 15  1  6  0  0  0
  6  1  1  0  0  0  0
  6  5  1  0  0  0  0
  9  3  1  0  0  0  0
 12  4  1  0  0  0  0
 14  5  1  0  0  0  0
 16 19  1  6  0  0  0
 16 18  1  0  0  0  0
 16 24  1  0  0  0  0
 17 16  1  0  0  0  0
 17 18  1  0  0  0  0
 17 21  1  0  0  0  0
 18 22  1  1  0  0  0
 20 17  1  0  0  0  0
 23 28  1  0  0  0  0
 24 23  2  0  0  0  0
 24 25  1  0  0  0  0
 25 30  1  0  0  0  0
 25 26  2  0  0  0  0
 26 27  1  0  0  0  0
 27 31  1  0  0  0  0
 28 27  2  0  0  0  0
 29 23  1  0  0  0  0
 32  6  1  0  0  0  0
 33 32  1  0  0  0  0
 34 35  1  0  0  0  0
 35 36  1  0  0  0  0
 36 32  1  1  0  0  0
 37 36  1  0  0  0  0
 37 38  1  0  0  0  0
 39 37  1  0  0  0  0
 40 41  1  0  0  0  0
 40 39  1  0  0  0  0
 41 35  1  0  0  0  0
M  END
>  <minimizedAffinity>
-5.39943075

>  <minimizedRMSD>
2.29806209

$$$$
