
 OpenBabel03252506453D

 41 44  0  0  1  0  0  0  0  0999 V2000
   49.5100   33.4450   41.4400 N   0  0  1  0  0  0  0  0  0  0  0  0
   50.7050   33.1470   42.1930 C   0  0  0  0  0  0  0  0  0  0  0  0
   51.3240   31.8180   41.8490 C   0  0  0  0  0  0  0  0  0  0  0  0
   50.3830   30.7200   42.2660 C   0  0  0  0  0  0  0  0  0  0  0  0
   48.9270   31.1340   42.0860 C   0  0  0  0  0  0  0  0  0  0  0  0
   48.8850   32.2160   41.0500 C   0  0  2  0  0  0  0  0  0  0  0  0
   50.3920   33.0590   43.2670 H   0  0  0  0  0  0  0  0  0  0  0  0
   51.4360   33.9810   42.1800 H   0  0  0  0  0  0  0  0  0  0  0  0
   51.7500   31.7420   40.8510 H   0  0  0  0  0  0  0  0  0  0  0  0
   52.2080   31.7260   42.5420 H   0  0  0  0  0  0  0  0  0  0  0  0
   50.5550   30.4510   43.3170 H   0  0  0  0  0  0  0  0  0  0  0  0
   50.5470   29.8590   41.5830 H   0  0  0  0  0  0  0  0  0  0  0  0
   48.5790   31.5970   43.0600 H   0  0  0  0  0  0  0  0  0  0  0  0
   48.2570   30.3330   41.8430 H   0  0  0  0  0  0  0  0  0  0  0  0
   47.7870   32.4670   40.9480 H   0  0  0  0  0  0  0  0  0  0  0  0
   47.2830   34.6340   41.9650 C   0  0  1  0  0  0  0  0  0  0  0  0
   48.3460   35.6240   41.6690 C   0  0  0  0  0  0  0  0  0  0  0  0
   48.7070   34.3090   42.2290 C   0  0  2  0  0  0  0  0  0  0  0  0
   46.7760   34.1930   41.0570 H   0  0  0  0  0  0  0  0  0  0  0  0
   48.6200   35.8430   40.6100 H   0  0  0  0  0  0  0  0  0  0  0  0
   48.4380   36.5280   42.3130 H   0  0  0  0  0  0  0  0  0  0  0  0
   48.9660   34.3160   43.3260 H   0  0  0  0  0  0  0  0  0  0  0  0
   45.5480   36.0280   43.1340 C   0  0  0  0  0  0  0  0  0  0  0  0
   46.3660   34.8910   43.0740 C   0  0  0  0  0  0  0  0  0  0  0  0
   46.2560   33.9770   44.1440 C   0  0  0  0  0  0  0  0  0  0  0  0
   45.3820   34.2430   45.1490 N   0  0  0  0  0  0  0  0  0  0  0  0
   44.6150   35.3400   45.1720 C   0  0  0  0  0  0  0  0  0  0  0  0
   44.6900   36.2540   44.1570 N   0  0  0  0  0  0  0  0  0  0  0  0
   45.6540   36.7160   42.3000 H   0  0  0  0  0  0  0  0  0  0  0  0
   46.8610   33.0690   44.1680 H   0  0  0  0  0  0  0  0  0  0  0  0
   43.9540   35.4510   46.0210 H   0  0  0  0  0  0  0  0  0  0  0  0
   49.3270   31.7290   39.7740 N   0  0  0  0  0  0  0  0  0  0  0  0
   49.4290   30.6570   39.8160 H   0  0  0  0  0  0  0  0  0  0  0  0
   46.8280   33.1790   38.4020 H   0  0  0  0  0  0  0  0  0  0  0  0
   47.8220   33.2590   38.7130 N   0  0  0  0  0  0  0  0  0  0  0  0
   48.3640   31.9110   38.7130 C   0  0  1  0  0  3  0  0  0  0  0  0
   48.8720   31.5150   37.3670 C   0  0  0  0  0  3  0  0  0  0  0  0
   48.7760   30.4210   37.1940 H   0  0  0  0  0  0  0  0  0  0  0  0
   48.0050   32.1690   36.4390 O   0  0  0  0  0  0  0  0  0  0  0  0
   48.4770   33.4800   36.3620 C   0  0  0  0  0  2  0  0  0  0  0  0
   48.4640   34.1240   37.7350 C   0  0  0  0  0  2  0  0  0  0  0  0
  1  2  1  1  0  0  0
  1 18  1  0  0  0  0
  2  7  1  0  0  0  0
  3  2  1  0  0  0  0
  3  4  1  0  0  0  0
  3 10  1  0  0  0  0
  4 11  1  0  0  0  0
  5  4  1  0  0  0  0
  5 13  1  0  0  0  0
  6 15  1  6  0  0  0
  6  1  1  0  0  0  0
  6  5  1  0  0  0  0
  8  2  1  0  0  0  0
  9  3  1  0  0  0  0
 12  4  1  0  0  0  0
 14  5  1  0  0  0  0
 16 19  1  6  0  0  0
 16 18  1  0  0  0  0
 16 24  1  0  0  0  0
 17 16  1  0  0  0  0
 17 18  1  0  0  0  0
 17 21  1  0  0  0  0
 18 22  1  1  0  0  0
 20 17  1  0  0  0  0
 23 28  1  0  0  0  0
 24 23  2  0  0  0  0
 24 25  1  0  0  0  0
 25 30  1  0  0  0  0
 25 26  2  0  0  0  0
 26 27  1  0  0  0  0
 27 31  1  0  0  0  0
 28 27  2  0  0  0  0
 29 23  1  0  0  0  0
 32 33  1  0  0  0  0
 32  6  1  0  0  0  0
 34 35  1  0  0  0  0
 35 36  1  0  0  0  0
 36 32  1  1  0  0  0
 37 36  1  0  0  0  0
 38 37  1  0  0  0  0
 39 37  1  0  0  0  0
 40 39  1  0  0  0  0
 40 41  1  0  0  0  0
 41 35  1  0  0  0  0
M  END
>  <minimizedAffinity>
-5.19592333

>  <minimizedRMSD>
1.31553054

$$$$
