
 OpenBabel03242522583D

 30 32  0  0  0  0  0  0  0  0999 V2000
   44.7260   34.1720   46.8430 C   0  0  0  0  0  0  0  0  0  0  0  0
   45.0760   34.4600   45.5160 C   0  0  0  0  0  0  0  0  0  0  0  0
   46.0060   33.6970   44.8420 C   0  0  0  0  0  0  0  0  0  0  0  0
   46.5590   32.6620   45.5250 N   0  0  0  0  0  0  0  0  0  0  0  0
   46.2140   32.3970   46.7950 C   0  0  0  0  0  0  0  0  0  0  0  0
   45.3100   33.1330   47.4600 N   0  0  0  0  0  0  0  0  0  0  0  0
   43.9880   34.8400   47.2630 H   0  0  0  0  0  0  0  0  0  0  0  0
   44.6220   35.2940   44.9880 H   0  0  0  0  0  0  0  0  0  0  0  0
   46.8560   31.2870   47.4120 N   0  0  0  0  0  0  0  0  0  0  0  0
   47.0750   31.3020   48.8450 C   0  0  0  0  0  0  0  0  0  0  0  0
   46.3710   30.6490   49.3820 H   0  0  0  0  0  0  0  0  0  0  0  0
   48.5160   30.9000   49.1420 C   0  0  0  0  0  0  0  0  0  0  0  0
   49.1610   31.5710   48.5650 H   0  0  0  0  0  0  0  0  0  0  0  0
   48.7140   29.6120   48.6550 O   0  0  0  0  0  0  0  0  0  0  0  0
   48.7020   29.6820   47.2630 C   0  0  0  0  0  0  0  0  0  0  0  0
   47.3290   30.1090   46.7360 C   0  0  0  0  0  0  0  0  0  0  0  0
   44.1940   32.5360   42.7700 Cl  0  0  0  0  0  0  0  0  0  0  0  0
   45.6230   33.4710   42.4520 C   0  0  0  0  0  0  0  0  0  0  0  0
   46.4000   33.9680   43.4480 C   0  0  0  0  0  0  0  0  0  0  0  0
   47.4990   34.6880   43.0730 C   0  0  0  0  0  0  0  0  0  0  0  0
   47.8440   34.9250   41.7920 C   0  0  0  0  0  0  0  0  0  0  0  0
   47.0620   34.4250   40.7750 C   0  0  0  0  0  0  0  0  0  0  0  0
   45.9450   33.6940   41.1250 C   0  0  0  0  0  0  0  0  0  0  0  0
   48.1380   35.0960   43.8700 H   0  0  0  0  0  0  0  0  0  0  0  0
   47.2790   34.5780   39.7300 H   0  0  0  0  0  0  0  0  0  0  0  0
   45.3190   33.2950   40.3240 H   0  0  0  0  0  0  0  0  0  0  0  0
   49.0380   35.7080   41.3810 C   0  0  0  0  0  0  0  0  0  0  0  0
   50.1510   34.9980   41.7480 F   0  0  0  0  0  0  0  0  0  0  0  0
   49.0280   36.9680   41.9600 F   0  0  0  0  0  0  0  0  0  0  0  0
   49.0140   35.8630   40.0070 F   0  0  0  0  0  0  0  0  0  0  0  0
  1  7  1  0  0  0  0
  1  6  1  0  0  0  0
  2  1  2  0  0  0  0
  3  2  1  0  0  0  0
  3  4  2  0  0  0  0
  4  5  1  0  0  0  0
  5  9  1  0  0  0  0
  5  6  2  0  0  0  0
  8  2  1  0  0  0  0
  9 10  1  0  0  0  0
 10 12  1  0  0  0  0
 10 11  1  0  0  0  0
 13 12  1  0  0  0  0
 14 12  1  0  0  0  0
 15 14  1  0  0  0  0
 16 15  1  0  0  0  0
 16  9  1  0  0  0  0
 18 17  1  0  0  0  0
 18 19  1  0  0  0  0
 19  3  1  0  0  0  0
 20 19  2  0  0  0  0
 20 24  1  0  0  0  0
 21 20  1  0  0  0  0
 22 23  1  0  0  0  0
 22 21  2  0  0  0  0
 23 18  2  0  0  0  0
 25 22  1  0  0  0  0
 26 23  1  0  0  0  0
 27 28  1  0  0  0  0
 27 21  1  0  0  0  0
 27 29  1  0  0  0  0
 30 27  1  0  0  0  0
M  END
>  <minimizedAffinity>
-6.41283989

>  <minimizedRMSD>
0.403171659

$$$$
