
 OpenBabel03252500113D

 30 32  0  0  0  0  0  0  0  0999 V2000
   40.5290   29.7550   40.2660 Cl  0  0  0  0  0  0  0  0  0  0  0  0
   38.9050   30.3190   40.4880 C   0  0  0  0  0  0  0  0  0  0  0  0
   38.0140   29.6430   41.2860 C   0  0  0  0  0  0  0  0  0  0  0  0
   36.7110   30.0750   41.4780 C   0  0  0  0  0  0  0  0  0  0  0  0
   36.3510   31.2330   40.8190 C   0  0  0  0  0  0  0  0  0  0  0  0
   37.2320   31.9170   40.0190 C   0  0  0  0  0  0  0  0  0  0  0  0
   38.5100   31.4710   39.8460 C   0  0  0  0  0  0  0  0  0  0  0  0
   36.0180   29.5330   42.1100 H   0  0  0  0  0  0  0  0  0  0  0  0
   35.3200   31.5540   40.9850 H   0  0  0  0  0  0  0  0  0  0  0  0
   36.8680   32.8180   39.5370 H   0  0  0  0  0  0  0  0  0  0  0  0
   39.8390   27.3270   43.5020 C   0  0  0  0  0  0  0  0  0  0  0  0
   39.2640   26.0770   43.1890 C   0  0  0  0  0  0  0  0  0  0  0  0
   38.2620   26.0560   42.2230 C   0  0  0  0  0  0  0  0  0  0  0  0
   37.8820   27.2160   41.6310 N   0  0  0  0  0  0  0  0  0  0  0  0
   38.4640   28.4130   41.9610 C   0  0  0  0  0  0  0  0  0  0  0  0
   39.4310   28.4550   42.8880 N   0  0  0  0  0  0  0  0  0  0  0  0
   40.5980   27.2710   44.2460 H   0  0  0  0  0  0  0  0  0  0  0  0
   39.5510   25.1600   43.6450 H   0  0  0  0  0  0  0  0  0  0  0  0
   37.5630   24.7930   41.7940 C   0  0  0  0  0  0  0  0  0  0  0  0
   38.3810   23.7160   41.9310 F   0  0  0  0  0  0  0  0  0  0  0  0
   36.4290   24.6340   42.5780 F   0  0  0  0  0  0  0  0  0  0  0  0
   37.2030   24.9830   40.4710 F   0  0  0  0  0  0  0  0  0  0  0  0
   39.3940   32.2100   39.0070 N   0  0  0  0  0  0  0  0  0  0  0  0
   39.6590   31.8320   37.6330 C   0  0  0  0  0  3  0  0  0  0  0  0
   38.9260   32.3480   36.9920 H   0  0  0  0  0  0  0  0  0  0  0  0
   41.0950   32.2960   37.3620 C   0  0  0  0  0  3  0  0  0  0  0  0
   41.5200   31.5580   36.6430 H   0  0  0  0  0  0  0  0  0  0  0  0
   41.8890   32.1980   38.5060 O   0  0  0  0  0  0  0  0  0  0  0  0
   41.5470   33.1160   39.4900 C   0  0  0  0  0  2  0  0  0  0  0  0
   40.0530   33.3800   39.5370 C   0  0  0  0  0  2  0  0  0  0  0  0
  1  2  1  0  0  0  0
  2  3  1  0  0  0  0
  3  4  2  0  0  0  0
  3 15  1  0  0  0  0
  4  8  1  0  0  0  0
  5  9  1  0  0  0  0
  5  4  1  0  0  0  0
  6  5  2  0  0  0  0
  7  6  1  0  0  0  0
  7  2  2  0  0  0  0
 10  6  1  0  0  0  0
 11 17  1  0  0  0  0
 12 11  1  0  0  0  0
 12 18  1  0  0  0  0
 13 12  2  0  0  0  0
 14 15  2  0  0  0  0
 14 13  1  0  0  0  0
 15 16  1  0  0  0  0
 16 11  2  0  0  0  0
 19 20  1  0  0  0  0
 19 13  1  0  0  0  0
 19 21  1  0  0  0  0
 22 19  1  0  0  0  0
 23 30  1  0  0  0  0
 23  7  1  0  0  0  0
 24 23  1  0  0  0  0
 25 24  1  0  0  0  0
 26 24  1  0  0  0  0
 26 28  1  0  0  0  0
 27 26  1  0  0  0  0
 28 29  1  0  0  0  0
 29 30  1  0  0  0  0
M  END
>  <minimizedAffinity>
-5.63738203

$$$$

 OpenBabel03252500113D

 30 32  0  0  0  0  0  0  0  0999 V2000
   40.4240   29.8440   41.1190 Cl  0  0  0  0  0  0  0  0  0  0  0  0
   39.0970   30.7930   40.5310 C   0  0  0  0  0  0  0  0  0  0  0  0
   37.7940   30.4370   40.7830 C   0  0  0  0  0  0  0  0  0  0  0  0
   36.7180   31.1800   40.3240 C   0  0  0  0  0  0  0  0  0  0  0  0
   37.0260   32.3090   39.5920 C   0  0  0  0  0  0  0  0  0  0  0  0
   38.3240   32.6750   39.3340 C   0  0  0  0  0  0  0  0  0  0  0  0
   39.3660   31.9270   39.7980 C   0  0  0  0  0  0  0  0  0  0  0  0
   35.6940   30.8880   40.5290 H   0  0  0  0  0  0  0  0  0  0  0  0
   36.1630   32.8790   39.2410 H   0  0  0  0  0  0  0  0  0  0  0  0
   38.4790   33.5770   38.7520 H   0  0  0  0  0  0  0  0  0  0  0  0
   37.2030   28.1570   43.6220 C   0  0  0  0  0  0  0  0  0  0  0  0
   37.0500   26.9050   42.9900 C   0  0  0  0  0  0  0  0  0  0  0  0
   37.1530   26.8700   41.6020 C   0  0  0  0  0  0  0  0  0  0  0  0
   37.3920   28.0190   40.9210 N   0  0  0  0  0  0  0  0  0  0  0  0
   37.5350   29.2190   41.5700 C   0  0  0  0  0  0  0  0  0  0  0  0
   37.4390   29.2740   42.9060 N   0  0  0  0  0  0  0  0  0  0  0  0
   37.1120   28.1120   44.6810 H   0  0  0  0  0  0  0  0  0  0  0  0
   36.8620   25.9960   43.5090 H   0  0  0  0  0  0  0  0  0  0  0  0
   37.0110   25.6030   40.8010 C   0  0  0  0  0  0  0  0  0  0  0  0
   36.1740   25.7880   39.7450 F   0  0  0  0  0  0  0  0  0  0  0  0
   38.2690   25.2270   40.3520 F   0  0  0  0  0  0  0  0  0  0  0  0
   36.5130   24.6500   41.6730 F   0  0  0  0  0  0  0  0  0  0  0  0
   40.6990   32.3410   39.5090 N   0  0  0  0  0  0  0  0  0  0  0  0
   41.4140   33.2950   40.3350 C   0  0  0  0  0  3  0  0  0  0  0  0
   41.9600   32.7300   41.1080 H   0  0  0  0  0  0  0  0  0  0  0  0
   42.3580   34.0240   39.3730 C   0  0  0  0  0  3  0  0  0  0  0  0
   42.4480   35.0630   39.7680 H   0  0  0  0  0  0  0  0  0  0  0  0
   41.7940   34.1580   38.1040 O   0  0  0  0  0  0  0  0  0  0  0  0
   41.6830   32.9520   37.4240 C   0  0  0  0  0  2  0  0  0  0  0  0
   41.3700   31.7940   38.3540 C   0  0  0  0  0  2  0  0  0  0  0  0
  2  3  1  0  0  0  0
  2  1  1  0  0  0  0
  3 15  1  0  0  0  0
  4  8  1  0  0  0  0
  4  3  2  0  0  0  0
  5  4  1  0  0  0  0
  6  5  2  0  0  0  0
  6  7  1  0  0  0  0
  7  2  2  0  0  0  0
  9  5  1  0  0  0  0
 10  6  1  0  0  0  0
 11 17  1  0  0  0  0
 12 18  1  0  0  0  0
 12 11  1  0  0  0  0
 13 12  2  0  0  0  0
 14 15  2  0  0  0  0
 14 13  1  0  0  0  0
 15 16  1  0  0  0  0
 16 11  2  0  0  0  0
 19 13  1  0  0  0  0
 19 22  1  0  0  0  0
 20 19  1  0  0  0  0
 21 19  1  0  0  0  0
 23  7  1  0  0  0  0
 23 24  1  0  0  0  0
 24 25  1  0  0  0  0
 26 27  1  0  0  0  0
 26 24  1  0  0  0  0
 28 26  1  0  0  0  0
 29 28  1  0  0  0  0
 29 30  1  0  0  0  0
 30 23  1  0  0  0  0
M  END
>  <minimizedAffinity>
-5.60515833

$$$$

 OpenBabel03252500113D

 30 32  0  0  0  0  0  0  0  0999 V2000
   40.3650   29.9130   39.1310 Cl  0  0  0  0  0  0  0  0  0  0  0  0
   39.3470   31.2680   39.4970 C   0  0  0  0  0  0  0  0  0  0  0  0
   38.0630   31.0970   39.9540 C   0  0  0  0  0  0  0  0  0  0  0  0
   37.2310   32.1650   40.2540 C   0  0  0  0  0  0  0  0  0  0  0  0
   37.7660   33.4230   40.0670 C   0  0  0  0  0  0  0  0  0  0  0  0
   39.0470   33.6070   39.6100 C   0  0  0  0  0  0  0  0  0  0  0  0
   39.8470   32.5390   39.3230 C   0  0  0  0  0  0  0  0  0  0  0  0
   36.2200   32.0160   40.6140 H   0  0  0  0  0  0  0  0  0  0  0  0
   37.0930   34.2490   40.3090 H   0  0  0  0  0  0  0  0  0  0  0  0
   39.3900   34.6290   39.4910 H   0  0  0  0  0  0  0  0  0  0  0  0
   36.5760   27.7930   39.2640 C   0  0  0  0  0  0  0  0  0  0  0  0
   36.6160   27.1630   40.5250 C   0  0  0  0  0  0  0  0  0  0  0  0
   37.1530   27.8860   41.5870 C   0  0  0  0  0  0  0  0  0  0  0  0
   37.6090   29.1450   41.3730 N   0  0  0  0  0  0  0  0  0  0  0  0
   37.5540   29.7250   40.1320 C   0  0  0  0  0  0  0  0  0  0  0  0
   37.0410   29.0460   39.0960 N   0  0  0  0  0  0  0  0  0  0  0  0
   36.1540   27.1850   38.4980 H   0  0  0  0  0  0  0  0  0  0  0  0
   36.2620   26.1760   40.7080 H   0  0  0  0  0  0  0  0  0  0  0  0
   37.2570   27.3350   42.9840 C   0  0  0  0  0  0  0  0  0  0  0  0
   36.0300   27.2510   43.5650 F   0  0  0  0  0  0  0  0  0  0  0  0
   37.8390   26.0770   42.9150 F   0  0  0  0  0  0  0  0  0  0  0  0
   38.0800   28.2030   43.6800 F   0  0  0  0  0  0  0  0  0  0  0  0
   41.1710   32.7720   38.8510 N   0  0  0  0  0  0  0  0  0  0  0  0
   41.5090   32.7530   37.4410 C   0  0  0  0  0  3  0  0  0  0  0  0
   41.3940   33.7780   37.0520 H   0  0  0  0  0  0  0  0  0  0  0  0
   42.9630   32.2710   37.3870 C   0  0  0  0  0  3  0  0  0  0  0  0
   43.0540   31.6940   36.4370 H   0  0  0  0  0  0  0  0  0  0  0  0
   43.2370   31.3560   38.4040 O   0  0  0  0  0  0  0  0  0  0  0  0
   43.2480   31.9290   39.6680 C   0  0  0  0  0  2  0  0  0  0  0  0
   42.2210   33.0390   39.8050 C   0  0  0  0  0  2  0  0  0  0  0  0
  1  2  1  0  0  0  0
  2  3  1  0  0  0  0
  3 15  1  0  0  0  0
  3  4  2  0  0  0  0
  4  8  1  0  0  0  0
  5  4  1  0  0  0  0
  5  9  1  0  0  0  0
  6  5  2  0  0  0  0
  7  2  2  0  0  0  0
  7  6  1  0  0  0  0
 10  6  1  0  0  0  0
 11 12  1  0  0  0  0
 12 18  1  0  0  0  0
 12 13  2  0  0  0  0
 13 19  1  0  0  0  0
 14 13  1  0  0  0  0
 15 14  2  0  0  0  0
 16 11  2  0  0  0  0
 16 15  1  0  0  0  0
 17 11  1  0  0  0  0
 19 20  1  0  0  0  0
 19 22  1  0  0  0  0
 21 19  1  0  0  0  0
 23  7  1  0  0  0  0
 23 30  1  0  0  0  0
 24 23  1  0  0  0  0
 25 24  1  0  0  0  0
 26 24  1  0  0  0  0
 26 28  1  0  0  0  0
 27 26  1  0  0  0  0
 28 29  1  0  0  0  0
 29 30  1  0  0  0  0
M  END
>  <minimizedAffinity>
-5.45079565

$$$$

 OpenBabel03252500113D

 30 32  0  0  0  0  0  0  0  0999 V2000
   39.4140   27.9120   39.8370 Cl  0  0  0  0  0  0  0  0  0  0  0  0
   38.5150   27.8930   41.3200 C   0  0  0  0  0  0  0  0  0  0  0  0
   38.6220   28.9120   42.2350 C   0  0  0  0  0  0  0  0  0  0  0  0
   37.9140   28.9200   43.4260 C   0  0  0  0  0  0  0  0  0  0  0  0
   37.0850   27.8380   43.6480 C   0  0  0  0  0  0  0  0  0  0  0  0
   36.9700   26.8140   42.7410 C   0  0  0  0  0  0  0  0  0  0  0  0
   37.6780   26.8310   41.5740 C   0  0  0  0  0  0  0  0  0  0  0  0
   38.0070   29.7290   44.1410 H   0  0  0  0  0  0  0  0  0  0  0  0
   36.5370   27.8650   44.5920 H   0  0  0  0  0  0  0  0  0  0  0  0
   36.2960   26.0010   42.9920 H   0  0  0  0  0  0  0  0  0  0  0  0
   41.6110   31.0700   42.1070 C   0  0  0  0  0  0  0  0  0  0  0  0
   41.1680   32.1720   41.3470 C   0  0  0  0  0  0  0  0  0  0  0  0
   39.8520   32.1520   40.8940 C   0  0  0  0  0  0  0  0  0  0  0  0
   39.0600   31.0920   41.1940 N   0  0  0  0  0  0  0  0  0  0  0  0
   39.5260   30.0380   41.9370 C   0  0  0  0  0  0  0  0  0  0  0  0
   40.7900   30.0380   42.3820 N   0  0  0  0  0  0  0  0  0  0  0  0
   42.6260   31.1500   42.4210 H   0  0  0  0  0  0  0  0  0  0  0  0
   41.7770   33.0100   41.1030 H   0  0  0  0  0  0  0  0  0  0  0  0
   39.2500   33.2610   40.0730 C   0  0  0  0  0  0  0  0  0  0  0  0
   38.3430   32.7710   39.1870 F   0  0  0  0  0  0  0  0  0  0  0  0
   38.6370   34.1580   40.9360 F   0  0  0  0  0  0  0  0  0  0  0  0
   40.3060   33.8740   39.4210 F   0  0  0  0  0  0  0  0  0  0  0  0
   37.5310   25.7490   40.6590 N   0  0  0  0  0  0  0  0  0  0  0  0
   36.5140   25.7380   39.6250 C   0  0  0  0  0  3  0  0  0  0  0  0
   36.9470   26.1940   38.7200 H   0  0  0  0  0  0  0  0  0  0  0  0
   36.1700   24.2580   39.4200 C   0  0  0  0  0  3  0  0  0  0  0  0
   35.0900   24.2340   39.1480 H   0  0  0  0  0  0  0  0  0  0  0  0
   36.2670   23.5400   40.6130 O   0  0  0  0  0  0  0  0  0  0  0  0
   37.5730   23.3980   41.0630 C   0  0  0  0  0  2  0  0  0  0  0  0
   38.4230   24.6180   40.7570 C   0  0  0  0  0  2  0  0  0  0  0  0
  1  2  1  0  0  0  0
  2  7  2  0  0  0  0
  2  3  1  0  0  0  0
  3  4  2  0  0  0  0
  4  5  1  0  0  0  0
  4  8  1  0  0  0  0
  5  9  1  0  0  0  0
  6 10  1  0  0  0  0
  6  5  2  0  0  0  0
  7  6  1  0  0  0  0
 11 16  1  0  0  0  0
 11 17  1  0  0  0  0
 12 11  2  0  0  0  0
 13 14  2  0  0  0  0
 13 12  1  0  0  0  0
 14 15  1  0  0  0  0
 15  3  1  0  0  0  0
 15 16  2  0  0  0  0
 18 12  1  0  0  0  0
 19 13  1  0  0  0  0
 19 21  1  0  0  0  0
 20 19  1  0  0  0  0
 22 19  1  0  0  0  0
 23 30  1  0  0  0  0
 23  7  1  0  0  0  0
 24 23  1  0  0  0  0
 25 24  1  0  0  0  0
 26 24  1  0  0  0  0
 26 28  1  0  0  0  0
 27 26  1  0  0  0  0
 28 29  1  0  0  0  0
 30 29  1  0  0  0  0
M  END
>  <minimizedAffinity>
-5.37458038

$$$$

 OpenBabel03252500113D

 30 32  0  0  0  0  0  0  0  0999 V2000
   38.2250   28.3690   39.2250 Cl  0  0  0  0  0  0  0  0  0  0  0  0
   37.9300   28.2120   40.9260 C   0  0  0  0  0  0  0  0  0  0  0  0
   37.8960   29.3100   41.7510 C   0  0  0  0  0  0  0  0  0  0  0  0
   37.6610   29.2090   43.1140 C   0  0  0  0  0  0  0  0  0  0  0  0
   37.4600   27.9350   43.6040 C   0  0  0  0  0  0  0  0  0  0  0  0
   37.4910   26.8300   42.7890 C   0  0  0  0  0  0  0  0  0  0  0  0
   37.7240   26.9560   41.4500 C   0  0  0  0  0  0  0  0  0  0  0  0
   37.6370   30.0830   43.7550 H   0  0  0  0  0  0  0  0  0  0  0  0
   37.2770   27.8800   44.6790 H   0  0  0  0  0  0  0  0  0  0  0  0
   37.3230   25.8650   43.2540 H   0  0  0  0  0  0  0  0  0  0  0  0
   37.3050   32.5710   40.1330 C   0  0  0  0  0  0  0  0  0  0  0  0
   38.5990   33.1300   40.0740 C   0  0  0  0  0  0  0  0  0  0  0  0
   39.6480   32.3750   40.5920 C   0  0  0  0  0  0  0  0  0  0  0  0
   39.3920   31.1530   41.1230 N   0  0  0  0  0  0  0  0  0  0  0  0
   38.1200   30.6430   41.1630 C   0  0  0  0  0  0  0  0  0  0  0  0
   37.0960   31.3540   40.6700 N   0  0  0  0  0  0  0  0  0  0  0  0
   36.5520   33.2010   39.7210 H   0  0  0  0  0  0  0  0  0  0  0  0
   38.8160   34.0860   39.6610 H   0  0  0  0  0  0  0  0  0  0  0  0
   41.0780   32.8490   40.5930 C   0  0  0  0  0  0  0  0  0  0  0  0
   41.1530   34.1610   40.9420 F   0  0  0  0  0  0  0  0  0  0  0  0
   41.7930   32.0730   41.4960 F   0  0  0  0  0  0  0  0  0  0  0  0
   41.5520   32.6440   39.3090 F   0  0  0  0  0  0  0  0  0  0  0  0
   37.7480   25.7850   40.6380 N   0  0  0  0  0  0  0  0  0  0  0  0
   36.5800   25.3100   39.9230 C   0  0  0  0  0  3  0  0  0  0  0  0
   36.5840   25.7720   38.9230 H   0  0  0  0  0  0  0  0  0  0  0  0
   36.7440   23.7870   39.8590 C   0  0  0  0  0  3  0  0  0  0  0  0
   35.7110   23.3700   39.8940 H   0  0  0  0  0  0  0  0  0  0  0  0
   37.3820   23.2930   40.9980 O   0  0  0  0  0  0  0  0  0  0  0  0
   38.7210   23.6510   41.0750 C   0  0  0  0  0  2  0  0  0  0  0  0
   38.9780   25.0390   40.5170 C   0  0  0  0  0  2  0  0  0  0  0  0
  1  2  1  0  0  0  0
  2  7  2  0  0  0  0
  2  3  1  0  0  0  0
  3  4  2  0  0  0  0
  4  5  1  0  0  0  0
  4  8  1  0  0  0  0
  5  9  1  0  0  0  0
  6 10  1  0  0  0  0
  6  5  2  0  0  0  0
  7  6  1  0  0  0  0
 11 16  1  0  0  0  0
 12 11  2  0  0  0  0
 12 13  1  0  0  0  0
 13 19  1  0  0  0  0
 13 14  2  0  0  0  0
 14 15  1  0  0  0  0
 15  3  1  0  0  0  0
 16 15  2  0  0  0  0
 17 11  1  0  0  0  0
 18 12  1  0  0  0  0
 19 20  1  0  0  0  0
 19 21  1  0  0  0  0
 22 19  1  0  0  0  0
 23  7  1  0  0  0  0
 24 23  1  0  0  0  0
 25 24  1  0  0  0  0
 26 27  1  0  0  0  0
 26 24  1  0  0  0  0
 26 28  1  0  0  0  0
 28 29  1  0  0  0  0
 30 23  1  0  0  0  0
 30 29  1  0  0  0  0
M  END
>  <minimizedAffinity>
-5.31288576

$$$$

 OpenBabel03252500113D

 30 32  0  0  0  0  0  0  0  0999 V2000
   38.5000   27.4970   39.3410 Cl  0  0  0  0  0  0  0  0  0  0  0  0
   37.9920   27.7690   40.9770 C   0  0  0  0  0  0  0  0  0  0  0  0
   37.5720   26.7350   41.7780 C   0  0  0  0  0  0  0  0  0  0  0  0
   37.1620   26.9280   43.0880 C   0  0  0  0  0  0  0  0  0  0  0  0
   37.1990   28.2270   43.5510 C   0  0  0  0  0  0  0  0  0  0  0  0
   37.6170   29.2690   42.7610 C   0  0  0  0  0  0  0  0  0  0  0  0
   38.0170   29.0520   41.4740 C   0  0  0  0  0  0  0  0  0  0  0  0
   36.8320   26.1030   43.7100 H   0  0  0  0  0  0  0  0  0  0  0  0
   36.8720   28.3560   44.5850 H   0  0  0  0  0  0  0  0  0  0  0  0
   37.6160   30.2590   43.2020 H   0  0  0  0  0  0  0  0  0  0  0  0
   38.5840   23.3040   40.8780 C   0  0  0  0  0  0  0  0  0  0  0  0
   37.4710   22.8300   40.1520 C   0  0  0  0  0  0  0  0  0  0  0  0
   36.3960   23.6990   39.9870 C   0  0  0  0  0  0  0  0  0  0  0  0
   36.4570   24.9450   40.5200 N   0  0  0  0  0  0  0  0  0  0  0  0
   37.5570   25.3710   41.2200 C   0  0  0  0  0  0  0  0  0  0  0  0
   38.6030   24.5500   41.3900 N   0  0  0  0  0  0  0  0  0  0  0  0
   39.3690   22.5900   40.9660 H   0  0  0  0  0  0  0  0  0  0  0  0
   37.4080   21.8560   39.7280 H   0  0  0  0  0  0  0  0  0  0  0  0
   35.1460   23.3240   39.2350 C   0  0  0  0  0  0  0  0  0  0  0  0
   34.1330   23.0330   40.0940 F   0  0  0  0  0  0  0  0  0  0  0  0
   34.7910   24.3900   38.4210 F   0  0  0  0  0  0  0  0  0  0  0  0
   35.4780   22.2250   38.4610 F   0  0  0  0  0  0  0  0  0  0  0  0
   38.4440   30.1600   40.6850 N   0  0  0  0  0  0  0  0  0  0  0  0
   39.8180   30.6200   40.6710 C   0  0  0  0  0  3  0  0  0  0  0  0
   40.3460   30.0870   39.8640 H   0  0  0  0  0  0  0  0  0  0  0  0
   39.7300   32.1280   40.4090 C   0  0  0  0  0  3  0  0  0  0  0  0
   40.5880   32.5810   40.9580 H   0  0  0  0  0  0  0  0  0  0  0  0
   38.5870   32.6820   40.9870 O   0  0  0  0  0  0  0  0  0  0  0  0
   37.4110   32.2860   40.3640 C   0  0  0  0  0  2  0  0  0  0  0  0
   37.4780   30.8540   39.8660 C   0  0  0  0  0  2  0  0  0  0  0  0
  1  2  1  0  0  0  0
  2  7  2  0  0  0  0
  2  3  1  0  0  0  0
  3  4  2  0  0  0  0
  4  5  1  0  0  0  0
  4  8  1  0  0  0  0
  5  9  1  0  0  0  0
  6 10  1  0  0  0  0
  6  5  2  0  0  0  0
  7  6  1  0  0  0  0
 11 17  1  0  0  0  0
 11 16  1  0  0  0  0
 12 11  2  0  0  0  0
 13 12  1  0  0  0  0
 13 14  2  0  0  0  0
 14 15  1  0  0  0  0
 15 16  2  0  0  0  0
 15  3  1  0  0  0  0
 18 12  1  0  0  0  0
 19 13  1  0  0  0  0
 19 20  1  0  0  0  0
 21 19  1  0  0  0  0
 22 19  1  0  0  0  0
 23  7  1  0  0  0  0
 24 23  1  0  0  0  0
 25 24  1  0  0  0  0
 26 24  1  0  0  0  0
 26 27  1  0  0  0  0
 26 28  1  0  0  0  0
 29 28  1  0  0  0  0
 30 29  1  0  0  0  0
 30 23  1  0  0  0  0
M  END
>  <minimizedAffinity>
-5.27410078

$$$$

 OpenBabel03252500113D

 30 32  0  0  0  0  0  0  0  0999 V2000
   39.2890   30.0990   41.5930 Cl  0  0  0  0  0  0  0  0  0  0  0  0
   38.0760   30.0260   40.3560 C   0  0  0  0  0  0  0  0  0  0  0  0
   37.9890   30.9890   39.3810 C   0  0  0  0  0  0  0  0  0  0  0  0
   37.0290   30.9520   38.3810 C   0  0  0  0  0  0  0  0  0  0  0  0
   36.1550   29.8840   38.4170 C   0  0  0  0  0  0  0  0  0  0  0  0
   36.2320   28.9160   39.3870 C   0  0  0  0  0  0  0  0  0  0  0  0
   37.1880   28.9750   40.3600 C   0  0  0  0  0  0  0  0  0  0  0  0
   36.9710   31.7180   37.6170 H   0  0  0  0  0  0  0  0  0  0  0  0
   35.4080   29.8750   37.6210 H   0  0  0  0  0  0  0  0  0  0  0  0
   35.5070   28.1100   39.3430 H   0  0  0  0  0  0  0  0  0  0  0  0
   39.6680   34.1590   40.2430 C   0  0  0  0  0  0  0  0  0  0  0  0
   40.7920   34.1590   39.3910 C   0  0  0  0  0  0  0  0  0  0  0  0
   40.9510   33.0700   38.5380 C   0  0  0  0  0  0  0  0  0  0  0  0
   40.0350   32.0680   38.5580 N   0  0  0  0  0  0  0  0  0  0  0  0
   38.9540   32.1030   39.4000 C   0  0  0  0  0  0  0  0  0  0  0  0
   38.7830   33.1430   40.2290 N   0  0  0  0  0  0  0  0  0  0  0  0
   39.6080   35.0190   40.8670 H   0  0  0  0  0  0  0  0  0  0  0  0
   41.5180   34.9360   39.3640 H   0  0  0  0  0  0  0  0  0  0  0  0
   42.1040   32.9410   37.5780 C   0  0  0  0  0  0  0  0  0  0  0  0
   41.8680   31.9600   36.6670 F   0  0  0  0  0  0  0  0  0  0  0  0
   42.2740   34.1590   36.9350 F   0  0  0  0  0  0  0  0  0  0  0  0
   43.2160   32.6510   38.3500 F   0  0  0  0  0  0  0  0  0  0  0  0
   37.2340   27.9500   41.3490 N   0  0  0  0  0  0  0  0  0  0  0  0
   36.6080   28.0940   42.6480 C   0  0  0  0  0  3  0  0  0  0  0  0
   35.5780   27.7090   42.5720 H   0  0  0  0  0  0  0  0  0  0  0  0
   37.4700   27.2580   43.6010 C   0  0  0  0  0  3  0  0  0  0  0  0
   37.4270   27.7810   44.5850 H   0  0  0  0  0  0  0  0  0  0  0  0
   38.8140   27.2810   43.2280 O   0  0  0  0  0  0  0  0  0  0  0  0
   39.0670   26.5930   42.0480 C   0  0  0  0  0  2  0  0  0  0  0  0
   37.9280   26.7180   41.0530 C   0  0  0  0  0  2  0  0  0  0  0  0
  2  7  1  0  0  0  0
  2  1  1  0  0  0  0
  3 15  1  0  0  0  0
  3  2  2  0  0  0  0
  4  5  2  0  0  0  0
  4  3  1  0  0  0  0
  5  6  1  0  0  0  0
  6  7  2  0  0  0  0
  7 23  1  0  0  0  0
  8  4  1  0  0  0  0
  9  5  1  0  0  0  0
 10  6  1  0  0  0  0
 11 17  1  0  0  0  0
 12 11  2  0  0  0  0
 13 14  2  0  0  0  0
 13 12  1  0  0  0  0
 14 15  1  0  0  0  0
 15 16  2  0  0  0  0
 16 11  1  0  0  0  0
 18 12  1  0  0  0  0
 19 22  1  0  0  0  0
 19 13  1  0  0  0  0
 20 19  1  0  0  0  0
 21 19  1  0  0  0  0
 23 24  1  0  0  0  0
 24 26  1  0  0  0  0
 25 24  1  0  0  0  0
 26 27  1  0  0  0  0
 28 26  1  0  0  0  0
 29 28  1  0  0  0  0
 30 23  1  0  0  0  0
 30 29  1  0  0  0  0
M  END
>  <minimizedAffinity>
-5.2162199

$$$$

 OpenBabel03252500113D

 30 32  0  0  0  0  0  0  0  0999 V2000
   39.6610   30.2920   38.2910 Cl  0  0  0  0  0  0  0  0  0  0  0  0
   39.1720   31.7890   39.0150 C   0  0  0  0  0  0  0  0  0  0  0  0
   37.8820   31.9920   39.4400 C   0  0  0  0  0  0  0  0  0  0  0  0
   37.4680   33.1800   40.0230 C   0  0  0  0  0  0  0  0  0  0  0  0
   38.4320   34.1600   40.1560 C   0  0  0  0  0  0  0  0  0  0  0  0
   39.7240   33.9690   39.7340 C   0  0  0  0  0  0  0  0  0  0  0  0
   40.1060   32.7900   39.1640 C   0  0  0  0  0  0  0  0  0  0  0  0
   36.4470   33.3280   40.3540 H   0  0  0  0  0  0  0  0  0  0  0  0
   38.0830   35.0870   40.6170 H   0  0  0  0  0  0  0  0  0  0  0  0
   40.4190   34.7900   39.8760 H   0  0  0  0  0  0  0  0  0  0  0  0
   35.4320   29.3330   40.1710 C   0  0  0  0  0  0  0  0  0  0  0  0
   35.0790   28.8720   38.8860 C   0  0  0  0  0  0  0  0  0  0  0  0
   35.6900   29.4840   37.7940 C   0  0  0  0  0  0  0  0  0  0  0  0
   36.5850   30.4820   38.0040 N   0  0  0  0  0  0  0  0  0  0  0  0
   36.9030   30.9040   39.2690 C   0  0  0  0  0  0  0  0  0  0  0  0
   36.3260   30.3280   40.3330 N   0  0  0  0  0  0  0  0  0  0  0  0
   34.9290   28.8230   40.9580 H   0  0  0  0  0  0  0  0  0  0  0  0
   34.3800   28.0910   38.7050 H   0  0  0  0  0  0  0  0  0  0  0  0
   35.4060   29.0910   36.3690 C   0  0  0  0  0  0  0  0  0  0  0  0
   35.8990   30.0170   35.5030 F   0  0  0  0  0  0  0  0  0  0  0  0
   35.9940   27.8560   36.1320 F   0  0  0  0  0  0  0  0  0  0  0  0
   34.0290   28.9910   36.2640 F   0  0  0  0  0  0  0  0  0  0  0  0
   41.4580   32.6310   38.7400 N   0  0  0  0  0  0  0  0  0  0  0  0
   42.4900   32.1060   39.6130 C   0  0  0  0  0  3  0  0  0  0  0  0
   42.5210   31.0120   39.4810 H   0  0  0  0  0  0  0  0  0  0  0  0
   43.7850   32.7830   39.1490 C   0  0  0  0  0  3  0  0  0  0  0  0
   44.4080   32.9020   40.0660 H   0  0  0  0  0  0  0  0  0  0  0  0
   43.5490   34.0790   38.6900 O   0  0  0  0  0  0  0  0  0  0  0  0
   42.8450   34.1180   37.4940 C   0  0  0  0  0  2  0  0  0  0  0  0
   41.8200   33.0030   37.3930 C   0  0  0  0  0  2  0  0  0  0  0  0
  1  2  1  0  0  0  0
  2  7  2  0  0  0  0
  2  3  1  0  0  0  0
  3  4  2  0  0  0  0
  4  5  1  0  0  0  0
  4  8  1  0  0  0  0
  5  9  1  0  0  0  0
  6 10  1  0  0  0  0
  6  5  2  0  0  0  0
  7  6  1  0  0  0  0
 11 16  1  0  0  0  0
 11 17  1  0  0  0  0
 12 11  2  0  0  0  0
 13 14  2  0  0  0  0
 13 12  1  0  0  0  0
 14 15  1  0  0  0  0
 15  3  1  0  0  0  0
 15 16  2  0  0  0  0
 18 12  1  0  0  0  0
 19 13  1  0  0  0  0
 20 19  1  0  0  0  0
 21 19  1  0  0  0  0
 22 19  1  0  0  0  0
 23  7  1  0  0  0  0
 23 24  1  0  0  0  0
 25 24  1  0  0  0  0
 26 24  1  0  0  0  0
 26 27  1  0  0  0  0
 28 26  1  0  0  0  0
 29 28  1  0  0  0  0
 30 29  1  0  0  0  0
 30 23  1  0  0  0  0
M  END
>  <minimizedAffinity>
-5.21030283

$$$$

 OpenBabel03252500113D

 30 32  0  0  0  0  0  0  0  0999 V2000
   40.1070   30.3910   38.8290 Cl  0  0  0  0  0  0  0  0  0  0  0  0
   39.2980   31.8510   39.2960 C   0  0  0  0  0  0  0  0  0  0  0  0
   38.0000   32.1020   38.9230 C   0  0  0  0  0  0  0  0  0  0  0  0
   37.3320   33.2610   39.2850 C   0  0  0  0  0  0  0  0  0  0  0  0
   38.0470   34.1610   40.0500 C   0  0  0  0  0  0  0  0  0  0  0  0
   39.3440   33.9220   40.4290 C   0  0  0  0  0  0  0  0  0  0  0  0
   39.9790   32.7720   40.0600 C   0  0  0  0  0  0  0  0  0  0  0  0
   36.3080   33.4480   38.9830 H   0  0  0  0  0  0  0  0  0  0  0  0
   37.5010   35.0670   40.3230 H   0  0  0  0  0  0  0  0  0  0  0  0
   39.8340   34.6800   41.0300 H   0  0  0  0  0  0  0  0  0  0  0  0
   36.8460   30.1110   36.0390 C   0  0  0  0  0  0  0  0  0  0  0  0
   35.9440   29.2020   36.6290 C   0  0  0  0  0  0  0  0  0  0  0  0
   35.7510   29.2900   38.0050 C   0  0  0  0  0  0  0  0  0  0  0  0
   36.4240   30.2310   38.7140 N   0  0  0  0  0  0  0  0  0  0  0  0
   37.2940   31.0990   38.1060 C   0  0  0  0  0  0  0  0  0  0  0  0
   37.4950   31.0300   36.7820 N   0  0  0  0  0  0  0  0  0  0  0  0
   36.9470   29.9880   34.9870 H   0  0  0  0  0  0  0  0  0  0  0  0
   35.4090   28.4590   36.0870 H   0  0  0  0  0  0  0  0  0  0  0  0
   34.8170   28.3830   38.7620 C   0  0  0  0  0  0  0  0  0  0  0  0
   33.5860   28.9460   38.8830 F   0  0  0  0  0  0  0  0  0  0  0  0
   34.7270   27.1800   38.0760 F   0  0  0  0  0  0  0  0  0  0  0  0
   35.3990   28.1810   40.0020 F   0  0  0  0  0  0  0  0  0  0  0  0
   41.3270   32.5600   40.4740 N   0  0  0  0  0  0  0  0  0  0  0  0
   41.6630   31.8690   41.7040 C   0  0  0  0  0  3  0  0  0  0  0  0
   41.7680   30.7970   41.4710 H   0  0  0  0  0  0  0  0  0  0  0  0
   42.9850   32.4940   42.1630 C   0  0  0  0  0  3  0  0  0  0  0  0
   42.9600   32.4660   43.2780 H   0  0  0  0  0  0  0  0  0  0  0  0
   43.0550   33.8470   41.8280 O   0  0  0  0  0  0  0  0  0  0  0  0
   43.1750   34.0680   40.4630 C   0  0  0  0  0  2  0  0  0  0  0  0
   42.4020   33.0490   39.6450 C   0  0  0  0  0  2  0  0  0  0  0  0
  1  2  1  0  0  0  0
  2  7  1  0  0  0  0
  3  4  1  0  0  0  0
  3  2  2  0  0  0  0
  4  5  2  0  0  0  0
  5  9  1  0  0  0  0
  5  6  1  0  0  0  0
  6 10  1  0  0  0  0
  7  6  2  0  0  0  0
  7 23  1  0  0  0  0
  8  4  1  0  0  0  0
 11 12  2  0  0  0  0
 11 16  1  0  0  0  0
 12 13  1  0  0  0  0
 13 14  2  0  0  0  0
 13 19  1  0  0  0  0
 15 14  1  0  0  0  0
 15  3  1  0  0  0  0
 16 15  2  0  0  0  0
 17 11  1  0  0  0  0
 18 12  1  0  0  0  0
 19 20  1  0  0  0  0
 19 22  1  0  0  0  0
 21 19  1  0  0  0  0
 23 24  1  0  0  0  0
 24 26  1  0  0  0  0
 25 24  1  0  0  0  0
 26 27  1  0  0  0  0
 28 26  1  0  0  0  0
 29 28  1  0  0  0  0
 30 29  1  0  0  0  0
 30 23  1  0  0  0  0
M  END
>  <minimizedAffinity>
-5.20352507

$$$$
