
 OpenBabel03242523253D

 42 45  0  0  1  0  0  0  0  0999 V2000
   36.8230   29.1300   40.1880 C   0  0  0  0  0  0  0  0  0  0  0  0
   36.8570   28.0380   40.9480 C   0  0  0  0  0  0  0  0  0  0  0  0
   36.9830   26.8580   40.2450 C   0  0  0  0  0  0  0  0  0  0  0  0
   37.0570   26.9110   38.8430 N   0  0  0  0  0  0  0  0  0  0  0  0
   37.0150   28.0260   38.1640 C   0  0  0  0  0  0  0  0  0  0  0  0
   36.8920   29.2310   38.8220 N   0  0  0  0  0  0  0  0  0  0  0  0
   37.0320   25.8650   40.6700 H   0  0  0  0  0  0  0  0  0  0  0  0
   37.0840   27.9010   37.0870 H   0  0  0  0  0  0  0  0  0  0  0  0
   36.6670   27.9540   42.3450 C   0  0  1  0  0  0  0  0  0  0  0  0
   36.6010   26.8400   43.1240 C   0  0  0  0  0  0  0  0  0  0  0  0
   37.9070   27.5730   43.2380 C   0  0  1  0  0  0  0  0  0  0  0  0
   36.0570   28.8000   42.7640 H   0  0  0  0  0  0  0  0  0  0  0  0
   36.0990   26.7090   44.1100 H   0  0  0  0  0  0  0  0  0  0  0  0
   36.5850   25.8270   42.6170 H   0  0  0  0  0  0  0  0  0  0  0  0
   38.0350   28.2430   44.1190 H   0  0  0  0  0  0  0  0  0  0  0  0
   39.0050   26.9010   42.6790 N   0  0  1  0  0  0  0  0  0  0  0  0
   40.2990   27.4190   42.7730 C   0  0  0  0  0  3  0  0  0  0  0  0
   40.3160   28.4690   43.0590 H   0  0  0  0  0  0  0  0  0  0  0  0
   41.2320   26.5970   43.6580 C   0  0  0  0  0  3  0  0  0  0  0  0
   42.2470   26.9950   43.5940 H   0  0  0  0  0  0  0  0  0  0  0  0
   41.2660   25.3330   43.0250 O   0  0  0  0  0  0  0  0  0  0  0  0
   40.0530   24.7460   43.2720 C   0  0  0  0  0  2  0  0  0  0  0  0
   38.8460   25.4930   42.8590 C   0  0  0  0  0  2  0  0  0  0  0  0
   36.7720   30.5280   40.6680 C   0  0  0  0  0  0  0  0  0  0  0  0
   36.2110   31.5140   41.0460 O   0  0  0  0  0  0  0  0  0  0  0  0
   37.8140   32.3770   38.4250 Cl  0  0  0  0  0  0  0  0  0  0  0  0
   38.8130   31.8920   39.7960 C   0  0  0  0  0  0  0  0  0  0  0  0
   38.1730   31.0510   40.7400 C   0  0  0  0  0  0  0  0  0  0  0  0
   39.0470   30.7480   41.7590 C   0  0  0  0  0  0  0  0  0  0  0  0
   40.3070   31.1030   41.9620 C   0  0  0  0  0  0  0  0  0  0  0  0
   40.8560   31.9210   40.9970 C   0  0  0  0  0  0  0  0  0  0  0  0
   40.1240   32.3180   39.9210 C   0  0  0  0  0  0  0  0  0  0  0  0
   38.6650   30.1190   42.5980 H   0  0  0  0  0  0  0  0  0  0  0  0
   40.9260   30.8090   42.8070 H   0  0  0  0  0  0  0  0  0  0  0  0
   41.9060   32.2410   41.1270 H   0  0  0  0  0  0  0  0  0  0  0  0
   40.7750   33.1320   39.0350 O   0  0  0  0  0  0  0  0  0  0  0  0
   42.7600   31.8020   37.9610 O   0  0  0  0  0  0  0  0  0  0  0  0
   41.6230   32.7370   37.6210 P   0  0  0  0  0  0  0  0  0  0  0  0
   40.5560   32.0290   36.5110 O   0  0  0  0  0  0  0  0  0  0  0  0
   41.0180   31.2980   36.0060 H   0  0  0  0  0  0  0  0  0  0  0  0
   42.2230   34.1200   36.8540 O   0  0  0  0  0  0  0  0  0  0  0  0
   43.2140   34.1160   36.8920 H   0  0  0  0  0  0  0  0  0  0  0  0
  1 24  1  0  0  0  0
  1  2  1  0  0  0  0
  2  9  1  0  0  0  0
  3  7  1  0  0  0  0
  3  2  2  0  0  0  0
  4  3  1  0  0  0  0
  5  6  1  0  0  0  0
  5  4  2  0  0  0  0
  6  1  2  0  0  0  0
  8  5  1  0  0  0  0
  9 12  1  1  0  0  0
  9 10  1  0  0  0  0
  9 11  1  0  0  0  0
 10 11  1  0  0  0  0
 10 13  1  0  0  0  0
 11 15  1  1  0  0  0
 14 10  1  0  0  0  0
 16 17  1  0  0  0  0
 16 23  1  1  0  0  0
 16 11  1  0  0  0  0
 17 18  1  0  0  0  0
 17 19  1  0  0  0  0
 20 19  1  0  0  0  0
 21 22  1  0  0  0  0
 21 19  1  0  0  0  0
 23 22  1  0  0  0  0
 24 28  1  0  0  0  0
 24 25  2  0  0  0  0
 26 27  1  0  0  0  0
 27 32  2  0  0  0  0
 27 28  1  0  0  0  0
 28 29  2  0  0  0  0
 29 30  1  0  0  0  0
 29 33  1  0  0  0  0
 30 34  1  0  0  0  0
 31 35  1  0  0  0  0
 31 30  2  0  0  0  0
 32 31  1  0  0  0  0
 36 32  1  0  0  0  0
 38 37  2  0  0  0  0
 38 36  1  0  0  0  0
 39 38  1  0  0  0  0
 40 39  1  0  0  0  0
 41 42  1  0  0  0  0
 41 38  1  0  0  0  0
M  END
>  <minimizedAffinity>
-6.40051889

$$$$

 OpenBabel03242523253D

 42 45  0  0  1  0  0  0  0  0999 V2000
   38.9330   31.1260   40.5210 C   0  0  0  0  0  0  0  0  0  0  0  0
   39.4770   30.6740   39.3930 C   0  0  0  0  0  0  0  0  0  0  0  0
   38.7470   30.9550   38.2570 C   0  0  0  0  0  0  0  0  0  0  0  0
   37.5400   31.6620   38.3870 N   0  0  0  0  0  0  0  0  0  0  0  0
   37.0680   32.0730   39.5330 C   0  0  0  0  0  0  0  0  0  0  0  0
   37.7630   31.8180   40.6970 N   0  0  0  0  0  0  0  0  0  0  0  0
   39.0120   30.6810   37.2450 H   0  0  0  0  0  0  0  0  0  0  0  0
   36.1240   32.6060   39.4670 H   0  0  0  0  0  0  0  0  0  0  0  0
   40.6240   29.8630   39.2540 C   0  0  1  0  0  0  0  0  0  0  0  0
   41.4270   29.7140   38.1660 C   0  0  0  0  0  0  0  0  0  0  0  0
   42.0320   30.5690   39.2430 C   0  0  1  0  0  0  0  0  0  0  0  0
   40.5950   28.9350   39.8870 H   0  0  0  0  0  0  0  0  0  0  0  0
   42.0770   28.8520   37.8920 H   0  0  0  0  0  0  0  0  0  0  0  0
   41.1140   30.2020   37.1920 H   0  0  0  0  0  0  0  0  0  0  0  0
   42.7710   30.0830   39.9180 H   0  0  0  0  0  0  0  0  0  0  0  0
   42.1410   31.9310   38.9170 N   0  0  1  0  0  0  0  0  0  0  0  0
   42.3860   32.8950   39.8970 C   0  0  0  0  0  3  0  0  0  0  0  0
   42.2090   32.5280   40.9060 H   0  0  0  0  0  0  0  0  0  0  0  0
   43.7570   33.5540   39.7880 C   0  0  0  0  0  3  0  0  0  0  0  0
   43.8340   34.3700   40.5100 H   0  0  0  0  0  0  0  0  0  0  0  0
   43.7360   34.1610   38.5110 O   0  0  0  0  0  0  0  0  0  0  0  0
   43.8390   33.1440   37.5990 C   0  0  0  0  0  2  0  0  0  0  0  0
   42.8260   32.0700   37.6710 C   0  0  0  0  0  2  0  0  0  0  0  0
   39.5270   31.0390   41.8730 C   0  0  0  0  0  0  0  0  0  0  0  0
   40.1810   31.4470   42.7870 O   0  0  0  0  0  0  0  0  0  0  0  0
   41.6680   28.8950   42.4630 Cl  0  0  0  0  0  0  0  0  0  0  0  0
   39.9560   28.6450   42.8060 C   0  0  0  0  0  0  0  0  0  0  0  0
   39.1120   29.7370   42.4860 C   0  0  0  0  0  0  0  0  0  0  0  0
   37.8090   29.4250   42.8020 C   0  0  0  0  0  0  0  0  0  0  0  0
   37.2760   28.3300   43.3200 C   0  0  0  0  0  0  0  0  0  0  0  0
   38.1640   27.3140   43.6030 C   0  0  0  0  0  0  0  0  0  0  0  0
   39.4930   27.4600   43.3530 C   0  0  0  0  0  0  0  0  0  0  0  0
   37.0350   30.2110   42.6350 H   0  0  0  0  0  0  0  0  0  0  0  0
   36.2200   28.1730   43.5360 H   0  0  0  0  0  0  0  0  0  0  0  0
   37.7610   26.3800   44.0370 H   0  0  0  0  0  0  0  0  0  0  0  0
   40.2750   26.3860   43.6800 O   0  0  0  0  0  0  0  0  0  0  0  0
   40.5400   25.3700   41.2790 O   0  0  0  0  0  0  0  0  0  0  0  0
   40.7200   25.0440   42.7430 P   0  0  0  0  0  0  0  0  0  0  0  0
   42.3280   24.6340   43.0880 O   0  0  0  0  0  0  0  0  0  0  0  0
   42.7920   24.3300   42.2550 H   0  0  0  0  0  0  0  0  0  0  0  0
   39.8070   23.6790   43.1470 O   0  0  0  0  0  0  0  0  0  0  0  0
   39.2250   23.4320   42.3830 H   0  0  0  0  0  0  0  0  0  0  0  0
  1  6  1  0  0  0  0
  1 24  1  0  0  0  0
  2  1  2  0  0  0  0
  3  4  2  0  0  0  0
  3  2  1  0  0  0  0
  4  5  1  0  0  0  0
  5  6  2  0  0  0  0
  7  3  1  0  0  0  0
  8  5  1  0  0  0  0
  9  2  1  0  0  0  0
  9 12  1  1  0  0  0
 10 11  1  0  0  0  0
 10  9  1  0  0  0  0
 11  9  1  0  0  0  0
 11 15  1  1  0  0  0
 13 10  1  0  0  0  0
 14 10  1  0  0  0  0
 16 23  1  6  0  0  0
 16 11  1  0  0  0  0
 16 17  1  0  0  0  0
 17 18  1  0  0  0  0
 19 17  1  0  0  0  0
 19 20  1  0  0  0  0
 21 19  1  0  0  0  0
 22 23  1  0  0  0  0
 22 21  1  0  0  0  0
 24 28  1  0  0  0  0
 24 25  2  0  0  0  0
 26 27  1  0  0  0  0
 27 32  1  0  0  0  0
 28 29  1  0  0  0  0
 28 27  2  0  0  0  0
 29 30  2  0  0  0  0
 30 34  1  0  0  0  0
 30 31  1  0  0  0  0
 31 35  1  0  0  0  0
 32 31  2  0  0  0  0
 32 36  1  0  0  0  0
 33 29  1  0  0  0  0
 37 38  2  0  0  0  0
 38 39  1  0  0  0  0
 38 41  1  0  0  0  0
 38 36  1  0  0  0  0
 40 39  1  0  0  0  0
 42 41  1  0  0  0  0
M  END
>  <minimizedAffinity>
-6.12653065

$$$$

 OpenBabel03242523253D

 42 45  0  0  1  0  0  0  0  0999 V2000
   37.2220   28.7250   41.3250 C   0  0  0  0  0  0  0  0  0  0  0  0
   37.5960   27.9250   40.3300 C   0  0  0  0  0  0  0  0  0  0  0  0
   37.6420   26.5870   40.6620 C   0  0  0  0  0  0  0  0  0  0  0  0
   37.3070   26.2030   41.9710 N   0  0  0  0  0  0  0  0  0  0  0  0
   36.9490   27.0510   42.8980 C   0  0  0  0  0  0  0  0  0  0  0  0
   36.8860   28.3990   42.6140 N   0  0  0  0  0  0  0  0  0  0  0  0
   37.9170   25.7750   40.0020 H   0  0  0  0  0  0  0  0  0  0  0  0
   36.7210   26.5990   43.8590 H   0  0  0  0  0  0  0  0  0  0  0  0
   38.0490   28.2990   39.0460 C   0  0  1  0  0  0  0  0  0  0  0  0
   38.0590   27.5590   37.9040 C   0  0  0  0  0  0  0  0  0  0  0  0
   36.9690   28.5930   37.9380 C   0  0  1  0  0  0  0  0  0  0  0  0
   38.8830   29.0520   39.0680 H   0  0  0  0  0  0  0  0  0  0  0  0
   38.7170   27.6640   37.0110 H   0  0  0  0  0  0  0  0  0  0  0  0
   37.7760   26.4630   37.9670 H   0  0  0  0  0  0  0  0  0  0  0  0
   37.1550   29.5410   37.3850 H   0  0  0  0  0  0  0  0  0  0  0  0
   35.6710   28.0700   38.0550 N   0  0  1  0  0  0  0  0  0  0  0  0
   34.5730   28.8990   38.2960 C   0  0  0  0  0  3  0  0  0  0  0  0
   34.8590   29.8900   38.6440 H   0  0  0  0  0  0  0  0  0  0  0  0
   33.5970   28.9910   37.1270 C   0  0  0  0  0  3  0  0  0  0  0  0
   32.7140   29.5600   37.4260 H   0  0  0  0  0  0  0  0  0  0  0  0
   33.1620   27.6570   36.9500 O   0  0  0  0  0  0  0  0  0  0  0  0
   34.2120   26.9800   36.3880 C   0  0  0  0  0  2  0  0  0  0  0  0
   35.4980   27.0060   37.1180 C   0  0  0  0  0  2  0  0  0  0  0  0
   37.0110   30.1870   41.2380 C   0  0  0  0  0  0  0  0  0  0  0  0
   36.3380   31.1740   41.1950 O   0  0  0  0  0  0  0  0  0  0  0  0
   37.6760   31.9610   38.8010 Cl  0  0  0  0  0  0  0  0  0  0  0  0
   38.8240   31.6800   40.1110 C   0  0  0  0  0  0  0  0  0  0  0  0
   38.3510   30.8510   41.1580 C   0  0  0  0  0  0  0  0  0  0  0  0
   39.3280   30.7120   42.1170 C   0  0  0  0  0  0  0  0  0  0  0  0
   40.5560   31.2040   42.1890 C   0  0  0  0  0  0  0  0  0  0  0  0
   40.9390   32.0000   41.1310 C   0  0  0  0  0  0  0  0  0  0  0  0
   40.0890   32.2430   40.0970 C   0  0  0  0  0  0  0  0  0  0  0  0
   39.0810   30.1100   43.0240 H   0  0  0  0  0  0  0  0  0  0  0  0
   41.2660   31.0350   42.9970 H   0  0  0  0  0  0  0  0  0  0  0  0
   41.9570   32.4320   41.1510 H   0  0  0  0  0  0  0  0  0  0  0  0
   40.5800   33.0500   39.1090 O   0  0  0  0  0  0  0  0  0  0  0  0
   42.1630   31.4550   37.7610 O   0  0  0  0  0  0  0  0  0  0  0  0
   41.2400   32.6410   37.6010 P   0  0  0  0  0  0  0  0  0  0  0  0
   39.9830   32.2990   36.5170 O   0  0  0  0  0  0  0  0  0  0  0  0
   40.2450   31.5460   35.9110 H   0  0  0  0  0  0  0  0  0  0  0  0
   42.0830   33.9410   36.9220 O   0  0  0  0  0  0  0  0  0  0  0  0
   43.0500   33.7230   36.8820 H   0  0  0  0  0  0  0  0  0  0  0  0
  1  6  1  0  0  0  0
  2  3  1  0  0  0  0
  2  1  2  0  0  0  0
  3  4  2  0  0  0  0
  4  5  1  0  0  0  0
  5  8  1  0  0  0  0
  6  5  2  0  0  0  0
  7  3  1  0  0  0  0
  9 12  1  1  0  0  0
  9  2  1  0  0  0  0
 10 11  1  0  0  0  0
 10 14  1  0  0  0  0
 10  9  1  0  0  0  0
 11 15  1  6  0  0  0
 11 16  1  0  0  0  0
 11  9  1  0  0  0  0
 13 10  1  0  0  0  0
 16 23  1  6  0  0  0
 16 17  1  0  0  0  0
 17 18  1  0  0  0  0
 19 20  1  0  0  0  0
 19 17  1  0  0  0  0
 21 19  1  0  0  0  0
 22 21  1  0  0  0  0
 22 23  1  0  0  0  0
 24  1  1  0  0  0  0
 25 24  2  0  0  0  0
 26 27  1  0  0  0  0
 27 28  1  0  0  0  0
 28 24  1  0  0  0  0
 28 29  2  0  0  0  0
 29 30  1  0  0  0  0
 29 33  1  0  0  0  0
 30 34  1  0  0  0  0
 31 35  1  0  0  0  0
 31 30  2  0  0  0  0
 32 27  2  0  0  0  0
 32 31  1  0  0  0  0
 36 32  1  0  0  0  0
 38 37  2  0  0  0  0
 38 36  1  0  0  0  0
 39 38  1  0  0  0  0
 40 39  1  0  0  0  0
 41 38  1  0  0  0  0
 42 41  1  0  0  0  0
M  END
>  <minimizedAffinity>
-6.0214119

$$$$

 OpenBabel03242523253D

 42 45  0  0  1  0  0  0  0  0999 V2000
   37.7160   30.1180   41.3960 C   0  0  0  0  0  0  0  0  0  0  0  0
   37.0090   29.1160   41.9110 C   0  0  0  0  0  0  0  0  0  0  0  0
   35.8730   28.7960   41.1970 C   0  0  0  0  0  0  0  0  0  0  0  0
   35.5730   29.5310   40.0380 N   0  0  0  0  0  0  0  0  0  0  0  0
   36.3190   30.5070   39.5940 C   0  0  0  0  0  0  0  0  0  0  0  0
   37.4660   30.8620   40.2720 N   0  0  0  0  0  0  0  0  0  0  0  0
   35.1650   28.0150   41.4420 H   0  0  0  0  0  0  0  0  0  0  0  0
   35.9530   30.9770   38.6860 H   0  0  0  0  0  0  0  0  0  0  0  0
   37.2290   28.4440   43.1330 C   0  0  1  0  0  0  0  0  0  0  0  0
   36.5990   27.3380   43.6150 C   0  0  0  0  0  0  0  0  0  0  0  0
   37.9790   27.0600   43.0920 C   0  0  1  0  0  0  0  0  0  0  0  0
   37.5830   29.1210   43.9570 H   0  0  0  0  0  0  0  0  0  0  0  0
   36.4720   27.0150   44.6740 H   0  0  0  0  0  0  0  0  0  0  0  0
   35.7060   26.9330   43.0460 H   0  0  0  0  0  0  0  0  0  0  0  0
   38.7980   26.9830   43.8430 H   0  0  0  0  0  0  0  0  0  0  0  0
   38.0150   26.3070   41.9080 N   0  0  1  0  0  0  0  0  0  0  0  0
   39.2050   26.1200   41.2010 C   0  0  0  0  0  3  0  0  0  0  0  0
   39.9870   26.8160   41.4980 H   0  0  0  0  0  0  0  0  0  0  0  0
   39.7160   24.6830   41.2170 C   0  0  0  0  0  3  0  0  0  0  0  0
   40.5800   24.5900   40.5560 H   0  0  0  0  0  0  0  0  0  0  0  0
   38.6740   23.9500   40.6050 O   0  0  0  0  0  0  0  0  0  0  0  0
   37.6530   23.8960   41.5170 C   0  0  0  0  0  2  0  0  0  0  0  0
   37.1390   25.1840   42.0300 C   0  0  0  0  0  2  0  0  0  0  0  0
   39.0120   30.6230   41.9010 C   0  0  0  0  0  0  0  0  0  0  0  0
   39.7340   31.0840   42.7360 O   0  0  0  0  0  0  0  0  0  0  0  0
   39.9720   33.2030   40.5030 Cl  0  0  0  0  0  0  0  0  0  0  0  0
   40.5510   31.6020   40.0400 C   0  0  0  0  0  0  0  0  0  0  0  0
   40.0170   30.5270   40.7950 C   0  0  0  0  0  0  0  0  0  0  0  0
   40.5450   29.3380   40.3460 C   0  0  0  0  0  0  0  0  0  0  0  0
   41.4130   29.0780   39.3800 C   0  0  0  0  0  0  0  0  0  0  0  0
   41.8830   30.1780   38.6940 C   0  0  0  0  0  0  0  0  0  0  0  0
   41.4640   31.4310   39.0140 C   0  0  0  0  0  0  0  0  0  0  0  0
   40.2390   28.4050   40.8760 H   0  0  0  0  0  0  0  0  0  0  0  0
   41.7740   28.0920   39.0940 H   0  0  0  0  0  0  0  0  0  0  0  0
   42.6100   30.0060   37.8780 H   0  0  0  0  0  0  0  0  0  0  0  0
   42.0040   32.4410   38.2660 O   0  0  0  0  0  0  0  0  0  0  0  0
   44.5820   32.2960   38.7130 O   0  0  0  0  0  0  0  0  0  0  0  0
   43.5700   32.6040   37.6340 P   0  0  0  0  0  0  0  0  0  0  0  0
   43.7470   31.5620   36.3100 O   0  0  0  0  0  0  0  0  0  0  0  0
   44.6720   31.1790   36.2940 H   0  0  0  0  0  0  0  0  0  0  0  0
   43.8310   34.1610   37.0250 O   0  0  0  0  0  0  0  0  0  0  0  0
   44.5100   34.6240   37.5800 H   0  0  0  0  0  0  0  0  0  0  0  0
  1 24  1  0  0  0  0
  1  2  1  0  0  0  0
  2  9  1  0  0  0  0
  3  7  1  0  0  0  0
  3  2  2  0  0  0  0
  4  3  1  0  0  0  0
  5  4  2  0  0  0  0
  5  6  1  0  0  0  0
  6  1  2  0  0  0  0
  8  5  1  0  0  0  0
  9 10  1  0  0  0  0
  9 12  1  1  0  0  0
 10 13  1  0  0  0  0
 11  9  1  0  0  0  0
 11 10  1  0  0  0  0
 11 15  1  1  0  0  0
 14 10  1  0  0  0  0
 16 23  1  1  0  0  0
 16 11  1  0  0  0  0
 17 19  1  0  0  0  0
 17 18  1  0  0  0  0
 17 16  1  0  0  0  0
 20 19  1  0  0  0  0
 21 19  1  0  0  0  0
 21 22  1  0  0  0  0
 22 23  1  0  0  0  0
 24 25  2  0  0  0  0
 27 26  1  0  0  0  0
 27 28  1  0  0  0  0
 28 24  1  0  0  0  0
 29 28  2  0  0  0  0
 29 33  1  0  0  0  0
 30 29  1  0  0  0  0
 31 32  1  0  0  0  0
 31 30  2  0  0  0  0
 32 27  2  0  0  0  0
 34 30  1  0  0  0  0
 35 31  1  0  0  0  0
 36 32  1  0  0  0  0
 38 36  1  0  0  0  0
 38 37  2  0  0  0  0
 39 38  1  0  0  0  0
 40 39  1  0  0  0  0
 41 42  1  0  0  0  0
 41 38  1  0  0  0  0
M  END
>  <minimizedAffinity>
-5.88188648

$$$$

 OpenBabel03242523253D

 42 45  0  0  1  0  0  0  0  0999 V2000
   38.6280   31.1460   41.3520 C   0  0  0  0  0  0  0  0  0  0  0  0
   39.0800   32.3010   40.8680 C   0  0  0  0  0  0  0  0  0  0  0  0
   38.1970   32.9520   40.0320 C   0  0  0  0  0  0  0  0  0  0  0  0
   36.9490   32.3600   39.7730 N   0  0  0  0  0  0  0  0  0  0  0  0
   36.5760   31.2180   40.2860 C   0  0  0  0  0  0  0  0  0  0  0  0
   37.4230   30.5310   41.1290 N   0  0  0  0  0  0  0  0  0  0  0  0
   38.3670   33.9000   39.5390 H   0  0  0  0  0  0  0  0  0  0  0  0
   35.5830   30.8940   39.9900 H   0  0  0  0  0  0  0  0  0  0  0  0
   40.3700   32.8540   41.0220 C   0  0  1  0  0  0  0  0  0  0  0  0
   41.5490   32.2070   41.2270 C   0  0  0  0  0  0  0  0  0  0  0  0
   41.3820   32.7160   39.8240 C   0  0  1  0  0  0  0  0  0  0  0  0
   40.3640   33.8780   41.4870 H   0  0  0  0  0  0  0  0  0  0  0  0
   42.4780   32.5870   41.7090 H   0  0  0  0  0  0  0  0  0  0  0  0
   41.5270   31.0880   41.4090 H   0  0  0  0  0  0  0  0  0  0  0  0
   41.8930   33.6720   39.5690 H   0  0  0  0  0  0  0  0  0  0  0  0
   41.2030   31.7150   38.8550 N   0  0  1  0  0  0  0  0  0  0  0  0
   41.0500   32.0300   37.5030 C   0  0  0  0  0  3  0  0  0  0  0  0
   40.8140   33.0800   37.3370 H   0  0  0  0  0  0  0  0  0  0  0  0
   42.2180   31.5870   36.6280 C   0  0  0  0  0  3  0  0  0  0  0  0
   41.9800   31.7630   35.5770 H   0  0  0  0  0  0  0  0  0  0  0  0
   42.2470   30.1830   36.7930 O   0  0  0  0  0  0  0  0  0  0  0  0
   42.7350   29.9530   38.0530 C   0  0  0  0  0  2  0  0  0  0  0  0
   42.0170   30.5870   39.1800 C   0  0  0  0  0  2  0  0  0  0  0  0
   39.3220   30.2760   42.3260 C   0  0  0  0  0  0  0  0  0  0  0  0
   40.1950   30.0120   43.0990 O   0  0  0  0  0  0  0  0  0  0  0  0
   39.8060   27.9880   40.3110 Cl  0  0  0  0  0  0  0  0  0  0  0  0
   38.6270   27.8670   41.6170 C   0  0  0  0  0  0  0  0  0  0  0  0
   38.5420   29.0050   42.4590 C   0  0  0  0  0  0  0  0  0  0  0  0
   37.5980   28.7890   43.4370 C   0  0  0  0  0  0  0  0  0  0  0  0
   36.8160   27.7480   43.6800 C   0  0  0  0  0  0  0  0  0  0  0  0
   36.9590   26.6830   42.8150 C   0  0  0  0  0  0  0  0  0  0  0  0
   37.8540   26.7320   41.7920 C   0  0  0  0  0  0  0  0  0  0  0  0
   37.4490   29.5920   44.1980 H   0  0  0  0  0  0  0  0  0  0  0  0
   36.0890   27.6690   44.4860 H   0  0  0  0  0  0  0  0  0  0  0  0
   36.3250   25.7930   42.9810 H   0  0  0  0  0  0  0  0  0  0  0  0
   37.9090   25.6150   41.0050 O   0  0  0  0  0  0  0  0  0  0  0  0
   39.8800   24.0790   40.2140 O   0  0  0  0  0  0  0  0  0  0  0  0
   38.7670   24.1700   41.2330 P   0  0  0  0  0  0  0  0  0  0  0  0
   39.3770   24.1270   42.8140 O   0  0  0  0  0  0  0  0  0  0  0  0
   40.2830   23.7010   42.8220 H   0  0  0  0  0  0  0  0  0  0  0  0
   37.7530   22.8220   41.1010 O   0  0  0  0  0  0  0  0  0  0  0  0
   38.0020   22.2980   40.2960 H   0  0  0  0  0  0  0  0  0  0  0  0
  1 24  1  0  0  0  0
  2  9  1  0  0  0  0
  2  1  2  0  0  0  0
  3  2  1  0  0  0  0
  4  3  2  0  0  0  0
  4  5  1  0  0  0  0
  5  6  2  0  0  0  0
  6  1  1  0  0  0  0
  7  3  1  0  0  0  0
  8  5  1  0  0  0  0
  9 10  1  0  0  0  0
  9 12  1  1  0  0  0
 10 14  1  0  0  0  0
 10 13  1  0  0  0  0
 11 15  1  6  0  0  0
 11  9  1  0  0  0  0
 11 10  1  0  0  0  0
 16 23  1  6  0  0  0
 16 11  1  0  0  0  0
 17 16  1  0  0  0  0
 18 17  1  0  0  0  0
 19 21  1  0  0  0  0
 19 17  1  0  0  0  0
 20 19  1  0  0  0  0
 21 22  1  0  0  0  0
 22 23  1  0  0  0  0
 24 28  1  0  0  0  0
 24 25  2  0  0  0  0
 26 27  1  0  0  0  0
 27 32  2  0  0  0  0
 27 28  1  0  0  0  0
 28 29  2  0  0  0  0
 29 30  1  0  0  0  0
 29 33  1  0  0  0  0
 30 34  1  0  0  0  0
 31 35  1  0  0  0  0
 31 30  2  0  0  0  0
 32 31  1  0  0  0  0
 36 38  1  0  0  0  0
 36 32  1  0  0  0  0
 37 38  2  0  0  0  0
 38 39  1  0  0  0  0
 39 40  1  0  0  0  0
 41 38  1  0  0  0  0
 42 41  1  0  0  0  0
M  END
>  <minimizedAffinity>
-5.79404116

$$$$

 OpenBabel03242523253D

 42 45  0  0  1  0  0  0  0  0999 V2000
   37.6090   29.7720   41.4020 C   0  0  0  0  0  0  0  0  0  0  0  0
   37.9780   29.4420   42.6360 C   0  0  0  0  0  0  0  0  0  0  0  0
   39.1890   29.9730   43.0290 C   0  0  0  0  0  0  0  0  0  0  0  0
   39.8980   30.7820   42.1250 N   0  0  0  0  0  0  0  0  0  0  0  0
   39.4690   31.0620   40.9240 C   0  0  0  0  0  0  0  0  0  0  0  0
   38.2630   30.5560   40.4860 N   0  0  0  0  0  0  0  0  0  0  0  0
   39.6670   29.8300   43.9890 H   0  0  0  0  0  0  0  0  0  0  0  0
   40.1310   31.7000   40.3460 H   0  0  0  0  0  0  0  0  0  0  0  0
   37.3400   28.5390   43.5150 C   0  0  1  0  0  0  0  0  0  0  0  0
   36.5800   27.4540   43.2070 C   0  0  0  0  0  0  0  0  0  0  0  0
   37.9620   27.1020   43.6790 C   0  0  1  0  0  0  0  0  0  0  0  0
   37.0330   29.0070   44.4890 H   0  0  0  0  0  0  0  0  0  0  0  0
   35.7860   26.9640   43.8150 H   0  0  0  0  0  0  0  0  0  0  0  0
   36.3100   27.2730   42.1210 H   0  0  0  0  0  0  0  0  0  0  0  0
   38.0680   26.7890   44.7420 H   0  0  0  0  0  0  0  0  0  0  0  0
   38.8030   26.5750   42.6850 N   0  0  1  0  0  0  0  0  0  0  0  0
   40.1820   26.4760   42.8790 C   0  0  0  0  0  3  0  0  0  0  0  0
   40.5380   27.0770   43.7130 H   0  0  0  0  0  0  0  0  0  0  0  0
   40.6920   25.0410   42.9820 C   0  0  0  0  0  3  0  0  0  0  0  0
   41.7830   25.0390   43.0180 H   0  0  0  0  0  0  0  0  0  0  0  0
   40.3390   24.4700   41.7380 O   0  0  0  0  0  0  0  0  0  0  0  0
   38.9810   24.2900   41.7670 C   0  0  0  0  0  2  0  0  0  0  0  0
   38.1490   25.4820   42.0380 C   0  0  0  0  0  2  0  0  0  0  0  0
   36.3320   29.4130   40.7460 C   0  0  0  0  0  0  0  0  0  0  0  0
   35.1400   29.3970   40.6530 O   0  0  0  0  0  0  0  0  0  0  0  0
   36.6920   30.9190   38.0750 Cl  0  0  0  0  0  0  0  0  0  0  0  0
   36.8240   29.1640   38.2000 C   0  0  0  0  0  0  0  0  0  0  0  0
   36.6430   28.6380   39.5040 C   0  0  0  0  0  0  0  0  0  0  0  0
   36.7750   27.2690   39.4730 C   0  0  0  0  0  0  0  0  0  0  0  0
   37.0230   26.4380   38.4730 C   0  0  0  0  0  0  0  0  0  0  0  0
   37.1850   27.0290   37.2370 C   0  0  0  0  0  0  0  0  0  0  0  0
   37.0890   28.3780   37.0920 C   0  0  0  0  0  0  0  0  0  0  0  0
   36.6920   26.7200   40.4420 H   0  0  0  0  0  0  0  0  0  0  0  0
   37.1080   25.3550   38.5460 H   0  0  0  0  0  0  0  0  0  0  0  0
   37.3940   26.3720   36.3730 H   0  0  0  0  0  0  0  0  0  0  0  0
   37.2740   28.8470   35.8210 O   0  0  0  0  0  0  0  0  0  0  0  0
   34.9190   29.4220   34.8250 O   0  0  0  0  0  0  0  0  0  0  0  0
   36.2400   28.7760   34.4780 P   0  0  0  0  0  0  0  0  0  0  0  0
   36.9790   29.5530   33.1650 O   0  0  0  0  0  0  0  0  0  0  0  0
   36.2930   30.0470   32.6270 H   0  0  0  0  0  0  0  0  0  0  0  0
   35.9880   27.1800   33.9760 O   0  0  0  0  0  0  0  0  0  0  0  0
   35.0410   26.9300   34.1320 H   0  0  0  0  0  0  0  0  0  0  0  0
  1  2  1  0  0  0  0
  2  3  2  0  0  0  0
  2  9  1  0  0  0  0
  3  7  1  0  0  0  0
  4  3  1  0  0  0  0
  5  4  2  0  0  0  0
  6  5  1  0  0  0  0
  6  1  2  0  0  0  0
  8  5  1  0  0  0  0
  9 11  1  0  0  0  0
  9 12  1  1  0  0  0
 10  9  1  0  0  0  0
 10 11  1  0  0  0  0
 10 13  1  0  0  0  0
 11 15  1  1  0  0  0
 14 10  1  0  0  0  0
 16 23  1  1  0  0  0
 16 17  1  0  0  0  0
 16 11  1  0  0  0  0
 17 19  1  0  0  0  0
 17 18  1  0  0  0  0
 19 20  1  0  0  0  0
 21 22  1  0  0  0  0
 21 19  1  0  0  0  0
 22 23  1  0  0  0  0
 24  1  1  0  0  0  0
 25 24  2  0  0  0  0
 26 27  1  0  0  0  0
 27 28  1  0  0  0  0
 28 24  1  0  0  0  0
 29 28  2  0  0  0  0
 29 33  1  0  0  0  0
 30 34  1  0  0  0  0
 30 29  1  0  0  0  0
 31 30  2  0  0  0  0
 32 31  1  0  0  0  0
 32 27  2  0  0  0  0
 35 31  1  0  0  0  0
 36 32  1  0  0  0  0
 38 37  2  0  0  0  0
 38 36  1  0  0  0  0
 39 38  1  0  0  0  0
 40 39  1  0  0  0  0
 41 42  1  0  0  0  0
 41 38  1  0  0  0  0
M  END
>  <minimizedAffinity>
-5.78760481

$$$$

 OpenBabel03242523253D

 42 45  0  0  1  0  0  0  0  0999 V2000
   36.4430   26.8500   40.1870 C   0  0  0  0  0  0  0  0  0  0  0  0
   36.9580   26.7780   41.4130 C   0  0  0  0  0  0  0  0  0  0  0  0
   37.4060   25.5230   41.7690 C   0  0  0  0  0  0  0  0  0  0  0  0
   37.2820   24.4730   40.8440 N   0  0  0  0  0  0  0  0  0  0  0  0
   36.7630   24.6210   39.6550 C   0  0  0  0  0  0  0  0  0  0  0  0
   36.3020   25.8570   39.2520 N   0  0  0  0  0  0  0  0  0  0  0  0
   37.8580   25.2520   42.7140 H   0  0  0  0  0  0  0  0  0  0  0  0
   36.7370   23.7140   39.0580 H   0  0  0  0  0  0  0  0  0  0  0  0
   36.9850   27.7900   42.3970 C   0  0  1  0  0  0  0  0  0  0  0  0
   37.4970   27.7310   43.6560 C   0  0  0  0  0  0  0  0  0  0  0  0
   38.3610   28.4960   42.6940 C   0  0  1  0  0  0  0  0  0  0  0  0
   36.1220   28.5060   42.3260 H   0  0  0  0  0  0  0  0  0  0  0  0
   37.2190   28.3350   44.5500 H   0  0  0  0  0  0  0  0  0  0  0  0
   37.8630   26.7310   44.0450 H   0  0  0  0  0  0  0  0  0  0  0  0
   38.2870   29.6060   42.7220 H   0  0  0  0  0  0  0  0  0  0  0  0
   39.5700   27.8620   42.3630 N   0  0  1  0  0  0  0  0  0  0  0  0
   40.3920   28.3530   41.3460 C   0  0  0  0  0  3  0  0  0  0  0  0
   39.8840   29.0620   40.6950 H   0  0  0  0  0  0  0  0  0  0  0  0
   41.7190   28.9190   41.8410 C   0  0  0  0  0  3  0  0  0  0  0  0
   42.3520   29.1770   40.9900 H   0  0  0  0  0  0  0  0  0  0  0  0
   42.3400   27.8150   42.4710 O   0  0  0  0  0  0  0  0  0  0  0  0
   41.6640   27.6110   43.6450 C   0  0  0  0  0  2  0  0  0  0  0  0
   40.2050   27.3940   43.5540 C   0  0  0  0  0  2  0  0  0  0  0  0
   35.9590   28.0740   39.5140 C   0  0  0  0  0  0  0  0  0  0  0  0
   35.1110   28.8010   39.0860 O   0  0  0  0  0  0  0  0  0  0  0  0
   36.2210   30.9440   40.6210 Cl  0  0  0  0  0  0  0  0  0  0  0  0
   37.4160   30.2340   39.5350 C   0  0  0  0  0  0  0  0  0  0  0  0
   37.1470   28.9020   39.1320 C   0  0  0  0  0  0  0  0  0  0  0  0
   38.1470   28.4590   38.2970 C   0  0  0  0  0  0  0  0  0  0  0  0
   39.2380   29.0600   37.8480 C   0  0  0  0  0  0  0  0  0  0  0  0
   39.4260   30.3540   38.2850 C   0  0  0  0  0  0  0  0  0  0  0  0
   38.5300   30.9440   39.1210 C   0  0  0  0  0  0  0  0  0  0  0  0
   38.0840   27.4070   37.9280 H   0  0  0  0  0  0  0  0  0  0  0  0
   39.9790   28.6240   37.1790 H   0  0  0  0  0  0  0  0  0  0  0  0
   40.3250   30.8940   37.9340 H   0  0  0  0  0  0  0  0  0  0  0  0
   38.8260   32.2270   39.4900 O   0  0  0  0  0  0  0  0  0  0  0  0
   41.0560   33.1350   40.5240 O   0  0  0  0  0  0  0  0  0  0  0  0
   39.6240   32.8020   40.8720 P   0  0  0  0  0  0  0  0  0  0  0  0
   38.8030   34.1610   41.4640 O   0  0  0  0  0  0  0  0  0  0  0  0
   39.4570   34.8320   41.8170 H   0  0  0  0  0  0  0  0  0  0  0  0
   39.5830   31.6660   42.1260 O   0  0  0  0  0  0  0  0  0  0  0  0
   40.5020   31.3360   42.3030 H   0  0  0  0  0  0  0  0  0  0  0  0
  1  2  1  0  0  0  0
  2  3  2  0  0  0  0
  2  9  1  0  0  0  0
  3  7  1  0  0  0  0
  4  3  1  0  0  0  0
  5  4  2  0  0  0  0
  6  5  1  0  0  0  0
  6  1  2  0  0  0  0
  8  5  1  0  0  0  0
  9 12  1  6  0  0  0
  9 11  1  0  0  0  0
  9 10  1  0  0  0  0
 10 14  1  0  0  0  0
 10 13  1  0  0  0  0
 11 15  1  1  0  0  0
 11 10  1  0  0  0  0
 16 11  1  0  0  0  0
 16 23  1  1  0  0  0
 17 19  1  0  0  0  0
 17 16  1  0  0  0  0
 18 17  1  0  0  0  0
 19 21  1  0  0  0  0
 20 19  1  0  0  0  0
 21 22  1  0  0  0  0
 23 22  1  0  0  0  0
 24  1  1  0  0  0  0
 25 24  2  0  0  0  0
 27 26  1  0  0  0  0
 28 24  1  0  0  0  0
 28 27  1  0  0  0  0
 29 28  2  0  0  0  0
 30 31  2  0  0  0  0
 30 29  1  0  0  0  0
 31 32  1  0  0  0  0
 32 36  1  0  0  0  0
 32 27  2  0  0  0  0
 33 29  1  0  0  0  0
 34 30  1  0  0  0  0
 35 31  1  0  0  0  0
 36 38  1  0  0  0  0
 37 38  2  0  0  0  0
 38 39  1  0  0  0  0
 38 41  1  0  0  0  0
 39 40  1  0  0  0  0
 41 42  1  0  0  0  0
M  END
>  <minimizedAffinity>
-5.73914385

$$$$

 OpenBabel03242523253D

 42 45  0  0  1  0  0  0  0  0999 V2000
   37.3220   30.7140   39.9130 C   0  0  0  0  0  0  0  0  0  0  0  0
   38.3790   30.3690   39.1820 C   0  0  0  0  0  0  0  0  0  0  0  0
   39.3030   31.3780   39.0070 C   0  0  0  0  0  0  0  0  0  0  0  0
   39.0560   32.6310   39.5920 N   0  0  0  0  0  0  0  0  0  0  0  0
   37.9890   32.8950   40.2990 C   0  0  0  0  0  0  0  0  0  0  0  0
   37.0370   31.9190   40.5030 N   0  0  0  0  0  0  0  0  0  0  0  0
   40.2290   31.3050   38.4510 H   0  0  0  0  0  0  0  0  0  0  0  0
   37.9430   33.9100   40.6830 H   0  0  0  0  0  0  0  0  0  0  0  0
   38.5900   29.1560   38.4900 C   0  0  1  0  0  0  0  0  0  0  0  0
   39.6590   28.7900   37.7320 C   0  0  0  0  0  0  0  0  0  0  0  0
   39.6340   28.1380   39.0850 C   0  0  1  0  0  0  0  0  0  0  0  0
   37.6390   28.6690   38.1420 H   0  0  0  0  0  0  0  0  0  0  0  0
   39.7040   28.0480   36.9040 H   0  0  0  0  0  0  0  0  0  0  0  0
   40.4570   29.5650   37.5140 H   0  0  0  0  0  0  0  0  0  0  0  0
   39.2480   27.0950   39.1360 H   0  0  0  0  0  0  0  0  0  0  0  0
   40.6340   28.5800   39.9670 N   0  0  1  0  0  0  0  0  0  0  0  0
   40.5790   28.2890   41.3320 C   0  0  0  0  0  3  0  0  0  0  0  0
   39.5960   27.9530   41.6550 H   0  0  0  0  0  0  0  0  0  0  0  0
   41.6680   27.3310   41.8050 C   0  0  0  0  0  3  0  0  0  0  0  0
   41.6330   27.2400   42.8930 H   0  0  0  0  0  0  0  0  0  0  0  0
   42.8690   28.0160   41.5070 O   0  0  0  0  0  0  0  0  0  0  0  0
   43.0160   27.9600   40.1460 C   0  0  0  0  0  2  0  0  0  0  0  0
   41.9080   28.4920   39.3260 C   0  0  0  0  0  2  0  0  0  0  0  0
   36.2160   29.8220   40.3260 C   0  0  0  0  0  0  0  0  0  0  0  0
   35.0920   29.4170   40.2900 O   0  0  0  0  0  0  0  0  0  0  0  0
   36.2000   26.7860   39.7620 Cl  0  0  0  0  0  0  0  0  0  0  0  0
   36.7890   27.4660   41.2800 C   0  0  0  0  0  0  0  0  0  0  0  0
   36.7380   28.8790   41.3670 C   0  0  0  0  0  0  0  0  0  0  0  0
   37.2270   29.2870   42.5870 C   0  0  0  0  0  0  0  0  0  0  0  0
   37.6980   28.5950   43.6130 C   0  0  0  0  0  0  0  0  0  0  0  0
   37.7140   27.2270   43.4490 C   0  0  0  0  0  0  0  0  0  0  0  0
   37.2670   26.6570   42.2970 C   0  0  0  0  0  0  0  0  0  0  0  0
   37.2800   30.3850   42.7810 H   0  0  0  0  0  0  0  0  0  0  0  0
   38.0660   29.0110   44.5500 H   0  0  0  0  0  0  0  0  0  0  0  0
   38.1000   26.6100   44.2820 H   0  0  0  0  0  0  0  0  0  0  0  0
   37.3370   25.2920   42.2500 O   0  0  0  0  0  0  0  0  0  0  0  0
   39.4420   24.9610   40.7260 O   0  0  0  0  0  0  0  0  0  0  0  0
   38.6280   24.2870   41.8060 P   0  0  0  0  0  0  0  0  0  0  0  0
   39.5740   23.9590   43.1740 O   0  0  0  0  0  0  0  0  0  0  0  0
   40.5430   23.9270   42.9230 H   0  0  0  0  0  0  0  0  0  0  0  0
   38.0810   22.7810   41.2630 O   0  0  0  0  0  0  0  0  0  0  0  0
   38.2830   22.6850   40.2960 H   0  0  0  0  0  0  0  0  0  0  0  0
  1 24  1  0  0  0  0
  1  6  1  0  0  0  0
  2  1  2  0  0  0  0
  3  2  1  0  0  0  0
  3  4  2  0  0  0  0
  4  5  1  0  0  0  0
  5  6  2  0  0  0  0
  5  8  1  0  0  0  0
  7  3  1  0  0  0  0
  9 12  1  6  0  0  0
  9 11  1  0  0  0  0
  9  2  1  0  0  0  0
 10  9  1  0  0  0  0
 10 11  1  0  0  0  0
 11 15  1  1  0  0  0
 11 16  1  0  0  0  0
 13 10  1  0  0  0  0
 14 10  1  0  0  0  0
 16 23  1  6  0  0  0
 16 17  1  0  0  0  0
 17 18  1  0  0  0  0
 17 19  1  0  0  0  0
 19 20  1  0  0  0  0
 21 19  1  0  0  0  0
 22 21  1  0  0  0  0
 23 22  1  0  0  0  0
 24 28  1  0  0  0  0
 25 24  2  0  0  0  0
 26 27  1  0  0  0  0
 27 28  2  0  0  0  0
 27 32  1  0  0  0  0
 28 29  1  0  0  0  0
 29 33  1  0  0  0  0
 29 30  2  0  0  0  0
 30 34  1  0  0  0  0
 31 30  1  0  0  0  0
 31 35  1  0  0  0  0
 32 31  2  0  0  0  0
 36 32  1  0  0  0  0
 37 38  2  0  0  0  0
 38 36  1  0  0  0  0
 38 39  1  0  0  0  0
 40 39  1  0  0  0  0
 41 38  1  0  0  0  0
 42 41  1  0  0  0  0
M  END
>  <minimizedAffinity>
-5.62301445

$$$$

 OpenBabel03242523253D

 42 45  0  0  1  0  0  0  0  0999 V2000
   36.7840   27.0510   40.8710 C   0  0  0  0  0  0  0  0  0  0  0  0
   37.3510   25.9090   40.4890 C   0  0  0  0  0  0  0  0  0  0  0  0
   37.1170   25.5690   39.1730 C   0  0  0  0  0  0  0  0  0  0  0  0
   36.3280   26.4230   38.3840 N   0  0  0  0  0  0  0  0  0  0  0  0
   35.8020   27.5320   38.8320 C   0  0  0  0  0  0  0  0  0  0  0  0
   36.0100   27.9150   40.1400 N   0  0  0  0  0  0  0  0  0  0  0  0
   37.4860   24.6870   38.6660 H   0  0  0  0  0  0  0  0  0  0  0  0
   35.2180   28.0820   38.1000 H   0  0  0  0  0  0  0  0  0  0  0  0
   38.0470   24.9800   41.2940 C   0  0  1  0  0  0  0  0  0  0  0  0
   38.5830   23.7830   40.9330 C   0  0  0  0  0  0  0  0  0  0  0  0
   39.6070   24.8680   41.1130 C   0  0  1  0  0  0  0  0  0  0  0  0
   37.7210   24.9890   42.3690 H   0  0  0  0  0  0  0  0  0  0  0  0
   38.7910   22.8930   41.5690 H   0  0  0  0  0  0  0  0  0  0  0  0
   38.3790   23.3920   39.8880 H   0  0  0  0  0  0  0  0  0  0  0  0
   40.1620   24.8830   42.0780 H   0  0  0  0  0  0  0  0  0  0  0  0
   40.2170   25.3000   39.9240 N   0  0  1  0  0  0  0  0  0  0  0  0
   41.0960   26.3860   39.9120 C   0  0  0  0  0  3  0  0  0  0  0  0
   41.0330   26.9920   40.8140 H   0  0  0  0  0  0  0  0  0  0  0  0
   42.5420   26.0080   39.6070 C   0  0  0  0  0  3  0  0  0  0  0  0
   43.1460   26.9120   39.5020 H   0  0  0  0  0  0  0  0  0  0  0  0
   42.4720   25.4320   38.3180 O   0  0  0  0  0  0  0  0  0  0  0  0
   41.8880   24.2030   38.4760 C   0  0  0  0  0  2  0  0  0  0  0  0
   40.5600   24.1670   39.1250 C   0  0  0  0  0  2  0  0  0  0  0  0
   36.9270   27.6980   42.1930 C   0  0  0  0  0  0  0  0  0  0  0  0
   36.6370   27.8760   43.3390 O   0  0  0  0  0  0  0  0  0  0  0  0
   36.2960   30.6070   41.3750 Cl  0  0  0  0  0  0  0  0  0  0  0  0
   37.9320   30.0580   41.7380 C   0  0  0  0  0  0  0  0  0  0  0  0
   38.0420   28.6950   42.1090 C   0  0  0  0  0  0  0  0  0  0  0  0
   39.3580   28.3900   42.3720 C   0  0  0  0  0  0  0  0  0  0  0  0
   40.4520   29.1340   42.3250 C   0  0  0  0  0  0  0  0  0  0  0  0
   40.2600   30.4480   41.9540 C   0  0  0  0  0  0  0  0  0  0  0  0
   39.0170   30.9160   41.6620 C   0  0  0  0  0  0  0  0  0  0  0  0
   39.5890   27.3530   42.7130 H   0  0  0  0  0  0  0  0  0  0  0  0
   41.4630   28.8000   42.5510 H   0  0  0  0  0  0  0  0  0  0  0  0
   41.1480   31.1060   41.9020 H   0  0  0  0  0  0  0  0  0  0  0  0
   38.9520   32.2360   41.3130 O   0  0  0  0  0  0  0  0  0  0  0  0
   38.5780   31.8820   38.7440 O   0  0  0  0  0  0  0  0  0  0  0  0
   38.5840   32.9450   39.8170 P   0  0  0  0  0  0  0  0  0  0  0  0
   37.0800   33.7200   39.9220 O   0  0  0  0  0  0  0  0  0  0  0  0
   36.5760   33.6140   39.0630 H   0  0  0  0  0  0  0  0  0  0  0  0
   39.6920   34.1600   39.4190 O   0  0  0  0  0  0  0  0  0  0  0  0
   40.2220   33.8790   38.6290 H   0  0  0  0  0  0  0  0  0  0  0  0
  1 24  1  0  0  0  0
  2  1  1  0  0  0  0
  2  9  1  0  0  0  0
  3  2  2  0  0  0  0
  4  5  2  0  0  0  0
  4  3  1  0  0  0  0
  5  6  1  0  0  0  0
  6  1  2  0  0  0  0
  7  3  1  0  0  0  0
  8  5  1  0  0  0  0
  9 12  1  1  0  0  0
 10 11  1  0  0  0  0
 10  9  1  0  0  0  0
 10 13  1  0  0  0  0
 11  9  1  0  0  0  0
 11 15  1  1  0  0  0
 14 10  1  0  0  0  0
 16 23  1  1  0  0  0
 16 11  1  0  0  0  0
 17 16  1  0  0  0  0
 17 18  1  0  0  0  0
 19 17  1  0  0  0  0
 20 19  1  0  0  0  0
 21 22  1  0  0  0  0
 21 19  1  0  0  0  0
 22 23  1  0  0  0  0
 24 25  2  0  0  0  0
 26 27  1  0  0  0  0
 27 28  1  0  0  0  0
 28 24  1  0  0  0  0
 28 29  2  0  0  0  0
 29 33  1  0  0  0  0
 30 29  1  0  0  0  0
 30 34  1  0  0  0  0
 31 30  2  0  0  0  0
 32 27  2  0  0  0  0
 32 31  1  0  0  0  0
 35 31  1  0  0  0  0
 36 32  1  0  0  0  0
 37 38  2  0  0  0  0
 38 39  1  0  0  0  0
 38 36  1  0  0  0  0
 40 39  1  0  0  0  0
 41 38  1  0  0  0  0
 42 41  1  0  0  0  0
M  END
>  <minimizedAffinity>
-5.58423233

$$$$
