
 OpenBabel03252506443D

 41 44  0  0  1  0  0  0  0  0999 V2000
   49.4350   33.4310   41.3340 N   0  0  1  0  0  0  0  0  0  0  0  0
   50.6550   33.0690   42.0170 C   0  0  0  0  0  0  0  0  0  0  0  0
   51.2300   31.7500   41.5760 C   0  0  0  0  0  0  0  0  0  0  0  0
   50.2840   30.6490   41.9760 C   0  0  0  0  0  0  0  0  0  0  0  0
   48.8310   31.1000   41.8820 C   0  0  0  0  0  0  0  0  0  0  0  0
   48.7680   32.2370   40.9070 C   0  0  2  0  0  0  0  0  0  0  0  0
   50.3860   32.9310   43.0980 H   0  0  0  0  0  0  0  0  0  0  0  0
   51.4030   33.8890   42.0160 H   0  0  0  0  0  0  0  0  0  0  0  0
   51.6100   31.7180   40.5580 H   0  0  0  0  0  0  0  0  0  0  0  0
   52.1400   31.6040   42.2240 H   0  0  0  0  0  0  0  0  0  0  0  0
   50.4940   30.3210   43.0030 H   0  0  0  0  0  0  0  0  0  0  0  0
   50.4000   29.8230   41.2430 H   0  0  0  0  0  0  0  0  0  0  0  0
   48.5350   31.5170   42.8940 H   0  0  0  0  0  0  0  0  0  0  0  0
   48.1340   30.3260   41.6270 H   0  0  0  0  0  0  0  0  0  0  0  0
   47.6720   32.5140   40.8670 H   0  0  0  0  0  0  0  0  0  0  0  0
   47.3050   34.7460   41.9480 C   0  0  1  0  0  0  0  0  0  0  0  0
   48.4580   35.6650   41.7930 C   0  0  0  0  0  0  0  0  0  0  0  0
   48.6860   34.2660   42.2020 C   0  0  2  0  0  0  0  0  0  0  0  0
   46.7900   34.4600   40.9840 H   0  0  0  0  0  0  0  0  0  0  0  0
   48.7830   35.9780   40.7730 H   0  0  0  0  0  0  0  0  0  0  0  0
   48.6070   36.4760   42.5400 H   0  0  0  0  0  0  0  0  0  0  0  0
   48.9100   34.1240   43.2970 H   0  0  0  0  0  0  0  0  0  0  0  0
   45.5360   36.0720   43.1460 C   0  0  0  0  0  0  0  0  0  0  0  0
   46.3790   34.9550   43.0610 C   0  0  0  0  0  0  0  0  0  0  0  0
   46.2860   34.0120   44.1060 C   0  0  0  0  0  0  0  0  0  0  0  0
   45.4030   34.2340   45.1150 N   0  0  0  0  0  0  0  0  0  0  0  0
   44.6130   35.3130   45.1620 C   0  0  0  0  0  0  0  0  0  0  0  0
   44.6700   36.2530   44.1720 N   0  0  0  0  0  0  0  0  0  0  0  0
   45.6290   36.7830   42.3300 H   0  0  0  0  0  0  0  0  0  0  0  0
   46.9110   33.1170   44.1100 H   0  0  0  0  0  0  0  0  0  0  0  0
   43.9470   35.3880   46.0130 H   0  0  0  0  0  0  0  0  0  0  0  0
   49.1440   31.8100   39.5900 N   0  0  0  0  0  0  0  0  0  0  0  0
   48.5340   30.9730   39.2960 H   0  0  0  0  0  0  0  0  0  0  0  0
   49.7200   33.2640   36.7980 H   0  0  0  0  0  0  0  0  0  0  0  0
   49.4320   32.3840   37.2830 N   0  0  0  0  0  0  0  0  0  0  0  0
   48.8630   32.7820   38.5580 C   0  0  1  0  0  3  0  0  0  0  0  0
   47.4160   33.1280   38.4400 C   0  0  0  0  0  3  0  0  0  0  0  0
   47.1130   33.9020   39.1770 H   0  0  0  0  0  0  0  0  0  0  0  0
   47.2800   33.7040   37.1390 O   0  0  0  0  0  0  0  0  0  0  0  0
   47.2150   32.6180   36.2640 C   0  0  0  0  0  2  0  0  0  0  0  0
   48.4570   31.7590   36.4020 C   0  0  0  0  0  2  0  0  0  0  0  0
  1  2  1  1  0  0  0
  1 18  1  0  0  0  0
  2  7  1  0  0  0  0
  3  4  1  0  0  0  0
  3  2  1  0  0  0  0
  3 10  1  0  0  0  0
  4 11  1  0  0  0  0
  5  4  1  0  0  0  0
  5 13  1  0  0  0  0
  6 15  1  6  0  0  0
  6  1  1  0  0  0  0
  6  5  1  0  0  0  0
  8  2  1  0  0  0  0
  9  3  1  0  0  0  0
 12  4  1  0  0  0  0
 14  5  1  0  0  0  0
 16 19  1  6  0  0  0
 16 18  1  0  0  0  0
 16 24  1  0  0  0  0
 17 16  1  0  0  0  0
 17 18  1  0  0  0  0
 17 21  1  0  0  0  0
 18 22  1  1  0  0  0
 20 17  1  0  0  0  0
 23 28  1  0  0  0  0
 24 23  2  0  0  0  0
 24 25  1  0  0  0  0
 25 30  1  0  0  0  0
 25 26  2  0  0  0  0
 26 27  1  0  0  0  0
 27 31  1  0  0  0  0
 28 27  2  0  0  0  0
 29 23  1  0  0  0  0
 32  6  1  0  0  0  0
 33 32  1  0  0  0  0
 34 35  1  0  0  0  0
 35 36  1  0  0  0  0
 36 32  1  1  0  0  0
 37 36  1  0  0  0  0
 37 38  1  0  0  0  0
 39 37  1  0  0  0  0
 40 41  1  0  0  0  0
 40 39  1  0  0  0  0
 41 35  1  0  0  0  0
M  END
>  <minimizedAffinity>
-5.16108179

>  <minimizedRMSD>
2.21939874

$$$$
