
 OpenBabel03242512103D

 32 34  0  0  1  0  0  0  0  0999 V2000
   39.3710   29.5390   42.5620 C   0  0  1  0  0  0  0  0  0  0  0  0
   39.3040   29.5510   40.9870 C   0  0  0  0  0  0  0  0  0  0  0  0
   38.7280   30.6170   41.8170 C   0  0  2  0  0  0  0  0  0  0  0  0
   40.3910   29.6970   42.9470 H   0  0  0  0  0  0  0  0  0  0  0  0
   38.6860   28.7620   40.5180 H   0  0  0  0  0  0  0  0  0  0  0  0
   40.2930   29.6880   40.5000 H   0  0  0  0  0  0  0  0  0  0  0  0
   37.6610   30.6920   42.0760 H   0  0  0  0  0  0  0  0  0  0  0  0
   38.5570   28.4330   43.1430 C   0  0  0  0  0  0  0  0  0  0  0  0
   37.4940   28.7340   43.6740 O   0  0  0  0  0  0  0  0  0  0  0  0
   40.0640   26.5740   43.6790 C   0  0  0  0  0  0  0  0  0  0  0  0
   38.9310   27.0580   43.1180 C   0  0  0  0  0  0  0  0  0  0  0  0
   38.0750   26.1180   42.4750 C   0  0  0  0  0  0  0  0  0  0  0  0
   38.3990   24.8060   42.4370 N   0  0  0  0  0  0  0  0  0  0  0  0
   39.5570   24.3720   43.0190 C   0  0  0  0  0  0  0  0  0  0  0  0
   40.3550   25.2380   43.6180 N   0  0  0  0  0  0  0  0  0  0  0  0
   40.7070   27.2970   44.1650 H   0  0  0  0  0  0  0  0  0  0  0  0
   37.1590   26.3630   42.0000 H   0  0  0  0  0  0  0  0  0  0  0  0
   39.9220   23.3590   43.0550 H   0  0  0  0  0  0  0  0  0  0  0  0
   39.3580   31.8470   41.6690 O   0  0  0  0  0  0  0  0  0  0  0  0
   38.8890   34.1570   40.6200 O   0  0  0  0  0  0  0  0  0  0  0  0
   38.4920   32.7000   40.4760 P   0  0  2  0  0  0  0  0  0  0  0  0
   36.8450   32.4860   40.5810 O   0  0  0  0  0  0  0  0  0  0  0  0
   36.3710   33.3350   40.8230 H   0  0  0  0  0  0  0  0  0  0  0  0
   39.1110   32.2020   38.9570 O   0  0  0  0  0  0  0  0  0  0  0  0
   41.3870   31.6110   39.9070 H   0  0  0  0  0  0  0  0  0  0  0  0
   41.2890   32.6160   39.6580 N   0  0  0  0  0  0  0  0  0  0  0  0
   40.2870   32.8260   38.6330 C   0  0  1  0  0  3  0  0  0  0  0  0
   40.7180   32.2550   37.2970 C   0  0  0  0  0  3  0  0  0  0  0  0
   40.1180   32.7420   36.5090 H   0  0  0  0  0  0  0  0  0  0  0  0
   42.0750   32.3410   37.0840 O   0  0  0  0  0  0  0  0  0  0  0  0
   42.6900   33.3540   37.7990 C   0  0  0  0  0  2  0  0  0  0  0  0
   42.5750   33.1280   39.2840 C   0  0  0  0  0  2  0  0  0  0  0  0
  1  4  1  1  0  0  0
  1  8  1  0  0  0  0
  2  3  1  0  0  0  0
  2  1  1  0  0  0  0
  3  7  1  1  0  0  0
  3  1  1  0  0  0  0
  5  2  1  0  0  0  0
  6  2  1  0  0  0  0
  8  9  2  0  0  0  0
 10 16  1  0  0  0  0
 11  8  1  0  0  0  0
 11 10  2  0  0  0  0
 12 11  1  0  0  0  0
 13 12  2  0  0  0  0
 13 14  1  0  0  0  0
 14 18  1  0  0  0  0
 14 15  2  0  0  0  0
 15 10  1  0  0  0  0
 17 12  1  0  0  0  0
 19  3  1  0  0  0  0
 21 22  1  0  0  0  0
 21 20  2  1  0  0  0
 21 19  1  0  0  0  0
 22 23  1  0  0  0  0
 24 21  1  0  0  0  0
 26 25  1  0  0  0  0
 27 24  1  1  0  0  0
 27 26  1  0  0  0  0
 28 27  1  0  0  0  0
 29 28  1  0  0  0  0
 30 28  1  0  0  0  0
 30 31  1  0  0  0  0
 31 32  1  0  0  0  0
 32 26  1  0  0  0  0
M  END
>  <minimizedAffinity>
-5.15246725

$$$$

 OpenBabel03242512103D

 32 34  0  0  1  0  0  0  0  0999 V2000
   37.3200   28.8140   41.1450 C   0  0  1  0  0  0  0  0  0  0  0  0
   35.7450   28.7670   41.0640 C   0  0  0  0  0  0  0  0  0  0  0  0
   36.5030   30.0240   41.1180 C   0  0  2  0  0  0  0  0  0  0  0  0
   37.8050   28.4830   40.2130 H   0  0  0  0  0  0  0  0  0  0  0  0
   35.2230   28.3480   41.9440 H   0  0  0  0  0  0  0  0  0  0  0  0
   35.3610   28.3810   40.0950 H   0  0  0  0  0  0  0  0  0  0  0  0
   36.6520   30.6180   42.0320 H   0  0  0  0  0  0  0  0  0  0  0  0
   37.8240   28.2730   42.4390 C   0  0  0  0  0  0  0  0  0  0  0  0
   37.7420   28.9980   43.4240 O   0  0  0  0  0  0  0  0  0  0  0  0
   37.9450   25.8710   41.9570 C   0  0  0  0  0  0  0  0  0  0  0  0
   38.3880   26.9740   42.6060 C   0  0  0  0  0  0  0  0  0  0  0  0
   39.4840   26.8020   43.4990 C   0  0  0  0  0  0  0  0  0  0  0  0
   40.0430   25.5850   43.6760 N   0  0  0  0  0  0  0  0  0  0  0  0
   39.5560   24.5040   42.9960 C   0  0  0  0  0  0  0  0  0  0  0  0
   38.5400   24.6560   42.1650 N   0  0  0  0  0  0  0  0  0  0  0  0
   37.1110   26.0120   41.2810 H   0  0  0  0  0  0  0  0  0  0  0  0
   39.9280   27.5820   44.0650 H   0  0  0  0  0  0  0  0  0  0  0  0
   39.9140   23.4890   43.0510 H   0  0  0  0  0  0  0  0  0  0  0  0
   36.4100   30.7870   39.9600 O   0  0  0  0  0  0  0  0  0  0  0  0
   38.4110   31.6830   41.3180 O   0  0  0  0  0  0  0  0  0  0  0  0
   37.6020   31.9980   40.0750 P   0  0  2  0  0  0  0  0  0  0  0  0
   36.9720   33.5380   40.1090 O   0  0  0  0  0  0  0  0  0  0  0  0
   37.1370   33.9910   40.9880 H   0  0  0  0  0  0  0  0  0  0  0  0
   38.6740   31.7700   38.7570 O   0  0  0  0  0  0  0  0  0  0  0  0
   39.2330   33.3220   40.6840 H   0  0  0  0  0  0  0  0  0  0  0  0
   39.7320   33.5570   39.8020 N   0  0  0  0  0  0  0  0  0  0  0  0
   39.8750   32.4060   38.9340 C   0  0  1  0  0  3  0  0  0  0  0  0
   40.8220   31.3760   39.5140 C   0  0  0  0  0  3  0  0  0  0  0  0
   41.1660   30.7270   38.6910 H   0  0  0  0  0  0  0  0  0  0  0  0
   41.8510   31.9330   40.2380 O   0  0  0  0  0  0  0  0  0  0  0  0
   42.1510   33.2340   39.8730 C   0  0  0  0  0  2  0  0  0  0  0  0
   40.9910   34.1600   40.1290 C   0  0  0  0  0  2  0  0  0  0  0  0
  1  4  1  6  0  0  0
  1  8  1  0  0  0  0
  2  3  1  0  0  0  0
  2  1  1  0  0  0  0
  2  5  1  0  0  0  0
  3  1  1  0  0  0  0
  3  7  1  1  0  0  0
  6  2  1  0  0  0  0
  8 11  1  0  0  0  0
  8  9  2  0  0  0  0
 10 15  2  0  0  0  0
 10 11  1  0  0  0  0
 11 12  2  0  0  0  0
 12 13  1  0  0  0  0
 12 17  1  0  0  0  0
 14 18  1  0  0  0  0
 14 13  2  0  0  0  0
 15 14  1  0  0  0  0
 16 10  1  0  0  0  0
 19 21  1  0  0  0  0
 19  3  1  0  0  0  0
 21 22  1  0  0  0  0
 21 20  2  1  0  0  0
 22 23  1  0  0  0  0
 24 21  1  0  0  0  0
 26 32  1  0  0  0  0
 26 25  1  0  0  0  0
 27 24  1  1  0  0  0
 27 28  1  0  0  0  0
 27 26  1  0  0  0  0
 28 30  1  0  0  0  0
 29 28  1  0  0  0  0
 31 32  1  0  0  0  0
 31 30  1  0  0  0  0
M  END
>  <minimizedAffinity>
-5.14183283

$$$$

 OpenBabel03242512103D

 32 34  0  0  1  0  0  0  0  0999 V2000
   38.2140   31.6180   39.5950 C   0  0  1  0  0  0  0  0  0  0  0  0
   37.0960   32.6970   39.3250 C   0  0  0  0  0  0  0  0  0  0  0  0
   36.8090   31.2610   39.4280 C   0  0  2  0  0  0  0  0  0  0  0  0
   38.6270   31.6780   40.6140 H   0  0  0  0  0  0  0  0  0  0  0  0
   37.1510   33.2260   38.3550 H   0  0  0  0  0  0  0  0  0  0  0  0
   36.9120   33.3730   40.1880 H   0  0  0  0  0  0  0  0  0  0  0  0
   36.6730   30.5930   38.5640 H   0  0  0  0  0  0  0  0  0  0  0  0
   39.1620   31.5050   38.4500 C   0  0  0  0  0  0  0  0  0  0  0  0
   38.9310   30.6430   37.6100 O   0  0  0  0  0  0  0  0  0  0  0  0
   41.1600   32.2200   37.2200 C   0  0  0  0  0  0  0  0  0  0  0  0
   40.3100   32.3310   38.2680 C   0  0  0  0  0  0  0  0  0  0  0  0
   40.5970   33.3410   39.2310 C   0  0  0  0  0  0  0  0  0  0  0  0
   41.6750   34.1430   39.0850 N   0  0  0  0  0  0  0  0  0  0  0  0
   42.5020   33.9880   38.0070 C   0  0  0  0  0  0  0  0  0  0  0  0
   42.2410   33.0530   37.1100 N   0  0  0  0  0  0  0  0  0  0  0  0
   40.9320   31.4500   36.4950 H   0  0  0  0  0  0  0  0  0  0  0  0
   40.0130   33.5350   40.0940 H   0  0  0  0  0  0  0  0  0  0  0  0
   43.3860   34.5610   37.7810 H   0  0  0  0  0  0  0  0  0  0  0  0
   36.0310   30.9200   40.5290 O   0  0  0  0  0  0  0  0  0  0  0  0
   36.2420   28.7970   39.0800 O   0  0  0  0  0  0  0  0  0  0  0  0
   35.4420   29.3480   40.2440 P   0  0  2  0  0  0  0  0  0  0  0  0
   33.8040   29.3020   39.9570 O   0  0  0  0  0  0  0  0  0  0  0  0
   33.5950   29.0120   39.0200 H   0  0  0  0  0  0  0  0  0  0  0  0
   35.8840   28.3960   41.5990 O   0  0  0  0  0  0  0  0  0  0  0  0
   36.9530   29.7510   43.4580 H   0  0  0  0  0  0  0  0  0  0  0  0
   37.5650   29.6320   42.6250 N   0  0  0  0  0  0  0  0  0  0  0  0
   37.2270   28.4440   41.8670 C   0  0  1  0  0  3  0  0  0  0  0  0
   37.5560   27.1770   42.6280 C   0  0  0  0  0  3  0  0  0  0  0  0
   37.6230   26.3500   41.9010 H   0  0  0  0  0  0  0  0  0  0  0  0
   38.6730   27.2970   43.4240 O   0  0  0  0  0  0  0  0  0  0  0  0
   39.5580   28.2740   43.0000 C   0  0  0  0  0  2  0  0  0  0  0  0
   38.9340   29.6430   43.0510 C   0  0  0  0  0  2  0  0  0  0  0  0
  1  4  1  1  0  0  0
  2  3  1  0  0  0  0
  2  1  1  0  0  0  0
  2  6  1  0  0  0  0
  3  7  1  6  0  0  0
  3  1  1  0  0  0  0
  3 19  1  0  0  0  0
  5  2  1  0  0  0  0
  8  1  1  0  0  0  0
  9  8  2  0  0  0  0
 10 11  1  0  0  0  0
 11  8  1  0  0  0  0
 11 12  2  0  0  0  0
 12 17  1  0  0  0  0
 13 12  1  0  0  0  0
 14 13  2  0  0  0  0
 15 10  2  0  0  0  0
 15 14  1  0  0  0  0
 16 10  1  0  0  0  0
 18 14  1  0  0  0  0
 21 20  2  6  0  0  0
 21 19  1  0  0  0  0
 21 24  1  0  0  0  0
 22 21  1  0  0  0  0
 23 22  1  0  0  0  0
 26 32  1  0  0  0  0
 26 25  1  0  0  0  0
 27 24  1  1  0  0  0
 27 26  1  0  0  0  0
 27 28  1  0  0  0  0
 28 30  1  0  0  0  0
 29 28  1  0  0  0  0
 31 32  1  0  0  0  0
 31 30  1  0  0  0  0
M  END
>  <minimizedAffinity>
-5.13952351

$$$$

 OpenBabel03242512103D

 32 34  0  0  1  0  0  0  0  0999 V2000
   37.6370   29.2600   38.7680 C   0  0  1  0  0  0  0  0  0  0  0  0
   36.4990   30.3390   38.5990 C   0  0  0  0  0  0  0  0  0  0  0  0
   37.7150   30.5800   39.3870 C   0  0  2  0  0  0  0  0  0  0  0  0
   38.1950   29.0790   37.8360 H   0  0  0  0  0  0  0  0  0  0  0  0
   35.5250   30.0990   39.0640 H   0  0  0  0  0  0  0  0  0  0  0  0
   36.4110   30.7330   37.5640 H   0  0  0  0  0  0  0  0  0  0  0  0
   37.7680   30.4980   40.4830 H   0  0  0  0  0  0  0  0  0  0  0  0
   37.1710   28.0840   39.5570 C   0  0  0  0  0  0  0  0  0  0  0  0
   36.5140   27.2350   38.9670 O   0  0  0  0  0  0  0  0  0  0  0  0
   36.5420   28.1040   41.9270 C   0  0  0  0  0  0  0  0  0  0  0  0
   37.4430   27.8810   40.9410 C   0  0  0  0  0  0  0  0  0  0  0  0
   38.7310   27.4150   41.3350 C   0  0  0  0  0  0  0  0  0  0  0  0
   39.0190   27.2100   42.6390 N   0  0  0  0  0  0  0  0  0  0  0  0
   38.0710   27.4510   43.5940 C   0  0  0  0  0  0  0  0  0  0  0  0
   36.8740   27.8830   43.2360 N   0  0  0  0  0  0  0  0  0  0  0  0
   35.5670   28.4580   41.6170 H   0  0  0  0  0  0  0  0  0  0  0  0
   39.5250   27.2000   40.6650 H   0  0  0  0  0  0  0  0  0  0  0  0
   38.1790   27.3260   44.6590 H   0  0  0  0  0  0  0  0  0  0  0  0
   38.5440   31.5610   38.8560 O   0  0  0  0  0  0  0  0  0  0  0  0
   38.9650   32.2890   41.2940 O   0  0  0  0  0  0  0  0  0  0  0  0
   38.5330   32.8600   39.9570 P   0  0  2  0  0  0  0  0  0  0  0  0
   37.0610   33.6300   40.0500 O   0  0  0  0  0  0  0  0  0  0  0  0
   36.6330   33.5150   40.9490 H   0  0  0  0  0  0  0  0  0  0  0  0
   39.7890   33.9270   39.4840 O   0  0  0  0  0  0  0  0  0  0  0  0
   40.5150   33.8630   37.0550 H   0  0  0  0  0  0  0  0  0  0  0  0
   40.7730   33.0090   37.5880 N   0  0  0  0  0  0  0  0  0  0  0  0
   40.8930   33.2700   39.0090 C   0  0  1  0  0  3  0  0  0  0  0  0
   42.0830   34.1540   39.3210 C   0  0  0  0  0  3  0  0  0  0  0  0
   42.3330   34.0240   40.3880 H   0  0  0  0  0  0  0  0  0  0  0  0
   43.1500   33.9430   38.4790 O   0  0  0  0  0  0  0  0  0  0  0  0
   43.1710   32.6830   37.9080 C   0  0  0  0  0  2  0  0  0  0  0  0
   41.9710   32.4570   37.0270 C   0  0  0  0  0  2  0  0  0  0  0  0
  1  4  1  6  0  0  0
  1  3  1  0  0  0  0
  1  8  1  0  0  0  0
  2  1  1  0  0  0  0
  2  5  1  0  0  0  0
  2  3  1  0  0  0  0
  3  7  1  1  0  0  0
  6  2  1  0  0  0  0
  8 11  1  0  0  0  0
  9  8  2  0  0  0  0
 10 15  1  0  0  0  0
 11 12  1  0  0  0  0
 11 10  2  0  0  0  0
 12 13  2  0  0  0  0
 13 14  1  0  0  0  0
 14 18  1  0  0  0  0
 15 14  2  0  0  0  0
 16 10  1  0  0  0  0
 17 12  1  0  0  0  0
 19  3  1  0  0  0  0
 19 21  1  0  0  0  0
 21 22  1  0  0  0  0
 21 20  2  1  0  0  0
 22 23  1  0  0  0  0
 24 21  1  0  0  0  0
 25 26  1  0  0  0  0
 26 27  1  0  0  0  0
 27 28  1  0  0  0  0
 27 24  1  6  0  0  0
 28 29  1  0  0  0  0
 30 28  1  0  0  0  0
 31 30  1  0  0  0  0
 32 26  1  0  0  0  0
 32 31  1  0  0  0  0
M  END
>  <minimizedAffinity>
-4.96927023

$$$$

 OpenBabel03242512103D

 32 34  0  0  1  0  0  0  0  0999 V2000
   37.7820   29.5370   42.5510 C   0  0  1  0  0  0  0  0  0  0  0  0
   39.2910   29.1340   42.3320 C   0  0  0  0  0  0  0  0  0  0  0  0
   38.6190   30.1700   41.5370 C   0  0  2  0  0  0  0  0  0  0  0  0
   37.6160   30.0650   43.5040 H   0  0  0  0  0  0  0  0  0  0  0  0
   39.4730   28.1130   41.9480 H   0  0  0  0  0  0  0  0  0  0  0  0
   39.9540   29.4140   43.1780 H   0  0  0  0  0  0  0  0  0  0  0  0
   38.2070   30.0070   40.5300 H   0  0  0  0  0  0  0  0  0  0  0  0
   36.8530   28.4320   42.1810 C   0  0  0  0  0  0  0  0  0  0  0  0
   36.5530   27.6310   43.0590 O   0  0  0  0  0  0  0  0  0  0  0  0
   36.6580   27.2560   40.0380 C   0  0  0  0  0  0  0  0  0  0  0  0
   36.2930   28.2490   40.8840 C   0  0  0  0  0  0  0  0  0  0  0  0
   35.2860   29.1490   40.4290 C   0  0  0  0  0  0  0  0  0  0  0  0
   34.7330   29.0000   39.2050 N   0  0  0  0  0  0  0  0  0  0  0  0
   35.1390   27.9790   38.3910 C   0  0  0  0  0  0  0  0  0  0  0  0
   36.0710   27.1400   38.8070 N   0  0  0  0  0  0  0  0  0  0  0  0
   37.4230   26.5780   40.3940 H   0  0  0  0  0  0  0  0  0  0  0  0
   34.9090   29.9650   40.9910 H   0  0  0  0  0  0  0  0  0  0  0  0
   34.7760   27.7580   37.4010 H   0  0  0  0  0  0  0  0  0  0  0  0
   39.1260   31.4490   41.7360 O   0  0  0  0  0  0  0  0  0  0  0  0
   38.9430   33.8470   40.8040 O   0  0  0  0  0  0  0  0  0  0  0  0
   38.4000   32.4510   40.5670 P   0  0  2  0  0  0  0  0  0  0  0  0
   36.7370   32.4100   40.6070 O   0  0  0  0  0  0  0  0  0  0  0  0
   36.3460   33.2910   40.8810 H   0  0  0  0  0  0  0  0  0  0  0  0
   39.0200   31.9700   39.0420 O   0  0  0  0  0  0  0  0  0  0  0  0
   41.3250   31.2610   39.8270 H   0  0  0  0  0  0  0  0  0  0  0  0
   41.2350   32.2860   39.6740 N   0  0  0  0  0  0  0  0  0  0  0  0
   40.1910   32.6040   38.7210 C   0  0  1  0  0  3  0  0  0  0  0  0
   40.5500   32.1520   37.3200 C   0  0  0  0  0  3  0  0  0  0  0  0
   39.9240   32.7180   36.6090 H   0  0  0  0  0  0  0  0  0  0  0  0
   41.8970   32.2370   37.0520 O   0  0  0  0  0  0  0  0  0  0  0  0
   42.5630   33.1710   37.8270 C   0  0  0  0  0  2  0  0  0  0  0  0
   42.5120   32.8110   39.2890 C   0  0  0  0  0  2  0  0  0  0  0  0
  1  4  1  1  0  0  0
  2  1  1  0  0  0  0
  2  6  1  0  0  0  0
  3  7  1  6  0  0  0
  3 19  1  0  0  0  0
  3  2  1  0  0  0  0
  3  1  1  0  0  0  0
  5  2  1  0  0  0  0
  8  1  1  0  0  0  0
  8  9  2  0  0  0  0
 10 16  1  0  0  0  0
 10 11  1  0  0  0  0
 11  8  1  0  0  0  0
 12 11  2  0  0  0  0
 12 17  1  0  0  0  0
 13 12  1  0  0  0  0
 14 15  1  0  0  0  0
 14 13  2  0  0  0  0
 15 10  2  0  0  0  0
 18 14  1  0  0  0  0
 21 22  1  0  0  0  0
 21 20  2  1  0  0  0
 21 19  1  0  0  0  0
 22 23  1  0  0  0  0
 24 21  1  0  0  0  0
 26 25  1  0  0  0  0
 27 24  1  1  0  0  0
 27 26  1  0  0  0  0
 28 27  1  0  0  0  0
 29 28  1  0  0  0  0
 30 28  1  0  0  0  0
 30 31  1  0  0  0  0
 31 32  1  0  0  0  0
 32 26  1  0  0  0  0
M  END
>  <minimizedAffinity>
-4.94289446

$$$$

 OpenBabel03242512103D

 32 34  0  0  1  0  0  0  0  0999 V2000
   37.2040   28.6220   41.0920 C   0  0  1  0  0  0  0  0  0  0  0  0
   35.6440   28.8380   41.0160 C   0  0  0  0  0  0  0  0  0  0  0  0
   36.6080   29.9410   40.9070 C   0  0  2  0  0  0  0  0  0  0  0  0
   37.6050   28.0940   40.2130 H   0  0  0  0  0  0  0  0  0  0  0  0
   35.0760   28.6330   41.9430 H   0  0  0  0  0  0  0  0  0  0  0  0
   35.1790   28.4030   40.1060 H   0  0  0  0  0  0  0  0  0  0  0  0
   36.8750   30.6130   41.7350 H   0  0  0  0  0  0  0  0  0  0  0  0
   37.6360   28.1730   42.4470 C   0  0  0  0  0  0  0  0  0  0  0  0
   37.3720   28.9050   43.3930 O   0  0  0  0  0  0  0  0  0  0  0  0
   39.4480   26.8710   43.4650 C   0  0  0  0  0  0  0  0  0  0  0  0
   38.3260   26.9540   42.7110 C   0  0  0  0  0  0  0  0  0  0  0  0
   37.8250   25.7390   42.1620 C   0  0  0  0  0  0  0  0  0  0  0  0
   38.4540   24.5660   42.3970 N   0  0  0  0  0  0  0  0  0  0  0  0
   39.5830   24.5390   43.1660 C   0  0  0  0  0  0  0  0  0  0  0  0
   40.0540   25.6620   43.6790 N   0  0  0  0  0  0  0  0  0  0  0  0
   39.8200   27.8000   43.8770 H   0  0  0  0  0  0  0  0  0  0  0  0
   36.9560   25.6640   41.5570 H   0  0  0  0  0  0  0  0  0  0  0  0
   40.1710   23.6730   43.4240 H   0  0  0  0  0  0  0  0  0  0  0  0
   36.6220   30.5530   39.6590 O   0  0  0  0  0  0  0  0  0  0  0  0
   38.7250   31.5450   40.7770 O   0  0  0  0  0  0  0  0  0  0  0  0
   37.6300   31.9180   39.7950 P   0  0  2  0  0  0  0  0  0  0  0  0
   36.8150   33.2930   40.2590 O   0  0  0  0  0  0  0  0  0  0  0  0
   37.1010   33.6110   41.1660 H   0  0  0  0  0  0  0  0  0  0  0  0
   38.4150   32.1140   38.2830 O   0  0  0  0  0  0  0  0  0  0  0  0
   38.5310   29.8410   39.4020 H   0  0  0  0  0  0  0  0  0  0  0  0
   39.1130   29.9120   38.5430 N   0  0  0  0  0  0  0  0  0  0  0  0
   38.6180   30.9260   37.6330 C   0  0  1  0  0  3  0  0  0  0  0  0
   37.2850   30.5370   37.0270 C   0  0  0  0  0  3  0  0  0  0  0  0
   37.1410   31.1360   36.1110 H   0  0  0  0  0  0  0  0  0  0  0  0
   37.1580   29.1820   36.8220 O   0  0  0  0  0  0  0  0  0  0  0  0
   38.3660   28.5220   36.6800 C   0  0  0  0  0  2  0  0  0  0  0  0
   39.1970   28.6170   37.9330 C   0  0  0  0  0  2  0  0  0  0  0  0
  1  4  1  6  0  0  0
  1  8  1  0  0  0  0
  2  1  1  0  0  0  0
  2  5  1  0  0  0  0
  3  2  1  0  0  0  0
  3  1  1  0  0  0  0
  3  7  1  1  0  0  0
  6  2  1  0  0  0  0
  8 11  1  0  0  0  0
  8  9  2  0  0  0  0
 10 15  1  0  0  0  0
 10 16  1  0  0  0  0
 11 10  2  0  0  0  0
 12 13  2  0  0  0  0
 12 11  1  0  0  0  0
 13 14  1  0  0  0  0
 14 18  1  0  0  0  0
 14 15  2  0  0  0  0
 17 12  1  0  0  0  0
 19 21  1  0  0  0  0
 19  3  1  0  0  0  0
 21 22  1  0  0  0  0
 21 20  2  1  0  0  0
 22 23  1  0  0  0  0
 24 21  1  0  0  0  0
 26 25  1  0  0  0  0
 27 24  1  1  0  0  0
 27 26  1  0  0  0  0
 28 27  1  0  0  0  0
 29 28  1  0  0  0  0
 30 28  1  0  0  0  0
 31 30  1  0  0  0  0
 31 32  1  0  0  0  0
 32 26  1  0  0  0  0
M  END
>  <minimizedAffinity>
-4.91709137

$$$$

 OpenBabel03242512103D

 32 34  0  0  1  0  0  0  0  0999 V2000
   36.9280   29.4030   38.4410 C   0  0  1  0  0  0  0  0  0  0  0  0
   38.0570   28.3010   38.4190 C   0  0  0  0  0  0  0  0  0  0  0  0
   37.5360   28.8840   39.6620 C   0  0  2  0  0  0  0  0  0  0  0  0
   35.9460   29.0130   38.1320 H   0  0  0  0  0  0  0  0  0  0  0  0
   39.0260   28.6040   37.9790 H   0  0  0  0  0  0  0  0  0  0  0  0
   37.7020   27.3080   38.0690 H   0  0  0  0  0  0  0  0  0  0  0  0
   38.0340   29.6870   40.2250 H   0  0  0  0  0  0  0  0  0  0  0  0
   37.3980   30.6890   37.8520 C   0  0  0  0  0  0  0  0  0  0  0  0
   37.3160   30.8150   36.6360 O   0  0  0  0  0  0  0  0  0  0  0  0
   37.1700   32.6260   39.3390 C   0  0  0  0  0  0  0  0  0  0  0  0
   37.9280   31.7760   38.6060 C   0  0  0  0  0  0  0  0  0  0  0  0
   39.3350   31.9990   38.6080 C   0  0  0  0  0  0  0  0  0  0  0  0
   39.8700   33.0180   39.3160 N   0  0  0  0  0  0  0  0  0  0  0  0
   39.0580   33.8470   40.0390 C   0  0  0  0  0  0  0  0  0  0  0  0
   37.7520   33.6470   40.0420 N   0  0  0  0  0  0  0  0  0  0  0  0
   36.1030   32.4480   39.3300 H   0  0  0  0  0  0  0  0  0  0  0  0
   40.0400   31.4060   38.0810 H   0  0  0  0  0  0  0  0  0  0  0  0
   39.3620   34.6890   40.6390 H   0  0  0  0  0  0  0  0  0  0  0  0
   36.8500   27.9780   40.4630 O   0  0  0  0  0  0  0  0  0  0  0  0
   36.2180   27.5700   42.9300 O   0  0  0  0  0  0  0  0  0  0  0  0
   37.0840   28.4740   42.0740 P   0  0  2  0  0  0  0  0  0  0  0  0
   36.7470   30.0850   42.3220 O   0  0  0  0  0  0  0  0  0  0  0  0
   35.9540   30.2140   42.9230 H   0  0  0  0  0  0  0  0  0  0  0  0
   38.7020   28.0850   42.4870 O   0  0  0  0  0  0  0  0  0  0  0  0
   39.0050   26.1700   40.8520 H   0  0  0  0  0  0  0  0  0  0  0  0
   38.5220   25.8940   41.7310 N   0  0  0  0  0  0  0  0  0  0  0  0
   38.8600   26.7700   42.8350 C   0  0  1  0  0  3  0  0  0  0  0  0
   40.3060   26.6110   43.2590 C   0  0  0  0  0  3  0  0  0  0  0  0
   40.4060   27.0050   44.2850 H   0  0  0  0  0  0  0  0  0  0  0  0
   40.7730   25.3240   43.1190 O   0  0  0  0  0  0  0  0  0  0  0  0
   39.7790   24.3610   43.1560 C   0  0  0  0  0  2  0  0  0  0  0  0
   38.8160   24.5190   42.0090 C   0  0  0  0  0  2  0  0  0  0  0  0
  1  4  1  6  0  0  0
  1  3  1  0  0  0  0
  2  1  1  0  0  0  0
  2  3  1  0  0  0  0
  3  7  1  1  0  0  0
  3 19  1  0  0  0  0
  5  2  1  0  0  0  0
  6  2  1  0  0  0  0
  8  1  1  0  0  0  0
  8 11  1  0  0  0  0
  9  8  2  0  0  0  0
 10 15  1  0  0  0  0
 11 12  1  0  0  0  0
 11 10  2  0  0  0  0
 12 13  2  0  0  0  0
 13 14  1  0  0  0  0
 14 15  2  0  0  0  0
 14 18  1  0  0  0  0
 16 10  1  0  0  0  0
 17 12  1  0  0  0  0
 19 21  1  0  0  0  0
 21 22  1  0  0  0  0
 21 24  1  0  0  0  0
 21 20  2  1  0  0  0
 22 23  1  0  0  0  0
 25 26  1  0  0  0  0
 26 32  1  0  0  0  0
 26 27  1  0  0  0  0
 27 24  1  6  0  0  0
 27 28  1  0  0  0  0
 28 29  1  0  0  0  0
 30 31  1  0  0  0  0
 30 28  1  0  0  0  0
 32 31  1  0  0  0  0
M  END
>  <minimizedAffinity>
-4.78066158

$$$$

 OpenBabel03242512103D

 32 34  0  0  1  0  0  0  0  0999 V2000
   36.6640   28.1540   38.3850 C   0  0  1  0  0  0  0  0  0  0  0  0
   35.3640   29.0480   38.3870 C   0  0  0  0  0  0  0  0  0  0  0  0
   36.7190   29.6130   38.3950 C   0  0  2  0  0  0  0  0  0  0  0  0
   36.8160   27.6260   37.4310 H   0  0  0  0  0  0  0  0  0  0  0  0
   34.7360   28.9940   39.2960 H   0  0  0  0  0  0  0  0  0  0  0  0
   34.7820   28.9890   37.4420 H   0  0  0  0  0  0  0  0  0  0  0  0
   37.2320   29.9810   39.2960 H   0  0  0  0  0  0  0  0  0  0  0  0
   36.8090   27.3850   39.6530 C   0  0  0  0  0  0  0  0  0  0  0  0
   36.3240   26.2610   39.6890 O   0  0  0  0  0  0  0  0  0  0  0  0
   38.8220   27.9650   40.9300 C   0  0  0  0  0  0  0  0  0  0  0  0
   37.4760   27.8680   40.8170 C   0  0  0  0  0  0  0  0  0  0  0  0
   36.7010   28.2810   41.9400 C   0  0  0  0  0  0  0  0  0  0  0  0
   37.3020   28.7470   43.0560 N   0  0  0  0  0  0  0  0  0  0  0  0
   38.6660   28.8240   43.1170 C   0  0  0  0  0  0  0  0  0  0  0  0
   39.3910   28.4420   42.0800 N   0  0  0  0  0  0  0  0  0  0  0  0
   39.4000   27.6480   40.0720 H   0  0  0  0  0  0  0  0  0  0  0  0
   35.6410   28.2600   41.9810 H   0  0  0  0  0  0  0  0  0  0  0  0
   39.2580   29.1750   43.9460 H   0  0  0  0  0  0  0  0  0  0  0  0
   37.0420   30.3150   37.2390 O   0  0  0  0  0  0  0  0  0  0  0  0
   37.1370   32.6060   38.4210 O   0  0  0  0  0  0  0  0  0  0  0  0
   38.0390   31.6100   37.7160 P   0  0  2  0  0  0  0  0  0  0  0  0
   38.8680   32.3030   36.4500 O   0  0  0  0  0  0  0  0  0  0  0  0
   38.5730   33.2450   36.2790 H   0  0  0  0  0  0  0  0  0  0  0  0
   39.0950   31.0100   38.9250 O   0  0  0  0  0  0  0  0  0  0  0  0
   38.9700   33.4760   39.5020 H   0  0  0  0  0  0  0  0  0  0  0  0
   39.8200   33.2180   38.9620 N   0  0  0  0  0  0  0  0  0  0  0  0
   40.1750   31.8240   39.1390 C   0  0  1  0  0  3  0  0  0  0  0  0
   40.6520   31.5390   40.5490 C   0  0  0  0  0  3  0  0  0  0  0  0
   41.2300   30.5990   40.5280 H   0  0  0  0  0  0  0  0  0  0  0  0
   41.3370   32.5910   41.1120 O   0  0  0  0  0  0  0  0  0  0  0  0
   41.9210   33.4380   40.1860 C   0  0  0  0  0  2  0  0  0  0  0  0
   40.8850   34.1080   39.3220 C   0  0  0  0  0  2  0  0  0  0  0  0
  1  4  1  6  0  0  0
  1  2  1  0  0  0  0
  1  3  1  0  0  0  0
  1  8  1  0  0  0  0
  2  3  1  0  0  0  0
  2  5  1  0  0  0  0
  3  7  1  1  0  0  0
  6  2  1  0  0  0  0
  8  9  2  0  0  0  0
  8 11  1  0  0  0  0
 10 15  1  0  0  0  0
 11 10  2  0  0  0  0
 11 12  1  0  0  0  0
 12 17  1  0  0  0  0
 12 13  2  0  0  0  0
 13 14  1  0  0  0  0
 14 18  1  0  0  0  0
 15 14  2  0  0  0  0
 16 10  1  0  0  0  0
 19 21  1  0  0  0  0
 19  3  1  0  0  0  0
 21 20  2  1  0  0  0
 21 24  1  0  0  0  0
 22 21  1  0  0  0  0
 23 22  1  0  0  0  0
 26 27  1  0  0  0  0
 26 32  1  0  0  0  0
 26 25  1  0  0  0  0
 27 24  1  1  0  0  0
 27 28  1  0  0  0  0
 28 30  1  0  0  0  0
 29 28  1  0  0  0  0
 31 30  1  0  0  0  0
 32 31  1  0  0  0  0
M  END
>  <minimizedAffinity>
-4.76839209

$$$$

 OpenBabel03242512103D

 32 34  0  0  1  0  0  0  0  0999 V2000
   37.4170   29.6040   40.5480 C   0  0  1  0  0  0  0  0  0  0  0  0
   36.0980   30.4520   40.7240 C   0  0  0  0  0  0  0  0  0  0  0  0
   37.4410   31.0250   40.8820 C   0  0  2  0  0  0  0  0  0  0  0  0
   37.5930   29.3040   39.5030 H   0  0  0  0  0  0  0  0  0  0  0  0
   35.4590   30.1870   41.5870 H   0  0  0  0  0  0  0  0  0  0  0  0
   35.5310   30.5950   39.7800 H   0  0  0  0  0  0  0  0  0  0  0  0
   37.9330   31.1920   41.8520 H   0  0  0  0  0  0  0  0  0  0  0  0
   37.5610   28.5760   41.6160 C   0  0  0  0  0  0  0  0  0  0  0  0
   37.9300   28.9580   42.7210 O   0  0  0  0  0  0  0  0  0  0  0  0
   37.4310   26.2620   42.4210 C   0  0  0  0  0  0  0  0  0  0  0  0
   37.2960   27.1860   41.4400 C   0  0  0  0  0  0  0  0  0  0  0  0
   36.8590   26.7190   40.1670 C   0  0  0  0  0  0  0  0  0  0  0  0
   36.5960   25.4080   39.9680 N   0  0  0  0  0  0  0  0  0  0  0  0
   36.7500   24.5180   40.9940 C   0  0  0  0  0  0  0  0  0  0  0  0
   37.1540   24.9440   42.1780 N   0  0  0  0  0  0  0  0  0  0  0  0
   37.7630   26.6280   43.3840 H   0  0  0  0  0  0  0  0  0  0  0  0
   36.7110   27.3360   39.3170 H   0  0  0  0  0  0  0  0  0  0  0  0
   36.5730   23.4550   40.9600 H   0  0  0  0  0  0  0  0  0  0  0  0
   37.7650   31.9720   39.9170 O   0  0  0  0  0  0  0  0  0  0  0  0
   39.9410   31.8470   41.2960 O   0  0  0  0  0  0  0  0  0  0  0  0
   39.1030   32.8400   40.5130 P   0  0  2  0  0  0  0  0  0  0  0  0
   38.6750   34.1600   41.4300 O   0  0  0  0  0  0  0  0  0  0  0  0
   38.9480   34.0560   42.3890 H   0  0  0  0  0  0  0  0  0  0  0  0
   40.0570   33.2790   39.1580 O   0  0  0  0  0  0  0  0  0  0  0  0
   39.2850   31.4020   37.6370 H   0  0  0  0  0  0  0  0  0  0  0  0
   40.0440   31.1220   38.2900 N   0  0  0  0  0  0  0  0  0  0  0  0
   40.8470   32.2540   38.7090 C   0  0  1  0  0  3  0  0  0  0  0  0
   41.6680   32.8150   37.5660 C   0  0  0  0  0  3  0  0  0  0  0  0
   42.4950   33.4040   37.9990 H   0  0  0  0  0  0  0  0  0  0  0  0
   42.0870   31.8530   36.6760 O   0  0  0  0  0  0  0  0  0  0  0  0
   42.1730   30.5850   37.2240 C   0  0  0  0  0  2  0  0  0  0  0  0
   40.8250   30.0880   37.6770 C   0  0  0  0  0  2  0  0  0  0  0  0
  1  4  1  6  0  0  0
  1  2  1  0  0  0  0
  1  3  1  0  0  0  0
  1  8  1  0  0  0  0
  2  3  1  0  0  0  0
  2  5  1  0  0  0  0
  3  7  1  1  0  0  0
  6  2  1  0  0  0  0
  8  9  2  0  0  0  0
 10 16  1  0  0  0  0
 11  8  1  0  0  0  0
 11 10  2  0  0  0  0
 12 11  1  0  0  0  0
 13 12  2  0  0  0  0
 13 14  1  0  0  0  0
 14 15  2  0  0  0  0
 15 10  1  0  0  0  0
 17 12  1  0  0  0  0
 18 14  1  0  0  0  0
 19 21  1  0  0  0  0
 19  3  1  0  0  0  0
 21 20  2  1  0  0  0
 21 22  1  0  0  0  0
 22 23  1  0  0  0  0
 24 21  1  0  0  0  0
 25 26  1  0  0  0  0
 26 27  1  0  0  0  0
 27 24  1  6  0  0  0
 28 29  1  0  0  0  0
 28 27  1  0  0  0  0
 30 31  1  0  0  0  0
 30 28  1  0  0  0  0
 31 32  1  0  0  0  0
 32 26  1  0  0  0  0
M  END
>  <minimizedAffinity>
-4.75046444

$$$$
