
 OpenBabel03252504543D

 20 21  0  0  0  0  0  0  0  0999 V2000
   36.7230   27.6680   42.9360 C   0  0  0  0  0  0  0  0  0  0  0  0
   35.7600   27.0870   42.8300 H   0  0  0  0  0  0  0  0  0  0  0  0
   36.6170   28.1280   43.9550 H   0  0  0  0  0  0  0  0  0  0  0  0
   38.6430   24.5550   42.2120 C   0  0  0  0  0  0  0  0  0  0  0  0
   37.6090   25.5280   42.2030 C   0  0  0  0  0  0  0  0  0  0  0  0
   37.8090   26.6880   42.9700 C   0  0  0  0  0  0  0  0  0  0  0  0
   38.9710   26.8140   43.6740 N   0  0  0  0  0  0  0  0  0  0  0  0
   39.9230   25.8590   43.6500 C   0  0  0  0  0  0  0  0  0  0  0  0
   39.7560   24.7390   42.9220 N   0  0  0  0  0  0  0  0  0  0  0  0
   38.4490   23.6770   41.6080 H   0  0  0  0  0  0  0  0  0  0  0  0
   36.7130   25.3810   41.6310 H   0  0  0  0  0  0  0  0  0  0  0  0
   40.8470   25.9930   44.2280 H   0  0  0  0  0  0  0  0  0  0  0  0
   36.7730   28.6470   41.9560 N   0  0  0  0  0  0  0  0  0  0  0  0
   37.5960   29.7720   42.1720 C   0  0  0  0  0  3  0  0  0  0  0  0
   38.6150   29.4660   42.4910 H   0  0  0  0  0  0  0  0  0  0  0  0
   37.6340   30.7330   41.0450 C   0  0  0  0  0  3  0  0  0  0  0  0
   38.1660   30.2900   40.1560 H   0  0  0  0  0  0  0  0  0  0  0  0
   36.2940   31.0520   40.7270 O   0  0  0  0  0  0  0  0  0  0  0  0
   35.7870   29.9010   40.1240 C   0  0  0  0  0  2  0  0  0  0  0  0
   35.7220   28.7260   41.0210 C   0  0  0  0  0  2  0  0  0  0  0  0
  1  6  1  0  0  0  0
  1  3  1  0  0  0  0
  2  1  1  0  0  0  0
  4  9  1  0  0  0  0
  5  4  2  0  0  0  0
  5  6  1  0  0  0  0
  6  7  2  0  0  0  0
  8  7  1  0  0  0  0
  8 12  1  0  0  0  0
  9  8  2  0  0  0  0
 10  4  1  0  0  0  0
 11  5  1  0  0  0  0
 13 14  1  0  0  0  0
 13  1  1  0  0  0  0
 14 15  1  0  0  0  0
 16 14  1  0  0  0  0
 17 16  1  0  0  0  0
 18 16  1  0  0  0  0
 19 18  1  0  0  0  0
 19 20  1  0  0  0  0
 20 13  1  0  0  0  0
M  END
>  <minimizedAffinity>
-3.86998057

$$$$

 OpenBabel03252504543D

 20 21  0  0  0  0  0  0  0  0999 V2000
   36.9660   27.6200   42.9860 C   0  0  0  0  0  0  0  0  0  0  0  0
   37.0150   28.0910   44.0110 H   0  0  0  0  0  0  0  0  0  0  0  0
   35.9910   27.0620   43.0220 H   0  0  0  0  0  0  0  0  0  0  0  0
   35.6820   29.6220   40.1140 C   0  0  0  0  0  0  0  0  0  0  0  0
   35.8260   28.5790   41.0670 C   0  0  0  0  0  0  0  0  0  0  0  0
   36.8490   28.7130   42.0200 C   0  0  0  0  0  0  0  0  0  0  0  0
   37.6390   29.8250   41.9790 N   0  0  0  0  0  0  0  0  0  0  0  0
   37.4620   30.7870   41.0510 C   0  0  0  0  0  0  0  0  0  0  0  0
   36.4880   30.6820   40.1270 N   0  0  0  0  0  0  0  0  0  0  0  0
   34.8820   29.4790   39.3990 H   0  0  0  0  0  0  0  0  0  0  0  0
   35.1770   27.7240   41.0570 H   0  0  0  0  0  0  0  0  0  0  0  0
   38.1160   31.6690   41.0470 H   0  0  0  0  0  0  0  0  0  0  0  0
   38.0310   26.7440   42.8370 N   0  0  0  0  0  0  0  0  0  0  0  0
   37.8010   25.5100   42.1930 C   0  0  0  0  0  3  0  0  0  0  0  0
   37.2590   25.6550   41.2350 H   0  0  0  0  0  0  0  0  0  0  0  0
   39.0080   24.6690   42.0250 C   0  0  0  0  0  3  0  0  0  0  0  0
   39.7190   25.1290   41.2820 H   0  0  0  0  0  0  0  0  0  0  0  0
   39.6110   24.5510   43.2990 O   0  0  0  0  0  0  0  0  0  0  0  0
   40.1550   25.8090   43.5540 C   0  0  0  0  0  2  0  0  0  0  0  0
   39.1510   26.8890   43.6800 C   0  0  0  0  0  2  0  0  0  0  0  0
  1  3  1  0  0  0  0
  1  2  1  0  0  0  0
  4  9  2  0  0  0  0
  4  5  1  0  0  0  0
  5  6  2  0  0  0  0
  6  1  1  0  0  0  0
  7  6  1  0  0  0  0
  8  7  2  0  0  0  0
  9  8  1  0  0  0  0
 10  4  1  0  0  0  0
 11  5  1  0  0  0  0
 12  8  1  0  0  0  0
 13  1  1  0  0  0  0
 13 20  1  0  0  0  0
 14 13  1  0  0  0  0
 15 14  1  0  0  0  0
 16 14  1  0  0  0  0
 16 18  1  0  0  0  0
 17 16  1  0  0  0  0
 18 19  1  0  0  0  0
 19 20  1  0  0  0  0
M  END
>  <minimizedAffinity>
-3.77019238

$$$$

 OpenBabel03252504543D

 20 21  0  0  0  0  0  0  0  0999 V2000
   37.7040   28.3570   43.6100 C   0  0  0  0  0  0  0  0  0  0  0  0
   38.2390   28.6850   44.5490 H   0  0  0  0  0  0  0  0  0  0  0  0
   36.6330   28.3090   43.9470 H   0  0  0  0  0  0  0  0  0  0  0  0
   39.2660   31.1430   41.6870 C   0  0  0  0  0  0  0  0  0  0  0  0
   39.0930   30.0850   42.6180 C   0  0  0  0  0  0  0  0  0  0  0  0
   37.8440   29.4420   42.6390 C   0  0  0  0  0  0  0  0  0  0  0  0
   36.8770   29.8650   41.7750 N   0  0  0  0  0  0  0  0  0  0  0  0
   37.0910   30.8770   40.9090 C   0  0  0  0  0  0  0  0  0  0  0  0
   38.2800   31.5080   40.8690 N   0  0  0  0  0  0  0  0  0  0  0  0
   40.2430   31.6100   41.7030 H   0  0  0  0  0  0  0  0  0  0  0  0
   39.8880   29.7900   43.2770 H   0  0  0  0  0  0  0  0  0  0  0  0
   36.2900   31.1920   40.2270 H   0  0  0  0  0  0  0  0  0  0  0  0
   38.1620   27.1020   43.2410 N   0  0  0  0  0  0  0  0  0  0  0  0
   39.4400   26.6970   43.6790 C   0  0  0  0  0  3  0  0  0  0  0  0
   39.5600   26.8670   44.7700 H   0  0  0  0  0  0  0  0  0  0  0  0
   39.8180   25.3190   43.2890 C   0  0  0  0  0  3  0  0  0  0  0  0
   39.1920   24.5600   43.8370 H   0  0  0  0  0  0  0  0  0  0  0  0
   39.6300   25.2190   41.8910 O   0  0  0  0  0  0  0  0  0  0  0  0
   38.2460   25.2120   41.7170 C   0  0  0  0  0  2  0  0  0  0  0  0
   37.5780   26.4670   42.1260 C   0  0  0  0  0  2  0  0  0  0  0  0
  1  3  1  0  0  0  0
  1  2  1  0  0  0  0
  4 10  1  0  0  0  0
  4  5  1  0  0  0  0
  5  6  2  0  0  0  0
  5 11  1  0  0  0  0
  6  1  1  0  0  0  0
  7  6  1  0  0  0  0
  8  7  2  0  0  0  0
  9  8  1  0  0  0  0
  9  4  2  0  0  0  0
 12  8  1  0  0  0  0
 13  1  1  0  0  0  0
 13 14  1  0  0  0  0
 14 15  1  0  0  0  0
 16 14  1  0  0  0  0
 16 17  1  0  0  0  0
 18 16  1  0  0  0  0
 19 18  1  0  0  0  0
 19 20  1  0  0  0  0
 20 13  1  0  0  0  0
M  END
>  <minimizedAffinity>
-3.707443

$$$$

 OpenBabel03252504543D

 20 21  0  0  0  0  0  0  0  0999 V2000
   37.7270   28.7340   43.2500 C   0  0  0  0  0  0  0  0  0  0  0  0
   36.6580   28.6490   43.6040 H   0  0  0  0  0  0  0  0  0  0  0  0
   38.2430   29.1830   44.1420 H   0  0  0  0  0  0  0  0  0  0  0  0
   39.9530   25.7540   43.5130 C   0  0  0  0  0  0  0  0  0  0  0  0
   39.4430   27.0690   43.6800 C   0  0  0  0  0  0  0  0  0  0  0  0
   38.2210   27.3710   43.0550 C   0  0  0  0  0  0  0  0  0  0  0  0
   37.5990   26.3970   42.3300 N   0  0  0  0  0  0  0  0  0  0  0  0
   38.1270   25.1620   42.2010 C   0  0  0  0  0  0  0  0  0  0  0  0
   39.2960   24.8470   42.7910 N   0  0  0  0  0  0  0  0  0  0  0  0
   40.8950   25.5640   44.0110 H   0  0  0  0  0  0  0  0  0  0  0  0
   39.9710   27.8000   44.2620 H   0  0  0  0  0  0  0  0  0  0  0  0
   37.5990   24.4010   41.6100 H   0  0  0  0  0  0  0  0  0  0  0  0
   37.7780   29.5960   42.1650 N   0  0  0  0  0  0  0  0  0  0  0  0
   38.9100   30.4260   42.0190 C   0  0  0  0  0  3  0  0  0  0  0  0
   39.8490   29.8400   42.1150 H   0  0  0  0  0  0  0  0  0  0  0  0
   38.9050   31.2660   40.7990 C   0  0  0  0  0  3  0  0  0  0  0  0
   39.0250   30.6340   39.8750 H   0  0  0  0  0  0  0  0  0  0  0  0
   37.6740   31.9620   40.7820 O   0  0  0  0  0  0  0  0  0  0  0  0
   36.7190   30.9910   40.4820 C   0  0  0  0  0  2  0  0  0  0  0  0
   36.5770   29.9420   41.5160 C   0  0  0  0  0  2  0  0  0  0  0  0
  1  2  1  0  0  0  0
  1  3  1  0  0  0  0
  4  5  1  0  0  0  0
  4 10  1  0  0  0  0
  5 11  1  0  0  0  0
  6  1  1  0  0  0  0
  6  5  2  0  0  0  0
  7  6  1  0  0  0  0
  8  7  2  0  0  0  0
  8  9  1  0  0  0  0
  9  4  2  0  0  0  0
 12  8  1  0  0  0  0
 13  1  1  0  0  0  0
 14 15  1  0  0  0  0
 14 13  1  0  0  0  0
 16 14  1  0  0  0  0
 17 16  1  0  0  0  0
 18 16  1  0  0  0  0
 19 18  1  0  0  0  0
 19 20  1  0  0  0  0
 20 13  1  0  0  0  0
M  END
>  <minimizedAffinity>
-3.66744995

$$$$

 OpenBabel03252504543D

 20 21  0  0  0  0  0  0  0  0999 V2000
   37.9970   29.8690   40.3750 C   0  0  0  0  0  0  0  0  0  0  0  0
   36.9550   29.5820   40.0490 H   0  0  0  0  0  0  0  0  0  0  0  0
   38.6350   29.4310   39.5610 H   0  0  0  0  0  0  0  0  0  0  0  0
   37.2040   33.3670   39.3550 C   0  0  0  0  0  0  0  0  0  0  0  0
   37.1550   31.9510   39.4480 C   0  0  0  0  0  0  0  0  0  0  0  0
   38.0790   31.3280   40.3050 C   0  0  0  0  0  0  0  0  0  0  0  0
   38.9620   32.1090   40.9910 N   0  0  0  0  0  0  0  0  0  0  0  0
   38.9690   33.4520   40.8670 C   0  0  0  0  0  0  0  0  0  0  0  0
   38.0940   34.0720   40.0530 N   0  0  0  0  0  0  0  0  0  0  0  0
   36.4760   33.8050   38.6850 H   0  0  0  0  0  0  0  0  0  0  0  0
   36.4390   31.3820   38.8870 H   0  0  0  0  0  0  0  0  0  0  0  0
   39.6940   34.0500   41.4340 H   0  0  0  0  0  0  0  0  0  0  0  0
   38.2730   29.2700   41.5950 N   0  0  0  0  0  0  0  0  0  0  0  0
   39.4790   28.5500   41.7320 C   0  0  0  0  0  3  0  0  0  0  0  0
   40.3430   29.1470   41.3700 H   0  0  0  0  0  0  0  0  0  0  0  0
   39.7160   27.9990   43.0860 C   0  0  0  0  0  3  0  0  0  0  0  0
   39.9140   28.8240   43.8280 H   0  0  0  0  0  0  0  0  0  0  0  0
   38.5620   27.2630   43.4410 O   0  0  0  0  0  0  0  0  0  0  0  0
   37.5820   28.2260   43.6770 C   0  0  0  0  0  2  0  0  0  0  0  0
   37.2080   29.0140   42.4810 C   0  0  0  0  0  2  0  0  0  0  0  0
  1 13  1  0  0  0  0
  2  1  1  0  0  0  0
  3  1  1  0  0  0  0
  4  5  2  0  0  0  0
  4  9  1  0  0  0  0
  5  6  1  0  0  0  0
  6  1  1  0  0  0  0
  6  7  2  0  0  0  0
  8  7  1  0  0  0  0
  8 12  1  0  0  0  0
  9  8  2  0  0  0  0
 10  4  1  0  0  0  0
 11  5  1  0  0  0  0
 13 14  1  0  0  0  0
 13 20  1  0  0  0  0
 14 16  1  0  0  0  0
 15 14  1  0  0  0  0
 16 18  1  0  0  0  0
 16 17  1  0  0  0  0
 18 19  1  0  0  0  0
 20 19  1  0  0  0  0
M  END
>  <minimizedAffinity>
-3.64071989

$$$$

 OpenBabel03252504543D

 20 21  0  0  0  0  0  0  0  0999 V2000
   36.1960   30.3440   41.3230 C   0  0  0  0  0  0  0  0  0  0  0  0
   35.2090   29.8310   41.1240 H   0  0  0  0  0  0  0  0  0  0  0  0
   35.9170   31.1180   42.0870 H   0  0  0  0  0  0  0  0  0  0  0  0
   37.3590   27.0740   42.6850 C   0  0  0  0  0  0  0  0  0  0  0  0
   36.5380   28.0610   42.0800 C   0  0  0  0  0  0  0  0  0  0  0  0
   37.0710   29.3540   41.9520 C   0  0  0  0  0  0  0  0  0  0  0  0
   38.3340   29.5890   42.4110 N   0  0  0  0  0  0  0  0  0  0  0  0
   39.0750   28.6150   42.9800 C   0  0  0  0  0  0  0  0  0  0  0  0
   38.5860   27.3680   43.1140 N   0  0  0  0  0  0  0  0  0  0  0  0
   36.9100   26.0920   42.7640 H   0  0  0  0  0  0  0  0  0  0  0  0
   35.5490   27.8250   41.7340 H   0  0  0  0  0  0  0  0  0  0  0  0
   40.0880   28.8390   43.3390 H   0  0  0  0  0  0  0  0  0  0  0  0
   36.6400   30.9420   40.1540 N   0  0  0  0  0  0  0  0  0  0  0  0
   36.8740   30.1250   39.0270 C   0  0  0  0  0  3  0  0  0  0  0  0
   36.0100   29.4540   38.8360 H   0  0  0  0  0  0  0  0  0  0  0  0
   37.2850   30.8600   37.8090 C   0  0  0  0  0  3  0  0  0  0  0  0
   36.4360   31.4800   37.4070 H   0  0  0  0  0  0  0  0  0  0  0  0
   38.3840   31.6740   38.1680 O   0  0  0  0  0  0  0  0  0  0  0  0
   37.8360   32.6850   38.9570 C   0  0  0  0  0  2  0  0  0  0  0  0
   37.2520   32.2090   40.2300 C   0  0  0  0  0  2  0  0  0  0  0  0
  1  6  1  0  0  0  0
  1  3  1  0  0  0  0
  2  1  1  0  0  0  0
  4 10  1  0  0  0  0
  4  9  1  0  0  0  0
  5  4  2  0  0  0  0
  6  5  1  0  0  0  0
  6  7  2  0  0  0  0
  7  8  1  0  0  0  0
  8  9  2  0  0  0  0
  8 12  1  0  0  0  0
 11  5  1  0  0  0  0
 13 20  1  0  0  0  0
 13  1  1  0  0  0  0
 14 13  1  0  0  0  0
 15 14  1  0  0  0  0
 16 18  1  0  0  0  0
 16 14  1  0  0  0  0
 17 16  1  0  0  0  0
 18 19  1  0  0  0  0
 19 20  1  0  0  0  0
M  END
>  <minimizedAffinity>
-3.59401679

$$$$

 OpenBabel03252504543D

 20 21  0  0  0  0  0  0  0  0999 V2000
   35.9740   29.3960   40.9430 C   0  0  0  0  0  0  0  0  0  0  0  0
   35.3690   29.8580   41.7780 H   0  0  0  0  0  0  0  0  0  0  0  0
   35.1900   28.8580   40.3450 H   0  0  0  0  0  0  0  0  0  0  0  0
   37.1800   31.2830   37.9620 C   0  0  0  0  0  0  0  0  0  0  0  0
   36.6660   30.2350   38.7710 C   0  0  0  0  0  0  0  0  0  0  0  0
   36.5060   30.4980   40.1420 C   0  0  0  0  0  0  0  0  0  0  0  0
   36.8490   31.7310   40.6160 N   0  0  0  0  0  0  0  0  0  0  0  0
   37.3350   32.6930   39.8050 C   0  0  0  0  0  0  0  0  0  0  0  0
   37.4970   32.4660   38.4870 N   0  0  0  0  0  0  0  0  0  0  0  0
   37.2860   31.0390   36.9130 H   0  0  0  0  0  0  0  0  0  0  0  0
   36.4100   29.2820   38.3490 H   0  0  0  0  0  0  0  0  0  0  0  0
   37.6010   33.6740   40.2190 H   0  0  0  0  0  0  0  0  0  0  0  0
   36.8830   28.4990   41.4840 N   0  0  0  0  0  0  0  0  0  0  0  0
   36.9250   27.1890   40.9630 C   0  0  0  0  0  3  0  0  0  0  0  0
   36.9810   27.2020   39.8550 H   0  0  0  0  0  0  0  0  0  0  0  0
   37.9680   26.3230   41.5600 C   0  0  0  0  0  3  0  0  0  0  0  0
   38.9980   26.6670   41.2610 H   0  0  0  0  0  0  0  0  0  0  0  0
   37.8010   26.3800   42.9630 O   0  0  0  0  0  0  0  0  0  0  0  0
   38.2300   27.6570   43.3220 C   0  0  0  0  0  2  0  0  0  0  0  0
   37.4010   28.7520   42.7700 C   0  0  0  0  0  2  0  0  0  0  0  0
  1 13  1  0  0  0  0
  1  2  1  0  0  0  0
  3  1  1  0  0  0  0
  4  9  2  0  0  0  0
  4  5  1  0  0  0  0
  5  6  2  0  0  0  0
  6  7  1  0  0  0  0
  6  1  1  0  0  0  0
  8 12  1  0  0  0  0
  8  7  2  0  0  0  0
  9  8  1  0  0  0  0
 10  4  1  0  0  0  0
 11  5  1  0  0  0  0
 13 20  1  0  0  0  0
 14 13  1  0  0  0  0
 14 16  1  0  0  0  0
 15 14  1  0  0  0  0
 16 18  1  0  0  0  0
 17 16  1  0  0  0  0
 18 19  1  0  0  0  0
 20 19  1  0  0  0  0
M  END
>  <minimizedAffinity>
-3.5838809

$$$$

 OpenBabel03252504543D

 20 21  0  0  0  0  0  0  0  0999 V2000
   39.0740   30.1460   40.6310 C   0  0  0  0  0  0  0  0  0  0  0  0
   39.1890   29.6350   39.6300 H   0  0  0  0  0  0  0  0  0  0  0  0
   40.1320   30.1760   41.0100 H   0  0  0  0  0  0  0  0  0  0  0  0
   38.9740   33.8720   40.7430 C   0  0  0  0  0  0  0  0  0  0  0  0
   39.3750   32.5310   40.9830 C   0  0  0  0  0  0  0  0  0  0  0  0
   38.6310   31.5140   40.3610 C   0  0  0  0  0  0  0  0  0  0  0  0
   37.5760   31.8660   39.5710 N   0  0  0  0  0  0  0  0  0  0  0  0
   37.2350   33.1560   39.3760 C   0  0  0  0  0  0  0  0  0  0  0  0
   37.9320   34.1490   39.9600 N   0  0  0  0  0  0  0  0  0  0  0  0
   39.5730   34.6230   41.2410 H   0  0  0  0  0  0  0  0  0  0  0  0
   40.2140   32.3070   41.6130 H   0  0  0  0  0  0  0  0  0  0  0  0
   36.3790   33.4050   38.7330 H   0  0  0  0  0  0  0  0  0  0  0  0
   38.2780   29.3640   41.4520 N   0  0  0  0  0  0  0  0  0  0  0  0
   38.4760   29.4350   42.8470 C   0  0  0  0  0  3  0  0  0  0  0  0
   38.5010   30.4900   43.1930 H   0  0  0  0  0  0  0  0  0  0  0  0
   37.5390   28.6130   43.6450 C   0  0  0  0  0  3  0  0  0  0  0  0
   36.4930   29.0280   43.5920 H   0  0  0  0  0  0  0  0  0  0  0  0
   37.5910   27.3000   43.1220 O   0  0  0  0  0  0  0  0  0  0  0  0
   36.9440   27.3810   41.8900 C   0  0  0  0  0  2  0  0  0  0  0  0
   37.6330   28.2390   40.9000 C   0  0  0  0  0  2  0  0  0  0  0  0
  1  3  1  0  0  0  0
  1 13  1  0  0  0  0
  2  1  1  0  0  0  0
  4  5  1  0  0  0  0
  4 10  1  0  0  0  0
  5 11  1  0  0  0  0
  6  1  1  0  0  0  0
  6  5  2  0  0  0  0
  7  6  1  0  0  0  0
  8  7  2  0  0  0  0
  8  9  1  0  0  0  0
  9  4  2  0  0  0  0
 12  8  1  0  0  0  0
 13 14  1  0  0  0  0
 14 15  1  0  0  0  0
 14 16  1  0  0  0  0
 17 16  1  0  0  0  0
 18 16  1  0  0  0  0
 19 18  1  0  0  0  0
 20 13  1  0  0  0  0
 20 19  1  0  0  0  0
M  END
>  <minimizedAffinity>
-3.52036572

$$$$

 OpenBabel03252504543D

 20 21  0  0  0  0  0  0  0  0999 V2000
   35.7160   29.7650   40.5610 C   0  0  0  0  0  0  0  0  0  0  0  0
   35.3270   30.6280   41.1760 H   0  0  0  0  0  0  0  0  0  0  0  0
   34.7700   29.2600   40.2270 H   0  0  0  0  0  0  0  0  0  0  0  0
   37.5320   32.2350   38.4390 C   0  0  0  0  0  0  0  0  0  0  0  0
   36.8790   31.6450   39.5530 C   0  0  0  0  0  0  0  0  0  0  0  0
   36.3820   30.3400   39.3920 C   0  0  0  0  0  0  0  0  0  0  0  0
   36.5510   29.7200   38.1880 N   0  0  0  0  0  0  0  0  0  0  0  0
   37.1780   30.3260   37.1600 C   0  0  0  0  0  0  0  0  0  0  0  0
   37.6640   31.5750   37.2890 N   0  0  0  0  0  0  0  0  0  0  0  0
   37.9000   33.2400   38.6060 H   0  0  0  0  0  0  0  0  0  0  0  0
   36.7720   32.1750   40.4800 H   0  0  0  0  0  0  0  0  0  0  0  0
   37.2980   29.7980   36.2040 H   0  0  0  0  0  0  0  0  0  0  0  0
   36.4620   28.9260   41.3750 N   0  0  0  0  0  0  0  0  0  0  0  0
   37.3350   29.5080   42.3190 C   0  0  0  0  0  3  0  0  0  0  0  0
   36.8170   30.2920   42.9100 H   0  0  0  0  0  0  0  0  0  0  0  0
   38.0410   28.5360   43.1850 C   0  0  0  0  0  3  0  0  0  0  0  0
   37.3240   28.0320   43.8920 H   0  0  0  0  0  0  0  0  0  0  0  0
   38.6600   27.5940   42.3320 O   0  0  0  0  0  0  0  0  0  0  0  0
   37.6100   26.8320   41.8200 C   0  0  0  0  0  2  0  0  0  0  0  0
   36.6690   27.5930   40.9690 C   0  0  0  0  0  2  0  0  0  0  0  0
  1  2  1  0  0  0  0
  1 13  1  0  0  0  0
  3  1  1  0  0  0  0
  4 10  1  0  0  0  0
  4  5  1  0  0  0  0
  5 11  1  0  0  0  0
  6  5  2  0  0  0  0
  6  1  1  0  0  0  0
  7  6  1  0  0  0  0
  8  9  1  0  0  0  0
  8  7  2  0  0  0  0
  9  4  2  0  0  0  0
 12  8  1  0  0  0  0
 13 14  1  0  0  0  0
 14 15  1  0  0  0  0
 14 16  1  0  0  0  0
 16 17  1  0  0  0  0
 18 16  1  0  0  0  0
 19 18  1  0  0  0  0
 20 13  1  0  0  0  0
 20 19  1  0  0  0  0
M  END
>  <minimizedAffinity>
-3.51953173

$$$$
