
 OpenBabel03252500273D

 42 44  0  0  1  0  0  0  0  0999 V2000
   47.1600   33.0570   46.6870 O   0  0  0  0  0  0  0  0  0  0  0  0
   45.6950   32.7990   46.6540 P   0  0  1  0  0  0  0  0  0  0  0  0
   45.3490   31.6390   45.4730 O   0  0  0  0  0  0  0  0  0  0  0  0
   44.5150   31.8390   44.9840 H   0  0  0  0  0  0  0  0  0  0  0  0
   45.2710   32.2240   48.1490 O   0  0  0  0  0  0  0  0  0  0  0  0
   47.1140   30.7070   48.1120 C   0  0  2  0  0  0  0  0  0  0  0  0
   45.6570   30.9140   48.2750 C   0  0  2  0  0  0  0  0  0  0  0  0
   45.0140   30.0300   47.3250 C   0  0  0  0  0  0  0  0  0  0  0  0
   45.9000   28.9940   47.0000 O   0  0  0  0  0  0  0  0  0  0  0  0
   46.9860   29.1630   47.7920 C   0  0  0  0  0  0  0  0  0  0  0  0
   47.5750   30.9540   47.1420 H   0  0  0  0  0  0  0  0  0  0  0  0
   45.5030   30.7110   49.3730 H   0  0  0  0  0  0  0  0  0  0  0  0
   44.2750   30.3070   46.6080 H   0  0  0  0  0  0  0  0  0  0  0  0
   44.3220   29.4020   47.9940 H   0  0  0  0  0  0  0  0  0  0  0  0
   47.9400   28.7650   47.4590 H   0  0  0  0  0  0  0  0  0  0  0  0
   46.7590   28.7550   48.8170 H   0  0  0  0  0  0  0  0  0  0  0  0
   47.8840   30.8240   49.2040 O   0  0  0  0  0  0  0  0  0  0  0  0
   49.0600   31.3750   49.2660 C   0  0  0  0  0  0  0  0  0  0  0  0
   49.1900   32.4110   49.1840 H   0  0  0  0  0  0  0  0  0  0  0  0
   49.6370   31.0600   48.2310 H   0  0  0  0  0  0  0  0  0  0  0  0
   49.8810   30.6570   50.3230 C   0  0  0  0  0  0  0  0  0  0  0  0
   50.1040   29.6390   49.9110 H   0  0  0  0  0  0  0  0  0  0  0  0
   49.3840   30.6250   51.2910 H   0  0  0  0  0  0  0  0  0  0  0  0
   50.8610   31.1990   50.3510 H   0  0  0  0  0  0  0  0  0  0  0  0
   44.9560   34.2960   46.3030 O   0  0  0  0  0  0  0  0  0  0  0  0
   44.7110   34.3110   42.7210 C   0  0  0  0  0  0  0  0  0  0  0  0
   44.7450   35.7070   42.3840 C   0  0  0  0  0  0  0  0  0  0  0  0
   44.8560   36.5990   43.4650 C   0  0  0  0  0  0  0  0  0  0  0  0
   44.9230   36.1170   44.7240 N   0  0  0  0  0  0  0  0  0  0  0  0
   44.8880   34.8040   44.9930 C   0  0  0  0  0  0  0  0  0  0  0  0
   44.7830   33.9320   43.9860 N   0  0  0  0  0  0  0  0  0  0  0  0
   44.6890   36.0590   41.3630 H   0  0  0  0  0  0  0  0  0  0  0  0
   44.8850   37.6710   43.2530 H   0  0  0  0  0  0  0  0  0  0  0  0
   44.6010   33.4050   41.7160 O   0  0  0  0  0  0  0  0  0  0  0  0
   43.6760   33.7600   39.1190 H   0  0  0  0  0  0  0  0  0  0  0  0
   43.4700   32.9300   39.7090 N   0  0  0  0  0  0  0  0  0  0  0  0
   43.3460   33.1780   41.1070 C   0  0  1  0  0  0  0  0  0  0  0  0
   42.6750   31.9600   41.7160 C   0  0  0  0  0  0  0  0  0  0  0  0
   42.6510   31.9880   42.8250 H   0  0  0  0  0  0  0  0  0  0  0  0
   41.3490   31.9850   41.2980 O   0  0  0  0  0  0  0  0  0  0  0  0
   41.2040   31.9880   39.9230 C   0  0  0  0  0  0  0  0  0  0  0  0
   42.4980   32.0220   39.1720 C   0  0  0  0  0  0  0  0  0  0  0  0
  2  1  2  1  0  0  0
  2  5  1  0  0  0  0
  3  2  1  0  0  0  0
  4  3  1  0  0  0  0
  5  7  1  0  0  0  0
  6 11  1  6  0  0  0
  6  7  1  0  0  0  0
  6 17  1  0  0  0  0
  7 12  1  1  0  0  0
  8 14  1  0  0  0  0
  8  7  1  0  0  0  0
  9  8  1  0  0  0  0
  9 10  1  0  0  0  0
 10  6  1  0  0  0  0
 10 16  1  0  0  0  0
 13  8  1  0  0  0  0
 15 10  1  0  0  0  0
 17 18  1  0  0  0  0
 18 21  1  0  0  0  0
 19 18  1  0  0  0  0
 20 18  1  0  0  0  0
 21 24  1  0  0  0  0
 21 23  1  0  0  0  0
 22 21  1  0  0  0  0
 25  2  1  0  0  0  0
 26 31  1  0  0  0  0
 27 26  2  0  0  0  0
 27 28  1  0  0  0  0
 28 29  2  0  0  0  0
 29 30  1  0  0  0  0
 30 25  1  0  0  0  0
 31 30  2  0  0  0  0
 32 27  1  0  0  0  0
 33 28  1  0  0  0  0
 34 26  1  0  0  0  0
 35 36  1  0  0  0  0
 36 37  1  0  0  0  0
 37 34  1  1  0  0  0
 37 38  1  0  0  0  0
 38 39  1  0  0  0  0
 40 38  1  0  0  0  0
 41 40  1  0  0  0  0
 42 36  1  0  0  0  0
 42 41  1  0  0  0  0
M  END
>  <minimizedAffinity>
-4.73254776

>  <minimizedRMSD>
4.56074858

$$$$
