
 OpenBabel03242515283D

 31 33  0  0  1  0  0  0  0  0999 V2000
   44.5180   35.8520   43.0450 C   0  0  0  0  0  0  0  0  0  0  0  0
   44.2350   34.8210   42.1300 C   0  0  0  0  0  0  0  0  0  0  0  0
   44.5300   33.5360   42.5320 C   0  0  0  0  0  0  0  0  0  0  0  0
   45.0650   33.3160   43.7500 N   0  0  0  0  0  0  0  0  0  0  0  0
   45.3160   34.3590   44.5850 C   0  0  0  0  0  0  0  0  0  0  0  0
   45.0550   35.6460   44.2680 N   0  0  0  0  0  0  0  0  0  0  0  0
   44.3050   36.8760   42.7770 H   0  0  0  0  0  0  0  0  0  0  0  0
   44.3110   32.7430   41.8290 H   0  0  0  0  0  0  0  0  0  0  0  0
   43.6620   35.2180   40.8370 C   0  0  0  0  0  0  0  0  0  0  0  0
   43.7770   36.2820   40.6580 H   0  0  0  0  0  0  0  0  0  0  0  0
   44.2710   34.7140   40.0320 H   0  0  0  0  0  0  0  0  0  0  0  0
   42.2940   34.7530   40.7900 N   0  0  0  0  0  0  0  0  0  0  0  0
   41.3590   35.2940   41.5540 C   0  0  0  0  0  0  0  0  0  0  0  0
   40.0760   34.7940   41.4540 C   0  0  0  0  0  0  0  0  0  0  0  0
   39.7540   33.7680   40.5950 C   0  0  0  0  0  0  0  0  0  0  0  0
   38.5780   33.3620   40.5510 O   0  0  0  0  0  0  0  0  0  0  0  0
   40.7340   33.2370   39.8260 N   0  0  0  0  0  0  0  0  0  0  0  0
   41.9900   33.7240   39.9220 C   0  0  0  0  0  0  0  0  0  0  0  0
   42.8530   33.1780   39.1720 O   0  0  0  0  0  0  0  0  0  0  0  0
   41.6450   36.0970   42.2170 H   0  0  0  0  0  0  0  0  0  0  0  0
   39.2930   35.2200   42.0690 H   0  0  0  0  0  0  0  0  0  0  0  0
   40.4930   32.4600   39.1740 H   0  0  0  0  0  0  0  0  0  0  0  0
   45.8780   34.1420   45.8520 O   0  0  0  0  0  0  0  0  0  0  0  0
   45.3590   33.8540   48.2640 H   0  0  0  0  0  0  0  0  0  0  0  0
   44.9600   33.0360   47.7440 N   0  0  0  0  0  0  0  0  0  0  0  0
   45.5570   32.8820   46.4490 C   0  0  2  0  0  0  0  0  0  0  0  0
   46.8970   32.1690   46.6640 C   0  0  0  0  0  0  0  0  0  0  0  0
   47.6370   32.5030   45.8850 H   0  0  0  0  0  0  0  0  0  0  0  0
   47.4480   32.5510   47.8930 O   0  0  0  0  0  0  0  0  0  0  0  0
   46.7720   31.7680   48.8490 C   0  0  0  0  0  0  0  0  0  0  0  0
   45.2920   31.8610   48.5320 C   0  0  0  0  0  0  0  0  0  0  0  0
  1  6  1  0  0  0  0
  2  3  1  0  0  0  0
  2  1  2  0  0  0  0
  3  4  2  0  0  0  0
  4  5  1  0  0  0  0
  5 23  1  0  0  0  0
  6  5  2  0  0  0  0
  7  1  1  0  0  0  0
  8  3  1  0  0  0  0
  9  2  1  0  0  0  0
 10  9  1  0  0  0  0
 11  9  1  0  0  0  0
 12  9  1  0  0  0  0
 12 13  1  0  0  0  0
 13 20  1  0  0  0  0
 14 13  2  0  0  0  0
 14 21  1  0  0  0  0
 15 14  1  0  0  0  0
 16 15  2  0  0  0  0
 17 18  1  0  0  0  0
 17 15  1  0  0  0  0
 18 12  1  0  0  0  0
 19 18  2  0  0  0  0
 22 17  1  0  0  0  0
 25 24  1  0  0  0  0
 25 31  1  0  0  0  0
 26 23  1  1  0  0  0
 26 27  1  0  0  0  0
 26 25  1  0  0  0  0
 27 29  1  0  0  0  0
 28 27  1  0  0  0  0
 29 30  1  0  0  0  0
 31 30  1  0  0  0  0
M  END
>  <minimizedAffinity>
-5.96292543

>  <minimizedRMSD>
1.41071367

$$$$
