
 OpenBabel03252500093D

 30 32  0  0  0  0  0  0  0  0999 V2000
   45.4790   32.2880   40.5790 Cl  0  0  0  0  0  0  0  0  0  0  0  0
   46.7610   33.3940   40.2030 C   0  0  0  0  0  0  0  0  0  0  0  0
   47.3590   34.1560   41.1780 C   0  0  0  0  0  0  0  0  0  0  0  0
   48.3850   35.0450   40.9020 C   0  0  0  0  0  0  0  0  0  0  0  0
   48.7810   35.1270   39.5820 C   0  0  0  0  0  0  0  0  0  0  0  0
   48.1920   34.3710   38.5990 C   0  0  0  0  0  0  0  0  0  0  0  0
   47.1830   33.5010   38.8970 C   0  0  0  0  0  0  0  0  0  0  0  0
   48.8490   35.6410   41.6790 H   0  0  0  0  0  0  0  0  0  0  0  0
   49.5910   35.8340   39.3880 H   0  0  0  0  0  0  0  0  0  0  0  0
   48.5620   34.4950   37.5870 H   0  0  0  0  0  0  0  0  0  0  0  0
   46.9060   32.9110   44.6200 C   0  0  0  0  0  0  0  0  0  0  0  0
   45.9700   33.8170   45.1590 C   0  0  0  0  0  0  0  0  0  0  0  0
   45.5130   34.8370   44.3300 C   0  0  0  0  0  0  0  0  0  0  0  0
   45.9770   34.9200   43.0570 N   0  0  0  0  0  0  0  0  0  0  0  0
   46.8880   34.0200   42.5680 C   0  0  0  0  0  0  0  0  0  0  0  0
   47.3410   33.0310   43.3510 N   0  0  0  0  0  0  0  0  0  0  0  0
   47.2130   32.1580   45.3080 H   0  0  0  0  0  0  0  0  0  0  0  0
   45.5970   33.7650   46.1550 H   0  0  0  0  0  0  0  0  0  0  0  0
   44.5140   35.8720   44.7750 C   0  0  0  0  0  0  0  0  0  0  0  0
   44.9850   37.1280   44.5540 F   0  0  0  0  0  0  0  0  0  0  0  0
   43.3350   35.6730   44.0690 F   0  0  0  0  0  0  0  0  0  0  0  0
   44.3030   35.6470   46.1250 F   0  0  0  0  0  0  0  0  0  0  0  0
   46.5970   32.7340   37.8490 N   0  0  0  0  0  0  0  0  0  0  0  0
   45.3580   33.1190   37.2020 C   0  0  0  0  0  0  0  0  0  0  0  0
   45.6100   33.7550   36.3380 H   0  0  0  0  0  0  0  0  0  0  0  0
   44.7020   31.8000   36.7800 C   0  0  0  0  0  0  0  0  0  0  0  0
   43.6030   31.9710   36.8540 H   0  0  0  0  0  0  0  0  0  0  0  0
   44.9790   30.7770   37.6880 O   0  0  0  0  0  0  0  0  0  0  0  0
   46.3070   30.3730   37.6710 C   0  0  0  0  0  0  0  0  0  0  0  0
   47.2560   31.5280   37.4070 C   0  0  0  0  0  0  0  0  0  0  0  0
  2  1  1  0  0  0  0
  2  3  1  0  0  0  0
  3 15  1  0  0  0  0
  4  3  2  0  0  0  0
  4  8  1  0  0  0  0
  5  4  1  0  0  0  0
  6  7  1  0  0  0  0
  6  5  2  0  0  0  0
  7  2  2  0  0  0  0
  9  5  1  0  0  0  0
 10  6  1  0  0  0  0
 11 12  1  0  0  0  0
 11 17  1  0  0  0  0
 12 18  1  0  0  0  0
 13 19  1  0  0  0  0
 13 12  2  0  0  0  0
 14 13  1  0  0  0  0
 15 14  2  0  0  0  0
 15 16  1  0  0  0  0
 16 11  2  0  0  0  0
 19 22  1  0  0  0  0
 20 19  1  0  0  0  0
 21 19  1  0  0  0  0
 23  7  1  0  0  0  0
 24 23  1  0  0  0  0
 25 24  1  0  0  0  0
 26 27  1  0  0  0  0
 26 24  1  0  0  0  0
 26 28  1  0  0  0  0
 29 28  1  0  0  0  0
 30 29  1  0  0  0  0
 30 23  1  0  0  0  0
M  END
>  <minimizedAffinity>
-5.49233103

>  <minimizedRMSD>
1.4592315

$$$$
