
 OpenBabel03252506443D

 41 44  0  0  1  0  0  0  0  0999 V2000
   49.4360   33.4330   41.3340 N   0  0  1  0  0  0  0  0  0  0  0  0
   50.6560   33.0710   42.0170 C   0  0  0  0  0  0  0  0  0  0  0  0
   51.2310   31.7520   41.5770 C   0  0  0  0  0  0  0  0  0  0  0  0
   50.2860   30.6500   41.9750 C   0  0  0  0  0  0  0  0  0  0  0  0
   48.8320   31.1010   41.8820 C   0  0  0  0  0  0  0  0  0  0  0  0
   48.7690   32.2390   40.9070 C   0  0  2  0  0  0  0  0  0  0  0  0
   50.3870   32.9330   43.0980 H   0  0  0  0  0  0  0  0  0  0  0  0
   51.4040   33.8910   42.0160 H   0  0  0  0  0  0  0  0  0  0  0  0
   51.6120   31.7210   40.5580 H   0  0  0  0  0  0  0  0  0  0  0  0
   52.1410   31.6060   42.2240 H   0  0  0  0  0  0  0  0  0  0  0  0
   50.4960   30.3220   43.0030 H   0  0  0  0  0  0  0  0  0  0  0  0
   50.4020   29.8250   41.2420 H   0  0  0  0  0  0  0  0  0  0  0  0
   48.5360   31.5180   42.8940 H   0  0  0  0  0  0  0  0  0  0  0  0
   48.1360   30.3270   41.6260 H   0  0  0  0  0  0  0  0  0  0  0  0
   47.6740   32.5150   40.8670 H   0  0  0  0  0  0  0  0  0  0  0  0
   47.3060   34.7470   41.9480 C   0  0  1  0  0  0  0  0  0  0  0  0
   48.4580   35.6660   41.7930 C   0  0  0  0  0  0  0  0  0  0  0  0
   48.6870   34.2680   42.2020 C   0  0  2  0  0  0  0  0  0  0  0  0
   46.7910   34.4610   40.9840 H   0  0  0  0  0  0  0  0  0  0  0  0
   48.7830   35.9800   40.7730 H   0  0  0  0  0  0  0  0  0  0  0  0
   48.6080   36.4770   42.5410 H   0  0  0  0  0  0  0  0  0  0  0  0
   48.9100   34.1250   43.2970 H   0  0  0  0  0  0  0  0  0  0  0  0
   45.5370   36.0730   43.1460 C   0  0  0  0  0  0  0  0  0  0  0  0
   46.3790   34.9560   43.0600 C   0  0  0  0  0  0  0  0  0  0  0  0
   46.2860   34.0120   44.1050 C   0  0  0  0  0  0  0  0  0  0  0  0
   45.4020   34.2340   45.1140 N   0  0  0  0  0  0  0  0  0  0  0  0
   44.6130   35.3130   45.1610 C   0  0  0  0  0  0  0  0  0  0  0  0
   44.6710   36.2540   44.1710 N   0  0  0  0  0  0  0  0  0  0  0  0
   45.6300   36.7840   42.3300 H   0  0  0  0  0  0  0  0  0  0  0  0
   46.9100   33.1160   44.1080 H   0  0  0  0  0  0  0  0  0  0  0  0
   43.9460   35.3870   46.0110 H   0  0  0  0  0  0  0  0  0  0  0  0
   49.1460   31.8120   39.5900 N   0  0  0  0  0  0  0  0  0  0  0  0
   48.5360   30.9740   39.2950 H   0  0  0  0  0  0  0  0  0  0  0  0
   49.7220   33.2650   36.7990 H   0  0  0  0  0  0  0  0  0  0  0  0
   49.4330   32.3850   37.2840 N   0  0  0  0  0  0  0  0  0  0  0  0
   48.8640   32.7830   38.5580 C   0  0  1  0  0  3  0  0  0  0  0  0
   47.4180   33.1290   38.4390 C   0  0  0  0  0  3  0  0  0  0  0  0
   47.1140   33.9020   39.1760 H   0  0  0  0  0  0  0  0  0  0  0  0
   47.2820   33.7050   37.1380 O   0  0  0  0  0  0  0  0  0  0  0  0
   47.2160   32.6190   36.2640 C   0  0  0  0  0  2  0  0  0  0  0  0
   48.4590   31.7600   36.4020 C   0  0  0  0  0  2  0  0  0  0  0  0
  1  2  1  1  0  0  0
  1 18  1  0  0  0  0
  2  7  1  0  0  0  0
  3  4  1  0  0  0  0
  3  2  1  0  0  0  0
  3 10  1  0  0  0  0
  4 11  1  0  0  0  0
  5  4  1  0  0  0  0
  5 13  1  0  0  0  0
  6 15  1  6  0  0  0
  6  1  1  0  0  0  0
  6  5  1  0  0  0  0
  8  2  1  0  0  0  0
  9  3  1  0  0  0  0
 12  4  1  0  0  0  0
 14  5  1  0  0  0  0
 16 19  1  6  0  0  0
 16 18  1  0  0  0  0
 16 24  1  0  0  0  0
 17 16  1  0  0  0  0
 17 18  1  0  0  0  0
 17 21  1  0  0  0  0
 18 22  1  1  0  0  0
 20 17  1  0  0  0  0
 23 28  1  0  0  0  0
 24 23  2  0  0  0  0
 24 25  1  0  0  0  0
 25 30  1  0  0  0  0
 25 26  2  0  0  0  0
 26 27  1  0  0  0  0
 27 31  1  0  0  0  0
 28 27  2  0  0  0  0
 29 23  1  0  0  0  0
 32  6  1  0  0  0  0
 33 32  1  0  0  0  0
 34 35  1  0  0  0  0
 35 36  1  0  0  0  0
 36 32  1  1  0  0  0
 37 36  1  0  0  0  0
 37 38  1  0  0  0  0
 39 37  1  0  0  0  0
 40 41  1  0  0  0  0
 40 39  1  0  0  0  0
 41 35  1  0  0  0  0
M  END
>  <minimizedAffinity>
-5.16541576

>  <minimizedRMSD>
2.278409

$$$$
