
 OpenBabel03252501573D

 30 32  0  0  0  0  0  0  0  0999 V2000
   38.3900   29.8360   42.2720 C   0  0  0  0  0  0  0  0  0  0  0  0
   37.6150   29.6830   41.1140 C   0  0  0  0  0  0  0  0  0  0  0  0
   36.6270   28.7120   41.1660 C   0  0  0  0  0  0  0  0  0  0  0  0
   36.4710   27.9800   42.3130 N   0  0  0  0  0  0  0  0  0  0  0  0
   37.2510   28.1760   43.3940 C   0  0  0  0  0  0  0  0  0  0  0  0
   38.2240   29.1120   43.3850 N   0  0  0  0  0  0  0  0  0  0  0  0
   39.1900   30.5690   42.3350 H   0  0  0  0  0  0  0  0  0  0  0  0
   36.9550   27.4930   44.1830 H   0  0  0  0  0  0  0  0  0  0  0  0
   35.7830   28.5030   39.9960 C   0  0  0  0  0  0  0  0  0  0  0  0
   34.6580   29.2000   39.6120 C   0  0  0  0  0  0  0  0  0  0  0  0
   33.9940   28.8370   38.4570 C   0  0  0  0  0  0  0  0  0  0  0  0
   34.4460   27.7890   37.6920 C   0  0  0  0  0  0  0  0  0  0  0  0
   35.5720   27.0810   38.0640 C   0  0  0  0  0  0  0  0  0  0  0  0
   36.2490   27.4380   39.2240 C   0  0  0  0  0  0  0  0  0  0  0  0
   34.4110   29.9930   40.2950 H   0  0  0  0  0  0  0  0  0  0  0  0
   33.1220   29.4660   38.2670 H   0  0  0  0  0  0  0  0  0  0  0  0
   33.8600   27.5900   36.8200 H   0  0  0  0  0  0  0  0  0  0  0  0
   35.8810   26.2690   37.4250 H   0  0  0  0  0  0  0  0  0  0  0  0
   37.1170   26.8190   39.4210 H   0  0  0  0  0  0  0  0  0  0  0  0
   37.8740   30.5190   39.9480 C   0  0  0  0  0  0  0  0  0  0  0  0
   36.9610   30.7710   39.3910 H   0  0  0  0  0  0  0  0  0  0  0  0
   38.5220   29.9660   39.2380 H   0  0  0  0  0  0  0  0  0  0  0  0
   38.6250   31.6870   40.3550 N   0  0  0  0  0  0  0  0  0  0  0  0
   37.8430   32.8930   40.1330 C   0  0  0  0  0  3  0  0  0  0  0  0
   37.4730   32.9660   39.1120 H   0  0  0  0  0  0  0  0  0  0  0  0
   38.6630   34.1060   40.4920 C   0  0  0  0  0  3  0  0  0  0  0  0
   38.8930   34.1220   41.5780 H   0  0  0  0  0  0  0  0  0  0  0  0
   39.8710   34.1510   39.8000 O   0  0  0  0  0  0  0  0  0  0  0  0
   40.6010   32.9960   40.1360 C   0  0  0  0  0  2  0  0  0  0  0  0
   39.8290   31.8340   39.5470 C   0  0  0  0  0  2  0  0  0  0  0  0
  1  7  1  0  0  0  0
  1  6  1  0  0  0  0
  2  3  1  0  0  0  0
  2  1  2  0  0  0  0
  3  4  2  0  0  0  0
  4  5  1  0  0  0  0
  5  8  1  0  0  0  0
  6  5  2  0  0  0  0
  9  3  1  0  0  0  0
 10  9  1  0  0  0  0
 10 15  1  0  0  0  0
 11 10  2  0  0  0  0
 12 13  2  0  0  0  0
 12 11  1  0  0  0  0
 13 14  1  0  0  0  0
 14 19  1  0  0  0  0
 14  9  2  0  0  0  0
 16 11  1  0  0  0  0
 17 12  1  0  0  0  0
 18 13  1  0  0  0  0
 20 23  1  0  0  0  0
 20  2  1  0  0  0  0
 21 20  1  0  0  0  0
 22 20  1  0  0  0  0
 24 23  1  0  0  0  0
 24 26  1  0  0  0  0
 25 24  1  0  0  0  0
 26 27  1  0  0  0  0
 28 29  1  0  0  0  0
 28 26  1  0  0  0  0
 30 29  1  0  0  0  0
 30 23  1  0  0  0  0
M  END
>  <minimizedAffinity>
-5.05822659

$$$$

 OpenBabel03252501573D

 30 32  0  0  0  0  0  0  0  0999 V2000
   35.7810   28.9860   38.2910 C   0  0  0  0  0  0  0  0  0  0  0  0
   36.3780   30.0280   39.0150 C   0  0  0  0  0  0  0  0  0  0  0  0
   37.1380   30.9240   38.2800 C   0  0  0  0  0  0  0  0  0  0  0  0
   37.2570   30.7450   36.9270 N   0  0  0  0  0  0  0  0  0  0  0  0
   36.6570   29.7210   36.2890 C   0  0  0  0  0  0  0  0  0  0  0  0
   35.9080   28.8260   36.9690 N   0  0  0  0  0  0  0  0  0  0  0  0
   35.1660   28.2310   38.7730 H   0  0  0  0  0  0  0  0  0  0  0  0
   36.8840   29.7710   35.2310 H   0  0  0  0  0  0  0  0  0  0  0  0
   37.7840   32.0320   38.9720 C   0  0  0  0  0  0  0  0  0  0  0  0
   37.2390   33.2340   39.3680 C   0  0  0  0  0  0  0  0  0  0  0  0
   38.0320   34.1610   40.0150 C   0  0  0  0  0  0  0  0  0  0  0  0
   39.3560   33.8930   40.2640 C   0  0  0  0  0  0  0  0  0  0  0  0
   39.9170   32.6930   39.8730 C   0  0  0  0  0  0  0  0  0  0  0  0
   39.1280   31.7530   39.2220 C   0  0  0  0  0  0  0  0  0  0  0  0
   36.1980   33.3180   39.1140 H   0  0  0  0  0  0  0  0  0  0  0  0
   37.4800   35.0670   40.2740 H   0  0  0  0  0  0  0  0  0  0  0  0
   39.8810   34.6770   40.7690 H   0  0  0  0  0  0  0  0  0  0  0  0
   40.9610   32.5370   40.0960 H   0  0  0  0  0  0  0  0  0  0  0  0
   39.6670   30.8490   38.9610 H   0  0  0  0  0  0  0  0  0  0  0  0
   36.1830   30.1180   40.4570 C   0  0  0  0  0  0  0  0  0  0  0  0
   35.1320   29.9930   40.7560 H   0  0  0  0  0  0  0  0  0  0  0  0
   36.4810   31.1280   40.8040 H   0  0  0  0  0  0  0  0  0  0  0  0
   37.0710   29.1860   41.1190 N   0  0  0  0  0  0  0  0  0  0  0  0
   36.3040   28.1550   41.7990 C   0  0  0  0  0  3  0  0  0  0  0  0
   35.5540   28.5690   42.4710 H   0  0  0  0  0  0  0  0  0  0  0  0
   37.2370   27.2340   42.5450 C   0  0  0  0  0  3  0  0  0  0  0  0
   37.8880   26.6740   41.8400 H   0  0  0  0  0  0  0  0  0  0  0  0
   38.0610   27.9210   43.4320 O   0  0  0  0  0  0  0  0  0  0  0  0
   38.8280   28.8350   42.6850 C   0  0  0  0  0  2  0  0  0  0  0  0
   37.8470   29.8580   42.1530 C   0  0  0  0  0  2  0  0  0  0  0  0
  1  7  1  0  0  0  0
  1  2  1  0  0  0  0
  2 20  1  0  0  0  0
  3  9  1  0  0  0  0
  3  2  2  0  0  0  0
  4  3  1  0  0  0  0
  5  4  2  0  0  0  0
  5  6  1  0  0  0  0
  6  1  2  0  0  0  0
  8  5  1  0  0  0  0
  9 14  2  0  0  0  0
  9 10  1  0  0  0  0
 10 11  2  0  0  0  0
 11 12  1  0  0  0  0
 11 16  1  0  0  0  0
 12 17  1  0  0  0  0
 13 18  1  0  0  0  0
 13 12  2  0  0  0  0
 14 13  1  0  0  0  0
 15 10  1  0  0  0  0
 19 14  1  0  0  0  0
 20 21  1  0  0  0  0
 20 22  1  0  0  0  0
 20 23  1  0  0  0  0
 23 24  1  0  0  0  0
 23 30  1  0  0  0  0
 24 25  1  0  0  0  0
 24 26  1  0  0  0  0
 26 28  1  0  0  0  0
 27 26  1  0  0  0  0
 29 28  1  0  0  0  0
 30 29  1  0  0  0  0
M  END
>  <minimizedAffinity>
-4.91938305

$$$$

 OpenBabel03252501573D

 30 32  0  0  0  0  0  0  0  0999 V2000
   39.7350   31.7720   40.8260 C   0  0  0  0  0  0  0  0  0  0  0  0
   38.8020   30.8600   40.3160 C   0  0  0  0  0  0  0  0  0  0  0  0
   37.6180   31.4010   39.8390 C   0  0  0  0  0  0  0  0  0  0  0  0
   37.4350   32.7570   39.8940 N   0  0  0  0  0  0  0  0  0  0  0  0
   38.3730   33.5820   40.3980 C   0  0  0  0  0  0  0  0  0  0  0  0
   39.5410   33.0950   40.8720 N   0  0  0  0  0  0  0  0  0  0  0  0
   40.6940   31.4510   41.2240 H   0  0  0  0  0  0  0  0  0  0  0  0
   38.0220   34.6060   40.3440 H   0  0  0  0  0  0  0  0  0  0  0  0
   36.6050   30.5070   39.2920 C   0  0  0  0  0  0  0  0  0  0  0  0
   36.4470   30.0800   37.9910 C   0  0  0  0  0  0  0  0  0  0  0  0
   35.4080   29.2260   37.6770 C   0  0  0  0  0  0  0  0  0  0  0  0
   34.5360   28.8010   38.6490 C   0  0  0  0  0  0  0  0  0  0  0  0
   34.6810   29.2200   39.9570 C   0  0  0  0  0  0  0  0  0  0  0  0
   35.7230   30.0790   40.2850 C   0  0  0  0  0  0  0  0  0  0  0  0
   37.1930   30.4840   37.3310 H   0  0  0  0  0  0  0  0  0  0  0  0
   35.3950   28.9660   36.6170 H   0  0  0  0  0  0  0  0  0  0  0  0
   33.7680   28.1430   38.3010 H   0  0  0  0  0  0  0  0  0  0  0  0
   33.9670   28.8540   40.6780 H   0  0  0  0  0  0  0  0  0  0  0  0
   35.7450   30.3430   41.3370 H   0  0  0  0  0  0  0  0  0  0  0  0
   39.1040   29.4330   40.3100 C   0  0  0  0  0  0  0  0  0  0  0  0
   39.9770   29.1830   39.6900 H   0  0  0  0  0  0  0  0  0  0  0  0
   38.2490   28.8800   39.8720 H   0  0  0  0  0  0  0  0  0  0  0  0
   39.2310   28.9670   41.6740 N   0  0  0  0  0  0  0  0  0  0  0  0
   40.4580   28.2020   41.8340 C   0  0  0  0  0  3  0  0  0  0  0  0
   40.5440   27.3970   41.1040 H   0  0  0  0  0  0  0  0  0  0  0  0
   40.5420   27.6590   43.2380 C   0  0  0  0  0  3  0  0  0  0  0  0
   40.6330   28.4840   43.9760 H   0  0  0  0  0  0  0  0  0  0  0  0
   39.4250   26.9030   43.5800 O   0  0  0  0  0  0  0  0  0  0  0  0
   38.2950   27.7370   43.4840 C   0  0  0  0  0  2  0  0  0  0  0  0
   38.1440   28.0580   42.0130 C   0  0  0  0  0  2  0  0  0  0  0  0
  1  6  1  0  0  0  0
  1  7  1  0  0  0  0
  2  1  2  0  0  0  0
  3  4  2  0  0  0  0
  3  2  1  0  0  0  0
  4  5  1  0  0  0  0
  5  6  2  0  0  0  0
  8  5  1  0  0  0  0
  9  3  1  0  0  0  0
  9 14  1  0  0  0  0
 10  9  2  0  0  0  0
 11 10  1  0  0  0  0
 11 12  2  0  0  0  0
 12 13  1  0  0  0  0
 13 14  2  0  0  0  0
 13 18  1  0  0  0  0
 14 19  1  0  0  0  0
 15 10  1  0  0  0  0
 16 11  1  0  0  0  0
 17 12  1  0  0  0  0
 20  2  1  0  0  0  0
 20 23  1  0  0  0  0
 21 20  1  0  0  0  0
 22 20  1  0  0  0  0
 23 24  1  0  0  0  0
 23 30  1  0  0  0  0
 24 26  1  0  0  0  0
 25 24  1  0  0  0  0
 26 28  1  0  0  0  0
 26 27  1  0  0  0  0
 29 28  1  0  0  0  0
 30 29  1  0  0  0  0
M  END
>  <minimizedAffinity>
-4.89297152

$$$$

 OpenBabel03252501573D

 30 32  0  0  0  0  0  0  0  0999 V2000
   36.9510   30.7830   38.4380 C   0  0  0  0  0  0  0  0  0  0  0  0
   37.3320   30.3070   39.7010 C   0  0  0  0  0  0  0  0  0  0  0  0
   37.2960   28.9320   39.8710 C   0  0  0  0  0  0  0  0  0  0  0  0
   36.9010   28.1410   38.8250 N   0  0  0  0  0  0  0  0  0  0  0  0
   36.5460   28.6610   37.6330 C   0  0  0  0  0  0  0  0  0  0  0  0
   36.5690   29.9960   37.4270 N   0  0  0  0  0  0  0  0  0  0  0  0
   36.9450   31.8430   38.2020 H   0  0  0  0  0  0  0  0  0  0  0  0
   36.2720   27.8600   36.9560 H   0  0  0  0  0  0  0  0  0  0  0  0
   37.6820   28.3720   41.1600 C   0  0  0  0  0  0  0  0  0  0  0  0
   38.9460   28.0930   41.6320 C   0  0  0  0  0  0  0  0  0  0  0  0
   39.0970   27.5550   42.8950 C   0  0  0  0  0  0  0  0  0  0  0  0
   37.9990   27.2980   43.6800 C   0  0  0  0  0  0  0  0  0  0  0  0
   36.7260   27.5720   43.2210 C   0  0  0  0  0  0  0  0  0  0  0  0
   36.5620   28.1130   41.9510 C   0  0  0  0  0  0  0  0  0  0  0  0
   39.7150   28.3400   40.9230 H   0  0  0  0  0  0  0  0  0  0  0  0
   40.1450   27.3820   43.1470 H   0  0  0  0  0  0  0  0  0  0  0  0
   38.2260   26.8820   44.6390 H   0  0  0  0  0  0  0  0  0  0  0  0
   35.9020   27.3500   43.8800 H   0  0  0  0  0  0  0  0  0  0  0  0
   35.5240   28.2900   41.6920 H   0  0  0  0  0  0  0  0  0  0  0  0
   37.7320   31.2460   40.7420 C   0  0  0  0  0  0  0  0  0  0  0  0
   37.9150   30.7580   41.7110 H   0  0  0  0  0  0  0  0  0  0  0  0
   36.9120   31.9720   40.9160 H   0  0  0  0  0  0  0  0  0  0  0  0
   38.8650   32.0190   40.2790 N   0  0  0  0  0  0  0  0  0  0  0  0
   40.0720   31.6180   40.9840 C   0  0  0  0  0  3  0  0  0  0  0  0
   39.9530   31.6540   42.0660 H   0  0  0  0  0  0  0  0  0  0  0  0
   41.2290   32.4800   40.5460 C   0  0  0  0  0  3  0  0  0  0  0  0
   41.4660   32.3100   39.4740 H   0  0  0  0  0  0  0  0  0  0  0  0
   40.9710   33.8380   40.7160 O   0  0  0  0  0  0  0  0  0  0  0  0
   39.8440   34.1610   39.9360 C   0  0  0  0  0  2  0  0  0  0  0  0
   38.6790   33.4340   40.5730 C   0  0  0  0  0  2  0  0  0  0  0  0
  1  2  1  0  0  0  0
  2  3  2  0  0  0  0
  2 20  1  0  0  0  0
  3  9  1  0  0  0  0
  4  3  1  0  0  0  0
  5  4  2  0  0  0  0
  6  5  1  0  0  0  0
  6  1  2  0  0  0  0
  7  1  1  0  0  0  0
  8  5  1  0  0  0  0
  9 10  2  0  0  0  0
  9 14  1  0  0  0  0
 10 11  1  0  0  0  0
 11 16  1  0  0  0  0
 11 12  2  0  0  0  0
 12 17  1  0  0  0  0
 13 12  1  0  0  0  0
 13 18  1  0  0  0  0
 14 13  2  0  0  0  0
 15 10  1  0  0  0  0
 19 14  1  0  0  0  0
 20 22  1  0  0  0  0
 20 21  1  0  0  0  0
 23 30  1  0  0  0  0
 23 20  1  0  0  0  0
 23 24  1  0  0  0  0
 24 25  1  0  0  0  0
 26 28  1  0  0  0  0
 26 24  1  0  0  0  0
 27 26  1  0  0  0  0
 29 30  1  0  0  0  0
 29 28  1  0  0  0  0
M  END
>  <minimizedAffinity>
-4.77747345

$$$$

 OpenBabel03252501573D

 30 32  0  0  0  0  0  0  0  0999 V2000
   35.2980   29.1540   38.3330 C   0  0  0  0  0  0  0  0  0  0  0  0
   35.9020   29.0800   39.5960 C   0  0  0  0  0  0  0  0  0  0  0  0
   36.3200   27.8210   39.9990 C   0  0  0  0  0  0  0  0  0  0  0  0
   36.1230   26.7540   39.1640 N   0  0  0  0  0  0  0  0  0  0  0  0
   35.5350   26.8910   37.9600 C   0  0  0  0  0  0  0  0  0  0  0  0
   35.1140   28.1010   37.5290 N   0  0  0  0  0  0  0  0  0  0  0  0
   34.9360   30.0930   37.9230 H   0  0  0  0  0  0  0  0  0  0  0  0
   35.4820   25.9260   37.4700 H   0  0  0  0  0  0  0  0  0  0  0  0
   36.9580   27.6750   41.3020 C   0  0  0  0  0  0  0  0  0  0  0  0
   36.3900   27.7820   42.5530 C   0  0  0  0  0  0  0  0  0  0  0  0
   37.1780   27.6100   43.6740 C   0  0  0  0  0  0  0  0  0  0  0  0
   38.5180   27.3350   43.5490 C   0  0  0  0  0  0  0  0  0  0  0  0
   39.1010   27.2250   42.3020 C   0  0  0  0  0  0  0  0  0  0  0  0
   38.3180   27.3960   41.1670 C   0  0  0  0  0  0  0  0  0  0  0  0
   35.3380   27.9990   42.5120 H   0  0  0  0  0  0  0  0  0  0  0  0
   36.6090   27.7200   44.5990 H   0  0  0  0  0  0  0  0  0  0  0  0
   39.0380   27.2210   44.4780 H   0  0  0  0  0  0  0  0  0  0  0  0
   40.1570   27.0070   42.2650 H   0  0  0  0  0  0  0  0  0  0  0  0
   38.8740   27.2880   40.2430 H   0  0  0  0  0  0  0  0  0  0  0  0
   36.0560   30.2860   40.4010 C   0  0  0  0  0  0  0  0  0  0  0  0
   35.9030   30.1060   41.4750 H   0  0  0  0  0  0  0  0  0  0  0  0
   35.2880   31.0270   40.1020 H   0  0  0  0  0  0  0  0  0  0  0  0
   37.3370   30.8930   40.1100 N   0  0  0  0  0  0  0  0  0  0  0  0
   38.1170   31.0370   41.3300 C   0  0  0  0  0  3  0  0  0  0  0  0
   37.5700   31.5620   42.1120 H   0  0  0  0  0  0  0  0  0  0  0  0
   39.4170   31.7380   41.0250 C   0  0  0  0  0  3  0  0  0  0  0  0
   40.0550   31.1160   40.3620 H   0  0  0  0  0  0  0  0  0  0  0  0
   39.2220   32.9670   40.4010 O   0  0  0  0  0  0  0  0  0  0  0  0
   38.5410   32.7300   39.1920 C   0  0  0  0  0  2  0  0  0  0  0  0
   37.1630   32.2400   39.5830 C   0  0  0  0  0  2  0  0  0  0  0  0
  1  2  1  0  0  0  0
  2  3  2  0  0  0  0
  2 20  1  0  0  0  0
  3  9  1  0  0  0  0
  4  3  1  0  0  0  0
  5  4  2  0  0  0  0
  6  5  1  0  0  0  0
  6  1  2  0  0  0  0
  7  1  1  0  0  0  0
  8  5  1  0  0  0  0
  9 10  1  0  0  0  0
 10 11  2  0  0  0  0
 11 16  1  0  0  0  0
 12 11  1  0  0  0  0
 12 17  1  0  0  0  0
 13 12  2  0  0  0  0
 14  9  2  0  0  0  0
 14 13  1  0  0  0  0
 15 10  1  0  0  0  0
 18 13  1  0  0  0  0
 19 14  1  0  0  0  0
 20 21  1  0  0  0  0
 22 20  1  0  0  0  0
 23 20  1  0  0  0  0
 23 24  1  0  0  0  0
 24 25  1  0  0  0  0
 26 24  1  0  0  0  0
 27 26  1  0  0  0  0
 28 26  1  0  0  0  0
 29 30  1  0  0  0  0
 29 28  1  0  0  0  0
 30 23  1  0  0  0  0
M  END
>  <minimizedAffinity>
-4.6900382

$$$$

 OpenBabel03252501573D

 30 32  0  0  0  0  0  0  0  0999 V2000
   40.3190   31.7460   41.4000 C   0  0  0  0  0  0  0  0  0  0  0  0
   39.3100   30.7880   41.5730 C   0  0  0  0  0  0  0  0  0  0  0  0
   39.6400   29.6880   42.3480 C   0  0  0  0  0  0  0  0  0  0  0  0
   40.8980   29.6030   42.8840 N   0  0  0  0  0  0  0  0  0  0  0  0
   41.8250   30.5590   42.6810 C   0  0  0  0  0  0  0  0  0  0  0  0
   41.5420   31.6480   41.9320 N   0  0  0  0  0  0  0  0  0  0  0  0
   40.1620   32.6460   40.8110 H   0  0  0  0  0  0  0  0  0  0  0  0
   42.7410   30.2910   43.1930 H   0  0  0  0  0  0  0  0  0  0  0  0
   38.6360   28.6550   42.5690 C   0  0  0  0  0  0  0  0  0  0  0  0
   37.5870   28.6530   43.4630 C   0  0  0  0  0  0  0  0  0  0  0  0
   36.7410   27.5630   43.5170 C   0  0  0  0  0  0  0  0  0  0  0  0
   36.9390   26.4850   42.6890 C   0  0  0  0  0  0  0  0  0  0  0  0
   37.9850   26.4720   41.7880 C   0  0  0  0  0  0  0  0  0  0  0  0
   38.8420   27.5640   41.7240 C   0  0  0  0  0  0  0  0  0  0  0  0
   37.5440   29.5520   44.0500 H   0  0  0  0  0  0  0  0  0  0  0  0
   35.9550   27.6870   44.2640 H   0  0  0  0  0  0  0  0  0  0  0  0
   36.2290   25.6940   42.8110 H   0  0  0  0  0  0  0  0  0  0  0  0
   38.0910   25.5990   41.1620 H   0  0  0  0  0  0  0  0  0  0  0  0
   39.6260   27.4500   40.9840 H   0  0  0  0  0  0  0  0  0  0  0  0
   38.0060   30.9830   40.9510 C   0  0  0  0  0  0  0  0  0  0  0  0
   37.5680   31.9670   41.1720 H   0  0  0  0  0  0  0  0  0  0  0  0
   37.2930   30.2340   41.3530 H   0  0  0  0  0  0  0  0  0  0  0  0
   38.1100   30.7210   39.5310 N   0  0  0  0  0  0  0  0  0  0  0  0
   37.6370   31.8660   38.7700 C   0  0  0  0  0  3  0  0  0  0  0  0
   36.6370   32.1790   39.0670 H   0  0  0  0  0  0  0  0  0  0  0  0
   37.6810   31.5520   37.2960 C   0  0  0  0  0  3  0  0  0  0  0  0
   38.7270   31.4060   36.9530 H   0  0  0  0  0  0  0  0  0  0  0  0
   36.9640   30.4020   36.9780 O   0  0  0  0  0  0  0  0  0  0  0  0
   37.5370   29.3300   37.6870 C   0  0  0  0  0  2  0  0  0  0  0  0
   37.2560   29.6040   39.1490 C   0  0  0  0  0  2  0  0  0  0  0  0
  1  2  2  0  0  0  0
  1  6  1  0  0  0  0
  2  3  1  0  0  0  0
  3  9  1  0  0  0  0
  3  4  2  0  0  0  0
  5  4  1  0  0  0  0
  5  8  1  0  0  0  0
  6  5  2  0  0  0  0
  7  1  1  0  0  0  0
  9 10  1  0  0  0  0
 10 11  2  0  0  0  0
 10 15  1  0  0  0  0
 11 16  1  0  0  0  0
 12 17  1  0  0  0  0
 12 11  1  0  0  0  0
 13 12  2  0  0  0  0
 14 13  1  0  0  0  0
 14  9  2  0  0  0  0
 18 13  1  0  0  0  0
 19 14  1  0  0  0  0
 20 21  1  0  0  0  0
 20 22  1  0  0  0  0
 20  2  1  0  0  0  0
 23 20  1  0  0  0  0
 24 25  1  0  0  0  0
 24 23  1  0  0  0  0
 26 24  1  0  0  0  0
 27 26  1  0  0  0  0
 28 26  1  0  0  0  0
 28 29  1  0  0  0  0
 29 30  1  0  0  0  0
 30 23  1  0  0  0  0
M  END
>  <minimizedAffinity>
-4.59067774

$$$$

 OpenBabel03252501573D

 30 32  0  0  0  0  0  0  0  0999 V2000
   37.0500   32.1950   39.7200 C   0  0  0  0  0  0  0  0  0  0  0  0
   37.1310   30.9000   40.2490 C   0  0  0  0  0  0  0  0  0  0  0  0
   38.1700   30.6680   41.1380 C   0  0  0  0  0  0  0  0  0  0  0  0
   39.0320   31.6890   41.4380 N   0  0  0  0  0  0  0  0  0  0  0  0
   38.9000   32.9150   40.8940 C   0  0  0  0  0  0  0  0  0  0  0  0
   37.9010   33.1820   40.0240 N   0  0  0  0  0  0  0  0  0  0  0  0
   36.2730   32.4810   39.0160 H   0  0  0  0  0  0  0  0  0  0  0  0
   39.6830   33.5630   41.2670 H   0  0  0  0  0  0  0  0  0  0  0  0
   38.3090   29.3410   41.7260 C   0  0  0  0  0  0  0  0  0  0  0  0
   38.9700   28.2420   41.2210 C   0  0  0  0  0  0  0  0  0  0  0  0
   38.9810   27.0650   41.9420 C   0  0  0  0  0  0  0  0  0  0  0  0
   38.3390   26.9830   43.1550 C   0  0  0  0  0  0  0  0  0  0  0  0
   37.6730   28.0760   43.6740 C   0  0  0  0  0  0  0  0  0  0  0  0
   37.6560   29.2660   42.9570 C   0  0  0  0  0  0  0  0  0  0  0  0
   39.4280   28.4380   40.2690 H   0  0  0  0  0  0  0  0  0  0  0  0
   39.5360   26.2750   41.4340 H   0  0  0  0  0  0  0  0  0  0  0  0
   38.4080   26.0270   43.6310 H   0  0  0  0  0  0  0  0  0  0  0  0
   37.1880   27.9540   44.6290 H   0  0  0  0  0  0  0  0  0  0  0  0
   37.1070   30.0580   43.4540 H   0  0  0  0  0  0  0  0  0  0  0  0
   36.1560   29.8900   39.8550 C   0  0  0  0  0  0  0  0  0  0  0  0
   35.1580   30.0690   40.2790 H   0  0  0  0  0  0  0  0  0  0  0  0
   36.4790   28.9010   40.2400 H   0  0  0  0  0  0  0  0  0  0  0  0
   36.1430   29.7760   38.4120 N   0  0  0  0  0  0  0  0  0  0  0  0
   34.9140   29.1380   37.9670 C   0  0  0  0  0  3  0  0  0  0  0  0
   34.7370   28.1850   38.4660 H   0  0  0  0  0  0  0  0  0  0  0  0
   34.9450   28.9590   36.4700 C   0  0  0  0  0  3  0  0  0  0  0  0
   34.9470   29.9420   35.9550 H   0  0  0  0  0  0  0  0  0  0  0  0
   36.0660   28.2520   36.0450 O   0  0  0  0  0  0  0  0  0  0  0  0
   37.2060   28.9780   36.4380 C   0  0  0  0  0  2  0  0  0  0  0  0
   37.2290   28.9230   37.9500 C   0  0  0  0  0  2  0  0  0  0  0  0
  1  6  2  0  0  0  0
  1  2  1  0  0  0  0
  2  3  2  0  0  0  0
  3  4  1  0  0  0  0
  3  9  1  0  0  0  0
  5  8  1  0  0  0  0
  5  4  2  0  0  0  0
  6  5  1  0  0  0  0
  7  1  1  0  0  0  0
  9 14  1  0  0  0  0
 10  9  2  0  0  0  0
 10 11  1  0  0  0  0
 11 12  2  0  0  0  0
 12 17  1  0  0  0  0
 12 13  1  0  0  0  0
 13 18  1  0  0  0  0
 14 19  1  0  0  0  0
 14 13  2  0  0  0  0
 15 10  1  0  0  0  0
 16 11  1  0  0  0  0
 20 22  1  0  0  0  0
 20  2  1  0  0  0  0
 20 21  1  0  0  0  0
 23 20  1  0  0  0  0
 24 23  1  0  0  0  0
 24 25  1  0  0  0  0
 26 24  1  0  0  0  0
 27 26  1  0  0  0  0
 28 29  1  0  0  0  0
 28 26  1  0  0  0  0
 29 30  1  0  0  0  0
 30 23  1  0  0  0  0
M  END
>  <minimizedAffinity>
-4.56676435

$$$$

 OpenBabel03252501573D

 30 32  0  0  0  0  0  0  0  0999 V2000
   34.9880   26.3440   37.2980 C   0  0  0  0  0  0  0  0  0  0  0  0
   35.6480   27.2820   38.1040 C   0  0  0  0  0  0  0  0  0  0  0  0
   35.0260   28.5140   38.2400 C   0  0  0  0  0  0  0  0  0  0  0  0
   33.8380   28.7360   37.5960 N   0  0  0  0  0  0  0  0  0  0  0  0
   33.2540   27.7910   36.8330 C   0  0  0  0  0  0  0  0  0  0  0  0
   33.8270   26.5770   36.6760 N   0  0  0  0  0  0  0  0  0  0  0  0
   35.3910   25.3490   37.1270 H   0  0  0  0  0  0  0  0  0  0  0  0
   32.3290   28.1770   36.4220 H   0  0  0  0  0  0  0  0  0  0  0  0
   35.6580   29.5340   39.0670 C   0  0  0  0  0  0  0  0  0  0  0  0
   35.5210   29.7490   40.4210 C   0  0  0  0  0  0  0  0  0  0  0  0
   36.2130   30.7840   41.0190 C   0  0  0  0  0  0  0  0  0  0  0  0
   37.0340   31.5960   40.2750 C   0  0  0  0  0  0  0  0  0  0  0  0
   37.1810   31.3930   38.9170 C   0  0  0  0  0  0  0  0  0  0  0  0
   36.4900   30.3550   38.3040 C   0  0  0  0  0  0  0  0  0  0  0  0
   34.8530   29.0460   40.8850 H   0  0  0  0  0  0  0  0  0  0  0  0
   36.0180   30.8450   42.0910 H   0  0  0  0  0  0  0  0  0  0  0  0
   37.5230   32.3670   40.8330 H   0  0  0  0  0  0  0  0  0  0  0  0
   37.8390   32.0620   38.3830 H   0  0  0  0  0  0  0  0  0  0  0  0
   36.6790   30.2850   37.2390 H   0  0  0  0  0  0  0  0  0  0  0  0
   36.9130   26.9350   38.7400 C   0  0  0  0  0  0  0  0  0  0  0  0
   37.5840   27.7980   38.8590 H   0  0  0  0  0  0  0  0  0  0  0  0
   37.4570   26.2110   38.1000 H   0  0  0  0  0  0  0  0  0  0  0  0
   36.6490   26.2520   39.9880 N   0  0  0  0  0  0  0  0  0  0  0  0
   37.4660   26.8120   41.0530 C   0  0  0  0  0  3  0  0  0  0  0  0
   38.5250   26.8280   40.7990 H   0  0  0  0  0  0  0  0  0  0  0  0
   37.2360   26.0440   42.3310 C   0  0  0  0  0  3  0  0  0  0  0  0
   36.1930   26.1740   42.6870 H   0  0  0  0  0  0  0  0  0  0  0  0
   37.4690   24.6800   42.1770 O   0  0  0  0  0  0  0  0  0  0  0  0
   36.5810   24.2020   41.1950 C   0  0  0  0  0  2  0  0  0  0  0  0
   37.0170   24.8450   39.8960 C   0  0  0  0  0  2  0  0  0  0  0  0
  1  2  1  0  0  0  0
  2  3  2  0  0  0  0
  2 20  1  0  0  0  0
  3  9  1  0  0  0  0
  4  3  1  0  0  0  0
  5  4  2  0  0  0  0
  6  5  1  0  0  0  0
  6  1  2  0  0  0  0
  7  1  1  0  0  0  0
  8  5  1  0  0  0  0
  9 10  1  0  0  0  0
 10 15  1  0  0  0  0
 10 11  2  0  0  0  0
 11 16  1  0  0  0  0
 12 17  1  0  0  0  0
 12 11  1  0  0  0  0
 13 12  2  0  0  0  0
 14 13  1  0  0  0  0
 14  9  2  0  0  0  0
 18 13  1  0  0  0  0
 19 14  1  0  0  0  0
 20 21  1  0  0  0  0
 20 23  1  0  0  0  0
 22 20  1  0  0  0  0
 23 24  1  0  0  0  0
 24 26  1  0  0  0  0
 25 24  1  0  0  0  0
 26 27  1  0  0  0  0
 28 26  1  0  0  0  0
 29 28  1  0  0  0  0
 30 23  1  0  0  0  0
 30 29  1  0  0  0  0
M  END
>  <minimizedAffinity>
-4.54820919

$$$$

 OpenBabel03252501573D

 30 32  0  0  0  0  0  0  0  0999 V2000
   35.5070   27.3310   37.9780 C   0  0  0  0  0  0  0  0  0  0  0  0
   36.3090   27.4780   39.1180 C   0  0  0  0  0  0  0  0  0  0  0  0
   35.8700   28.3980   40.0580 C   0  0  0  0  0  0  0  0  0  0  0  0
   34.7110   29.0890   39.8230 N   0  0  0  0  0  0  0  0  0  0  0  0
   33.9840   28.9020   38.7050 C   0  0  0  0  0  0  0  0  0  0  0  0
   34.3770   28.0140   37.7650 N   0  0  0  0  0  0  0  0  0  0  0  0
   35.7630   26.6370   37.1820 H   0  0  0  0  0  0  0  0  0  0  0  0
   33.1130   29.5470   38.7250 H   0  0  0  0  0  0  0  0  0  0  0  0
   36.6560   28.5980   41.2690 C   0  0  0  0  0  0  0  0  0  0  0  0
   36.5460   27.9530   42.4820 C   0  0  0  0  0  0  0  0  0  0  0  0
   37.3960   28.2970   43.5140 C   0  0  0  0  0  0  0  0  0  0  0  0
   38.3470   29.2730   43.3400 C   0  0  0  0  0  0  0  0  0  0  0  0
   38.4700   29.9280   42.1300 C   0  0  0  0  0  0  0  0  0  0  0  0
   37.6200   29.5900   41.0840 C   0  0  0  0  0  0  0  0  0  0  0  0
   35.7660   27.2140   42.4870 H   0  0  0  0  0  0  0  0  0  0  0  0
   37.2050   27.7140   44.4170 H   0  0  0  0  0  0  0  0  0  0  0  0
   38.9530   29.4630   44.2010 H   0  0  0  0  0  0  0  0  0  0  0  0
   39.2340   30.6850   42.0510 H   0  0  0  0  0  0  0  0  0  0  0  0
   37.8030   30.1630   40.1820 H   0  0  0  0  0  0  0  0  0  0  0  0
   37.5260   26.6890   39.2600 C   0  0  0  0  0  0  0  0  0  0  0  0
   38.3260   27.2250   39.7900 H   0  0  0  0  0  0  0  0  0  0  0  0
   37.9300   26.4540   38.2540 H   0  0  0  0  0  0  0  0  0  0  0  0
   37.2030   25.4170   39.8710 N   0  0  0  0  0  0  0  0  0  0  0  0
   38.1030   25.1460   40.9800 C   0  0  0  0  0  3  0  0  0  0  0  0
   39.1510   25.2190   40.6930 H   0  0  0  0  0  0  0  0  0  0  0  0
   37.8030   23.7870   41.5610 C   0  0  0  0  0  3  0  0  0  0  0  0
   36.7910   23.7660   42.0160 H   0  0  0  0  0  0  0  0  0  0  0  0
   37.8610   22.7780   40.6030 O   0  0  0  0  0  0  0  0  0  0  0  0
   36.9030   23.0700   39.6140 C   0  0  0  0  0  2  0  0  0  0  0  0
   37.3910   24.3260   38.9250 C   0  0  0  0  0  2  0  0  0  0  0  0
  1  2  1  0  0  0  0
  2 20  1  0  0  0  0
  2  3  2  0  0  0  0
  3  9  1  0  0  0  0
  4  3  1  0  0  0  0
  5  8  1  0  0  0  0
  5  4  2  0  0  0  0
  6  1  2  0  0  0  0
  6  5  1  0  0  0  0
  7  1  1  0  0  0  0
  9 10  1  0  0  0  0
 10 15  1  0  0  0  0
 10 11  2  0  0  0  0
 11 16  1  0  0  0  0
 12 11  1  0  0  0  0
 12 17  1  0  0  0  0
 13 12  2  0  0  0  0
 14  9  2  0  0  0  0
 14 13  1  0  0  0  0
 18 13  1  0  0  0  0
 19 14  1  0  0  0  0
 20 21  1  0  0  0  0
 20 23  1  0  0  0  0
 22 20  1  0  0  0  0
 23 24  1  0  0  0  0
 24 26  1  0  0  0  0
 25 24  1  0  0  0  0
 26 27  1  0  0  0  0
 28 26  1  0  0  0  0
 29 28  1  0  0  0  0
 30 29  1  0  0  0  0
 30 23  1  0  0  0  0
M  END
>  <minimizedAffinity>
-4.47082996

$$$$
