
 OpenBabel03252506453D

 41 44  0  0  1  0  0  0  0  0999 V2000
   49.3580   33.2930   41.4510 N   0  0  1  0  0  0  0  0  0  0  0  0
   50.6540   33.1170   42.0630 C   0  0  0  0  0  0  0  0  0  0  0  0
   51.2990   31.7930   41.7500 C   0  0  0  0  0  0  0  0  0  0  0  0
   50.4820   30.6930   42.3730 C   0  0  0  0  0  0  0  0  0  0  0  0
   48.9930   31.0230   42.3520 C   0  0  0  0  0  0  0  0  0  0  0  0
   48.7590   32.0080   41.2460 C   0  0  2  0  0  0  0  0  0  0  0  0
   50.4840   33.1100   43.1720 H   0  0  0  0  0  0  0  0  0  0  0  0
   51.3290   33.9790   41.8880 H   0  0  0  0  0  0  0  0  0  0  0  0
   51.5990   31.6490   40.7140 H   0  0  0  0  0  0  0  0  0  0  0  0
   52.2660   31.8030   42.3270 H   0  0  0  0  0  0  0  0  0  0  0  0
   50.7990   30.5260   43.4120 H   0  0  0  0  0  0  0  0  0  0  0  0
   50.6070   29.7850   41.7470 H   0  0  0  0  0  0  0  0  0  0  0  0
   48.7450   31.5530   43.3230 H   0  0  0  0  0  0  0  0  0  0  0  0
   48.3450   30.1740   42.2640 H   0  0  0  0  0  0  0  0  0  0  0  0
   47.6450   32.1980   41.2690 H   0  0  0  0  0  0  0  0  0  0  0  0
   47.2210   34.6260   42.0030 C   0  0  1  0  0  0  0  0  0  0  0  0
   48.3580   35.5430   41.7530 C   0  0  0  0  0  0  0  0  0  0  0  0
   48.6130   34.1850   42.2660 C   0  0  2  0  0  0  0  0  0  0  0  0
   46.6920   34.2580   41.0740 H   0  0  0  0  0  0  0  0  0  0  0  0
   48.6590   35.7800   40.7050 H   0  0  0  0  0  0  0  0  0  0  0  0
   48.5100   36.4130   42.4310 H   0  0  0  0  0  0  0  0  0  0  0  0
   48.8600   34.1320   43.3640 H   0  0  0  0  0  0  0  0  0  0  0  0
   45.5180   36.0630   43.1670 C   0  0  0  0  0  0  0  0  0  0  0  0
   46.3140   34.9100   43.1130 C   0  0  0  0  0  0  0  0  0  0  0  0
   46.1900   34.0070   44.1900 C   0  0  0  0  0  0  0  0  0  0  0  0
   45.3250   34.2980   45.1970 N   0  0  0  0  0  0  0  0  0  0  0  0
   44.5810   35.4100   45.2140 C   0  0  0  0  0  0  0  0  0  0  0  0
   44.6690   36.3140   44.1910 N   0  0  0  0  0  0  0  0  0  0  0  0
   45.6340   36.7420   42.3260 H   0  0  0  0  0  0  0  0  0  0  0  0
   46.7770   33.0870   44.2200 H   0  0  0  0  0  0  0  0  0  0  0  0
   43.9250   35.5410   46.0650 H   0  0  0  0  0  0  0  0  0  0  0  0
   49.0650   31.4310   39.9680 N   0  0  0  0  0  0  0  0  0  0  0  0
   49.4940   30.4530   40.1080 H   0  0  0  0  0  0  0  0  0  0  0  0
   47.2110   29.5190   38.1960 H   0  0  0  0  0  0  0  0  0  0  0  0
   47.5970   29.7290   39.1440 N   0  0  0  0  0  0  0  0  0  0  0  0
   47.8990   31.1490   39.1610 C   0  0  1  0  0  3  0  0  0  0  0  0
   46.7060   31.9700   39.5220 C   0  0  0  0  0  3  0  0  0  0  0  0
   46.7310   32.9710   39.0420 H   0  0  0  0  0  0  0  0  0  0  0  0
   45.5930   31.2620   38.9740 O   0  0  0  0  0  0  0  0  0  0  0  0
   45.3190   30.2450   39.8920 C   0  0  0  0  0  2  0  0  0  0  0  0
   46.5420   29.3670   40.0790 C   0  0  0  0  0  2  0  0  0  0  0  0
  1  2  1  1  0  0  0
  1 18  1  0  0  0  0
  2  7  1  0  0  0  0
  3  2  1  0  0  0  0
  3 10  1  0  0  0  0
  3  4  1  0  0  0  0
  4 11  1  0  0  0  0
  5  4  1  0  0  0  0
  5 13  1  0  0  0  0
  6 15  1  6  0  0  0
  6  1  1  0  0  0  0
  6  5  1  0  0  0  0
  8  2  1  0  0  0  0
  9  3  1  0  0  0  0
 12  4  1  0  0  0  0
 14  5  1  0  0  0  0
 16 19  1  6  0  0  0
 16 18  1  0  0  0  0
 16 24  1  0  0  0  0
 17 16  1  0  0  0  0
 17 18  1  0  0  0  0
 17 21  1  0  0  0  0
 18 22  1  1  0  0  0
 20 17  1  0  0  0  0
 23 28  1  0  0  0  0
 24 23  2  0  0  0  0
 24 25  1  0  0  0  0
 25 30  1  0  0  0  0
 25 26  2  0  0  0  0
 26 27  1  0  0  0  0
 27 31  1  0  0  0  0
 28 27  2  0  0  0  0
 29 23  1  0  0  0  0
 32 33  1  0  0  0  0
 32  6  1  0  0  0  0
 34 35  1  0  0  0  0
 35 36  1  0  0  0  0
 35 41  1  0  0  0  0
 36 37  1  0  0  0  0
 36 32  1  1  0  0  0
 38 37  1  0  0  0  0
 39 37  1  0  0  0  0
 39 40  1  0  0  0  0
 40 41  1  0  0  0  0
M  END
>  <minimizedAffinity>
-4.49661827

>  <minimizedRMSD>
0.525386274

$$$$
