
 OpenBabel03242521073D

 39 42  0  0  1  0  0  0  0  0999 V2000
   46.2530   32.6350   38.7650 C   0  0  2  0  0  0  0  0  0  0  0  0
   47.1860   31.7460   38.0440 C   0  0  0  0  0  0  0  0  0  0  0  0
   46.4300   32.8780   37.3440 C   0  0  1  0  0  0  0  0  0  0  0  0
   45.2760   32.1380   39.0520 H   0  0  0  0  0  0  0  0  0  0  0  0
   46.8930   30.7400   37.7150 H   0  0  0  0  0  0  0  0  0  0  0  0
   48.2570   31.8360   38.2510 H   0  0  0  0  0  0  0  0  0  0  0  0
   47.1740   33.5440   36.8700 H   0  0  0  0  0  0  0  0  0  0  0  0
   46.6480   34.6390   41.8320 C   0  0  0  0  0  0  0  0  0  0  0  0
   47.8490   35.2390   41.5070 C   0  0  0  0  0  0  0  0  0  0  0  0
   48.5510   35.0300   40.3390 C   0  0  0  0  0  0  0  0  0  0  0  0
   48.0110   34.1500   39.4210 C   0  0  0  0  0  0  0  0  0  0  0  0
   46.8220   33.5670   39.7630 C   0  0  0  0  0  0  0  0  0  0  0  0
   46.1870   33.8010   40.8970 N   0  0  0  0  0  0  0  0  0  0  0  0
   48.2980   35.9440   42.2210 H   0  0  0  0  0  0  0  0  0  0  0  0
   49.4930   35.5390   40.1500 H   0  0  0  0  0  0  0  0  0  0  0  0
   48.5870   34.0100   38.5180 H   0  0  0  0  0  0  0  0  0  0  0  0
   44.5450   36.0860   44.6050 C   0  0  0  0  0  0  0  0  0  0  0  0
   45.1460   35.9940   43.3400 C   0  0  0  0  0  0  0  0  0  0  0  0
   45.9450   34.8950   43.0910 C   0  0  0  0  0  0  0  0  0  0  0  0
   46.1100   33.9690   44.0630 N   0  0  0  0  0  0  0  0  0  0  0  0
   45.5060   34.0950   45.2820 C   0  0  0  0  0  0  0  0  0  0  0  0
   44.7360   35.1500   45.5290 N   0  0  0  0  0  0  0  0  0  0  0  0
   43.9350   36.9900   44.7000 H   0  0  0  0  0  0  0  0  0  0  0  0
   45.0580   36.6910   42.5260 H   0  0  0  0  0  0  0  0  0  0  0  0
   45.6860   33.3090   46.0120 H   0  0  0  0  0  0  0  0  0  0  0  0
   45.4510   32.4740   36.4230 O   0  0  0  0  0  0  0  0  0  0  0  0
   46.0720   30.6720   34.7220 O   0  0  0  0  0  0  0  0  0  0  0  0
   46.0700   32.1990   34.8820 P   0  0  1  0  0  0  0  0  0  0  0  0
   45.0450   32.8090   33.7100 O   0  0  0  0  0  0  0  0  0  0  0  0
   45.4840   33.5730   33.2570 H   0  0  0  0  0  0  0  0  0  0  0  0
   47.6730   32.6660   34.6850 O   0  0  0  0  0  0  0  0  0  0  0  0
   50.3530   32.4140   34.4970 H   0  0  0  0  0  0  0  0  0  0  0  0
   49.7570   32.2230   33.6860 N   0  0  0  0  0  0  0  0  0  0  0  0
   48.4360   31.7160   34.0030 C   0  0  2  0  0  0  0  0  0  0  0  0
   47.7940   31.3120   32.7000 C   0  0  0  0  0  0  0  0  0  0  0  0
   47.5270   30.2180   32.7610 H   0  0  0  0  0  0  0  0  0  0  0  0
   48.6860   31.3900   31.6270 O   0  0  0  0  0  0  0  0  0  0  0  0
   49.1820   32.6670   31.4230 C   0  0  0  0  0  0  0  0  0  0  0  0
   49.6520   33.3040   32.7280 C   0  0  0  0  0  0  0  0  0  0  0  0
  1  4  1  1  0  0  0
  1 12  1  0  0  0  0
  2  6  1  0  0  0  0
  2  1  1  0  0  0  0
  3  7  1  6  0  0  0
  3  2  1  0  0  0  0
  3  1  1  0  0  0  0
  5  2  1  0  0  0  0
  8 19  1  0  0  0  0
  9  8  1  0  0  0  0
  9 14  1  0  0  0  0
 10  9  2  0  0  0  0
 11 12  2  0  0  0  0
 11 10  1  0  0  0  0
 12 13  1  0  0  0  0
 13  8  2  0  0  0  0
 15 10  1  0  0  0  0
 16 11  1  0  0  0  0
 17 23  1  0  0  0  0
 17 22  1  0  0  0  0
 18 17  2  0  0  0  0
 19 18  1  0  0  0  0
 19 20  2  0  0  0  0
 20 21  1  0  0  0  0
 21 22  2  0  0  0  0
 21 25  1  0  0  0  0
 24 18  1  0  0  0  0
 26  3  1  0  0  0  0
 28 27  2  6  0  0  0
 28 26  1  0  0  0  0
 29 28  1  0  0  0  0
 30 29  1  0  0  0  0
 31 28  1  0  0  0  0
 33 34  1  0  0  0  0
 33 32  1  0  0  0  0
 34 31  1  6  0  0  0
 35 36  1  0  0  0  0
 35 34  1  0  0  0  0
 37 35  1  0  0  0  0
 38 37  1  0  0  0  0
 38 39  1  0  0  0  0
 39 33  1  0  0  0  0
M  END
>  <minimizedAffinity>
-6.90076542

>  <minimizedRMSD>
1.25727415

$$$$
