
 OpenBabel03252500473D

 25 27  0  0  0  0  0  0  0  0999 V2000
   38.3300   29.6590   39.4180 C   0  0  0  0  0  0  0  0  0  0  0  0
   38.4630   30.4350   40.5970 C   0  0  0  0  0  0  0  0  0  0  0  0
   38.1530   29.8360   41.8150 C   0  0  0  0  0  0  0  0  0  0  0  0
   37.7380   28.5360   41.8030 N   0  0  0  0  0  0  0  0  0  0  0  0
   37.6250   27.8330   40.6670 C   0  0  0  0  0  0  0  0  0  0  0  0
   37.9150   28.3830   39.4790 N   0  0  0  0  0  0  0  0  0  0  0  0
   38.5660   30.1110   38.4810 H   0  0  0  0  0  0  0  0  0  0  0  0
   38.2270   30.3550   42.7620 H   0  0  0  0  0  0  0  0  0  0  0  0
   37.1760   26.4430   40.7130 C   0  0  0  0  0  0  0  0  0  0  0  0
   37.2760   25.6910   41.8530 C   0  0  0  0  0  0  0  0  0  0  0  0
   36.8590   24.3780   41.9190 C   0  0  0  0  0  0  0  0  0  0  0  0
   36.3280   23.8450   40.7750 N   0  0  0  0  0  0  0  0  0  0  0  0
   36.2360   24.5890   39.6740 C   0  0  0  0  0  0  0  0  0  0  0  0
   36.6400   25.8840   39.5840 N   0  0  0  0  0  0  0  0  0  0  0  0
   37.7090   26.2020   42.7020 H   0  0  0  0  0  0  0  0  0  0  0  0
   36.9940   23.8960   42.8800 H   0  0  0  0  0  0  0  0  0  0  0  0
   35.8060   24.0980   38.8110 H   0  0  0  0  0  0  0  0  0  0  0  0
   38.9020   31.7980   40.5710 N   0  0  0  0  0  0  0  0  0  0  0  0
   40.2970   32.0950   40.8890 C   0  0  0  0  0  3  0  0  0  0  0  0
   40.4560   31.7980   41.9260 H   0  0  0  0  0  0  0  0  0  0  0  0
   40.6410   33.5080   40.5560 C   0  0  0  0  0  3  0  0  0  0  0  0
   41.6350   33.4890   40.0430 H   0  0  0  0  0  0  0  0  0  0  0  0
   39.7760   34.1610   39.7220 O   0  0  0  0  0  0  0  0  0  0  0  0
   38.4600   34.1610   40.1790 C   0  0  0  0  0  2  0  0  0  0  0  0
   37.8740   32.7810   40.2190 C   0  0  0  0  0  2  0  0  0  0  0  0
  1  6  2  0  0  0  0
  1  2  1  0  0  0  0
  2  3  2  0  0  0  0
  3  8  1  0  0  0  0
  4  3  1  0  0  0  0
  5  9  1  0  0  0  0
  5  4  2  0  0  0  0
  6  5  1  0  0  0  0
  7  1  1  0  0  0  0
  9 10  1  0  0  0  0
 10 11  2  0  0  0  0
 10 15  1  0  0  0  0
 11 16  1  0  0  0  0
 12 11  1  0  0  0  0
 13 12  2  0  0  0  0
 14 13  1  0  0  0  0
 14  9  2  0  0  0  0
 17 13  1  0  0  0  0
 18  2  1  0  0  0  0
 18 19  1  0  0  0  0
 19 20  1  0  0  0  0
 21 19  1  0  0  0  0
 22 21  1  0  0  0  0
 23 24  1  0  0  0  0
 23 21  1  0  0  0  0
 24 25  1  0  0  0  0
 25 18  1  0  0  0  0
M  END
>  <minimizedAffinity>
-4.32526731

$$$$

 OpenBabel03252500473D

 25 27  0  0  0  0  0  0  0  0999 V2000
   39.4850   29.4440   39.9500 C   0  0  0  0  0  0  0  0  0  0  0  0
   39.2150   30.3550   41.0020 C   0  0  0  0  0  0  0  0  0  0  0  0
   38.6310   29.8600   42.1650 C   0  0  0  0  0  0  0  0  0  0  0  0
   38.3520   28.5250   42.2240 N   0  0  0  0  0  0  0  0  0  0  0  0
   38.6230   27.6930   41.2070 C   0  0  0  0  0  0  0  0  0  0  0  0
   39.1830   28.1420   40.0750 N   0  0  0  0  0  0  0  0  0  0  0  0
   39.9320   29.8170   39.0560 H   0  0  0  0  0  0  0  0  0  0  0  0
   38.3910   30.4840   43.0160 H   0  0  0  0  0  0  0  0  0  0  0  0
   38.3020   26.2720   41.3260 C   0  0  0  0  0  0  0  0  0  0  0  0
   37.2410   25.8320   42.0710 C   0  0  0  0  0  0  0  0  0  0  0  0
   36.9210   24.4970   42.1960 C   0  0  0  0  0  0  0  0  0  0  0  0
   37.7230   23.6090   41.5320 N   0  0  0  0  0  0  0  0  0  0  0  0
   38.7530   24.0510   40.8100 C   0  0  0  0  0  0  0  0  0  0  0  0
   39.0880   25.3610   40.6720 N   0  0  0  0  0  0  0  0  0  0  0  0
   36.6690   26.6100   42.5560 H   0  0  0  0  0  0  0  0  0  0  0  0
   36.0570   24.2820   42.8140 H   0  0  0  0  0  0  0  0  0  0  0  0
   39.3400   23.2890   40.3150 H   0  0  0  0  0  0  0  0  0  0  0  0
   39.5220   31.7500   40.9040 N   0  0  0  0  0  0  0  0  0  0  0  0
   40.9130   32.1770   41.0400 C   0  0  0  0  0  3  0  0  0  0  0  0
   41.2260   31.9190   42.0530 H   0  0  0  0  0  0  0  0  0  0  0  0
   41.0830   33.6060   40.6500 C   0  0  0  0  0  3  0  0  0  0  0  0
   42.0030   33.6630   40.0150 H   0  0  0  0  0  0  0  0  0  0  0  0
   40.0650   34.1600   39.9240 O   0  0  0  0  0  0  0  0  0  0  0  0
   38.8220   34.0550   40.5430 C   0  0  0  0  0  2  0  0  0  0  0  0
   38.3730   32.6310   40.6730 C   0  0  0  0  0  2  0  0  0  0  0  0
  1  6  2  0  0  0  0
  1  2  1  0  0  0  0
  2  3  2  0  0  0  0
  3  4  1  0  0  0  0
  3  8  1  0  0  0  0
  5  9  1  0  0  0  0
  5  4  2  0  0  0  0
  6  5  1  0  0  0  0
  7  1  1  0  0  0  0
  9 10  1  0  0  0  0
 10 11  2  0  0  0  0
 10 15  1  0  0  0  0
 11 16  1  0  0  0  0
 12 11  1  0  0  0  0
 13 12  2  0  0  0  0
 14 13  1  0  0  0  0
 14  9  2  0  0  0  0
 17 13  1  0  0  0  0
 18  2  1  0  0  0  0
 18 19  1  0  0  0  0
 19 20  1  0  0  0  0
 21 19  1  0  0  0  0
 22 21  1  0  0  0  0
 23 24  1  0  0  0  0
 23 21  1  0  0  0  0
 24 25  1  0  0  0  0
 25 18  1  0  0  0  0
M  END
>  <minimizedAffinity>
-4.19587564

$$$$

 OpenBabel03252500473D

 25 27  0  0  0  0  0  0  0  0999 V2000
   36.3020   27.2030   39.2080 C   0  0  0  0  0  0  0  0  0  0  0  0
   36.2250   27.8760   40.4530 C   0  0  0  0  0  0  0  0  0  0  0  0
   35.3100   28.9180   40.5800 C   0  0  0  0  0  0  0  0  0  0  0  0
   34.5400   29.2310   39.4970 N   0  0  0  0  0  0  0  0  0  0  0  0
   34.6420   28.5700   38.3350 C   0  0  0  0  0  0  0  0  0  0  0  0
   35.5140   27.5640   38.1830 N   0  0  0  0  0  0  0  0  0  0  0  0
   37.0010   26.4040   39.1040 H   0  0  0  0  0  0  0  0  0  0  0  0
   35.1850   29.4850   41.4940 H   0  0  0  0  0  0  0  0  0  0  0  0
   33.7920   28.9480   37.2080 C   0  0  0  0  0  0  0  0  0  0  0  0
   32.4800   29.3000   37.3800 C   0  0  0  0  0  0  0  0  0  0  0  0
   31.6610   29.6600   36.3310 C   0  0  0  0  0  0  0  0  0  0  0  0
   32.2230   29.6510   35.0830 N   0  0  0  0  0  0  0  0  0  0  0  0
   33.5010   29.3070   34.9290 C   0  0  0  0  0  0  0  0  0  0  0  0
   34.3280   28.9480   35.9470 N   0  0  0  0  0  0  0  0  0  0  0  0
   32.1310   29.2760   38.4020 H   0  0  0  0  0  0  0  0  0  0  0  0
   30.6440   29.9170   36.6020 H   0  0  0  0  0  0  0  0  0  0  0  0
   33.8730   29.3230   33.9130 H   0  0  0  0  0  0  0  0  0  0  0  0
   37.0490   27.5200   41.5690 N   0  0  0  0  0  0  0  0  0  0  0  0
   37.6460   26.1870   41.6070 C   0  0  0  0  0  3  0  0  0  0  0  0
   36.8220   25.4730   41.6630 H   0  0  0  0  0  0  0  0  0  0  0  0
   38.6720   26.0810   42.6830 C   0  0  0  0  0  3  0  0  0  0  0  0
   39.5520   25.5490   42.2430 H   0  0  0  0  0  0  0  0  0  0  0  0
   39.1370   27.2620   43.1940 O   0  0  0  0  0  0  0  0  0  0  0  0
   38.1280   28.0920   43.6770 C   0  0  0  0  0  2  0  0  0  0  0  0
   37.2120   28.5620   42.5870 C   0  0  0  0  0  2  0  0  0  0  0  0
  1  2  1  0  0  0  0
  2  3  2  0  0  0  0
  2 18  1  0  0  0  0
  3  8  1  0  0  0  0
  4  3  1  0  0  0  0
  5  4  2  0  0  0  0
  6  5  1  0  0  0  0
  6  1  2  0  0  0  0
  7  1  1  0  0  0  0
  9 10  1  0  0  0  0
  9  5  1  0  0  0  0
 10 15  1  0  0  0  0
 11 16  1  0  0  0  0
 11 10  2  0  0  0  0
 12 11  1  0  0  0  0
 13 12  2  0  0  0  0
 13 14  1  0  0  0  0
 14  9  2  0  0  0  0
 17 13  1  0  0  0  0
 18 19  1  0  0  0  0
 18 25  1  0  0  0  0
 19 20  1  0  0  0  0
 19 21  1  0  0  0  0
 21 23  1  0  0  0  0
 22 21  1  0  0  0  0
 23 24  1  0  0  0  0
 25 24  1  0  0  0  0
M  END
>  <minimizedAffinity>
-4.05310106

$$$$

 OpenBabel03252500473D

 25 27  0  0  0  0  0  0  0  0999 V2000
   39.3220   27.9800   40.2970 C   0  0  0  0  0  0  0  0  0  0  0  0
   38.1170   27.2360   40.3600 C   0  0  0  0  0  0  0  0  0  0  0  0
   36.9130   27.9350   40.3730 C   0  0  0  0  0  0  0  0  0  0  0  0
   36.9630   29.2980   40.3260 N   0  0  0  0  0  0  0  0  0  0  0  0
   38.1230   29.9680   40.2660 C   0  0  0  0  0  0  0  0  0  0  0  0
   39.2970   29.3220   40.2530 N   0  0  0  0  0  0  0  0  0  0  0  0
   40.2470   27.4510   40.2870 H   0  0  0  0  0  0  0  0  0  0  0  0
   35.9480   27.4460   40.4190 H   0  0  0  0  0  0  0  0  0  0  0  0
   38.1170   31.4290   40.2170 C   0  0  0  0  0  0  0  0  0  0  0  0
   37.1970   32.1210   39.4770 C   0  0  0  0  0  0  0  0  0  0  0  0
   37.1730   33.4990   39.4170 C   0  0  0  0  0  0  0  0  0  0  0  0
   38.1270   34.1610   40.1420 N   0  0  0  0  0  0  0  0  0  0  0  0
   39.0160   33.4740   40.8570 C   0  0  0  0  0  0  0  0  0  0  0  0
   39.0600   32.1180   40.9330 N   0  0  0  0  0  0  0  0  0  0  0  0
   36.4860   31.5080   38.9410 H   0  0  0  0  0  0  0  0  0  0  0  0
   36.3930   33.9230   38.7950 H   0  0  0  0  0  0  0  0  0  0  0  0
   39.7380   34.0680   41.4030 H   0  0  0  0  0  0  0  0  0  0  0  0
   38.1030   25.8040   40.4080 N   0  0  0  0  0  0  0  0  0  0  0  0
   38.8650   25.0580   39.4100 C   0  0  0  0  0  3  0  0  0  0  0  0
   38.4200   25.2820   38.4390 H   0  0  0  0  0  0  0  0  0  0  0  0
   38.9570   23.6130   39.7650 C   0  0  0  0  0  3  0  0  0  0  0  0
   40.0170   23.3000   39.5870 H   0  0  0  0  0  0  0  0  0  0  0  0
   38.6590   23.2880   41.0590 O   0  0  0  0  0  0  0  0  0  0  0  0
   37.4000   23.7250   41.4640 C   0  0  0  0  0  2  0  0  0  0  0  0
   37.3000   25.2210   41.4870 C   0  0  0  0  0  2  0  0  0  0  0  0
  1  2  1  0  0  0  0
  2  3  2  0  0  0  0
  2 18  1  0  0  0  0
  3  8  1  0  0  0  0
  4  3  1  0  0  0  0
  5  4  2  0  0  0  0
  6  5  1  0  0  0  0
  6  1  2  0  0  0  0
  7  1  1  0  0  0  0
  9  5  1  0  0  0  0
  9 14  1  0  0  0  0
 10  9  2  0  0  0  0
 11 10  1  0  0  0  0
 11 12  2  0  0  0  0
 12 13  1  0  0  0  0
 13 14  2  0  0  0  0
 13 17  1  0  0  0  0
 15 10  1  0  0  0  0
 16 11  1  0  0  0  0
 18 25  1  0  0  0  0
 19 21  1  0  0  0  0
 19 18  1  0  0  0  0
 20 19  1  0  0  0  0
 21 23  1  0  0  0  0
 22 21  1  0  0  0  0
 23 24  1  0  0  0  0
 24 25  1  0  0  0  0
M  END
>  <minimizedAffinity>
-4.00624228

$$$$

 OpenBabel03252500473D

 25 27  0  0  0  0  0  0  0  0999 V2000
   38.1540   28.1920   39.3560 C   0  0  0  0  0  0  0  0  0  0  0  0
   37.7770   27.6720   40.6190 C   0  0  0  0  0  0  0  0  0  0  0  0
   37.8780   28.5070   41.7290 C   0  0  0  0  0  0  0  0  0  0  0  0
   38.3350   29.7780   41.5360 N   0  0  0  0  0  0  0  0  0  0  0  0
   38.6830   30.2350   40.3240 C   0  0  0  0  0  0  0  0  0  0  0  0
   38.5970   29.4540   39.2380 N   0  0  0  0  0  0  0  0  0  0  0  0
   38.0800   27.5580   38.5020 H   0  0  0  0  0  0  0  0  0  0  0  0
   37.6110   28.1920   42.7300 H   0  0  0  0  0  0  0  0  0  0  0  0
   39.1660   31.6060   40.1750 C   0  0  0  0  0  0  0  0  0  0  0  0
   38.4700   32.6740   40.6730 C   0  0  0  0  0  0  0  0  0  0  0  0
   38.9070   33.9750   40.5440 C   0  0  0  0  0  0  0  0  0  0  0  0
   40.0920   34.1610   39.8840 N   0  0  0  0  0  0  0  0  0  0  0  0
   40.7600   33.1130   39.4040 C   0  0  0  0  0  0  0  0  0  0  0  0
   40.3490   31.8220   39.5190 N   0  0  0  0  0  0  0  0  0  0  0  0
   37.5470   32.4240   41.1770 H   0  0  0  0  0  0  0  0  0  0  0  0
   38.2630   34.7280   40.9830 H   0  0  0  0  0  0  0  0  0  0  0  0
   41.6870   33.3400   38.8950 H   0  0  0  0  0  0  0  0  0  0  0  0
   37.3010   26.3320   40.7840 N   0  0  0  0  0  0  0  0  0  0  0  0
   36.8390   25.5970   39.6080 C   0  0  0  0  0  3  0  0  0  0  0  0
   35.9680   26.1300   39.2240 H   0  0  0  0  0  0  0  0  0  0  0  0
   36.6360   24.1530   39.9140 C   0  0  0  0  0  3  0  0  0  0  0  0
   37.0810   23.5740   39.0650 H   0  0  0  0  0  0  0  0  0  0  0  0
   37.2220   23.6890   41.0600 O   0  0  0  0  0  0  0  0  0  0  0  0
   36.8500   24.4000   42.1980 C   0  0  0  0  0  2  0  0  0  0  0  0
   37.3250   25.8210   42.1590 C   0  0  0  0  0  2  0  0  0  0  0  0
  1  2  1  0  0  0  0
  2 18  1  0  0  0  0
  2  3  2  0  0  0  0
  3  8  1  0  0  0  0
  4  3  1  0  0  0  0
  5  4  2  0  0  0  0
  6  1  2  0  0  0  0
  6  5  1  0  0  0  0
  7  1  1  0  0  0  0
  9  5  1  0  0  0  0
  9 10  1  0  0  0  0
 10 15  1  0  0  0  0
 11 10  2  0  0  0  0
 11 16  1  0  0  0  0
 12 11  1  0  0  0  0
 13 14  1  0  0  0  0
 13 12  2  0  0  0  0
 14  9  2  0  0  0  0
 17 13  1  0  0  0  0
 18 25  1  0  0  0  0
 19 21  1  0  0  0  0
 19 18  1  0  0  0  0
 20 19  1  0  0  0  0
 21 23  1  0  0  0  0
 22 21  1  0  0  0  0
 23 24  1  0  0  0  0
 25 24  1  0  0  0  0
M  END
>  <minimizedAffinity>
-3.96016526

$$$$

 OpenBabel03252500473D

 25 27  0  0  0  0  0  0  0  0999 V2000
   36.3960   27.7310   38.8960 C   0  0  0  0  0  0  0  0  0  0  0  0
   36.1670   28.3270   40.1620 C   0  0  0  0  0  0  0  0  0  0  0  0
   34.9980   29.0610   40.3390 C   0  0  0  0  0  0  0  0  0  0  0  0
   34.1390   29.1650   39.2840 N   0  0  0  0  0  0  0  0  0  0  0  0
   34.3900   28.5860   38.1000 C   0  0  0  0  0  0  0  0  0  0  0  0
   35.5080   27.8750   37.8990 N   0  0  0  0  0  0  0  0  0  0  0  0
   37.2900   27.1680   38.7530 H   0  0  0  0  0  0  0  0  0  0  0  0
   34.7440   29.5480   41.2720 H   0  0  0  0  0  0  0  0  0  0  0  0
   33.4350   28.7300   37.0040 C   0  0  0  0  0  0  0  0  0  0  0  0
   32.2400   29.3770   37.1690 C   0  0  0  0  0  0  0  0  0  0  0  0
   31.3240   29.5250   36.1490 C   0  0  0  0  0  0  0  0  0  0  0  0
   31.6640   28.9860   34.9370 N   0  0  0  0  0  0  0  0  0  0  0  0
   32.8300   28.3590   34.7900 C   0  0  0  0  0  0  0  0  0  0  0  0
   33.7480   28.2010   35.7800 N   0  0  0  0  0  0  0  0  0  0  0  0
   32.0640   29.7670   38.1620 H   0  0  0  0  0  0  0  0  0  0  0  0
   30.4170   30.0580   36.4110 H   0  0  0  0  0  0  0  0  0  0  0  0
   33.0270   27.9600   33.8040 H   0  0  0  0  0  0  0  0  0  0  0  0
   37.0920   28.1970   41.2470 N   0  0  0  0  0  0  0  0  0  0  0  0
   37.5830   29.4070   41.9030 C   0  0  0  0  0  3  0  0  0  0  0  0
   38.1480   29.9660   41.1550 H   0  0  0  0  0  0  0  0  0  0  0  0
   38.3130   29.0850   43.1630 C   0  0  0  0  0  3  0  0  0  0  0  0
   37.9640   29.8130   43.9370 H   0  0  0  0  0  0  0  0  0  0  0  0
   38.1110   27.8330   43.6760 O   0  0  0  0  0  0  0  0  0  0  0  0
   38.3930   26.8120   42.7710 C   0  0  0  0  0  2  0  0  0  0  0  0
   37.4610   26.8220   41.5970 C   0  0  0  0  0  2  0  0  0  0  0  0
  1  2  1  0  0  0  0
  2  3  2  0  0  0  0
  2 18  1  0  0  0  0
  3  8  1  0  0  0  0
  4  3  1  0  0  0  0
  5  4  2  0  0  0  0
  6  5  1  0  0  0  0
  6  1  2  0  0  0  0
  7  1  1  0  0  0  0
  9 10  1  0  0  0  0
  9  5  1  0  0  0  0
 10 15  1  0  0  0  0
 11 16  1  0  0  0  0
 11 10  2  0  0  0  0
 12 11  1  0  0  0  0
 13 12  2  0  0  0  0
 13 14  1  0  0  0  0
 14  9  2  0  0  0  0
 17 13  1  0  0  0  0
 18 25  1  0  0  0  0
 18 19  1  0  0  0  0
 19 21  1  0  0  0  0
 20 19  1  0  0  0  0
 21 23  1  0  0  0  0
 21 22  1  0  0  0  0
 24 23  1  0  0  0  0
 25 24  1  0  0  0  0
M  END
>  <minimizedAffinity>
-3.93515539

$$$$

 OpenBabel03252500473D

 25 27  0  0  0  0  0  0  0  0999 V2000
   37.5700   30.9450   37.2980 C   0  0  0  0  0  0  0  0  0  0  0  0
   37.5850   31.3760   38.6490 C   0  0  0  0  0  0  0  0  0  0  0  0
   36.6740   30.8010   39.5310 C   0  0  0  0  0  0  0  0  0  0  0  0
   35.8190   29.8550   39.0430 N   0  0  0  0  0  0  0  0  0  0  0  0
   35.8350   29.4730   37.7580 C   0  0  0  0  0  0  0  0  0  0  0  0
   36.7000   30.0100   36.8860 N   0  0  0  0  0  0  0  0  0  0  0  0
   38.2650   31.3820   36.6170 H   0  0  0  0  0  0  0  0  0  0  0  0
   36.6170   31.0700   40.5770 H   0  0  0  0  0  0  0  0  0  0  0  0
   34.8960   28.4560   37.2900 C   0  0  0  0  0  0  0  0  0  0  0  0
   33.7800   28.7820   36.5670 C   0  0  0  0  0  0  0  0  0  0  0  0
   32.8810   27.8390   36.1160 C   0  0  0  0  0  0  0  0  0  0  0  0
   33.1530   26.5340   36.4270 N   0  0  0  0  0  0  0  0  0  0  0  0
   34.2430   26.2310   37.1320 C   0  0  0  0  0  0  0  0  0  0  0  0
   35.1430   27.1420   37.5870 N   0  0  0  0  0  0  0  0  0  0  0  0
   33.6540   29.8380   36.3720 H   0  0  0  0  0  0  0  0  0  0  0  0
   32.0400   28.2300   35.5550 H   0  0  0  0  0  0  0  0  0  0  0  0
   34.3890   25.1790   37.3380 H   0  0  0  0  0  0  0  0  0  0  0  0
   38.4970   32.3710   39.1250 N   0  0  0  0  0  0  0  0  0  0  0  0
   38.0120   33.3810   40.0630 C   0  0  0  0  0  3  0  0  0  0  0  0
   37.2540   33.9640   39.5370 H   0  0  0  0  0  0  0  0  0  0  0  0
   39.1370   34.1610   40.6530 C   0  0  0  0  0  3  0  0  0  0  0  0
   38.9330   34.2500   41.7490 H   0  0  0  0  0  0  0  0  0  0  0  0
   40.3850   33.6140   40.5250 O   0  0  0  0  0  0  0  0  0  0  0  0
   40.7340   33.3330   39.2070 C   0  0  0  0  0  2  0  0  0  0  0  0
   39.8640   32.2710   38.6040 C   0  0  0  0  0  2  0  0  0  0  0  0
  1  2  1  0  0  0  0
  2 18  1  0  0  0  0
  2  3  2  0  0  0  0
  3  8  1  0  0  0  0
  4  3  1  0  0  0  0
  5  4  2  0  0  0  0
  6  1  2  0  0  0  0
  6  5  1  0  0  0  0
  7  1  1  0  0  0  0
  9 14  1  0  0  0  0
  9  5  1  0  0  0  0
 10  9  2  0  0  0  0
 11 12  2  0  0  0  0
 11 10  1  0  0  0  0
 12 13  1  0  0  0  0
 13 17  1  0  0  0  0
 13 14  2  0  0  0  0
 15 10  1  0  0  0  0
 16 11  1  0  0  0  0
 18 19  1  0  0  0  0
 19 21  1  0  0  0  0
 20 19  1  0  0  0  0
 21 22  1  0  0  0  0
 23 21  1  0  0  0  0
 24 23  1  0  0  0  0
 25 18  1  0  0  0  0
 25 24  1  0  0  0  0
M  END
>  <minimizedAffinity>
-3.89133525

$$$$

 OpenBabel03252500473D

 25 27  0  0  0  0  0  0  0  0999 V2000
   39.0490   29.8210   40.1200 C   0  0  0  0  0  0  0  0  0  0  0  0
   39.4300   29.4170   41.4240 C   0  0  0  0  0  0  0  0  0  0  0  0
   40.5600   30.0030   41.9890 C   0  0  0  0  0  0  0  0  0  0  0  0
   41.2350   30.9340   41.2540 N   0  0  0  0  0  0  0  0  0  0  0  0
   40.8430   31.2920   40.0220 C   0  0  0  0  0  0  0  0  0  0  0  0
   39.7610   30.7430   39.4520 N   0  0  0  0  0  0  0  0  0  0  0  0
   38.1850   29.3760   39.6810 H   0  0  0  0  0  0  0  0  0  0  0  0
   40.9210   29.7530   42.9790 H   0  0  0  0  0  0  0  0  0  0  0  0
   41.6040   32.2940   39.2800 C   0  0  0  0  0  0  0  0  0  0  0  0
   42.4920   33.1310   39.9010 C   0  0  0  0  0  0  0  0  0  0  0  0
   43.2210   34.0840   39.2210 C   0  0  0  0  0  0  0  0  0  0  0  0
   43.0170   34.1610   37.8690 N   0  0  0  0  0  0  0  0  0  0  0  0
   42.1500   33.3400   37.2770 C   0  0  0  0  0  0  0  0  0  0  0  0
   41.4210   32.3940   37.9270 N   0  0  0  0  0  0  0  0  0  0  0  0
   42.5820   32.9910   40.9700 H   0  0  0  0  0  0  0  0  0  0  0  0
   43.8880   34.6810   39.8300 H   0  0  0  0  0  0  0  0  0  0  0  0
   42.0440   33.4630   36.2080 H   0  0  0  0  0  0  0  0  0  0  0  0
   38.6970   28.4360   42.1660 N   0  0  0  0  0  0  0  0  0  0  0  0
   37.7650   28.8850   43.1990 C   0  0  0  0  0  3  0  0  0  0  0  0
   38.3580   29.3900   43.9630 H   0  0  0  0  0  0  0  0  0  0  0  0
   36.9040   27.7660   43.6770 C   0  0  0  0  0  3  0  0  0  0  0  0
   35.8600   28.1630   43.7420 H   0  0  0  0  0  0  0  0  0  0  0  0
   36.8570   26.6550   42.8810 O   0  0  0  0  0  0  0  0  0  0  0  0
   38.1120   26.1140   42.6120 C   0  0  0  0  0  2  0  0  0  0  0  0
   38.9670   27.0420   41.8030 C   0  0  0  0  0  2  0  0  0  0  0  0
  1  2  1  0  0  0  0
  2  3  2  0  0  0  0
  2 18  1  0  0  0  0
  3  8  1  0  0  0  0
  4  3  1  0  0  0  0
  5  4  2  0  0  0  0
  6  5  1  0  0  0  0
  6  1  2  0  0  0  0
  7  1  1  0  0  0  0
  9 10  1  0  0  0  0
  9  5  1  0  0  0  0
 10 15  1  0  0  0  0
 11 16  1  0  0  0  0
 11 10  2  0  0  0  0
 12 11  1  0  0  0  0
 13 12  2  0  0  0  0
 13 14  1  0  0  0  0
 14  9  2  0  0  0  0
 17 13  1  0  0  0  0
 18 19  1  0  0  0  0
 19 21  1  0  0  0  0
 19 20  1  0  0  0  0
 21 22  1  0  0  0  0
 23 21  1  0  0  0  0
 24 23  1  0  0  0  0
 25 18  1  0  0  0  0
 25 24  1  0  0  0  0
M  END
>  <minimizedAffinity>
-3.88573694

$$$$

 OpenBabel03252500473D

 25 27  0  0  0  0  0  0  0  0999 V2000
   35.4800   27.2820   38.0650 C   0  0  0  0  0  0  0  0  0  0  0  0
   34.4640   28.2700   38.0750 C   0  0  0  0  0  0  0  0  0  0  0  0
   34.3540   29.0870   39.1970 C   0  0  0  0  0  0  0  0  0  0  0  0
   35.2330   28.8900   40.2220 N   0  0  0  0  0  0  0  0  0  0  0  0
   36.1830   27.9440   40.1760 C   0  0  0  0  0  0  0  0  0  0  0  0
   36.3110   27.1420   39.1100 N   0  0  0  0  0  0  0  0  0  0  0  0
   35.5690   26.6520   37.2090 H   0  0  0  0  0  0  0  0  0  0  0  0
   33.6080   29.8660   39.2880 H   0  0  0  0  0  0  0  0  0  0  0  0
   37.0970   27.7770   41.3040 C   0  0  0  0  0  0  0  0  0  0  0  0
   36.6660   27.8590   42.6000 C   0  0  0  0  0  0  0  0  0  0  0  0
   37.5100   27.7050   43.6790 C   0  0  0  0  0  0  0  0  0  0  0  0
   38.8270   27.4610   43.3960 N   0  0  0  0  0  0  0  0  0  0  0  0
   39.2340   27.3830   42.1300 C   0  0  0  0  0  0  0  0  0  0  0  0
   38.4200   27.5310   41.0510 N   0  0  0  0  0  0  0  0  0  0  0  0
   35.6090   28.0550   42.7190 H   0  0  0  0  0  0  0  0  0  0  0  0
   37.0430   27.7930   44.6520 H   0  0  0  0  0  0  0  0  0  0  0  0
   40.2890   27.1880   41.9870 H   0  0  0  0  0  0  0  0  0  0  0  0
   33.5590   28.4480   36.9800 N   0  0  0  0  0  0  0  0  0  0  0  0
   32.4060   29.3300   37.1540 C   0  0  0  0  0  3  0  0  0  0  0  0
   31.7810   28.8850   37.9290 H   0  0  0  0  0  0  0  0  0  0  0  0
   31.7320   29.6070   35.8540 C   0  0  0  0  0  3  0  0  0  0  0  0
   31.5100   30.7030   35.8280 H   0  0  0  0  0  0  0  0  0  0  0  0
   32.4520   29.3220   34.7260 O   0  0  0  0  0  0  0  0  0  0  0  0
   32.9040   28.0050   34.6760 C   0  0  0  0  0  2  0  0  0  0  0  0
   33.8920   27.7040   35.7620 C   0  0  0  0  0  2  0  0  0  0  0  0
  1  2  2  0  0  0  0
  1  6  1  0  0  0  0
  2  3  1  0  0  0  0
  3  8  1  0  0  0  0
  3  4  2  0  0  0  0
  5  4  1  0  0  0  0
  5  9  1  0  0  0  0
  6  5  2  0  0  0  0
  7  1  1  0  0  0  0
  9 10  1  0  0  0  0
 10 15  1  0  0  0  0
 10 11  2  0  0  0  0
 11 16  1  0  0  0  0
 12 11  1  0  0  0  0
 13 12  2  0  0  0  0
 14  9  2  0  0  0  0
 14 13  1  0  0  0  0
 17 13  1  0  0  0  0
 18 19  1  0  0  0  0
 18  2  1  0  0  0  0
 19 20  1  0  0  0  0
 21 19  1  0  0  0  0
 22 21  1  0  0  0  0
 23 21  1  0  0  0  0
 24 23  1  0  0  0  0
 24 25  1  0  0  0  0
 25 18  1  0  0  0  0
M  END
>  <minimizedAffinity>
-3.84361744

$$$$
