
 OpenBabel03252506283D

 46 50  0  0  0  0  0  0  0  0999 V2000
   47.1760   30.4990   48.0870 C   0  0  0  0  0  0  0  0  0  0  0  0
   47.5890   31.2860   48.7550 H   0  0  0  0  0  0  0  0  0  0  0  0
   47.8400   29.6320   48.1950 H   0  0  0  0  0  0  0  0  0  0  0  0
   46.7960   32.2510   44.9930 C   0  0  0  0  0  0  0  0  0  0  0  0
   47.5760   31.1480   44.6040 C   0  0  0  0  0  0  0  0  0  0  0  0
   47.8030   30.3820   45.6920 C   0  0  0  0  0  0  0  0  0  0  0  0
   47.1940   30.9780   46.7130 N   0  0  0  0  0  0  0  0  0  0  0  0
   46.5820   32.1040   46.3180 N   0  0  0  0  0  0  0  0  0  0  0  0
   47.9620   30.8960   43.6200 H   0  0  0  0  0  0  0  0  0  0  0  0
   48.3620   29.4690   45.7480 H   0  0  0  0  0  0  0  0  0  0  0  0
   45.2440   35.3290   43.7880 C   0  0  0  0  0  0  0  0  0  0  0  0
   45.4830   35.3070   42.4250 C   0  0  0  0  0  0  0  0  0  0  0  0
   46.1890   34.2110   41.9300 C   0  0  0  0  0  0  0  0  0  0  0  0
   46.5860   33.2620   42.7920 N   0  0  0  0  0  0  0  0  0  0  0  0
   46.3500   33.2970   44.1000 C   0  0  0  0  0  0  0  0  0  0  0  0
   45.6660   34.3540   44.5940 N   0  0  0  0  0  0  0  0  0  0  0  0
   44.6980   36.1700   44.1980 H   0  0  0  0  0  0  0  0  0  0  0  0
   45.1760   36.0490   41.7320 H   0  0  0  0  0  0  0  0  0  0  0  0
   46.5260   34.0170   40.5600 N   0  0  0  0  0  0  0  0  0  0  0  0
   47.8310   34.3850   40.0090 C   0  0  0  0  0  0  0  0  0  0  0  0
   47.7560   35.0850   39.1620 H   0  0  0  0  0  0  0  0  0  0  0  0
   48.4900   33.0960   39.5800 C   0  0  0  0  0  0  0  0  0  0  0  0
   48.9610   32.6660   40.5110 H   0  0  0  0  0  0  0  0  0  0  0  0
   47.6150   32.1390   39.1260 O   0  0  0  0  0  0  0  0  0  0  0  0
   46.4530   32.6680   38.5830 C   0  0  0  0  0  0  0  0  0  0  0  0
   45.6250   33.4450   39.5830 C   0  0  0  0  0  0  0  0  0  0  0  0
   45.7820   30.2110   48.5190 C   0  0  0  0  0  0  0  0  0  0  0  0
   45.1890   31.1580   48.4650 H   0  0  0  0  0  0  0  0  0  0  0  0
   45.8130   29.9710   49.6180 H   0  0  0  0  0  0  0  0  0  0  0  0
   45.0960   27.7750   48.1260 C   0  0  0  0  0  0  0  0  0  0  0  0
   45.0930   29.1300   47.8430 C   0  0  0  0  0  0  0  0  0  0  0  0
   44.3180   29.5230   46.7530 C   0  0  0  0  0  0  0  0  0  0  0  0
   43.6030   28.6150   46.0080 C   0  0  0  0  0  0  0  0  0  0  0  0
   42.7910   28.7040   44.9320 N   0  0  0  0  0  0  0  0  0  0  0  0
   42.3220   27.5060   44.5660 C   0  0  0  0  0  0  0  0  0  0  0  0
   42.8390   26.5490   45.4360 C   0  0  0  0  0  0  0  0  0  0  0  0
   43.6150   27.2790   46.2980 C   0  0  0  0  0  0  0  0  0  0  0  0
   44.3800   26.8850   47.3760 C   0  0  0  0  0  0  0  0  0  0  0  0
   45.7130   27.5100   48.9830 H   0  0  0  0  0  0  0  0  0  0  0  0
   44.2300   30.5510   46.4270 H   0  0  0  0  0  0  0  0  0  0  0  0
   42.5470   29.5870   44.4310 H   0  0  0  0  0  0  0  0  0  0  0  0
   41.6550   27.2910   43.7410 H   0  0  0  0  0  0  0  0  0  0  0  0
   42.6420   25.4970   45.3950 H   0  0  0  0  0  0  0  0  0  0  0  0
   44.4320   25.4680   47.7350 C   0  0  0  0  0  0  0  0  0  0  0  0
   44.9880   25.0750   48.8000 O   0  0  0  0  0  0  0  0  0  0  0  0
   43.9820   24.7110   47.0750 H   0  0  0  0  0  0  0  0  0  0  0  0
  1  3  1  0  0  0  0
  1 27  1  0  0  0  0
  1  2  1  0  0  0  0
  4  8  2  0  0  0  0
  5  4  1  0  0  0  0
  5  6  2  0  0  0  0
  6 10  1  0  0  0  0
  6  7  1  0  0  0  0
  7  1  1  0  0  0  0
  8  7  1  0  0  0  0
  9  5  1  0  0  0  0
 11 17  1  0  0  0  0
 11 16  1  0  0  0  0
 12 11  2  0  0  0  0
 13 12  1  0  0  0  0
 13 14  2  0  0  0  0
 14 15  1  0  0  0  0
 15 16  2  0  0  0  0
 15  4  1  0  0  0  0
 18 12  1  0  0  0  0
 19 13  1  0  0  0  0
 20 19  1  0  0  0  0
 21 20  1  0  0  0  0
 22 20  1  0  0  0  0
 22 23  1  0  0  0  0
 24 22  1  0  0  0  0
 25 24  1  0  0  0  0
 25 26  1  0  0  0  0
 26 19  1  0  0  0  0
 27 29  1  0  0  0  0
 28 27  1  0  0  0  0
 30 39  1  0  0  0  0
 31 30  1  0  0  0  0
 31 27  1  0  0  0  0
 32 31  2  0  0  0  0
 33 37  2  0  0  0  0
 33 32  1  0  0  0  0
 34 33  1  0  0  0  0
 35 34  1  0  0  0  0
 35 36  2  0  0  0  0
 36 37  1  0  0  0  0
 37 38  1  0  0  0  0
 38 44  1  0  0  0  0
 38 30  2  0  0  0  0
 40 32  1  0  0  0  0
 41 34  1  0  0  0  0
 42 35  1  0  0  0  0
 43 36  1  0  0  0  0
 44 45  2  0  0  0  0
 46 44  1  0  0  0  0
M  END
>  <minimizedAffinity>
-5.24414015

>  <minimizedRMSD>
1.16760433

$$$$
