
 OpenBabel03242518173D

 22 23  0  0  0  0  0  0  0  0999 V2000
   44.5360   35.4780   44.9580 C   0  0  0  0  0  0  0  0  0  0  0  0
   45.0370   35.5690   43.6450 C   0  0  0  0  0  0  0  0  0  0  0  0
   46.0830   34.7250   43.3330 C   0  0  0  0  0  0  0  0  0  0  0  0
   46.5640   33.8820   44.2530 N   0  0  0  0  0  0  0  0  0  0  0  0
   46.0620   33.8160   45.5090 C   0  0  0  0  0  0  0  0  0  0  0  0
   45.0420   34.6230   45.8570 N   0  0  0  0  0  0  0  0  0  0  0  0
   43.7160   36.1070   45.2830 H   0  0  0  0  0  0  0  0  0  0  0  0
   46.4380   34.8210   42.3300 H   0  0  0  0  0  0  0  0  0  0  0  0
   44.3990   36.5210   42.8130 N   0  0  0  0  0  0  0  0  0  0  0  0
   44.9110   37.4320   42.7680 H   0  0  0  0  0  0  0  0  0  0  0  0
   43.5250   36.4880   42.2410 H   0  0  0  0  0  0  0  0  0  0  0  0
   46.5880   32.8860   46.5380 C   0  0  0  0  0  0  0  0  0  0  0  0
   47.6490   32.6620   46.3270 H   0  0  0  0  0  0  0  0  0  0  0  0
   46.5600   33.3830   47.5290 H   0  0  0  0  0  0  0  0  0  0  0  0
   45.7870   31.6850   46.6780 N   0  0  0  0  0  0  0  0  0  0  0  0
   45.5890   31.4130   48.1070 C   0  0  0  0  0  0  0  0  0  0  0  0
   44.8600   32.1670   48.4710 H   0  0  0  0  0  0  0  0  0  0  0  0
   45.1180   30.0000   48.3430 C   0  0  0  0  0  0  0  0  0  0  0  0
   44.2730   30.0680   49.0740 H   0  0  0  0  0  0  0  0  0  0  0  0
   44.5840   29.4160   47.2120 O   0  0  0  0  0  0  0  0  0  0  0  0
   45.4360   29.3960   46.1260 C   0  0  0  0  0  0  0  0  0  0  0  0
   46.4800   30.4990   46.1800 C   0  0  0  0  0  0  0  0  0  0  0  0
  1  7  1  0  0  0  0
  1  6  1  0  0  0  0
  2  1  2  0  0  0  0
  3  2  1  0  0  0  0
  3  4  2  0  0  0  0
  4  5  1  0  0  0  0
  5  6  2  0  0  0  0
  5 12  1  0  0  0  0
  8  3  1  0  0  0  0
  9  2  1  0  0  0  0
 10  9  1  0  0  0  0
 11  9  1  0  0  0  0
 12 15  1  0  0  0  0
 12 14  1  0  0  0  0
 13 12  1  0  0  0  0
 15 16  1  0  0  0  0
 16 18  1  0  0  0  0
 16 17  1  0  0  0  0
 18 19  1  0  0  0  0
 20 18  1  0  0  0  0
 21 22  1  0  0  0  0
 21 20  1  0  0  0  0
 22 15  1  0  0  0  0
M  END
>  <minimizedAffinity>
-4.33589649

>  <minimizedRMSD>
0.95913136

$$$$
