
 OpenBabel03242512293D

 37 39  0  0  1  0  0  0  0  0999 V2000
   47.2640   31.8630   47.3250 C   0  0  1  0  0  0  0  0  0  0  0  0
   47.8020   32.3700   48.6650 C   0  0  0  0  0  0  0  0  0  0  0  0
   49.0200   31.5850   49.0420 C   0  0  0  0  0  0  0  0  0  0  0  0
   48.6940   30.1280   49.0390 C   0  0  0  0  0  0  0  0  0  0  0  0
   48.1610   29.6760   47.7190 C   0  0  0  0  0  0  0  0  0  0  0  0
   46.8090   30.4220   47.5080 C   0  0  2  0  0  0  0  0  0  0  0  0
   48.0360   31.8540   46.5650 H   0  0  0  0  0  0  0  0  0  0  0  0
   46.9840   32.1580   49.4070 H   0  0  0  0  0  0  0  0  0  0  0  0
   48.0300   33.4330   48.6290 H   0  0  0  0  0  0  0  0  0  0  0  0
   49.3620   31.8930   50.0480 H   0  0  0  0  0  0  0  0  0  0  0  0
   49.8080   31.7300   48.2670 H   0  0  0  0  0  0  0  0  0  0  0  0
   47.9580   29.8520   49.8260 H   0  0  0  0  0  0  0  0  0  0  0  0
   49.6310   29.5680   49.2760 H   0  0  0  0  0  0  0  0  0  0  0  0
   48.8480   29.9220   46.9060 H   0  0  0  0  0  0  0  0  0  0  0  0
   47.9290   28.6080   47.8300 H   0  0  0  0  0  0  0  0  0  0  0  0
   46.3220   30.3700   48.5030 H   0  0  0  0  0  0  0  0  0  0  0  0
   46.0330   29.8090   46.5370 N   0  0  1  0  0  0  0  0  0  0  0  0
   46.6070   29.0240   45.5220 C   0  0  0  0  0  0  0  0  0  0  0  0
   47.6870   29.3080   45.4030 H   0  0  0  0  0  0  0  0  0  0  0  0
   46.4480   27.5360   45.6720 C   0  0  0  0  0  0  0  0  0  0  0  0
   47.0520   27.0690   46.4450 H   0  0  0  0  0  0  0  0  0  0  0  0
   45.0850   27.2820   45.8000 O   0  0  0  0  0  0  0  0  0  0  0  0
   44.6670   27.8010   46.9980 C   0  0  0  0  0  0  0  0  0  0  0  0
   44.8220   29.2820   47.1170 C   0  0  0  0  0  0  0  0  0  0  0  0
   46.1350   32.7500   46.9500 C   0  0  0  0  0  0  0  0  0  0  0  0
   45.2410   32.7850   47.8400 O   0  0  0  0  0  0  0  0  0  0  0  0
   44.9060   35.0480   44.4290 C   0  0  0  0  0  0  0  0  0  0  0  0
   45.8290   34.9150   43.3760 C   0  0  0  0  0  0  0  0  0  0  0  0
   46.9040   34.0180   43.5430 C   0  0  0  0  0  0  0  0  0  0  0  0
   46.9360   33.3690   44.7190 N   0  0  0  0  0  0  0  0  0  0  0  0
   46.0760   33.4900   45.7060 C   0  0  0  0  0  0  0  0  0  0  0  0
   45.0330   34.3430   45.5740 N   0  0  0  0  0  0  0  0  0  0  0  0
   43.8260   35.9470   44.2650 N   0  0  0  0  0  0  0  0  0  0  0  0
   45.7030   35.4900   42.4710 H   0  0  0  0  0  0  0  0  0  0  0  0
   47.6150   33.9010   42.7580 H   0  0  0  0  0  0  0  0  0  0  0  0
   43.3840   36.3560   45.1070 H   0  0  0  0  0  0  0  0  0  0  0  0
   43.4780   36.1980   43.3220 H   0  0  0  0  0  0  0  0  0  0  0  0
  1  7  1  6  0  0  0
  1  6  1  0  0  0  0
  1  2  1  0  0  0  0
  2  3  1  0  0  0  0
  2  8  1  0  0  0  0
  3 10  1  0  0  0  0
  4  3  1  0  0  0  0
  4 13  1  0  0  0  0
  4 12  1  0  0  0  0
  5 15  1  0  0  0  0
  5  4  1  0  0  0  0
  6  5  1  0  0  0  0
  6 16  1  1  0  0  0
  9  2  1  0  0  0  0
 11  3  1  0  0  0  0
 14  5  1  0  0  0  0
 17 24  1  1  0  0  0
 17  6  1  0  0  0  0
 18 20  1  0  0  0  0
 18 17  1  0  0  0  0
 19 18  1  0  0  0  0
 20 22  1  0  0  0  0
 20 21  1  0  0  0  0
 22 23  1  0  0  0  0
 23 24  1  0  0  0  0
 25  1  1  0  0  0  0
 25 26  2  0  0  0  0
 27 32  1  0  0  0  0
 28 29  1  0  0  0  0
 28 27  2  0  0  0  0
 29 30  2  0  0  0  0
 30 31  1  0  0  0  0
 31 25  1  0  0  0  0
 32 31  2  0  0  0  0
 33 27  1  0  0  0  0
 33 36  1  0  0  0  0
 34 28  1  0  0  0  0
 35 29  1  0  0  0  0
 37 33  1  0  0  0  0
M  END
>  <minimizedAffinity>
-5.53077698

>  <minimizedRMSD>
1.55141938

$$$$
