
 OpenBabel03252507223D

 46 49  0  0  1  0  0  0  0  0999 V2000
   46.9960   32.9700   43.1910 C   0  0  0  0  0  0  0  0  0  0  0  0
   48.1740   32.8370   43.6320 O   0  0  0  0  0  0  0  0  0  0  0  0
   46.4620   32.1710   42.1490 N   0  0  0  0  0  0  0  0  0  0  0  0
   45.1500   31.5090   42.0310 C   0  0  0  0  0  0  0  0  0  0  0  0
   44.5140   31.8760   40.7050 C   0  0  0  0  0  0  0  0  0  0  0  0
   45.3420   31.3480   39.5640 C   0  0  0  0  0  0  0  0  0  0  0  0
   46.6920   30.9050   40.0850 C   0  0  0  0  0  0  0  0  0  0  0  0
   47.2910   31.9140   41.0010 C   0  0  2  0  0  0  0  0  0  0  0  0
   45.2350   30.4300   42.1970 H   0  0  0  0  0  0  0  0  0  0  0  0
   44.5020   32.0050   42.8110 H   0  0  0  0  0  0  0  0  0  0  0  0
   43.4580   31.5470   40.6860 H   0  0  0  0  0  0  0  0  0  0  0  0
   44.5660   32.9930   40.6300 H   0  0  0  0  0  0  0  0  0  0  0  0
   45.4150   32.0780   38.7310 H   0  0  0  0  0  0  0  0  0  0  0  0
   44.8080   30.4330   39.1820 H   0  0  0  0  0  0  0  0  0  0  0  0
   46.5070   29.9650   40.6680 H   0  0  0  0  0  0  0  0  0  0  0  0
   47.3680   30.6380   39.2650 H   0  0  0  0  0  0  0  0  0  0  0  0
   47.3250   32.8920   40.4230 H   0  0  0  0  0  0  0  0  0  0  0  0
   45.7950   35.0980   42.9740 C   0  0  0  0  0  0  0  0  0  0  0  0
   46.1560   33.9890   43.7820 C   0  0  0  0  0  0  0  0  0  0  0  0
   45.7060   33.9160   45.0790 C   0  0  0  0  0  0  0  0  0  0  0  0
   44.9310   34.9090   45.5430 N   0  0  0  0  0  0  0  0  0  0  0  0
   44.5690   35.9830   44.7880 C   0  0  0  0  0  0  0  0  0  0  0  0
   45.0150   36.0520   43.5090 N   0  0  0  0  0  0  0  0  0  0  0  0
   46.1240   35.1950   41.9590 H   0  0  0  0  0  0  0  0  0  0  0  0
   43.9440   36.6900   45.3110 H   0  0  0  0  0  0  0  0  0  0  0  0
   46.0980   32.7670   45.8870 C   0  0  0  0  0  0  0  0  0  0  0  0
   45.5560   31.5520   45.6450 C   0  0  0  0  0  0  0  0  0  0  0  0
   45.9430   30.4710   46.4210 C   0  0  0  0  0  0  0  0  0  0  0  0
   46.8720   30.5820   47.4440 C   0  0  0  0  0  0  0  0  0  0  0  0
   47.3920   31.8470   47.6450 C   0  0  0  0  0  0  0  0  0  0  0  0
   47.0040   32.8860   46.8820 N   0  0  0  0  0  0  0  0  0  0  0  0
   44.8260   31.3350   44.8800 H   0  0  0  0  0  0  0  0  0  0  0  0
   45.5530   29.4670   46.2800 H   0  0  0  0  0  0  0  0  0  0  0  0
   47.2080   29.7750   48.0770 H   0  0  0  0  0  0  0  0  0  0  0  0
   48.1370   32.0580   48.4210 H   0  0  0  0  0  0  0  0  0  0  0  0
   48.6910   31.5350   41.3380 C   0  0  0  0  0  0  0  0  0  0  0  0
   48.8850   30.4660   41.2750 H   0  0  0  0  0  0  0  0  0  0  0  0
   48.8460   31.8530   42.4140 H   0  0  0  0  0  0  0  0  0  0  0  0
   49.7050   32.2440   40.5900 N   0  0  0  0  0  0  0  0  0  0  0  0
   50.9040   32.3900   41.3260 C   0  0  0  0  0  3  0  0  0  0  0  0
   50.7300   32.5430   42.3970 H   0  0  0  0  0  0  0  0  0  0  0  0
   51.9380   31.3040   41.0710 C   0  0  0  0  0  3  0  0  0  0  0  0
   52.8360   31.6040   41.6650 H   0  0  0  0  0  0  0  0  0  0  0  0
   52.3080   31.3160   39.7500 O   0  0  0  0  0  0  0  0  0  0  0  0
   51.3320   31.6550   38.8460 C   0  0  0  0  0  2  0  0  0  0  0  0
   49.9390   31.5030   39.3840 C   0  0  0  0  0  2  0  0  0  0  0  0
  1  2  2  0  0  0  0
  1 19  1  0  0  0  0
  3  1  1  0  0  0  0
  4  3  1  0  0  0  0
  4  9  1  0  0  0  0
  4 10  1  0  0  0  0
  5  4  1  0  0  0  0
  6  7  1  0  0  0  0
  6  5  1  0  0  0  0
  7 15  1  0  0  0  0
  7  8  1  0  0  0  0
  8 17  1  6  0  0  0
  8 36  1  0  0  0  0
  8  3  1  0  0  0  0
 11  5  1  0  0  0  0
 12  5  1  0  0  0  0
 13  6  1  0  0  0  0
 14  6  1  0  0  0  0
 16  7  1  0  0  0  0
 18 23  2  0  0  0  0
 18 19  1  0  0  0  0
 19 20  2  0  0  0  0
 20 21  1  0  0  0  0
 20 26  1  0  0  0  0
 22 25  1  0  0  0  0
 22 21  2  0  0  0  0
 23 22  1  0  0  0  0
 24 18  1  0  0  0  0
 26 31  1  0  0  0  0
 27 26  2  0  0  0  0
 27 28  1  0  0  0  0
 28 29  2  0  0  0  0
 29 30  1  0  0  0  0
 29 34  1  0  0  0  0
 30 35  1  0  0  0  0
 31 30  2  0  0  0  0
 32 27  1  0  0  0  0
 33 28  1  0  0  0  0
 36 38  1  0  0  0  0
 37 36  1  0  0  0  0
 39 40  1  0  0  0  0
 39 36  1  0  0  0  0
 40 41  1  0  0  0  0
 42 40  1  0  0  0  0
 42 43  1  0  0  0  0
 44 42  1  0  0  0  0
 45 46  1  0  0  0  0
 45 44  1  0  0  0  0
 46 39  1  0  0  0  0
M  END
>  <minimizedAffinity>
-4.991292

>  <minimizedRMSD>
1.20912838

$$$$
