
 OpenBabel03252503463D

 43 46  0  0  1  0  0  0  0  0999 V2000
   45.1750   34.7480   44.7210 C   0  0  0  0  0  0  0  0  0  0  0  0
   46.1170   34.4980   43.7230 C   0  0  0  0  0  0  0  0  0  0  0  0
   46.9750   33.4190   43.9280 C   0  0  0  0  0  0  0  0  0  0  0  0
   46.8970   32.6510   45.0400 N   0  0  0  0  0  0  0  0  0  0  0  0
   45.9670   32.9300   45.9860 C   0  0  0  0  0  0  0  0  0  0  0  0
   45.1020   33.9750   45.8330 N   0  0  0  0  0  0  0  0  0  0  0  0
   44.4680   35.5520   44.6630 H   0  0  0  0  0  0  0  0  0  0  0  0
   47.7440   33.1240   43.2610 H   0  0  0  0  0  0  0  0  0  0  0  0
   47.3460   31.7570   47.6880 C   0  0  2  0  0  0  0  0  0  0  0  0
   45.9140   32.0710   47.1650 C   0  0  1  0  0  0  0  0  0  0  0  0
   45.3970   32.6290   48.2840 O   0  0  0  0  0  0  0  0  0  0  0  0
   45.7330   31.8310   49.3420 C   0  0  0  0  0  0  0  0  0  0  0  0
   46.9200   30.9840   48.9460 C   0  0  2  0  0  0  0  0  0  0  0  0
   47.8760   31.1200   46.9820 H   0  0  0  0  0  0  0  0  0  0  0  0
   45.4050   31.0920   46.9660 H   0  0  0  0  0  0  0  0  0  0  0  0
   44.8480   31.1930   49.6280 H   0  0  0  0  0  0  0  0  0  0  0  0
   46.0040   32.3920   50.2680 H   0  0  0  0  0  0  0  0  0  0  0  0
   46.5740   29.9700   48.7220 H   0  0  0  0  0  0  0  0  0  0  0  0
   47.9570   32.8850   48.0870 O   0  0  0  0  0  0  0  0  0  0  0  0
   47.3260   33.5860   48.3670 H   0  0  0  0  0  0  0  0  0  0  0  0
   47.9090   30.9350   49.8980 O   0  0  0  0  0  0  0  0  0  0  0  0
   47.8540   31.7370   50.5070 H   0  0  0  0  0  0  0  0  0  0  0  0
   46.1840   35.3250   42.5380 C   0  0  0  0  0  0  0  0  0  0  0  0
   47.1500   35.0870   42.0150 H   0  0  0  0  0  0  0  0  0  0  0  0
   46.2340   36.3870   42.8520 H   0  0  0  0  0  0  0  0  0  0  0  0
   45.0480   35.0490   41.6500 C   0  0  0  0  0  0  0  0  0  0  0  0
   43.8010   35.6030   41.7390 C   0  0  0  0  0  0  0  0  0  0  0  0
   42.7810   35.2910   40.8720 C   0  0  0  0  0  0  0  0  0  0  0  0
   43.0220   34.3810   39.8730 C   0  0  0  0  0  0  0  0  0  0  0  0
   44.2830   33.7950   39.7540 C   0  0  0  0  0  0  0  0  0  0  0  0
   45.3040   34.1340   40.6500 C   0  0  0  0  0  0  0  0  0  0  0  0
   43.7010   36.3110   42.5580 H   0  0  0  0  0  0  0  0  0  0  0  0
   41.8680   35.8080   41.0720 H   0  0  0  0  0  0  0  0  0  0  0  0
   42.1760   34.1820   39.2300 H   0  0  0  0  0  0  0  0  0  0  0  0
   44.2970   33.1070   38.9190 H   0  0  0  0  0  0  0  0  0  0  0  0
   46.4650   33.4070   40.2720 N   0  0  0  0  0  0  0  0  0  0  0  0
   46.6990   31.9930   40.5020 C   0  0  0  0  0  3  0  0  0  0  0  0
   45.9590   31.5880   41.2350 H   0  0  0  0  0  0  0  0  0  0  0  0
   48.0570   31.9240   41.1940 C   0  0  0  0  0  3  0  0  0  0  0  0
   48.0010   32.6730   42.0330 H   0  0  0  0  0  0  0  0  0  0  0  0
   49.0510   32.3390   40.3440 O   0  0  0  0  0  0  0  0  0  0  0  0
   48.5920   33.0390   39.2550 C   0  0  0  0  0  2  0  0  0  0  0  0
   47.5650   34.1030   39.5840 C   0  0  0  0  0  2  0  0  0  0  0  0
  1  6  1  0  0  0  0
  2  3  1  0  0  0  0
  2  1  2  0  0  0  0
  3  4  2  0  0  0  0
  4  5  1  0  0  0  0
  5 10  1  0  0  0  0
  6  5  2  0  0  0  0
  7  1  1  0  0  0  0
  8  3  1  0  0  0  0
  9 14  1  6  0  0  0
  9 19  1  0  0  0  0
  9 13  1  0  0  0  0
 10 15  1  6  0  0  0
 10  9  1  0  0  0  0
 10 11  1  0  0  0  0
 11 12  1  0  0  0  0
 12 16  1  0  0  0  0
 12 17  1  0  0  0  0
 13 18  1  6  0  0  0
 13 12  1  0  0  0  0
 13 21  1  0  0  0  0
 19 20  1  0  0  0  0
 21 22  1  0  0  0  0
 23 25  1  0  0  0  0
 23  2  1  0  0  0  0
 24 23  1  0  0  0  0
 26 27  1  0  0  0  0
 26 23  1  0  0  0  0
 27 32  1  0  0  0  0
 28 33  1  0  0  0  0
 28 27  2  0  0  0  0
 29 28  1  0  0  0  0
 30 29  2  0  0  0  0
 30 31  1  0  0  0  0
 31 26  2  0  0  0  0
 34 29  1  0  0  0  0
 35 30  1  0  0  0  0
 36 37  1  0  0  0  0
 36 31  1  0  0  0  0
 37 39  1  0  0  0  0
 37 38  1  0  0  0  0
 39 40  1  0  0  0  0
 41 39  1  0  0  0  0
 42 43  1  0  0  0  0
 42 41  1  0  0  0  0
 43 36  1  0  0  0  0
M  END
>  <minimizedAffinity>
-6.80987597

>  <minimizedRMSD>
0.414001882

$$$$
