
 OpenBabel03252503453D

 43 46  0  0  1  0  0  0  0  0999 V2000
   45.0590   34.8670   44.8540 C   0  0  0  0  0  0  0  0  0  0  0  0
   45.9750   34.6530   43.8240 C   0  0  0  0  0  0  0  0  0  0  0  0
   46.8440   33.5720   43.9750 C   0  0  0  0  0  0  0  0  0  0  0  0
   46.7990   32.7710   45.0660 N   0  0  0  0  0  0  0  0  0  0  0  0
   45.8920   33.0180   46.0430 C   0  0  0  0  0  0  0  0  0  0  0  0
   45.0200   34.0620   45.9440 N   0  0  0  0  0  0  0  0  0  0  0  0
   44.3460   35.6690   44.8380 H   0  0  0  0  0  0  0  0  0  0  0  0
   47.5970   33.3020   43.2800 H   0  0  0  0  0  0  0  0  0  0  0  0
   47.3220   31.8080   47.6780 C   0  0  2  0  0  0  0  0  0  0  0  0
   45.8750   32.1240   47.1970 C   0  0  1  0  0  0  0  0  0  0  0  0
   45.3790   32.6450   48.3440 O   0  0  0  0  0  0  0  0  0  0  0  0
   45.7470   31.8190   49.3700 C   0  0  0  0  0  0  0  0  0  0  0  0
   46.9320   30.9960   48.9220 C   0  0  2  0  0  0  0  0  0  0  0  0
   47.8400   31.1970   46.9410 H   0  0  0  0  0  0  0  0  0  0  0  0
   45.3700   31.1460   46.9820 H   0  0  0  0  0  0  0  0  0  0  0  0
   44.8750   31.1640   49.6570 H   0  0  0  0  0  0  0  0  0  0  0  0
   46.0350   32.3550   50.3050 H   0  0  0  0  0  0  0  0  0  0  0  0
   46.5900   29.9850   48.6760 H   0  0  0  0  0  0  0  0  0  0  0  0
   47.9320   32.9300   48.0960 O   0  0  0  0  0  0  0  0  0  0  0  0
   47.3010   33.6170   48.4110 H   0  0  0  0  0  0  0  0  0  0  0  0
   47.9430   30.9280   49.8490 O   0  0  0  0  0  0  0  0  0  0  0  0
   47.8950   31.7110   50.4820 H   0  0  0  0  0  0  0  0  0  0  0  0
   46.0080   35.5140   42.6630 C   0  0  0  0  0  0  0  0  0  0  0  0
   47.0250   35.4140   42.1970 H   0  0  0  0  0  0  0  0  0  0  0  0
   45.9030   36.5650   43.0010 H   0  0  0  0  0  0  0  0  0  0  0  0
   44.9710   35.1220   41.7000 C   0  0  0  0  0  0  0  0  0  0  0  0
   43.6680   35.5360   41.7040 C   0  0  0  0  0  0  0  0  0  0  0  0
   42.7480   35.1210   40.7700 C   0  0  0  0  0  0  0  0  0  0  0  0
   43.1550   34.2500   39.7900 C   0  0  0  0  0  0  0  0  0  0  0  0
   44.4780   33.8060   39.7560 C   0  0  0  0  0  0  0  0  0  0  0  0
   45.3930   34.2470   40.7200 C   0  0  0  0  0  0  0  0  0  0  0  0
   43.4360   36.2230   42.5140 H   0  0  0  0  0  0  0  0  0  0  0  0
   41.7730   35.5340   40.9080 H   0  0  0  0  0  0  0  0  0  0  0  0
   42.3810   33.9640   39.0910 H   0  0  0  0  0  0  0  0  0  0  0  0
   44.6240   33.1300   38.9240 H   0  0  0  0  0  0  0  0  0  0  0  0
   46.6490   33.6550   40.4210 N   0  0  0  0  0  0  0  0  0  0  0  0
   47.8240   34.3510   39.9290 C   0  0  0  0  0  3  0  0  0  0  0  0
   47.5530   35.3760   39.5750 H   0  0  0  0  0  0  0  0  0  0  0  0
   48.2480   33.5770   38.6840 C   0  0  0  0  0  3  0  0  0  0  0  0
   47.3110   33.4610   38.0710 H   0  0  0  0  0  0  0  0  0  0  0  0
   48.6700   32.3150   39.0230 O   0  0  0  0  0  0  0  0  0  0  0  0
   48.2830   31.9230   40.2800 C   0  0  0  0  0  2  0  0  0  0  0  0
   46.8310   32.2060   40.6060 C   0  0  0  0  0  2  0  0  0  0  0  0
  1  6  1  0  0  0  0
  2  3  1  0  0  0  0
  2  1  2  0  0  0  0
  3  4  2  0  0  0  0
  4  5  1  0  0  0  0
  5 10  1  0  0  0  0
  6  5  2  0  0  0  0
  7  1  1  0  0  0  0
  8  3  1  0  0  0  0
  9 14  1  6  0  0  0
  9 19  1  0  0  0  0
  9 13  1  0  0  0  0
 10 15  1  6  0  0  0
 10  9  1  0  0  0  0
 10 11  1  0  0  0  0
 11 12  1  0  0  0  0
 12 16  1  0  0  0  0
 12 17  1  0  0  0  0
 13 18  1  6  0  0  0
 13 12  1  0  0  0  0
 13 21  1  0  0  0  0
 19 20  1  0  0  0  0
 21 22  1  0  0  0  0
 23 25  1  0  0  0  0
 23  2  1  0  0  0  0
 24 23  1  0  0  0  0
 26 27  1  0  0  0  0
 26 23  1  0  0  0  0
 27 32  1  0  0  0  0
 28 33  1  0  0  0  0
 28 27  2  0  0  0  0
 29 28  1  0  0  0  0
 30 29  2  0  0  0  0
 30 31  1  0  0  0  0
 31 26  2  0  0  0  0
 34 29  1  0  0  0  0
 35 30  1  0  0  0  0
 36 43  1  0  0  0  0
 36 31  1  0  0  0  0
 37 36  1  0  0  0  0
 38 37  1  0  0  0  0
 39 41  1  0  0  0  0
 39 37  1  0  0  0  0
 40 39  1  0  0  0  0
 41 42  1  0  0  0  0
 42 43  1  0  0  0  0
M  END
>  <minimizedAffinity>
-6.92208052

>  <minimizedRMSD>
0.526000738

$$$$
