
 OpenBabel03242511413D

 33 35  0  0  0  0  0  0  0  0999 V2000
   46.2290   32.0380   47.3180 C   0  0  0  0  0  0  0  0  0  0  0  0
   45.3820   32.3630   48.3430 C   0  0  0  0  0  0  0  0  0  0  0  0
   44.8550   31.4830   49.2370 C   0  0  0  0  0  0  0  0  0  0  0  0
   45.2090   30.1730   49.0850 C   0  0  0  0  0  0  0  0  0  0  0  0
   46.0720   29.7920   48.0570 C   0  0  0  0  0  0  0  0  0  0  0  0
   46.5920   30.7290   47.1620 C   0  0  0  0  0  0  0  0  0  0  0  0
   45.1890   33.4440   48.3380 H   0  0  0  0  0  0  0  0  0  0  0  0
   44.2150   31.9660   49.9560 H   0  0  0  0  0  0  0  0  0  0  0  0
   44.7120   29.5720   49.8700 H   0  0  0  0  0  0  0  0  0  0  0  0
   46.1650   28.7020   48.1930 H   0  0  0  0  0  0  0  0  0  0  0  0
   47.3860   29.8390   46.3540 N   0  0  0  0  0  0  0  0  0  0  0  0
   47.3310   29.1070   45.1040 C   0  0  0  0  0  0  0  0  0  0  0  0
   46.5290   29.4900   44.4240 H   0  0  0  0  0  0  0  0  0  0  0  0
   48.6360   29.1860   44.3920 C   0  0  0  0  0  0  0  0  0  0  0  0
   48.8170   28.2680   43.7500 H   0  0  0  0  0  0  0  0  0  0  0  0
   49.7530   29.3440   45.1720 O   0  0  0  0  0  0  0  0  0  0  0  0
   49.5610   28.7540   46.4220 C   0  0  0  0  0  0  0  0  0  0  0  0
   48.6150   29.6830   47.1550 C   0  0  0  0  0  0  0  0  0  0  0  0
   46.8440   32.8790   46.2710 C   0  0  0  0  0  0  0  0  0  0  0  0
   47.9110   32.5710   46.1260 H   0  0  0  0  0  0  0  0  0  0  0  0
   46.8470   33.9040   46.6200 H   0  0  0  0  0  0  0  0  0  0  0  0
   46.1670   32.6970   44.9300 C   0  0  0  0  0  0  0  0  0  0  0  0
   45.1520   32.2570   45.2200 H   0  0  0  0  0  0  0  0  0  0  0  0
   46.7310   32.1390   44.2150 H   0  0  0  0  0  0  0  0  0  0  0  0
   44.5210   35.9790   44.7640 C   0  0  0  0  0  0  0  0  0  0  0  0
   44.9240   36.4590   43.4930 C   0  0  0  0  0  0  0  0  0  0  0  0
   45.7740   35.6260   42.7480 C   0  0  0  0  0  0  0  0  0  0  0  0
   46.1630   34.4450   43.2440 N   0  0  0  0  0  0  0  0  0  0  0  0
   45.7340   34.0460   44.4780 C   0  0  0  0  0  0  0  0  0  0  0  0
   44.9390   34.7820   45.2220 N   0  0  0  0  0  0  0  0  0  0  0  0
   43.8660   36.5390   45.4240 H   0  0  0  0  0  0  0  0  0  0  0  0
   44.5480   37.4270   43.1930 H   0  0  0  0  0  0  0  0  0  0  0  0
   46.0750   36.0040   41.7800 H   0  0  0  0  0  0  0  0  0  0  0  0
  1  2  1  0  0  0  0
  2  3  2  0  0  0  0
  3  8  1  0  0  0  0
  4  3  1  0  0  0  0
  4  9  1  0  0  0  0
  5 10  1  0  0  0  0
  5  4  2  0  0  0  0
  6  1  2  0  0  0  0
  6  5  1  0  0  0  0
  7  2  1  0  0  0  0
 11 18  1  0  0  0  0
 11  6  1  0  0  0  0
 12 11  1  0  0  0  0
 13 12  1  0  0  0  0
 14 12  1  0  0  0  0
 14 16  1  0  0  0  0
 15 14  1  0  0  0  0
 16 17  1  0  0  0  0
 17 18  1  0  0  0  0
 19 21  1  0  0  0  0
 19  1  1  0  0  0  0
 20 19  1  0  0  0  0
 22 23  1  0  0  0  0
 22 19  1  0  0  0  0
 24 22  1  0  0  0  0
 25 30  1  0  0  0  0
 25 31  1  0  0  0  0
 26 25  2  0  0  0  0
 27 28  2  0  0  0  0
 27 26  1  0  0  0  0
 28 29  1  0  0  0  0
 29 22  1  0  0  0  0
 29 30  2  0  0  0  0
 32 26  1  0  0  0  0
 33 27  1  0  0  0  0
M  END
>  <minimizedAffinity>
-4.85114622

>  <minimizedRMSD>
1.26530302

$$$$
