
 OpenBabel03242518483D

 44 47  0  0  1  0  0  0  0  0999 V2000
   39.2230   31.2940   39.2320 C   0  0  2  0  0  0  0  0  0  0  0  0
   39.3770   32.7650   39.0950 C   0  0  1  0  0  0  0  0  0  0  0  0
   38.6820   33.5290   40.2220 C   0  0  0  0  0  0  0  0  0  0  0  0
   37.3660   33.0580   40.1900 O   0  0  0  0  0  0  0  0  0  0  0  0
   37.2730   31.7750   40.6800 C   0  0  0  0  0  0  0  0  0  0  0  0
   38.5380   30.9820   40.5760 C   0  0  1  0  0  0  0  0  0  0  0  0
   38.5610   30.8870   38.4470 H   0  0  0  0  0  0  0  0  0  0  0  0
   38.8680   33.0810   38.1450 H   0  0  0  0  0  0  0  0  0  0  0  0
   38.6530   34.5990   40.0190 H   0  0  0  0  0  0  0  0  0  0  0  0
   39.1670   33.3300   41.1960 H   0  0  0  0  0  0  0  0  0  0  0  0
   36.5230   31.2460   40.0280 H   0  0  0  0  0  0  0  0  0  0  0  0
   36.8740   31.7140   41.7060 H   0  0  0  0  0  0  0  0  0  0  0  0
   39.2910   31.2690   41.3330 H   0  0  0  0  0  0  0  0  0  0  0  0
   42.6470   33.9170   37.9080 C   0  0  0  0  0  0  0  0  0  0  0  0
   43.3840   34.1600   39.1080 C   0  0  0  0  0  0  0  0  0  0  0  0
   42.6900   33.9040   40.3170 C   0  0  0  0  0  0  0  0  0  0  0  0
   41.4150   33.4620   40.2670 N   0  0  0  0  0  0  0  0  0  0  0  0
   40.7730   33.2530   39.0990 C   0  0  0  0  0  0  0  0  0  0  0  0
   41.3880   33.4810   37.9170 N   0  0  0  0  0  0  0  0  0  0  0  0
   44.3940   34.5110   39.0800 H   0  0  0  0  0  0  0  0  0  0  0  0
   43.1970   34.0700   41.2470 H   0  0  0  0  0  0  0  0  0  0  0  0
   43.3010   34.1580   36.7420 O   0  0  0  0  0  0  0  0  0  0  0  0
   43.1510   35.0280   36.2400 H   0  0  0  0  0  0  0  0  0  0  0  0
   40.4310   30.5920   39.1910 O   0  0  0  0  0  0  0  0  0  0  0  0
   40.7800   30.4830   40.1160 H   0  0  0  0  0  0  0  0  0  0  0  0
   38.3400   29.6200   40.6100 O   0  0  0  0  0  0  0  0  0  0  0  0
   38.4410   27.0450   39.7990 F   0  0  0  0  0  0  0  0  0  0  0  0
   38.0130   27.4560   41.0090 C   0  0  0  0  0  0  0  0  0  0  0  0
   37.9290   28.7390   41.5060 C   0  0  0  0  0  0  0  0  0  0  0  0
   37.4490   28.8400   42.8020 C   0  0  0  0  0  0  0  0  0  0  0  0
   37.0630   27.7900   43.6040 C   0  0  0  0  0  0  0  0  0  0  0  0
   37.1660   26.5440   43.0650 C   0  0  0  0  0  0  0  0  0  0  0  0
   37.6330   26.3440   41.7790 C   0  0  0  0  0  0  0  0  0  0  0  0
   37.4110   29.8950   43.1280 H   0  0  0  0  0  0  0  0  0  0  0  0
   36.7080   28.0360   44.6000 H   0  0  0  0  0  0  0  0  0  0  0  0
   36.8570   25.7140   43.7070 H   0  0  0  0  0  0  0  0  0  0  0  0
   37.6790   24.9820   41.3660 N   0  0  0  0  0  0  0  0  0  0  0  0
   38.8020   24.0790   41.5380 C   0  0  0  0  0  3  0  0  0  0  0  0
   39.7610   24.5710   41.7120 H   0  0  0  0  0  0  0  0  0  0  0  0
   38.8950   23.3250   40.2040 C   0  0  0  0  0  3  0  0  0  0  0  0
   39.8110   22.7500   40.0940 H   0  0  0  0  0  0  0  0  0  0  0  0
   37.7840   22.5150   40.1750 O   0  0  0  0  0  0  0  0  0  0  0  0
   36.5950   23.1800   40.0560 C   0  0  0  0  0  3  0  0  0  0  0  0
   36.4900   24.4980   40.7280 C   0  0  0  0  0  3  0  0  0  0  0  0
  1  7  1  6  0  0  0
  1  6  1  0  0  0  0
  2  8  1  6  0  0  0
  2 18  1  0  0  0  0
  2  1  1  0  0  0  0
  2  3  1  0  0  0  0
  3 10  1  0  0  0  0
  4  3  1  0  0  0  0
  4  5  1  0  0  0  0
  5 12  1  0  0  0  0
  6 26  1  0  0  0  0
  6  5  1  0  0  0  0
  6 13  1  1  0  0  0
  9  3  1  0  0  0  0
 11  5  1  0  0  0  0
 14 19  2  0  0  0  0
 14 15  1  0  0  0  0
 15 16  2  0  0  0  0
 16 21  1  0  0  0  0
 17 16  1  0  0  0  0
 18 17  2  0  0  0  0
 19 18  1  0  0  0  0
 20 15  1  0  0  0  0
 22 14  1  0  0  0  0
 23 22  1  0  0  0  0
 24  1  1  0  0  0  0
 24 25  1  0  0  0  0
 26 29  1  0  0  0  0
 27 28  1  0  0  0  0
 28 29  2  0  0  0  0
 28 33  1  0  0  0  0
 29 30  1  0  0  0  0
 30 34  1  0  0  0  0
 30 31  2  0  0  0  0
 31 35  1  0  0  0  0
 32 31  1  0  0  0  0
 32 36  1  0  0  0  0
 33 32  2  0  0  0  0
 37 38  1  0  0  0  0
 37 33  1  0  0  0  0
 38 39  1  0  0  0  0
 40 38  1  0  0  0  0
 41 40  1  0  0  0  0
 42 40  1  0  0  0  0
 43 42  1  0  0  0  0
 43 44  2  0  0  0  0
 44 37  1  0  0  0  0
M  END
>  <minimizedAffinity>
-6.46343422

$$$$

 OpenBabel03242518483D

 44 47  0  0  1  0  0  0  0  0999 V2000
   39.4860   31.5760   39.3980 C   0  0  2  0  0  0  0  0  0  0  0  0
   39.7990   33.0200   39.2460 C   0  0  1  0  0  0  0  0  0  0  0  0
   38.8930   33.9040   40.1020 C   0  0  0  0  0  0  0  0  0  0  0  0
   37.5990   33.5290   39.7250 O   0  0  0  0  0  0  0  0  0  0  0  0
   37.2640   32.2900   40.2250 C   0  0  0  0  0  0  0  0  0  0  0  0
   38.4340   31.4030   40.5100 C   0  0  1  0  0  0  0  0  0  0  0  0
   39.0300   31.1670   38.4780 H   0  0  0  0  0  0  0  0  0  0  0  0
   39.6000   33.3090   38.1800 H   0  0  0  0  0  0  0  0  0  0  0  0
   39.0140   34.9580   39.8530 H   0  0  0  0  0  0  0  0  0  0  0  0
   39.0730   33.7350   41.1800 H   0  0  0  0  0  0  0  0  0  0  0  0
   36.6770   31.7760   39.4130 H   0  0  0  0  0  0  0  0  0  0  0  0
   36.5960   32.3260   41.1020 H   0  0  0  0  0  0  0  0  0  0  0  0
   38.9730   31.6830   41.4340 H   0  0  0  0  0  0  0  0  0  0  0  0
   42.7130   33.9490   41.2650 C   0  0  0  0  0  0  0  0  0  0  0  0
   43.7560   34.1290   40.3050 C   0  0  0  0  0  0  0  0  0  0  0  0
   43.3890   33.9110   38.9530 C   0  0  0  0  0  0  0  0  0  0  0  0
   42.1180   33.5590   38.6610 N   0  0  0  0  0  0  0  0  0  0  0  0
   41.1780   33.4040   39.6160 C   0  0  0  0  0  0  0  0  0  0  0  0
   41.4740   33.5990   40.9210 N   0  0  0  0  0  0  0  0  0  0  0  0
   44.7440   34.4090   40.6020 H   0  0  0  0  0  0  0  0  0  0  0  0
   44.1330   34.0320   38.1920 H   0  0  0  0  0  0  0  0  0  0  0  0
   43.0510   34.1550   42.5650 O   0  0  0  0  0  0  0  0  0  0  0  0
   43.2620   33.3680   43.1710 H   0  0  0  0  0  0  0  0  0  0  0  0
   40.5920   30.7870   39.7250 O   0  0  0  0  0  0  0  0  0  0  0  0
   40.6650   30.7130   40.7140 H   0  0  0  0  0  0  0  0  0  0  0  0
   38.1160   30.0640   40.5460 O   0  0  0  0  0  0  0  0  0  0  0  0
   38.4620   27.5000   39.7660 F   0  0  0  0  0  0  0  0  0  0  0  0
   38.0920   27.8870   41.0030 C   0  0  0  0  0  0  0  0  0  0  0  0
   37.8940   29.1620   41.4880 C   0  0  0  0  0  0  0  0  0  0  0  0
   37.5180   29.2360   42.8200 C   0  0  0  0  0  0  0  0  0  0  0  0
   37.3340   28.1680   43.6670 C   0  0  0  0  0  0  0  0  0  0  0  0
   37.5420   26.9300   43.1390 C   0  0  0  0  0  0  0  0  0  0  0  0
   37.9180   26.7570   41.8200 C   0  0  0  0  0  0  0  0  0  0  0  0
   37.3800   30.2870   43.1320 H   0  0  0  0  0  0  0  0  0  0  0  0
   37.0380   28.3940   44.6870 H   0  0  0  0  0  0  0  0  0  0  0  0
   37.3930   26.0850   43.8170 H   0  0  0  0  0  0  0  0  0  0  0  0
   38.0950   25.4000   41.4240 N   0  0  0  0  0  0  0  0  0  0  0  0
   39.3670   24.7270   41.2400 C   0  0  0  0  0  3  0  0  0  0  0  0
   40.2200   25.3930   41.0990 H   0  0  0  0  0  0  0  0  0  0  0  0
   39.1880   23.9140   39.9510 C   0  0  0  0  0  3  0  0  0  0  0  0
   40.1180   23.5060   39.5620 H   0  0  0  0  0  0  0  0  0  0  0  0
   38.2990   22.9180   40.2790 O   0  0  0  0  0  0  0  0  0  0  0  0
   37.0260   23.3490   40.5360 C   0  0  0  0  0  3  0  0  0  0  0  0
   36.8830   24.6680   41.1970 C   0  0  0  0  0  3  0  0  0  0  0  0
  1  7  1  6  0  0  0
  1 24  1  0  0  0  0
  1  6  1  0  0  0  0
  2  8  1  6  0  0  0
  2  1  1  0  0  0  0
  2 18  1  0  0  0  0
  2  3  1  0  0  0  0
  3 10  1  0  0  0  0
  4  3  1  0  0  0  0
  4  5  1  0  0  0  0
  5  6  1  0  0  0  0
  5 12  1  0  0  0  0
  6 26  1  0  0  0  0
  6 13  1  1  0  0  0
  9  3  1  0  0  0  0
 11  5  1  0  0  0  0
 14 22  1  0  0  0  0
 15 20  1  0  0  0  0
 15 14  2  0  0  0  0
 16 15  1  0  0  0  0
 17 16  2  0  0  0  0
 17 18  1  0  0  0  0
 18 19  2  0  0  0  0
 19 14  1  0  0  0  0
 21 16  1  0  0  0  0
 22 23  1  0  0  0  0
 24 25  1  0  0  0  0
 26 29  1  0  0  0  0
 27 28  1  0  0  0  0
 28 29  2  0  0  0  0
 28 33  1  0  0  0  0
 29 30  1  0  0  0  0
 30 34  1  0  0  0  0
 30 31  2  0  0  0  0
 31 35  1  0  0  0  0
 32 31  1  0  0  0  0
 32 36  1  0  0  0  0
 33 32  2  0  0  0  0
 37 33  1  0  0  0  0
 38 37  1  0  0  0  0
 39 38  1  0  0  0  0
 40 42  1  0  0  0  0
 40 38  1  0  0  0  0
 41 40  1  0  0  0  0
 42 43  1  0  0  0  0
 43 44  2  0  0  0  0
 44 37  1  0  0  0  0
M  END
>  <minimizedAffinity>
-6.32506132

$$$$

 OpenBabel03242518483D

 44 47  0  0  1  0  0  0  0  0999 V2000
   38.0650   28.6200   42.2170 C   0  0  2  0  0  0  0  0  0  0  0  0
   37.0940   27.5290   41.9450 C   0  0  1  0  0  0  0  0  0  0  0  0
   36.1900   27.8400   40.7520 C   0  0  0  0  0  0  0  0  0  0  0  0
   35.6250   29.0790   41.0690 O   0  0  0  0  0  0  0  0  0  0  0  0
   36.5400   30.1010   40.9460 C   0  0  0  0  0  0  0  0  0  0  0  0
   37.9660   29.6730   41.0970 C   0  0  1  0  0  0  0  0  0  0  0  0
   37.8200   29.1470   43.1570 H   0  0  0  0  0  0  0  0  0  0  0  0
   36.4150   27.4370   42.8340 H   0  0  0  0  0  0  0  0  0  0  0  0
   35.3770   27.1200   40.6710 H   0  0  0  0  0  0  0  0  0  0  0  0
   36.7710   27.8800   39.8120 H   0  0  0  0  0  0  0  0  0  0  0  0
   36.3370   30.8050   41.8020 H   0  0  0  0  0  0  0  0  0  0  0  0
   36.4230   30.7010   40.0290 H   0  0  0  0  0  0  0  0  0  0  0  0
   38.3570   29.1500   40.2040 H   0  0  0  0  0  0  0  0  0  0  0  0
   38.9270   24.3820   42.3520 C   0  0  0  0  0  0  0  0  0  0  0  0
   38.8300   23.7570   41.0710 C   0  0  0  0  0  0  0  0  0  0  0  0
   38.1080   24.4800   40.0880 C   0  0  0  0  0  0  0  0  0  0  0  0
   37.5710   25.6780   40.4100 N   0  0  0  0  0  0  0  0  0  0  0  0
   37.6980   26.2140   41.6420 C   0  0  0  0  0  0  0  0  0  0  0  0
   38.3760   25.5660   42.6160 N   0  0  0  0  0  0  0  0  0  0  0  0
   39.2790   22.8050   40.8800 H   0  0  0  0  0  0  0  0  0  0  0  0
   38.0050   24.0570   39.1100 H   0  0  0  0  0  0  0  0  0  0  0  0
   39.6170   23.6990   43.3030 O   0  0  0  0  0  0  0  0  0  0  0  0
   39.1230   23.1500   44.0000 H   0  0  0  0  0  0  0  0  0  0  0  0
   39.3930   28.1920   42.2910 O   0  0  0  0  0  0  0  0  0  0  0  0
   39.8110   28.2580   41.3910 H   0  0  0  0  0  0  0  0  0  0  0  0
   38.8170   30.6980   41.4450 O   0  0  0  0  0  0  0  0  0  0  0  0
   40.7840   30.2760   39.6420 F   0  0  0  0  0  0  0  0  0  0  0  0
   40.2780   31.4830   39.9630 C   0  0  0  0  0  0  0  0  0  0  0  0
   39.2800   31.7910   40.8620 C   0  0  0  0  0  0  0  0  0  0  0  0
   38.9750   33.1390   40.9680 C   0  0  0  0  0  0  0  0  0  0  0  0
   39.5730   34.1600   40.2640 C   0  0  0  0  0  0  0  0  0  0  0  0
   40.5520   33.8020   39.3880 C   0  0  0  0  0  0  0  0  0  0  0  0
   40.9260   32.4820   39.2160 C   0  0  0  0  0  0  0  0  0  0  0  0
   38.1680   33.3040   41.7050 H   0  0  0  0  0  0  0  0  0  0  0  0
   39.2180   35.1660   40.4610 H   0  0  0  0  0  0  0  0  0  0  0  0
   41.0240   34.6170   38.8330 H   0  0  0  0  0  0  0  0  0  0  0  0
   41.9650   32.2760   38.2640 N   0  0  0  0  0  0  0  0  0  0  0  0
   41.7870   31.8270   36.8950 C   0  0  0  0  0  3  0  0  0  0  0  0
   40.8370   31.3290   36.6980 H   0  0  0  0  0  0  0  0  0  0  0  0
   42.9090   30.8020   36.6790 C   0  0  0  0  0  3  0  0  0  0  0  0
   42.7970   30.2220   35.7670 H   0  0  0  0  0  0  0  0  0  0  0  0
   44.0690   31.5410   36.6670 O   0  0  0  0  0  0  0  0  0  0  0  0
   44.4050   32.0980   37.8710 C   0  0  0  0  0  3  0  0  0  0  0  0
   43.2900   32.5480   38.7390 C   0  0  0  0  0  3  0  0  0  0  0  0
  1 24  1  0  0  0  0
  1  7  1  1  0  0  0
  2  1  1  0  0  0  0
  2  8  1  1  0  0  0
  3  4  1  0  0  0  0
  3  2  1  0  0  0  0
  5  4  1  0  0  0  0
  5  6  1  0  0  0  0
  5 11  1  0  0  0  0
  6 13  1  6  0  0  0
  6 26  1  0  0  0  0
  6  1  1  0  0  0  0
  9  3  1  0  0  0  0
 10  3  1  0  0  0  0
 12  5  1  0  0  0  0
 14 19  1  0  0  0  0
 14 22  1  0  0  0  0
 15 14  2  0  0  0  0
 16 17  2  0  0  0  0
 16 15  1  0  0  0  0
 17 18  1  0  0  0  0
 18  2  1  0  0  0  0
 18 19  2  0  0  0  0
 20 15  1  0  0  0  0
 21 16  1  0  0  0  0
 22 23  1  0  0  0  0
 25 24  1  0  0  0  0
 27 28  1  0  0  0  0
 28 29  1  0  0  0  0
 29 30  2  0  0  0  0
 29 26  1  0  0  0  0
 30 34  1  0  0  0  0
 31 35  1  0  0  0  0
 31 30  1  0  0  0  0
 32 31  2  0  0  0  0
 33 32  1  0  0  0  0
 33 28  2  0  0  0  0
 36 32  1  0  0  0  0
 37 44  1  0  0  0  0
 37 33  1  0  0  0  0
 38 37  1  0  0  0  0
 39 38  1  0  0  0  0
 40 38  1  0  0  0  0
 41 40  1  0  0  0  0
 42 40  1  0  0  0  0
 42 43  1  0  0  0  0
 43 44  2  0  0  0  0
M  END
>  <minimizedAffinity>
-6.01512766

$$$$

 OpenBabel03242518483D

 44 47  0  0  1  0  0  0  0  0999 V2000
   40.4060   32.2360   38.4470 C   0  0  2  0  0  0  0  0  0  0  0  0
   41.2850   33.3910   38.7620 C   0  0  1  0  0  0  0  0  0  0  0  0
   41.0790   33.9060   40.1860 C   0  0  0  0  0  0  0  0  0  0  0  0
   39.7060   34.1610   40.2590 O   0  0  0  0  0  0  0  0  0  0  0  0
   38.9750   32.9950   40.3200 C   0  0  0  0  0  0  0  0  0  0  0  0
   39.6610   31.8060   39.7250 C   0  0  1  0  0  0  0  0  0  0  0  0
   39.6250   32.5150   37.7170 H   0  0  0  0  0  0  0  0  0  0  0  0
   41.0050   34.2380   38.0810 H   0  0  0  0  0  0  0  0  0  0  0  0
   41.5970   34.8510   40.3470 H   0  0  0  0  0  0  0  0  0  0  0  0
   41.3990   33.1550   40.9320 H   0  0  0  0  0  0  0  0  0  0  0  0
   38.0590   33.1700   39.6910 H   0  0  0  0  0  0  0  0  0  0  0  0
   38.6050   32.7500   41.3300 H   0  0  0  0  0  0  0  0  0  0  0  0
   40.4580   31.3980   40.3740 H   0  0  0  0  0  0  0  0  0  0  0  0
   44.7110   33.3460   37.4630 C   0  0  0  0  0  0  0  0  0  0  0  0
   45.4450   32.6160   38.4470 C   0  0  0  0  0  0  0  0  0  0  0  0
   44.6930   32.1560   39.5570 C   0  0  0  0  0  0  0  0  0  0  0  0
   43.3710   32.4260   39.6170 N   0  0  0  0  0  0  0  0  0  0  0  0
   42.7350   33.1230   38.6530 C   0  0  0  0  0  0  0  0  0  0  0  0
   43.4050   33.5850   37.5730 N   0  0  0  0  0  0  0  0  0  0  0  0
   46.4940   32.4360   38.3410 H   0  0  0  0  0  0  0  0  0  0  0  0
   45.1940   31.6030   40.3260 H   0  0  0  0  0  0  0  0  0  0  0  0
   45.4210   33.7930   36.3930 O   0  0  0  0  0  0  0  0  0  0  0  0
   45.7430   34.7550   36.3570 H   0  0  0  0  0  0  0  0  0  0  0  0
   41.0890   31.1220   37.9510 O   0  0  0  0  0  0  0  0  0  0  0  0
   41.3380   30.5240   38.7060 H   0  0  0  0  0  0  0  0  0  0  0  0
   38.7990   30.7980   39.3580 O   0  0  0  0  0  0  0  0  0  0  0  0
   39.8340   28.8410   40.9080 F   0  0  0  0  0  0  0  0  0  0  0  0
   38.5180   29.0710   40.7330 C   0  0  0  0  0  0  0  0  0  0  0  0
   37.9030   30.0400   39.9690 C   0  0  0  0  0  0  0  0  0  0  0  0
   36.5180   30.0240   39.9970 C   0  0  0  0  0  0  0  0  0  0  0  0
   35.7350   29.1430   40.7080 C   0  0  0  0  0  0  0  0  0  0  0  0
   36.3910   28.2060   41.4470 C   0  0  0  0  0  0  0  0  0  0  0  0
   37.7720   28.1430   41.4800 C   0  0  0  0  0  0  0  0  0  0  0  0
   36.1010   30.8280   39.3630 H   0  0  0  0  0  0  0  0  0  0  0  0
   34.6590   29.2640   40.6260 H   0  0  0  0  0  0  0  0  0  0  0  0
   35.7640   27.5090   42.0090 H   0  0  0  0  0  0  0  0  0  0  0  0
   38.3020   27.1060   42.2990 N   0  0  0  0  0  0  0  0  0  0  0  0
   38.8100   27.2660   43.6490 C   0  0  0  0  0  3  0  0  0  0  0  0
   39.0800   28.2880   43.9180 H   0  0  0  0  0  0  0  0  0  0  0  0
   40.0890   26.4180   43.6800 C   0  0  0  0  0  3  0  0  0  0  0  0
   40.7010   26.5870   44.5620 H   0  0  0  0  0  0  0  0  0  0  0  0
   39.6550   25.1150   43.6110 O   0  0  0  0  0  0  0  0  0  0  0  0
   39.0950   24.7620   42.4140 C   0  0  0  0  0  3  0  0  0  0  0  0
   38.3170   25.8040   41.7010 C   0  0  0  0  0  3  0  0  0  0  0  0
  1  7  1  6  0  0  0
  1  2  1  0  0  0  0
  1  6  1  0  0  0  0
  2  8  1  6  0  0  0
  2  3  1  0  0  0  0
  3  4  1  0  0  0  0
  3  9  1  0  0  0  0
  3 10  1  0  0  0  0
  4  5  1  0  0  0  0
  5 12  1  0  0  0  0
  6  5  1  0  0  0  0
  6 13  1  1  0  0  0
 11  5  1  0  0  0  0
 14 19  2  0  0  0  0
 14 15  1  0  0  0  0
 15 16  2  0  0  0  0
 16 17  1  0  0  0  0
 16 21  1  0  0  0  0
 18  2  1  0  0  0  0
 18 17  2  0  0  0  0
 19 18  1  0  0  0  0
 20 15  1  0  0  0  0
 22 14  1  0  0  0  0
 23 22  1  0  0  0  0
 24  1  1  0  0  0  0
 24 25  1  0  0  0  0
 26  6  1  0  0  0  0
 26 29  1  0  0  0  0
 28 27  1  0  0  0  0
 28 33  1  0  0  0  0
 29 30  1  0  0  0  0
 29 28  2  0  0  0  0
 30 31  2  0  0  0  0
 31 32  1  0  0  0  0
 32 33  2  0  0  0  0
 32 36  1  0  0  0  0
 33 37  1  0  0  0  0
 34 30  1  0  0  0  0
 35 31  1  0  0  0  0
 37 38  1  0  0  0  0
 38 40  1  0  0  0  0
 38 39  1  0  0  0  0
 40 41  1  0  0  0  0
 42 40  1  0  0  0  0
 43 42  1  0  0  0  0
 44 37  1  0  0  0  0
 44 43  2  0  0  0  0
M  END
>  <minimizedAffinity>
-6.01287651

$$$$

 OpenBabel03242518483D

 44 47  0  0  1  0  0  0  0  0999 V2000
   38.5080   27.9950   40.6010 C   0  0  2  0  0  0  0  0  0  0  0  0
   38.0150   26.9690   41.5550 C   0  0  1  0  0  0  0  0  0  0  0  0
   36.8360   27.4680   42.3880 C   0  0  0  0  0  0  0  0  0  0  0  0
   37.3070   28.6490   42.9700 O   0  0  0  0  0  0  0  0  0  0  0  0
   37.3970   29.6690   42.0490 C   0  0  0  0  0  0  0  0  0  0  0  0
   37.5610   29.2100   40.6350 C   0  0  1  0  0  0  0  0  0  0  0  0
   39.5030   28.3740   40.9000 H   0  0  0  0  0  0  0  0  0  0  0  0
   38.8400   26.7470   42.2840 H   0  0  0  0  0  0  0  0  0  0  0  0
   36.5980   26.7770   43.1950 H   0  0  0  0  0  0  0  0  0  0  0  0
   35.9470   27.6480   41.7540 H   0  0  0  0  0  0  0  0  0  0  0  0
   38.3380   30.2340   42.3020 H   0  0  0  0  0  0  0  0  0  0  0  0
   36.5780   30.4050   42.1130 H   0  0  0  0  0  0  0  0  0  0  0  0
   36.6220   28.8280   40.1930 H   0  0  0  0  0  0  0  0  0  0  0  0
   37.7070   23.4060   40.7550 C   0  0  0  0  0  0  0  0  0  0  0  0
   36.6740   23.3610   39.7690 C   0  0  0  0  0  0  0  0  0  0  0  0
   36.1110   24.6120   39.4130 C   0  0  0  0  0  0  0  0  0  0  0  0
   36.5680   25.7360   40.0070 N   0  0  0  0  0  0  0  0  0  0  0  0
   37.5470   25.7110   40.9340 C   0  0  0  0  0  0  0  0  0  0  0  0
   38.1190   24.5450   41.3100 N   0  0  0  0  0  0  0  0  0  0  0  0
   36.3570   22.4360   39.3360 H   0  0  0  0  0  0  0  0  0  0  0  0
   35.3320   24.6350   38.6780 H   0  0  0  0  0  0  0  0  0  0  0  0
   38.2560   22.2130   41.1050 O   0  0  0  0  0  0  0  0  0  0  0  0
   37.9550   21.7380   41.9510 H   0  0  0  0  0  0  0  0  0  0  0  0
   38.5900   27.5490   39.2800 O   0  0  0  0  0  0  0  0  0  0  0  0
   37.7370   27.7500   38.8100 H   0  0  0  0  0  0  0  0  0  0  0  0
   38.1110   30.1610   39.8060 O   0  0  0  0  0  0  0  0  0  0  0  0
   40.6670   31.0120   39.5950 F   0  0  0  0  0  0  0  0  0  0  0  0
   39.5930   31.8180   39.7200 C   0  0  0  0  0  0  0  0  0  0  0  0
   38.2630   31.4750   39.8310 C   0  0  0  0  0  0  0  0  0  0  0  0
   37.3850   32.5410   39.9410 C   0  0  0  0  0  0  0  0  0  0  0  0
   37.7300   33.8740   39.9470 C   0  0  0  0  0  0  0  0  0  0  0  0
   39.0560   34.1590   39.8350 C   0  0  0  0  0  0  0  0  0  0  0  0
   40.0070   33.1610   39.7210 C   0  0  0  0  0  0  0  0  0  0  0  0
   36.3420   32.1860   40.0260 H   0  0  0  0  0  0  0  0  0  0  0  0
   36.9210   34.5910   40.0400 H   0  0  0  0  0  0  0  0  0  0  0  0
   39.3240   35.2190   39.8400 H   0  0  0  0  0  0  0  0  0  0  0  0
   41.3490   33.6250   39.6120 N   0  0  0  0  0  0  0  0  0  0  0  0
   42.0460   33.9280   38.3760 C   0  0  0  0  0  3  0  0  0  0  0  0
   41.6110   33.4750   37.4830 H   0  0  0  0  0  0  0  0  0  0  0  0
   43.4470   33.3330   38.5700 C   0  0  0  0  0  3  0  0  0  0  0  0
   44.0340   33.2980   37.6560 H   0  0  0  0  0  0  0  0  0  0  0  0
   44.0420   34.1260   39.5220 O   0  0  0  0  0  0  0  0  0  0  0  0
   43.5010   34.0220   40.7740 C   0  0  0  0  0  3  0  0  0  0  0  0
   42.0380   33.7970   40.8580 C   0  0  0  0  0  3  0  0  0  0  0  0
  1  6  1  0  0  0  0
  1  7  1  1  0  0  0
  1  2  1  0  0  0  0
  2  8  1  1  0  0  0
  2  3  1  0  0  0  0
  3  4  1  0  0  0  0
  3  9  1  0  0  0  0
  5 12  1  0  0  0  0
  5 11  1  0  0  0  0
  5  4  1  0  0  0  0
  6 13  1  6  0  0  0
  6  5  1  0  0  0  0
 10  3  1  0  0  0  0
 14 22  1  0  0  0  0
 14 19  1  0  0  0  0
 15 14  2  0  0  0  0
 16 15  1  0  0  0  0
 16 17  2  0  0  0  0
 17 18  1  0  0  0  0
 18 19  2  0  0  0  0
 18  2  1  0  0  0  0
 20 15  1  0  0  0  0
 21 16  1  0  0  0  0
 22 23  1  0  0  0  0
 24  1  1  0  0  0  0
 25 24  1  0  0  0  0
 26 29  1  0  0  0  0
 26  6  1  0  0  0  0
 27 28  1  0  0  0  0
 28 33  2  0  0  0  0
 28 29  1  0  0  0  0
 29 30  2  0  0  0  0
 30 31  1  0  0  0  0
 30 34  1  0  0  0  0
 31 35  1  0  0  0  0
 32 36  1  0  0  0  0
 32 31  2  0  0  0  0
 33 32  1  0  0  0  0
 37 33  1  0  0  0  0
 37 44  1  0  0  0  0
 38 40  1  0  0  0  0
 38 37  1  0  0  0  0
 39 38  1  0  0  0  0
 40 42  1  0  0  0  0
 41 40  1  0  0  0  0
 42 43  1  0  0  0  0
 43 44  2  0  0  0  0
M  END
>  <minimizedAffinity>
-5.96945906

$$$$

 OpenBabel03242518483D

 44 47  0  0  1  0  0  0  0  0999 V2000
   34.0420   28.6000   36.4100 C   0  0  2  0  0  0  0  0  0  0  0  0
   32.7710   28.8810   35.6940 C   0  0  1  0  0  0  0  0  0  0  0  0
   31.9850   27.6080   35.3820 C   0  0  0  0  0  0  0  0  0  0  0  0
   32.8990   26.8070   34.6890 O   0  0  0  0  0  0  0  0  0  0  0  0
   33.8620   26.2920   35.5280 C   0  0  0  0  0  0  0  0  0  0  0  0
   34.0990   27.1020   36.7640 C   0  0  1  0  0  0  0  0  0  0  0  0
   34.9160   28.7950   35.7630 H   0  0  0  0  0  0  0  0  0  0  0  0
   33.0250   29.3410   34.7010 H   0  0  0  0  0  0  0  0  0  0  0  0
   31.1510   27.8090   34.7110 H   0  0  0  0  0  0  0  0  0  0  0  0
   31.6310   27.1210   36.3100 H   0  0  0  0  0  0  0  0  0  0  0  0
   34.8270   26.3240   34.9490 H   0  0  0  0  0  0  0  0  0  0  0  0
   33.7050   25.2340   35.7950 H   0  0  0  0  0  0  0  0  0  0  0  0
   33.3030   26.9760   37.5220 H   0  0  0  0  0  0  0  0  0  0  0  0
   30.5550   30.1670   38.3130 C   0  0  0  0  0  0  0  0  0  0  0  0
   30.0470   31.3870   37.7700 C   0  0  0  0  0  0  0  0  0  0  0  0
   30.5130   31.7210   36.4730 C   0  0  0  0  0  0  0  0  0  0  0  0
   31.3810   30.8940   35.8480 N   0  0  0  0  0  0  0  0  0  0  0  0
   31.8230   29.7550   36.4190 C   0  0  0  0  0  0  0  0  0  0  0  0
   31.4110   29.3880   37.6530 N   0  0  0  0  0  0  0  0  0  0  0  0
   29.3610   31.9980   38.3160 H   0  0  0  0  0  0  0  0  0  0  0  0
   30.1640   32.6260   36.0180 H   0  0  0  0  0  0  0  0  0  0  0  0
   30.1160   29.8340   39.5560 O   0  0  0  0  0  0  0  0  0  0  0  0
   30.6900   30.0250   40.3710 H   0  0  0  0  0  0  0  0  0  0  0  0
   34.2010   29.3280   37.5910 O   0  0  0  0  0  0  0  0  0  0  0  0
   33.8380   28.8030   38.3540 H   0  0  0  0  0  0  0  0  0  0  0  0
   35.3280   26.8800   37.3420 O   0  0  0  0  0  0  0  0  0  0  0  0
   36.4400   28.2640   39.3790 F   0  0  0  0  0  0  0  0  0  0  0  0
   36.3460   26.9200   39.3190 C   0  0  0  0  0  0  0  0  0  0  0  0
   35.7980   26.1350   38.3290 C   0  0  0  0  0  0  0  0  0  0  0  0
   35.8470   24.7700   38.5610 C   0  0  0  0  0  0  0  0  0  0  0  0
   36.3840   24.1590   39.6720 C   0  0  0  0  0  0  0  0  0  0  0  0
   36.9120   24.9800   40.6210 C   0  0  0  0  0  0  0  0  0  0  0  0
   36.9100   26.3550   40.4760 C   0  0  0  0  0  0  0  0  0  0  0  0
   35.3900   24.2100   37.7250 H   0  0  0  0  0  0  0  0  0  0  0  0
   36.3440   23.0750   39.7050 H   0  0  0  0  0  0  0  0  0  0  0  0
   37.3380   24.4890   41.5010 H   0  0  0  0  0  0  0  0  0  0  0  0
   37.5010   27.0700   41.5570 N   0  0  0  0  0  0  0  0  0  0  0  0
   36.7830   27.7890   42.5930 C   0  0  0  0  0  3  0  0  0  0  0  0
   35.7530   28.0470   42.3410 H   0  0  0  0  0  0  0  0  0  0  0  0
   37.5670   29.0980   42.7630 C   0  0  0  0  0  3  0  0  0  0  0  0
   37.0460   29.8400   43.3630 H   0  0  0  0  0  0  0  0  0  0  0  0
   38.7570   28.7280   43.3420 O   0  0  0  0  0  0  0  0  0  0  0  0
   39.5820   27.9930   42.5340 C   0  0  0  0  0  3  0  0  0  0  0  0
   38.9340   27.0530   41.5880 C   0  0  0  0  0  3  0  0  0  0  0  0
  1  7  1  6  0  0  0
  1  6  1  0  0  0  0
  1 24  1  0  0  0  0
  2  8  1  6  0  0  0
  2  1  1  0  0  0  0
  2 18  1  0  0  0  0
  3  2  1  0  0  0  0
  3 10  1  0  0  0  0
  4  3  1  0  0  0  0
  4  5  1  0  0  0  0
  5 12  1  0  0  0  0
  5  6  1  0  0  0  0
  6 26  1  0  0  0  0
  6 13  1  1  0  0  0
  9  3  1  0  0  0  0
 11  5  1  0  0  0  0
 14 22  1  0  0  0  0
 15 14  1  0  0  0  0
 15 20  1  0  0  0  0
 16 15  2  0  0  0  0
 17 18  2  0  0  0  0
 17 16  1  0  0  0  0
 18 19  1  0  0  0  0
 19 14  2  0  0  0  0
 21 16  1  0  0  0  0
 22 23  1  0  0  0  0
 24 25  1  0  0  0  0
 26 29  1  0  0  0  0
 28 27  1  0  0  0  0
 28 33  1  0  0  0  0
 29 30  1  0  0  0  0
 29 28  2  0  0  0  0
 30 31  2  0  0  0  0
 31 35  1  0  0  0  0
 31 32  1  0  0  0  0
 32 36  1  0  0  0  0
 33 32  2  0  0  0  0
 33 37  1  0  0  0  0
 34 30  1  0  0  0  0
 37 44  1  0  0  0  0
 37 38  1  0  0  0  0
 38 40  1  0  0  0  0
 39 38  1  0  0  0  0
 40 42  1  0  0  0  0
 40 41  1  0  0  0  0
 43 42  1  0  0  0  0
 44 43  2  0  0  0  0
M  END
>  <minimizedAffinity>
-5.66697359

$$$$

 OpenBabel03242518483D

 44 47  0  0  1  0  0  0  0  0999 V2000
   41.1340   32.3970   37.4980 C   0  0  2  0  0  0  0  0  0  0  0  0
   42.5780   32.6550   37.7340 C   0  0  1  0  0  0  0  0  0  0  0  0
   42.8670   33.0660   39.1770 C   0  0  0  0  0  0  0  0  0  0  0  0
   42.0190   34.1570   39.3950 O   0  0  0  0  0  0  0  0  0  0  0  0
   40.7050   33.7640   39.5190 C   0  0  0  0  0  0  0  0  0  0  0  0
   40.3840   32.4680   38.8420 C   0  0  1  0  0  0  0  0  0  0  0  0
   40.6880   33.1780   36.8560 H   0  0  0  0  0  0  0  0  0  0  0  0
   42.8840   33.5270   37.0950 H   0  0  0  0  0  0  0  0  0  0  0  0
   43.8910   33.4180   39.2930 H   0  0  0  0  0  0  0  0  0  0  0  0
   42.6570   32.2360   39.8770 H   0  0  0  0  0  0  0  0  0  0  0  0
   40.0950   34.5480   38.9900 H   0  0  0  0  0  0  0  0  0  0  0  0
   40.3380   33.7460   40.5580 H   0  0  0  0  0  0  0  0  0  0  0  0
   40.7510   31.5870   39.4000 H   0  0  0  0  0  0  0  0  0  0  0  0
   44.7640   30.2990   35.9740 C   0  0  0  0  0  0  0  0  0  0  0  0
   45.1360   29.3550   36.9800 C   0  0  0  0  0  0  0  0  0  0  0  0
   44.5930   29.5860   38.2690 C   0  0  0  0  0  0  0  0  0  0  0  0
   43.7830   30.6500   38.4650 N   0  0  0  0  0  0  0  0  0  0  0  0
   43.4710   31.5070   37.4700 C   0  0  0  0  0  0  0  0  0  0  0  0
   43.9610   31.3330   36.2230 N   0  0  0  0  0  0  0  0  0  0  0  0
   45.7830   28.5320   36.7610 H   0  0  0  0  0  0  0  0  0  0  0  0
   44.8390   28.9080   39.0610 H   0  0  0  0  0  0  0  0  0  0  0  0
   45.2780   30.0890   34.7340 O   0  0  0  0  0  0  0  0  0  0  0  0
   46.0930   30.6090   34.4210 H   0  0  0  0  0  0  0  0  0  0  0  0
   40.8670   31.1530   36.9210 O   0  0  0  0  0  0  0  0  0  0  0  0
   40.7080   30.4840   37.6390 H   0  0  0  0  0  0  0  0  0  0  0  0
   39.0470   32.3130   38.5550 O   0  0  0  0  0  0  0  0  0  0  0  0
   38.9780   30.5880   40.6340 F   0  0  0  0  0  0  0  0  0  0  0  0
   38.2470   30.4680   39.5080 C   0  0  0  0  0  0  0  0  0  0  0  0
   38.2160   31.2940   38.4050 C   0  0  0  0  0  0  0  0  0  0  0  0
   37.3480   30.9030   37.3980 C   0  0  0  0  0  0  0  0  0  0  0  0
   36.5400   29.7890   37.4160 C   0  0  0  0  0  0  0  0  0  0  0  0
   36.6090   29.0060   38.5280 C   0  0  0  0  0  0  0  0  0  0  0  0
   37.4470   29.3160   39.5840 C   0  0  0  0  0  0  0  0  0  0  0  0
   37.3800   31.6130   36.5520 H   0  0  0  0  0  0  0  0  0  0  0  0
   35.9140   29.6210   36.5460 H   0  0  0  0  0  0  0  0  0  0  0  0
   35.9650   28.1220   38.5370 H   0  0  0  0  0  0  0  0  0  0  0  0
   37.4000   28.3970   40.6710 N   0  0  0  0  0  0  0  0  0  0  0  0
   36.5240   28.4880   41.8240 C   0  0  0  0  0  3  0  0  0  0  0  0
   36.1080   29.4800   42.0040 H   0  0  0  0  0  0  0  0  0  0  0  0
   37.4220   28.1310   43.0170 C   0  0  0  0  0  3  0  0  0  0  0  0
   36.9680   28.3460   43.9810 H   0  0  0  0  0  0  0  0  0  0  0  0
   37.6890   26.7900   42.8730 O   0  0  0  0  0  0  0  0  0  0  0  0
   38.4810   26.4760   41.8030 C   0  0  0  0  0  3  0  0  0  0  0  0
   38.3160   27.2980   40.5800 C   0  0  0  0  0  3  0  0  0  0  0  0
  1  7  1  6  0  0  0
  1  2  1  0  0  0  0
  1  6  1  0  0  0  0
  2  8  1  6  0  0  0
  2  3  1  0  0  0  0
  3  9  1  0  0  0  0
  3  4  1  0  0  0  0
  3 10  1  0  0  0  0
  4  5  1  0  0  0  0
  5 12  1  0  0  0  0
  6 13  1  1  0  0  0
  6  5  1  0  0  0  0
 11  5  1  0  0  0  0
 14 19  2  0  0  0  0
 14 15  1  0  0  0  0
 15 16  2  0  0  0  0
 16 17  1  0  0  0  0
 16 21  1  0  0  0  0
 18  2  1  0  0  0  0
 18 17  2  0  0  0  0
 19 18  1  0  0  0  0
 20 15  1  0  0  0  0
 22 14  1  0  0  0  0
 23 22  1  0  0  0  0
 24  1  1  0  0  0  0
 24 25  1  0  0  0  0
 26  6  1  0  0  0  0
 28 33  1  0  0  0  0
 28 27  1  0  0  0  0
 29 26  1  0  0  0  0
 29 28  2  0  0  0  0
 30 31  2  0  0  0  0
 30 29  1  0  0  0  0
 31 32  1  0  0  0  0
 32 36  1  0  0  0  0
 32 33  2  0  0  0  0
 33 37  1  0  0  0  0
 34 30  1  0  0  0  0
 35 31  1  0  0  0  0
 37 38  1  0  0  0  0
 38 39  1  0  0  0  0
 38 40  1  0  0  0  0
 40 41  1  0  0  0  0
 42 40  1  0  0  0  0
 43 42  1  0  0  0  0
 44 37  1  0  0  0  0
 44 43  2  0  0  0  0
M  END
>  <minimizedAffinity>
-5.62448788

$$$$

 OpenBabel03242518483D

 44 47  0  0  1  0  0  0  0  0999 V2000
   38.9380   26.3210   43.1430 C   0  0  2  0  0  0  0  0  0  0  0  0
   39.7660   25.0910   43.0390 C   0  0  1  0  0  0  0  0  0  0  0  0
   39.2420   24.1270   41.9760 C   0  0  0  0  0  0  0  0  0  0  0  0
   37.9060   23.9210   42.3330 O   0  0  0  0  0  0  0  0  0  0  0  0
   37.1300   25.0240   42.0550 C   0  0  0  0  0  0  0  0  0  0  0  0
   37.8850   26.3150   42.0180 C   0  0  1  0  0  0  0  0  0  0  0  0
   38.3730   26.3430   44.0920 H   0  0  0  0  0  0  0  0  0  0  0  0
   39.6990   24.5430   44.0170 H   0  0  0  0  0  0  0  0  0  0  0  0
   39.7480   23.1630   42.0290 H   0  0  0  0  0  0  0  0  0  0  0  0
   39.3360   24.5610   40.9630 H   0  0  0  0  0  0  0  0  0  0  0  0
   36.4030   25.1160   42.9100 H   0  0  0  0  0  0  0  0  0  0  0  0
   36.5140   24.9230   41.1470 H   0  0  0  0  0  0  0  0  0  0  0  0
   38.4800   26.4410   41.0940 H   0  0  0  0  0  0  0  0  0  0  0  0
   42.8210   25.5340   41.0660 C   0  0  0  0  0  0  0  0  0  0  0  0
   43.8400   25.7380   42.0460 C   0  0  0  0  0  0  0  0  0  0  0  0
   43.4070   25.7110   43.3960 C   0  0  0  0  0  0  0  0  0  0  0  0
   42.1000   25.5030   43.6670 N   0  0  0  0  0  0  0  0  0  0  0  0
   41.1850   25.3180   42.6920 C   0  0  0  0  0  0  0  0  0  0  0  0
   41.5440   25.3340   41.3890 N   0  0  0  0  0  0  0  0  0  0  0  0
   44.8600   25.8980   41.7660 H   0  0  0  0  0  0  0  0  0  0  0  0
   44.1300   25.8590   44.1720 H   0  0  0  0  0  0  0  0  0  0  0  0
   43.2240   25.5570   39.7680 O   0  0  0  0  0  0  0  0  0  0  0  0
   43.1030   26.3950   39.2080 H   0  0  0  0  0  0  0  0  0  0  0  0
   39.6700   27.5070   43.0430 O   0  0  0  0  0  0  0  0  0  0  0  0
   39.7000   27.7970   42.0920 H   0  0  0  0  0  0  0  0  0  0  0  0
   37.0940   27.4240   42.2150 O   0  0  0  0  0  0  0  0  0  0  0  0
   35.8750   27.0880   39.8270 F   0  0  0  0  0  0  0  0  0  0  0  0
   36.2230   28.2780   40.3550 C   0  0  0  0  0  0  0  0  0  0  0  0
   36.8410   28.5440   41.5580 C   0  0  0  0  0  0  0  0  0  0  0  0
   37.0630   29.8850   41.8250 C   0  0  0  0  0  0  0  0  0  0  0  0
   36.7220   30.9390   41.0070 C   0  0  0  0  0  0  0  0  0  0  0  0
   36.1130   30.6220   39.8310 C   0  0  0  0  0  0  0  0  0  0  0  0
   35.8520   29.3110   39.4770 C   0  0  0  0  0  0  0  0  0  0  0  0
   37.5600   30.0160   42.8040 H   0  0  0  0  0  0  0  0  0  0  0  0
   36.9640   31.9360   41.3620 H   0  0  0  0  0  0  0  0  0  0  0  0
   35.8450   31.4630   39.1850 H   0  0  0  0  0  0  0  0  0  0  0  0
   35.2110   29.1500   38.2150 N   0  0  0  0  0  0  0  0  0  0  0  0
   33.8090   28.8390   38.0080 C   0  0  0  0  0  3  0  0  0  0  0  0
   33.3050   28.4030   38.8720 H   0  0  0  0  0  0  0  0  0  0  0  0
   33.8110   27.7920   36.8860 C   0  0  0  0  0  3  0  0  0  0  0  0
   32.8490   27.3050   36.7460 H   0  0  0  0  0  0  0  0  0  0  0  0
   34.1970   28.4770   35.7590 O   0  0  0  0  0  0  0  0  0  0  0  0
   35.4970   28.9040   35.7670 C   0  0  0  0  0  3  0  0  0  0  0  0
   36.0610   29.3190   37.0740 C   0  0  0  0  0  3  0  0  0  0  0  0
  1  7  1  1  0  0  0
  2  1  1  0  0  0  0
  2  8  1  1  0  0  0
  3  9  1  0  0  0  0
  3  4  1  0  0  0  0
  3  2  1  0  0  0  0
  5  4  1  0  0  0  0
  5 11  1  0  0  0  0
  6 13  1  6  0  0  0
  6  5  1  0  0  0  0
  6 26  1  0  0  0  0
  6  1  1  0  0  0  0
 10  3  1  0  0  0  0
 12  5  1  0  0  0  0
 14 19  2  0  0  0  0
 14 15  1  0  0  0  0
 15 16  2  0  0  0  0
 16 17  1  0  0  0  0
 16 21  1  0  0  0  0
 18  2  1  0  0  0  0
 18 17  2  0  0  0  0
 19 18  1  0  0  0  0
 20 15  1  0  0  0  0
 22 14  1  0  0  0  0
 23 22  1  0  0  0  0
 24  1  1  0  0  0  0
 25 24  1  0  0  0  0
 27 28  1  0  0  0  0
 28 29  1  0  0  0  0
 29 30  2  0  0  0  0
 29 26  1  0  0  0  0
 30 34  1  0  0  0  0
 31 35  1  0  0  0  0
 31 30  1  0  0  0  0
 32 31  2  0  0  0  0
 33 32  1  0  0  0  0
 33 28  2  0  0  0  0
 36 32  1  0  0  0  0
 37 33  1  0  0  0  0
 38 37  1  0  0  0  0
 38 39  1  0  0  0  0
 40 38  1  0  0  0  0
 41 40  1  0  0  0  0
 42 43  1  0  0  0  0
 42 40  1  0  0  0  0
 43 44  2  0  0  0  0
 44 37  1  0  0  0  0
M  END
>  <minimizedAffinity>
-5.62435532

$$$$

 OpenBabel03242518483D

 44 47  0  0  1  0  0  0  0  0999 V2000
   37.2390   28.4410   40.4270 C   0  0  2  0  0  0  0  0  0  0  0  0
   37.0270   29.5200   41.4260 C   0  0  1  0  0  0  0  0  0  0  0  0
   37.5810   29.1550   42.8020 C   0  0  0  0  0  0  0  0  0  0  0  0
   36.9700   27.9330   43.1010 O   0  0  0  0  0  0  0  0  0  0  0  0
   37.4980   26.9050   42.3520 C   0  0  0  0  0  0  0  0  0  0  0  0
   38.1090   27.3370   41.0570 C   0  0  1  0  0  0  0  0  0  0  0  0
   36.2850   27.9590   40.1500 H   0  0  0  0  0  0  0  0  0  0  0  0
   35.9200   29.6550   41.5620 H   0  0  0  0  0  0  0  0  0  0  0  0
   37.2680   29.8730   43.5600 H   0  0  0  0  0  0  0  0  0  0  0  0
   38.6840   29.0700   42.7780 H   0  0  0  0  0  0  0  0  0  0  0  0
   36.6290   26.2430   42.0780 H   0  0  0  0  0  0  0  0  0  0  0  0
   38.2020   26.2630   42.9060 H   0  0  0  0  0  0  0  0  0  0  0  0
   39.0980   27.8150   41.1850 H   0  0  0  0  0  0  0  0  0  0  0  0
   39.4740   32.2400   41.2220 C   0  0  0  0  0  0  0  0  0  0  0  0
   38.8080   33.2480   40.4600 C   0  0  0  0  0  0  0  0  0  0  0  0
   37.4940   32.9290   40.0350 C   0  0  0  0  0  0  0  0  0  0  0  0
   36.9660   31.7300   40.3650 N   0  0  0  0  0  0  0  0  0  0  0  0
   37.6490   30.8180   41.0880 C   0  0  0  0  0  0  0  0  0  0  0  0
   38.9050   31.0720   41.5180 N   0  0  0  0  0  0  0  0  0  0  0  0
   39.2820   34.1790   40.2320 H   0  0  0  0  0  0  0  0  0  0  0  0
   36.9490   33.6490   39.4600 H   0  0  0  0  0  0  0  0  0  0  0  0
   40.7350   32.5340   41.6360 O   0  0  0  0  0  0  0  0  0  0  0  0
   41.5380   32.1800   41.1250 H   0  0  0  0  0  0  0  0  0  0  0  0
   37.8680   28.8690   39.2550 O   0  0  0  0  0  0  0  0  0  0  0  0
   38.8520   28.7590   39.3490 H   0  0  0  0  0  0  0  0  0  0  0  0
   38.1990   26.3270   40.1250 O   0  0  0  0  0  0  0  0  0  0  0  0
   35.8090   25.8050   38.9790 F   0  0  0  0  0  0  0  0  0  0  0  0
   36.6450   24.8730   39.4780 C   0  0  0  0  0  0  0  0  0  0  0  0
   37.8750   25.0460   40.0740 C   0  0  0  0  0  0  0  0  0  0  0  0
   38.5030   23.8800   40.4830 C   0  0  0  0  0  0  0  0  0  0  0  0
   38.0060   22.6040   40.3430 C   0  0  0  0  0  0  0  0  0  0  0  0
   36.7870   22.4880   39.7470 C   0  0  0  0  0  0  0  0  0  0  0  0
   36.0850   23.5960   39.3070 C   0  0  0  0  0  0  0  0  0  0  0  0
   39.4800   24.1000   40.9490 H   0  0  0  0  0  0  0  0  0  0  0  0
   38.6220   21.7920   40.7160 H   0  0  0  0  0  0  0  0  0  0  0  0
   36.3970   21.4720   39.6390 H   0  0  0  0  0  0  0  0  0  0  0  0
   34.8270   23.3040   38.7070 N   0  0  0  0  0  0  0  0  0  0  0  0
   34.4740   23.5340   37.3190 C   0  0  0  0  0  3  0  0  0  0  0  0
   35.1090   24.2530   36.7990 H   0  0  0  0  0  0  0  0  0  0  0  0
   33.0540   24.1150   37.3750 C   0  0  0  0  0  3  0  0  0  0  0  0
   32.7170   24.5300   36.4290 H   0  0  0  0  0  0  0  0  0  0  0  0
   32.2580   23.0710   37.7800 O   0  0  0  0  0  0  0  0  0  0  0  0
   32.4610   22.6630   39.0700 C   0  0  0  0  0  3  0  0  0  0  0  0
   33.8490   22.7330   39.5870 C   0  0  0  0  0  3  0  0  0  0  0  0
  1  7  1  6  0  0  0
  1  6  1  0  0  0  0
  1  2  1  0  0  0  0
  2  8  1  1  0  0  0
  2  3  1  0  0  0  0
  3  4  1  0  0  0  0
  3  9  1  0  0  0  0
  5 12  1  0  0  0  0
  5  4  1  0  0  0  0
  6 13  1  1  0  0  0
  6  5  1  0  0  0  0
 10  3  1  0  0  0  0
 11  5  1  0  0  0  0
 14 19  1  0  0  0  0
 14 22  1  0  0  0  0
 15 14  2  0  0  0  0
 16 17  2  0  0  0  0
 16 15  1  0  0  0  0
 17 18  1  0  0  0  0
 18  2  1  0  0  0  0
 18 19  2  0  0  0  0
 20 15  1  0  0  0  0
 21 16  1  0  0  0  0
 23 22  1  0  0  0  0
 24 25  1  0  0  0  0
 24  1  1  0  0  0  0
 26  6  1  0  0  0  0
 27 28  1  0  0  0  0
 28 29  1  0  0  0  0
 29 26  1  0  0  0  0
 29 30  2  0  0  0  0
 30 34  1  0  0  0  0
 31 30  1  0  0  0  0
 31 35  1  0  0  0  0
 32 31  2  0  0  0  0
 33 28  2  0  0  0  0
 33 32  1  0  0  0  0
 36 32  1  0  0  0  0
 37 33  1  0  0  0  0
 37 44  1  0  0  0  0
 38 40  1  0  0  0  0
 38 37  1  0  0  0  0
 39 38  1  0  0  0  0
 40 42  1  0  0  0  0
 41 40  1  0  0  0  0
 42 43  1  0  0  0  0
 43 44  2  0  0  0  0
M  END
>  <minimizedAffinity>
-5.57271528

$$$$
