
 OpenBabel03242518453D

 44 47  0  0  1  0  0  0  0  0999 V2000
   47.4710   32.9660   44.3950 C   0  0  2  0  0  0  0  0  0  0  0  0
   47.3780   33.3580   42.9650 C   0  0  1  0  0  0  0  0  0  0  0  0
   47.3090   32.1470   42.0340 C   0  0  0  0  0  0  0  0  0  0  0  0
   48.4350   31.3920   42.3760 O   0  0  0  0  0  0  0  0  0  0  0  0
   48.2770   30.7660   43.5920 C   0  0  0  0  0  0  0  0  0  0  0  0
   47.3050   31.4390   44.5100 C   0  0  1  0  0  0  0  0  0  0  0  0
   48.4690   33.1980   44.8090 H   0  0  0  0  0  0  0  0  0  0  0  0
   48.3180   33.9070   42.6920 H   0  0  0  0  0  0  0  0  0  0  0  0
   47.4160   32.4420   40.9910 H   0  0  0  0  0  0  0  0  0  0  0  0
   46.3710   31.5810   42.1860 H   0  0  0  0  0  0  0  0  0  0  0  0
   49.2780   30.8250   44.1050 H   0  0  0  0  0  0  0  0  0  0  0  0
   48.0410   29.6920   43.5160 H   0  0  0  0  0  0  0  0  0  0  0  0
   46.2510   31.2620   44.2270 H   0  0  0  0  0  0  0  0  0  0  0  0
   45.0310   36.1690   42.8460 C   0  0  0  0  0  0  0  0  0  0  0  0
   43.9970   35.7200   41.9680 C   0  0  0  0  0  0  0  0  0  0  0  0
   44.1660   34.4170   41.4370 C   0  0  0  0  0  0  0  0  0  0  0  0
   45.2580   33.6990   41.7810 N   0  0  0  0  0  0  0  0  0  0  0  0
   46.2010   34.1830   42.6170 C   0  0  0  0  0  0  0  0  0  0  0  0
   46.0890   35.4190   43.1510 N   0  0  0  0  0  0  0  0  0  0  0  0
   43.1560   36.3380   41.7350 H   0  0  0  0  0  0  0  0  0  0  0  0
   43.4200   34.0300   40.7730 H   0  0  0  0  0  0  0  0  0  0  0  0
   44.8810   37.4180   43.3610 O   0  0  0  0  0  0  0  0  0  0  0  0
   45.3730   38.2050   42.9500 H   0  0  0  0  0  0  0  0  0  0  0  0
   46.5090   33.5660   45.2110 O   0  0  0  0  0  0  0  0  0  0  0  0
   45.7090   32.9790   45.2660 H   0  0  0  0  0  0  0  0  0  0  0  0
   47.4890   31.1220   45.8370 O   0  0  0  0  0  0  0  0  0  0  0  0
   46.3910   28.6610   45.6370 F   0  0  0  0  0  0  0  0  0  0  0  0
   46.1970   29.5110   46.6650 C   0  0  0  0  0  0  0  0  0  0  0  0
   46.7140   30.7750   46.8510 C   0  0  0  0  0  0  0  0  0  0  0  0
   46.3300   31.4040   48.0240 C   0  0  0  0  0  0  0  0  0  0  0  0
   45.4980   30.8780   48.9870 C   0  0  0  0  0  0  0  0  0  0  0  0
   45.0150   29.6270   48.7550 C   0  0  0  0  0  0  0  0  0  0  0  0
   45.3430   28.9210   47.6120 C   0  0  0  0  0  0  0  0  0  0  0  0
   46.7830   32.4090   48.1000 H   0  0  0  0  0  0  0  0  0  0  0  0
   45.2940   31.5000   49.8540 H   0  0  0  0  0  0  0  0  0  0  0  0
   44.3550   29.2140   49.5240 H   0  0  0  0  0  0  0  0  0  0  0  0
   44.7550   27.6280   47.5210 N   0  0  0  0  0  0  0  0  0  0  0  0
   45.1290   26.4660   48.3050 C   0  0  0  0  0  3  0  0  0  0  0  0
   46.1190   26.5230   48.7610 H   0  0  0  0  0  0  0  0  0  0  0  0
   45.1400   25.3090   47.2970 C   0  0  0  0  0  3  0  0  0  0  0  0
   45.5960   24.4010   47.6840 H   0  0  0  0  0  0  0  0  0  0  0  0
   43.8210   25.1100   46.9690 O   0  0  0  0  0  0  0  0  0  0  0  0
   43.2520   26.1240   46.2480 C   0  0  0  0  0  3  0  0  0  0  0  0
   43.7020   27.5020   46.5540 C   0  0  0  0  0  3  0  0  0  0  0  0
  1  6  1  0  0  0  0
  1  7  1  1  0  0  0
  1 24  1  0  0  0  0
  2  8  1  6  0  0  0
  2  1  1  0  0  0  0
  3 10  1  0  0  0  0
  3  4  1  0  0  0  0
  3  2  1  0  0  0  0
  4  5  1  0  0  0  0
  5 11  1  0  0  0  0
  5  6  1  0  0  0  0
  6 13  1  6  0  0  0
  6 26  1  0  0  0  0
  9  3  1  0  0  0  0
 12  5  1  0  0  0  0
 14 19  1  0  0  0  0
 14 22  1  0  0  0  0
 15 14  2  0  0  0  0
 16 17  2  0  0  0  0
 16 15  1  0  0  0  0
 17 18  1  0  0  0  0
 18  2  1  0  0  0  0
 18 19  2  0  0  0  0
 20 15  1  0  0  0  0
 21 16  1  0  0  0  0
 23 22  1  0  0  0  0
 24 25  1  0  0  0  0
 26 29  1  0  0  0  0
 27 28  1  0  0  0  0
 28 29  2  0  0  0  0
 28 33  1  0  0  0  0
 29 30  1  0  0  0  0
 30 34  1  0  0  0  0
 30 31  2  0  0  0  0
 31 35  1  0  0  0  0
 32 31  1  0  0  0  0
 32 36  1  0  0  0  0
 33 32  2  0  0  0  0
 37 33  1  0  0  0  0
 37 38  1  0  0  0  0
 38 39  1  0  0  0  0
 40 41  1  0  0  0  0
 40 38  1  0  0  0  0
 42 40  1  0  0  0  0
 43 44  2  0  0  0  0
 43 42  1  0  0  0  0
 44 37  1  0  0  0  0
M  END
>  <minimizedAffinity>
-5.37721634

>  <minimizedRMSD>
1.01493013

$$$$
