
 OpenBabel03242511413D

 33 35  0  0  0  0  0  0  0  0999 V2000
   46.2040   31.9600   47.2730 C   0  0  0  0  0  0  0  0  0  0  0  0
   45.5300   32.3350   48.4030 C   0  0  0  0  0  0  0  0  0  0  0  0
   45.0100   31.4830   49.3280 C   0  0  0  0  0  0  0  0  0  0  0  0
   45.1830   30.1490   49.0940 C   0  0  0  0  0  0  0  0  0  0  0  0
   45.8650   29.7170   47.9560 C   0  0  0  0  0  0  0  0  0  0  0  0
   46.3850   30.6270   47.0330 C   0  0  0  0  0  0  0  0  0  0  0  0
   45.4700   33.4300   48.4550 H   0  0  0  0  0  0  0  0  0  0  0  0
   44.5230   32.0040   50.1350 H   0  0  0  0  0  0  0  0  0  0  0  0
   44.7140   29.5750   49.9150 H   0  0  0  0  0  0  0  0  0  0  0  0
   45.8410   28.6180   48.0460 H   0  0  0  0  0  0  0  0  0  0  0  0
   46.9630   29.6870   46.1060 N   0  0  0  0  0  0  0  0  0  0  0  0
   48.2480   29.2920   45.5620 C   0  0  0  0  0  3  0  0  0  0  0  0
   49.1020   29.6630   46.1820 H   0  0  0  0  0  0  0  0  0  0  0  0
   48.3410   27.8090   45.4600 C   0  0  0  0  0  3  0  0  0  0  0  0
   49.0240   27.4910   44.6130 H   0  0  0  0  0  0  0  0  0  0  0  0
   47.1620   27.1300   45.2890 O   0  0  0  0  0  0  0  0  0  0  0  0
   46.2410   27.9200   44.6010 C   0  0  0  0  0  2  0  0  0  0  0  0
   45.7830   28.9580   45.6040 C   0  0  0  0  0  2  0  0  0  0  0  0
   46.7880   32.7700   46.1830 C   0  0  0  0  0  0  0  0  0  0  0  0
   47.8200   32.4000   45.9570 H   0  0  0  0  0  0  0  0  0  0  0  0
   46.8790   33.7910   46.5340 H   0  0  0  0  0  0  0  0  0  0  0  0
   46.0010   32.6390   44.8970 C   0  0  0  0  0  0  0  0  0  0  0  0
   44.9780   32.2840   45.2650 H   0  0  0  0  0  0  0  0  0  0  0  0
   46.4640   32.0340   44.1490 H   0  0  0  0  0  0  0  0  0  0  0  0
   44.5560   36.0160   44.7870 C   0  0  0  0  0  0  0  0  0  0  0  0
   44.9740   36.4860   43.5180 C   0  0  0  0  0  0  0  0  0  0  0  0
   45.7640   35.6110   42.7530 C   0  0  0  0  0  0  0  0  0  0  0  0
   46.0850   34.4040   43.2320 N   0  0  0  0  0  0  0  0  0  0  0  0
   45.6460   34.0170   44.4660 C   0  0  0  0  0  0  0  0  0  0  0  0
   44.9050   34.7920   45.2270 N   0  0  0  0  0  0  0  0  0  0  0  0
   43.9440   36.6070   45.4610 H   0  0  0  0  0  0  0  0  0  0  0  0
   44.6540   37.4790   43.2320 H   0  0  0  0  0  0  0  0  0  0  0  0
   46.0770   35.9820   41.7860 H   0  0  0  0  0  0  0  0  0  0  0  0
  1  2  1  0  0  0  0
  2  7  1  0  0  0  0
  2  3  2  0  0  0  0
  3  8  1  0  0  0  0
  4  3  1  0  0  0  0
  4  9  1  0  0  0  0
  5 10  1  0  0  0  0
  5  4  2  0  0  0  0
  6  1  2  0  0  0  0
  6  5  1  0  0  0  0
 11  6  1  0  0  0  0
 12 11  1  0  0  0  0
 12 13  1  0  0  0  0
 14 12  1  0  0  0  0
 15 14  1  0  0  0  0
 16 14  1  0  0  0  0
 17 16  1  0  0  0  0
 17 18  1  0  0  0  0
 18 11  1  0  0  0  0
 19 21  1  0  0  0  0
 19  1  1  0  0  0  0
 20 19  1  0  0  0  0
 22 23  1  0  0  0  0
 22 19  1  0  0  0  0
 24 22  1  0  0  0  0
 25 30  1  0  0  0  0
 25 31  1  0  0  0  0
 26 25  2  0  0  0  0
 27 28  2  0  0  0  0
 27 26  1  0  0  0  0
 28 29  1  0  0  0  0
 29 22  1  0  0  0  0
 29 30  2  0  0  0  0
 32 26  1  0  0  0  0
 33 27  1  0  0  0  0
M  END
>  <minimizedAffinity>
-4.76457644

>  <minimizedRMSD>
0.878056288

$$$$
