
 OpenBabel03252502243D

 37 39  0  0  1  0  0  0  0  0999 V2000
   46.9810   34.6970   42.2580 N   0  0  0  0  0  0  0  0  0  0  0  0
   48.4260   34.7060   42.3730 C   0  0  0  0  0  0  0  0  0  0  0  0
   48.8890   35.5790   41.1890 C   0  0  0  0  0  0  0  0  0  0  0  0
   48.5890   34.8340   39.9090 C   0  0  0  0  0  0  0  0  0  0  0  0
   47.2500   34.1730   39.8820 C   0  0  0  0  0  0  0  0  0  0  0  0
   46.3270   34.5410   41.0040 C   0  0  1  0  0  0  0  0  0  0  0  0
   48.7930   35.0850   43.3200 H   0  0  0  0  0  0  0  0  0  0  0  0
   48.7780   33.6850   42.1080 H   0  0  0  0  0  0  0  0  0  0  0  0
   48.2570   36.5090   41.2420 H   0  0  0  0  0  0  0  0  0  0  0  0
   49.9570   35.8010   41.2280 H   0  0  0  0  0  0  0  0  0  0  0  0
   48.7590   35.5330   39.0660 H   0  0  0  0  0  0  0  0  0  0  0  0
   49.3870   34.0470   39.8240 H   0  0  0  0  0  0  0  0  0  0  0  0
   47.3640   33.0550   39.9070 H   0  0  0  0  0  0  0  0  0  0  0  0
   46.7890   34.3960   38.8970 H   0  0  0  0  0  0  0  0  0  0  0  0
   45.8700   35.5300   40.7620 H   0  0  0  0  0  0  0  0  0  0  0  0
   44.5160   35.9830   44.7640 C   0  0  0  0  0  0  0  0  0  0  0  0
   45.2790   35.9370   43.5850 C   0  0  0  0  0  0  0  0  0  0  0  0
   46.1570   34.8470   43.4170 C   0  0  0  0  0  0  0  0  0  0  0  0
   46.2020   33.9210   44.4060 N   0  0  0  0  0  0  0  0  0  0  0  0
   45.4500   34.0010   45.5270 C   0  0  0  0  0  0  0  0  0  0  0  0
   44.5970   35.0530   45.6970 N   0  0  0  0  0  0  0  0  0  0  0  0
   43.8400   36.8110   44.9060 H   0  0  0  0  0  0  0  0  0  0  0  0
   45.2290   36.6840   42.8090 H   0  0  0  0  0  0  0  0  0  0  0  0
   45.5120   33.2420   46.2970 H   0  0  0  0  0  0  0  0  0  0  0  0
   45.3560   33.5330   41.1120 O   0  0  0  0  0  0  0  0  0  0  0  0
   43.4020   33.8970   39.7170 C   0  0  2  0  0  3  0  0  0  0  0  0
   44.0670   33.9960   41.0430 C   0  0  1  0  0  3  0  0  0  0  0  0
   43.2140   33.5510   42.0270 O   0  0  0  0  0  0  0  0  0  0  0  0
   43.3020   32.1380   42.0420 C   0  0  0  0  0  2  0  0  0  0  0  0
   43.0060   31.5960   40.6700 C   0  0  1  0  0  3  0  0  0  0  0  0
   42.4920   32.6850   39.7440 C   0  0  2  0  0  3  0  0  0  0  0  0
   44.2820   33.7050   38.6590 O   0  0  0  0  0  0  0  0  0  0  0  0
   43.8150   33.8160   37.8070 H   0  0  0  0  0  0  0  0  0  0  0  0
   44.1650   31.0320   40.1620 O   0  0  0  0  0  0  0  0  0  0  0  0
   43.9860   30.6480   39.2500 H   0  0  0  0  0  0  0  0  0  0  0  0
   42.3970   32.1730   38.4530 O   0  0  0  0  0  0  0  0  0  0  0  0
   42.0020   32.8430   37.8700 H   0  0  0  0  0  0  0  0  0  0  0  0
  1  2  1  0  0  0  0
  1 18  1  0  0  0  0
  2  7  1  0  0  0  0
  3 10  1  0  0  0  0
  3  9  1  0  0  0  0
  3  2  1  0  0  0  0
  4  3  1  0  0  0  0
  5 13  1  0  0  0  0
  5  4  1  0  0  0  0
  5  6  1  0  0  0  0
  6 15  1  6  0  0  0
  6 25  1  0  0  0  0
  6  1  1  0  0  0  0
  8  2  1  0  0  0  0
 11  4  1  0  0  0  0
 12  4  1  0  0  0  0
 14  5  1  0  0  0  0
 16 22  1  0  0  0  0
 16 21  1  0  0  0  0
 17 16  2  0  0  0  0
 18 17  1  0  0  0  0
 18 19  2  0  0  0  0
 19 20  1  0  0  0  0
 20 21  2  0  0  0  0
 20 24  1  0  0  0  0
 23 17  1  0  0  0  0
 26 32  1  6  0  0  0
 26 31  1  0  0  0  0
 26 27  1  0  0  0  0
 27 25  1  6  0  0  0
 27 28  1  0  0  0  0
 28 29  1  0  0  0  0
 30 34  1  6  0  0  0
 30 29  1  0  0  0  0
 31 36  1  6  0  0  0
 31 30  1  0  0  0  0
 33 32  1  0  0  0  0
 35 34  1  0  0  0  0
 37 36  1  0  0  0  0
M  END
>  <minimizedAffinity>
-5.55525351

>  <minimizedRMSD>
1.65595865

$$$$
