
 OpenBabel03252509003D

 48 50  0  0  1  0  0  0  0  0999 V2000
   46.7090   34.4680   43.6390 N   0  0  0  0  0  0  0  0  0  0  0  0
   46.2510   35.5050   42.7860 C   0  0  0  0  0  0  0  0  0  0  0  0
   44.7530   35.7200   42.7780 C   0  0  0  0  0  0  0  0  0  0  0  0
   44.0760   35.4360   44.0860 C   0  0  0  0  0  0  0  0  0  0  0  0
   45.0730   35.0960   45.1680 C   0  0  0  0  0  0  0  0  0  0  0  0
   45.8590   33.8790   44.5620 C   0  0  2  0  0  0  0  0  0  0  0  0
   46.5640   35.4420   41.7400 H   0  0  0  0  0  0  0  0  0  0  0  0
   46.6970   36.4690   43.1670 H   0  0  0  0  0  0  0  0  0  0  0  0
   44.3080   35.1400   41.9320 H   0  0  0  0  0  0  0  0  0  0  0  0
   44.5430   36.7860   42.5070 H   0  0  0  0  0  0  0  0  0  0  0  0
   43.3840   36.2550   44.3970 H   0  0  0  0  0  0  0  0  0  0  0  0
   43.4400   34.5360   43.9490 H   0  0  0  0  0  0  0  0  0  0  0  0
   45.7660   35.9020   45.4170 H   0  0  0  0  0  0  0  0  0  0  0  0
   44.5030   34.6710   46.0060 H   0  0  0  0  0  0  0  0  0  0  0  0
   45.0790   33.1830   44.2060 H   0  0  0  0  0  0  0  0  0  0  0  0
   47.7870   33.6930   43.0980 C   0  0  0  0  0  0  0  0  0  0  0  0
   48.4980   34.3760   42.6170 H   0  0  0  0  0  0  0  0  0  0  0  0
   48.3020   33.1990   43.9610 H   0  0  0  0  0  0  0  0  0  0  0  0
   47.2200   32.6260   42.2140 C   0  0  0  0  0  0  0  0  0  0  0  0
   46.1190   32.7360   42.1240 H   0  0  0  0  0  0  0  0  0  0  0  0
   47.4020   31.6130   42.5720 H   0  0  0  0  0  0  0  0  0  0  0  0
   49.3260   32.1300   39.1430 C   0  0  0  0  0  0  0  0  0  0  0  0
   48.8020   31.9830   40.4420 C   0  0  0  0  0  0  0  0  0  0  0  0
   47.7640   32.7920   40.8390 C   0  0  0  0  0  0  0  0  0  0  0  0
   47.3000   33.6900   39.9570 N   0  0  0  0  0  0  0  0  0  0  0  0
   47.8090   33.8200   38.7210 C   0  0  0  0  0  0  0  0  0  0  0  0
   48.8160   33.0500   38.3020 N   0  0  0  0  0  0  0  0  0  0  0  0
   50.1320   31.4600   38.9160 H   0  0  0  0  0  0  0  0  0  0  0  0
   49.2010   31.2470   41.1270 H   0  0  0  0  0  0  0  0  0  0  0  0
   47.3250   34.5910   38.1240 H   0  0  0  0  0  0  0  0  0  0  0  0
   46.5530   33.4110   45.6740 O   0  0  0  0  0  0  0  0  0  0  0  0
   45.5700   31.0840   44.8520 O   0  0  0  0  0  0  0  0  0  0  0  0
   46.1790   31.8110   46.0430 P   0  0  2  0  0  0  0  0  0  0  0  0
   44.9310   31.8770   47.2120 O   0  0  0  0  0  0  0  0  0  0  0  0
   44.0500   31.9060   46.7590 H   0  0  0  0  0  0  0  0  0  0  0  0
   47.4540   30.9780   46.7120 O   0  0  0  0  0  0  0  0  0  0  0  0
   46.9730   28.6850   46.7340 C   0  0  2  0  0  3  0  0  0  0  0  0
   47.7790   29.8000   46.0700 C   0  0  2  0  0  3  0  0  0  0  0  0
   49.1470   29.5840   46.2230 O   0  0  0  0  0  0  0  0  0  0  0  0
   49.4950   28.2790   45.8820 C   0  0  0  0  0  2  0  0  0  0  0  0
   48.9440   27.2600   46.8480 C   0  0  1  0  0  3  0  0  0  0  0  0
   47.8910   27.9650   47.6930 C   0  0  1  0  0  3  0  0  0  0  0  0
   46.5080   27.8330   45.7190 O   0  0  0  0  0  0  0  0  0  0  0  0
   46.7100   28.2130   44.8100 H   0  0  0  0  0  0  0  0  0  0  0  0
   48.3300   26.1960   46.1610 O   0  0  0  0  0  0  0  0  0  0  0  0
   47.7270   25.7790   46.8310 H   0  0  0  0  0  0  0  0  0  0  0  0
   48.5920   28.9390   48.4190 O   0  0  0  0  0  0  0  0  0  0  0  0
   48.3110   28.9680   49.3670 H   0  0  0  0  0  0  0  0  0  0  0  0
  1  6  1  0  0  0  0
  2  8  1  0  0  0  0
  2  1  1  0  0  0  0
  3  2  1  0  0  0  0
  3  4  1  0  0  0  0
  4 11  1  0  0  0  0
  4  5  1  0  0  0  0
  5 13  1  0  0  0  0
  5 14  1  0  0  0  0
  6 15  1  6  0  0  0
  6  5  1  0  0  0  0
  6 31  1  0  0  0  0
  7  2  1  0  0  0  0
  9  3  1  0  0  0  0
 10  3  1  0  0  0  0
 12  4  1  0  0  0  0
 16  1  1  0  0  0  0
 16 18  1  0  0  0  0
 17 16  1  0  0  0  0
 19 21  1  0  0  0  0
 19 16  1  0  0  0  0
 20 19  1  0  0  0  0
 22 23  1  0  0  0  0
 23 24  2  0  0  0  0
 23 29  1  0  0  0  0
 24 19  1  0  0  0  0
 25 24  1  0  0  0  0
 26 25  2  0  0  0  0
 27 26  1  0  0  0  0
 27 22  2  0  0  0  0
 28 22  1  0  0  0  0
 30 26  1  0  0  0  0
 31 33  1  0  0  0  0
 33 32  2  6  0  0  0
 33 36  1  0  0  0  0
 33 34  1  0  0  0  0
 35 34  1  0  0  0  0
 37 43  1  6  0  0  0
 37 42  1  0  0  0  0
 38 39  1  0  0  0  0
 38 36  1  1  0  0  0
 38 37  1  0  0  0  0
 40 39  1  0  0  0  0
 40 41  1  0  0  0  0
 41 45  1  6  0  0  0
 41 42  1  0  0  0  0
 42 47  1  1  0  0  0
 44 43  1  0  0  0  0
 45 46  1  0  0  0  0
 47 48  1  0  0  0  0
M  END
>  <minimizedAffinity>
-4.4458952

>  <minimizedRMSD>
1.71460545

$$$$
