
 OpenBabel03242522513D

 29 30  0  0  1  0  0  0  0  0999 V2000
   48.1250   32.0700   48.7950 O   0  0  0  0  0  0  0  0  0  0  0  0
   46.7890   29.8640   48.3480 O   0  0  0  0  0  0  0  0  0  0  0  0
   46.6320   31.3760   48.6300 P   0  0  1  0  0  0  0  0  0  0  0  0
   45.7310   31.4810   50.0450 O   0  0  0  0  0  0  0  0  0  0  0  0
   44.8430   31.9040   49.9270 H   0  0  0  0  0  0  0  0  0  0  0  0
   45.7940   32.0720   47.3440 O   0  0  0  0  0  0  0  0  0  0  0  0
   47.6370   31.3120   44.3060 C   0  0  0  0  0  0  0  0  0  0  0  0
   47.0090   31.1680   45.5550 C   0  0  0  0  0  0  0  0  0  0  0  0
   46.3950   32.2630   46.1180 C   0  0  0  0  0  0  0  0  0  0  0  0
   46.4310   33.4280   45.4320 N   0  0  0  0  0  0  0  0  0  0  0  0
   47.0280   33.5700   44.2440 C   0  0  0  0  0  0  0  0  0  0  0  0
   47.6380   32.4960   43.6760 N   0  0  0  0  0  0  0  0  0  0  0  0
   48.1450   30.5130   43.7820 H   0  0  0  0  0  0  0  0  0  0  0  0
   47.0950   30.1750   45.9140 H   0  0  0  0  0  0  0  0  0  0  0  0
   47.0370   34.5080   43.7260 H   0  0  0  0  0  0  0  0  0  0  0  0
   49.3160   31.5610   49.1870 C   0  0  0  0  0  0  0  0  0  0  0  0
   50.1570   32.4640   49.5300 O   0  0  0  0  0  0  0  0  0  0  0  0
   49.8490   29.3240   50.1040 C   0  0  2  0  0  3  0  0  0  0  0  0
   50.3930   30.6080   49.5150 C   0  0  2  0  0  3  0  0  0  0  0  0
   51.3670   31.1820   50.3210 O   0  0  0  0  0  0  0  0  0  0  0  0
   51.2490   30.9060   51.6630 C   0  0  0  0  0  2  0  0  0  0  0  0
   51.2520   29.4590   52.0360 C   0  0  2  0  0  3  0  0  0  0  0  0
   51.0560   28.6610   50.7590 C   0  0  1  0  0  3  0  0  0  0  0  0
   49.3520   28.4930   49.0720 O   0  0  0  0  0  0  0  0  0  0  0  0
   50.0620   27.8460   48.8190 H   0  0  0  0  0  0  0  0  0  0  0  0
   50.1170   29.1620   52.8240 O   0  0  0  0  0  0  0  0  0  0  0  0
   50.0110   29.7870   53.5720 H   0  0  0  0  0  0  0  0  0  0  0  0
   50.8450   27.3180   51.0250 O   0  0  0  0  0  0  0  0  0  0  0  0
   49.9830   27.0180   50.6820 H   0  0  0  0  0  0  0  0  0  0  0  0
  1 16  1  0  0  0  0
  3  2  2  6  0  0  0
  3  1  1  0  0  0  0
  3  4  1  0  0  0  0
  5  4  1  0  0  0  0
  6  3  1  0  0  0  0
  7  8  1  0  0  0  0
  8 14  1  0  0  0  0
  8  9  2  0  0  0  0
  9  6  1  0  0  0  0
 10  9  1  0  0  0  0
 11 10  2  0  0  0  0
 12 11  1  0  0  0  0
 12  7  2  0  0  0  0
 13  7  1  0  0  0  0
 15 11  1  0  0  0  0
 16 17  2  0  0  0  0
 18 24  1  6  0  0  0
 18 23  1  0  0  0  0
 19 16  1  1  0  0  0
 19 18  1  0  0  0  0
 19 20  1  0  0  0  0
 20 21  1  0  0  0  0
 21 22  1  0  0  0  0
 22 26  1  1  0  0  0
 23 28  1  1  0  0  0
 23 22  1  0  0  0  0
 25 24  1  0  0  0  0
 26 27  1  0  0  0  0
 29 28  1  0  0  0  0
M  END
>  <minimizedAffinity>
-5.07245636

>  <minimizedRMSD>
1.920591

$$$$
