
 OpenBabel03252508473D

 48 50  0  0  1  0  0  0  0  0999 V2000
   42.1720   31.9130   42.4920 N   0  0  0  0  0  0  0  0  0  0  0  0
   42.2080   32.4650   43.3930 H   0  0  0  0  0  0  0  0  0  0  0  0
   43.0430   32.5430   41.5540 C   0  0  0  0  0  0  0  0  0  0  0  0
   43.7010   31.8230   41.0100 H   0  0  0  0  0  0  0  0  0  0  0  0
   42.3840   33.0190   40.7770 H   0  0  0  0  0  0  0  0  0  0  0  0
   43.6680   34.9490   41.7930 C   0  0  0  0  0  0  0  0  0  0  0  0
   43.8920   33.6270   42.1190 C   0  0  0  0  0  0  0  0  0  0  0  0
   44.9290   33.3330   42.9870 C   0  0  0  0  0  0  0  0  0  0  0  0
   45.7060   34.3320   43.5030 C   0  0  0  0  0  0  0  0  0  0  0  0
   45.4910   35.6530   43.1840 C   0  0  0  0  0  0  0  0  0  0  0  0
   44.4490   35.9030   42.3170 C   0  0  0  0  0  0  0  0  0  0  0  0
   45.1060   32.2870   43.2450 H   0  0  0  0  0  0  0  0  0  0  0  0
   46.4950   34.0150   44.1730 H   0  0  0  0  0  0  0  0  0  0  0  0
   46.1200   36.4380   43.6030 H   0  0  0  0  0  0  0  0  0  0  0  0
   44.2250   36.9290   42.0230 H   0  0  0  0  0  0  0  0  0  0  0  0
   40.3360   35.8970   40.2810 C   0  0  0  0  0  0  0  0  0  0  0  0
   41.3310   35.6910   41.2530 C   0  0  0  0  0  0  0  0  0  0  0  0
   42.5610   35.2010   40.8740 C   0  0  0  0  0  0  0  0  0  0  0  0
   42.7430   34.9370   39.5480 N   0  0  0  0  0  0  0  0  0  0  0  0
   41.7760   35.1400   38.6190 C   0  0  0  0  0  0  0  0  0  0  0  0
   40.5830   35.6170   39.0000 N   0  0  0  0  0  0  0  0  0  0  0  0
   39.3710   36.2890   40.6330 H   0  0  0  0  0  0  0  0  0  0  0  0
   41.2020   35.8940   42.2990 H   0  0  0  0  0  0  0  0  0  0  0  0
   41.9760   34.9120   37.5710 H   0  0  0  0  0  0  0  0  0  0  0  0
   40.5240   31.9750   42.0120 S   0  0  0  0  0  0  0  0  0  0  0  0
   39.8280   33.1520   42.6320 O   0  0  0  0  0  0  0  0  0  0  0  0
   39.1020   33.0310   43.2680 H   0  0  0  0  0  0  0  0  0  0  0  0
   39.8170   30.7010   42.3470 O   0  0  0  0  0  0  0  0  0  0  0  0
   39.7270   30.4080   43.2750 H   0  0  0  0  0  0  0  0  0  0  0  0
   40.5210   32.1620   40.3420 O   0  0  0  0  0  0  0  0  0  0  0  0
   39.3620   31.5780   39.8360 C   0  0  0  0  0  0  0  0  0  0  0  0
   38.8070   32.4020   39.3410 H   0  0  0  0  0  0  0  0  0  0  0  0
   38.7270   31.1120   40.5980 H   0  0  0  0  0  0  0  0  0  0  0  0
   39.7590   30.5950   38.7430 C   0  0  0  0  0  0  0  0  0  0  0  0
   39.4520   31.0090   37.7710 H   0  0  0  0  0  0  0  0  0  0  0  0
   40.8630   30.4120   38.7750 H   0  0  0  0  0  0  0  0  0  0  0  0
   37.6010   29.3730   39.0030 C   0  0  2  0  0  3  0  0  0  0  0  0
   39.0840   29.2810   39.0570 C   0  0  2  0  0  3  0  0  0  0  0  0
   39.5840   28.8690   40.2870 O   0  0  0  0  0  0  0  0  0  0  0  0
   38.8910   27.8330   40.8620 C   0  0  0  0  0  2  0  0  0  0  0  0
   37.4850   28.2350   41.2370 C   0  0  1  0  0  3  0  0  0  0  0  0
   36.9090   29.2740   40.3390 C   0  0  2  0  0  3  0  0  0  0  0  0
   37.0610   28.3770   38.1510 O   0  0  0  0  0  0  0  0  0  0  0  0
   37.7520   28.0020   37.5680 H   0  0  0  0  0  0  0  0  0  0  0  0
   36.6310   27.1330   41.2940 O   0  0  0  0  0  0  0  0  0  0  0  0
   35.7090   27.4910   41.3510 H   0  0  0  0  0  0  0  0  0  0  0  0
   35.5690   28.9390   40.0350 O   0  0  0  0  0  0  0  0  0  0  0  0
   35.3020   29.6390   39.3570 H   0  0  0  0  0  0  0  0  0  0  0  0
  1  2  1  0  0  0  0
  3  7  1  0  0  0  0
  3  1  1  0  0  0  0
  4  3  1  0  0  0  0
  5  3  1  0  0  0  0
  6  7  2  0  0  0  0
  6 11  1  0  0  0  0
  7  8  1  0  0  0  0
  8 12  1  0  0  0  0
  8  9  2  0  0  0  0
  9 13  1  0  0  0  0
 10  9  1  0  0  0  0
 10 14  1  0  0  0  0
 11 10  2  0  0  0  0
 15 11  1  0  0  0  0
 16 22  1  0  0  0  0
 16 17  1  0  0  0  0
 17 23  1  0  0  0  0
 18 17  2  0  0  0  0
 18  6  1  0  0  0  0
 19 18  1  0  0  0  0
 20 21  1  0  0  0  0
 20 19  2  0  0  0  0
 21 16  2  0  0  0  0
 24 20  1  0  0  0  0
 25 28  1  0  0  0  0
 25  1  1  0  0  0  0
 25 26  1  0  0  0  0
 26 27  1  0  0  0  0
 28 29  1  0  0  0  0
 30 25  1  0  0  0  0
 31 30  1  0  0  0  0
 31 33  1  0  0  0  0
 32 31  1  0  0  0  0
 34 36  1  0  0  0  0
 34 31  1  0  0  0  0
 35 34  1  0  0  0  0
 37 43  1  6  0  0  0
 37 38  1  0  0  0  0
 37 42  1  0  0  0  0
 38 34  1  1  0  0  0
 38 39  1  0  0  0  0
 39 40  1  0  0  0  0
 40 41  1  0  0  0  0
 41 45  1  6  0  0  0
 42 47  1  6  0  0  0
 42 41  1  0  0  0  0
 44 43  1  0  0  0  0
 45 46  1  0  0  0  0
 48 47  1  0  0  0  0
M  END
>  <minimizedAffinity>
-5.83457851

>  <minimizedRMSD>
2.46898937

$$$$
