
 OpenBabel03252505283D

 27 28  0  0  1  0  0  0  0  0999 V2000
   46.9030   31.1550   48.5990 O   0  0  0  0  0  0  0  0  0  0  0  0
   46.0610   31.5040   47.3670 P   0  0  1  0  0  0  0  0  0  0  0  0
   44.4660   31.7900   47.7590 O   0  0  0  0  0  0  0  0  0  0  0  0
   44.4200   32.1000   48.6960 H   0  0  0  0  0  0  0  0  0  0  0  0
   46.7910   32.8570   46.6630 O   0  0  0  0  0  0  0  0  0  0  0  0
   44.6050   35.2020   45.1330 C   0  0  0  0  0  0  0  0  0  0  0  0
   45.0560   35.2980   43.7930 C   0  0  0  0  0  0  0  0  0  0  0  0
   46.1670   34.4990   43.4500 C   0  0  0  0  0  0  0  0  0  0  0  0
   46.7200   33.7070   44.4030 N   0  0  0  0  0  0  0  0  0  0  0  0
   46.2480   33.6550   45.6660 C   0  0  0  0  0  0  0  0  0  0  0  0
   45.1890   34.4050   46.0310 N   0  0  0  0  0  0  0  0  0  0  0  0
   43.7470   35.8140   45.4170 H   0  0  0  0  0  0  0  0  0  0  0  0
   44.5840   35.9440   43.0650 H   0  0  0  0  0  0  0  0  0  0  0  0
   46.5650   34.5220   42.4430 H   0  0  0  0  0  0  0  0  0  0  0  0
   46.1520   30.1520   46.3590 O   0  0  0  0  0  0  0  0  0  0  0  0
   45.5410   28.1200   47.4500 C   0  0  2  0  0  3  0  0  0  0  0  0
   45.0470   29.3380   46.6940 C   0  0  2  0  0  3  0  0  0  0  0  0
   44.4060   29.0440   45.5160 O   0  0  0  0  0  0  0  0  0  0  0  0
   43.3230   28.2040   45.6480 C   0  0  0  0  0  2  0  0  0  0  0  0
   43.5870   27.0210   46.5350 C   0  0  2  0  0  3  0  0  0  0  0  0
   45.1090   26.9030   46.6570 C   0  0  1  0  0  3  0  0  0  0  0  0
   44.9420   28.0020   48.7090 O   0  0  0  0  0  0  0  0  0  0  0  0
   44.1640   28.5910   48.8350 H   0  0  0  0  0  0  0  0  0  0  0  0
   43.0230   25.8410   46.1020 O   0  0  0  0  0  0  0  0  0  0  0  0
   43.0950   25.2080   46.8760 H   0  0  0  0  0  0  0  0  0  0  0  0
   45.6670   26.9970   45.3890 O   0  0  0  0  0  0  0  0  0  0  0  0
   46.5620   27.4230   45.4260 H   0  0  0  0  0  0  0  0  0  0  0  0
  2  3  1  0  0  0  0
  2  1  2  1  0  0  0
  3  4  1  0  0  0  0
  5  2  1  0  0  0  0
  6 12  1  0  0  0  0
  6 11  1  0  0  0  0
  7  6  2  0  0  0  0
  8  7  1  0  0  0  0
  8  9  2  0  0  0  0
  9 10  1  0  0  0  0
 10 11  2  0  0  0  0
 10  5  1  0  0  0  0
 13  7  1  0  0  0  0
 14  8  1  0  0  0  0
 15  2  1  0  0  0  0
 16 22  1  1  0  0  0
 17 15  1  6  0  0  0
 17 16  1  0  0  0  0
 18 19  1  0  0  0  0
 18 17  1  0  0  0  0
 19 20  1  0  0  0  0
 20 24  1  6  0  0  0
 20 21  1  0  0  0  0
 21 26  1  6  0  0  0
 21 16  1  0  0  0  0
 22 23  1  0  0  0  0
 24 25  1  0  0  0  0
 26 27  1  0  0  0  0
M  END
>  <minimizedAffinity>
-4.55594969

>  <minimizedRMSD>
2.35471678

$$$$
