
 OpenBabel03252505503D

 25 26  0  0  1  0  0  0  0  0999 V2000
   39.3130   30.1360   42.4650 O   0  0  0  0  0  0  0  0  0  0  0  0
   39.0010   26.7030   41.4840 C   0  0  0  0  0  0  0  0  0  0  0  0
   37.8890   26.2730   42.2230 C   0  0  0  0  0  0  0  0  0  0  0  0
   37.2660   27.1940   43.0530 C   0  0  0  0  0  0  0  0  0  0  0  0
   37.7630   28.4570   43.1070 N   0  0  0  0  0  0  0  0  0  0  0  0
   38.8290   28.8410   42.3890 C   0  0  0  0  0  0  0  0  0  0  0  0
   39.4550   27.9810   41.5780 N   0  0  0  0  0  0  0  0  0  0  0  0
   39.5240   26.0120   40.8160 H   0  0  0  0  0  0  0  0  0  0  0  0
   36.4140   26.8350   43.6080 H   0  0  0  0  0  0  0  0  0  0  0  0
   37.4840   24.8530   42.0380 C   0  0  0  0  0  0  0  0  0  0  0  0
   36.2800   24.6970   42.6880 F   0  0  0  0  0  0  0  0  0  0  0  0
   38.4640   24.0580   42.6170 F   0  0  0  0  0  0  0  0  0  0  0  0
   37.4140   24.6070   40.6800 F   0  0  0  0  0  0  0  0  0  0  0  0
   39.7460   32.0000   40.9990 C   0  0  1  0  0  3  0  0  0  0  0  0
   38.7140   31.2210   41.7900 C   0  0  1  0  0  3  0  0  0  0  0  0
   37.8390   30.6770   40.8580 O   0  0  0  0  0  0  0  0  0  0  0  0
   37.0170   31.6260   40.2760 C   0  0  0  0  0  2  0  0  0  0  0  0
   37.7610   32.7930   39.6990 C   0  0  2  0  0  3  0  0  0  0  0  0
   39.0260   33.1650   40.3800 C   0  0  1  0  0  3  0  0  0  0  0  0
   40.7650   32.4350   41.8290 O   0  0  0  0  0  0  0  0  0  0  0  0
   41.5470   32.6680   41.3070 H   0  0  0  0  0  0  0  0  0  0  0  0
   36.9020   33.8990   39.7850 O   0  0  0  0  0  0  0  0  0  0  0  0
   36.5750   34.2070   38.9240 H   0  0  0  0  0  0  0  0  0  0  0  0
   38.7680   34.0700   41.4260 O   0  0  0  0  0  0  0  0  0  0  0  0
   37.8110   34.0530   41.6640 H   0  0  0  0  0  0  0  0  0  0  0  0
  2  7  2  0  0  0  0
  2  3  1  0  0  0  0
  3  4  2  0  0  0  0
  4  5  1  0  0  0  0
  4  9  1  0  0  0  0
  6  1  1  0  0  0  0
  6  5  2  0  0  0  0
  7  6  1  0  0  0  0
  8  2  1  0  0  0  0
 10  3  1  0  0  0  0
 10 12  1  0  0  0  0
 10 11  1  0  0  0  0
 13 10  1  0  0  0  0
 14 15  1  0  0  0  0
 14 20  1  1  0  0  0
 15  1  1  6  0  0  0
 16 15  1  0  0  0  0
 17 16  1  0  0  0  0
 18 22  1  1  0  0  0
 18 17  1  0  0  0  0
 18 19  1  0  0  0  0
 19 14  1  0  0  0  0
 19 24  1  1  0  0  0
 21 20  1  0  0  0  0
 23 22  1  0  0  0  0
 24 25  1  0  0  0  0
M  END
>  <minimizedAffinity>
-5.93153381

$$$$

 OpenBabel03252505503D

 25 26  0  0  1  0  0  0  0  0999 V2000
   36.0250   29.6350   39.1900 O   0  0  0  0  0  0  0  0  0  0  0  0
   36.8050   27.3180   41.8110 C   0  0  0  0  0  0  0  0  0  0  0  0
   37.1590   26.1610   41.1010 C   0  0  0  0  0  0  0  0  0  0  0  0
   37.1200   26.2120   39.7160 C   0  0  0  0  0  0  0  0  0  0  0  0
   36.7410   27.3740   39.1200 N   0  0  0  0  0  0  0  0  0  0  0  0
   36.4070   28.4660   39.8240 C   0  0  0  0  0  0  0  0  0  0  0  0
   36.4330   28.4540   41.1630 N   0  0  0  0  0  0  0  0  0  0  0  0
   36.8210   27.3250   42.9050 H   0  0  0  0  0  0  0  0  0  0  0  0
   37.3980   25.3090   39.1980 H   0  0  0  0  0  0  0  0  0  0  0  0
   37.5480   24.9810   41.9190 C   0  0  0  0  0  0  0  0  0  0  0  0
   38.0320   24.0340   41.0430 F   0  0  0  0  0  0  0  0  0  0  0  0
   36.4080   24.5200   42.5630 F   0  0  0  0  0  0  0  0  0  0  0  0
   38.4810   25.3990   42.8490 F   0  0  0  0  0  0  0  0  0  0  0  0
   37.0550   31.3100   40.5860 C   0  0  1  0  0  3  0  0  0  0  0  0
   36.8240   30.7990   39.1780 C   0  0  1  0  0  3  0  0  0  0  0  0
   38.0690   30.4220   38.6920 O   0  0  0  0  0  0  0  0  0  0  0  0
   38.8860   31.5040   38.4140 C   0  0  0  0  0  2  0  0  0  0  0  0
   39.0230   32.4630   39.5590 C   0  0  2  0  0  3  0  0  0  0  0  0
   37.8500   32.5790   40.4590 C   0  0  1  0  0  3  0  0  0  0  0  0
   35.8460   31.5460   41.2190 O   0  0  0  0  0  0  0  0  0  0  0  0
   35.9740   31.5880   42.1790 H   0  0  0  0  0  0  0  0  0  0  0  0
   39.2430   33.7290   38.9960 O   0  0  0  0  0  0  0  0  0  0  0  0
   40.1410   34.0690   39.1400 H   0  0  0  0  0  0  0  0  0  0  0  0
   36.9590   33.5550   39.9750 O   0  0  0  0  0  0  0  0  0  0  0  0
   37.1500   33.7520   39.0280 H   0  0  0  0  0  0  0  0  0  0  0  0
  1  6  1  0  0  0  0
  2  8  1  0  0  0  0
  3  2  2  0  0  0  0
  3 10  1  0  0  0  0
  4  3  1  0  0  0  0
  5  4  2  0  0  0  0
  5  6  1  0  0  0  0
  6  7  2  0  0  0  0
  7  2  1  0  0  0  0
  9  4  1  0  0  0  0
 10 12  1  0  0  0  0
 10 13  1  0  0  0  0
 11 10  1  0  0  0  0
 14 20  1  6  0  0  0
 15  1  1  1  0  0  0
 15 14  1  0  0  0  0
 16 15  1  0  0  0  0
 17 16  1  0  0  0  0
 17 18  1  0  0  0  0
 18 22  1  6  0  0  0
 18 19  1  0  0  0  0
 19 24  1  6  0  0  0
 19 14  1  0  0  0  0
 20 21  1  0  0  0  0
 22 23  1  0  0  0  0
 25 24  1  0  0  0  0
M  END
>  <minimizedAffinity>
-5.83673573

$$$$

 OpenBabel03252505503D

 25 26  0  0  1  0  0  0  0  0999 V2000
   37.9990   30.1600   41.3640 O   0  0  0  0  0  0  0  0  0  0  0  0
   37.1450   26.7340   40.7540 C   0  0  0  0  0  0  0  0  0  0  0  0
   37.7650   26.0680   41.8220 C   0  0  0  0  0  0  0  0  0  0  0  0
   38.4730   26.8320   42.7390 C   0  0  0  0  0  0  0  0  0  0  0  0
   38.5280   28.1770   42.5560 N   0  0  0  0  0  0  0  0  0  0  0  0
   37.9250   28.7870   41.5250 C   0  0  0  0  0  0  0  0  0  0  0  0
   37.2340   28.0830   40.6200 N   0  0  0  0  0  0  0  0  0  0  0  0
   36.5760   26.1730   40.0060 H   0  0  0  0  0  0  0  0  0  0  0  0
   38.9370   26.2930   43.5490 H   0  0  0  0  0  0  0  0  0  0  0  0
   37.5980   24.5900   41.8630 C   0  0  0  0  0  0  0  0  0  0  0  0
   36.2800   24.3500   42.1830 F   0  0  0  0  0  0  0  0  0  0  0  0
   38.4420   24.0980   42.8490 F   0  0  0  0  0  0  0  0  0  0  0  0
   37.9660   24.0880   40.6300 F   0  0  0  0  0  0  0  0  0  0  0  0
   38.2340   32.2790   40.2370 C   0  0  1  0  0  3  0  0  0  0  0  0
   38.3770   30.7720   40.1490 C   0  0  1  0  0  3  0  0  0  0  0  0
   39.7320   30.5190   39.9800 O   0  0  0  0  0  0  0  0  0  0  0  0
   40.1890   30.8690   38.7210 C   0  0  0  0  0  2  0  0  0  0  0  0
   39.8510   32.2750   38.3280 C   0  0  2  0  0  3  0  0  0  0  0  0
   38.5890   32.8250   38.8830 C   0  0  1  0  0  3  0  0  0  0  0  0
   36.9380   32.6220   40.5830 O   0  0  0  0  0  0  0  0  0  0  0  0
   36.9110   33.5310   40.9180 H   0  0  0  0  0  0  0  0  0  0  0  0
   39.7290   32.2830   36.9300 O   0  0  0  0  0  0  0  0  0  0  0  0
   40.4410   32.7630   36.4790 H   0  0  0  0  0  0  0  0  0  0  0  0
   37.5090   32.5140   38.0360 O   0  0  0  0  0  0  0  0  0  0  0  0
   37.7570   31.7840   37.4210 H   0  0  0  0  0  0  0  0  0  0  0  0
  1  6  1  0  0  0  0
  2  3  1  0  0  0  0
  3 10  1  0  0  0  0
  3  4  2  0  0  0  0
  4  9  1  0  0  0  0
  5  4  1  0  0  0  0
  6  5  2  0  0  0  0
  7  2  2  0  0  0  0
  7  6  1  0  0  0  0
  8  2  1  0  0  0  0
 10 11  1  0  0  0  0
 10 12  1  0  0  0  0
 13 10  1  0  0  0  0
 14 20  1  6  0  0  0
 15 14  1  0  0  0  0
 15  1  1  1  0  0  0
 16 15  1  0  0  0  0
 17 16  1  0  0  0  0
 18 22  1  6  0  0  0
 18 17  1  0  0  0  0
 18 19  1  0  0  0  0
 19 24  1  6  0  0  0
 19 14  1  0  0  0  0
 20 21  1  0  0  0  0
 23 22  1  0  0  0  0
 25 24  1  0  0  0  0
M  END
>  <minimizedAffinity>
-5.59319878

$$$$

 OpenBabel03252505503D

 25 26  0  0  1  0  0  0  0  0999 V2000
   37.6260   29.8170   42.2660 O   0  0  0  0  0  0  0  0  0  0  0  0
   37.4470   26.2710   41.7820 C   0  0  0  0  0  0  0  0  0  0  0  0
   38.5940   25.8120   42.4460 C   0  0  0  0  0  0  0  0  0  0  0  0
   39.4120   26.7540   43.0540 C   0  0  0  0  0  0  0  0  0  0  0  0
   39.0610   28.0640   42.9750 N   0  0  0  0  0  0  0  0  0  0  0  0
   37.9570   28.4750   42.3320 C   0  0  0  0  0  0  0  0  0  0  0  0
   37.1450   27.5950   41.7340 N   0  0  0  0  0  0  0  0  0  0  0  0
   36.7720   25.5650   41.2880 H   0  0  0  0  0  0  0  0  0  0  0  0
   40.2850   26.3720   43.5580 H   0  0  0  0  0  0  0  0  0  0  0  0
   38.8200   24.3420   42.4320 C   0  0  0  0  0  0  0  0  0  0  0  0
   39.5110   24.0580   41.2750 F   0  0  0  0  0  0  0  0  0  0  0  0
   37.5760   23.7250   42.4280 F   0  0  0  0  0  0  0  0  0  0  0  0
   39.5100   24.0080   43.5820 F   0  0  0  0  0  0  0  0  0  0  0  0
   36.8030   31.5770   40.8380 C   0  0  1  0  0  3  0  0  0  0  0  0
   37.9460   30.6340   41.1610 C   0  0  1  0  0  3  0  0  0  0  0  0
   39.0120   31.4340   41.5520 O   0  0  0  0  0  0  0  0  0  0  0  0
   39.5760   32.1300   40.4960 C   0  0  0  0  0  2  0  0  0  0  0  0
   38.5820   32.9130   39.6920 C   0  0  2  0  0  3  0  0  0  0  0  0
   37.2120   32.3470   39.6140 C   0  0  1  0  0  3  0  0  0  0  0  0
   35.6390   30.8640   40.6060 O   0  0  0  0  0  0  0  0  0  0  0  0
   34.8690   31.4460   40.6890 H   0  0  0  0  0  0  0  0  0  0  0  0
   39.0830   32.9720   38.3830 O   0  0  0  0  0  0  0  0  0  0  0  0
   39.3780   33.8580   38.1190 H   0  0  0  0  0  0  0  0  0  0  0  0
   37.1170   31.4500   38.5340 O   0  0  0  0  0  0  0  0  0  0  0  0
   38.0170   31.1770   38.2360 H   0  0  0  0  0  0  0  0  0  0  0  0
  1  6  1  0  0  0  0
  2  3  1  0  0  0  0
  3  4  2  0  0  0  0
  4  9  1  0  0  0  0
  5  4  1  0  0  0  0
  6  5  2  0  0  0  0
  7  2  2  0  0  0  0
  7  6  1  0  0  0  0
  8  2  1  0  0  0  0
 10  3  1  0  0  0  0
 10 13  1  0  0  0  0
 11 10  1  0  0  0  0
 12 10  1  0  0  0  0
 14 20  1  6  0  0  0
 14 15  1  0  0  0  0
 15 16  1  0  0  0  0
 15  1  1  1  0  0  0
 17 16  1  0  0  0  0
 18 22  1  6  0  0  0
 18 17  1  0  0  0  0
 19 24  1  6  0  0  0
 19 18  1  0  0  0  0
 19 14  1  0  0  0  0
 20 21  1  0  0  0  0
 23 22  1  0  0  0  0
 25 24  1  0  0  0  0
M  END
>  <minimizedAffinity>
-5.51436663

$$$$

 OpenBabel03252505503D

 25 26  0  0  1  0  0  0  0  0999 V2000
   40.3700   32.1370   41.2350 O   0  0  0  0  0  0  0  0  0  0  0  0
   37.5830   29.9350   40.7610 C   0  0  0  0  0  0  0  0  0  0  0  0
   37.6170   29.1450   41.9190 C   0  0  0  0  0  0  0  0  0  0  0  0
   38.6160   29.3970   42.8480 C   0  0  0  0  0  0  0  0  0  0  0  0
   39.5050   30.3910   42.5890 N   0  0  0  0  0  0  0  0  0  0  0  0
   39.4500   31.1320   41.4720 C   0  0  0  0  0  0  0  0  0  0  0  0
   38.5000   30.9170   40.5530 N   0  0  0  0  0  0  0  0  0  0  0  0
   36.8140   29.7730   40.0000 H   0  0  0  0  0  0  0  0  0  0  0  0
   38.6160   28.7750   43.7290 H   0  0  0  0  0  0  0  0  0  0  0  0
   36.5620   28.1020   42.0350 C   0  0  0  0  0  0  0  0  0  0  0  0
   36.3680   27.8840   43.3820 F   0  0  0  0  0  0  0  0  0  0  0  0
   37.0330   26.9550   41.4130 F   0  0  0  0  0  0  0  0  0  0  0  0
   35.4350   28.5660   41.3840 F   0  0  0  0  0  0  0  0  0  0  0  0
   40.7410   33.6480   39.3920 C   0  0  1  0  0  3  0  0  0  0  0  0
   41.0380   32.2920   40.0010 C   0  0  1  0  0  3  0  0  0  0  0  0
   42.3990   32.2810   40.2800 O   0  0  0  0  0  0  0  0  0  0  0  0
   43.1800   32.2010   39.1400 C   0  0  0  0  0  2  0  0  0  0  0  0
   42.8500   33.2390   38.1100 C   0  0  2  0  0  3  0  0  0  0  0  0
   41.4350   33.6850   38.0600 C   0  0  1  0  0  3  0  0  0  0  0  0
   39.3750   33.8210   39.2410 O   0  0  0  0  0  0  0  0  0  0  0  0
   39.1670   34.7610   39.1340 H   0  0  0  0  0  0  0  0  0  0  0  0
   43.1530   32.6760   36.8620 O   0  0  0  0  0  0  0  0  0  0  0  0
   43.9220   33.0810   36.4280 H   0  0  0  0  0  0  0  0  0  0  0  0
   40.6920   32.8520   37.2040 O   0  0  0  0  0  0  0  0  0  0  0  0
   41.1780   32.0090   37.0430 H   0  0  0  0  0  0  0  0  0  0  0  0
  1  6  1  0  0  0  0
  2  3  1  0  0  0  0
  3 10  1  0  0  0  0
  3  4  2  0  0  0  0
  4  9  1  0  0  0  0
  5  4  1  0  0  0  0
  6  5  2  0  0  0  0
  7  2  2  0  0  0  0
  7  6  1  0  0  0  0
  8  2  1  0  0  0  0
 10 11  1  0  0  0  0
 12 10  1  0  0  0  0
 13 10  1  0  0  0  0
 14 20  1  6  0  0  0
 14 15  1  0  0  0  0
 15 16  1  0  0  0  0
 15  1  1  1  0  0  0
 17 16  1  0  0  0  0
 18 22  1  6  0  0  0
 18 17  1  0  0  0  0
 19 24  1  6  0  0  0
 19 18  1  0  0  0  0
 19 14  1  0  0  0  0
 21 20  1  0  0  0  0
 23 22  1  0  0  0  0
 25 24  1  0  0  0  0
M  END
>  <minimizedAffinity>
-5.38873196

$$$$

 OpenBabel03252505503D

 25 26  0  0  1  0  0  0  0  0999 V2000
   37.4300   28.4140   42.8990 O   0  0  0  0  0  0  0  0  0  0  0  0
   36.7640   31.2310   40.7870 C   0  0  0  0  0  0  0  0  0  0  0  0
   38.0190   31.8520   40.7000 C   0  0  0  0  0  0  0  0  0  0  0  0
   39.0780   31.2720   41.3820 C   0  0  0  0  0  0  0  0  0  0  0  0
   38.8470   30.1390   42.0960 N   0  0  0  0  0  0  0  0  0  0  0  0
   37.6350   29.5670   42.1630 C   0  0  0  0  0  0  0  0  0  0  0  0
   36.5900   30.0970   41.5180 N   0  0  0  0  0  0  0  0  0  0  0  0
   35.8990   31.6520   40.2660 H   0  0  0  0  0  0  0  0  0  0  0  0
   40.0300   31.7710   41.2950 H   0  0  0  0  0  0  0  0  0  0  0  0
   38.0860   33.0850   39.8710 C   0  0  0  0  0  0  0  0  0  0  0  0
   38.3820   34.1220   40.7280 F   0  0  0  0  0  0  0  0  0  0  0  0
   36.8400   33.2690   39.2860 F   0  0  0  0  0  0  0  0  0  0  0  0
   39.0430   32.8870   38.8940 F   0  0  0  0  0  0  0  0  0  0  0  0
   39.0400   26.6950   43.4190 C   0  0  1  0  0  3  0  0  0  0  0  0
   37.9220   27.1510   42.5030 C   0  0  1  0  0  3  0  0  0  0  0  0
   36.8830   26.2460   42.6770 O   0  0  0  0  0  0  0  0  0  0  0  0
   37.1500   25.0080   42.1190 C   0  0  0  0  0  2  0  0  0  0  0  0
   38.4570   24.4190   42.5600 C   0  0  2  0  0  3  0  0  0  0  0  0
   39.5370   25.3860   42.8750 C   0  0  1  0  0  3  0  0  0  0  0  0
   40.0560   27.6350   43.4470 O   0  0  0  0  0  0  0  0  0  0  0  0
   40.6160   27.5000   44.2260 H   0  0  0  0  0  0  0  0  0  0  0  0
   38.9110   23.6160   41.5040 O   0  0  0  0  0  0  0  0  0  0  0  0
   38.8860   22.6650   41.6980 H   0  0  0  0  0  0  0  0  0  0  0  0
   40.2690   25.6950   41.7120 O   0  0  0  0  0  0  0  0  0  0  0  0
   39.7580   25.4360   40.9100 H   0  0  0  0  0  0  0  0  0  0  0  0
  2  7  1  0  0  0  0
  3  2  2  0  0  0  0
  3  4  1  0  0  0  0
  4  5  2  0  0  0  0
  5  6  1  0  0  0  0
  6  1  1  0  0  0  0
  7  6  2  0  0  0  0
  8  2  1  0  0  0  0
  9  4  1  0  0  0  0
 10  3  1  0  0  0  0
 10 11  1  0  0  0  0
 12 10  1  0  0  0  0
 13 10  1  0  0  0  0
 14 20  1  6  0  0  0
 15 16  1  0  0  0  0
 15  1  1  1  0  0  0
 15 14  1  0  0  0  0
 17 18  1  0  0  0  0
 17 16  1  0  0  0  0
 18 22  1  6  0  0  0
 18 19  1  0  0  0  0
 19 24  1  6  0  0  0
 19 14  1  0  0  0  0
 20 21  1  0  0  0  0
 22 23  1  0  0  0  0
 25 24  1  0  0  0  0
M  END
>  <minimizedAffinity>
-5.30105639

$$$$

 OpenBabel03252505503D

 25 26  0  0  1  0  0  0  0  0999 V2000
   37.6080   29.0570   41.9220 O   0  0  0  0  0  0  0  0  0  0  0  0
   37.1760   25.5030   42.0550 C   0  0  0  0  0  0  0  0  0  0  0  0
   36.8970   25.1770   40.7190 C   0  0  0  0  0  0  0  0  0  0  0  0
   36.8660   26.2100   39.7930 C   0  0  0  0  0  0  0  0  0  0  0  0
   37.1050   27.4760   40.2260 N   0  0  0  0  0  0  0  0  0  0  0  0
   37.3690   27.7580   41.5100 C   0  0  0  0  0  0  0  0  0  0  0  0
   37.4070   26.7880   42.4320 N   0  0  0  0  0  0  0  0  0  0  0  0
   37.2110   24.7210   42.8200 H   0  0  0  0  0  0  0  0  0  0  0  0
   36.6500   25.9300   38.7750 H   0  0  0  0  0  0  0  0  0  0  0  0
   36.6610   23.7380   40.4280 C   0  0  0  0  0  0  0  0  0  0  0  0
   36.9330   23.5550   39.0900 F   0  0  0  0  0  0  0  0  0  0  0  0
   35.3280   23.4650   40.7020 F   0  0  0  0  0  0  0  0  0  0  0  0
   37.4770   22.9970   41.2620 F   0  0  0  0  0  0  0  0  0  0  0  0
   36.8920   31.2500   41.2160 C   0  0  1  0  0  3  0  0  0  0  0  0
   37.8750   30.1110   41.0210 C   0  0  1  0  0  3  0  0  0  0  0  0
   39.1250   30.6150   41.3560 O   0  0  0  0  0  0  0  0  0  0  0  0
   39.6130   31.5070   40.4170 C   0  0  0  0  0  2  0  0  0  0  0  0
   38.6580   32.6140   40.0850 C   0  0  2  0  0  3  0  0  0  0  0  0
   37.2150   32.2820   40.1730 C   0  0  1  0  0  3  0  0  0  0  0  0
   35.5920   30.7960   41.0760 O   0  0  0  0  0  0  0  0  0  0  0  0
   34.9730   31.4250   41.4750 H   0  0  0  0  0  0  0  0  0  0  0  0
   38.9210   32.9850   38.7580 O   0  0  0  0  0  0  0  0  0  0  0  0
   39.3270   33.8630   38.6720 H   0  0  0  0  0  0  0  0  0  0  0  0
   36.7610   31.7580   38.9470 O   0  0  0  0  0  0  0  0  0  0  0  0
   37.5250   31.4680   38.3970 H   0  0  0  0  0  0  0  0  0  0  0  0
  2  7  1  0  0  0  0
  2  8  1  0  0  0  0
  3  2  2  0  0  0  0
  4  5  2  0  0  0  0
  4  3  1  0  0  0  0
  5  6  1  0  0  0  0
  6  1  1  0  0  0  0
  6  7  2  0  0  0  0
  9  4  1  0  0  0  0
 10 12  1  0  0  0  0
 10  3  1  0  0  0  0
 10 13  1  0  0  0  0
 11 10  1  0  0  0  0
 14 20  1  6  0  0  0
 15 14  1  0  0  0  0
 15 16  1  0  0  0  0
 15  1  1  1  0  0  0
 17 16  1  0  0  0  0
 18 22  1  6  0  0  0
 18 19  1  0  0  0  0
 18 17  1  0  0  0  0
 19 24  1  6  0  0  0
 19 14  1  0  0  0  0
 20 21  1  0  0  0  0
 23 22  1  0  0  0  0
 25 24  1  0  0  0  0
M  END
>  <minimizedAffinity>
-5.23933983

$$$$

 OpenBabel03252505503D

 25 26  0  0  1  0  0  0  0  0999 V2000
   39.5660   29.0370   39.7000 O   0  0  0  0  0  0  0  0  0  0  0  0
   37.5190   26.0980   39.7830 C   0  0  0  0  0  0  0  0  0  0  0  0
   37.7000   25.6350   41.0950 C   0  0  0  0  0  0  0  0  0  0  0  0
   38.5370   26.3610   41.9290 C   0  0  0  0  0  0  0  0  0  0  0  0
   39.1340   27.4780   41.4350 N   0  0  0  0  0  0  0  0  0  0  0  0
   38.9430   27.8970   40.1750 C   0  0  0  0  0  0  0  0  0  0  0  0
   38.1430   27.2220   39.3410 N   0  0  0  0  0  0  0  0  0  0  0  0
   36.8680   25.5570   39.0890 H   0  0  0  0  0  0  0  0  0  0  0  0
   38.6560   25.9820   42.9310 H   0  0  0  0  0  0  0  0  0  0  0  0
   36.9650   24.3940   41.4630 C   0  0  0  0  0  0  0  0  0  0  0  0
   37.8880   23.3720   41.4600 F   0  0  0  0  0  0  0  0  0  0  0  0
   35.9890   24.1810   40.4990 F   0  0  0  0  0  0  0  0  0  0  0  0
   36.3760   24.6020   42.6960 F   0  0  0  0  0  0  0  0  0  0  0  0
   38.4440   30.6560   38.3080 C   0  0  1  0  0  3  0  0  0  0  0  0
   38.9460   30.3060   39.6950 C   0  0  1  0  0  3  0  0  0  0  0  0
   37.8210   30.2030   40.5020 O   0  0  0  0  0  0  0  0  0  0  0  0
   37.2380   31.4300   40.7690 C   0  0  0  0  0  2  0  0  0  0  0  0
   36.9470   32.2370   39.5400 C   0  0  2  0  0  3  0  0  0  0  0  0
   37.8690   32.0420   38.3940 C   0  0  1  0  0  3  0  0  0  0  0  0
   39.4800   30.6080   37.3920 O   0  0  0  0  0  0  0  0  0  0  0  0
   39.1290   30.5410   36.4910 H   0  0  0  0  0  0  0  0  0  0  0  0
   37.0320   33.5860   39.9170 O   0  0  0  0  0  0  0  0  0  0  0  0
   36.1760   34.0440   39.9220 H   0  0  0  0  0  0  0  0  0  0  0  0
   38.9670   32.9180   38.4980 O   0  0  0  0  0  0  0  0  0  0  0  0
   39.0390   33.2670   39.4170 H   0  0  0  0  0  0  0  0  0  0  0  0
  1  6  1  0  0  0  0
  2  3  1  0  0  0  0
  3 10  1  0  0  0  0
  3  4  2  0  0  0  0
  4  9  1  0  0  0  0
  5  4  1  0  0  0  0
  6  5  2  0  0  0  0
  7  2  2  0  0  0  0
  7  6  1  0  0  0  0
  8  2  1  0  0  0  0
 10 13  1  0  0  0  0
 11 10  1  0  0  0  0
 12 10  1  0  0  0  0
 14 20  1  6  0  0  0
 14 19  1  0  0  0  0
 14 15  1  0  0  0  0
 15  1  1  6  0  0  0
 15 16  1  0  0  0  0
 16 17  1  0  0  0  0
 18 22  1  1  0  0  0
 18 17  1  0  0  0  0
 19 24  1  1  0  0  0
 19 18  1  0  0  0  0
 21 20  1  0  0  0  0
 22 23  1  0  0  0  0
 24 25  1  0  0  0  0
M  END
>  <minimizedAffinity>
-5.21366692

$$$$

 OpenBabel03252505503D

 25 26  0  0  1  0  0  0  0  0999 V2000
   39.1680   31.7710   37.8280 O   0  0  0  0  0  0  0  0  0  0  0  0
   38.1240   29.0700   39.9390 C   0  0  0  0  0  0  0  0  0  0  0  0
   38.1940   29.6380   41.2200 C   0  0  0  0  0  0  0  0  0  0  0  0
   38.6060   30.9590   41.3220 C   0  0  0  0  0  0  0  0  0  0  0  0
   38.9180   31.6310   40.1830 N   0  0  0  0  0  0  0  0  0  0  0  0
   38.8420   31.0620   38.9700 C   0  0  0  0  0  0  0  0  0  0  0  0
   38.4500   29.7900   38.8330 N   0  0  0  0  0  0  0  0  0  0  0  0
   37.8050   28.0320   39.8100 H   0  0  0  0  0  0  0  0  0  0  0  0
   38.6490   31.3690   42.3190 H   0  0  0  0  0  0  0  0  0  0  0  0
   37.8140   28.7540   42.3540 C   0  0  0  0  0  0  0  0  0  0  0  0
   38.5390   27.5910   42.2100 F   0  0  0  0  0  0  0  0  0  0  0  0
   36.4520   28.5020   42.2530 F   0  0  0  0  0  0  0  0  0  0  0  0
   38.0840   29.4300   43.5280 F   0  0  0  0  0  0  0  0  0  0  0  0
   41.2250   32.8710   38.4410 C   0  0  1  0  0  3  0  0  0  0  0  0
   40.5000   32.0090   37.4250 C   0  0  1  0  0  3  0  0  0  0  0  0
   41.1440   30.7790   37.4290 O   0  0  0  0  0  0  0  0  0  0  0  0
   42.3960   30.8260   36.8410 C   0  0  0  0  0  2  0  0  0  0  0  0
   43.2820   31.8990   37.4000 C   0  0  2  0  0  3  0  0  0  0  0  0
   42.6000   33.1230   37.8890 C   0  0  1  0  0  3  0  0  0  0  0  0
   40.5460   34.0610   38.6360 O   0  0  0  0  0  0  0  0  0  0  0  0
   40.8270   34.4740   39.4670 H   0  0  0  0  0  0  0  0  0  0  0  0
   44.1420   32.2890   36.3630 O   0  0  0  0  0  0  0  0  0  0  0  0
   45.0660   32.0250   36.5020 H   0  0  0  0  0  0  0  0  0  0  0  0
   42.4400   34.0450   36.8380 O   0  0  0  0  0  0  0  0  0  0  0  0
   42.5540   33.5940   35.9690 H   0  0  0  0  0  0  0  0  0  0  0  0
  1  6  1  0  0  0  0
  2  3  1  0  0  0  0
  3  4  2  0  0  0  0
  3 10  1  0  0  0  0
  4  9  1  0  0  0  0
  5  4  1  0  0  0  0
  6  5  2  0  0  0  0
  7  6  1  0  0  0  0
  7  2  2  0  0  0  0
  8  2  1  0  0  0  0
 10 13  1  0  0  0  0
 11 10  1  0  0  0  0
 12 10  1  0  0  0  0
 14 20  1  6  0  0  0
 15 16  1  0  0  0  0
 15  1  1  1  0  0  0
 15 14  1  0  0  0  0
 17 18  1  0  0  0  0
 17 16  1  0  0  0  0
 18 22  1  6  0  0  0
 18 19  1  0  0  0  0
 19 24  1  6  0  0  0
 19 14  1  0  0  0  0
 20 21  1  0  0  0  0
 22 23  1  0  0  0  0
 25 24  1  0  0  0  0
M  END
>  <minimizedAffinity>
-5.18148422

$$$$
