
 OpenBabel03252504273D

 25 26  0  0  1  0  0  0  0  0999 V2000
   41.9600   34.1880   40.5800 O   0  0  0  0  0  0  0  0  0  0  0  0
   39.6030   34.2140   41.0930 C   0  0  1  0  0  0  0  0  0  0  0  0
   40.7670   34.8010   40.3400 C   0  0  2  0  0  0  0  0  0  0  0  0
   40.4140   34.9360   39.0050 O   0  0  0  0  0  0  0  0  0  0  0  0
   40.3030   33.6560   38.4640 C   0  0  0  0  0  0  0  0  0  0  0  0
   39.1270   32.8960   39.0410 C   0  0  1  0  0  0  0  0  0  0  0  0
   39.2680   32.8500   40.5260 C   0  0  2  0  0  0  0  0  0  0  0  0
   39.8520   34.0260   42.4320 O   0  0  0  0  0  0  0  0  0  0  0  0
   39.0760   34.1780   43.0300 H   0  0  0  0  0  0  0  0  0  0  0  0
   37.9140   33.3850   38.5980 O   0  0  0  0  0  0  0  0  0  0  0  0
   37.6010   32.9520   37.7610 H   0  0  0  0  0  0  0  0  0  0  0  0
   38.0690   32.4540   41.1350 O   0  0  0  0  0  0  0  0  0  0  0  0
   37.4910   33.2780   41.1750 H   0  0  0  0  0  0  0  0  0  0  0  0
   43.0700   34.9580   40.2200 C   0  0  0  0  0  0  0  0  0  0  0  0
   43.4820   34.4840   39.3020 H   0  0  0  0  0  0  0  0  0  0  0  0
   42.7570   36.0100   40.0460 H   0  0  0  0  0  0  0  0  0  0  0  0
   43.8720   35.4630   42.4470 C   0  0  0  0  0  0  0  0  0  0  0  0
   44.1530   34.9020   41.2100 C   0  0  0  0  0  0  0  0  0  0  0  0
   45.4140   34.3530   41.0400 C   0  0  0  0  0  0  0  0  0  0  0  0
   46.2860   34.3910   42.0620 N   0  0  0  0  0  0  0  0  0  0  0  0
   45.9730   34.9500   43.2590 C   0  0  0  0  0  0  0  0  0  0  0  0
   44.7420   35.5090   43.4900 N   0  0  0  0  0  0  0  0  0  0  0  0
   42.9200   35.9200   42.6930 H   0  0  0  0  0  0  0  0  0  0  0  0
   45.6020   33.9270   40.0730 H   0  0  0  0  0  0  0  0  0  0  0  0
   46.7350   34.9380   44.0310 H   0  0  0  0  0  0  0  0  0  0  0  0
  2  8  1  1  0  0  0
  3  1  1  6  0  0  0
  3  2  1  0  0  0  0
  4  3  1  0  0  0  0
  5  4  1  0  0  0  0
  5  6  1  0  0  0  0
  6 10  1  1  0  0  0
  6  7  1  0  0  0  0
  7  2  1  0  0  0  0
  7 12  1  1  0  0  0
  8  9  1  0  0  0  0
 11 10  1  0  0  0  0
 12 13  1  0  0  0  0
 14  1  1  0  0  0  0
 14 18  1  0  0  0  0
 15 14  1  0  0  0  0
 16 14  1  0  0  0  0
 17 23  1  0  0  0  0
 17 22  1  0  0  0  0
 18 17  2  0  0  0  0
 19 18  1  0  0  0  0
 19 20  2  0  0  0  0
 20 21  1  0  0  0  0
 21 22  2  0  0  0  0
 21 25  1  0  0  0  0
 24 19  1  0  0  0  0
M  END
>  <minimizedAffinity>
-5.16286087

>  <minimizedRMSD>
3.326689

$$$$
