
 OpenBabel03252504583D

 40 42  0  0  1  0  0  0  0  0999 V2000
   47.8490   33.9350   41.9730 N   0  0  0  0  0  0  0  0  0  0  0  0
   47.8470   34.9220   40.9620 C   0  0  0  0  0  0  0  0  0  0  0  0
   49.0520   35.7210   41.2900 C   0  0  0  0  0  0  0  0  0  0  0  0
   49.7350   35.0900   42.4990 C   0  0  0  0  0  0  0  0  0  0  0  0
   49.1340   33.6780   42.4810 C   0  0  2  0  0  0  0  0  0  0  0  0
   47.2960   35.2370   40.1160 H   0  0  0  0  0  0  0  0  0  0  0  0
   49.4730   36.5920   40.8060 H   0  0  0  0  0  0  0  0  0  0  0  0
   50.8010   35.0670   42.2700 H   0  0  0  0  0  0  0  0  0  0  0  0
   49.4500   35.6200   43.4250 H   0  0  0  0  0  0  0  0  0  0  0  0
   49.1200   33.1950   43.4540 H   0  0  0  0  0  0  0  0  0  0  0  0
   46.6640   33.3690   42.3750 C   0  0  0  0  0  0  0  0  0  0  0  0
   46.8780   32.3070   42.6630 H   0  0  0  0  0  0  0  0  0  0  0  0
   45.9090   33.2330   41.5670 H   0  0  0  0  0  0  0  0  0  0  0  0
   44.5860   35.7970   44.4050 C   0  0  0  0  0  0  0  0  0  0  0  0
   45.2420   35.2360   43.2660 C   0  0  0  0  0  0  0  0  0  0  0  0
   45.9730   34.0610   43.4420 C   0  0  0  0  0  0  0  0  0  0  0  0
   46.0120   33.5330   44.6850 N   0  0  0  0  0  0  0  0  0  0  0  0
   45.3740   34.0890   45.7730 C   0  0  0  0  0  0  0  0  0  0  0  0
   44.6680   35.2120   45.6270 N   0  0  0  0  0  0  0  0  0  0  0  0
   44.0170   36.7090   44.2770 H   0  0  0  0  0  0  0  0  0  0  0  0
   45.1870   35.6840   42.3010 H   0  0  0  0  0  0  0  0  0  0  0  0
   45.4650   33.5890   46.7280 H   0  0  0  0  0  0  0  0  0  0  0  0
   49.8230   32.9730   41.4840 O   0  0  0  0  0  0  0  0  0  0  0  0
   49.3670   30.6520   42.6890 O   0  0  0  0  0  0  0  0  0  0  0  0
   50.3870   31.4880   41.9540 P   0  0  2  0  0  0  0  0  0  0  0  0
   51.6890   31.7270   43.0130 O   0  0  0  0  0  0  0  0  0  0  0  0
   51.8790   30.9450   43.5880 H   0  0  0  0  0  0  0  0  0  0  0  0
   51.0200   30.6140   40.6210 O   0  0  0  0  0  0  0  0  0  0  0  0
   53.1570   31.2460   39.6670 C   0  0  2  0  0  3  0  0  0  0  0  0
   51.6850   31.5410   39.8190 C   0  0  1  0  0  3  0  0  0  0  0  0
   51.0530   31.7230   38.5970 O   0  0  0  0  0  0  0  0  0  0  0  0
   51.2060   30.6390   37.7410 C   0  0  0  0  0  2  0  0  0  0  0  0
   52.6270   30.2360   37.5040 C   0  0  1  0  0  3  0  0  0  0  0  0
   53.4520   30.0990   38.7420 C   0  0  1  0  0  3  0  0  0  0  0  0
   53.6100   30.8320   40.9410 O   0  0  0  0  0  0  0  0  0  0  0  0
   53.4130   29.8460   41.0370 H   0  0  0  0  0  0  0  0  0  0  0  0
   52.5930   28.9580   36.9030 O   0  0  0  0  0  0  0  0  0  0  0  0
   51.7040   28.7730   36.4850 H   0  0  0  0  0  0  0  0  0  0  0  0
   54.7950   30.2470   38.3330 O   0  0  0  0  0  0  0  0  0  0  0  0
   54.9580   29.8200   37.4570 H   0  0  0  0  0  0  0  0  0  0  0  0
  1 11  1  0  0  0  0
  1  5  1  0  0  0  0
  2  3  2  0  0  0  0
  2  1  1  0  0  0  0
  3  4  1  0  0  0  0
  4  9  1  0  0  0  0
  5  4  1  0  0  0  0
  5 10  1  1  0  0  0
  6  2  1  0  0  0  0
  7  3  1  0  0  0  0
  8  4  1  0  0  0  0
 11 12  1  0  0  0  0
 11 16  1  0  0  0  0
 13 11  1  0  0  0  0
 14 19  1  0  0  0  0
 15 16  1  0  0  0  0
 15 14  2  0  0  0  0
 16 17  2  0  0  0  0
 17 18  1  0  0  0  0
 18 22  1  0  0  0  0
 19 18  2  0  0  0  0
 20 14  1  0  0  0  0
 21 15  1  0  0  0  0
 23 25  1  0  0  0  0
 23  5  1  0  0  0  0
 25 24  2  1  0  0  0
 25 26  1  0  0  0  0
 26 27  1  0  0  0  0
 28 25  1  0  0  0  0
 29 30  1  0  0  0  0
 29 35  1  1  0  0  0
 30 28  1  6  0  0  0
 31 30  1  0  0  0  0
 32 31  1  0  0  0  0
 33 37  1  1  0  0  0
 33 32  1  0  0  0  0
 33 34  1  0  0  0  0
 34 39  1  6  0  0  0
 34 29  1  0  0  0  0
 35 36  1  0  0  0  0
 38 37  1  0  0  0  0
 40 39  1  0  0  0  0
M  END
>  <minimizedAffinity>
-5.46522665

>  <minimizedRMSD>
1.26949692

$$$$
