
 OpenBabel03252502563D

 40 42  0  0  1  0  0  0  0  0999 V2000
   47.1770   30.6640   42.8910 Br  0  0  0  0  0  0  0  0  0  0  0  0
   49.0250   30.3000   43.3270 C   0  0  0  0  0  0  0  0  0  0  0  0
   49.9470   30.7660   42.4280 C   0  0  0  0  0  0  0  0  0  0  0  0
   51.2720   30.4910   42.7660 C   0  0  0  0  0  0  0  0  0  0  0  0
   51.6390   29.8020   43.9160 C   0  0  0  0  0  0  0  0  0  0  0  0
   50.6460   29.3740   44.7570 C   0  0  0  0  0  0  0  0  0  0  0  0
   49.3230   29.6160   44.4750 C   0  0  0  0  0  0  0  0  0  0  0  0
   52.0760   30.8170   42.1220 H   0  0  0  0  0  0  0  0  0  0  0  0
   52.6900   29.6130   44.1330 H   0  0  0  0  0  0  0  0  0  0  0  0
   50.9180   28.8310   45.6650 H   0  0  0  0  0  0  0  0  0  0  0  0
   49.6970   31.5010   41.1860 C   0  0  0  0  0  0  0  0  0  0  0  0
   48.7650   31.0690   40.7380 H   0  0  0  0  0  0  0  0  0  0  0  0
   50.4970   31.3260   40.4380 H   0  0  0  0  0  0  0  0  0  0  0  0
   49.8460   35.0050   42.4830 C   0  0  0  0  0  0  0  0  0  0  0  0
   48.9420   35.6440   41.6250 C   0  0  0  0  0  0  0  0  0  0  0  0
   48.3110   34.8980   40.6460 C   0  0  0  0  0  0  0  0  0  0  0  0
   48.5930   33.5860   40.5570 N   0  0  0  0  0  0  0  0  0  0  0  0
   49.4720   32.9630   41.3900 C   0  0  0  0  0  0  0  0  0  0  0  0
   50.0780   33.7100   42.3400 N   0  0  0  0  0  0  0  0  0  0  0  0
   50.4190   35.4370   43.2940 H   0  0  0  0  0  0  0  0  0  0  0  0
   48.8160   36.6900   41.8120 H   0  0  0  0  0  0  0  0  0  0  0  0
   47.6200   35.4120   39.9990 H   0  0  0  0  0  0  0  0  0  0  0  0
   48.3190   29.1720   45.3460 O   0  0  0  0  0  0  0  0  0  0  0  0
   48.8440   27.6270   47.3780 O   0  0  0  0  0  0  0  0  0  0  0  0
   48.2640   27.5910   45.9700 P   0  0  2  0  0  0  0  0  0  0  0  0
   49.1900   26.6110   44.9690 O   0  0  0  0  0  0  0  0  0  0  0  0
   49.7910   26.0110   45.4890 H   0  0  0  0  0  0  0  0  0  0  0  0
   46.6800   27.0020   46.0790 O   0  0  0  0  0  0  0  0  0  0  0  0
   46.1520   25.8250   48.1030 C   0  0  2  0  0  3  0  0  0  0  0  0
   46.1680   27.1450   47.3660 C   0  0  2  0  0  3  0  0  0  0  0  0
   44.8830   27.6720   47.3400 O   0  0  0  0  0  0  0  0  0  0  0  0
   43.9190   26.7650   46.9220 C   0  0  0  0  0  2  0  0  0  0  0  0
   43.7520   25.5900   47.8330 C   0  0  1  0  0  3  0  0  0  0  0  0
   44.8570   25.6810   48.8840 C   0  0  2  0  0  3  0  0  0  0  0  0
   47.1890   25.7270   49.0480 O   0  0  0  0  0  0  0  0  0  0  0  0
   46.9310   24.9680   49.6310 H   0  0  0  0  0  0  0  0  0  0  0  0
   42.5420   25.5690   48.4910 O   0  0  0  0  0  0  0  0  0  0  0  0
   42.6510   24.9370   49.2490 H   0  0  0  0  0  0  0  0  0  0  0  0
   44.7170   26.7880   49.7080 O   0  0  0  0  0  0  0  0  0  0  0  0
   43.8070   27.1670   49.7300 H   0  0  0  0  0  0  0  0  0  0  0  0
  1  2  1  0  0  0  0
  2  7  1  0  0  0  0
  3  4  1  0  0  0  0
  3  2  2  0  0  0  0
  4  5  2  0  0  0  0
  5  9  1  0  0  0  0
  5  6  1  0  0  0  0
  6 10  1  0  0  0  0
  7  6  2  0  0  0  0
  7 23  1  0  0  0  0
  8  4  1  0  0  0  0
 11 18  1  0  0  0  0
 11  3  1  0  0  0  0
 12 11  1  0  0  0  0
 13 11  1  0  0  0  0
 14 20  1  0  0  0  0
 15 21  1  0  0  0  0
 15 14  2  0  0  0  0
 16 15  1  0  0  0  0
 17 16  2  0  0  0  0
 17 18  1  0  0  0  0
 18 19  2  0  0  0  0
 19 14  1  0  0  0  0
 22 16  1  0  0  0  0
 23 25  1  0  0  0  0
 25 28  1  0  0  0  0
 25 24  2  1  0  0  0
 26 27  1  0  0  0  0
 26 25  1  0  0  0  0
 29 34  1  0  0  0  0
 29 35  1  1  0  0  0
 30 28  1  6  0  0  0
 30 29  1  0  0  0  0
 31 30  1  0  0  0  0
 32 31  1  0  0  0  0
 32 33  1  0  0  0  0
 33 37  1  1  0  0  0
 33 34  1  0  0  0  0
 34 39  1  1  0  0  0
 35 36  1  0  0  0  0
 37 38  1  0  0  0  0
 39 40  1  0  0  0  0
M  END
>  <minimizedAffinity>
-4.78743029

>  <minimizedRMSD>
4.82767487

$$$$
