
 OpenBabel03252505433D

 45 48  0  0  1  0  0  0  0  0999 V2000
   42.6540   34.8030   40.2830 C   0  0  0  0  0  0  0  0  0  0  0  0
   42.4970   35.0970   38.9490 C   0  0  0  0  0  0  0  0  0  0  0  0
   41.3020   34.9730   38.2910 C   0  0  0  0  0  0  0  0  0  0  0  0
   40.2320   34.5390   39.0040 N   0  0  0  0  0  0  0  0  0  0  0  0
   40.3710   34.2420   40.3300 C   0  0  0  0  0  0  0  0  0  0  0  0
   41.5550   34.3690   40.9650 N   0  0  0  0  0  0  0  0  0  0  0  0
   43.3420   35.4380   38.3890 H   0  0  0  0  0  0  0  0  0  0  0  0
   41.1830   35.2080   37.2350 H   0  0  0  0  0  0  0  0  0  0  0  0
   43.9640   34.6480   42.3770 C   0  0  1  0  0  0  0  0  0  0  0  0
   44.1710   36.1260   41.8990 C   0  0  0  0  0  0  0  0  0  0  0  0
   43.9950   34.9270   40.9720 C   0  0  2  0  0  0  0  0  0  0  0  0
   42.9840   34.5510   42.9200 H   0  0  0  0  0  0  0  0  0  0  0  0
   45.1900   36.5350   42.0160 H   0  0  0  0  0  0  0  0  0  0  0  0
   43.3040   36.7960   41.9430 H   0  0  0  0  0  0  0  0  0  0  0  0
   44.8120   34.7950   40.2660 H   0  0  0  0  0  0  0  0  0  0  0  0
   45.1070   34.1070   43.1430 C   0  0  0  0  0  0  0  0  0  0  0  0
   46.3530   34.0290   42.4840 C   0  0  0  0  0  0  0  0  0  0  0  0
   47.4430   33.5260   43.1810 C   0  0  0  0  0  0  0  0  0  0  0  0
   47.2510   33.1350   44.4680 N   0  0  0  0  0  0  0  0  0  0  0  0
   46.0570   33.2240   45.0580 C   0  0  0  0  0  0  0  0  0  0  0  0
   45.0140   33.7090   44.3770 N   0  0  0  0  0  0  0  0  0  0  0  0
   46.4490   34.3590   41.4480 H   0  0  0  0  0  0  0  0  0  0  0  0
   48.4340   33.4470   42.7060 H   0  0  0  0  0  0  0  0  0  0  0  0
   46.0530   32.7440   46.4840 C   0  0  0  0  0  0  0  0  0  0  0  0
   45.0800   33.3920   47.2310 F   0  0  0  0  0  0  0  0  0  0  0  0
   47.2870   33.0910   47.0810 F   0  0  0  0  0  0  0  0  0  0  0  0
   45.9640   31.3800   46.5160 F   0  0  0  0  0  0  0  0  0  0  0  0
   39.2300   33.7610   41.1300 C   0  0  0  0  0  0  0  0  0  0  0  0
   38.4760   34.5990   41.1240 H   0  0  0  0  0  0  0  0  0  0  0  0
   39.5160   33.5480   42.1580 H   0  0  0  0  0  0  0  0  0  0  0  0
   38.5470   32.5880   40.4860 C   0  0  0  0  0  0  0  0  0  0  0  0
   37.4530   32.6370   40.5790 H   0  0  0  0  0  0  0  0  0  0  0  0
   38.8520   32.5700   39.4020 H   0  0  0  0  0  0  0  0  0  0  0  0
   37.8720   30.2740   41.1200 C   0  0  1  0  0  3  0  0  0  0  0  0
   38.9940   31.2930   41.0760 C   0  0  1  0  0  3  0  0  0  0  0  0
   40.1360   30.7480   40.5660 O   0  0  0  0  0  0  0  0  0  0  0  0
   40.1120   29.3610   40.4810 C   0  0  0  0  0  2  0  0  0  0  0  0
   39.6190   28.6920   41.7210 C   0  0  2  0  0  3  0  0  0  0  0  0
   38.2770   29.2190   42.1290 C   0  0  2  0  0  3  0  0  0  0  0  0
   36.6710   30.8950   41.4500 O   0  0  0  0  0  0  0  0  0  0  0  0
   35.9960   30.5690   40.7940 H   0  0  0  0  0  0  0  0  0  0  0  0
   40.5610   28.6770   42.7450 O   0  0  0  0  0  0  0  0  0  0  0  0
   40.2880   29.2040   43.5410 H   0  0  0  0  0  0  0  0  0  0  0  0
   37.3000   28.2360   42.2650 O   0  0  0  0  0  0  0  0  0  0  0  0
   36.6360   28.5660   42.9460 H   0  0  0  0  0  0  0  0  0  0  0  0
  1  6  1  0  0  0  0
  1 11  1  0  0  0  0
  2  1  2  0  0  0  0
  3  2  1  0  0  0  0
  3  4  2  0  0  0  0
  4  5  1  0  0  0  0
  5  6  2  0  0  0  0
  5 28  1  0  0  0  0
  7  2  1  0  0  0  0
  8  3  1  0  0  0  0
  9 12  1  1  0  0  0
  9 16  1  0  0  0  0
 10 14  1  0  0  0  0
 10 13  1  0  0  0  0
 10  9  1  0  0  0  0
 11 15  1  6  0  0  0
 11 10  1  0  0  0  0
 11  9  1  0  0  0  0
 16 21  1  0  0  0  0
 17 16  2  0  0  0  0
 17 18  1  0  0  0  0
 18 19  2  0  0  0  0
 19 20  1  0  0  0  0
 20 24  1  0  0  0  0
 21 20  2  0  0  0  0
 22 17  1  0  0  0  0
 23 18  1  0  0  0  0
 24 27  1  0  0  0  0
 24 26  1  0  0  0  0
 24 25  1  0  0  0  0
 28 30  1  0  0  0  0
 29 28  1  0  0  0  0
 31 32  1  0  0  0  0
 31 28  1  0  0  0  0
 33 31  1  0  0  0  0
 34 40  1  1  0  0  0
 34 39  1  0  0  0  0
 35 31  1  6  0  0  0
 35 34  1  0  0  0  0
 36 35  1  0  0  0  0
 37 36  1  0  0  0  0
 37 38  1  0  0  0  0
 38 39  1  0  0  0  0
 38 42  1  1  0  0  0
 39 44  1  6  0  0  0
 41 40  1  0  0  0  0
 42 43  1  0  0  0  0
 44 45  1  0  0  0  0
M  END
>  <minimizedAffinity>
-6.64386368

>  <minimizedRMSD>
1.7045759

$$$$
