
 OpenBabel03242520483D

 22 23  0  0  1  0  0  0  0  0999 V2000
   48.3370   34.2530   40.5030 C   0  0  1  0  0  3  0  0  0  0  0  0
   46.9440   34.5240   40.9440 C   0  0  1  0  0  3  0  0  0  0  0  0
   46.0930   33.4830   41.0840 O   0  0  0  0  0  0  0  0  0  0  0  0
   46.5680   32.2270   40.7940 C   0  0  0  0  0  2  0  0  0  0  0  0
   47.2040   32.3440   39.4180 C   0  0  1  0  0  3  0  0  0  0  0  0
   48.5430   32.9930   39.7230 C   0  0  1  0  0  3  0  0  0  0  0  0
   48.8290   35.2990   39.7190 O   0  0  0  0  0  0  0  0  0  0  0  0
   49.7900   35.3020   39.5890 H   0  0  0  0  0  0  0  0  0  0  0  0
   47.3270   31.1220   38.8190 O   0  0  0  0  0  0  0  0  0  0  0  0
   48.2110   31.0400   38.3890 H   0  0  0  0  0  0  0  0  0  0  0  0
   49.1580   33.2100   38.4860 O   0  0  0  0  0  0  0  0  0  0  0  0
   50.1010   32.8690   38.4730 H   0  0  0  0  0  0  0  0  0  0  0  0
   46.9000   35.3080   42.1260 O   0  0  0  0  0  0  0  0  0  0  0  0
   44.8990   34.6700   45.1880 C   0  0  0  0  0  0  0  0  0  0  0  0
   45.2720   35.2650   43.9820 C   0  0  0  0  0  0  0  0  0  0  0  0
   46.4150   34.8090   43.3270 C   0  0  0  0  0  0  0  0  0  0  0  0
   47.1200   33.7880   43.9100 N   0  0  0  0  0  0  0  0  0  0  0  0
   46.7350   33.2320   45.0750 C   0  0  0  0  0  0  0  0  0  0  0  0
   45.6230   33.6750   45.7140 N   0  0  0  0  0  0  0  0  0  0  0  0
   44.0150   35.0310   45.6850 H   0  0  0  0  0  0  0  0  0  0  0  0
   44.7260   36.0760   43.5050 H   0  0  0  0  0  0  0  0  0  0  0  0
   47.4010   32.4320   45.4060 H   0  0  0  0  0  0  0  0  0  0  0  0
  1  7  1  6  0  0  0
  1  2  1  0  0  0  0
  2  3  1  0  0  0  0
  2 13  1  1  0  0  0
  4  3  1  0  0  0  0
  5  9  1  1  0  0  0
  5  6  1  0  0  0  0
  5  4  1  0  0  0  0
  6 11  1  6  0  0  0
  6  1  1  0  0  0  0
  8  7  1  0  0  0  0
 10  9  1  0  0  0  0
 12 11  1  0  0  0  0
 13 16  1  0  0  0  0
 14 20  1  0  0  0  0
 14 19  1  0  0  0  0
 15 14  2  0  0  0  0
 16 17  2  0  0  0  0
 16 15  1  0  0  0  0
 17 18  1  0  0  0  0
 18 22  1  0  0  0  0
 18 19  2  0  0  0  0
 21 15  1  0  0  0  0
M  END
>  <minimizedAffinity>
-4.29790545

>  <minimizedRMSD>
2.23850322

$$$$
