
 OpenBabel03242517103D

 50 53  0  0  1  0  0  0  0  0999 V2000
   46.1960   33.5560   43.2940 C   0  0  2  0  0  0  0  0  0  0  0  0
   45.2700   34.3480   42.4370 C   0  0  2  0  0  0  0  0  0  0  0  0
   44.9460   35.6780   43.0090 C   0  0  0  0  0  0  0  0  0  0  0  0
   44.4620   35.6430   44.4360 C   0  0  0  0  0  0  0  0  0  0  0  0
   45.1180   34.5870   45.2760 C   0  0  0  0  0  0  0  0  0  0  0  0
   46.4280   34.1180   44.6690 C   0  0  0  0  0  0  0  0  0  0  0  0
   45.7570   32.5220   43.4340 H   0  0  0  0  0  0  0  0  0  0  0  0
   45.7620   34.5210   41.4590 H   0  0  0  0  0  0  0  0  0  0  0  0
   44.1680   36.1780   42.3930 H   0  0  0  0  0  0  0  0  0  0  0  0
   45.8270   36.3590   42.9790 H   0  0  0  0  0  0  0  0  0  0  0  0
   44.4850   36.6420   44.8750 H   0  0  0  0  0  0  0  0  0  0  0  0
   43.3750   35.3460   44.3700 H   0  0  0  0  0  0  0  0  0  0  0  0
   45.4000   35.0700   46.2530 H   0  0  0  0  0  0  0  0  0  0  0  0
   44.4870   33.7080   45.4880 H   0  0  0  0  0  0  0  0  0  0  0  0
   47.1530   34.9170   44.7550 H   0  0  0  0  0  0  0  0  0  0  0  0
   46.7880   33.2860   45.3260 H   0  0  0  0  0  0  0  0  0  0  0  0
   43.0520   34.2050   41.2330 C   0  0  1  0  0  0  0  0  0  0  0  0
   44.0120   33.5550   42.1590 C   0  0  1  0  0  0  0  0  0  0  0  0
   44.3850   32.3280   41.6240 O   0  0  0  0  0  0  0  0  0  0  0  0
   44.1030   32.3450   40.2690 C   0  0  0  0  0  0  0  0  0  0  0  0
   42.7550   33.0520   40.2620 C   0  0  2  0  0  0  0  0  0  0  0  0
   43.4630   35.0640   40.6740 H   0  0  0  0  0  0  0  0  0  0  0  0
   43.5470   33.3430   43.1660 H   0  0  0  0  0  0  0  0  0  0  0  0
   44.8430   32.9960   39.7730 H   0  0  0  0  0  0  0  0  0  0  0  0
   44.0480   31.3370   39.8670 H   0  0  0  0  0  0  0  0  0  0  0  0
   41.9940   32.3680   40.6500 H   0  0  0  0  0  0  0  0  0  0  0  0
   41.8670   34.5840   41.8240 O   0  0  0  0  0  0  0  0  0  0  0  0
   41.5080   33.7900   42.3100 H   0  0  0  0  0  0  0  0  0  0  0  0
   42.4490   33.5670   39.0110 O   0  0  0  0  0  0  0  0  0  0  0  0
   40.4950   32.1720   39.2190 C   0  0  2  0  0  3  0  0  0  0  0  0
   41.1420   33.4000   38.6300 C   0  0  1  0  0  3  0  0  0  0  0  0
   40.4340   34.5240   39.0610 O   0  0  0  0  0  0  0  0  0  0  0  0
   39.2630   34.5760   38.3050 C   0  0  0  0  0  2  0  0  0  0  0  0
   38.3800   33.4300   38.7430 C   0  0  1  0  0  3  0  0  0  0  0  0
   39.0810   32.0970   38.6900 C   0  0  2  0  0  3  0  0  0  0  0  0
   40.4460   32.1580   40.5940 O   0  0  0  0  0  0  0  0  0  0  0  0
   40.5160   31.2620   40.9920 H   0  0  0  0  0  0  0  0  0  0  0  0
   37.9180   33.6760   40.0200 O   0  0  0  0  0  0  0  0  0  0  0  0
   37.5420   32.8220   40.3980 H   0  0  0  0  0  0  0  0  0  0  0  0
   38.3250   31.1920   39.4320 O   0  0  0  0  0  0  0  0  0  0  0  0
   38.3940   30.2560   39.0710 H   0  0  0  0  0  0  0  0  0  0  0  0
   47.5070   33.3360   42.6520 C   0  0  0  0  0  0  0  0  0  0  0  0
   48.4520   34.3330   42.8900 C   0  0  0  0  0  0  0  0  0  0  0  0
   49.7380   34.2370   42.3370 C   0  0  0  0  0  0  0  0  0  0  0  0
   49.9730   33.1060   41.5630 N   0  0  0  0  0  0  0  0  0  0  0  0
   49.0280   32.1620   41.3560 C   0  0  0  0  0  0  0  0  0  0  0  0
   47.7890   32.2690   41.8970 N   0  0  0  0  0  0  0  0  0  0  0  0
   48.4180   35.2550   43.4480 H   0  0  0  0  0  0  0  0  0  0  0  0
   50.5500   34.9140   42.4330 H   0  0  0  0  0  0  0  0  0  0  0  0
   49.3290   31.3260   40.7350 H   0  0  0  0  0  0  0  0  0  0  0  0
  1  7  1  1  0  0  0
  1  6  1  0  0  0  0
  2  8  1  6  0  0  0
  2  3  1  0  0  0  0
  2  1  1  0  0  0  0
  3  4  1  0  0  0  0
  4 11  1  0  0  0  0
  4  5  1  0  0  0  0
  5 14  1  0  0  0  0
  5 13  1  0  0  0  0
  6 15  1  0  0  0  0
  6  5  1  0  0  0  0
  6 16  1  0  0  0  0
  9  3  1  0  0  0  0
 10  3  1  0  0  0  0
 12  4  1  0  0  0  0
 17 22  1  6  0  0  0
 17 27  1  0  0  0  0
 17 18  1  0  0  0  0
 18  2  1  0  0  0  0
 18 23  1  1  0  0  0
 19 18  1  0  0  0  0
 20 19  1  0  0  0  0
 21 20  1  0  0  0  0
 21 26  1  1  0  0  0
 21 17  1  0  0  0  0
 24 20  1  0  0  0  0
 25 20  1  0  0  0  0
 27 28  1  0  0  0  0
 29 21  1  0  0  0  0
 30 36  1  1  0  0  0
 31 29  1  1  0  0  0
 31 32  1  0  0  0  0
 31 30  1  0  0  0  0
 33 34  1  0  0  0  0
 33 32  1  0  0  0  0
 34 38  1  1  0  0  0
 35 34  1  0  0  0  0
 35 30  1  0  0  0  0
 35 40  1  1  0  0  0
 36 37  1  0  0  0  0
 38 39  1  0  0  0  0
 41 40  1  0  0  0  0
 42 43  1  0  0  0  0
 42  1  1  0  0  0  0
 43 48  1  0  0  0  0
 44 49  1  0  0  0  0
 44 43  2  0  0  0  0
 45 44  1  0  0  0  0
 46 45  2  0  0  0  0
 46 47  1  0  0  0  0
 47 42  2  0  0  0  0
 50 46  1  0  0  0  0
M  END
>  <minimizedAffinity>
-6.32704735

>  <minimizedRMSD>
1.35289824

$$$$
