
 OpenBabel03242512183D

 36 38  0  0  1  0  0  0  0  0999 V2000
   48.2550   33.0610   41.6490 C   0  0  0  0  0  0  0  0  0  0  0  0
   47.9170   34.3700   41.9400 C   0  0  0  0  0  0  0  0  0  0  0  0
   48.8960   35.2310   42.3900 C   0  0  0  0  0  0  0  0  0  0  0  0
   50.1870   34.7530   42.5360 C   0  0  0  0  0  0  0  0  0  0  0  0
   50.4700   33.4570   42.2350 C   0  0  0  0  0  0  0  0  0  0  0  0
   49.5270   32.5570   41.7820 C   0  0  0  0  0  0  0  0  0  0  0  0
   48.5810   36.2410   42.6030 H   0  0  0  0  0  0  0  0  0  0  0  0
   50.8930   35.4910   42.8920 H   0  0  0  0  0  0  0  0  0  0  0  0
   51.5130   33.2300   42.3970 H   0  0  0  0  0  0  0  0  0  0  0  0
   46.4850   34.7180   41.7320 C   0  0  0  0  0  0  0  0  0  0  0  0
   45.9720   34.0340   41.0810 H   0  0  0  0  0  0  0  0  0  0  0  0
   46.5060   35.7070   41.1950 H   0  0  0  0  0  0  0  0  0  0  0  0
   45.8230   34.9550   43.0560 C   0  0  0  0  0  0  0  0  0  0  0  0
   45.9360   33.9420   44.0110 C   0  0  0  0  0  0  0  0  0  0  0  0
   45.3360   34.1430   45.2570 C   0  0  0  0  0  0  0  0  0  0  0  0
   44.6850   35.3000   45.4630 N   0  0  0  0  0  0  0  0  0  0  0  0
   44.5870   36.2750   44.5150 C   0  0  0  0  0  0  0  0  0  0  0  0
   45.1600   36.0980   43.3090 N   0  0  0  0  0  0  0  0  0  0  0  0
   46.4660   33.0310   43.8060 H   0  0  0  0  0  0  0  0  0  0  0  0
   45.3950   33.3970   46.0200 H   0  0  0  0  0  0  0  0  0  0  0  0
   44.0470   37.1820   44.7520 H   0  0  0  0  0  0  0  0  0  0  0  0
   47.3120   32.1140   41.1810 O   0  0  0  0  0  0  0  0  0  0  0  0
   46.7700   32.2580   40.3530 H   0  0  0  0  0  0  0  0  0  0  0  0
   49.8820   31.2620   41.4950 O   0  0  0  0  0  0  0  0  0  0  0  0
   52.1360   30.6200   41.4020 C   0  0  2  0  0  0  0  0  0  0  0  0
   50.8400   30.7830   40.6350 C   0  0  2  0  0  0  0  0  0  0  0  0
   50.9930   31.6270   39.5370 O   0  0  0  0  0  0  0  0  0  0  0  0
   51.9360   31.1190   38.6510 C   0  0  0  0  0  0  0  0  0  0  0  0
   53.2810   31.2060   39.3290 C   0  0  1  0  0  0  0  0  0  0  0  0
   53.2720   30.2180   40.4820 C   0  0  1  0  0  0  0  0  0  0  0  0
   51.9300   29.6410   42.3640 O   0  0  0  0  0  0  0  0  0  0  0  0
   51.8440   30.0580   43.2480 H   0  0  0  0  0  0  0  0  0  0  0  0
   54.3430   30.9650   38.4560 O   0  0  0  0  0  0  0  0  0  0  0  0
   55.0970   31.5200   38.7810 H   0  0  0  0  0  0  0  0  0  0  0  0
   54.4700   30.3220   41.1790 O   0  0  0  0  0  0  0  0  0  0  0  0
   54.3020   30.0910   42.1250 H   0  0  0  0  0  0  0  0  0  0  0  0
  1  6  2  0  0  0  0
  1  2  1  0  0  0  0
  2  3  2  0  0  0  0
  3  4  1  0  0  0  0
  3  7  1  0  0  0  0
  4  8  1  0  0  0  0
  5  9  1  0  0  0  0
  5  4  2  0  0  0  0
  6  5  1  0  0  0  0
 10  2  1  0  0  0  0
 10 13  1  0  0  0  0
 11 10  1  0  0  0  0
 12 10  1  0  0  0  0
 13 18  2  0  0  0  0
 13 14  1  0  0  0  0
 14 15  2  0  0  0  0
 15 16  1  0  0  0  0
 15 20  1  0  0  0  0
 17 21  1  0  0  0  0
 17 16  2  0  0  0  0
 18 17  1  0  0  0  0
 19 14  1  0  0  0  0
 22  1  1  0  0  0  0
 23 22  1  0  0  0  0
 24  6  1  0  0  0  0
 25 31  1  1  0  0  0
 26 25  1  0  0  0  0
 26 24  1  1  0  0  0
 27 26  1  0  0  0  0
 28 29  1  0  0  0  0
 28 27  1  0  0  0  0
 29 33  1  6  0  0  0
 29 30  1  0  0  0  0
 30 35  1  1  0  0  0
 30 25  1  0  0  0  0
 31 32  1  0  0  0  0
 33 34  1  0  0  0  0
 35 36  1  0  0  0  0
M  END
>  <minimizedAffinity>
-5.64928532

>  <minimizedRMSD>
1.312222

$$$$
