
 OpenBabel03252507463D

 40 42  0  0  1  0  0  0  0  0999 V2000
   48.7850   33.4390   40.4110 C   0  0  0  0  0  0  0  0  0  0  0  0
   48.8010   32.7220   39.2300 C   0  0  0  0  0  0  0  0  0  0  0  0
   49.6170   31.6120   39.0670 C   0  0  0  0  0  0  0  0  0  0  0  0
   50.4050   31.2640   40.1380 N   0  0  0  0  0  0  0  0  0  0  0  0
   50.3620   31.9860   41.2720 C   0  0  0  0  0  0  0  0  0  0  0  0
   49.5740   33.0430   41.4030 N   0  0  0  0  0  0  0  0  0  0  0  0
   49.6330   31.0490   38.1450 H   0  0  0  0  0  0  0  0  0  0  0  0
   50.9650   31.7450   42.1380 H   0  0  0  0  0  0  0  0  0  0  0  0
   47.8830   34.6030   40.4820 C   0  0  0  0  0  0  0  0  0  0  0  0
   47.0640   34.5230   39.7360 H   0  0  0  0  0  0  0  0  0  0  0  0
   48.4220   35.5500   40.2530 H   0  0  0  0  0  0  0  0  0  0  0  0
   47.2000   34.7310   41.8210 C   0  0  0  0  0  0  0  0  0  0  0  0
   47.5900   35.6430   42.3240 H   0  0  0  0  0  0  0  0  0  0  0  0
   47.4690   33.8350   42.4160 H   0  0  0  0  0  0  0  0  0  0  0  0
   45.7160   34.7430   41.7470 C   0  0  0  0  0  0  0  0  0  0  0  0
   44.9760   35.6500   42.5610 C   0  0  0  0  0  0  0  0  0  0  0  0
   43.2320   35.2800   42.1110 S   0  0  0  0  0  0  0  0  0  0  0  0
   43.8070   33.9420   40.8800 C   0  0  0  0  0  0  0  0  0  0  0  0
   44.9390   33.9960   40.9950 N   0  0  0  0  0  0  0  0  0  0  0  0
   45.3670   36.3660   43.2610 H   0  0  0  0  0  0  0  0  0  0  0  0
   42.9200   33.1850   40.1130 O   0  0  0  0  0  0  0  0  0  0  0  0
   41.3770   32.9250   37.9770 O   0  0  0  0  0  0  0  0  0  0  0  0
   42.2740   33.9120   38.7210 P   0  0  0  0  0  0  0  0  0  0  0  0
   41.3700   35.2490   39.2010 O   0  0  0  0  0  0  0  0  0  0  0  0
   40.6590   35.3800   38.5410 H   0  0  0  0  0  0  0  0  0  0  0  0
   43.5430   34.4410   37.7210 O   0  0  0  0  0  0  0  0  0  0  0  0
   43.2820   34.5970   36.7980 H   0  0  0  0  0  0  0  0  0  0  0  0
   47.7400   33.2310   37.8530 S   0  0  0  0  0  0  0  0  0  0  0  0
   48.0670   32.8130   35.2240 C   0  0  2  0  0  3  0  0  0  0  0  0
   47.8460   32.0420   36.5280 C   0  0  2  0  0  3  0  0  0  0  0  0
   46.6380   31.3440   36.4910 O   0  0  0  0  0  0  0  0  0  0  0  0
   45.6880   32.2030   35.9370 C   0  0  0  0  0  2  0  0  0  0  0  0
   45.8050   32.0590   34.4370 C   0  0  2  0  0  3  0  0  0  0  0  0
   47.2760   32.1960   34.0930 C   0  0  1  0  0  3  0  0  0  0  0  0
   49.4130   32.7490   34.8640 O   0  0  0  0  0  0  0  0  0  0  0  0
   49.5060   33.1890   34.0050 H   0  0  0  0  0  0  0  0  0  0  0  0
   45.0120   32.9970   33.7770 O   0  0  0  0  0  0  0  0  0  0  0  0
   45.3270   33.1540   32.8570 H   0  0  0  0  0  0  0  0  0  0  0  0
   47.4120   33.0240   32.9880 O   0  0  0  0  0  0  0  0  0  0  0  0
   47.7580   33.9150   33.1760 H   0  0  0  0  0  0  0  0  0  0  0  0
  1  9  1  0  0  0  0
  1  6  1  0  0  0  0
  2  1  2  0  0  0  0
  3  2  1  0  0  0  0
  3  4  2  0  0  0  0
  4  5  1  0  0  0  0
  5  6  2  0  0  0  0
  5  8  1  0  0  0  0
  7  3  1  0  0  0  0
  9 12  1  0  0  0  0
 10  9  1  0  0  0  0
 11  9  1  0  0  0  0
 12 13  1  0  0  0  0
 12 14  1  0  0  0  0
 15 12  1  0  0  0  0
 15 16  2  0  0  0  0
 16 20  1  0  0  0  0
 17 16  1  0  0  0  0
 18 19  2  0  0  0  0
 18 17  1  0  0  0  0
 19 15  1  0  0  0  0
 21 18  1  0  0  0  0
 22 23  2  0  0  0  0
 23 24  1  0  0  0  0
 23 21  1  0  0  0  0
 25 24  1  0  0  0  0
 26 23  1  0  0  0  0
 27 26  1  0  0  0  0
 28  2  1  0  0  0  0
 29 35  1  6  0  0  0
 29 30  1  0  0  0  0
 30 28  1  1  0  0  0
 31 30  1  0  0  0  0
 32 31  1  0  0  0  0
 33 37  1  6  0  0  0
 33 32  1  0  0  0  0
 34 39  1  6  0  0  0
 34 33  1  0  0  0  0
 34 29  1  0  0  0  0
 36 35  1  0  0  0  0
 38 37  1  0  0  0  0
 39 40  1  0  0  0  0
M  END
>  <minimizedAffinity>
-6.57024527

>  <minimizedRMSD>
4.53180265

$$$$
