
 OpenBabel03242523313D

 25 26  0  0  1  0  0  0  0  0999 V2000
   44.6350   33.9850   41.0000 S   0  0  0  0  0  0  0  0  0  0  0  0
   45.7930   32.7910   43.2200 C   0  0  1  0  0  3  0  0  0  0  0  0
   46.0560   33.6560   42.0270 C   0  0  2  0  0  3  0  0  0  0  0  0
   46.7440   34.8200   42.3340 O   0  0  0  0  0  0  0  0  0  0  0  0
   48.0370   34.5820   42.7860 C   0  0  0  0  0  2  0  0  0  0  0  0
   48.2860   33.1880   43.2550 C   0  0  1  0  0  3  0  0  0  0  0  0
   47.0830   32.6680   44.0060 C   0  0  1  0  0  3  0  0  0  0  0  0
   44.8220   33.3190   44.0770 O   0  0  0  0  0  0  0  0  0  0  0  0
   45.0790   34.2260   44.3340 H   0  0  0  0  0  0  0  0  0  0  0  0
   48.7650   32.3240   42.2830 O   0  0  0  0  0  0  0  0  0  0  0  0
   49.4960   31.7400   42.5970 H   0  0  0  0  0  0  0  0  0  0  0  0
   47.0130   33.4210   45.1810 O   0  0  0  0  0  0  0  0  0  0  0  0
   46.7690   32.8580   45.9730 H   0  0  0  0  0  0  0  0  0  0  0  0
   43.6570   35.4150   41.5040 C   0  0  0  0  0  0  0  0  0  0  0  0
   44.1580   36.3700   41.1660 H   0  0  0  0  0  0  0  0  0  0  0  0
   43.5550   35.4680   42.6100 H   0  0  0  0  0  0  0  0  0  0  0  0
   40.0830   35.8140   40.6010 C   0  0  0  0  0  0  0  0  0  0  0  0
   40.0780   35.2550   39.3360 C   0  0  0  0  0  0  0  0  0  0  0  0
   41.2770   34.7460   38.7970 C   0  0  0  0  0  0  0  0  0  0  0  0
   42.4300   34.8180   39.5450 N   0  0  0  0  0  0  0  0  0  0  0  0
   42.3790   35.3760   40.7780 C   0  0  0  0  0  0  0  0  0  0  0  0
   41.2280   35.8610   41.2870 N   0  0  0  0  0  0  0  0  0  0  0  0
   39.1180   36.1670   40.9120 H   0  0  0  0  0  0  0  0  0  0  0  0
   39.2660   35.1190   38.6200 H   0  0  0  0  0  0  0  0  0  0  0  0
   41.3770   34.2920   37.8170 H   0  0  0  0  0  0  0  0  0  0  0  0
  1 14  1  0  0  0  0
  2  7  1  0  0  0  0
  2  8  1  1  0  0  0
  3  1  1  1  0  0  0
  3  4  1  0  0  0  0
  3  2  1  0  0  0  0
  4  5  1  0  0  0  0
  5  6  1  0  0  0  0
  6 10  1  6  0  0  0
  6  7  1  0  0  0  0
  7 12  1  1  0  0  0
  8  9  1  0  0  0  0
 10 11  1  0  0  0  0
 12 13  1  0  0  0  0
 14 16  1  0  0  0  0
 15 14  1  0  0  0  0
 17 23  1  0  0  0  0
 17 22  1  0  0  0  0
 18 17  2  0  0  0  0
 19 18  1  0  0  0  0
 19 20  2  0  0  0  0
 20 21  1  0  0  0  0
 21 22  2  0  0  0  0
 21 14  1  0  0  0  0
 24 18  1  0  0  0  0
 25 19  1  0  0  0  0
M  END
>  <minimizedAffinity>
-4.62883902

>  <minimizedRMSD>
6.34831953

$$$$
