
 OpenBabel03252508013D

 32 34  0  0  1  0  0  0  0  0999 V2000
   39.9420   31.2090   41.0360 C   0  0  0  0  0  0  0  0  0  0  0  0
   40.5180   30.5930   42.1910 C   0  0  0  0  0  0  0  0  0  0  0  0
   39.8840   29.4390   42.6660 C   0  0  0  0  0  0  0  0  0  0  0  0
   38.7880   28.9890   42.0140 N   0  0  0  0  0  0  0  0  0  0  0  0
   38.2890   29.6360   40.9060 C   0  0  0  0  0  0  0  0  0  0  0  0
   38.8510   30.7270   40.4210 N   0  0  0  0  0  0  0  0  0  0  0  0
   41.3980   31.0090   42.6620 H   0  0  0  0  0  0  0  0  0  0  0  0
   40.2690   28.9300   43.5310 H   0  0  0  0  0  0  0  0  0  0  0  0
   37.0850   29.0640   40.2290 C   0  0  1  0  0  0  0  0  0  0  0  0
   35.9330   28.5710   41.0770 C   0  0  0  0  0  0  0  0  0  0  0  0
   35.8680   29.8920   40.3590 C   0  0  1  0  0  0  0  0  0  0  0  0
   37.2310   28.4900   39.2990 H   0  0  0  0  0  0  0  0  0  0  0  0
   36.1780   28.5440   42.1670 H   0  0  0  0  0  0  0  0  0  0  0  0
   35.3620   27.7070   40.7270 H   0  0  0  0  0  0  0  0  0  0  0  0
   35.0880   29.9240   39.5810 H   0  0  0  0  0  0  0  0  0  0  0  0
   35.8440   31.0180   41.2630 N   0  0  0  0  0  0  0  0  0  0  0  0
   35.9280   30.8210   42.2510 H   0  0  0  0  0  0  0  0  0  0  0  0
   36.1080   31.9160   40.8810 H   0  0  0  0  0  0  0  0  0  0  0  0
   40.6410   32.3860   40.5830 C   0  0  0  0  0  0  0  0  0  0  0  0
   40.2430   33.5780   40.8350 O   0  0  0  0  0  0  0  0  0  0  0  0
   41.7730   33.3960   38.7190 C   0  0  1  0  0  3  0  0  0  0  0  0
   41.8940   32.3180   39.7770 C   0  0  2  0  0  3  0  0  0  0  0  0
   41.9410   31.0460   39.2200 O   0  0  0  0  0  0  0  0  0  0  0  0
   42.9440   30.9120   38.2750 C   0  0  0  0  0  2  0  0  0  0  0  0
   42.7900   31.8540   37.1160 C   0  0  1  0  0  3  0  0  0  0  0  0
   42.8050   33.2610   37.6410 C   0  0  1  0  0  3  0  0  0  0  0  0
   40.5080   33.3390   38.1410 O   0  0  0  0  0  0  0  0  0  0  0  0
   40.4140   32.5980   37.4860 H   0  0  0  0  0  0  0  0  0  0  0  0
   43.9300   31.7230   36.3110 O   0  0  0  0  0  0  0  0  0  0  0  0
   43.6740   31.6580   35.3590 H   0  0  0  0  0  0  0  0  0  0  0  0
   42.4020   34.1330   36.6040 O   0  0  0  0  0  0  0  0  0  0  0  0
   41.4080   34.2340   36.5920 H   0  0  0  0  0  0  0  0  0  0  0  0
  1  2  1  0  0  0  0
  2  7  1  0  0  0  0
  2  3  2  0  0  0  0
  3  8  1  0  0  0  0
  4  3  1  0  0  0  0
  5  4  2  0  0  0  0
  6  5  1  0  0  0  0
  6  1  2  0  0  0  0
  9 12  1  6  0  0  0
  9 11  1  0  0  0  0
  9  5  1  0  0  0  0
  9 10  1  0  0  0  0
 10 13  1  0  0  0  0
 11 15  1  6  0  0  0
 11 10  1  0  0  0  0
 11 16  1  0  0  0  0
 14 10  1  0  0  0  0
 16 17  1  0  0  0  0
 18 16  1  0  0  0  0
 19 20  2  0  0  0  0
 19  1  1  0  0  0  0
 21 27  1  6  0  0  0
 21 22  1  0  0  0  0
 22 19  1  1  0  0  0
 23 22  1  0  0  0  0
 24 23  1  0  0  0  0
 25 29  1  6  0  0  0
 25 26  1  0  0  0  0
 25 24  1  0  0  0  0
 26 31  1  6  0  0  0
 26 21  1  0  0  0  0
 28 27  1  0  0  0  0
 30 29  1  0  0  0  0
 32 31  1  0  0  0  0
M  END
>  <minimizedAffinity>
-5.99531841

$$$$

 OpenBabel03252508013D

 32 34  0  0  1  0  0  0  0  0999 V2000
   38.8190   31.0550   41.2650 C   0  0  0  0  0  0  0  0  0  0  0  0
   37.6690   31.5360   40.5640 C   0  0  0  0  0  0  0  0  0  0  0  0
   36.4540   30.9020   40.8470 C   0  0  0  0  0  0  0  0  0  0  0  0
   36.4450   29.8940   41.7480 N   0  0  0  0  0  0  0  0  0  0  0  0
   37.5940   29.4820   42.3840 C   0  0  0  0  0  0  0  0  0  0  0  0
   38.7640   30.0480   42.1510 N   0  0  0  0  0  0  0  0  0  0  0  0
   37.7500   32.3500   39.8560 H   0  0  0  0  0  0  0  0  0  0  0  0
   35.5530   31.2190   40.3530 H   0  0  0  0  0  0  0  0  0  0  0  0
   37.4990   28.3730   43.3820 C   0  0  1  0  0  0  0  0  0  0  0  0
   36.8680   27.0630   42.9620 C   0  0  0  0  0  0  0  0  0  0  0  0
   38.3610   27.2120   43.0790 C   0  0  1  0  0  0  0  0  0  0  0  0
   37.3230   28.6340   44.4390 H   0  0  0  0  0  0  0  0  0  0  0  0
   36.3830   27.1190   41.9570 H   0  0  0  0  0  0  0  0  0  0  0  0
   36.2950   26.5010   43.7040 H   0  0  0  0  0  0  0  0  0  0  0  0
   38.7990   26.5790   43.8680 H   0  0  0  0  0  0  0  0  0  0  0  0
   39.0330   27.1140   41.8050 N   0  0  0  0  0  0  0  0  0  0  0  0
   38.4550   27.0160   40.9820 H   0  0  0  0  0  0  0  0  0  0  0  0
   39.9660   27.5000   41.7490 H   0  0  0  0  0  0  0  0  0  0  0  0
   40.0410   31.7500   40.9450 C   0  0  0  0  0  0  0  0  0  0  0  0
   41.0760   31.7330   41.7010 O   0  0  0  0  0  0  0  0  0  0  0  0
   40.6080   31.5760   38.6150 C   0  0  1  0  0  3  0  0  0  0  0  0
   40.2070   32.5550   39.7000 C   0  0  2  0  0  3  0  0  0  0  0  0
   41.2090   33.4840   39.9590 O   0  0  0  0  0  0  0  0  0  0  0  0
   41.6180   34.1600   38.8210 C   0  0  0  0  0  2  0  0  0  0  0  0
   42.1730   33.2510   37.7630 C   0  0  1  0  0  3  0  0  0  0  0  0
   41.1100   32.2600   37.3810 C   0  0  1  0  0  3  0  0  0  0  0  0
   41.6030   30.7300   39.0980 O   0  0  0  0  0  0  0  0  0  0  0  0
   42.4970   31.1600   39.1270 H   0  0  0  0  0  0  0  0  0  0  0  0
   42.4140   34.0290   36.6220 O   0  0  0  0  0  0  0  0  0  0  0  0
   43.3030   33.8220   36.2450 H   0  0  0  0  0  0  0  0  0  0  0  0
   41.7010   31.2500   36.5890 O   0  0  0  0  0  0  0  0  0  0  0  0
   42.0650   30.5170   37.1610 H   0  0  0  0  0  0  0  0  0  0  0  0
  1  6  1  0  0  0  0
  2  3  1  0  0  0  0
  2  1  2  0  0  0  0
  3  4  2  0  0  0  0
  4  5  1  0  0  0  0
  5  9  1  0  0  0  0
  6  5  2  0  0  0  0
  7  2  1  0  0  0  0
  8  3  1  0  0  0  0
  9 12  1  1  0  0  0
 10 11  1  0  0  0  0
 10  9  1  0  0  0  0
 10 14  1  0  0  0  0
 11  9  1  0  0  0  0
 11 15  1  1  0  0  0
 13 10  1  0  0  0  0
 16 11  1  0  0  0  0
 17 16  1  0  0  0  0
 18 16  1  0  0  0  0
 19  1  1  0  0  0  0
 19 20  2  0  0  0  0
 21 27  1  1  0  0  0
 21 22  1  0  0  0  0
 22 23  1  0  0  0  0
 22 19  1  1  0  0  0
 24 23  1  0  0  0  0
 25 29  1  6  0  0  0
 25 24  1  0  0  0  0
 26 31  1  6  0  0  0
 26 25  1  0  0  0  0
 26 21  1  0  0  0  0
 27 28  1  0  0  0  0
 30 29  1  0  0  0  0
 31 32  1  0  0  0  0
M  END
>  <minimizedAffinity>
-5.99278021

$$$$

 OpenBabel03252508013D

 32 34  0  0  1  0  0  0  0  0999 V2000
   36.7970   28.5170   41.2600 C   0  0  0  0  0  0  0  0  0  0  0  0
   37.2850   29.2270   42.4010 C   0  0  0  0  0  0  0  0  0  0  0  0
   37.7130   28.4500   43.4840 C   0  0  0  0  0  0  0  0  0  0  0  0
   37.6390   27.1040   43.3830 N   0  0  0  0  0  0  0  0  0  0  0  0
   37.1560   26.4880   42.2500 C   0  0  0  0  0  0  0  0  0  0  0  0
   36.7410   27.1770   41.2040 N   0  0  0  0  0  0  0  0  0  0  0  0
   37.3160   30.3070   42.4120 H   0  0  0  0  0  0  0  0  0  0  0  0
   38.0900   28.9250   44.3720 H   0  0  0  0  0  0  0  0  0  0  0  0
   37.1260   24.9950   42.2080 C   0  0  1  0  0  0  0  0  0  0  0  0
   37.8200   24.2800   41.0700 C   0  0  0  0  0  0  0  0  0  0  0  0
   38.4380   24.3570   42.4400 C   0  0  1  0  0  0  0  0  0  0  0  0
   36.2210   24.4790   42.5720 H   0  0  0  0  0  0  0  0  0  0  0  0
   38.1650   24.9770   40.2670 H   0  0  0  0  0  0  0  0  0  0  0  0
   37.3840   23.3500   40.6960 H   0  0  0  0  0  0  0  0  0  0  0  0
   38.5400   23.3720   42.9250 H   0  0  0  0  0  0  0  0  0  0  0  0
   39.6430   25.1520   42.4660 N   0  0  0  0  0  0  0  0  0  0  0  0
   39.9140   25.6110   41.6070 H   0  0  0  0  0  0  0  0  0  0  0  0
   39.9390   25.5050   43.3660 H   0  0  0  0  0  0  0  0  0  0  0  0
   36.3810   29.3650   40.1700 C   0  0  0  0  0  0  0  0  0  0  0  0
   35.1800   29.7920   40.0330 O   0  0  0  0  0  0  0  0  0  0  0  0
   37.8250   31.1790   39.5370 C   0  0  1  0  0  3  0  0  0  0  0  0
   37.3160   29.8200   39.1010 C   0  0  2  0  0  3  0  0  0  0  0  0
   36.5740   29.8940   37.9280 O   0  0  0  0  0  0  0  0  0  0  0  0
   37.2640   30.5080   36.8960 C   0  0  0  0  0  2  0  0  0  0  0  0
   37.6620   31.9210   37.2120 C   0  0  1  0  0  3  0  0  0  0  0  0
   38.5320   31.9080   38.4360 C   0  0  1  0  0  3  0  0  0  0  0  0
   36.7560   31.9550   39.9760 O   0  0  0  0  0  0  0  0  0  0  0  0
   36.2150   32.3270   39.2310 H   0  0  0  0  0  0  0  0  0  0  0  0
   38.4680   32.3780   36.1610 O   0  0  0  0  0  0  0  0  0  0  0  0
   38.1900   33.2840   35.8810 H   0  0  0  0  0  0  0  0  0  0  0  0
   38.6930   33.2370   38.8890 O   0  0  0  0  0  0  0  0  0  0  0  0
   37.9560   33.4910   39.5130 H   0  0  0  0  0  0  0  0  0  0  0  0
  1  2  1  0  0  0  0
  2  7  1  0  0  0  0
  2  3  2  0  0  0  0
  3  8  1  0  0  0  0
  4  3  1  0  0  0  0
  5  4  2  0  0  0  0
  6  1  2  0  0  0  0
  6  5  1  0  0  0  0
  9  5  1  0  0  0  0
  9 11  1  0  0  0  0
  9 12  1  1  0  0  0
 10  9  1  0  0  0  0
 10 11  1  0  0  0  0
 11 16  1  0  0  0  0
 11 15  1  1  0  0  0
 13 10  1  0  0  0  0
 14 10  1  0  0  0  0
 16 18  1  0  0  0  0
 17 16  1  0  0  0  0
 19  1  1  0  0  0  0
 20 19  2  0  0  0  0
 21 27  1  6  0  0  0
 22 21  1  0  0  0  0
 22 19  1  1  0  0  0
 23 22  1  0  0  0  0
 24 25  1  0  0  0  0
 24 23  1  0  0  0  0
 25 29  1  6  0  0  0
 25 26  1  0  0  0  0
 26 31  1  1  0  0  0
 26 21  1  0  0  0  0
 28 27  1  0  0  0  0
 30 29  1  0  0  0  0
 31 32  1  0  0  0  0
M  END
>  <minimizedAffinity>
-5.90466547

$$$$

 OpenBabel03252508013D

 32 34  0  0  1  0  0  0  0  0999 V2000
   38.3320   30.2300   39.5880 C   0  0  0  0  0  0  0  0  0  0  0  0
   37.1520   31.0310   39.4920 C   0  0  0  0  0  0  0  0  0  0  0  0
   36.3560   31.1130   40.6400 C   0  0  0  0  0  0  0  0  0  0  0  0
   36.7490   30.4420   41.7470 N   0  0  0  0  0  0  0  0  0  0  0  0
   37.9000   29.6880   41.7670 C   0  0  0  0  0  0  0  0  0  0  0  0
   38.6830   29.5800   40.7090 N   0  0  0  0  0  0  0  0  0  0  0  0
   36.9000   31.5410   38.5720 H   0  0  0  0  0  0  0  0  0  0  0  0
   35.4550   31.7000   40.6320 H   0  0  0  0  0  0  0  0  0  0  0  0
   38.2760   28.9930   43.0350 C   0  0  1  0  0  0  0  0  0  0  0  0
   37.2790   28.0550   43.6790 C   0  0  0  0  0  0  0  0  0  0  0  0
   38.4520   27.5330   42.8940 C   0  0  1  0  0  0  0  0  0  0  0  0
   38.9140   29.5300   43.7570 H   0  0  0  0  0  0  0  0  0  0  0  0
   36.2700   28.1020   43.2020 H   0  0  0  0  0  0  0  0  0  0  0  0
   37.2540   27.9930   44.7700 H   0  0  0  0  0  0  0  0  0  0  0  0
   39.1650   26.9600   43.5100 H   0  0  0  0  0  0  0  0  0  0  0  0
   38.0560   26.8630   41.6780 N   0  0  0  0  0  0  0  0  0  0  0  0
   37.0710   26.8600   41.4500 H   0  0  0  0  0  0  0  0  0  0  0  0
   38.7620   26.7620   40.9610 H   0  0  0  0  0  0  0  0  0  0  0  0
   39.1200   30.1900   38.3810 C   0  0  0  0  0  0  0  0  0  0  0  0
   38.6430   29.8400   37.2440 O   0  0  0  0  0  0  0  0  0  0  0  0
   40.6230   32.0240   37.9840 C   0  0  1  0  0  3  0  0  0  0  0  0
   40.5660   30.5550   38.3500 C   0  0  2  0  0  3  0  0  0  0  0  0
   41.1570   29.7540   37.3800 O   0  0  0  0  0  0  0  0  0  0  0  0
   42.4580   30.1330   37.0940 C   0  0  0  0  0  2  0  0  0  0  0  0
   42.5620   31.5380   36.5750 C   0  0  1  0  0  3  0  0  0  0  0  0
   42.0030   32.4700   37.6120 C   0  0  1  0  0  3  0  0  0  0  0  0
   39.7670   32.2690   36.9140 O   0  0  0  0  0  0  0  0  0  0  0  0
   40.1400   31.9730   36.0430 H   0  0  0  0  0  0  0  0  0  0  0  0
   43.9240   31.8460   36.4610 O   0  0  0  0  0  0  0  0  0  0  0  0
   44.1080   32.2820   35.5940 H   0  0  0  0  0  0  0  0  0  0  0  0
   41.8560   33.7510   37.0330 O   0  0  0  0  0  0  0  0  0  0  0  0
   40.9660   33.8400   36.5900 H   0  0  0  0  0  0  0  0  0  0  0  0
  1  6  1  0  0  0  0
  2  1  2  0  0  0  0
  2  3  1  0  0  0  0
  3  4  2  0  0  0  0
  4  5  1  0  0  0  0
  5  9  1  0  0  0  0
  6  5  2  0  0  0  0
  7  2  1  0  0  0  0
  8  3  1  0  0  0  0
  9 10  1  0  0  0  0
  9 12  1  1  0  0  0
 10 14  1  0  0  0  0
 11  9  1  0  0  0  0
 11 15  1  1  0  0  0
 11 10  1  0  0  0  0
 13 10  1  0  0  0  0
 16 11  1  0  0  0  0
 17 16  1  0  0  0  0
 18 16  1  0  0  0  0
 19  1  1  0  0  0  0
 20 19  2  0  0  0  0
 21 27  1  6  0  0  0
 21 22  1  0  0  0  0
 22 19  1  6  0  0  0
 23 22  1  0  0  0  0
 24 23  1  0  0  0  0
 25 29  1  1  0  0  0
 25 24  1  0  0  0  0
 25 26  1  0  0  0  0
 26 31  1  6  0  0  0
 26 21  1  0  0  0  0
 28 27  1  0  0  0  0
 30 29  1  0  0  0  0
 32 31  1  0  0  0  0
M  END
>  <minimizedAffinity>
-5.76512623

$$$$

 OpenBabel03252508013D

 32 34  0  0  1  0  0  0  0  0999 V2000
   38.9840   30.6600   39.8330 C   0  0  0  0  0  0  0  0  0  0  0  0
   37.9490   30.5310   38.8550 C   0  0  0  0  0  0  0  0  0  0  0  0
   37.1510   29.3830   38.9380 C   0  0  0  0  0  0  0  0  0  0  0  0
   37.4060   28.4890   39.9200 N   0  0  0  0  0  0  0  0  0  0  0  0
   38.4230   28.6800   40.8280 C   0  0  0  0  0  0  0  0  0  0  0  0
   39.2020   29.7450   40.7900 N   0  0  0  0  0  0  0  0  0  0  0  0
   37.8020   31.2870   38.0970 H   0  0  0  0  0  0  0  0  0  0  0  0
   36.3550   29.2280   38.2320 H   0  0  0  0  0  0  0  0  0  0  0  0
   38.6280   27.6550   41.8960 C   0  0  1  0  0  0  0  0  0  0  0  0
   39.3150   28.0640   43.1800 C   0  0  0  0  0  0  0  0  0  0  0  0
   37.8230   27.8820   43.1130 C   0  0  1  0  0  0  0  0  0  0  0  0
   38.8350   26.6160   41.5910 H   0  0  0  0  0  0  0  0  0  0  0  0
   39.7510   29.0910   43.1300 H   0  0  0  0  0  0  0  0  0  0  0  0
   39.9540   27.3320   43.6830 H   0  0  0  0  0  0  0  0  0  0  0  0
   37.4590   27.0550   43.7450 H   0  0  0  0  0  0  0  0  0  0  0  0
   37.1020   29.1190   43.2920 N   0  0  0  0  0  0  0  0  0  0  0  0
   37.6470   29.9660   43.3840 H   0  0  0  0  0  0  0  0  0  0  0  0
   36.1460   29.1440   42.9620 H   0  0  0  0  0  0  0  0  0  0  0  0
   39.7670   31.8650   39.7080 C   0  0  0  0  0  0  0  0  0  0  0  0
   39.3070   33.0310   39.9740 O   0  0  0  0  0  0  0  0  0  0  0  0
   41.3410   33.0420   38.3240 C   0  0  1  0  0  3  0  0  0  0  0  0
   41.1890   31.8580   39.2560 C   0  0  2  0  0  3  0  0  0  0  0  0
   41.3920   30.6500   38.5990 O   0  0  0  0  0  0  0  0  0  0  0  0
   42.6090   30.5960   37.9410 C   0  0  0  0  0  2  0  0  0  0  0  0
   42.7570   31.6570   36.8890 C   0  0  1  0  0  3  0  0  0  0  0  0
   42.6200   33.0010   37.5460 C   0  0  1  0  0  3  0  0  0  0  0  0
   40.2720   33.0700   37.4310 O   0  0  0  0  0  0  0  0  0  0  0  0
   40.3600   32.4030   36.7000 H   0  0  0  0  0  0  0  0  0  0  0  0
   44.0690   31.5890   36.4020 O   0  0  0  0  0  0  0  0  0  0  0  0
   44.0730   31.6280   35.4150 H   0  0  0  0  0  0  0  0  0  0  0  0
   42.4950   33.9840   36.5380 O   0  0  0  0  0  0  0  0  0  0  0  0
   41.5390   34.1040   36.2760 H   0  0  0  0  0  0  0  0  0  0  0  0
  1  6  1  0  0  0  0
  2  3  1  0  0  0  0
  2  1  2  0  0  0  0
  3  4  2  0  0  0  0
  4  5  1  0  0  0  0
  5  9  1  0  0  0  0
  6  5  2  0  0  0  0
  7  2  1  0  0  0  0
  8  3  1  0  0  0  0
  9 12  1  6  0  0  0
  9 11  1  0  0  0  0
  9 10  1  0  0  0  0
 10 14  1  0  0  0  0
 11 10  1  0  0  0  0
 11 16  1  0  0  0  0
 11 15  1  1  0  0  0
 13 10  1  0  0  0  0
 16 17  1  0  0  0  0
 18 16  1  0  0  0  0
 19  1  1  0  0  0  0
 19 20  2  0  0  0  0
 21 27  1  6  0  0  0
 21 22  1  0  0  0  0
 22 19  1  6  0  0  0
 23 22  1  0  0  0  0
 24 23  1  0  0  0  0
 25 29  1  1  0  0  0
 25 26  1  0  0  0  0
 25 24  1  0  0  0  0
 26 31  1  6  0  0  0
 26 21  1  0  0  0  0
 28 27  1  0  0  0  0
 30 29  1  0  0  0  0
 32 31  1  0  0  0  0
M  END
>  <minimizedAffinity>
-5.7156744

$$$$

 OpenBabel03252508013D

 32 34  0  0  1  0  0  0  0  0999 V2000
   40.8720   28.8760   40.7310 C   0  0  0  0  0  0  0  0  0  0  0  0
   41.6420   28.8830   41.9360 C   0  0  0  0  0  0  0  0  0  0  0  0
   41.0140   28.3840   43.0830 C   0  0  0  0  0  0  0  0  0  0  0  0
   39.7420   27.9350   42.9790 N   0  0  0  0  0  0  0  0  0  0  0  0
   39.0610   27.9600   41.7830 C   0  0  0  0  0  0  0  0  0  0  0  0
   39.6100   28.4210   40.6750 N   0  0  0  0  0  0  0  0  0  0  0  0
   42.6560   29.2580   41.9450 H   0  0  0  0  0  0  0  0  0  0  0  0
   41.5400   28.3630   44.0200 H   0  0  0  0  0  0  0  0  0  0  0  0
   37.6650   27.4270   41.7470 C   0  0  1  0  0  0  0  0  0  0  0  0
   36.8370   27.4570   43.0120 C   0  0  0  0  0  0  0  0  0  0  0  0
   36.6200   28.4590   41.9120 C   0  0  1  0  0  0  0  0  0  0  0  0
   37.4510   26.5650   41.0940 H   0  0  0  0  0  0  0  0  0  0  0  0
   37.4330   27.7430   43.9130 H   0  0  0  0  0  0  0  0  0  0  0  0
   36.1260   26.6440   43.1880 H   0  0  0  0  0  0  0  0  0  0  0  0
   35.6270   28.3770   41.4400 H   0  0  0  0  0  0  0  0  0  0  0  0
   36.9750   29.8030   42.3020 N   0  0  0  0  0  0  0  0  0  0  0  0
   37.3750   29.9280   43.2230 H   0  0  0  0  0  0  0  0  0  0  0  0
   37.1530   30.4640   41.5580 H   0  0  0  0  0  0  0  0  0  0  0  0
   41.5710   29.3890   39.5790 C   0  0  0  0  0  0  0  0  0  0  0  0
   42.1720   28.6390   38.7310 O   0  0  0  0  0  0  0  0  0  0  0  0
   40.5490   31.1340   38.2790 C   0  0  1  0  0  3  0  0  0  0  0  0
   41.6560   30.8470   39.2720 C   0  0  2  0  0  3  0  0  0  0  0  0
   42.9160   31.0640   38.7250 O   0  0  0  0  0  0  0  0  0  0  0  0
   43.0560   32.3370   38.1960 C   0  0  0  0  0  2  0  0  0  0  0  0
   42.0800   32.6260   37.0920 C   0  0  1  0  0  3  0  0  0  0  0  0
   40.6880   32.4800   37.6370 C   0  0  1  0  0  3  0  0  0  0  0  0
   40.5530   30.1590   37.2850 O   0  0  0  0  0  0  0  0  0  0  0  0
   41.2730   30.2900   36.6150 H   0  0  0  0  0  0  0  0  0  0  0  0
   42.2270   33.9760   36.7440 O   0  0  0  0  0  0  0  0  0  0  0  0
   42.2600   34.0770   35.7610 H   0  0  0  0  0  0  0  0  0  0  0  0
   39.7780   32.4920   36.5550 O   0  0  0  0  0  0  0  0  0  0  0  0
   39.6470   31.5710   36.1920 H   0  0  0  0  0  0  0  0  0  0  0  0
  1  2  1  0  0  0  0
  2  7  1  0  0  0  0
  2  3  2  0  0  0  0
  3  8  1  0  0  0  0
  4  3  1  0  0  0  0
  5  4  2  0  0  0  0
  6  1  2  0  0  0  0
  6  5  1  0  0  0  0
  9 12  1  6  0  0  0
  9  5  1  0  0  0  0
  9 11  1  0  0  0  0
  9 10  1  0  0  0  0
 10 14  1  0  0  0  0
 10 13  1  0  0  0  0
 11 15  1  6  0  0  0
 11 16  1  0  0  0  0
 11 10  1  0  0  0  0
 16 17  1  0  0  0  0
 18 16  1  0  0  0  0
 19  1  1  0  0  0  0
 20 19  2  0  0  0  0
 21 27  1  6  0  0  0
 21 22  1  0  0  0  0
 22 19  1  6  0  0  0
 23 22  1  0  0  0  0
 24 23  1  0  0  0  0
 25 29  1  1  0  0  0
 25 26  1  0  0  0  0
 25 24  1  0  0  0  0
 26 31  1  6  0  0  0
 26 21  1  0  0  0  0
 28 27  1  0  0  0  0
 30 29  1  0  0  0  0
 32 31  1  0  0  0  0
M  END
>  <minimizedAffinity>
-5.68600082

$$$$

 OpenBabel03252508013D

 32 34  0  0  1  0  0  0  0  0999 V2000
   38.7730   28.4480   41.7970 C   0  0  0  0  0  0  0  0  0  0  0  0
   38.2820   28.6950   43.1160 C   0  0  0  0  0  0  0  0  0  0  0  0
   37.3670   27.7670   43.6270 C   0  0  0  0  0  0  0  0  0  0  0  0
   37.0140   26.7150   42.8530 N   0  0  0  0  0  0  0  0  0  0  0  0
   37.5290   26.5420   41.5880 C   0  0  0  0  0  0  0  0  0  0  0  0
   38.3940   27.3900   41.0630 N   0  0  0  0  0  0  0  0  0  0  0  0
   38.6090   29.5580   43.6790 H   0  0  0  0  0  0  0  0  0  0  0  0
   36.9610   27.8960   44.6140 H   0  0  0  0  0  0  0  0  0  0  0  0
   37.1040   25.3430   40.8030 C   0  0  1  0  0  0  0  0  0  0  0  0
   38.1650   24.4630   40.1800 C   0  0  0  0  0  0  0  0  0  0  0  0
   37.4470   24.0530   41.4370 C   0  0  1  0  0  0  0  0  0  0  0  0
   36.1740   25.4060   40.2130 H   0  0  0  0  0  0  0  0  0  0  0  0
   39.1890   24.9060   40.2460 H   0  0  0  0  0  0  0  0  0  0  0  0
   37.9470   23.9850   39.2210 H   0  0  0  0  0  0  0  0  0  0  0  0
   36.8310   23.1480   41.3100 H   0  0  0  0  0  0  0  0  0  0  0  0
   38.3160   24.0140   42.5890 N   0  0  0  0  0  0  0  0  0  0  0  0
   39.2740   24.3090   42.4580 H   0  0  0  0  0  0  0  0  0  0  0  0
   37.8740   24.0540   43.4980 H   0  0  0  0  0  0  0  0  0  0  0  0
   39.7200   29.4280   41.3250 C   0  0  0  0  0  0  0  0  0  0  0  0
   40.9520   29.4400   41.6790 O   0  0  0  0  0  0  0  0  0  0  0  0
   40.0310   31.7710   40.8890 C   0  0  1  0  0  3  0  0  0  0  0  0
   39.3470   30.5200   40.3800 C   0  0  2  0  0  3  0  0  0  0  0  0
   37.9620   30.6280   40.4250 O   0  0  0  0  0  0  0  0  0  0  0  0
   37.4910   31.7460   39.7560 C   0  0  0  0  0  2  0  0  0  0  0  0
   38.0160   33.0350   40.3200 C   0  0  1  0  0  3  0  0  0  0  0  0
   39.5150   33.0150   40.2340 C   0  0  1  0  0  3  0  0  0  0  0  0
   39.8420   31.8760   42.2650 O   0  0  0  0  0  0  0  0  0  0  0  0
   38.9340   32.1970   42.5080 H   0  0  0  0  0  0  0  0  0  0  0  0
   37.5870   34.0690   39.4770 O   0  0  0  0  0  0  0  0  0  0  0  0
   37.2290   34.8210   40.0090 H   0  0  0  0  0  0  0  0  0  0  0  0
   40.0230   34.0950   40.9920 O   0  0  0  0  0  0  0  0  0  0  0  0
   40.1540   33.8280   41.9450 H   0  0  0  0  0  0  0  0  0  0  0  0
  1  2  1  0  0  0  0
  2  3  2  0  0  0  0
  2  7  1  0  0  0  0
  3  8  1  0  0  0  0
  4  3  1  0  0  0  0
  5  4  2  0  0  0  0
  6  5  1  0  0  0  0
  6  1  2  0  0  0  0
  9 12  1  6  0  0  0
  9 11  1  0  0  0  0
  9  5  1  0  0  0  0
 10 13  1  0  0  0  0
 10  9  1  0  0  0  0
 10 11  1  0  0  0  0
 11 15  1  6  0  0  0
 11 16  1  0  0  0  0
 14 10  1  0  0  0  0
 16 18  1  0  0  0  0
 17 16  1  0  0  0  0
 19 20  2  0  0  0  0
 19  1  1  0  0  0  0
 21 27  1  1  0  0  0
 22 23  1  0  0  0  0
 22 21  1  0  0  0  0
 22 19  1  1  0  0  0
 24 25  1  0  0  0  0
 24 23  1  0  0  0  0
 25 29  1  6  0  0  0
 26 25  1  0  0  0  0
 26 21  1  0  0  0  0
 26 31  1  1  0  0  0
 27 28  1  0  0  0  0
 29 30  1  0  0  0  0
 31 32  1  0  0  0  0
M  END
>  <minimizedAffinity>
-5.57044029

$$$$

 OpenBabel03252508013D

 32 34  0  0  1  0  0  0  0  0999 V2000
   39.1450   28.7660   37.7050 C   0  0  0  0  0  0  0  0  0  0  0  0
   39.7890   27.6800   37.0340 C   0  0  0  0  0  0  0  0  0  0  0  0
   41.1460   27.8470   36.7350 C   0  0  0  0  0  0  0  0  0  0  0  0
   41.7500   29.0030   37.0940 N   0  0  0  0  0  0  0  0  0  0  0  0
   41.0640   30.0080   37.7380 C   0  0  0  0  0  0  0  0  0  0  0  0
   39.7840   29.8970   38.0410 N   0  0  0  0  0  0  0  0  0  0  0  0
   39.2430   26.7830   36.7770 H   0  0  0  0  0  0  0  0  0  0  0  0
   41.6880   27.0660   36.2310 H   0  0  0  0  0  0  0  0  0  0  0  0
   41.8070   31.2470   38.1190 C   0  0  1  0  0  0  0  0  0  0  0  0
   42.4650   32.0690   37.0330 C   0  0  0  0  0  0  0  0  0  0  0  0
   41.1680   32.4990   37.6630 C   0  0  1  0  0  0  0  0  0  0  0  0
   42.3520   31.2570   39.0780 H   0  0  0  0  0  0  0  0  0  0  0  0
   42.4570   31.5600   36.0390 H   0  0  0  0  0  0  0  0  0  0  0  0
   43.4040   32.5800   37.2650 H   0  0  0  0  0  0  0  0  0  0  0  0
   41.2510   33.4440   38.2240 H   0  0  0  0  0  0  0  0  0  0  0  0
   40.0590   32.4580   36.7400 N   0  0  0  0  0  0  0  0  0  0  0  0
   40.2410   32.1040   35.8110 H   0  0  0  0  0  0  0  0  0  0  0  0
   39.1310   32.4290   37.1410 H   0  0  0  0  0  0  0  0  0  0  0  0
   37.7520   28.5370   37.9980 C   0  0  0  0  0  0  0  0  0  0  0  0
   36.8440   28.4870   37.0950 O   0  0  0  0  0  0  0  0  0  0  0  0
   36.4290   29.5700   39.7190 C   0  0  1  0  0  3  0  0  0  0  0  0
   37.2440   28.3370   39.3870 C   0  0  2  0  0  3  0  0  0  0  0  0
   38.3610   28.2150   40.2050 O   0  0  0  0  0  0  0  0  0  0  0  0
   38.0410   28.2370   41.5530 C   0  0  0  0  0  2  0  0  0  0  0  0
   37.3660   29.5090   41.9770 C   0  0  1  0  0  3  0  0  0  0  0  0
   36.1040   29.6680   41.1780 C   0  0  1  0  0  3  0  0  0  0  0  0
   37.1340   30.7080   39.3370 O   0  0  0  0  0  0  0  0  0  0  0  0
   37.8630   30.9430   39.9690 H   0  0  0  0  0  0  0  0  0  0  0  0
   36.9690   29.3510   43.3120 O   0  0  0  0  0  0  0  0  0  0  0  0
   37.2080   30.1510   43.8400 H   0  0  0  0  0  0  0  0  0  0  0  0
   35.6060   30.9750   41.3790 O   0  0  0  0  0  0  0  0  0  0  0  0
   36.0060   31.6130   40.7230 H   0  0  0  0  0  0  0  0  0  0  0  0
  1 19  1  0  0  0  0
  1  6  1  0  0  0  0
  2  1  2  0  0  0  0
  3  2  1  0  0  0  0
  3  4  2  0  0  0  0
  4  5  1  0  0  0  0
  5  6  2  0  0  0  0
  5  9  1  0  0  0  0
  7  2  1  0  0  0  0
  8  3  1  0  0  0  0
  9 12  1  1  0  0  0
 10 14  1  0  0  0  0
 10 11  1  0  0  0  0
 10  9  1  0  0  0  0
 11  9  1  0  0  0  0
 11 15  1  1  0  0  0
 13 10  1  0  0  0  0
 16 18  1  0  0  0  0
 16 11  1  0  0  0  0
 17 16  1  0  0  0  0
 20 19  2  0  0  0  0
 21 27  1  1  0  0  0
 21 26  1  0  0  0  0
 22 19  1  6  0  0  0
 22 21  1  0  0  0  0
 22 23  1  0  0  0  0
 23 24  1  0  0  0  0
 24 25  1  0  0  0  0
 25 29  1  1  0  0  0
 26 31  1  6  0  0  0
 26 25  1  0  0  0  0
 27 28  1  0  0  0  0
 29 30  1  0  0  0  0
 32 31  1  0  0  0  0
M  END
>  <minimizedAffinity>
-5.50758696

$$$$

 OpenBabel03252508013D

 32 34  0  0  1  0  0  0  0  0999 V2000
   38.4150   28.3410   39.5460 C   0  0  0  0  0  0  0  0  0  0  0  0
   37.5030   27.7980   38.5890 C   0  0  0  0  0  0  0  0  0  0  0  0
   36.5620   26.8820   39.0730 C   0  0  0  0  0  0  0  0  0  0  0  0
   36.5760   26.5760   40.3900 N   0  0  0  0  0  0  0  0  0  0  0  0
   37.4880   27.1390   41.2540 C   0  0  0  0  0  0  0  0  0  0  0  0
   38.3940   28.0070   40.8460 N   0  0  0  0  0  0  0  0  0  0  0  0
   37.5490   28.0900   37.5490 H   0  0  0  0  0  0  0  0  0  0  0  0
   35.8470   26.4380   38.4030 H   0  0  0  0  0  0  0  0  0  0  0  0
   37.4260   26.7630   42.7000 C   0  0  1  0  0  0  0  0  0  0  0  0
   38.4590   27.3310   43.6480 C   0  0  0  0  0  0  0  0  0  0  0  0
   37.0580   27.8770   43.5980 C   0  0  1  0  0  0  0  0  0  0  0  0
   37.0910   25.7460   42.9630 H   0  0  0  0  0  0  0  0  0  0  0  0
   39.2840   27.8690   43.1190 H   0  0  0  0  0  0  0  0  0  0  0  0
   38.7960   26.7100   44.4820 H   0  0  0  0  0  0  0  0  0  0  0  0
   36.4990   27.7230   44.5350 H   0  0  0  0  0  0  0  0  0  0  0  0
   37.0050   29.2310   43.0980 N   0  0  0  0  0  0  0  0  0  0  0  0
   37.8730   29.6460   42.7880 H   0  0  0  0  0  0  0  0  0  0  0  0
   36.1130   29.5550   42.7480 H   0  0  0  0  0  0  0  0  0  0  0  0
   39.3550   29.2880   38.9970 C   0  0  0  0  0  0  0  0  0  0  0  0
   40.3990   28.9390   38.3410 O   0  0  0  0  0  0  0  0  0  0  0  0
   40.3850   31.2410   39.9460 C   0  0  1  0  0  3  0  0  0  0  0  0
   39.1910   30.7630   39.1450 C   0  0  2  0  0  3  0  0  0  0  0  0
   37.9950   30.9650   39.8240 O   0  0  0  0  0  0  0  0  0  0  0  0
   37.8200   32.2810   40.2180 C   0  0  0  0  0  2  0  0  0  0  0  0
   38.8970   32.7660   41.1450 C   0  0  1  0  0  3  0  0  0  0  0  0
   40.2190   32.6440   40.4430 C   0  0  1  0  0  3  0  0  0  0  0  0
   40.5810   30.3970   41.0360 O   0  0  0  0  0  0  0  0  0  0  0  0
   39.9390   30.5630   41.7750 H   0  0  0  0  0  0  0  0  0  0  0  0
   38.6870   34.1360   41.3540 O   0  0  0  0  0  0  0  0  0  0  0  0
   38.7660   34.3550   42.3150 H   0  0  0  0  0  0  0  0  0  0  0  0
   41.2510   32.8480   41.3880 O   0  0  0  0  0  0  0  0  0  0  0  0
   41.4980   31.9890   41.8330 H   0  0  0  0  0  0  0  0  0  0  0  0
  1  6  1  0  0  0  0
  2  3  1  0  0  0  0
  2  1  2  0  0  0  0
  3  4  2  0  0  0  0
  4  5  1  0  0  0  0
  5  9  1  0  0  0  0
  6  5  2  0  0  0  0
  7  2  1  0  0  0  0
  8  3  1  0  0  0  0
  9 12  1  1  0  0  0
  9 11  1  0  0  0  0
  9 10  1  0  0  0  0
 10 14  1  0  0  0  0
 11 10  1  0  0  0  0
 11 15  1  1  0  0  0
 13 10  1  0  0  0  0
 16 11  1  0  0  0  0
 17 16  1  0  0  0  0
 18 16  1  0  0  0  0
 19  1  1  0  0  0  0
 20 19  2  0  0  0  0
 21 26  1  0  0  0  0
 21 27  1  1  0  0  0
 22 19  1  1  0  0  0
 22 23  1  0  0  0  0
 22 21  1  0  0  0  0
 23 24  1  0  0  0  0
 24 25  1  0  0  0  0
 25 29  1  6  0  0  0
 26 25  1  0  0  0  0
 26 31  1  1  0  0  0
 27 28  1  0  0  0  0
 29 30  1  0  0  0  0
 31 32  1  0  0  0  0
M  END
>  <minimizedAffinity>
-5.47666931

$$$$
