
 OpenBabel03252505283D

 27 28  0  0  1  0  0  0  0  0999 V2000
   46.8360   31.4350   48.7460 O   0  0  0  0  0  0  0  0  0  0  0  0
   45.9910   31.7290   47.5020 P   0  0  1  0  0  0  0  0  0  0  0  0
   44.3830   31.9630   47.8780 O   0  0  0  0  0  0  0  0  0  0  0  0
   44.3190   32.2880   48.8090 H   0  0  0  0  0  0  0  0  0  0  0  0
   46.6750   33.0960   46.7780 O   0  0  0  0  0  0  0  0  0  0  0  0
   44.5520   35.2680   44.9360 C   0  0  0  0  0  0  0  0  0  0  0  0
   45.0470   35.2200   43.6100 C   0  0  0  0  0  0  0  0  0  0  0  0
   46.1650   34.3870   43.3900 C   0  0  0  0  0  0  0  0  0  0  0  0
   46.6820   33.7000   44.4400 N   0  0  0  0  0  0  0  0  0  0  0  0
   46.1690   33.7830   45.6850 C   0  0  0  0  0  0  0  0  0  0  0  0
   45.1030   34.5700   45.9330 N   0  0  0  0  0  0  0  0  0  0  0  0
   43.6880   35.9070   45.1260 H   0  0  0  0  0  0  0  0  0  0  0  0
   44.6030   35.7850   42.8020 H   0  0  0  0  0  0  0  0  0  0  0  0
   46.5950   34.3030   42.4000 H   0  0  0  0  0  0  0  0  0  0  0  0
   46.1400   30.3640   46.5200 O   0  0  0  0  0  0  0  0  0  0  0  0
   45.5360   28.3380   47.6280 C   0  0  2  0  0  3  0  0  0  0  0  0
   45.0420   29.5320   46.8350 C   0  0  2  0  0  3  0  0  0  0  0  0
   44.4440   29.2050   45.6430 O   0  0  0  0  0  0  0  0  0  0  0  0
   43.3750   28.3440   45.7560 C   0  0  0  0  0  2  0  0  0  0  0  0
   43.6350   27.1830   46.6720 C   0  0  2  0  0  3  0  0  0  0  0  0
   45.1540   27.0990   46.8420 C   0  0  1  0  0  3  0  0  0  0  0  0
   44.9010   28.2290   48.8700 O   0  0  0  0  0  0  0  0  0  0  0  0
   44.1060   28.8040   48.9610 H   0  0  0  0  0  0  0  0  0  0  0  0
   43.1080   25.9840   46.2420 O   0  0  0  0  0  0  0  0  0  0  0  0
   43.1710   25.3660   47.0300 H   0  0  0  0  0  0  0  0  0  0  0  0
   45.7500   27.1830   45.5920 O   0  0  0  0  0  0  0  0  0  0  0  0
   46.6350   27.6280   45.6490 H   0  0  0  0  0  0  0  0  0  0  0  0
  2  3  1  0  0  0  0
  2  1  2  1  0  0  0
  3  4  1  0  0  0  0
  5  2  1  0  0  0  0
  6 12  1  0  0  0  0
  6 11  1  0  0  0  0
  7  6  2  0  0  0  0
  8  7  1  0  0  0  0
  8  9  2  0  0  0  0
  9 10  1  0  0  0  0
 10 11  2  0  0  0  0
 10  5  1  0  0  0  0
 13  7  1  0  0  0  0
 14  8  1  0  0  0  0
 15  2  1  0  0  0  0
 16 22  1  1  0  0  0
 17 15  1  6  0  0  0
 17 16  1  0  0  0  0
 18 19  1  0  0  0  0
 18 17  1  0  0  0  0
 19 20  1  0  0  0  0
 20 24  1  6  0  0  0
 20 21  1  0  0  0  0
 21 26  1  6  0  0  0
 21 16  1  0  0  0  0
 22 23  1  0  0  0  0
 24 25  1  0  0  0  0
 26 27  1  0  0  0  0
M  END
>  <minimizedAffinity>
-4.60362816

>  <minimizedRMSD>
2.39563394

$$$$
