
 OpenBabel03252507463D

 40 42  0  0  1  0  0  0  0  0999 V2000
   48.8580   33.9030   41.2550 C   0  0  0  0  0  0  0  0  0  0  0  0
   48.9990   32.6990   40.5930 C   0  0  0  0  0  0  0  0  0  0  0  0
   50.0850   31.8680   40.8260 C   0  0  0  0  0  0  0  0  0  0  0  0
   51.0080   32.3020   41.7470 N   0  0  0  0  0  0  0  0  0  0  0  0
   50.8360   33.4810   42.3720 C   0  0  0  0  0  0  0  0  0  0  0  0
   49.7900   34.2580   42.1320 N   0  0  0  0  0  0  0  0  0  0  0  0
   50.2000   30.9260   40.3100 H   0  0  0  0  0  0  0  0  0  0  0  0
   51.5390   33.8590   43.1040 H   0  0  0  0  0  0  0  0  0  0  0  0
   47.6680   34.7140   40.9360 C   0  0  0  0  0  0  0  0  0  0  0  0
   46.9870   34.1730   40.2450 H   0  0  0  0  0  0  0  0  0  0  0  0
   47.9470   35.6620   40.4210 H   0  0  0  0  0  0  0  0  0  0  0  0
   46.8370   35.0350   42.1530 C   0  0  0  0  0  0  0  0  0  0  0  0
   47.1500   36.0330   42.5330 H   0  0  0  0  0  0  0  0  0  0  0  0
   47.0570   34.2620   42.9170 H   0  0  0  0  0  0  0  0  0  0  0  0
   45.3710   34.9770   41.9200 C   0  0  0  0  0  0  0  0  0  0  0  0
   44.4860   35.6430   42.8190 C   0  0  0  0  0  0  0  0  0  0  0  0
   42.8280   35.2790   42.1110 S   0  0  0  0  0  0  0  0  0  0  0  0
   43.6230   34.2730   40.7010 C   0  0  0  0  0  0  0  0  0  0  0  0
   44.7310   34.3650   40.9490 N   0  0  0  0  0  0  0  0  0  0  0  0
   44.7500   36.2130   43.6900 H   0  0  0  0  0  0  0  0  0  0  0  0
   42.8780   33.6480   39.7000 O   0  0  0  0  0  0  0  0  0  0  0  0
   40.9640   33.8010   37.8770 O   0  0  0  0  0  0  0  0  0  0  0  0
   41.9550   34.6420   38.6780 P   0  0  0  0  0  0  0  0  0  0  0  0
   41.1180   35.7430   39.6370 O   0  0  0  0  0  0  0  0  0  0  0  0
   40.2890   35.9760   39.1690 H   0  0  0  0  0  0  0  0  0  0  0  0
   42.9910   35.4990   37.6390 O   0  0  0  0  0  0  0  0  0  0  0  0
   42.5540   35.8560   36.8490 H   0  0  0  0  0  0  0  0  0  0  0  0
   47.7490   32.1810   39.3900 S   0  0  0  0  0  0  0  0  0  0  0  0
   48.8630   32.6820   37.0010 C   0  0  2  0  0  3  0  0  0  0  0  0
   48.5390   31.5140   37.9360 C   0  0  2  0  0  3  0  0  0  0  0  0
   47.6370   30.6350   37.3340 O   0  0  0  0  0  0  0  0  0  0  0  0
   46.6600   31.4150   36.7120 C   0  0  0  0  0  2  0  0  0  0  0  0
   47.2050   31.7740   35.3490 C   0  0  2  0  0  3  0  0  0  0  0  0
   48.6110   32.3050   35.5590 C   0  0  1  0  0  3  0  0  0  0  0  0
   50.2150   33.0070   37.1080 O   0  0  0  0  0  0  0  0  0  0  0  0
   50.4010   33.7030   36.4610 H   0  0  0  0  0  0  0  0  0  0  0  0
   46.3770   32.6930   34.7020 O   0  0  0  0  0  0  0  0  0  0  0  0
   46.8660   33.1900   34.0040 H   0  0  0  0  0  0  0  0  0  0  0  0
   48.7870   33.4470   34.7920 O   0  0  0  0  0  0  0  0  0  0  0  0
   48.8010   34.2850   35.2900 H   0  0  0  0  0  0  0  0  0  0  0  0
  1  6  1  0  0  0  0
  2  3  1  0  0  0  0
  2  1  2  0  0  0  0
  3  4  2  0  0  0  0
  4  5  1  0  0  0  0
  5  8  1  0  0  0  0
  6  5  2  0  0  0  0
  7  3  1  0  0  0  0
  9  1  1  0  0  0  0
  9 12  1  0  0  0  0
 10  9  1  0  0  0  0
 11  9  1  0  0  0  0
 12 13  1  0  0  0  0
 12 14  1  0  0  0  0
 15 12  1  0  0  0  0
 15 16  2  0  0  0  0
 16 20  1  0  0  0  0
 17 16  1  0  0  0  0
 18 19  2  0  0  0  0
 18 17  1  0  0  0  0
 19 15  1  0  0  0  0
 21 18  1  0  0  0  0
 22 23  2  0  0  0  0
 23 24  1  0  0  0  0
 23 21  1  0  0  0  0
 25 24  1  0  0  0  0
 26 23  1  0  0  0  0
 27 26  1  0  0  0  0
 28  2  1  0  0  0  0
 29 35  1  6  0  0  0
 29 30  1  0  0  0  0
 30 28  1  1  0  0  0
 31 30  1  0  0  0  0
 32 31  1  0  0  0  0
 33 37  1  1  0  0  0
 33 34  1  0  0  0  0
 33 32  1  0  0  0  0
 34 39  1  6  0  0  0
 34 29  1  0  0  0  0
 36 35  1  0  0  0  0
 38 37  1  0  0  0  0
 39 40  1  0  0  0  0
M  END
>  <minimizedAffinity>
-5.87295818

>  <minimizedRMSD>
2.75649619

$$$$
