
 OpenBabel03252508473D

 48 50  0  0  1  0  0  0  0  0999 V2000
   42.7130   31.5320   42.5760 N   0  0  0  0  0  0  0  0  0  0  0  0
   42.8880   31.9080   43.5480 H   0  0  0  0  0  0  0  0  0  0  0  0
   43.0520   32.5520   41.6390 C   0  0  0  0  0  0  0  0  0  0  0  0
   43.5270   32.1580   40.7090 H   0  0  0  0  0  0  0  0  0  0  0  0
   42.0840   33.0290   41.3220 H   0  0  0  0  0  0  0  0  0  0  0  0
   43.6510   34.9640   41.8820 C   0  0  0  0  0  0  0  0  0  0  0  0
   43.9070   33.6420   42.1840 C   0  0  0  0  0  0  0  0  0  0  0  0
   44.9810   33.3530   43.0070 C   0  0  0  0  0  0  0  0  0  0  0  0
   45.7630   34.3570   43.5040 C   0  0  0  0  0  0  0  0  0  0  0  0
   45.5180   35.6790   43.2110 C   0  0  0  0  0  0  0  0  0  0  0  0
   44.4390   35.9240   42.3870 C   0  0  0  0  0  0  0  0  0  0  0  0
   45.1830   32.3070   43.2460 H   0  0  0  0  0  0  0  0  0  0  0  0
   46.5830   34.0440   44.1390 H   0  0  0  0  0  0  0  0  0  0  0  0
   46.1510   36.4670   43.6140 H   0  0  0  0  0  0  0  0  0  0  0  0
   44.1900   36.9490   42.1150 H   0  0  0  0  0  0  0  0  0  0  0  0
   40.2230   35.7890   40.5230 C   0  0  0  0  0  0  0  0  0  0  0  0
   41.2550   35.5760   41.4540 C   0  0  0  0  0  0  0  0  0  0  0  0
   42.5070   35.2110   41.0100 C   0  0  0  0  0  0  0  0  0  0  0  0
   42.6730   35.0730   39.6630 N   0  0  0  0  0  0  0  0  0  0  0  0
   41.6700   35.2820   38.7750 C   0  0  0  0  0  0  0  0  0  0  0  0
   40.4560   35.6370   39.2190 N   0  0  0  0  0  0  0  0  0  0  0  0
   39.2420   36.0790   40.9260 H   0  0  0  0  0  0  0  0  0  0  0  0
   41.1390   35.6810   42.5160 H   0  0  0  0  0  0  0  0  0  0  0  0
   41.8590   35.1580   37.7070 H   0  0  0  0  0  0  0  0  0  0  0  0
   41.0400   31.1430   42.5570 S   0  0  0  0  0  0  0  0  0  0  0  0
   40.2020   32.3850   42.4470 O   0  0  0  0  0  0  0  0  0  0  0  0
   39.6030   32.6550   43.1650 H   0  0  0  0  0  0  0  0  0  0  0  0
   40.6570   30.3470   43.7630 O   0  0  0  0  0  0  0  0  0  0  0  0
   40.7480   30.7240   44.6610 H   0  0  0  0  0  0  0  0  0  0  0  0
   40.7860   30.1970   41.1920 O   0  0  0  0  0  0  0  0  0  0  0  0
   39.6000   29.4840   41.3640 C   0  0  0  0  0  0  0  0  0  0  0  0
   38.9460   29.7900   40.5220 H   0  0  0  0  0  0  0  0  0  0  0  0
   39.0930   29.6860   42.3150 H   0  0  0  0  0  0  0  0  0  0  0  0
   39.9010   28.0040   41.1770 C   0  0  0  0  0  0  0  0  0  0  0  0
   40.2480   27.8460   40.1450 H   0  0  0  0  0  0  0  0  0  0  0  0
   40.6700   27.6720   41.9190 H   0  0  0  0  0  0  0  0  0  0  0  0
   38.7940   25.7750   41.3520 C   0  0  2  0  0  3  0  0  0  0  0  0
   38.6310   27.2470   41.4880 C   0  0  2  0  0  3  0  0  0  0  0  0
   37.6450   27.7880   40.6710 O   0  0  0  0  0  0  0  0  0  0  0  0
   36.4880   27.0520   40.6150 C   0  0  0  0  0  2  0  0  0  0  0  0
   36.7040   25.7080   39.9630 C   0  0  1  0  0  3  0  0  0  0  0  0
   38.0740   25.1610   40.1770 C   0  0  2  0  0  3  0  0  0  0  0  0
   38.3720   25.1070   42.5280 O   0  0  0  0  0  0  0  0  0  0  0  0
   38.3100   25.7290   43.2810 H   0  0  0  0  0  0  0  0  0  0  0  0
   35.7540   24.7740   40.3750 O   0  0  0  0  0  0  0  0  0  0  0  0
   36.0710   23.8890   40.0640 H   0  0  0  0  0  0  0  0  0  0  0  0
   37.9850   23.7830   40.4810 O   0  0  0  0  0  0  0  0  0  0  0  0
   38.9390   23.5300   40.7000 H   0  0  0  0  0  0  0  0  0  0  0  0
  1  2  1  0  0  0  0
  3  7  1  0  0  0  0
  3  1  1  0  0  0  0
  4  3  1  0  0  0  0
  5  3  1  0  0  0  0
  6  7  2  0  0  0  0
  6 11  1  0  0  0  0
  7  8  1  0  0  0  0
  8 12  1  0  0  0  0
  8  9  2  0  0  0  0
  9 13  1  0  0  0  0
 10  9  1  0  0  0  0
 10 14  1  0  0  0  0
 11 10  2  0  0  0  0
 15 11  1  0  0  0  0
 16 22  1  0  0  0  0
 16 17  1  0  0  0  0
 17 23  1  0  0  0  0
 18 17  2  0  0  0  0
 18  6  1  0  0  0  0
 19 18  1  0  0  0  0
 20 21  1  0  0  0  0
 20 19  2  0  0  0  0
 21 16  2  0  0  0  0
 24 20  1  0  0  0  0
 25  1  1  0  0  0  0
 25 28  1  0  0  0  0
 26 25  1  0  0  0  0
 26 27  1  0  0  0  0
 28 29  1  0  0  0  0
 30 31  1  0  0  0  0
 30 25  1  0  0  0  0
 31 33  1  0  0  0  0
 32 31  1  0  0  0  0
 34 31  1  0  0  0  0
 34 36  1  0  0  0  0
 35 34  1  0  0  0  0
 37 38  1  0  0  0  0
 37 43  1  1  0  0  0
 38 34  1  6  0  0  0
 39 38  1  0  0  0  0
 40 39  1  0  0  0  0
 41 42  1  0  0  0  0
 41 45  1  1  0  0  0
 41 40  1  0  0  0  0
 42 47  1  1  0  0  0
 42 37  1  0  0  0  0
 43 44  1  0  0  0  0
 46 45  1  0  0  0  0
 47 48  1  0  0  0  0
M  END
>  <minimizedAffinity>
-5.32082891

>  <minimizedRMSD>
1.20565248

$$$$
