
 OpenBabel03242522503D

 29 30  0  0  1  0  0  0  0  0999 V2000
   47.4640   32.0840   48.4250 O   0  0  0  0  0  0  0  0  0  0  0  0
   45.3990   30.6780   47.6450 O   0  0  0  0  0  0  0  0  0  0  0  0
   45.8150   31.9630   48.3960 P   0  0  1  0  0  0  0  0  0  0  0  0
   45.1690   31.8130   49.9410 O   0  0  0  0  0  0  0  0  0  0  0  0
   44.4780   32.4890   50.1570 H   0  0  0  0  0  0  0  0  0  0  0  0
   45.1380   33.2860   47.6000 O   0  0  0  0  0  0  0  0  0  0  0  0
   46.9970   33.2150   44.4790 C   0  0  0  0  0  0  0  0  0  0  0  0
   46.5640   32.9050   45.7800 C   0  0  0  0  0  0  0  0  0  0  0  0
   45.5250   33.6260   46.3210 C   0  0  0  0  0  0  0  0  0  0  0  0
   44.9720   34.6010   45.5650 N   0  0  0  0  0  0  0  0  0  0  0  0
   45.3800   34.9000   44.3260 C   0  0  0  0  0  0  0  0  0  0  0  0
   46.4060   34.1960   43.7800 N   0  0  0  0  0  0  0  0  0  0  0  0
   47.8030   32.7080   43.9660 H   0  0  0  0  0  0  0  0  0  0  0  0
   47.1290   32.1090   46.1910 H   0  0  0  0  0  0  0  0  0  0  0  0
   44.9190   35.6790   43.7540 H   0  0  0  0  0  0  0  0  0  0  0  0
   48.4230   31.2220   48.8360 C   0  0  0  0  0  0  0  0  0  0  0  0
   49.4610   31.8110   49.2990 O   0  0  0  0  0  0  0  0  0  0  0  0
   50.2250   30.1850   50.1810 C   0  0  2  0  0  3  0  0  0  0  0  0
   49.1500   29.9740   49.1380 C   0  0  2  0  0  3  0  0  0  0  0  0
   49.6450   29.3700   47.9880 O   0  0  0  0  0  0  0  0  0  0  0  0
   50.9720   29.6190   47.7280 C   0  0  0  0  0  2  0  0  0  0  0  0
   51.9350   29.2330   48.8060 C   0  0  2  0  0  3  0  0  0  0  0  0
   51.1230   28.9600   50.0600 C   0  0  1  0  0  3  0  0  0  0  0  0
   49.6450   30.2260   51.4700 O   0  0  0  0  0  0  0  0  0  0  0  0
   49.7090   29.3190   51.8720 H   0  0  0  0  0  0  0  0  0  0  0  0
   52.7530   30.3360   49.1390 O   0  0  0  0  0  0  0  0  0  0  0  0
   53.1560   30.7510   48.3490 H   0  0  0  0  0  0  0  0  0  0  0  0
   51.9390   28.7880   51.1660 O   0  0  0  0  0  0  0  0  0  0  0  0
   51.7450   29.4470   51.8590 H   0  0  0  0  0  0  0  0  0  0  0  0
  1 16  1  0  0  0  0
  3  2  2  6  0  0  0
  3  1  1  0  0  0  0
  3  4  1  0  0  0  0
  4  5  1  0  0  0  0
  6  3  1  0  0  0  0
  7  8  1  0  0  0  0
  8 14  1  0  0  0  0
  8  9  2  0  0  0  0
  9  6  1  0  0  0  0
 10  9  1  0  0  0  0
 11 10  2  0  0  0  0
 12 11  1  0  0  0  0
 12  7  2  0  0  0  0
 13  7  1  0  0  0  0
 15 11  1  0  0  0  0
 16 17  2  0  0  0  0
 18 24  1  1  0  0  0
 19 16  1  6  0  0  0
 19 18  1  0  0  0  0
 20 19  1  0  0  0  0
 21 20  1  0  0  0  0
 21 22  1  0  0  0  0
 22 26  1  1  0  0  0
 22 23  1  0  0  0  0
 23 18  1  0  0  0  0
 23 28  1  1  0  0  0
 24 25  1  0  0  0  0
 27 26  1  0  0  0  0
 28 29  1  0  0  0  0
M  END
>  <minimizedAffinity>
-5.1393528

>  <minimizedRMSD>
0.622398913

$$$$
