
 OpenBabel03242517433D

 22 23  0  0  1  0  0  0  0  0999 V2000
   41.1400   34.9050   41.4660 C   0  0  2  0  0  0  0  0  0  0  0  0
   42.3310   34.0010   41.2250 C   0  0  1  0  0  0  0  0  0  0  0  0
   42.2920   33.4880   39.9090 O   0  0  0  0  0  0  0  0  0  0  0  0
   42.5390   34.6060   39.0890 C   0  0  0  0  0  0  0  0  0  0  0  0
   41.3010   35.4790   39.0500 C   0  0  2  0  0  0  0  0  0  0  0  0
   41.0820   36.0230   40.4500 C   0  0  1  0  0  0  0  0  0  0  0  0
   41.2370   35.4290   42.7410 O   0  0  0  0  0  0  0  0  0  0  0  0
   40.8680   36.3610   42.8000 H   0  0  0  0  0  0  0  0  0  0  0  0
   40.2030   34.7190   38.6490 O   0  0  0  0  0  0  0  0  0  0  0  0
   40.5230   33.8390   38.3520 H   0  0  0  0  0  0  0  0  0  0  0  0
   39.8600   36.6520   40.5570 O   0  0  0  0  0  0  0  0  0  0  0  0
   39.9840   37.6010   40.2570 H   0  0  0  0  0  0  0  0  0  0  0  0
   43.9050   34.8500   41.4210 S   0  0  0  0  0  0  0  0  0  0  0  0
   44.4050   35.5390   44.0750 C   0  0  0  0  0  0  0  0  0  0  0  0
   44.5190   34.5670   43.0760 C   0  0  0  0  0  0  0  0  0  0  0  0
   45.1240   33.3500   43.3880 C   0  0  0  0  0  0  0  0  0  0  0  0
   45.5750   33.1820   44.6730 N   0  0  0  0  0  0  0  0  0  0  0  0
   45.4440   34.1380   45.5950 C   0  0  0  0  0  0  0  0  0  0  0  0
   44.8650   35.3280   45.3330 N   0  0  0  0  0  0  0  0  0  0  0  0
   43.9450   36.4950   43.8660 H   0  0  0  0  0  0  0  0  0  0  0  0
   45.2060   32.6080   42.6060 H   0  0  0  0  0  0  0  0  0  0  0  0
   45.8700   33.7770   46.5260 H   0  0  0  0  0  0  0  0  0  0  0  0
  1  7  1  1  0  0  0
  2 13  1  6  0  0  0
  2  1  1  0  0  0  0
  3  2  1  0  0  0  0
  4  3  1  0  0  0  0
  5  9  1  1  0  0  0
  5  4  1  0  0  0  0
  5  6  1  0  0  0  0
  6 11  1  6  0  0  0
  6  1  1  0  0  0  0
  7  8  1  0  0  0  0
 10  9  1  0  0  0  0
 12 11  1  0  0  0  0
 13 15  1  0  0  0  0
 14 19  1  0  0  0  0
 15 16  1  0  0  0  0
 15 14  2  0  0  0  0
 16 17  2  0  0  0  0
 17 18  1  0  0  0  0
 18 22  1  0  0  0  0
 19 18  2  0  0  0  0
 20 14  1  0  0  0  0
 21 16  1  0  0  0  0
M  END
>  <minimizedAffinity>
-4.74705029

>  <minimizedRMSD>
1.41072321

$$$$
