
 OpenBabel03252504483D

 30 31  0  0  1  0  0  0  0  0999 V2000
   34.1680   29.2070   39.7440 O   0  0  0  0  0  0  0  0  0  0  0  0
   35.5750   29.3780   40.3460 P   0  0  1  0  0  0  0  0  0  0  0  0
   35.5940   30.8440   41.1580 O   0  0  0  0  0  0  0  0  0  0  0  0
   34.8410   30.8170   41.8260 H   0  0  0  0  0  0  0  0  0  0  0  0
   35.8290   28.0240   41.3220 O   0  0  0  0  0  0  0  0  0  0  0  0
   38.6940   26.3030   42.7300 C   0  0  0  0  0  0  0  0  0  0  0  0
   39.3500   27.3690   43.3290 C   0  0  0  0  0  0  0  0  0  0  0  0
   38.8000   28.6490   43.2380 C   0  0  0  0  0  0  0  0  0  0  0  0
   37.6310   28.7670   42.5540 N   0  0  0  0  0  0  0  0  0  0  0  0
   37.0110   27.7180   41.9800 C   0  0  0  0  0  0  0  0  0  0  0  0
   37.5450   26.4730   42.0680 N   0  0  0  0  0  0  0  0  0  0  0  0
   40.2730   27.2560   43.8660 H   0  0  0  0  0  0  0  0  0  0  0  0
   39.2850   29.5020   43.6930 H   0  0  0  0  0  0  0  0  0  0  0  0
   39.2780   24.9400   42.8270 C   0  0  0  0  0  0  0  0  0  0  0  0
   40.0260   24.7880   42.0210 H   0  0  0  0  0  0  0  0  0  0  0  0
   38.4510   24.2010   42.7230 H   0  0  0  0  0  0  0  0  0  0  0  0
   39.6930   24.7990   43.8500 H   0  0  0  0  0  0  0  0  0  0  0  0
   36.7380   29.4250   39.1190 O   0  0  0  0  0  0  0  0  0  0  0  0
   38.2170   30.6940   37.7570 C   0  0  2  0  0  3  0  0  0  0  0  0
   37.2910   30.6840   38.9580 C   0  0  2  0  0  3  0  0  0  0  0  0
   38.0720   30.9280   40.0850 O   0  0  0  0  0  0  0  0  0  0  0  0
   38.7220   32.1410   40.0730 C   0  0  0  0  0  2  0  0  0  0  0  0
   39.6600   32.2840   38.8830 C   0  0  1  0  0  3  0  0  0  0  0  0
   38.8000   32.1040   37.6530 C   0  0  1  0  0  3  0  0  0  0  0  0
   37.5670   30.4420   36.5670 O   0  0  0  0  0  0  0  0  0  0  0  0
   36.7140   30.9460   36.4960 H   0  0  0  0  0  0  0  0  0  0  0  0
   40.1480   33.5860   38.9150 O   0  0  0  0  0  0  0  0  0  0  0  0
   41.1290   33.5450   38.7330 H   0  0  0  0  0  0  0  0  0  0  0  0
   39.4730   32.3200   36.4670 O   0  0  0  0  0  0  0  0  0  0  0  0
   38.7740   32.4760   35.7790 H   0  0  0  0  0  0  0  0  0  0  0  0
  2  1  2  6  0  0  0
  2  3  1  0  0  0  0
  2  5  1  0  0  0  0
  3  4  1  0  0  0  0
  5 10  1  0  0  0  0
  6 14  1  0  0  0  0
  6  7  1  0  0  0  0
  7 12  1  0  0  0  0
  8  7  2  0  0  0  0
  8 13  1  0  0  0  0
  9  8  1  0  0  0  0
 10 11  1  0  0  0  0
 10  9  2  0  0  0  0
 11  6  2  0  0  0  0
 14 17  1  0  0  0  0
 15 14  1  0  0  0  0
 16 14  1  0  0  0  0
 18  2  1  0  0  0  0
 19 25  1  6  0  0  0
 19 20  1  0  0  0  0
 20 18  1  1  0  0  0
 20 21  1  0  0  0  0
 22 21  1  0  0  0  0
 23 27  1  6  0  0  0
 23 22  1  0  0  0  0
 24 29  1  6  0  0  0
 24 19  1  0  0  0  0
 24 23  1  0  0  0  0
 26 25  1  0  0  0  0
 28 27  1  0  0  0  0
 30 29  1  0  0  0  0
M  END
>  <minimizedAffinity>
-6.03087473

$$$$

 OpenBabel03252504483D

 30 31  0  0  1  0  0  0  0  0999 V2000
   37.6370   28.6870   38.3070 O   0  0  0  0  0  0  0  0  0  0  0  0
   36.5420   29.7650   38.3990 P   0  0  1  0  0  0  0  0  0  0  0  0
   35.3660   29.3790   37.2680 O   0  0  0  0  0  0  0  0  0  0  0  0
   35.0630   28.4410   37.4710 H   0  0  0  0  0  0  0  0  0  0  0  0
   36.0140   29.7540   40.0020 O   0  0  0  0  0  0  0  0  0  0  0  0
   37.1420   27.1730   42.2860 C   0  0  0  0  0  0  0  0  0  0  0  0
   37.9030   27.9340   43.1620 C   0  0  0  0  0  0  0  0  0  0  0  0
   38.0130   29.3100   42.9510 C   0  0  0  0  0  0  0  0  0  0  0  0
   37.3510   29.8220   41.8800 N   0  0  0  0  0  0  0  0  0  0  0  0
   36.6190   29.0630   41.0420 C   0  0  0  0  0  0  0  0  0  0  0  0
   36.5100   27.7250   41.2460 N   0  0  0  0  0  0  0  0  0  0  0  0
   38.4180   27.5110   44.0030 H   0  0  0  0  0  0  0  0  0  0  0  0
   38.5980   29.9340   43.6140 H   0  0  0  0  0  0  0  0  0  0  0  0
   37.0230   25.7080   42.5090 C   0  0  0  0  0  0  0  0  0  0  0  0
   37.8820   25.1810   42.0450 H   0  0  0  0  0  0  0  0  0  0  0  0
   36.0710   25.3630   42.0450 H   0  0  0  0  0  0  0  0  0  0  0  0
   36.9230   25.5180   43.6010 H   0  0  0  0  0  0  0  0  0  0  0  0
   37.1790   31.2850   38.0170 O   0  0  0  0  0  0  0  0  0  0  0  0
   37.7980   32.8670   39.6810 C   0  0  2  0  0  3  0  0  0  0  0  0
   38.2100   31.6580   38.8630 C   0  0  2  0  0  3  0  0  0  0  0  0
   39.2740   32.0480   38.0540 O   0  0  0  0  0  0  0  0  0  0  0  0
   40.3840   32.4780   38.7450 C   0  0  0  0  0  2  0  0  0  0  0  0
   40.0840   33.6750   39.6360 C   0  0  1  0  0  3  0  0  0  0  0  0
   38.9860   33.2290   40.5740 C   0  0  1  0  0  3  0  0  0  0  0  0
   36.7300   32.6200   40.5180 O   0  0  0  0  0  0  0  0  0  0  0  0
   36.8240   31.7520   40.9930 H   0  0  0  0  0  0  0  0  0  0  0  0
   41.2400   33.9250   40.3680 O   0  0  0  0  0  0  0  0  0  0  0  0
   41.3920   34.9120   40.3630 H   0  0  0  0  0  0  0  0  0  0  0  0
   38.6670   34.1610   41.5400 O   0  0  0  0  0  0  0  0  0  0  0  0
   38.1840   33.6660   42.2520 H   0  0  0  0  0  0  0  0  0  0  0  0
  2  1  2  6  0  0  0
  2  5  1  0  0  0  0
  3  4  1  0  0  0  0
  3  2  1  0  0  0  0
  5 10  1  0  0  0  0
  6 14  1  0  0  0  0
  6  7  1  0  0  0  0
  7 12  1  0  0  0  0
  8  7  2  0  0  0  0
  8 13  1  0  0  0  0
  9  8  1  0  0  0  0
 10 11  1  0  0  0  0
 10  9  2  0  0  0  0
 11  6  2  0  0  0  0
 14 17  1  0  0  0  0
 15 14  1  0  0  0  0
 16 14  1  0  0  0  0
 18  2  1  0  0  0  0
 19 25  1  1  0  0  0
 19 24  1  0  0  0  0
 20 18  1  6  0  0  0
 20 19  1  0  0  0  0
 21 22  1  0  0  0  0
 21 20  1  0  0  0  0
 22 23  1  0  0  0  0
 23 27  1  1  0  0  0
 23 24  1  0  0  0  0
 24 29  1  1  0  0  0
 25 26  1  0  0  0  0
 28 27  1  0  0  0  0
 29 30  1  0  0  0  0
M  END
>  <minimizedAffinity>
-5.79474068

$$$$

 OpenBabel03252504483D

 30 31  0  0  1  0  0  0  0  0999 V2000
   36.2300   26.9140   43.1450 O   0  0  0  0  0  0  0  0  0  0  0  0
   37.2770   27.9400   42.6730 P   0  0  1  0  0  0  0  0  0  0  0  0
   37.1540   29.2750   43.6800 O   0  0  0  0  0  0  0  0  0  0  0  0
   37.2730   28.9410   44.6220 H   0  0  0  0  0  0  0  0  0  0  0  0
   38.7640   27.1440   42.7310 O   0  0  0  0  0  0  0  0  0  0  0  0
   39.3780   24.5270   40.2960 C   0  0  0  0  0  0  0  0  0  0  0  0
   40.5320   25.0140   39.6980 C   0  0  0  0  0  0  0  0  0  0  0  0
   41.0730   26.2230   40.1400 C   0  0  0  0  0  0  0  0  0  0  0  0
   40.4180   26.8560   41.1490 N   0  0  0  0  0  0  0  0  0  0  0  0
   39.2980   26.3650   41.7150 C   0  0  0  0  0  0  0  0  0  0  0  0
   38.7710   25.1890   41.2860 N   0  0  0  0  0  0  0  0  0  0  0  0
   41.0350   24.4990   38.9010 H   0  0  0  0  0  0  0  0  0  0  0  0
   41.9710   26.6320   39.6960 H   0  0  0  0  0  0  0  0  0  0  0  0
   38.8020   23.2400   39.8270 C   0  0  0  0  0  0  0  0  0  0  0  0
   38.1420   23.4150   38.9520 H   0  0  0  0  0  0  0  0  0  0  0  0
   38.2140   22.7990   40.6640 H   0  0  0  0  0  0  0  0  0  0  0  0
   39.6320   22.5280   39.6220 H   0  0  0  0  0  0  0  0  0  0  0  0
   36.9490   28.4270   41.0870 O   0  0  0  0  0  0  0  0  0  0  0  0
   36.6280   30.6880   40.4210 C   0  0  2  0  0  3  0  0  0  0  0  0
   37.6220   29.5860   40.7370 C   0  0  2  0  0  3  0  0  0  0  0  0
   38.3190   29.3090   39.5640 O   0  0  0  0  0  0  0  0  0  0  0  0
   39.0290   30.3740   39.0590 C   0  0  0  0  0  2  0  0  0  0  0  0
   38.1350   31.5640   38.7360 C   0  0  1  0  0  3  0  0  0  0  0  0
   37.4390   31.9230   40.0280 C   0  0  1  0  0  3  0  0  0  0  0  0
   35.8510   31.0460   41.5030 O   0  0  0  0  0  0  0  0  0  0  0  0
   36.3900   31.1350   42.3330 H   0  0  0  0  0  0  0  0  0  0  0  0
   38.9790   32.6050   38.3640 O   0  0  0  0  0  0  0  0  0  0  0  0
   38.5830   33.0390   37.5560 H   0  0  0  0  0  0  0  0  0  0  0  0
   36.6700   33.0660   39.9470 O   0  0  0  0  0  0  0  0  0  0  0  0
   36.5220   33.3660   40.8820 H   0  0  0  0  0  0  0  0  0  0  0  0
  2  5  1  0  0  0  0
  2  1  2  1  0  0  0
  2  3  1  0  0  0  0
  3  4  1  0  0  0  0
  6 11  1  0  0  0  0
  7  8  1  0  0  0  0
  7  6  2  0  0  0  0
  8  9  2  0  0  0  0
  9 10  1  0  0  0  0
 10  5  1  0  0  0  0
 11 10  2  0  0  0  0
 12  7  1  0  0  0  0
 13  8  1  0  0  0  0
 14  6  1  0  0  0  0
 14 16  1  0  0  0  0
 15 14  1  0  0  0  0
 17 14  1  0  0  0  0
 18  2  1  0  0  0  0
 19 20  1  0  0  0  0
 19 25  1  1  0  0  0
 20 18  1  6  0  0  0
 21 20  1  0  0  0  0
 22 21  1  0  0  0  0
 23 27  1  1  0  0  0
 23 22  1  0  0  0  0
 23 24  1  0  0  0  0
 24 29  1  6  0  0  0
 24 19  1  0  0  0  0
 25 26  1  0  0  0  0
 28 27  1  0  0  0  0
 29 30  1  0  0  0  0
M  END
>  <minimizedAffinity>
-5.55937719

$$$$

 OpenBabel03252504483D

 30 31  0  0  1  0  0  0  0  0999 V2000
   38.0840   26.8280   39.1380 O   0  0  0  0  0  0  0  0  0  0  0  0
   36.6710   26.6240   39.7140 P   0  0  1  0  0  0  0  0  0  0  0  0
   35.7660   25.8350   38.5440 O   0  0  0  0  0  0  0  0  0  0  0  0
   36.2630   24.9900   38.3130 H   0  0  0  0  0  0  0  0  0  0  0  0
   36.8760   25.7640   41.1520 O   0  0  0  0  0  0  0  0  0  0  0  0
   39.8660   26.6590   42.9980 C   0  0  0  0  0  0  0  0  0  0  0  0
   40.2920   25.4020   43.4000 C   0  0  0  0  0  0  0  0  0  0  0  0
   39.5490   24.2780   43.0330 C   0  0  0  0  0  0  0  0  0  0  0  0
   38.4340   24.4980   42.2870 N   0  0  0  0  0  0  0  0  0  0  0  0
   38.0380   25.7280   41.9080 C   0  0  0  0  0  0  0  0  0  0  0  0
   38.7600   26.8220   42.2650 N   0  0  0  0  0  0  0  0  0  0  0  0
   41.1770   25.2490   43.9890 H   0  0  0  0  0  0  0  0  0  0  0  0
   39.8520   23.2840   43.3290 H   0  0  0  0  0  0  0  0  0  0  0  0
   40.6560   27.8560   43.3890 C   0  0  0  0  0  0  0  0  0  0  0  0
   40.3530   28.1990   44.3990 H   0  0  0  0  0  0  0  0  0  0  0  0
   40.4610   28.6590   42.6410 H   0  0  0  0  0  0  0  0  0  0  0  0
   41.7390   27.6130   43.3080 H   0  0  0  0  0  0  0  0  0  0  0  0
   35.9470   28.1180   40.0390 O   0  0  0  0  0  0  0  0  0  0  0  0
   36.1360   30.4810   40.2250 C   0  0  2  0  0  3  0  0  0  0  0  0
   36.7900   29.1860   39.7810 C   0  0  2  0  0  3  0  0  0  0  0  0
   36.9440   29.2530   38.3990 O   0  0  0  0  0  0  0  0  0  0  0  0
   37.7420   30.2870   37.9660 C   0  0  0  0  0  2  0  0  0  0  0  0
   37.2040   31.6480   38.3870 C   0  0  1  0  0  3  0  0  0  0  0  0
   37.1130   31.6100   39.8950 C   0  0  1  0  0  3  0  0  0  0  0  0
   35.9060   30.5360   41.5840 O   0  0  0  0  0  0  0  0  0  0  0  0
   36.6860   30.2100   42.1060 H   0  0  0  0  0  0  0  0  0  0  0  0
   38.1560   32.5870   38.0070 O   0  0  0  0  0  0  0  0  0  0  0  0
   37.6720   33.3560   37.5910 H   0  0  0  0  0  0  0  0  0  0  0  0
   36.7500   32.8160   40.4610 O   0  0  0  0  0  0  0  0  0  0  0  0
   37.0160   32.7620   41.4160 H   0  0  0  0  0  0  0  0  0  0  0  0
  2  1  2  6  0  0  0
  2 18  1  0  0  0  0
  2  5  1  0  0  0  0
  3  2  1  0  0  0  0
  4  3  1  0  0  0  0
  5 10  1  0  0  0  0
  6 14  1  0  0  0  0
  6  7  1  0  0  0  0
  7 12  1  0  0  0  0
  8 13  1  0  0  0  0
  8  7  2  0  0  0  0
  9  8  1  0  0  0  0
 10 11  1  0  0  0  0
 10  9  2  0  0  0  0
 11  6  2  0  0  0  0
 14 15  1  0  0  0  0
 16 14  1  0  0  0  0
 17 14  1  0  0  0  0
 19 25  1  1  0  0  0
 20 18  1  6  0  0  0
 20 19  1  0  0  0  0
 21 20  1  0  0  0  0
 22 23  1  0  0  0  0
 22 21  1  0  0  0  0
 23 27  1  1  0  0  0
 23 24  1  0  0  0  0
 24 19  1  0  0  0  0
 24 29  1  6  0  0  0
 25 26  1  0  0  0  0
 28 27  1  0  0  0  0
 29 30  1  0  0  0  0
M  END
>  <minimizedAffinity>
-5.474545

$$$$

 OpenBabel03252504483D

 30 31  0  0  1  0  0  0  0  0999 V2000
   38.1720   27.2100   43.6440 O   0  0  0  0  0  0  0  0  0  0  0  0
   38.7100   27.9220   42.3900 P   0  0  1  0  0  0  0  0  0  0  0  0
   40.0180   28.8560   42.8700 O   0  0  0  0  0  0  0  0  0  0  0  0
   40.6670   28.2350   43.3240 H   0  0  0  0  0  0  0  0  0  0  0  0
   39.0790   26.7000   41.2850 O   0  0  0  0  0  0  0  0  0  0  0  0
   36.5210   25.0070   39.3510 C   0  0  0  0  0  0  0  0  0  0  0  0
   36.4990   23.7780   39.9950 C   0  0  0  0  0  0  0  0  0  0  0  0
   37.3580   23.5570   41.0740 C   0  0  0  0  0  0  0  0  0  0  0  0
   38.1750   24.5840   41.4290 N   0  0  0  0  0  0  0  0  0  0  0  0
   38.1800   25.7690   40.7880 C   0  0  0  0  0  0  0  0  0  0  0  0
   37.3450   25.9850   39.7390 N   0  0  0  0  0  0  0  0  0  0  0  0
   35.8460   22.9790   39.7000 H   0  0  0  0  0  0  0  0  0  0  0  0
   37.3670   22.6110   41.5990 H   0  0  0  0  0  0  0  0  0  0  0  0
   35.6080   25.2440   38.2030 C   0  0  0  0  0  0  0  0  0  0  0  0
   36.0690   24.8700   37.2650 H   0  0  0  0  0  0  0  0  0  0  0  0
   35.4270   26.3410   38.1250 H   0  0  0  0  0  0  0  0  0  0  0  0
   34.6210   24.7820   38.4280 H   0  0  0  0  0  0  0  0  0  0  0  0
   37.5290   28.9430   41.7400 O   0  0  0  0  0  0  0  0  0  0  0  0
   36.9820   30.9930   40.6650 C   0  0  2  0  0  3  0  0  0  0  0  0
   38.0190   30.2030   41.4410 C   0  0  2  0  0  3  0  0  0  0  0  0
   39.1140   30.0210   40.6000 O   0  0  0  0  0  0  0  0  0  0  0  0
   39.7110   31.1880   40.1830 C   0  0  0  0  0  2  0  0  0  0  0  0
   38.7500   32.0880   39.4180 C   0  0  1  0  0  3  0  0  0  0  0  0
   37.5980   32.3590   40.3580 C   0  0  1  0  0  3  0  0  0  0  0  0
   35.8280   31.2270   41.3830 O   0  0  0  0  0  0  0  0  0  0  0  0
   36.0220   31.5110   42.3150 H   0  0  0  0  0  0  0  0  0  0  0  0
   39.4290   33.2760   39.1710 O   0  0  0  0  0  0  0  0  0  0  0  0
   39.2490   33.5340   38.2230 H   0  0  0  0  0  0  0  0  0  0  0  0
   36.6790   33.2630   39.8660 O   0  0  0  0  0  0  0  0  0  0  0  0
   36.1630   33.5860   40.6500 H   0  0  0  0  0  0  0  0  0  0  0  0
  2  3  1  0  0  0  0
  2  1  2  1  0  0  0
  3  4  1  0  0  0  0
  5  2  1  0  0  0  0
  6 11  2  0  0  0  0
  6  7  1  0  0  0  0
  7  8  2  0  0  0  0
  8  9  1  0  0  0  0
  8 13  1  0  0  0  0
 10  5  1  0  0  0  0
 10  9  2  0  0  0  0
 11 10  1  0  0  0  0
 12  7  1  0  0  0  0
 14 17  1  0  0  0  0
 14  6  1  0  0  0  0
 15 14  1  0  0  0  0
 16 14  1  0  0  0  0
 18  2  1  0  0  0  0
 19 25  1  1  0  0  0
 19 20  1  0  0  0  0
 20 18  1  6  0  0  0
 21 20  1  0  0  0  0
 22 21  1  0  0  0  0
 23 27  1  1  0  0  0
 23 22  1  0  0  0  0
 23 24  1  0  0  0  0
 24 29  1  6  0  0  0
 24 19  1  0  0  0  0
 25 26  1  0  0  0  0
 28 27  1  0  0  0  0
 29 30  1  0  0  0  0
M  END
>  <minimizedAffinity>
-5.42315817

$$$$

 OpenBabel03252504483D

 30 31  0  0  1  0  0  0  0  0999 V2000
   40.5090   32.5520   41.0330 O   0  0  0  0  0  0  0  0  0  0  0  0
   39.0950   32.3840   40.4470 P   0  0  1  0  0  0  0  0  0  0  0  0
   38.1660   33.6600   41.0140 O   0  0  0  0  0  0  0  0  0  0  0  0
   38.6430   34.5060   40.7500 H   0  0  0  0  0  0  0  0  0  0  0  0
   39.2900   32.3390   38.7710 O   0  0  0  0  0  0  0  0  0  0  0  0
   41.7930   30.2780   37.1470 C   0  0  0  0  0  0  0  0  0  0  0  0
   42.7180   31.2490   36.7920 C   0  0  0  0  0  0  0  0  0  0  0  0
   42.4650   32.5840   37.1140 C   0  0  0  0  0  0  0  0  0  0  0  0
   41.3040   32.8470   37.7710 N   0  0  0  0  0  0  0  0  0  0  0  0
   40.4200   31.8880   38.1050 C   0  0  0  0  0  0  0  0  0  0  0  0
   40.6650   30.5890   37.7930 N   0  0  0  0  0  0  0  0  0  0  0  0
   43.6300   31.0210   36.2730 H   0  0  0  0  0  0  0  0  0  0  0  0
   43.1640   33.3660   36.8520 H   0  0  0  0  0  0  0  0  0  0  0  0
   42.0610   28.8560   36.8050 C   0  0  0  0  0  0  0  0  0  0  0  0
   41.7210   28.6430   35.7700 H   0  0  0  0  0  0  0  0  0  0  0  0
   41.5050   28.2160   37.5270 H   0  0  0  0  0  0  0  0  0  0  0  0
   43.1410   28.6450   36.9700 H   0  0  0  0  0  0  0  0  0  0  0  0
   38.4050   30.9360   40.9820 O   0  0  0  0  0  0  0  0  0  0  0  0
   36.2180   30.0200   40.7950 C   0  0  2  0  0  3  0  0  0  0  0  0
   37.4960   30.4130   40.0780 C   0  0  2  0  0  3  0  0  0  0  0  0
   38.0600   29.2450   39.5680 O   0  0  0  0  0  0  0  0  0  0  0  0
   37.2660   28.5790   38.6640 C   0  0  0  0  0  2  0  0  0  0  0  0
   35.9290   28.1630   39.2620 C   0  0  1  0  0  3  0  0  0  0  0  0
   35.2750   29.4390   39.7410 C   0  0  1  0  0  3  0  0  0  0  0  0
   35.5650   31.0910   41.3680 O   0  0  0  0  0  0  0  0  0  0  0  0
   35.5300   31.8740   40.7580 H   0  0  0  0  0  0  0  0  0  0  0  0
   35.1790   27.6240   38.2230 O   0  0  0  0  0  0  0  0  0  0  0  0
   34.7450   26.7920   38.5650 H   0  0  0  0  0  0  0  0  0  0  0  0
   33.9890   29.2610   40.2110 O   0  0  0  0  0  0  0  0  0  0  0  0
   33.5670   30.1600   40.2040 H   0  0  0  0  0  0  0  0  0  0  0  0
  2 18  1  0  0  0  0
  2  3  1  0  0  0  0
  2  1  2  1  0  0  0
  4  3  1  0  0  0  0
  5  2  1  0  0  0  0
  6 11  1  0  0  0  0
  7  8  1  0  0  0  0
  7  6  2  0  0  0  0
  8  9  2  0  0  0  0
  9 10  1  0  0  0  0
 10  5  1  0  0  0  0
 11 10  2  0  0  0  0
 12  7  1  0  0  0  0
 13  8  1  0  0  0  0
 14 17  1  0  0  0  0
 14  6  1  0  0  0  0
 14 16  1  0  0  0  0
 15 14  1  0  0  0  0
 19 25  1  6  0  0  0
 20 19  1  0  0  0  0
 20 18  1  1  0  0  0
 21 20  1  0  0  0  0
 22 23  1  0  0  0  0
 22 21  1  0  0  0  0
 23 27  1  6  0  0  0
 23 24  1  0  0  0  0
 24 29  1  1  0  0  0
 24 19  1  0  0  0  0
 26 25  1  0  0  0  0
 27 28  1  0  0  0  0
 30 29  1  0  0  0  0
M  END
>  <minimizedAffinity>
-5.2824564

$$$$

 OpenBabel03252504483D

 30 31  0  0  1  0  0  0  0  0999 V2000
   35.7250   28.9000   41.0630 O   0  0  0  0  0  0  0  0  0  0  0  0
   37.0750   29.3580   41.6440 P   0  0  1  0  0  0  0  0  0  0  0  0
   36.9730   29.2170   43.3110 O   0  0  0  0  0  0  0  0  0  0  0  0
   36.7220   28.2620   43.5080 H   0  0  0  0  0  0  0  0  0  0  0  0
   38.2460   28.3810   40.9200 O   0  0  0  0  0  0  0  0  0  0  0  0
   38.4220   24.8480   40.1220 C   0  0  0  0  0  0  0  0  0  0  0  0
   38.3780   24.3050   41.3990 C   0  0  0  0  0  0  0  0  0  0  0  0
   38.2900   25.1580   42.5010 C   0  0  0  0  0  0  0  0  0  0  0  0
   38.2510   26.4920   42.2430 N   0  0  0  0  0  0  0  0  0  0  0  0
   38.2950   26.9970   40.9950 C   0  0  0  0  0  0  0  0  0  0  0  0
   38.3810   26.1690   39.9220 N   0  0  0  0  0  0  0  0  0  0  0  0
   38.4100   23.2480   41.5820 H   0  0  0  0  0  0  0  0  0  0  0  0
   38.2540   24.7690   43.5090 H   0  0  0  0  0  0  0  0  0  0  0  0
   38.5150   23.9410   38.9480 C   0  0  0  0  0  0  0  0  0  0  0  0
   39.5760   23.6790   38.7530 H   0  0  0  0  0  0  0  0  0  0  0  0
   38.0860   24.4710   38.0670 H   0  0  0  0  0  0  0  0  0  0  0  0
   37.8640   23.0560   39.1250 H   0  0  0  0  0  0  0  0  0  0  0  0
   37.3630   30.9790   41.2560 O   0  0  0  0  0  0  0  0  0  0  0  0
   38.7220   32.5860   40.1490 C   0  0  2  0  0  3  0  0  0  0  0  0
   38.3220   31.1280   40.2680 C   0  0  2  0  0  3  0  0  0  0  0  0
   37.7210   30.7640   39.0650 O   0  0  0  0  0  0  0  0  0  0  0  0
   38.5390   30.8800   37.9640 C   0  0  0  0  0  2  0  0  0  0  0  0
   39.0380   32.3040   37.7610 C   0  0  1  0  0  3  0  0  0  0  0  0
   39.7650   32.6740   39.0340 C   0  0  1  0  0  3  0  0  0  0  0  0
   39.3160   33.0820   41.2910 O   0  0  0  0  0  0  0  0  0  0  0  0
   39.9840   32.4490   41.6670 H   0  0  0  0  0  0  0  0  0  0  0  0
   39.9460   32.2610   36.7090 O   0  0  0  0  0  0  0  0  0  0  0  0
   39.7530   33.0380   36.1120 H   0  0  0  0  0  0  0  0  0  0  0  0
   40.3900   33.9030   38.9800 O   0  0  0  0  0  0  0  0  0  0  0  0
   41.0620   33.9030   39.7110 H   0  0  0  0  0  0  0  0  0  0  0  0
  2  1  2  6  0  0  0
  2  3  1  0  0  0  0
  3  4  1  0  0  0  0
  5 10  1  0  0  0  0
  5  2  1  0  0  0  0
  6  7  1  0  0  0  0
  7 12  1  0  0  0  0
  7  8  2  0  0  0  0
  8 13  1  0  0  0  0
  9  8  1  0  0  0  0
 10  9  2  0  0  0  0
 11  6  2  0  0  0  0
 11 10  1  0  0  0  0
 14 17  1  0  0  0  0
 14  6  1  0  0  0  0
 15 14  1  0  0  0  0
 16 14  1  0  0  0  0
 18  2  1  0  0  0  0
 19 20  1  0  0  0  0
 19 25  1  1  0  0  0
 20 18  1  1  0  0  0
 21 20  1  0  0  0  0
 22 21  1  0  0  0  0
 23 27  1  6  0  0  0
 23 22  1  0  0  0  0
 23 24  1  0  0  0  0
 24 29  1  6  0  0  0
 24 19  1  0  0  0  0
 25 26  1  0  0  0  0
 28 27  1  0  0  0  0
 29 30  1  0  0  0  0
M  END
>  <minimizedAffinity>
-5.22604704

$$$$

 OpenBabel03252504483D

 30 31  0  0  1  0  0  0  0  0999 V2000
   37.3200   32.2040   38.6190 O   0  0  0  0  0  0  0  0  0  0  0  0
   38.0400   31.5110   39.7910 P   0  0  1  0  0  0  0  0  0  0  0  0
   38.1380   32.6220   41.0430 O   0  0  0  0  0  0  0  0  0  0  0  0
   37.1980   32.9270   41.2350 H   0  0  0  0  0  0  0  0  0  0  0  0
   37.1340   30.1290   40.1380 O   0  0  0  0  0  0  0  0  0  0  0  0
   38.9740   27.7920   42.2130 C   0  0  0  0  0  0  0  0  0  0  0  0
   38.4120   26.5950   41.7920 C   0  0  0  0  0  0  0  0  0  0  0  0
   37.4190   26.6140   40.8110 C   0  0  0  0  0  0  0  0  0  0  0  0
   37.0620   27.8320   40.3230 N   0  0  0  0  0  0  0  0  0  0  0  0
   37.6210   28.9820   40.7470 C   0  0  0  0  0  0  0  0  0  0  0  0
   38.5870   28.9640   41.7000 N   0  0  0  0  0  0  0  0  0  0  0  0
   38.7070   25.6430   42.1900 H   0  0  0  0  0  0  0  0  0  0  0  0
   36.9590   25.7000   40.4600 H   0  0  0  0  0  0  0  0  0  0  0  0
   40.0320   27.7730   43.2570 C   0  0  0  0  0  0  0  0  0  0  0  0
   39.5710   27.7630   44.2660 H   0  0  0  0  0  0  0  0  0  0  0  0
   40.6560   28.6870   43.1330 H   0  0  0  0  0  0  0  0  0  0  0  0
   40.7070   26.9090   43.0680 H   0  0  0  0  0  0  0  0  0  0  0  0
   39.6080   31.0680   39.3380 O   0  0  0  0  0  0  0  0  0  0  0  0
   41.0060   32.3330   37.8880 C   0  0  2  0  0  3  0  0  0  0  0  0
   40.4750   32.1460   39.2970 C   0  0  2  0  0  3  0  0  0  0  0  0
   41.5600   31.8220   40.1080 O   0  0  0  0  0  0  0  0  0  0  0  0
   42.5400   32.7880   40.1590 C   0  0  0  0  0  2  0  0  0  0  0  0
   43.1270   33.0900   38.7870 C   0  0  1  0  0  3  0  0  0  0  0  0
   41.9640   33.5240   37.9250 C   0  0  1  0  0  3  0  0  0  0  0  0
   40.0210   32.6400   36.9730 O   0  0  0  0  0  0  0  0  0  0  0  0
   39.3890   33.3230   37.3230 H   0  0  0  0  0  0  0  0  0  0  0  0
   43.9990   34.1600   38.9550 O   0  0  0  0  0  0  0  0  0  0  0  0
   44.8300   33.9540   38.4410 H   0  0  0  0  0  0  0  0  0  0  0  0
   42.3340   33.9540   36.6670 O   0  0  0  0  0  0  0  0  0  0  0  0
   41.5680   34.4820   36.3200 H   0  0  0  0  0  0  0  0  0  0  0  0
  2  1  2  6  0  0  0
  2  5  1  0  0  0  0
  2  3  1  0  0  0  0
  3  4  1  0  0  0  0
  5 10  1  0  0  0  0
  6 14  1  0  0  0  0
  7 12  1  0  0  0  0
  7  6  1  0  0  0  0
  8  7  2  0  0  0  0
  9 10  2  0  0  0  0
  9  8  1  0  0  0  0
 10 11  1  0  0  0  0
 11  6  2  0  0  0  0
 13  8  1  0  0  0  0
 14 15  1  0  0  0  0
 16 14  1  0  0  0  0
 17 14  1  0  0  0  0
 18  2  1  0  0  0  0
 19 25  1  6  0  0  0
 19 24  1  0  0  0  0
 19 20  1  0  0  0  0
 20 18  1  6  0  0  0
 20 21  1  0  0  0  0
 21 22  1  0  0  0  0
 23 27  1  1  0  0  0
 23 22  1  0  0  0  0
 24 29  1  6  0  0  0
 24 23  1  0  0  0  0
 25 26  1  0  0  0  0
 28 27  1  0  0  0  0
 30 29  1  0  0  0  0
M  END
>  <minimizedAffinity>
-5.2109499

$$$$

 OpenBabel03252504483D

 30 31  0  0  1  0  0  0  0  0999 V2000
   41.8660   31.4820   36.8670 O   0  0  0  0  0  0  0  0  0  0  0  0
   40.6230   31.8960   37.6750 P   0  0  1  0  0  0  0  0  0  0  0  0
   39.4550   32.3860   36.5770 O   0  0  0  0  0  0  0  0  0  0  0  0
   39.3170   31.6200   35.9380 H   0  0  0  0  0  0  0  0  0  0  0  0
   40.2040   30.5490   38.6020 O   0  0  0  0  0  0  0  0  0  0  0  0
   38.2590   30.0290   41.6190 C   0  0  0  0  0  0  0  0  0  0  0  0
   37.0320   30.5290   41.2100 C   0  0  0  0  0  0  0  0  0  0  0  0
   36.8970   31.0330   39.9140 C   0  0  0  0  0  0  0  0  0  0  0  0
   38.0020   30.9960   39.1230 N   0  0  0  0  0  0  0  0  0  0  0  0
   39.1850   30.5060   39.5430 C   0  0  0  0  0  0  0  0  0  0  0  0
   39.3170   30.0160   40.8020 N   0  0  0  0  0  0  0  0  0  0  0  0
   36.1700   30.5500   41.8490 H   0  0  0  0  0  0  0  0  0  0  0  0
   35.9550   31.4310   39.5620 H   0  0  0  0  0  0  0  0  0  0  0  0
   38.4040   29.4930   42.9980 C   0  0  0  0  0  0  0  0  0  0  0  0
   38.6300   30.3170   43.7050 H   0  0  0  0  0  0  0  0  0  0  0  0
   39.2390   28.7550   42.9960 H   0  0  0  0  0  0  0  0  0  0  0  0
   37.4860   28.9210   43.2590 H   0  0  0  0  0  0  0  0  0  0  0  0
   40.9880   33.1980   38.6910 O   0  0  0  0  0  0  0  0  0  0  0  0
   41.9390   33.3700   40.8640 C   0  0  2  0  0  3  0  0  0  0  0  0
   42.1560   33.0030   39.4080 C   0  0  2  0  0  3  0  0  0  0  0  0
   43.0980   33.8900   38.8940 O   0  0  0  0  0  0  0  0  0  0  0  0
   44.3230   33.8440   39.5200 C   0  0  0  0  0  2  0  0  0  0  0  0
   44.2270   34.1610   41.0060 C   0  0  1  0  0  3  0  0  0  0  0  0
   43.2690   33.1450   41.5850 C   0  0  1  0  0  3  0  0  0  0  0  0
   41.0050   32.5730   41.4920 O   0  0  0  0  0  0  0  0  0  0  0  0
   41.1290   31.6110   41.2720 H   0  0  0  0  0  0  0  0  0  0  0  0
   45.4940   33.9540   41.5390 O   0  0  0  0  0  0  0  0  0  0  0  0
   45.6920   34.7190   42.1500 H   0  0  0  0  0  0  0  0  0  0  0  0
   43.1520   33.2120   42.9590 O   0  0  0  0  0  0  0  0  0  0  0  0
   42.7640   32.3440   43.2440 H   0  0  0  0  0  0  0  0  0  0  0  0
  2  1  2  6  0  0  0
  2  5  1  0  0  0  0
  2 18  1  0  0  0  0
  3  2  1  0  0  0  0
  4  3  1  0  0  0  0
  5 10  1  0  0  0  0
  6 14  1  0  0  0  0
  7  6  1  0  0  0  0
  7 12  1  0  0  0  0
  8  7  2  0  0  0  0
  9 10  2  0  0  0  0
  9  8  1  0  0  0  0
 10 11  1  0  0  0  0
 11  6  2  0  0  0  0
 13  8  1  0  0  0  0
 14 17  1  0  0  0  0
 14 15  1  0  0  0  0
 16 14  1  0  0  0  0
 19 25  1  1  0  0  0
 19 24  1  0  0  0  0
 20 18  1  6  0  0  0
 20 19  1  0  0  0  0
 21 20  1  0  0  0  0
 21 22  1  0  0  0  0
 22 23  1  0  0  0  0
 23 27  1  1  0  0  0
 23 24  1  0  0  0  0
 24 29  1  1  0  0  0
 26 25  1  0  0  0  0
 27 28  1  0  0  0  0
 29 30  1  0  0  0  0
M  END
>  <minimizedAffinity>
-5.12588358

$$$$
