
 OpenBabel03252507463D

 40 42  0  0  1  0  0  0  0  0999 V2000
   48.4590   33.2910   40.3080 C   0  0  0  0  0  0  0  0  0  0  0  0
   48.6110   32.3770   39.2830 C   0  0  0  0  0  0  0  0  0  0  0  0
   49.6290   31.4350   39.2980 C   0  0  0  0  0  0  0  0  0  0  0  0
   50.4740   31.4580   40.3820 N   0  0  0  0  0  0  0  0  0  0  0  0
   50.2940   32.3640   41.3600 C   0  0  0  0  0  0  0  0  0  0  0  0
   49.3140   33.2530   41.3230 N   0  0  0  0  0  0  0  0  0  0  0  0
   49.7520   30.7180   38.4990 H   0  0  0  0  0  0  0  0  0  0  0  0
   50.9370   32.4150   42.2300 H   0  0  0  0  0  0  0  0  0  0  0  0
   47.3440   34.2500   40.1960 C   0  0  0  0  0  0  0  0  0  0  0  0
   46.5240   33.8430   39.5680 H   0  0  0  0  0  0  0  0  0  0  0  0
   47.6700   35.1970   39.7070 H   0  0  0  0  0  0  0  0  0  0  0  0
   46.7140   34.5700   41.5280 C   0  0  0  0  0  0  0  0  0  0  0  0
   47.2020   35.4840   41.9330 H   0  0  0  0  0  0  0  0  0  0  0  0
   46.9140   33.7140   42.2020 H   0  0  0  0  0  0  0  0  0  0  0  0
   45.2360   34.7190   41.4800 C   0  0  0  0  0  0  0  0  0  0  0  0
   44.5730   35.4990   42.4730 C   0  0  0  0  0  0  0  0  0  0  0  0
   42.8050   35.3730   41.9830 S   0  0  0  0  0  0  0  0  0  0  0  0
   43.2690   34.2710   40.4980 C   0  0  0  0  0  0  0  0  0  0  0  0
   44.4010   34.2070   40.6040 N   0  0  0  0  0  0  0  0  0  0  0  0
   45.0210   36.0220   43.2970 H   0  0  0  0  0  0  0  0  0  0  0  0
   42.3240   33.7610   39.6060 O   0  0  0  0  0  0  0  0  0  0  0  0
   40.5290   34.1410   37.6970 O   0  0  0  0  0  0  0  0  0  0  0  0
   41.5340   34.8670   38.5880 P   0  0  0  0  0  0  0  0  0  0  0  0
   40.7310   35.9860   39.5550 O   0  0  0  0  0  0  0  0  0  0  0  0
   39.9480   36.3030   39.0570 H   0  0  0  0  0  0  0  0  0  0  0  0
   42.6870   35.6880   37.6450 O   0  0  0  0  0  0  0  0  0  0  0  0
   42.3210   36.1120   36.8520 H   0  0  0  0  0  0  0  0  0  0  0  0
   47.4650   32.3950   37.8810 S   0  0  0  0  0  0  0  0  0  0  0  0
   49.0290   32.2360   35.7070 C   0  0  2  0  0  3  0  0  0  0  0  0
   48.0960   31.3730   36.5620 C   0  0  2  0  0  3  0  0  0  0  0  0
   47.0040   30.9350   35.8110 O   0  0  0  0  0  0  0  0  0  0  0  0
   46.5660   32.0220   35.0540 C   0  0  0  0  0  2  0  0  0  0  0  0
   47.4100   32.0360   33.8000 C   0  0  2  0  0  3  0  0  0  0  0  0
   48.8570   31.9230   34.2390 C   0  0  1  0  0  3  0  0  0  0  0  0
   50.3550   31.9530   36.0330 O   0  0  0  0  0  0  0  0  0  0  0  0
   50.9190   32.4650   35.4330 H   0  0  0  0  0  0  0  0  0  0  0  0
   47.1680   33.1830   33.0430 O   0  0  0  0  0  0  0  0  0  0  0  0
   47.9220   33.3820   32.4390 H   0  0  0  0  0  0  0  0  0  0  0  0
   49.6240   32.8330   33.5250 O   0  0  0  0  0  0  0  0  0  0  0  0
   49.9220   33.6110   34.0310 H   0  0  0  0  0  0  0  0  0  0  0  0
  1  6  1  0  0  0  0
  2  3  1  0  0  0  0
  2  1  2  0  0  0  0
  3  4  2  0  0  0  0
  4  5  1  0  0  0  0
  5  8  1  0  0  0  0
  6  5  2  0  0  0  0
  7  3  1  0  0  0  0
  9  1  1  0  0  0  0
  9 12  1  0  0  0  0
 10  9  1  0  0  0  0
 11  9  1  0  0  0  0
 12 13  1  0  0  0  0
 12 14  1  0  0  0  0
 15 12  1  0  0  0  0
 15 16  2  0  0  0  0
 16 20  1  0  0  0  0
 17 16  1  0  0  0  0
 18 19  2  0  0  0  0
 18 17  1  0  0  0  0
 19 15  1  0  0  0  0
 21 18  1  0  0  0  0
 22 23  2  0  0  0  0
 23 24  1  0  0  0  0
 23 21  1  0  0  0  0
 25 24  1  0  0  0  0
 26 23  1  0  0  0  0
 27 26  1  0  0  0  0
 28  2  1  0  0  0  0
 29 35  1  1  0  0  0
 29 30  1  0  0  0  0
 30 28  1  1  0  0  0
 31 30  1  0  0  0  0
 32 31  1  0  0  0  0
 33 37  1  1  0  0  0
 33 34  1  0  0  0  0
 33 32  1  0  0  0  0
 34 39  1  6  0  0  0
 34 29  1  0  0  0  0
 36 35  1  0  0  0  0
 38 37  1  0  0  0  0
 39 40  1  0  0  0  0
M  END
>  <minimizedAffinity>
-6.05572653

>  <minimizedRMSD>
4.02303028

$$$$
