
 OpenBabel03252507103D

 39 41  0  0  1  0  0  0  0  0999 V2000
   44.4870   35.5900   45.0430 C   0  0  0  0  0  0  0  0  0  0  0  0
   44.9820   35.8110   43.7460 C   0  0  0  0  0  0  0  0  0  0  0  0
   46.0030   34.9860   43.3110 C   0  0  0  0  0  0  0  0  0  0  0  0
   46.4740   34.0240   44.1300 N   0  0  0  0  0  0  0  0  0  0  0  0
   45.9910   33.8260   45.3620 C   0  0  0  0  0  0  0  0  0  0  0  0
   44.9880   34.6170   45.8230 N   0  0  0  0  0  0  0  0  0  0  0  0
   43.6870   36.2380   45.3790 H   0  0  0  0  0  0  0  0  0  0  0  0
   44.5610   36.5930   43.1520 H   0  0  0  0  0  0  0  0  0  0  0  0
   45.5050   32.4360   47.3940 C   0  0  1  0  0  0  0  0  0  0  0  0
   46.4690   32.8020   46.3070 C   0  0  1  0  0  0  0  0  0  0  0  0
   46.5650   31.4400   45.5990 C   0  0  0  0  0  0  0  0  0  0  0  0
   46.3250   30.4770   46.5280 O   0  0  0  0  0  0  0  0  0  0  0  0
   46.0800   31.0720   47.7630 C   0  0  0  0  0  0  0  0  0  0  0  0
   44.4910   32.2610   46.9290 H   0  0  0  0  0  0  0  0  0  0  0  0
   47.4570   33.0690   46.7320 H   0  0  0  0  0  0  0  0  0  0  0  0
   45.9650   31.3970   44.6800 H   0  0  0  0  0  0  0  0  0  0  0  0
   47.6310   31.3570   45.2750 H   0  0  0  0  0  0  0  0  0  0  0  0
   46.9720   31.2140   48.3860 H   0  0  0  0  0  0  0  0  0  0  0  0
   45.2850   30.4470   48.2560 H   0  0  0  0  0  0  0  0  0  0  0  0
   45.4420   33.3270   48.4250 O   0  0  0  0  0  0  0  0  0  0  0  0
   44.7080   33.9680   48.2450 H   0  0  0  0  0  0  0  0  0  0  0  0
   46.4860   35.2100   42.0290 O   0  0  0  0  0  0  0  0  0  0  0  0
   46.4910   32.6830   41.2050 O   0  0  0  0  0  0  0  0  0  0  0  0
   47.3130   33.9600   41.1900 P   0  0  1  0  0  0  0  0  0  0  0  0
   47.5980   34.4920   39.6290 O   0  0  0  0  0  0  0  0  0  0  0  0
   46.7810   35.0040   39.3410 H   0  0  0  0  0  0  0  0  0  0  0  0
   48.7580   33.7010   42.0380 O   0  0  0  0  0  0  0  0  0  0  0  0
   50.4050   32.2910   41.0130 C   0  0  2  0  0  0  0  0  0  0  0  0
   49.1340   32.3610   41.7940 C   0  0  1  0  0  0  0  0  0  0  0  0
   49.1400   31.6240   42.9510 O   0  0  0  0  0  0  0  0  0  0  0  0
   50.0760   30.6060   42.9580 C   0  0  0  0  0  0  0  0  0  0  0  0
   50.2210   29.9340   41.6070 C   0  0  1  0  0  0  0  0  0  0  0  0
   50.5910   30.8880   40.5050 C   0  0  1  0  0  0  0  0  0  0  0  0
   51.5140   32.7720   41.6860 O   0  0  0  0  0  0  0  0  0  0  0  0
   51.3020   33.2260   42.5260 H   0  0  0  0  0  0  0  0  0  0  0  0
   51.1460   28.9170   41.7120 O   0  0  0  0  0  0  0  0  0  0  0  0
   51.5970   28.9410   42.5900 H   0  0  0  0  0  0  0  0  0  0  0  0
   49.6860   30.7180   39.4340 O   0  0  0  0  0  0  0  0  0  0  0  0
   49.7900   29.7940   39.0660 H   0  0  0  0  0  0  0  0  0  0  0  0
  1  7  1  0  0  0  0
  1  6  1  0  0  0  0
  2  1  2  0  0  0  0
  3  2  1  0  0  0  0
  3  4  2  0  0  0  0
  4  5  1  0  0  0  0
  5  6  2  0  0  0  0
  5 10  1  0  0  0  0
  8  2  1  0  0  0  0
  9 14  1  6  0  0  0
  9 13  1  0  0  0  0
  9 20  1  0  0  0  0
 10 15  1  1  0  0  0
 10  9  1  0  0  0  0
 11 10  1  0  0  0  0
 11 12  1  0  0  0  0
 12 13  1  0  0  0  0
 13 19  1  0  0  0  0
 13 18  1  0  0  0  0
 16 11  1  0  0  0  0
 17 11  1  0  0  0  0
 21 20  1  0  0  0  0
 22  3  1  0  0  0  0
 24 23  2  6  0  0  0
 24 22  1  0  0  0  0
 24 27  1  0  0  0  0
 25 24  1  0  0  0  0
 26 25  1  0  0  0  0
 28 34  1  1  0  0  0
 28 29  1  0  0  0  0
 29 27  1  1  0  0  0
 29 30  1  0  0  0  0
 30 31  1  0  0  0  0
 32 36  1  1  0  0  0
 32 31  1  0  0  0  0
 33 38  1  6  0  0  0
 33 28  1  0  0  0  0
 33 32  1  0  0  0  0
 34 35  1  0  0  0  0
 36 37  1  0  0  0  0
 39 38  1  0  0  0  0
M  END
>  <minimizedAffinity>
-5.88501358

>  <minimizedRMSD>
2.77781749

$$$$
