
 OpenBabel03252506123D

 39 41  0  0  1  0  0  0  0  0999 V2000
   45.1750   33.3380   41.1090 F   0  0  0  0  0  0  0  0  0  0  0  0
   46.3530   33.9560   40.9680 C   0  0  0  0  0  0  0  0  0  0  0  0
   46.8470   34.7290   42.0050 C   0  0  0  0  0  0  0  0  0  0  0  0
   48.0590   35.4010   41.9390 C   0  0  0  0  0  0  0  0  0  0  0  0
   48.8260   35.3010   40.7770 C   0  0  0  0  0  0  0  0  0  0  0  0
   48.3010   34.5200   39.7630 C   0  0  0  0  0  0  0  0  0  0  0  0
   47.1170   33.8570   39.8120 C   0  0  0  0  0  0  0  0  0  0  0  0
   48.3850   35.9930   42.7960 H   0  0  0  0  0  0  0  0  0  0  0  0
   49.7620   35.8390   40.7670 H   0  0  0  0  0  0  0  0  0  0  0  0
   48.9980   34.5230   38.9280 H   0  0  0  0  0  0  0  0  0  0  0  0
   45.4800   33.9940   45.3310 C   0  0  0  0  0  0  0  0  0  0  0  0
   44.6390   35.1160   45.5530 C   0  0  0  0  0  0  0  0  0  0  0  0
   44.5520   36.1190   44.5530 C   0  0  0  0  0  0  0  0  0  0  0  0
   45.2970   35.9280   43.4220 N   0  0  0  0  0  0  0  0  0  0  0  0
   46.0770   34.8610   43.2460 C   0  0  0  0  0  0  0  0  0  0  0  0
   46.1630   33.9090   44.1910 N   0  0  0  0  0  0  0  0  0  0  0  0
   44.0770   35.2160   46.4570 H   0  0  0  0  0  0  0  0  0  0  0  0
   43.9270   36.9740   44.6930 H   0  0  0  0  0  0  0  0  0  0  0  0
   45.5490   33.0150   46.3400 N   0  0  0  0  0  0  0  0  0  0  0  0
   46.4130   32.6760   46.8580 H   0  0  0  0  0  0  0  0  0  0  0  0
   44.7060   32.4860   46.7110 H   0  0  0  0  0  0  0  0  0  0  0  0
   46.6970   33.1120   38.7440 O   0  0  0  0  0  0  0  0  0  0  0  0
   47.8280   34.6360   36.8960 O   0  0  0  0  0  0  0  0  0  0  0  0
   46.8350   33.5170   37.1170 P   0  0  2  0  0  0  0  0  0  0  0  0
   45.2910   33.9780   36.5470 O   0  0  0  0  0  0  0  0  0  0  0  0
   44.6250   33.4580   37.0510 H   0  0  0  0  0  0  0  0  0  0  0  0
   47.2850   32.2070   36.1580 O   0  0  0  0  0  0  0  0  0  0  0  0
   45.9380   31.7200   34.2200 C   0  0  1  0  0  0  0  0  0  0  0  0
   46.2510   31.4610   35.6730 C   0  0  2  0  0  0  0  0  0  0  0  0
   45.0660   31.5860   36.3810 O   0  0  0  0  0  0  0  0  0  0  0  0
   44.3340   30.4160   36.1120 C   0  0  0  0  0  0  0  0  0  0  0  0
   43.9890   30.2850   34.6600 C   0  0  2  0  0  0  0  0  0  0  0  0
   45.1280   30.5350   33.7310 C   0  0  2  0  0  0  0  0  0  0  0  0
   45.1210   32.8480   34.0410 O   0  0  0  0  0  0  0  0  0  0  0  0
   45.3190   33.4760   34.7800 H   0  0  0  0  0  0  0  0  0  0  0  0
   42.8720   31.0330   34.3730 O   0  0  0  0  0  0  0  0  0  0  0  0
   43.0290   31.8040   33.8050 H   0  0  0  0  0  0  0  0  0  0  0  0
   45.9250   29.4200   33.4860 O   0  0  0  0  0  0  0  0  0  0  0  0
   45.4040   28.8570   32.8600 H   0  0  0  0  0  0  0  0  0  0  0  0
  2  1  1  0  0  0  0
  2  3  1  0  0  0  0
  3 15  1  0  0  0  0
  4  3  2  0  0  0  0
  4  8  1  0  0  0  0
  5  4  1  0  0  0  0
  6  7  1  0  0  0  0
  6  5  2  0  0  0  0
  7  2  2  0  0  0  0
  9  5  1  0  0  0  0
 10  6  1  0  0  0  0
 11 12  1  0  0  0  0
 11 19  1  0  0  0  0
 12 17  1  0  0  0  0
 13 18  1  0  0  0  0
 13 12  2  0  0  0  0
 14 13  1  0  0  0  0
 15 14  2  0  0  0  0
 15 16  1  0  0  0  0
 16 11  2  0  0  0  0
 19 21  1  0  0  0  0
 19 20  1  0  0  0  0
 22  7  1  0  0  0  0
 24 23  2  6  0  0  0
 24 22  1  0  0  0  0
 25 26  1  0  0  0  0
 25 24  1  0  0  0  0
 27 24  1  0  0  0  0
 28 34  1  1  0  0  0
 28 29  1  0  0  0  0
 29 27  1  1  0  0  0
 29 30  1  0  0  0  0
 31 30  1  0  0  0  0
 32 36  1  6  0  0  0
 32 31  1  0  0  0  0
 33 38  1  1  0  0  0
 33 28  1  0  0  0  0
 33 32  1  0  0  0  0
 34 35  1  0  0  0  0
 37 36  1  0  0  0  0
 39 38  1  0  0  0  0
M  END
>  <minimizedAffinity>
-7.81828833

>  <minimizedRMSD>
1.69352341

$$$$
