
 OpenBabel03252508033D

 45 48  0  0  1  0  0  0  0  0999 V2000
   41.7460   33.3380   41.3640 C   0  0  0  0  0  0  0  0  0  0  0  0
   42.7020   34.3360   41.2910 C   0  0  0  0  0  0  0  0  0  0  0  0
   42.2910   35.6310   40.9990 C   0  0  0  0  0  0  0  0  0  0  0  0
   40.9640   35.9340   40.7830 C   0  0  0  0  0  0  0  0  0  0  0  0
   40.0120   34.9540   40.8510 C   0  0  0  0  0  0  0  0  0  0  0  0
   40.4160   33.6840   41.1380 C   0  0  0  0  0  0  0  0  0  0  0  0
   42.9680   36.4820   40.9180 H   0  0  0  0  0  0  0  0  0  0  0  0
   40.6520   36.9320   40.5600 H   0  0  0  0  0  0  0  0  0  0  0  0
   38.9840   35.1560   40.6890 H   0  0  0  0  0  0  0  0  0  0  0  0
   39.6640   32.9050   41.1930 H   0  0  0  0  0  0  0  0  0  0  0  0
   42.1710   31.7410   41.6190 S   0  0  0  0  0  0  0  0  0  0  0  0
   42.2720   31.1180   40.2690 O   0  0  0  0  0  0  0  0  0  0  0  0
   40.9710   31.0930   42.4050 O   0  0  0  0  0  0  0  0  0  0  0  0
   42.8270   29.4070   42.5210 C   0  0  2  0  0  3  0  0  0  0  0  0
   43.2910   30.8560   42.4210 C   0  0  1  0  0  3  0  0  0  0  0  0
   44.5670   30.6920   41.8140 O   0  0  0  0  0  0  0  0  0  0  0  0
   45.3860   29.8340   42.5020 C   0  0  0  0  0  2  0  0  0  0  0  0
   45.0780   28.4530   41.9430 C   0  0  1  0  0  3  0  0  0  0  0  0
   43.5890   28.4330   41.6750 C   0  0  2  0  0  3  0  0  0  0  0  0
   41.4820   29.2880   42.0910 O   0  0  0  0  0  0  0  0  0  0  0  0
   41.3840   28.8170   41.2480 H   0  0  0  0  0  0  0  0  0  0  0  0
   45.7150   28.2900   40.7140 O   0  0  0  0  0  0  0  0  0  0  0  0
   45.7660   27.2980   40.5450 H   0  0  0  0  0  0  0  0  0  0  0  0
   43.3090   28.6150   40.3390 O   0  0  0  0  0  0  0  0  0  0  0  0
   44.0900   28.6920   39.7620 H   0  0  0  0  0  0  0  0  0  0  0  0
   44.1340   34.0860   41.5100 C   0  0  0  0  0  0  0  0  0  0  0  0
   44.9490   33.7200   40.6030 O   0  0  0  0  0  0  0  0  0  0  0  0
   44.5350   34.3000   42.8660 C   0  0  0  0  0  0  0  0  0  0  0  0
   44.2910   35.6050   43.3980 C   0  0  0  0  0  0  0  0  0  0  0  0
   44.6580   35.8250   44.7280 C   0  0  0  0  0  0  0  0  0  0  0  0
   45.2170   34.7970   45.4200 N   0  0  0  0  0  0  0  0  0  0  0  0
   45.4300   33.5620   44.8610 C   0  0  0  0  0  0  0  0  0  0  0  0
   45.0870   33.3850   43.6410 N   0  0  0  0  0  0  0  0  0  0  0  0
   43.8610   36.4420   42.9100 H   0  0  0  0  0  0  0  0  0  0  0  0
   44.5150   36.7850   45.2270 H   0  0  0  0  0  0  0  0  0  0  0  0
   46.0220   32.4980   45.6970 C   0  0  1  0  0  0  0  0  0  0  0  0
   46.9380   32.8870   46.8340 C   0  0  0  0  0  0  0  0  0  0  0  0
   45.5290   32.4590   47.0960 C   0  0  1  0  0  0  0  0  0  0  0  0
   46.2390   31.5340   45.2310 H   0  0  0  0  0  0  0  0  0  0  0  0
   47.2580   33.9390   46.9300 H   0  0  0  0  0  0  0  0  0  0  0  0
   47.7260   32.1840   47.1600 H   0  0  0  0  0  0  0  0  0  0  0  0
   45.3490   31.5050   47.6150 H   0  0  0  0  0  0  0  0  0  0  0  0
   44.7160   33.5460   47.6130 N   0  0  0  0  0  0  0  0  0  0  0  0
   43.9270   33.1940   48.2130 H   0  0  0  0  0  0  0  0  0  0  0  0
   45.2530   34.1920   48.2510 H   0  0  0  0  0  0  0  0  0  0  0  0
  1 11  1  0  0  0  0
  2  1  1  0  0  0  0
  2 26  1  0  0  0  0
  3  2  2  0  0  0  0
  4  5  2  0  0  0  0
  4  3  1  0  0  0  0
  5  6  1  0  0  0  0
  6 10  1  0  0  0  0
  6  1  2  0  0  0  0
  7  3  1  0  0  0  0
  8  4  1  0  0  0  0
  9  5  1  0  0  0  0
 11 13  2  0  0  0  0
 12 11  2  0  0  0  0
 14 20  1  6  0  0  0
 15 11  1  6  0  0  0
 15 14  1  0  0  0  0
 16 15  1  0  0  0  0
 16 17  1  0  0  0  0
 18 22  1  6  0  0  0
 18 17  1  0  0  0  0
 19 24  1  6  0  0  0
 19 18  1  0  0  0  0
 19 14  1  0  0  0  0
 21 20  1  0  0  0  0
 23 22  1  0  0  0  0
 25 24  1  0  0  0  0
 26 28  1  0  0  0  0
 27 26  2  0  0  0  0
 28 29  2  0  0  0  0
 28 33  1  0  0  0  0
 29 30  1  0  0  0  0
 30 35  1  0  0  0  0
 30 31  2  0  0  0  0
 32 31  1  0  0  0  0
 32 36  1  0  0  0  0
 33 32  2  0  0  0  0
 34 29  1  0  0  0  0
 36 39  1  6  0  0  0
 36 37  1  0  0  0  0
 36 38  1  0  0  0  0
 37 40  1  0  0  0  0
 37 38  1  0  0  0  0
 37 41  1  0  0  0  0
 38 43  1  0  0  0  0
 38 42  1  1  0  0  0
 43 44  1  0  0  0  0
 43 45  1  0  0  0  0
M  END
>  <minimizedAffinity>
-5.87462378

>  <minimizedRMSD>
0.433220744

$$$$
