
 OpenBabel03252505433D

 45 48  0  0  1  0  0  0  0  0999 V2000
   42.6750   34.8240   40.3050 C   0  0  0  0  0  0  0  0  0  0  0  0
   42.5240   35.1120   38.9690 C   0  0  0  0  0  0  0  0  0  0  0  0
   41.3290   34.9960   38.3080 C   0  0  0  0  0  0  0  0  0  0  0  0
   40.2540   34.5760   39.0210 N   0  0  0  0  0  0  0  0  0  0  0  0
   40.3870   34.2850   40.3480 C   0  0  0  0  0  0  0  0  0  0  0  0
   41.5700   34.4050   40.9860 N   0  0  0  0  0  0  0  0  0  0  0  0
   43.3730   35.4420   38.4090 H   0  0  0  0  0  0  0  0  0  0  0  0
   41.2150   35.2260   37.2510 H   0  0  0  0  0  0  0  0  0  0  0  0
   43.9810   34.6530   42.3990 C   0  0  1  0  0  0  0  0  0  0  0  0
   44.1930   36.1330   41.9310 C   0  0  0  0  0  0  0  0  0  0  0  0
   44.0150   34.9410   40.9960 C   0  0  2  0  0  0  0  0  0  0  0  0
   43.0010   34.5550   42.9400 H   0  0  0  0  0  0  0  0  0  0  0  0
   45.2130   36.5390   42.0510 H   0  0  0  0  0  0  0  0  0  0  0  0
   43.3280   36.8060   41.9780 H   0  0  0  0  0  0  0  0  0  0  0  0
   44.8330   34.8110   40.2910 H   0  0  0  0  0  0  0  0  0  0  0  0
   45.1220   34.1030   43.1630 C   0  0  0  0  0  0  0  0  0  0  0  0
   46.3660   34.0140   42.5020 C   0  0  0  0  0  0  0  0  0  0  0  0
   47.4530   33.5040   43.1970 C   0  0  0  0  0  0  0  0  0  0  0  0
   47.2610   33.1170   44.4850 N   0  0  0  0  0  0  0  0  0  0  0  0
   46.0690   33.2160   45.0770 C   0  0  0  0  0  0  0  0  0  0  0  0
   45.0290   33.7080   44.3980 N   0  0  0  0  0  0  0  0  0  0  0  0
   46.4620   34.3420   41.4650 H   0  0  0  0  0  0  0  0  0  0  0  0
   48.4420   33.4170   42.7200 H   0  0  0  0  0  0  0  0  0  0  0  0
   46.0640   32.7380   46.5040 C   0  0  0  0  0  0  0  0  0  0  0  0
   45.0970   33.3930   47.2520 F   0  0  0  0  0  0  0  0  0  0  0  0
   47.3020   33.0780   47.0980 F   0  0  0  0  0  0  0  0  0  0  0  0
   45.9670   31.3740   46.5370 F   0  0  0  0  0  0  0  0  0  0  0  0
   39.2390   33.8190   41.1480 C   0  0  0  0  0  0  0  0  0  0  0  0
   38.4830   34.6540   41.1160 H   0  0  0  0  0  0  0  0  0  0  0  0
   39.5160   33.6300   42.1840 H   0  0  0  0  0  0  0  0  0  0  0  0
   38.5660   32.6290   40.5250 C   0  0  0  0  0  0  0  0  0  0  0  0
   37.4710   32.6780   40.6050 H   0  0  0  0  0  0  0  0  0  0  0  0
   38.8840   32.5860   39.4450 H   0  0  0  0  0  0  0  0  0  0  0  0
   37.9090   30.3080   41.1500 C   0  0  1  0  0  3  0  0  0  0  0  0
   39.0090   31.3490   41.1510 C   0  0  1  0  0  3  0  0  0  0  0  0
   40.1870   30.8250   40.7050 O   0  0  0  0  0  0  0  0  0  0  0  0
   40.1960   29.4370   40.6350 C   0  0  0  0  0  2  0  0  0  0  0  0
   39.6540   28.7680   41.8550 C   0  0  2  0  0  3  0  0  0  0  0  0
   38.2830   29.2710   42.1880 C   0  0  2  0  0  3  0  0  0  0  0  0
   36.6790   30.9060   41.4120 O   0  0  0  0  0  0  0  0  0  0  0  0
   36.0460   30.5600   40.7260 H   0  0  0  0  0  0  0  0  0  0  0  0
   40.5440   28.7850   42.9260 O   0  0  0  0  0  0  0  0  0  0  0  0
   40.2200   29.3130   43.7000 H   0  0  0  0  0  0  0  0  0  0  0  0
   37.3210   28.2690   42.2860 O   0  0  0  0  0  0  0  0  0  0  0  0
   36.6170   28.5920   42.9290 H   0  0  0  0  0  0  0  0  0  0  0  0
  1  6  1  0  0  0  0
  1 11  1  0  0  0  0
  2  1  2  0  0  0  0
  3  2  1  0  0  0  0
  3  4  2  0  0  0  0
  4  5  1  0  0  0  0
  5  6  2  0  0  0  0
  5 28  1  0  0  0  0
  7  2  1  0  0  0  0
  8  3  1  0  0  0  0
  9 12  1  1  0  0  0
  9 16  1  0  0  0  0
 10 14  1  0  0  0  0
 10 13  1  0  0  0  0
 10  9  1  0  0  0  0
 11 15  1  6  0  0  0
 11 10  1  0  0  0  0
 11  9  1  0  0  0  0
 16 21  1  0  0  0  0
 17 16  2  0  0  0  0
 17 18  1  0  0  0  0
 18 19  2  0  0  0  0
 19 20  1  0  0  0  0
 20 24  1  0  0  0  0
 21 20  2  0  0  0  0
 22 17  1  0  0  0  0
 23 18  1  0  0  0  0
 24 27  1  0  0  0  0
 24 26  1  0  0  0  0
 24 25  1  0  0  0  0
 28 30  1  0  0  0  0
 29 28  1  0  0  0  0
 31 32  1  0  0  0  0
 31 28  1  0  0  0  0
 33 31  1  0  0  0  0
 34 35  1  0  0  0  0
 34 40  1  1  0  0  0
 34 39  1  0  0  0  0
 35 31  1  6  0  0  0
 36 35  1  0  0  0  0
 37 36  1  0  0  0  0
 37 38  1  0  0  0  0
 38 39  1  0  0  0  0
 38 42  1  1  0  0  0
 39 44  1  6  0  0  0
 41 40  1  0  0  0  0
 42 43  1  0  0  0  0
 44 45  1  0  0  0  0
M  END
>  <minimizedAffinity>
-6.63970518

>  <minimizedRMSD>
1.85585618

$$$$
