
 OpenBabel03252505433D

 45 48  0  0  1  0  0  0  0  0999 V2000
   42.6790   34.8240   40.3090 C   0  0  0  0  0  0  0  0  0  0  0  0
   42.5280   35.1140   38.9740 C   0  0  0  0  0  0  0  0  0  0  0  0
   41.3320   35.0000   38.3140 C   0  0  0  0  0  0  0  0  0  0  0  0
   40.2570   34.5780   39.0270 N   0  0  0  0  0  0  0  0  0  0  0  0
   40.3920   34.2850   40.3530 C   0  0  0  0  0  0  0  0  0  0  0  0
   41.5750   34.4040   40.9910 N   0  0  0  0  0  0  0  0  0  0  0  0
   43.3770   35.4450   38.4140 H   0  0  0  0  0  0  0  0  0  0  0  0
   41.2180   35.2310   37.2570 H   0  0  0  0  0  0  0  0  0  0  0  0
   43.9860   34.6530   42.4030 C   0  0  1  0  0  0  0  0  0  0  0  0
   44.2010   36.1320   41.9330 C   0  0  0  0  0  0  0  0  0  0  0  0
   44.0200   34.9390   41.0000 C   0  0  2  0  0  0  0  0  0  0  0  0
   43.0060   34.5580   42.9450 H   0  0  0  0  0  0  0  0  0  0  0  0
   45.2210   36.5360   42.0530 H   0  0  0  0  0  0  0  0  0  0  0  0
   43.3370   36.8070   41.9790 H   0  0  0  0  0  0  0  0  0  0  0  0
   44.8370   34.8070   40.2940 H   0  0  0  0  0  0  0  0  0  0  0  0
   45.1260   34.1030   43.1680 C   0  0  0  0  0  0  0  0  0  0  0  0
   46.3700   34.0120   42.5070 C   0  0  0  0  0  0  0  0  0  0  0  0
   47.4570   33.5010   43.2030 C   0  0  0  0  0  0  0  0  0  0  0  0
   47.2630   33.1140   44.4900 N   0  0  0  0  0  0  0  0  0  0  0  0
   46.0720   33.2140   45.0820 C   0  0  0  0  0  0  0  0  0  0  0  0
   45.0320   33.7070   44.4020 N   0  0  0  0  0  0  0  0  0  0  0  0
   46.4670   34.3400   41.4700 H   0  0  0  0  0  0  0  0  0  0  0  0
   48.4460   33.4130   42.7260 H   0  0  0  0  0  0  0  0  0  0  0  0
   46.0660   32.7360   46.5090 C   0  0  0  0  0  0  0  0  0  0  0  0
   45.0960   33.3890   47.2560 F   0  0  0  0  0  0  0  0  0  0  0  0
   47.3020   33.0790   47.1050 F   0  0  0  0  0  0  0  0  0  0  0  0
   45.9710   31.3720   46.5430 F   0  0  0  0  0  0  0  0  0  0  0  0
   39.2440   33.8190   41.1530 C   0  0  0  0  0  0  0  0  0  0  0  0
   38.4880   34.6540   41.1220 H   0  0  0  0  0  0  0  0  0  0  0  0
   39.5210   33.6290   42.1890 H   0  0  0  0  0  0  0  0  0  0  0  0
   38.5710   32.6300   40.5290 C   0  0  0  0  0  0  0  0  0  0  0  0
   37.4760   32.6790   40.6090 H   0  0  0  0  0  0  0  0  0  0  0  0
   38.8880   32.5870   39.4490 H   0  0  0  0  0  0  0  0  0  0  0  0
   37.9110   30.3090   41.1500 C   0  0  1  0  0  3  0  0  0  0  0  0
   39.0130   31.3490   41.1540 C   0  0  1  0  0  3  0  0  0  0  0  0
   40.1910   30.8240   40.7090 O   0  0  0  0  0  0  0  0  0  0  0  0
   40.1970   29.4360   40.6360 C   0  0  0  0  0  2  0  0  0  0  0  0
   39.6550   28.7670   41.8560 C   0  0  2  0  0  3  0  0  0  0  0  0
   38.2830   29.2700   42.1880 C   0  0  2  0  0  3  0  0  0  0  0  0
   36.6820   30.9080   41.4130 O   0  0  0  0  0  0  0  0  0  0  0  0
   36.0480   30.5620   40.7260 H   0  0  0  0  0  0  0  0  0  0  0  0
   40.5430   28.7810   42.9270 O   0  0  0  0  0  0  0  0  0  0  0  0
   40.2200   29.3080   43.7030 H   0  0  0  0  0  0  0  0  0  0  0  0
   37.3200   28.2690   42.2840 O   0  0  0  0  0  0  0  0  0  0  0  0
   36.6160   28.5920   42.9260 H   0  0  0  0  0  0  0  0  0  0  0  0
  1  6  1  0  0  0  0
  1 11  1  0  0  0  0
  2  1  2  0  0  0  0
  3  2  1  0  0  0  0
  3  4  2  0  0  0  0
  4  5  1  0  0  0  0
  5  6  2  0  0  0  0
  5 28  1  0  0  0  0
  7  2  1  0  0  0  0
  8  3  1  0  0  0  0
  9 12  1  1  0  0  0
  9 16  1  0  0  0  0
 10 14  1  0  0  0  0
 10 13  1  0  0  0  0
 10  9  1  0  0  0  0
 11 15  1  6  0  0  0
 11 10  1  0  0  0  0
 11  9  1  0  0  0  0
 16 21  1  0  0  0  0
 17 16  2  0  0  0  0
 17 18  1  0  0  0  0
 18 19  2  0  0  0  0
 19 20  1  0  0  0  0
 20 24  1  0  0  0  0
 21 20  2  0  0  0  0
 22 17  1  0  0  0  0
 23 18  1  0  0  0  0
 24 27  1  0  0  0  0
 24 26  1  0  0  0  0
 24 25  1  0  0  0  0
 28 30  1  0  0  0  0
 29 28  1  0  0  0  0
 31 32  1  0  0  0  0
 31 28  1  0  0  0  0
 33 31  1  0  0  0  0
 34 35  1  0  0  0  0
 34 40  1  1  0  0  0
 34 39  1  0  0  0  0
 35 31  1  6  0  0  0
 36 35  1  0  0  0  0
 37 36  1  0  0  0  0
 37 38  1  0  0  0  0
 38 39  1  0  0  0  0
 38 42  1  1  0  0  0
 39 44  1  6  0  0  0
 41 40  1  0  0  0  0
 42 43  1  0  0  0  0
 44 45  1  0  0  0  0
M  END
>  <minimizedAffinity>
-6.63772345

>  <minimizedRMSD>
1.92734551

$$$$
