
 OpenBabel03252502243D

 37 39  0  0  1  0  0  0  0  0999 V2000
   45.9730   34.1810   41.2640 N   0  0  0  0  0  0  0  0  0  0  0  0
   46.6370   34.3110   42.5460 C   0  0  0  0  0  0  0  0  0  0  0  0
   47.7140   35.3860   42.3010 C   0  0  0  0  0  0  0  0  0  0  0  0
   48.7510   34.8090   41.3660 C   0  0  0  0  0  0  0  0  0  0  0  0
   48.1840   34.0340   40.2220 C   0  0  0  0  0  0  0  0  0  0  0  0
   46.7000   34.1460   40.0410 C   0  0  1  0  0  0  0  0  0  0  0  0
   45.9760   34.5830   43.3610 H   0  0  0  0  0  0  0  0  0  0  0  0
   47.2190   33.3770   42.7050 H   0  0  0  0  0  0  0  0  0  0  0  0
   47.1770   36.2340   41.7930 H   0  0  0  0  0  0  0  0  0  0  0  0
   48.2050   35.7020   43.2240 H   0  0  0  0  0  0  0  0  0  0  0  0
   49.4210   35.6360   41.0560 H   0  0  0  0  0  0  0  0  0  0  0  0
   49.3780   34.1220   41.9970 H   0  0  0  0  0  0  0  0  0  0  0  0
   48.4160   32.9400   40.3360 H   0  0  0  0  0  0  0  0  0  0  0  0
   48.7230   34.3520   39.3050 H   0  0  0  0  0  0  0  0  0  0  0  0
   46.4900   35.1120   39.5220 H   0  0  0  0  0  0  0  0  0  0  0  0
   42.3450   34.9630   40.7780 C   0  0  0  0  0  0  0  0  0  0  0  0
   43.7340   35.1740   40.8220 C   0  0  0  0  0  0  0  0  0  0  0  0
   44.5490   34.0820   41.1870 C   0  0  0  0  0  0  0  0  0  0  0  0
   43.9330   32.9080   41.4690 N   0  0  0  0  0  0  0  0  0  0  0  0
   42.5920   32.7460   41.4150 C   0  0  0  0  0  0  0  0  0  0  0  0
   41.7960   33.7980   41.0630 N   0  0  0  0  0  0  0  0  0  0  0  0
   41.7100   35.7890   40.5010 H   0  0  0  0  0  0  0  0  0  0  0  0
   44.2040   36.1160   40.5940 H   0  0  0  0  0  0  0  0  0  0  0  0
   42.1350   31.7920   41.6470 H   0  0  0  0  0  0  0  0  0  0  0  0
   46.2740   33.0450   39.2820 O   0  0  0  0  0  0  0  0  0  0  0  0
   47.2690   31.3900   37.8100 C   0  0  2  0  0  3  0  0  0  0  0  0
   47.0350   32.8140   38.1650 C   0  0  1  0  0  3  0  0  0  0  0  0
   46.6840   33.5230   37.0390 O   0  0  0  0  0  0  0  0  0  0  0  0
   45.3000   33.3050   36.8290 C   0  0  0  0  0  2  0  0  0  0  0  0
   45.0260   31.8280   36.7450 C   0  0  1  0  0  3  0  0  0  0  0  0
   46.3180   31.0280   36.6880 C   0  0  2  0  0  3  0  0  0  0  0  0
   47.0120   30.5020   38.8470 O   0  0  0  0  0  0  0  0  0  0  0  0
   47.3400   29.6100   38.6170 H   0  0  0  0  0  0  0  0  0  0  0  0
   44.2740   31.4580   37.8470 O   0  0  0  0  0  0  0  0  0  0  0  0
   44.0630   30.4760   37.8010 H   0  0  0  0  0  0  0  0  0  0  0  0
   46.0120   29.6740   36.7820 O   0  0  0  0  0  0  0  0  0  0  0  0
   46.8270   29.1530   36.6760 H   0  0  0  0  0  0  0  0  0  0  0  0
  1  2  1  0  0  0  0
  2  8  1  0  0  0  0
  2  7  1  0  0  0  0
  3  2  1  0  0  0  0
  3 10  1  0  0  0  0
  4 12  1  0  0  0  0
  4  3  1  0  0  0  0
  5 13  1  0  0  0  0
  5  4  1  0  0  0  0
  6 15  1  6  0  0  0
  6  5  1  0  0  0  0
  6  1  1  0  0  0  0
  9  3  1  0  0  0  0
 11  4  1  0  0  0  0
 14  5  1  0  0  0  0
 16 17  2  0  0  0  0
 16 21  1  0  0  0  0
 17 18  1  0  0  0  0
 18  1  1  0  0  0  0
 18 19  2  0  0  0  0
 20 19  1  0  0  0  0
 20 24  1  0  0  0  0
 21 20  2  0  0  0  0
 22 16  1  0  0  0  0
 23 17  1  0  0  0  0
 25  6  1  0  0  0  0
 26 27  1  0  0  0  0
 26 32  1  1  0  0  0
 27 25  1  1  0  0  0
 28 27  1  0  0  0  0
 29 28  1  0  0  0  0
 30 29  1  0  0  0  0
 30 34  1  1  0  0  0
 31 30  1  0  0  0  0
 31 36  1  1  0  0  0
 31 26  1  0  0  0  0
 33 32  1  0  0  0  0
 35 34  1  0  0  0  0
 37 36  1  0  0  0  0
M  END
>  <minimizedAffinity>
-4.17629766

>  <minimizedRMSD>
4.82638931

$$$$
