
 OpenBabel03252508003D

 32 34  0  0  1  0  0  0  0  0999 V2000
   46.2800   34.5500   43.3740 C   0  0  0  0  0  0  0  0  0  0  0  0
   45.3640   35.5820   43.7480 C   0  0  0  0  0  0  0  0  0  0  0  0
   44.7370   35.4410   44.9920 C   0  0  0  0  0  0  0  0  0  0  0  0
   45.0330   34.3580   45.7450 N   0  0  0  0  0  0  0  0  0  0  0  0
   45.9260   33.4010   45.3190 C   0  0  0  0  0  0  0  0  0  0  0  0
   46.5420   33.4900   44.1550 N   0  0  0  0  0  0  0  0  0  0  0  0
   45.1760   36.4220   43.0940 H   0  0  0  0  0  0  0  0  0  0  0  0
   44.0380   36.1850   45.3310 H   0  0  0  0  0  0  0  0  0  0  0  0
   46.2150   32.2430   46.2190 C   0  0  1  0  0  0  0  0  0  0  0  0
   46.9670   32.4880   47.5080 C   0  0  0  0  0  0  0  0  0  0  0  0
   45.4780   32.2750   47.4990 C   0  0  1  0  0  0  0  0  0  0  0  0
   46.4240   31.2630   45.7590 H   0  0  0  0  0  0  0  0  0  0  0  0
   47.3790   33.5240   47.5790 H   0  0  0  0  0  0  0  0  0  0  0  0
   47.6490   31.7120   47.8670 H   0  0  0  0  0  0  0  0  0  0  0  0
   45.1680   31.3580   48.0270 H   0  0  0  0  0  0  0  0  0  0  0  0
   44.7430   33.4540   47.8900 N   0  0  0  0  0  0  0  0  0  0  0  0
   45.2760   34.2950   48.0700 H   0  0  0  0  0  0  0  0  0  0  0  0
   43.7690   33.4980   47.6200 H   0  0  0  0  0  0  0  0  0  0  0  0
   46.9050   34.7510   42.0910 C   0  0  0  0  0  0  0  0  0  0  0  0
   47.7000   35.7260   41.8430 O   0  0  0  0  0  0  0  0  0  0  0  0
   45.2360   34.0230   40.5230 C   0  0  1  0  0  3  0  0  0  0  0  0
   46.6810   33.8370   40.9330 C   0  0  2  0  0  3  0  0  0  0  0  0
   46.9270   32.5480   41.3940 O   0  0  0  0  0  0  0  0  0  0  0  0
   46.5530   31.5740   40.4830 C   0  0  0  0  0  2  0  0  0  0  0  0
   45.0890   31.6110   40.1510 C   0  0  1  0  0  3  0  0  0  0  0  0
   44.7630   32.9600   39.5780 C   0  0  1  0  0  3  0  0  0  0  0  0
   44.4250   34.0110   41.6540 O   0  0  0  0  0  0  0  0  0  0  0  0
   44.2700   33.0980   42.0110 H   0  0  0  0  0  0  0  0  0  0  0  0
   44.8650   30.6820   39.1260 O   0  0  0  0  0  0  0  0  0  0  0  0
   44.0670   30.1340   39.3250 H   0  0  0  0  0  0  0  0  0  0  0  0
   43.3590   33.0940   39.5100 O   0  0  0  0  0  0  0  0  0  0  0  0
   42.9950   33.4590   40.3660 H   0  0  0  0  0  0  0  0  0  0  0  0
  1  2  2  0  0  0  0
  1  6  1  0  0  0  0
  2  3  1  0  0  0  0
  3  8  1  0  0  0  0
  3  4  2  0  0  0  0
  5  4  1  0  0  0  0
  5  9  1  0  0  0  0
  6  5  2  0  0  0  0
  7  2  1  0  0  0  0
  9 12  1  6  0  0  0
  9 11  1  0  0  0  0
  9 10  1  0  0  0  0
 10 13  1  0  0  0  0
 10 14  1  0  0  0  0
 11 10  1  0  0  0  0
 11 16  1  0  0  0  0
 11 15  1  1  0  0  0
 16 17  1  0  0  0  0
 18 16  1  0  0  0  0
 19  1  1  0  0  0  0
 20 19  2  0  0  0  0
 21 22  1  0  0  0  0
 21 27  1  1  0  0  0
 22 23  1  0  0  0  0
 22 19  1  1  0  0  0
 24 23  1  0  0  0  0
 25 29  1  6  0  0  0
 25 24  1  0  0  0  0
 26 31  1  1  0  0  0
 26 25  1  0  0  0  0
 26 21  1  0  0  0  0
 27 28  1  0  0  0  0
 29 30  1  0  0  0  0
 31 32  1  0  0  0  0
M  END
>  <minimizedAffinity>
-5.27325296

>  <minimizedRMSD>
1.55192935

$$$$
