
 OpenBabel03242522003D

 36 38  0  0  1  0  0  0  0  0999 V2000
   37.2410   27.0070   41.5260 C   0  0  0  0  0  0  0  0  0  0  0  0
   38.0790   26.9940   42.6390 C   0  0  0  0  0  0  0  0  0  0  0  0
   38.4490   28.1130   43.3740 C   0  0  0  0  0  0  0  0  0  0  0  0
   37.9500   29.3370   42.9750 C   0  0  0  0  0  0  0  0  0  0  0  0
   37.1370   29.3360   41.8960 C   0  0  0  0  0  0  0  0  0  0  0  0
   36.8040   28.2370   41.2140 N   0  0  0  0  0  0  0  0  0  0  0  0
   38.4370   25.9810   42.8960 H   0  0  0  0  0  0  0  0  0  0  0  0
   39.1120   27.8750   44.2060 H   0  0  0  0  0  0  0  0  0  0  0  0
   38.3520   30.0790   43.6400 H   0  0  0  0  0  0  0  0  0  0  0  0
   36.5630   23.5000   40.3610 C   0  0  0  0  0  0  0  0  0  0  0  0
   36.9410   24.5270   41.2430 C   0  0  0  0  0  0  0  0  0  0  0  0
   36.8930   25.8160   40.7800 C   0  0  0  0  0  0  0  0  0  0  0  0
   36.4770   26.0250   39.4860 N   0  0  0  0  0  0  0  0  0  0  0  0
   36.1190   25.0250   38.6620 C   0  0  0  0  0  0  0  0  0  0  0  0
   36.1680   23.7650   39.1130 N   0  0  0  0  0  0  0  0  0  0  0  0
   36.6360   22.5120   40.8220 H   0  0  0  0  0  0  0  0  0  0  0  0
   37.2720   24.4410   42.2540 H   0  0  0  0  0  0  0  0  0  0  0  0
   35.7980   25.2210   37.6500 H   0  0  0  0  0  0  0  0  0  0  0  0
   36.6240   30.5520   41.4830 O   0  0  0  0  0  0  0  0  0  0  0  0
   36.5040   30.8740   38.8650 O   0  0  0  0  0  0  0  0  0  0  0  0
   37.2030   31.3770   40.0970 P   0  0  1  0  0  0  0  0  0  0  0  0
   36.8770   33.0310   40.2930 O   0  0  0  0  0  0  0  0  0  0  0  0
   36.0140   33.1070   40.7830 H   0  0  0  0  0  0  0  0  0  0  0  0
   38.8670   31.0930   39.9770 O   0  0  0  0  0  0  0  0  0  0  0  0
   39.6620   32.1630   38.0330 C   0  0  1  0  0  3  0  0  0  0  0  0
   39.3060   30.8770   38.6890 C   0  0  1  0  0  3  0  0  0  0  0  0
   40.3460   29.9690   38.7740 O   0  0  0  0  0  0  0  0  0  0  0  0
   41.2430   30.0250   37.7170 C   0  0  0  0  0  2  0  0  0  0  0  0
   42.0310   31.2970   37.8870 C   0  0  1  0  0  3  0  0  0  0  0  0
   41.1360   32.4820   38.0580 C   0  0  1  0  0  3  0  0  0  0  0  0
   39.1520   32.2890   36.7400 O   0  0  0  0  0  0  0  0  0  0  0  0
   38.9970   31.4110   36.3070 H   0  0  0  0  0  0  0  0  0  0  0  0
   42.7970   31.1510   39.0650 O   0  0  0  0  0  0  0  0  0  0  0  0
   43.2370   32.0160   39.2220 H   0  0  0  0  0  0  0  0  0  0  0  0
   41.3780   33.3510   36.9830 O   0  0  0  0  0  0  0  0  0  0  0  0
   42.2950   33.7210   37.0170 H   0  0  0  0  0  0  0  0  0  0  0  0
  1  2  1  0  0  0  0
  2  7  1  0  0  0  0
  2  3  2  0  0  0  0
  3  8  1  0  0  0  0
  4  3  1  0  0  0  0
  4  9  1  0  0  0  0
  5  4  2  0  0  0  0
  6  1  2  0  0  0  0
  6  5  1  0  0  0  0
 10 16  1  0  0  0  0
 10 11  1  0  0  0  0
 11 17  1  0  0  0  0
 12 11  2  0  0  0  0
 12  1  1  0  0  0  0
 13 12  1  0  0  0  0
 14 15  1  0  0  0  0
 14 13  2  0  0  0  0
 15 10  2  0  0  0  0
 18 14  1  0  0  0  0
 19  5  1  0  0  0  0
 21 20  2  6  0  0  0
 21 22  1  0  0  0  0
 21 19  1  0  0  0  0
 22 23  1  0  0  0  0
 24 21  1  0  0  0  0
 25 31  1  6  0  0  0
 25 30  1  0  0  0  0
 25 26  1  0  0  0  0
 26 27  1  0  0  0  0
 26 24  1  1  0  0  0
 28 29  1  0  0  0  0
 28 27  1  0  0  0  0
 29 30  1  0  0  0  0
 29 33  1  1  0  0  0
 30 35  1  6  0  0  0
 32 31  1  0  0  0  0
 33 34  1  0  0  0  0
 35 36  1  0  0  0  0
M  END
>  <minimizedAffinity>
-6.49953079

$$$$

 OpenBabel03242522003D

 36 38  0  0  1  0  0  0  0  0999 V2000
   37.5300   27.9730   41.4310 C   0  0  0  0  0  0  0  0  0  0  0  0
   36.5290   27.4920   40.5880 C   0  0  0  0  0  0  0  0  0  0  0  0
   35.6390   28.2830   39.8720 C   0  0  0  0  0  0  0  0  0  0  0  0
   35.7510   29.6520   40.0010 C   0  0  0  0  0  0  0  0  0  0  0  0
   36.7270   30.1060   40.8180 C   0  0  0  0  0  0  0  0  0  0  0  0
   37.5640   29.3130   41.4920 N   0  0  0  0  0  0  0  0  0  0  0  0
   36.5030   26.3890   40.5380 H   0  0  0  0  0  0  0  0  0  0  0  0
   34.9380   27.6990   39.2760 H   0  0  0  0  0  0  0  0  0  0  0  0
   34.9800   30.0950   39.3980 H   0  0  0  0  0  0  0  0  0  0  0  0
   40.1760   26.5190   43.6680 C   0  0  0  0  0  0  0  0  0  0  0  0
   39.4010   27.5130   43.0460 C   0  0  0  0  0  0  0  0  0  0  0  0
   38.4280   27.1100   42.1700 C   0  0  0  0  0  0  0  0  0  0  0  0
   38.2660   25.7620   41.9550 N   0  0  0  0  0  0  0  0  0  0  0  0
   39.0200   24.8280   42.5640 C   0  0  0  0  0  0  0  0  0  0  0  0
   39.9730   25.2220   43.4190 N   0  0  0  0  0  0  0  0  0  0  0  0
   40.9220   26.9400   44.3450 H   0  0  0  0  0  0  0  0  0  0  0  0
   39.4680   28.5720   43.1630 H   0  0  0  0  0  0  0  0  0  0  0  0
   38.8700   23.7760   42.3740 H   0  0  0  0  0  0  0  0  0  0  0  0
   36.8570   31.4760   40.9570 O   0  0  0  0  0  0  0  0  0  0  0  0
   37.3210   32.3430   38.5060 O   0  0  0  0  0  0  0  0  0  0  0  0
   37.8370   32.4210   39.9160 P   0  0  1  0  0  0  0  0  0  0  0  0
   37.7710   34.0310   40.4500 O   0  0  0  0  0  0  0  0  0  0  0  0
   36.8550   34.1900   40.8030 H   0  0  0  0  0  0  0  0  0  0  0  0
   39.4150   31.8170   39.9930 O   0  0  0  0  0  0  0  0  0  0  0  0
   40.3370   32.5120   37.9380 C   0  0  1  0  0  3  0  0  0  0  0  0
   39.9020   31.3700   38.7830 C   0  0  1  0  0  3  0  0  0  0  0  0
   40.9000   30.4560   39.0730 O   0  0  0  0  0  0  0  0  0  0  0  0
   41.8440   30.3030   38.0690 C   0  0  0  0  0  2  0  0  0  0  0  0
   42.6740   31.5590   38.0600 C   0  0  1  0  0  3  0  0  0  0  0  0
   41.8200   32.7830   37.9830 C   0  0  1  0  0  3  0  0  0  0  0  0
   39.8910   32.4320   36.6190 O   0  0  0  0  0  0  0  0  0  0  0  0
   39.7200   31.4980   36.3330 H   0  0  0  0  0  0  0  0  0  0  0  0
   43.3810   31.5920   39.2830 O   0  0  0  0  0  0  0  0  0  0  0  0
   43.8470   32.4570   39.3130 H   0  0  0  0  0  0  0  0  0  0  0  0
   42.1450   33.4480   36.7900 O   0  0  0  0  0  0  0  0  0  0  0  0
   43.0730   33.7890   36.8070 H   0  0  0  0  0  0  0  0  0  0  0  0
  1  6  1  0  0  0  0
  1 12  1  0  0  0  0
  2  1  2  0  0  0  0
  3  4  2  0  0  0  0
  3  2  1  0  0  0  0
  4  5  1  0  0  0  0
  5 19  1  0  0  0  0
  5  6  2  0  0  0  0
  7  2  1  0  0  0  0
  8  3  1  0  0  0  0
  9  4  1  0  0  0  0
 10 16  1  0  0  0  0
 11 17  1  0  0  0  0
 11 10  2  0  0  0  0
 12 11  1  0  0  0  0
 13 12  2  0  0  0  0
 13 14  1  0  0  0  0
 14 15  2  0  0  0  0
 15 10  1  0  0  0  0
 18 14  1  0  0  0  0
 21 20  2  6  0  0  0
 21 24  1  0  0  0  0
 21 22  1  0  0  0  0
 21 19  1  0  0  0  0
 22 23  1  0  0  0  0
 25 31  1  6  0  0  0
 25 30  1  0  0  0  0
 25 26  1  0  0  0  0
 26 27  1  0  0  0  0
 26 24  1  1  0  0  0
 28 27  1  0  0  0  0
 29 28  1  0  0  0  0
 29 33  1  1  0  0  0
 30 35  1  6  0  0  0
 30 29  1  0  0  0  0
 32 31  1  0  0  0  0
 33 34  1  0  0  0  0
 35 36  1  0  0  0  0
M  END
>  <minimizedAffinity>
-6.46636724

$$$$

 OpenBabel03242522003D

 36 38  0  0  1  0  0  0  0  0999 V2000
   38.5560   25.6560   41.6880 C   0  0  0  0  0  0  0  0  0  0  0  0
   39.3720   25.8810   42.7950 C   0  0  0  0  0  0  0  0  0  0  0  0
   39.2440   26.9440   43.6800 C   0  0  0  0  0  0  0  0  0  0  0  0
   38.2320   27.8530   43.4490 C   0  0  0  0  0  0  0  0  0  0  0  0
   37.4460   27.6230   42.3730 C   0  0  0  0  0  0  0  0  0  0  0  0
   37.6010   26.5880   41.5440 N   0  0  0  0  0  0  0  0  0  0  0  0
   40.1570   25.1130   42.9130 H   0  0  0  0  0  0  0  0  0  0  0  0
   39.9890   26.9270   44.4760 H   0  0  0  0  0  0  0  0  0  0  0  0
   38.2960   28.6060   44.2120 H   0  0  0  0  0  0  0  0  0  0  0  0
   39.6220   23.3130   38.9510 C   0  0  0  0  0  0  0  0  0  0  0  0
   39.5930   24.4920   39.7160 C   0  0  0  0  0  0  0  0  0  0  0  0
   38.7350   24.5400   40.7830 C   0  0  0  0  0  0  0  0  0  0  0  0
   37.9580   23.4360   41.0410 N   0  0  0  0  0  0  0  0  0  0  0  0
   38.0040   22.3180   40.2950 C   0  0  0  0  0  0  0  0  0  0  0  0
   38.8420   22.2710   39.2500 N   0  0  0  0  0  0  0  0  0  0  0  0
   40.3350   23.3730   38.1260 H   0  0  0  0  0  0  0  0  0  0  0  0
   40.1630   25.3830   39.5770 H   0  0  0  0  0  0  0  0  0  0  0  0
   37.3800   21.4670   40.5220 H   0  0  0  0  0  0  0  0  0  0  0  0
   36.4240   28.5210   42.1270 O   0  0  0  0  0  0  0  0  0  0  0  0
   35.9290   29.1280   39.6050 O   0  0  0  0  0  0  0  0  0  0  0  0
   36.5010   29.6910   40.8770 P   0  0  1  0  0  0  0  0  0  0  0  0
   35.5860   31.0370   41.3570 O   0  0  0  0  0  0  0  0  0  0  0  0
   34.8130   30.6980   41.8850 H   0  0  0  0  0  0  0  0  0  0  0  0
   38.1250   30.1060   40.6490 O   0  0  0  0  0  0  0  0  0  0  0  0
   39.9820   31.2330   41.5640 C   0  0  1  0  0  3  0  0  0  0  0  0
   38.5140   31.2370   41.3350 C   0  0  1  0  0  3  0  0  0  0  0  0
   38.0500   32.3190   40.6070 O   0  0  0  0  0  0  0  0  0  0  0  0
   38.7600   33.4920   40.8110 C   0  0  0  0  0  2  0  0  0  0  0  0
   40.0940   33.3130   40.1350 C   0  0  1  0  0  3  0  0  0  0  0  0
   40.7660   32.0500   40.5680 C   0  0  1  0  0  3  0  0  0  0  0  0
   40.3440   31.5680   42.8700 O   0  0  0  0  0  0  0  0  0  0  0  0
   39.6620   32.1320   43.3180 H   0  0  0  0  0  0  0  0  0  0  0  0
   39.8420   33.2230   38.7470 O   0  0  0  0  0  0  0  0  0  0  0  0
   40.7020   33.0130   38.3200 H   0  0  0  0  0  0  0  0  0  0  0  0
   41.9680   32.4070   41.1970 O   0  0  0  0  0  0  0  0  0  0  0  0
   42.6000   32.8230   40.5590 H   0  0  0  0  0  0  0  0  0  0  0  0
  1  2  1  0  0  0  0
  2  7  1  0  0  0  0
  2  3  2  0  0  0  0
  3  8  1  0  0  0  0
  4  3  1  0  0  0  0
  4  9  1  0  0  0  0
  5  4  2  0  0  0  0
  6  1  2  0  0  0  0
  6  5  1  0  0  0  0
 10 15  2  0  0  0  0
 10 11  1  0  0  0  0
 11 12  2  0  0  0  0
 12 13  1  0  0  0  0
 12  1  1  0  0  0  0
 14 18  1  0  0  0  0
 14 13  2  0  0  0  0
 15 14  1  0  0  0  0
 16 10  1  0  0  0  0
 17 11  1  0  0  0  0
 19  5  1  0  0  0  0
 21 20  2  6  0  0  0
 21 22  1  0  0  0  0
 21 19  1  0  0  0  0
 22 23  1  0  0  0  0
 24 21  1  0  0  0  0
 25 31  1  1  0  0  0
 26 24  1  6  0  0  0
 26 25  1  0  0  0  0
 27 28  1  0  0  0  0
 27 26  1  0  0  0  0
 29 33  1  6  0  0  0
 29 30  1  0  0  0  0
 29 28  1  0  0  0  0
 30 35  1  1  0  0  0
 30 25  1  0  0  0  0
 31 32  1  0  0  0  0
 34 33  1  0  0  0  0
 36 35  1  0  0  0  0
M  END
>  <minimizedAffinity>
-6.34814072

$$$$

 OpenBabel03242522003D

 36 38  0  0  1  0  0  0  0  0999 V2000
   39.6590   26.0810   42.7540 C   0  0  0  0  0  0  0  0  0  0  0  0
   39.1930   24.7980   42.4740 C   0  0  0  0  0  0  0  0  0  0  0  0
   37.8740   24.4730   42.1830 C   0  0  0  0  0  0  0  0  0  0  0  0
   36.9490   25.4960   42.1700 C   0  0  0  0  0  0  0  0  0  0  0  0
   37.4140   26.7360   42.4420 C   0  0  0  0  0  0  0  0  0  0  0  0
   38.6910   27.0100   42.7170 N   0  0  0  0  0  0  0  0  0  0  0  0
   39.9910   24.0350   42.5030 H   0  0  0  0  0  0  0  0  0  0  0  0
   37.7300   23.4090   41.9950 H   0  0  0  0  0  0  0  0  0  0  0  0
   35.9920   25.0610   41.9480 H   0  0  0  0  0  0  0  0  0  0  0  0
   43.3440   25.9420   43.4760 C   0  0  0  0  0  0  0  0  0  0  0  0
   42.0620   25.4610   43.1600 C   0  0  0  0  0  0  0  0  0  0  0  0
   41.0430   26.3720   43.0670 C   0  0  0  0  0  0  0  0  0  0  0  0
   41.3360   27.6980   43.2860 N   0  0  0  0  0  0  0  0  0  0  0  0
   42.5730   28.1340   43.5860 C   0  0  0  0  0  0  0  0  0  0  0  0
   43.5680   27.2430   43.6790 N   0  0  0  0  0  0  0  0  0  0  0  0
   44.0850   25.1410   43.5280 H   0  0  0  0  0  0  0  0  0  0  0  0
   41.7610   24.4540   42.9770 H   0  0  0  0  0  0  0  0  0  0  0  0
   42.7710   29.1820   43.7550 H   0  0  0  0  0  0  0  0  0  0  0  0
   36.5020   27.7760   42.4300 O   0  0  0  0  0  0  0  0  0  0  0  0
   36.9810   28.3500   39.8970 O   0  0  0  0  0  0  0  0  0  0  0  0
   36.4420   28.9380   41.1720 P   0  0  1  0  0  0  0  0  0  0  0  0
   34.8200   29.3840   40.9430 O   0  0  0  0  0  0  0  0  0  0  0  0
   34.2640   28.5760   41.1100 H   0  0  0  0  0  0  0  0  0  0  0  0
   37.3790   30.2660   41.6410 O   0  0  0  0  0  0  0  0  0  0  0  0
   37.4790   31.4970   39.6340 C   0  0  1  0  0  3  0  0  0  0  0  0
   38.2300   30.7250   40.6590 C   0  0  1  0  0  3  0  0  0  0  0  0
   39.2250   31.4410   41.3010 O   0  0  0  0  0  0  0  0  0  0  0  0
   39.8430   32.3980   40.5100 C   0  0  0  0  0  2  0  0  0  0  0  0
   38.8450   33.5090   40.3170 C   0  0  1  0  0  3  0  0  0  0  0  0
   37.5320   32.9920   39.8240 C   0  0  1  0  0  3  0  0  0  0  0  0
   37.8130   31.1550   38.3230 O   0  0  0  0  0  0  0  0  0  0  0  0
   38.7290   30.7830   38.2510 H   0  0  0  0  0  0  0  0  0  0  0  0
   38.6380   34.0990   41.5840 O   0  0  0  0  0  0  0  0  0  0  0  0
   37.9190   34.7590   41.4710 H   0  0  0  0  0  0  0  0  0  0  0  0
   37.2990   33.5670   38.5660 O   0  0  0  0  0  0  0  0  0  0  0  0
   37.1750   34.5460   38.6320 H   0  0  0  0  0  0  0  0  0  0  0  0
  1 12  1  0  0  0  0
  2  7  1  0  0  0  0
  2  1  2  0  0  0  0
  3  2  1  0  0  0  0
  4  3  2  0  0  0  0
  4  5  1  0  0  0  0
  5  6  2  0  0  0  0
  6  1  1  0  0  0  0
  8  3  1  0  0  0  0
  9  4  1  0  0  0  0
 10 16  1  0  0  0  0
 10 15  1  0  0  0  0
 11 10  2  0  0  0  0
 12 11  1  0  0  0  0
 12 13  2  0  0  0  0
 13 14  1  0  0  0  0
 14 15  2  0  0  0  0
 14 18  1  0  0  0  0
 17 11  1  0  0  0  0
 19  5  1  0  0  0  0
 21 20  2  6  0  0  0
 21 24  1  0  0  0  0
 21 19  1  0  0  0  0
 22 23  1  0  0  0  0
 22 21  1  0  0  0  0
 25 31  1  6  0  0  0
 25 30  1  0  0  0  0
 25 26  1  0  0  0  0
 26 27  1  0  0  0  0
 26 24  1  1  0  0  0
 28 27  1  0  0  0  0
 29 28  1  0  0  0  0
 29 33  1  1  0  0  0
 30 35  1  6  0  0  0
 30 29  1  0  0  0  0
 32 31  1  0  0  0  0
 34 33  1  0  0  0  0
 35 36  1  0  0  0  0
M  END
>  <minimizedAffinity>
-6.29058647

$$$$

 OpenBabel03242522003D

 36 38  0  0  1  0  0  0  0  0999 V2000
   37.4390   26.4540   41.6280 C   0  0  0  0  0  0  0  0  0  0  0  0
   38.3230   26.2410   42.6840 C   0  0  0  0  0  0  0  0  0  0  0  0
   38.7930   27.2250   43.5440 C   0  0  0  0  0  0  0  0  0  0  0  0
   38.3530   28.5180   43.3420 C   0  0  0  0  0  0  0  0  0  0  0  0
   37.4940   28.7110   42.3160 C   0  0  0  0  0  0  0  0  0  0  0  0
   37.0650   27.7370   41.5090 N   0  0  0  0  0  0  0  0  0  0  0  0
   38.6290   25.1840   42.7820 H   0  0  0  0  0  0  0  0  0  0  0  0
   39.4760   26.8380   44.3010 H   0  0  0  0  0  0  0  0  0  0  0  0
   38.8280   29.1370   44.0800 H   0  0  0  0  0  0  0  0  0  0  0  0
   36.4730   23.1870   40.0430 C   0  0  0  0  0  0  0  0  0  0  0  0
   36.9460   24.0600   41.0380 C   0  0  0  0  0  0  0  0  0  0  0  0
   36.9860   25.3980   40.7460 C   0  0  0  0  0  0  0  0  0  0  0  0
   36.5610   25.8050   39.5030 N   0  0  0  0  0  0  0  0  0  0  0  0
   36.1110   24.9490   38.5680 C   0  0  0  0  0  0  0  0  0  0  0  0
   36.0730   23.6410   38.8520 N   0  0  0  0  0  0  0  0  0  0  0  0
   36.4810   22.1450   40.3710 H   0  0  0  0  0  0  0  0  0  0  0  0
   37.2910   23.8200   42.0180 H   0  0  0  0  0  0  0  0  0  0  0  0
   35.7850   25.2990   37.6000 H   0  0  0  0  0  0  0  0  0  0  0  0
   37.0400   29.9990   42.1000 O   0  0  0  0  0  0  0  0  0  0  0  0
   35.4020   30.0500   40.0290 O   0  0  0  0  0  0  0  0  0  0  0  0
   36.7030   30.6090   40.5340 P   0  0  1  0  0  0  0  0  0  0  0  0
   36.5850   32.2990   40.6410 O   0  0  0  0  0  0  0  0  0  0  0  0
   36.1790   32.5130   41.5250 H   0  0  0  0  0  0  0  0  0  0  0  0
   37.9690   30.1500   39.5100 O   0  0  0  0  0  0  0  0  0  0  0  0
   40.2960   30.1160   39.1340 C   0  0  1  0  0  3  0  0  0  0  0  0
   39.1420   30.8410   39.7270 C   0  0  1  0  0  3  0  0  0  0  0  0
   38.9460   32.1160   39.2260 O   0  0  0  0  0  0  0  0  0  0  0  0
   40.1130   32.7730   38.8620 C   0  0  0  0  0  2  0  0  0  0  0  0
   40.6130   32.1040   37.6090 C   0  0  1  0  0  3  0  0  0  0  0  0
   40.7130   30.6230   37.7770 C   0  0  1  0  0  3  0  0  0  0  0  0
   41.3960   30.0270   39.9870 O   0  0  0  0  0  0  0  0  0  0  0  0
   41.4200   30.7620   40.6510 H   0  0  0  0  0  0  0  0  0  0  0  0
   39.6630   32.3690   36.5960 O   0  0  0  0  0  0  0  0  0  0  0  0
   39.9440   31.8550   35.8080 H   0  0  0  0  0  0  0  0  0  0  0  0
   42.0610   30.2710   37.6120 O   0  0  0  0  0  0  0  0  0  0  0  0
   42.3700   30.4410   36.6880 H   0  0  0  0  0  0  0  0  0  0  0  0
  1  2  1  0  0  0  0
  2  7  1  0  0  0  0
  2  3  2  0  0  0  0
  3  8  1  0  0  0  0
  4  3  1  0  0  0  0
  4  9  1  0  0  0  0
  5  4  2  0  0  0  0
  6  1  2  0  0  0  0
  6  5  1  0  0  0  0
 10 16  1  0  0  0  0
 10 11  1  0  0  0  0
 11 17  1  0  0  0  0
 12 11  2  0  0  0  0
 12  1  1  0  0  0  0
 13 12  1  0  0  0  0
 14 15  1  0  0  0  0
 14 13  2  0  0  0  0
 15 10  2  0  0  0  0
 18 14  1  0  0  0  0
 19  5  1  0  0  0  0
 21 20  2  6  0  0  0
 21 22  1  0  0  0  0
 21 19  1  0  0  0  0
 22 23  1  0  0  0  0
 24 21  1  0  0  0  0
 25 26  1  0  0  0  0
 25 31  1  1  0  0  0
 26 24  1  6  0  0  0
 27 26  1  0  0  0  0
 28 27  1  0  0  0  0
 29 33  1  6  0  0  0
 29 30  1  0  0  0  0
 29 28  1  0  0  0  0
 30 35  1  1  0  0  0
 30 25  1  0  0  0  0
 31 32  1  0  0  0  0
 34 33  1  0  0  0  0
 36 35  1  0  0  0  0
M  END
>  <minimizedAffinity>
-6.21975136

$$$$

 OpenBabel03242522003D

 36 38  0  0  1  0  0  0  0  0999 V2000
   36.4170   28.2430   39.4610 C   0  0  0  0  0  0  0  0  0  0  0  0
   35.7430   27.7510   38.3450 C   0  0  0  0  0  0  0  0  0  0  0  0
   35.4910   28.4680   37.1820 C   0  0  0  0  0  0  0  0  0  0  0  0
   35.9420   29.7710   37.1220 C   0  0  0  0  0  0  0  0  0  0  0  0
   36.5970   30.2360   38.2100 C   0  0  0  0  0  0  0  0  0  0  0  0
   36.8190   29.5140   39.3110 N   0  0  0  0  0  0  0  0  0  0  0  0
   35.4130   26.7040   38.4690 H   0  0  0  0  0  0  0  0  0  0  0  0
   34.9490   27.8900   36.4350 H   0  0  0  0  0  0  0  0  0  0  0  0
   35.6460   30.1700   36.1700 H   0  0  0  0  0  0  0  0  0  0  0  0
   37.2010   25.5640   41.9760 C   0  0  0  0  0  0  0  0  0  0  0  0
   37.0330   26.1490   40.7090 C   0  0  0  0  0  0  0  0  0  0  0  0
   36.6440   27.4620   40.6590 C   0  0  0  0  0  0  0  0  0  0  0  0
   36.4440   28.1260   41.8470 N   0  0  0  0  0  0  0  0  0  0  0  0
   36.6130   27.5430   43.0480 C   0  0  0  0  0  0  0  0  0  0  0  0
   36.9910   26.2590   43.0970 N   0  0  0  0  0  0  0  0  0  0  0  0
   37.5100   24.5180   41.9100 H   0  0  0  0  0  0  0  0  0  0  0  0
   37.1690   25.7000   39.7510 H   0  0  0  0  0  0  0  0  0  0  0  0
   36.4460   28.0910   43.9630 H   0  0  0  0  0  0  0  0  0  0  0  0
   37.0600   31.5380   38.1670 O   0  0  0  0  0  0  0  0  0  0  0  0
   37.1540   33.8950   39.3560 O   0  0  0  0  0  0  0  0  0  0  0  0
   37.4320   32.4340   39.5800 P   0  0  1  0  0  0  0  0  0  0  0  0
   36.4500   31.8620   40.8410 O   0  0  0  0  0  0  0  0  0  0  0  0
   35.5740   31.6080   40.4430 H   0  0  0  0  0  0  0  0  0  0  0  0
   39.0710   32.2020   39.9300 O   0  0  0  0  0  0  0  0  0  0  0  0
   40.2150   32.6760   37.9240 C   0  0  1  0  0  3  0  0  0  0  0  0
   39.7880   31.6370   38.8970 C   0  0  1  0  0  3  0  0  0  0  0  0
   40.8290   30.9330   39.4790 O   0  0  0  0  0  0  0  0  0  0  0  0
   41.9290   30.7540   38.6540 C   0  0  0  0  0  2  0  0  0  0  0  0
   42.5980   32.0960   38.5270 C   0  0  1  0  0  3  0  0  0  0  0  0
   41.6310   33.1580   38.1150 C   0  0  1  0  0  3  0  0  0  0  0  0
   39.9910   32.3190   36.5940 O   0  0  0  0  0  0  0  0  0  0  0  0
   39.9770   31.3370   36.4630 H   0  0  0  0  0  0  0  0  0  0  0  0
   43.0980   32.4290   39.8070 O   0  0  0  0  0  0  0  0  0  0  0  0
   43.4500   33.3430   39.7410 H   0  0  0  0  0  0  0  0  0  0  0  0
   42.0570   33.6590   36.8760 O   0  0  0  0  0  0  0  0  0  0  0  0
   42.9260   34.1260   36.9530 H   0  0  0  0  0  0  0  0  0  0  0  0
  1 12  1  0  0  0  0
  2  7  1  0  0  0  0
  2  1  2  0  0  0  0
  3  2  1  0  0  0  0
  4  3  2  0  0  0  0
  4  5  1  0  0  0  0
  5  6  2  0  0  0  0
  6  1  1  0  0  0  0
  8  3  1  0  0  0  0
  9  4  1  0  0  0  0
 10 15  1  0  0  0  0
 11 10  2  0  0  0  0
 12 11  1  0  0  0  0
 12 13  2  0  0  0  0
 13 14  1  0  0  0  0
 14 15  2  0  0  0  0
 14 18  1  0  0  0  0
 16 10  1  0  0  0  0
 17 11  1  0  0  0  0
 19  5  1  0  0  0  0
 19 21  1  0  0  0  0
 21 20  2  6  0  0  0
 21 24  1  0  0  0  0
 21 22  1  0  0  0  0
 23 22  1  0  0  0  0
 25 31  1  6  0  0  0
 25 30  1  0  0  0  0
 25 26  1  0  0  0  0
 26 27  1  0  0  0  0
 26 24  1  1  0  0  0
 28 27  1  0  0  0  0
 29 28  1  0  0  0  0
 29 33  1  1  0  0  0
 30 35  1  6  0  0  0
 30 29  1  0  0  0  0
 32 31  1  0  0  0  0
 34 33  1  0  0  0  0
 35 36  1  0  0  0  0
M  END
>  <minimizedAffinity>
-6.18539

$$$$

 OpenBabel03242522003D

 36 38  0  0  1  0  0  0  0  0999 V2000
   39.2250   27.5590   42.5550 C   0  0  0  0  0  0  0  0  0  0  0  0
   38.2420   26.5850   42.3920 C   0  0  0  0  0  0  0  0  0  0  0  0
   36.9240   26.8320   42.0290 C   0  0  0  0  0  0  0  0  0  0  0  0
   36.5540   28.1430   41.8110 C   0  0  0  0  0  0  0  0  0  0  0  0
   37.5170   29.0790   41.9700 C   0  0  0  0  0  0  0  0  0  0  0  0
   38.7750   28.8020   42.3210 N   0  0  0  0  0  0  0  0  0  0  0  0
   38.6140   25.5630   42.5840 H   0  0  0  0  0  0  0  0  0  0  0  0
   36.3250   25.9240   41.9590 H   0  0  0  0  0  0  0  0  0  0  0  0
   35.5090   28.1440   41.5610 H   0  0  0  0  0  0  0  0  0  0  0  0
   42.8190   27.6740   43.6450 C   0  0  0  0  0  0  0  0  0  0  0  0
   41.5520   28.1670   43.2900 C   0  0  0  0  0  0  0  0  0  0  0  0
   40.5850   27.2570   42.9490 C   0  0  0  0  0  0  0  0  0  0  0  0
   40.9120   25.9220   42.9770 N   0  0  0  0  0  0  0  0  0  0  0  0
   42.1330   25.4750   43.3210 C   0  0  0  0  0  0  0  0  0  0  0  0
   43.0790   26.3640   43.6520 N   0  0  0  0  0  0  0  0  0  0  0  0
   43.5180   28.4750   43.8970 H   0  0  0  0  0  0  0  0  0  0  0  0
   41.2260   29.1820   43.2460 H   0  0  0  0  0  0  0  0  0  0  0  0
   42.3610   24.4190   43.3310 H   0  0  0  0  0  0  0  0  0  0  0  0
   37.1650   30.3980   41.7520 O   0  0  0  0  0  0  0  0  0  0  0  0
   36.8180   30.4500   39.1340 O   0  0  0  0  0  0  0  0  0  0  0  0
   37.4620   31.2010   40.2670 P   0  0  1  0  0  0  0  0  0  0  0  0
   36.7890   32.7560   40.3650 O   0  0  0  0  0  0  0  0  0  0  0  0
   35.9620   32.6880   40.9140 H   0  0  0  0  0  0  0  0  0  0  0  0
   39.1360   31.2740   40.0380 O   0  0  0  0  0  0  0  0  0  0  0  0
   39.9400   32.2370   38.0420 C   0  0  1  0  0  3  0  0  0  0  0  0
   39.5370   30.9930   38.7490 C   0  0  1  0  0  3  0  0  0  0  0  0
   40.5340   30.0380   38.8460 O   0  0  0  0  0  0  0  0  0  0  0  0
   41.4100   30.0150   37.7700 C   0  0  0  0  0  2  0  0  0  0  0  0
   42.2610   31.2520   37.8800 C   0  0  1  0  0  3  0  0  0  0  0  0
   41.4280   32.4840   38.0270 C   0  0  1  0  0  3  0  0  0  0  0  0
   39.4100   32.3440   36.7560 O   0  0  0  0  0  0  0  0  0  0  0  0
   39.2040   31.4600   36.3570 H   0  0  0  0  0  0  0  0  0  0  0  0
   43.0450   31.1090   39.0480 O   0  0  0  0  0  0  0  0  0  0  0  0
   43.5280   31.9560   39.1660 H   0  0  0  0  0  0  0  0  0  0  0  0
   41.6890   33.3040   36.9190 O   0  0  0  0  0  0  0  0  0  0  0  0
   42.6230   33.6300   36.9220 H   0  0  0  0  0  0  0  0  0  0  0  0
  1 12  1  0  0  0  0
  2  1  1  0  0  0  0
  2  7  1  0  0  0  0
  3  2  2  0  0  0  0
  4  5  2  0  0  0  0
  4  3  1  0  0  0  0
  5  6  1  0  0  0  0
  6  1  2  0  0  0  0
  8  3  1  0  0  0  0
  9  4  1  0  0  0  0
 10 15  1  0  0  0  0
 10 16  1  0  0  0  0
 11 10  2  0  0  0  0
 12 13  2  0  0  0  0
 12 11  1  0  0  0  0
 13 14  1  0  0  0  0
 14 18  1  0  0  0  0
 14 15  2  0  0  0  0
 17 11  1  0  0  0  0
 19  5  1  0  0  0  0
 21 20  2  6  0  0  0
 21 22  1  0  0  0  0
 21 19  1  0  0  0  0
 22 23  1  0  0  0  0
 24 21  1  0  0  0  0
 25 31  1  6  0  0  0
 25 26  1  0  0  0  0
 26 27  1  0  0  0  0
 26 24  1  1  0  0  0
 28 29  1  0  0  0  0
 28 27  1  0  0  0  0
 29 30  1  0  0  0  0
 29 33  1  1  0  0  0
 30 35  1  6  0  0  0
 30 25  1  0  0  0  0
 32 31  1  0  0  0  0
 33 34  1  0  0  0  0
 35 36  1  0  0  0  0
M  END
>  <minimizedAffinity>
-6.10299683

$$$$

 OpenBabel03242522003D

 36 38  0  0  1  0  0  0  0  0999 V2000
   37.8550   28.1990   41.3920 C   0  0  0  0  0  0  0  0  0  0  0  0
   36.4770   28.2120   41.1810 C   0  0  0  0  0  0  0  0  0  0  0  0
   35.7790   29.2190   40.5270 C   0  0  0  0  0  0  0  0  0  0  0  0
   36.5000   30.2930   40.0470 C   0  0  0  0  0  0  0  0  0  0  0  0
   37.8350   30.2670   40.2570 C   0  0  0  0  0  0  0  0  0  0  0  0
   38.4720   29.2800   40.8910 N   0  0  0  0  0  0  0  0  0  0  0  0
   35.9710   27.3210   41.5930 H   0  0  0  0  0  0  0  0  0  0  0  0
   34.7070   29.0260   40.4740 H   0  0  0  0  0  0  0  0  0  0  0  0
   35.8010   30.9720   39.5940 H   0  0  0  0  0  0  0  0  0  0  0  0
   38.9910   24.9210   42.8350 C   0  0  0  0  0  0  0  0  0  0  0  0
   38.1970   25.8070   42.0870 C   0  0  0  0  0  0  0  0  0  0  0  0
   38.5410   27.1330   42.0930 C   0  0  0  0  0  0  0  0  0  0  0  0
   39.6390   27.5160   42.8270 N   0  0  0  0  0  0  0  0  0  0  0  0
   40.3840   26.6480   43.5350 C   0  0  0  0  0  0  0  0  0  0  0  0
   40.0470   25.3520   43.5310 N   0  0  0  0  0  0  0  0  0  0  0  0
   38.6370   23.8900   42.7670 H   0  0  0  0  0  0  0  0  0  0  0  0
   37.3370   25.5850   41.4960 H   0  0  0  0  0  0  0  0  0  0  0  0
   41.2400   26.9790   44.1040 H   0  0  0  0  0  0  0  0  0  0  0  0
   38.5750   31.3340   39.7790 O   0  0  0  0  0  0  0  0  0  0  0  0
   39.3520   33.6910   40.6810 O   0  0  0  0  0  0  0  0  0  0  0  0
   39.6590   32.2220   40.7660 P   0  0  1  0  0  0  0  0  0  0  0  0
   39.4620   31.6990   42.3690 O   0  0  0  0  0  0  0  0  0  0  0  0
   38.5000   31.4790   42.4930 H   0  0  0  0  0  0  0  0  0  0  0  0
   41.2310   31.9240   40.2160 O   0  0  0  0  0  0  0  0  0  0  0  0
   41.2990   32.8960   38.0700 C   0  0  1  0  0  3  0  0  0  0  0  0
   41.3080   31.6430   38.8690 C   0  0  1  0  0  3  0  0  0  0  0  0
   42.4350   30.8590   38.6940 O   0  0  0  0  0  0  0  0  0  0  0  0
   42.9790   30.9170   37.4190 C   0  0  0  0  0  2  0  0  0  0  0  0
   43.6170   32.2740   37.2820 C   0  0  1  0  0  3  0  0  0  0  0  0
   42.6660   33.3690   37.6450 C   0  0  1  0  0  3  0  0  0  0  0  0
   40.4300   32.8550   36.9790 O   0  0  0  0  0  0  0  0  0  0  0  0
   40.2700   31.9310   36.6580 H   0  0  0  0  0  0  0  0  0  0  0  0
   44.6990   32.3120   38.1910 O   0  0  0  0  0  0  0  0  0  0  0  0
   45.0530   33.2280   38.1660 H   0  0  0  0  0  0  0  0  0  0  0  0
   42.4820   34.1610   36.5020 O   0  0  0  0  0  0  0  0  0  0  0  0
   43.3160   34.6270   36.2460 H   0  0  0  0  0  0  0  0  0  0  0  0
  1 12  1  0  0  0  0
  2  1  1  0  0  0  0
  2  7  1  0  0  0  0
  3  2  2  0  0  0  0
  4  5  2  0  0  0  0
  4  3  1  0  0  0  0
  5  6  1  0  0  0  0
  6  1  2  0  0  0  0
  8  3  1  0  0  0  0
  9  4  1  0  0  0  0
 10 15  1  0  0  0  0
 11 12  1  0  0  0  0
 11 10  2  0  0  0  0
 12 13  2  0  0  0  0
 13 14  1  0  0  0  0
 14 18  1  0  0  0  0
 15 14  2  0  0  0  0
 16 10  1  0  0  0  0
 17 11  1  0  0  0  0
 19  5  1  0  0  0  0
 19 21  1  0  0  0  0
 21 20  2  6  0  0  0
 21 22  1  0  0  0  0
 22 23  1  0  0  0  0
 24 21  1  0  0  0  0
 25 31  1  6  0  0  0
 25 26  1  0  0  0  0
 26 24  1  1  0  0  0
 27 26  1  0  0  0  0
 28 27  1  0  0  0  0
 29 28  1  0  0  0  0
 29 30  1  0  0  0  0
 29 33  1  1  0  0  0
 30 35  1  6  0  0  0
 30 25  1  0  0  0  0
 32 31  1  0  0  0  0
 34 33  1  0  0  0  0
 36 35  1  0  0  0  0
M  END
>  <minimizedAffinity>
-6.07516909

$$$$

 OpenBabel03242522003D

 36 38  0  0  1  0  0  0  0  0999 V2000
   39.6620   27.9210   42.5800 C   0  0  0  0  0  0  0  0  0  0  0  0
   38.8980   27.4920   43.6650 C   0  0  0  0  0  0  0  0  0  0  0  0
   37.5120   27.4010   43.6790 C   0  0  0  0  0  0  0  0  0  0  0  0
   36.8330   27.7620   42.5330 C   0  0  0  0  0  0  0  0  0  0  0  0
   37.5850   28.1730   41.4880 C   0  0  0  0  0  0  0  0  0  0  0  0
   38.9180   28.2480   41.5120 N   0  0  0  0  0  0  0  0  0  0  0  0
   39.5110   27.2220   44.5420 H   0  0  0  0  0  0  0  0  0  0  0  0
   37.1200   27.0420   44.6310 H   0  0  0  0  0  0  0  0  0  0  0  0
   35.7830   27.6460   42.7320 H   0  0  0  0  0  0  0  0  0  0  0  0
   43.3620   27.2640   42.5730 C   0  0  0  0  0  0  0  0  0  0  0  0
   41.9880   26.9700   42.5170 C   0  0  0  0  0  0  0  0  0  0  0  0
   41.1070   28.0140   42.6140 C   0  0  0  0  0  0  0  0  0  0  0  0
   41.6170   29.2830   42.7590 N   0  0  0  0  0  0  0  0  0  0  0  0
   42.9360   29.5390   42.8090 C   0  0  0  0  0  0  0  0  0  0  0  0
   43.7980   28.5190   42.7160 N   0  0  0  0  0  0  0  0  0  0  0  0
   43.9800   26.3690   42.4880 H   0  0  0  0  0  0  0  0  0  0  0  0
   41.5220   26.0170   42.4070 H   0  0  0  0  0  0  0  0  0  0  0  0
   43.3060   30.5470   42.9250 H   0  0  0  0  0  0  0  0  0  0  0  0
   36.9230   28.5350   40.3300 O   0  0  0  0  0  0  0  0  0  0  0  0
   35.8090   30.2370   38.6450 O   0  0  0  0  0  0  0  0  0  0  0  0
   36.6020   30.1680   39.9200 P   0  0  1  0  0  0  0  0  0  0  0  0
   35.7010   30.8610   41.1810 O   0  0  0  0  0  0  0  0  0  0  0  0
   35.1040   30.1520   41.5440 H   0  0  0  0  0  0  0  0  0  0  0  0
   38.0850   30.9590   39.7250 O   0  0  0  0  0  0  0  0  0  0  0  0
   39.7110   31.6760   41.2730 C   0  0  1  0  0  3  0  0  0  0  0  0
   38.3550   31.8910   40.7040 C   0  0  1  0  0  3  0  0  0  0  0  0
   38.1640   33.1350   40.1290 O   0  0  0  0  0  0  0  0  0  0  0  0
   38.8710   34.1610   40.7380 C   0  0  0  0  0  2  0  0  0  0  0  0
   40.3200   33.9590   40.3790 C   0  0  1  0  0  3  0  0  0  0  0  0
   40.7760   32.5690   40.6870 C   0  0  1  0  0  3  0  0  0  0  0  0
   39.7450   31.7180   42.6670 O   0  0  0  0  0  0  0  0  0  0  0  0
   39.0080   32.2630   43.0460 H   0  0  0  0  0  0  0  0  0  0  0  0
   40.4290   34.1590   38.9840 O   0  0  0  0  0  0  0  0  0  0  0  0
   41.3540   33.9350   38.7410 H   0  0  0  0  0  0  0  0  0  0  0  0
   41.7960   32.6640   41.6460 O   0  0  0  0  0  0  0  0  0  0  0  0
   42.5960   33.1160   41.2800 H   0  0  0  0  0  0  0  0  0  0  0  0
  1 12  1  0  0  0  0
  1  2  1  0  0  0  0
  2  3  2  0  0  0  0
  2  7  1  0  0  0  0
  3  8  1  0  0  0  0
  4  9  1  0  0  0  0
  4  3  1  0  0  0  0
  5  6  1  0  0  0  0
  5  4  2  0  0  0  0
  6  1  2  0  0  0  0
 10 15  1  0  0  0  0
 11 10  2  0  0  0  0
 11 12  1  0  0  0  0
 12 13  2  0  0  0  0
 13 14  1  0  0  0  0
 14 18  1  0  0  0  0
 15 14  2  0  0  0  0
 16 10  1  0  0  0  0
 17 11  1  0  0  0  0
 19  5  1  0  0  0  0
 21 20  2  6  0  0  0
 21 19  1  0  0  0  0
 21 22  1  0  0  0  0
 22 23  1  0  0  0  0
 24 21  1  0  0  0  0
 25 31  1  1  0  0  0
 26 24  1  6  0  0  0
 26 25  1  0  0  0  0
 27 26  1  0  0  0  0
 27 28  1  0  0  0  0
 29 33  1  6  0  0  0
 29 30  1  0  0  0  0
 29 28  1  0  0  0  0
 30 25  1  0  0  0  0
 30 35  1  1  0  0  0
 31 32  1  0  0  0  0
 34 33  1  0  0  0  0
 36 35  1  0  0  0  0
M  END
>  <minimizedAffinity>
-6.03259182

$$$$
