
 OpenBabel03252505283D

 27 28  0  0  1  0  0  0  0  0999 V2000
   46.5870   31.1260   48.8340 O   0  0  0  0  0  0  0  0  0  0  0  0
   45.7290   31.6260   47.6680 P   0  0  1  0  0  0  0  0  0  0  0  0
   44.2760   32.2610   48.1850 O   0  0  0  0  0  0  0  0  0  0  0  0
   44.3860   32.5910   49.1100 H   0  0  0  0  0  0  0  0  0  0  0  0
   46.6650   32.7750   46.8510 O   0  0  0  0  0  0  0  0  0  0  0  0
   44.7380   35.1100   44.9930 C   0  0  0  0  0  0  0  0  0  0  0  0
   45.3330   35.1290   43.7070 C   0  0  0  0  0  0  0  0  0  0  0  0
   46.4460   34.2820   43.5210 C   0  0  0  0  0  0  0  0  0  0  0  0
   46.8650   33.5190   44.5630 N   0  0  0  0  0  0  0  0  0  0  0  0
   46.2600   33.5410   45.7680 C   0  0  0  0  0  0  0  0  0  0  0  0
   45.1950   34.3390   45.9830 N   0  0  0  0  0  0  0  0  0  0  0  0
   43.8770   35.7600   45.1560 H   0  0  0  0  0  0  0  0  0  0  0  0
   44.9650   35.7540   42.9050 H   0  0  0  0  0  0  0  0  0  0  0  0
   46.9490   34.2460   42.5640 H   0  0  0  0  0  0  0  0  0  0  0  0
   45.4330   30.2690   46.7090 O   0  0  0  0  0  0  0  0  0  0  0  0
   47.0280   28.5320   47.0720 C   0  0  2  0  0  3  0  0  0  0  0  0
   45.7170   29.1460   47.5190 C   0  0  2  0  0  3  0  0  0  0  0  0
   44.6380   28.3030   47.4130 O   0  0  0  0  0  0  0  0  0  0  0  0
   44.7660   27.1200   48.1040 C   0  0  0  0  0  2  0  0  0  0  0  0
   46.1040   26.4600   47.9180 C   0  0  2  0  0  3  0  0  0  0  0  0
   46.7310   27.0980   46.6770 C   0  0  1  0  0  3  0  0  0  0  0  0
   47.9630   28.4680   48.1120 O   0  0  0  0  0  0  0  0  0  0  0  0
   47.5780   28.6370   49.0020 H   0  0  0  0  0  0  0  0  0  0  0  0
   46.0560   25.0870   47.8100 O   0  0  0  0  0  0  0  0  0  0  0  0
   47.0050   24.7770   47.9060 H   0  0  0  0  0  0  0  0  0  0  0  0
   45.7880   27.1220   45.6590 O   0  0  0  0  0  0  0  0  0  0  0  0
   45.9190   27.9090   45.0700 H   0  0  0  0  0  0  0  0  0  0  0  0
  2  3  1  0  0  0  0
  2  1  2  1  0  0  0
  3  4  1  0  0  0  0
  5  2  1  0  0  0  0
  6 12  1  0  0  0  0
  6 11  1  0  0  0  0
  7  6  2  0  0  0  0
  8  7  1  0  0  0  0
  8  9  2  0  0  0  0
  9 10  1  0  0  0  0
 10 11  2  0  0  0  0
 10  5  1  0  0  0  0
 13  7  1  0  0  0  0
 14  8  1  0  0  0  0
 15  2  1  0  0  0  0
 16 17  1  0  0  0  0
 16 22  1  1  0  0  0
 17 15  1  6  0  0  0
 18 17  1  0  0  0  0
 18 19  1  0  0  0  0
 20 24  1  6  0  0  0
 20 19  1  0  0  0  0
 21 26  1  6  0  0  0
 21 16  1  0  0  0  0
 21 20  1  0  0  0  0
 22 23  1  0  0  0  0
 24 25  1  0  0  0  0
 27 26  1  0  0  0  0
M  END
>  <minimizedAffinity>
-4.78713322

>  <minimizedRMSD>
1.86607194

$$$$
