
 OpenBabel03252505433D

 45 48  0  0  1  0  0  0  0  0999 V2000
   43.2620   34.9290   40.5560 C   0  0  0  0  0  0  0  0  0  0  0  0
   43.3130   35.0540   39.1880 C   0  0  0  0  0  0  0  0  0  0  0  0
   42.1970   35.0480   38.3930 C   0  0  0  0  0  0  0  0  0  0  0  0
   40.9910   34.9100   39.0010 N   0  0  0  0  0  0  0  0  0  0  0  0
   40.9240   34.7830   40.3590 C   0  0  0  0  0  0  0  0  0  0  0  0
   42.0320   34.7930   41.1290 N   0  0  0  0  0  0  0  0  0  0  0  0
   44.2640   35.1620   38.7100 H   0  0  0  0  0  0  0  0  0  0  0  0
   42.2430   35.1470   37.3100 H   0  0  0  0  0  0  0  0  0  0  0  0
   44.3240   34.4320   42.7340 C   0  0  1  0  0  0  0  0  0  0  0  0
   44.5960   35.9590   42.5110 C   0  0  0  0  0  0  0  0  0  0  0  0
   44.5170   34.9160   41.4000 C   0  0  2  0  0  0  0  0  0  0  0  0
   43.2890   34.2790   43.1440 H   0  0  0  0  0  0  0  0  0  0  0  0
   45.5980   36.3200   42.8000 H   0  0  0  0  0  0  0  0  0  0  0  0
   43.7350   36.6360   42.5590 H   0  0  0  0  0  0  0  0  0  0  0  0
   45.4080   34.8700   40.7780 H   0  0  0  0  0  0  0  0  0  0  0  0
   45.3680   33.7540   43.5320 C   0  0  0  0  0  0  0  0  0  0  0  0
   46.5610   33.3920   42.8690 C   0  0  0  0  0  0  0  0  0  0  0  0
   47.5590   32.7560   43.5960 C   0  0  0  0  0  0  0  0  0  0  0  0
   47.3320   32.5160   44.9130 N   0  0  0  0  0  0  0  0  0  0  0  0
   46.1910   32.8730   45.5060 C   0  0  0  0  0  0  0  0  0  0  0  0
   45.2370   33.4840   44.7970 N   0  0  0  0  0  0  0  0  0  0  0  0
   46.6880   33.6110   41.8080 H   0  0  0  0  0  0  0  0  0  0  0  0
   48.5050   32.4560   43.1180 H   0  0  0  0  0  0  0  0  0  0  0  0
   46.1370   32.5230   46.9680 C   0  0  0  0  0  0  0  0  0  0  0  0
   45.1370   33.2290   47.6200 F   0  0  0  0  0  0  0  0  0  0  0  0
   47.3490   32.9280   47.5750 F   0  0  0  0  0  0  0  0  0  0  0  0
   46.0500   31.1660   47.1190 F   0  0  0  0  0  0  0  0  0  0  0  0
   39.6300   34.6250   41.0490 C   0  0  0  0  0  0  0  0  0  0  0  0
   39.2350   35.6690   41.2030 H   0  0  0  0  0  0  0  0  0  0  0  0
   39.7420   34.1400   42.0170 H   0  0  0  0  0  0  0  0  0  0  0  0
   38.6170   33.9240   40.1890 C   0  0  0  0  0  0  0  0  0  0  0  0
   37.6310   34.4070   40.2260 H   0  0  0  0  0  0  0  0  0  0  0  0
   39.0140   33.9150   39.1340 H   0  0  0  0  0  0  0  0  0  0  0  0
   38.6960   31.5510   39.4340 C   0  0  1  0  0  3  0  0  0  0  0  0
   38.4390   32.4990   40.5890 C   0  0  1  0  0  3  0  0  0  0  0  0
   39.0890   32.0910   41.7160 O   0  0  0  0  0  0  0  0  0  0  0  0
   39.5810   30.7930   41.6470 C   0  0  0  0  0  2  0  0  0  0  0  0
   38.5940   29.8030   41.1230 C   0  0  2  0  0  3  0  0  0  0  0  0
   38.0460   30.2310   39.7960 C   0  0  2  0  0  3  0  0  0  0  0  0
   38.1940   32.0860   38.2510 O   0  0  0  0  0  0  0  0  0  0  0  0
   38.9160   31.9920   37.5720 H   0  0  0  0  0  0  0  0  0  0  0  0
   37.6230   29.4550   42.0570 O   0  0  0  0  0  0  0  0  0  0  0  0
   36.7060   29.7310   41.7940 H   0  0  0  0  0  0  0  0  0  0  0  0
   38.2050   29.2860   38.7860 O   0  0  0  0  0  0  0  0  0  0  0  0
   37.4550   29.4220   38.1280 H   0  0  0  0  0  0  0  0  0  0  0  0
  1  6  1  0  0  0  0
  1 11  1  0  0  0  0
  2  1  2  0  0  0  0
  3  4  2  0  0  0  0
  3  2  1  0  0  0  0
  4  5  1  0  0  0  0
  5 28  1  0  0  0  0
  5  6  2  0  0  0  0
  7  2  1  0  0  0  0
  8  3  1  0  0  0  0
  9 12  1  1  0  0  0
  9 16  1  0  0  0  0
 10 14  1  0  0  0  0
 10  9  1  0  0  0  0
 10 13  1  0  0  0  0
 11 15  1  6  0  0  0
 11 10  1  0  0  0  0
 11  9  1  0  0  0  0
 16 21  1  0  0  0  0
 17 16  2  0  0  0  0
 17 18  1  0  0  0  0
 18 19  2  0  0  0  0
 19 20  1  0  0  0  0
 20 24  1  0  0  0  0
 21 20  2  0  0  0  0
 22 17  1  0  0  0  0
 23 18  1  0  0  0  0
 24 27  1  0  0  0  0
 24 26  1  0  0  0  0
 24 25  1  0  0  0  0
 28 29  1  0  0  0  0
 28 30  1  0  0  0  0
 31 32  1  0  0  0  0
 31 28  1  0  0  0  0
 33 31  1  0  0  0  0
 34 40  1  6  0  0  0
 34 39  1  0  0  0  0
 34 35  1  0  0  0  0
 35 31  1  6  0  0  0
 35 36  1  0  0  0  0
 37 36  1  0  0  0  0
 38 37  1  0  0  0  0
 38 42  1  1  0  0  0
 39 44  1  6  0  0  0
 39 38  1  0  0  0  0
 41 40  1  0  0  0  0
 43 42  1  0  0  0  0
 45 44  1  0  0  0  0
M  END
>  <minimizedAffinity>
-6.11512136

>  <minimizedRMSD>
1.73478484

$$$$
