
 OpenBabel03252508003D

 32 34  0  0  1  0  0  0  0  0999 V2000
   46.6540   34.6770   43.1060 C   0  0  0  0  0  0  0  0  0  0  0  0
   45.5980   35.6280   43.2580 C   0  0  0  0  0  0  0  0  0  0  0  0
   44.7650   35.4650   44.3710 C   0  0  0  0  0  0  0  0  0  0  0  0
   45.0100   34.4360   45.2150 N   0  0  0  0  0  0  0  0  0  0  0  0
   46.0470   33.5570   45.0040 C   0  0  0  0  0  0  0  0  0  0  0  0
   46.8590   33.6700   43.9690 N   0  0  0  0  0  0  0  0  0  0  0  0
   45.4620   36.4270   42.5430 H   0  0  0  0  0  0  0  0  0  0  0  0
   43.9520   36.1480   44.5420 H   0  0  0  0  0  0  0  0  0  0  0  0
   46.2640   32.4580   45.9940 C   0  0  1  0  0  0  0  0  0  0  0  0
   46.9850   32.7700   47.2870 C   0  0  0  0  0  0  0  0  0  0  0  0
   45.4890   32.6090   47.2430 C   0  0  1  0  0  0  0  0  0  0  0  0
   46.4500   31.4400   45.6130 H   0  0  0  0  0  0  0  0  0  0  0  0
   47.4330   33.7930   47.2970 H   0  0  0  0  0  0  0  0  0  0  0  0
   47.6250   31.9980   47.7230 H   0  0  0  0  0  0  0  0  0  0  0  0
   45.1290   31.7450   47.8240 H   0  0  0  0  0  0  0  0  0  0  0  0
   44.7880   33.8400   47.5230 N   0  0  0  0  0  0  0  0  0  0  0  0
   45.3460   34.6710   47.6600 H   0  0  0  0  0  0  0  0  0  0  0  0
   43.8250   33.8970   47.2180 H   0  0  0  0  0  0  0  0  0  0  0  0
   47.4880   34.8990   41.9510 C   0  0  0  0  0  0  0  0  0  0  0  0
   48.4680   35.7260   41.9410 O   0  0  0  0  0  0  0  0  0  0  0  0
   47.7140   32.7510   40.8960 C   0  0  1  0  0  3  0  0  0  0  0  0
   47.2820   34.1830   40.6580 C   0  0  2  0  0  3  0  0  0  0  0  0
   48.0860   34.8190   39.7190 O   0  0  0  0  0  0  0  0  0  0  0  0
   48.1570   34.1280   38.5210 C   0  0  0  0  0  2  0  0  0  0  0  0
   48.7260   32.7480   38.6710 C   0  0  1  0  0  3  0  0  0  0  0  0
   47.8590   31.9760   39.6240 C   0  0  1  0  0  3  0  0  0  0  0  0
   48.9310   32.7400   41.5720 O   0  0  0  0  0  0  0  0  0  0  0  0
   49.7040   32.9400   40.9820 H   0  0  0  0  0  0  0  0  0  0  0  0
   48.6130   32.1070   37.4280 O   0  0  0  0  0  0  0  0  0  0  0  0
   49.4580   31.6480   37.1990 H   0  0  0  0  0  0  0  0  0  0  0  0
   48.5260   30.7790   39.9700 O   0  0  0  0  0  0  0  0  0  0  0  0
   49.1250   30.9200   40.7560 H   0  0  0  0  0  0  0  0  0  0  0  0
  1  2  2  0  0  0  0
  1  6  1  0  0  0  0
  2  3  1  0  0  0  0
  3  8  1  0  0  0  0
  3  4  2  0  0  0  0
  5  4  1  0  0  0  0
  5  9  1  0  0  0  0
  6  5  2  0  0  0  0
  7  2  1  0  0  0  0
  9 12  1  6  0  0  0
  9 11  1  0  0  0  0
  9 10  1  0  0  0  0
 10 13  1  0  0  0  0
 10 14  1  0  0  0  0
 11 10  1  0  0  0  0
 11 16  1  0  0  0  0
 11 15  1  1  0  0  0
 16 17  1  0  0  0  0
 18 16  1  0  0  0  0
 19  1  1  0  0  0  0
 20 19  2  0  0  0  0
 21 27  1  6  0  0  0
 22 21  1  0  0  0  0
 22 19  1  1  0  0  0
 23 22  1  0  0  0  0
 24 25  1  0  0  0  0
 24 23  1  0  0  0  0
 25 29  1  6  0  0  0
 25 26  1  0  0  0  0
 26 31  1  1  0  0  0
 26 21  1  0  0  0  0
 28 27  1  0  0  0  0
 30 29  1  0  0  0  0
 31 32  1  0  0  0  0
M  END
>  <minimizedAffinity>
-5.83009243

>  <minimizedRMSD>
1.49495399

$$$$
