
 OpenBabel03242517433D

 22 23  0  0  1  0  0  0  0  0999 V2000
   36.6640   31.1230   40.3100 C   0  0  2  0  0  3  0  0  0  0  0  0
   37.4970   29.8670   40.4600 C   0  0  1  0  0  3  0  0  0  0  0  0
   38.5230   29.8470   39.4880 O   0  0  0  0  0  0  0  0  0  0  0  0
   39.3940   30.8840   39.8740 C   0  0  0  0  0  2  0  0  0  0  0  0
   38.7600   32.2180   39.5350 C   0  0  2  0  0  3  0  0  0  0  0  0
   37.5190   32.3670   40.3970 C   0  0  1  0  0  3  0  0  0  0  0  0
   35.7060   31.1370   41.3050 O   0  0  0  0  0  0  0  0  0  0  0  0
   35.4950   32.0670   41.6200 H   0  0  0  0  0  0  0  0  0  0  0  0
   38.4170   32.2450   38.1840 O   0  0  0  0  0  0  0  0  0  0  0  0
   38.7970   31.4520   37.7480 H   0  0  0  0  0  0  0  0  0  0  0  0
   36.7630   33.4500   40.0040 O   0  0  0  0  0  0  0  0  0  0  0  0
   37.1300   34.2580   40.4720 H   0  0  0  0  0  0  0  0  0  0  0  0
   38.2860   29.7410   42.0720 S   0  0  0  0  0  0  0  0  0  0  0  0
   39.6770   27.6640   43.3040 C   0  0  0  0  0  0  0  0  0  0  0  0
   38.6750   28.0270   42.3990 C   0  0  0  0  0  0  0  0  0  0  0  0
   37.9650   27.0210   41.7440 C   0  0  0  0  0  0  0  0  0  0  0  0
   38.3000   25.7230   42.0340 N   0  0  0  0  0  0  0  0  0  0  0  0
   39.2640   25.4230   42.9070 C   0  0  0  0  0  0  0  0  0  0  0  0
   39.9730   26.3660   43.5600 N   0  0  0  0  0  0  0  0  0  0  0  0
   40.2490   28.4190   43.8270 H   0  0  0  0  0  0  0  0  0  0  0  0
   37.1940   27.3160   41.0460 H   0  0  0  0  0  0  0  0  0  0  0  0
   39.3460   24.3420   42.9700 H   0  0  0  0  0  0  0  0  0  0  0  0
  1  6  1  0  0  0  0
  1  2  1  0  0  0  0
  1  7  1  1  0  0  0
  2 13  1  1  0  0  0
  3  4  1  0  0  0  0
  3  2  1  0  0  0  0
  5  9  1  6  0  0  0
  5  4  1  0  0  0  0
  5  6  1  0  0  0  0
  6 11  1  6  0  0  0
  7  8  1  0  0  0  0
 10  9  1  0  0  0  0
 11 12  1  0  0  0  0
 13 15  1  0  0  0  0
 14 19  1  0  0  0  0
 14 20  1  0  0  0  0
 15 14  2  0  0  0  0
 16 17  2  0  0  0  0
 16 15  1  0  0  0  0
 17 18  1  0  0  0  0
 18 22  1  0  0  0  0
 18 19  2  0  0  0  0
 21 16  1  0  0  0  0
M  END
>  <minimizedAffinity>
-5.17443419

$$$$

 OpenBabel03242517433D

 22 23  0  0  1  0  0  0  0  0999 V2000
   36.6680   31.1220   40.3090 C   0  0  2  0  0  3  0  0  0  0  0  0
   37.5060   29.8700   40.4670 C   0  0  1  0  0  3  0  0  0  0  0  0
   38.5320   29.8480   39.4950 O   0  0  0  0  0  0  0  0  0  0  0  0
   39.3990   30.8910   39.8760 C   0  0  0  0  0  2  0  0  0  0  0  0
   38.7610   32.2210   39.5290 C   0  0  2  0  0  3  0  0  0  0  0  0
   37.5190   32.3690   40.3900 C   0  0  1  0  0  3  0  0  0  0  0  0
   35.7090   31.1380   41.3040 O   0  0  0  0  0  0  0  0  0  0  0  0
   35.4940   32.0690   41.6130 H   0  0  0  0  0  0  0  0  0  0  0  0
   38.4180   32.2390   38.1790 O   0  0  0  0  0  0  0  0  0  0  0  0
   38.8010   31.4450   37.7470 H   0  0  0  0  0  0  0  0  0  0  0  0
   36.7590   33.4480   39.9910 O   0  0  0  0  0  0  0  0  0  0  0  0
   37.1220   34.2590   40.4550 H   0  0  0  0  0  0  0  0  0  0  0  0
   38.2940   29.7550   42.0790 S   0  0  0  0  0  0  0  0  0  0  0  0
   37.9490   26.9990   41.8520 C   0  0  0  0  0  0  0  0  0  0  0  0
   38.6860   28.0440   42.4180 C   0  0  0  0  0  0  0  0  0  0  0  0
   39.7530   27.7340   43.2620 C   0  0  0  0  0  0  0  0  0  0  0  0
   40.0130   26.4070   43.4850 N   0  0  0  0  0  0  0  0  0  0  0  0
   39.2830   25.4410   42.9220 C   0  0  0  0  0  0  0  0  0  0  0  0
   38.2450   25.7000   42.1010 N   0  0  0  0  0  0  0  0  0  0  0  0
   37.1130   27.2040   41.1960 H   0  0  0  0  0  0  0  0  0  0  0  0
   40.3130   28.5530   43.6920 H   0  0  0  0  0  0  0  0  0  0  0  0
   39.6760   24.4820   43.2440 H   0  0  0  0  0  0  0  0  0  0  0  0
  1  6  1  0  0  0  0
  1  2  1  0  0  0  0
  1  7  1  1  0  0  0
  2 13  1  1  0  0  0
  3  4  1  0  0  0  0
  3  2  1  0  0  0  0
  5  9  1  6  0  0  0
  5  4  1  0  0  0  0
  5  6  1  0  0  0  0
  6 11  1  6  0  0  0
  7  8  1  0  0  0  0
 10  9  1  0  0  0  0
 11 12  1  0  0  0  0
 13 15  1  0  0  0  0
 14 19  2  0  0  0  0
 14 15  1  0  0  0  0
 15 16  2  0  0  0  0
 16 17  1  0  0  0  0
 16 21  1  0  0  0  0
 18 22  1  0  0  0  0
 18 17  2  0  0  0  0
 19 18  1  0  0  0  0
 20 14  1  0  0  0  0
M  END
>  <minimizedAffinity>
-5.16908836

$$$$

 OpenBabel03242517433D

 22 23  0  0  1  0  0  0  0  0999 V2000
   41.2190   32.3160   37.4850 C   0  0  2  0  0  3  0  0  0  0  0  0
   40.8760   31.5820   38.7640 C   0  0  1  0  0  3  0  0  0  0  0  0
   42.0320   31.4320   39.5630 O   0  0  0  0  0  0  0  0  0  0  0  0
   42.3350   32.7400   39.9900 C   0  0  0  0  0  2  0  0  0  0  0  0
   42.9340   33.5150   38.8330 C   0  0  2  0  0  3  0  0  0  0  0  0
   41.8570   33.6570   37.7730 C   0  0  1  0  0  3  0  0  0  0  0  0
   40.0610   32.4910   36.7530 O   0  0  0  0  0  0  0  0  0  0  0  0
   40.0620   33.3500   36.2330 H   0  0  0  0  0  0  0  0  0  0  0  0
   44.0290   32.8210   38.3210 O   0  0  0  0  0  0  0  0  0  0  0  0
   44.2360   32.0720   38.9210 H   0  0  0  0  0  0  0  0  0  0  0  0
   42.3740   34.1590   36.5980 O   0  0  0  0  0  0  0  0  0  0  0  0
   42.3690   35.1600   36.6720 H   0  0  0  0  0  0  0  0  0  0  0  0
   39.6480   32.4440   39.7570 S   0  0  0  0  0  0  0  0  0  0  0  0
   37.5490   30.8110   40.5900 C   0  0  0  0  0  0  0  0  0  0  0  0
   38.8450   31.2710   40.8410 C   0  0  0  0  0  0  0  0  0  0  0  0
   39.5210   30.7950   41.9650 C   0  0  0  0  0  0  0  0  0  0  0  0
   38.8610   29.8940   42.7610 N   0  0  0  0  0  0  0  0  0  0  0  0
   37.6230   29.4810   42.4810 C   0  0  0  0  0  0  0  0  0  0  0  0
   36.9370   29.9180   41.4060 N   0  0  0  0  0  0  0  0  0  0  0  0
   36.9950   31.1620   39.7290 H   0  0  0  0  0  0  0  0  0  0  0  0
   40.5220   31.1600   42.1460 H   0  0  0  0  0  0  0  0  0  0  0  0
   37.3160   28.7760   43.2470 H   0  0  0  0  0  0  0  0  0  0  0  0
  1  7  1  1  0  0  0
  1  6  1  0  0  0  0
  1  2  1  0  0  0  0
  2  3  1  0  0  0  0
  2 13  1  1  0  0  0
  3  4  1  0  0  0  0
  5  9  1  6  0  0  0
  5  4  1  0  0  0  0
  6 11  1  6  0  0  0
  6  5  1  0  0  0  0
  8  7  1  0  0  0  0
  9 10  1  0  0  0  0
 11 12  1  0  0  0  0
 13 15  1  0  0  0  0
 14 15  2  0  0  0  0
 14 19  1  0  0  0  0
 15 16  1  0  0  0  0
 16 21  1  0  0  0  0
 16 17  2  0  0  0  0
 18 17  1  0  0  0  0
 18 22  1  0  0  0  0
 19 18  2  0  0  0  0
 20 14  1  0  0  0  0
M  END
>  <minimizedAffinity>
-4.95492649

$$$$

 OpenBabel03242517433D

 22 23  0  0  1  0  0  0  0  0999 V2000
   36.6160   30.6410   41.2760 C   0  0  2  0  0  3  0  0  0  0  0  0
   38.1150   30.5350   41.4660 C   0  0  1  0  0  3  0  0  0  0  0  0
   38.4230   29.4130   42.2680 O   0  0  0  0  0  0  0  0  0  0  0  0
   38.1010   28.3050   41.4610 C   0  0  0  0  0  2  0  0  0  0  0  0
   36.5940   28.1550   41.3990 C   0  0  2  0  0  3  0  0  0  0  0  0
   36.0440   29.3740   40.6800 C   0  0  1  0  0  3  0  0  0  0  0  0
   36.3530   31.7150   40.4470 O   0  0  0  0  0  0  0  0  0  0  0  0
   35.5500   31.5590   39.8630 H   0  0  0  0  0  0  0  0  0  0  0  0
   36.0760   28.0810   42.6910 O   0  0  0  0  0  0  0  0  0  0  0  0
   36.8220   27.9990   43.3230 H   0  0  0  0  0  0  0  0  0  0  0  0
   34.6690   29.4290   40.7670 O   0  0  0  0  0  0  0  0  0  0  0  0
   34.2990   28.8760   40.0160 H   0  0  0  0  0  0  0  0  0  0  0  0
   39.0040   30.3430   39.9140 S   0  0  0  0  0  0  0  0  0  0  0  0
   40.0230   32.8680   40.5100 C   0  0  0  0  0  0  0  0  0  0  0  0
   39.8840   31.8580   39.5530 C   0  0  0  0  0  0  0  0  0  0  0  0
   40.4510   32.0430   38.2930 C   0  0  0  0  0  0  0  0  0  0  0  0
   41.1180   33.2200   38.0700 N   0  0  0  0  0  0  0  0  0  0  0  0
   41.2270   34.1570   39.0140 C   0  0  0  0  0  0  0  0  0  0  0  0
   40.6930   34.0160   40.2440 N   0  0  0  0  0  0  0  0  0  0  0  0
   39.5920   32.7580   41.4970 H   0  0  0  0  0  0  0  0  0  0  0  0
   40.3350   31.2530   37.5630 H   0  0  0  0  0  0  0  0  0  0  0  0
   41.7930   34.9890   38.6070 H   0  0  0  0  0  0  0  0  0  0  0  0
  1  7  1  6  0  0  0
  1  2  1  0  0  0  0
  2 13  1  6  0  0  0
  2  3  1  0  0  0  0
  4  3  1  0  0  0  0
  5  4  1  0  0  0  0
  5  9  1  1  0  0  0
  6 11  1  1  0  0  0
  6  1  1  0  0  0  0
  6  5  1  0  0  0  0
  8  7  1  0  0  0  0
  9 10  1  0  0  0  0
 12 11  1  0  0  0  0
 14 20  1  0  0  0  0
 15 13  1  0  0  0  0
 15 14  2  0  0  0  0
 16 15  1  0  0  0  0
 17 16  2  0  0  0  0
 17 18  1  0  0  0  0
 18 19  2  0  0  0  0
 19 14  1  0  0  0  0
 21 16  1  0  0  0  0
 22 18  1  0  0  0  0
M  END
>  <minimizedAffinity>
-4.73434353

$$$$

 OpenBabel03242517433D

 22 23  0  0  1  0  0  0  0  0999 V2000
   39.1110   32.8160   39.7180 C   0  0  2  0  0  3  0  0  0  0  0  0
   38.5230   31.4340   39.9110 C   0  0  1  0  0  3  0  0  0  0  0  0
   38.3990   30.7800   38.6640 O   0  0  0  0  0  0  0  0  0  0  0  0
   39.7270   30.5340   38.2640 C   0  0  0  0  0  2  0  0  0  0  0  0
   40.3570   31.8320   37.8000 C   0  0  2  0  0  3  0  0  0  0  0  0
   40.4430   32.7530   39.0040 C   0  0  1  0  0  3  0  0  0  0  0  0
   39.2660   33.4060   40.9580 O   0  0  0  0  0  0  0  0  0  0  0  0
   40.0700   34.0070   40.9970 H   0  0  0  0  0  0  0  0  0  0  0  0
   39.5670   32.4080   36.8060 O   0  0  0  0  0  0  0  0  0  0  0  0
   38.8720   31.7650   36.5460 H   0  0  0  0  0  0  0  0  0  0  0  0
   40.8040   34.0310   38.6320 O   0  0  0  0  0  0  0  0  0  0  0  0
   41.8060   34.0600   38.5950 H   0  0  0  0  0  0  0  0  0  0  0  0
   39.5330   30.3850   40.9660 S   0  0  0  0  0  0  0  0  0  0  0  0
   38.9300   28.5050   42.9330 C   0  0  0  0  0  0  0  0  0  0  0  0
   38.4750   29.2290   41.8270 C   0  0  0  0  0  0  0  0  0  0  0  0
   37.1630   29.0410   41.3950 C   0  0  0  0  0  0  0  0  0  0  0  0
   36.3920   28.1470   42.0920 N   0  0  0  0  0  0  0  0  0  0  0  0
   36.8690   27.4770   43.1440 C   0  0  0  0  0  0  0  0  0  0  0  0
   38.1310   27.6310   43.5930 N   0  0  0  0  0  0  0  0  0  0  0  0
   39.9440   28.6240   43.2930 H   0  0  0  0  0  0  0  0  0  0  0  0
   36.8250   29.6080   40.5380 H   0  0  0  0  0  0  0  0  0  0  0  0
   36.0810   26.8360   43.5270 H   0  0  0  0  0  0  0  0  0  0  0  0
  1  2  1  0  0  0  0
  1  7  1  1  0  0  0
  2 13  1  1  0  0  0
  3  2  1  0  0  0  0
  4  3  1  0  0  0  0
  5  9  1  6  0  0  0
  5  4  1  0  0  0  0
  5  6  1  0  0  0  0
  6 11  1  6  0  0  0
  6  1  1  0  0  0  0
  7  8  1  0  0  0  0
 10  9  1  0  0  0  0
 12 11  1  0  0  0  0
 13 15  1  0  0  0  0
 14 20  1  0  0  0  0
 14 19  1  0  0  0  0
 15 14  2  0  0  0  0
 16 15  1  0  0  0  0
 16 17  2  0  0  0  0
 17 18  1  0  0  0  0
 18 22  1  0  0  0  0
 18 19  2  0  0  0  0
 21 16  1  0  0  0  0
M  END
>  <minimizedAffinity>
-4.71767712

$$$$

 OpenBabel03242517433D

 22 23  0  0  1  0  0  0  0  0999 V2000
   36.4810   29.0140   42.0120 C   0  0  2  0  0  3  0  0  0  0  0  0
   37.0530   27.7370   41.4320 C   0  0  1  0  0  3  0  0  0  0  0  0
   36.2460   27.2850   40.3640 O   0  0  0  0  0  0  0  0  0  0  0  0
   36.4420   28.2400   39.3470 C   0  0  0  0  0  2  0  0  0  0  0  0
   35.6910   29.5070   39.7030 C   0  0  2  0  0  3  0  0  0  0  0  0
   36.3340   30.0830   40.9520 C   0  0  1  0  0  3  0  0  0  0  0  0
   37.3200   29.4560   43.0160 O   0  0  0  0  0  0  0  0  0  0  0  0
   37.3510   30.4580   43.0760 H   0  0  0  0  0  0  0  0  0  0  0  0
   34.3510   29.2080   39.9440 O   0  0  0  0  0  0  0  0  0  0  0  0
   34.1870   28.2740   39.6860 H   0  0  0  0  0  0  0  0  0  0  0  0
   35.5840   31.1170   41.4710 O   0  0  0  0  0  0  0  0  0  0  0  0
   35.8610   31.9560   40.9960 H   0  0  0  0  0  0  0  0  0  0  0  0
   38.7200   27.9460   40.7910 S   0  0  0  0  0  0  0  0  0  0  0  0
   40.5580   27.7040   42.8730 C   0  0  0  0  0  0  0  0  0  0  0  0
   39.8660   27.0620   41.8410 C   0  0  0  0  0  0  0  0  0  0  0  0
   40.0780   25.6990   41.6370 C   0  0  0  0  0  0  0  0  0  0  0  0
   40.9630   25.0680   42.4730 N   0  0  0  0  0  0  0  0  0  0  0  0
   41.6010   25.7210   43.4460 C   0  0  0  0  0  0  0  0  0  0  0  0
   41.4230   27.0380   43.6750 N   0  0  0  0  0  0  0  0  0  0  0  0
   40.4190   28.7620   43.0560 H   0  0  0  0  0  0  0  0  0  0  0  0
   39.5360   25.2150   40.8350 H   0  0  0  0  0  0  0  0  0  0  0  0
   42.2410   25.0170   43.9690 H   0  0  0  0  0  0  0  0  0  0  0  0
  1  7  1  1  0  0  0
  2 13  1  6  0  0  0
  2  1  1  0  0  0  0
  3  2  1  0  0  0  0
  4  5  1  0  0  0  0
  4  3  1  0  0  0  0
  5  9  1  1  0  0  0
  5  6  1  0  0  0  0
  6 11  1  1  0  0  0
  6  1  1  0  0  0  0
  7  8  1  0  0  0  0
 10  9  1  0  0  0  0
 12 11  1  0  0  0  0
 13 15  1  0  0  0  0
 14 20  1  0  0  0  0
 14 19  1  0  0  0  0
 15 14  2  0  0  0  0
 16 15  1  0  0  0  0
 16 17  2  0  0  0  0
 17 18  1  0  0  0  0
 18 19  2  0  0  0  0
 18 22  1  0  0  0  0
 21 16  1  0  0  0  0
M  END
>  <minimizedAffinity>
-4.60941839

$$$$

 OpenBabel03242517433D

 22 23  0  0  1  0  0  0  0  0999 V2000
   41.1320   32.3540   37.8860 C   0  0  2  0  0  3  0  0  0  0  0  0
   40.5930   31.8520   39.2090 C   0  0  1  0  0  3  0  0  0  0  0  0
   41.5500   32.0500   40.2290 O   0  0  0  0  0  0  0  0  0  0  0  0
   41.6070   33.4480   40.3910 C   0  0  0  0  0  2  0  0  0  0  0  0
   42.3620   34.0540   39.2250 C   0  0  2  0  0  3  0  0  0  0  0  0
   41.5410   33.8080   37.9720 C   0  0  1  0  0  3  0  0  0  0  0  0
   40.1550   32.1940   36.9220 O   0  0  0  0  0  0  0  0  0  0  0  0
   40.1800   32.9190   36.2270 H   0  0  0  0  0  0  0  0  0  0  0  0
   43.6120   33.4500   39.1100 O   0  0  0  0  0  0  0  0  0  0  0  0
   43.7590   32.8800   39.8970 H   0  0  0  0  0  0  0  0  0  0  0  0
   42.2500   34.1340   36.8360 O   0  0  0  0  0  0  0  0  0  0  0  0
   42.1200   35.1160   36.6730 H   0  0  0  0  0  0  0  0  0  0  0  0
   39.0880   32.6970   39.7160 S   0  0  0  0  0  0  0  0  0  0  0  0
   37.2090   31.0020   40.8830 C   0  0  0  0  0  0  0  0  0  0  0  0
   37.7310   31.5340   39.6990 C   0  0  0  0  0  0  0  0  0  0  0  0
   37.1700   31.1440   38.4830 C   0  0  0  0  0  0  0  0  0  0  0  0
   36.1290   30.2530   38.5270 N   0  0  0  0  0  0  0  0  0  0  0  0
   35.6620   29.7720   39.6810 C   0  0  0  0  0  0  0  0  0  0  0  0
   36.1760   30.1240   40.8770 N   0  0  0  0  0  0  0  0  0  0  0  0
   37.6220   31.2800   41.8430 H   0  0  0  0  0  0  0  0  0  0  0  0
   37.5840   31.5630   37.5760 H   0  0  0  0  0  0  0  0  0  0  0  0
   34.8440   29.0910   39.4620 H   0  0  0  0  0  0  0  0  0  0  0  0
  1  7  1  6  0  0  0
  1  6  1  0  0  0  0
  1  2  1  0  0  0  0
  2 13  1  1  0  0  0
  2  3  1  0  0  0  0
  3  4  1  0  0  0  0
  5  9  1  6  0  0  0
  5  4  1  0  0  0  0
  6 11  1  6  0  0  0
  6  5  1  0  0  0  0
  8  7  1  0  0  0  0
  9 10  1  0  0  0  0
 12 11  1  0  0  0  0
 14 20  1  0  0  0  0
 15 13  1  0  0  0  0
 15 14  2  0  0  0  0
 16 17  2  0  0  0  0
 16 15  1  0  0  0  0
 17 18  1  0  0  0  0
 18 19  2  0  0  0  0
 19 14  1  0  0  0  0
 21 16  1  0  0  0  0
 22 18  1  0  0  0  0
M  END
>  <minimizedAffinity>
-4.58062887

$$$$

 OpenBabel03242517433D

 22 23  0  0  1  0  0  0  0  0999 V2000
   36.8640   30.5560   39.2010 C   0  0  2  0  0  3  0  0  0  0  0  0
   38.1130   30.7430   38.3650 C   0  0  1  0  0  3  0  0  0  0  0  0
   38.4540   32.1130   38.3030 O   0  0  0  0  0  0  0  0  0  0  0  0
   38.8670   32.4320   39.6110 C   0  0  0  0  0  2  0  0  0  0  0  0
   37.6500   32.5230   40.5090 C   0  0  2  0  0  3  0  0  0  0  0  0
   37.0360   31.1360   40.5870 C   0  0  1  0  0  3  0  0  0  0  0  0
   36.5890   29.2050   39.2850 O   0  0  0  0  0  0  0  0  0  0  0  0
   36.1780   28.9520   40.1660 H   0  0  0  0  0  0  0  0  0  0  0  0
   36.7350   33.4270   39.9710 O   0  0  0  0  0  0  0  0  0  0  0  0
   37.1610   33.8930   39.2180 H   0  0  0  0  0  0  0  0  0  0  0  0
   35.8050   31.1680   41.2070 O   0  0  0  0  0  0  0  0  0  0  0  0
   35.9660   31.1020   42.1950 H   0  0  0  0  0  0  0  0  0  0  0  0
   39.5370   29.8680   39.0300 S   0  0  0  0  0  0  0  0  0  0  0  0
   41.5750   31.0340   37.5300 C   0  0  0  0  0  0  0  0  0  0  0  0
   40.8470   29.8750   37.8140 C   0  0  0  0  0  0  0  0  0  0  0  0
   41.1610   28.7000   37.1310 C   0  0  0  0  0  0  0  0  0  0  0  0
   42.1770   28.7590   36.2120 N   0  0  0  0  0  0  0  0  0  0  0  0
   42.8460   29.8890   35.9730 C   0  0  0  0  0  0  0  0  0  0  0  0
   42.5730   31.0440   36.6120 N   0  0  0  0  0  0  0  0  0  0  0  0
   41.3550   31.9630   38.0390 H   0  0  0  0  0  0  0  0  0  0  0  0
   40.5900   27.8110   37.3610 H   0  0  0  0  0  0  0  0  0  0  0  0
   43.5970   29.6890   35.2140 H   0  0  0  0  0  0  0  0  0  0  0  0
  1  7  1  1  0  0  0
  1  6  1  0  0  0  0
  2 13  1  1  0  0  0
  2  1  1  0  0  0  0
  3  2  1  0  0  0  0
  3  4  1  0  0  0  0
  4  5  1  0  0  0  0
  5  9  1  6  0  0  0
  5  6  1  0  0  0  0
  6 11  1  6  0  0  0
  7  8  1  0  0  0  0
 10  9  1  0  0  0  0
 11 12  1  0  0  0  0
 14 15  1  0  0  0  0
 14 20  1  0  0  0  0
 15 13  1  0  0  0  0
 16 21  1  0  0  0  0
 16 15  2  0  0  0  0
 17 16  1  0  0  0  0
 18 17  2  0  0  0  0
 18 19  1  0  0  0  0
 19 14  2  0  0  0  0
 22 18  1  0  0  0  0
M  END
>  <minimizedAffinity>
-4.52334309

$$$$

 OpenBabel03242517433D

 22 23  0  0  1  0  0  0  0  0999 V2000
   39.0810   30.6200   38.0870 C   0  0  2  0  0  3  0  0  0  0  0  0
   38.5400   29.9480   39.3320 C   0  0  1  0  0  3  0  0  0  0  0  0
   38.0860   30.9230   40.2500 O   0  0  0  0  0  0  0  0  0  0  0  0
   36.9450   31.4770   39.6370 C   0  0  0  0  0  2  0  0  0  0  0  0
   37.3800   32.3880   38.5070 C   0  0  2  0  0  3  0  0  0  0  0  0
   38.0460   31.5220   37.4520 C   0  0  1  0  0  3  0  0  0  0  0  0
   39.4680   29.6410   37.1920 O   0  0  0  0  0  0  0  0  0  0  0  0
   39.3240   29.9170   36.2370 H   0  0  0  0  0  0  0  0  0  0  0  0
   38.2780   33.3390   38.9890 O   0  0  0  0  0  0  0  0  0  0  0  0
   38.3020   33.2790   39.9690 H   0  0  0  0  0  0  0  0  0  0  0  0
   38.6630   32.2900   36.4890 O   0  0  0  0  0  0  0  0  0  0  0  0
   37.9710   32.5180   35.7990 H   0  0  0  0  0  0  0  0  0  0  0  0
   37.1570   28.8500   38.9900 S   0  0  0  0  0  0  0  0  0  0  0  0
   37.1120   27.8200   41.5790 C   0  0  0  0  0  0  0  0  0  0  0  0
   37.1340   27.5420   40.2080 C   0  0  0  0  0  0  0  0  0  0  0  0
   37.1340   26.2110   39.7920 C   0  0  0  0  0  0  0  0  0  0  0  0
   37.1120   25.2470   40.7670 N   0  0  0  0  0  0  0  0  0  0  0  0
   37.0900   25.5580   42.0650 C   0  0  0  0  0  0  0  0  0  0  0  0
   37.0890   26.8320   42.5070 N   0  0  0  0  0  0  0  0  0  0  0  0
   37.1150   28.8410   41.9360 H   0  0  0  0  0  0  0  0  0  0  0  0
   37.1520   26.0120   38.7290 H   0  0  0  0  0  0  0  0  0  0  0  0
   37.0740   24.6360   42.6380 H   0  0  0  0  0  0  0  0  0  0  0  0
  1  7  1  6  0  0  0
  1  2  1  0  0  0  0
  2 13  1  6  0  0  0
  2  3  1  0  0  0  0
  4  3  1  0  0  0  0
  5  9  1  1  0  0  0
  5  4  1  0  0  0  0
  6 11  1  6  0  0  0
  6  1  1  0  0  0  0
  6  5  1  0  0  0  0
  8  7  1  0  0  0  0
  9 10  1  0  0  0  0
 12 11  1  0  0  0  0
 13 15  1  0  0  0  0
 14 20  1  0  0  0  0
 14 19  1  0  0  0  0
 15 14  2  0  0  0  0
 16 15  1  0  0  0  0
 16 17  2  0  0  0  0
 17 18  1  0  0  0  0
 18 19  2  0  0  0  0
 18 22  1  0  0  0  0
 21 16  1  0  0  0  0
M  END
>  <minimizedAffinity>
-4.41615391

$$$$
