
 OpenBabel03242520483D

 22 23  0  0  1  0  0  0  0  0999 V2000
   49.1500   34.4040   42.6340 C   0  0  1  0  0  3  0  0  0  0  0  0
   48.2810   34.7550   41.4810 C   0  0  1  0  0  3  0  0  0  0  0  0
   47.8680   33.7670   40.6540 O   0  0  0  0  0  0  0  0  0  0  0  0
   48.2940   32.4900   40.9240 C   0  0  0  0  0  2  0  0  0  0  0  0
   49.8020   32.5920   41.0850 C   0  0  1  0  0  3  0  0  0  0  0  0
   49.9510   33.1490   42.4900 C   0  0  1  0  0  3  0  0  0  0  0  0
   50.0550   35.4320   42.9130 O   0  0  0  0  0  0  0  0  0  0  0  0
   50.4900   35.3740   43.7780 H   0  0  0  0  0  0  0  0  0  0  0  0
   50.4040   31.3770   40.9240 O   0  0  0  0  0  0  0  0  0  0  0  0
   51.0990   31.2470   41.6120 H   0  0  0  0  0  0  0  0  0  0  0  0
   51.3230   33.3490   42.6830 O   0  0  0  0  0  0  0  0  0  0  0  0
   51.6400   32.9490   43.5460 H   0  0  0  0  0  0  0  0  0  0  0  0
   47.1510   35.5170   41.8760 O   0  0  0  0  0  0  0  0  0  0  0  0
   44.6560   35.5040   44.6270 C   0  0  0  0  0  0  0  0  0  0  0  0
   45.3170   35.9360   43.4750 C   0  0  0  0  0  0  0  0  0  0  0  0
   46.4050   35.2030   43.0040 C   0  0  0  0  0  0  0  0  0  0  0  0
   46.7730   34.0850   43.7060 N   0  0  0  0  0  0  0  0  0  0  0  0
   46.1170   33.6910   44.8140 C   0  0  0  0  0  0  0  0  0  0  0  0
   45.0570   34.4030   45.2740 N   0  0  0  0  0  0  0  0  0  0  0  0
   43.8170   36.0770   44.9810 H   0  0  0  0  0  0  0  0  0  0  0  0
   45.0390   36.8210   42.9060 H   0  0  0  0  0  0  0  0  0  0  0  0
   46.5320   32.7830   45.2560 H   0  0  0  0  0  0  0  0  0  0  0  0
  1  7  1  6  0  0  0
  2 13  1  1  0  0  0
  2  1  1  0  0  0  0
  3  4  1  0  0  0  0
  3  2  1  0  0  0  0
  4  5  1  0  0  0  0
  5  9  1  1  0  0  0
  5  6  1  0  0  0  0
  6  1  1  0  0  0  0
  6 11  1  6  0  0  0
  7  8  1  0  0  0  0
  9 10  1  0  0  0  0
 11 12  1  0  0  0  0
 13 16  1  0  0  0  0
 14 20  1  0  0  0  0
 14 19  1  0  0  0  0
 15 14  2  0  0  0  0
 16 15  1  0  0  0  0
 16 17  2  0  0  0  0
 17 18  1  0  0  0  0
 18 22  1  0  0  0  0
 18 19  2  0  0  0  0
 21 15  1  0  0  0  0
M  END
>  <minimizedAffinity>
-5.31206274

>  <minimizedRMSD>
1.3499763

$$$$
