
 OpenBabel03242522513D

 29 30  0  0  1  0  0  0  0  0999 V2000
   47.3870   31.7210   48.3470 O   0  0  0  0  0  0  0  0  0  0  0  0
   45.1020   30.6100   47.7200 O   0  0  0  0  0  0  0  0  0  0  0  0
   45.7390   31.8330   48.4190 P   0  0  1  0  0  0  0  0  0  0  0  0
   45.1750   31.7930   50.0020 O   0  0  0  0  0  0  0  0  0  0  0  0
   44.6000   32.5620   50.2460 H   0  0  0  0  0  0  0  0  0  0  0  0
   45.2050   33.2290   47.6390 O   0  0  0  0  0  0  0  0  0  0  0  0
   47.0460   33.0230   44.5130 C   0  0  0  0  0  0  0  0  0  0  0  0
   46.6180   32.7670   45.8280 C   0  0  0  0  0  0  0  0  0  0  0  0
   45.5880   33.5160   46.3460 C   0  0  0  0  0  0  0  0  0  0  0  0
   45.0390   34.4670   45.5560 N   0  0  0  0  0  0  0  0  0  0  0  0
   45.4430   34.7140   44.3050 C   0  0  0  0  0  0  0  0  0  0  0  0
   46.4600   33.9810   43.7800 N   0  0  0  0  0  0  0  0  0  0  0  0
   47.8450   32.4890   44.0160 H   0  0  0  0  0  0  0  0  0  0  0  0
   47.1780   31.9820   46.2650 H   0  0  0  0  0  0  0  0  0  0  0  0
   44.9860   35.4750   43.7050 H   0  0  0  0  0  0  0  0  0  0  0  0
   48.2360   30.7150   48.6620 C   0  0  0  0  0  0  0  0  0  0  0  0
   48.6790   30.7910   49.8610 O   0  0  0  0  0  0  0  0  0  0  0  0
   50.4500   29.8020   48.0330 C   0  0  2  0  0  3  0  0  0  0  0  0
   49.0660   29.4990   48.5660 C   0  0  2  0  0  3  0  0  0  0  0  0
   48.4340   28.4960   47.8410 O   0  0  0  0  0  0  0  0  0  0  0  0
   48.8240   28.3940   46.5270 C   0  0  0  0  0  2  0  0  0  0  0  0
   50.2830   28.1710   46.2920 C   0  0  2  0  0  3  0  0  0  0  0  0
   51.0000   28.4470   47.6020 C   0  0  1  0  0  3  0  0  0  0  0  0
   51.2560   30.3370   49.0640 O   0  0  0  0  0  0  0  0  0  0  0  0
   51.7870   29.5990   49.4650 H   0  0  0  0  0  0  0  0  0  0  0  0
   50.7820   29.1430   45.3950 O   0  0  0  0  0  0  0  0  0  0  0  0
   50.2340   29.2170   44.5860 H   0  0  0  0  0  0  0  0  0  0  0  0
   52.3750   28.4610   47.4350 O   0  0  0  0  0  0  0  0  0  0  0  0
   52.7570   29.3220   47.6910 H   0  0  0  0  0  0  0  0  0  0  0  0
  1  3  1  0  0  0  0
  1 16  1  0  0  0  0
  3  2  2  6  0  0  0
  3  4  1  0  0  0  0
  4  5  1  0  0  0  0
  6  3  1  0  0  0  0
  7  8  1  0  0  0  0
  8 14  1  0  0  0  0
  8  9  2  0  0  0  0
  9  6  1  0  0  0  0
 10  9  1  0  0  0  0
 11 10  2  0  0  0  0
 12 11  1  0  0  0  0
 12  7  2  0  0  0  0
 13  7  1  0  0  0  0
 15 11  1  0  0  0  0
 16 17  2  0  0  0  0
 18 19  1  0  0  0  0
 18 24  1  1  0  0  0
 19 16  1  6  0  0  0
 20 19  1  0  0  0  0
 21 20  1  0  0  0  0
 22 26  1  6  0  0  0
 22 21  1  0  0  0  0
 22 23  1  0  0  0  0
 23 28  1  6  0  0  0
 23 18  1  0  0  0  0
 24 25  1  0  0  0  0
 27 26  1  0  0  0  0
 28 29  1  0  0  0  0
M  END
>  <minimizedAffinity>
-4.56872654

>  <minimizedRMSD>
0.708499432

$$$$
