
 OpenBabel03252505433D

 45 48  0  0  1  0  0  0  0  0999 V2000
   42.8230   34.8490   40.3430 C   0  0  0  0  0  0  0  0  0  0  0  0
   42.7140   35.1230   39.0000 C   0  0  0  0  0  0  0  0  0  0  0  0
   41.5380   35.0140   38.3060 C   0  0  0  0  0  0  0  0  0  0  0  0
   40.4370   34.6150   38.9920 N   0  0  0  0  0  0  0  0  0  0  0  0
   40.5280   34.3380   40.3260 C   0  0  0  0  0  0  0  0  0  0  0  0
   41.6940   34.4510   40.9970 N   0  0  0  0  0  0  0  0  0  0  0  0
   43.5830   35.4360   38.4610 H   0  0  0  0  0  0  0  0  0  0  0  0
   41.4570   35.2320   37.2430 H   0  0  0  0  0  0  0  0  0  0  0  0
   44.0780   34.6230   42.4630 C   0  0  1  0  0  0  0  0  0  0  0  0
   44.2840   36.1200   42.0480 C   0  0  0  0  0  0  0  0  0  0  0  0
   44.1440   34.9570   41.0710 C   0  0  2  0  0  0  0  0  0  0  0  0
   43.0850   34.4970   42.9750 H   0  0  0  0  0  0  0  0  0  0  0  0
   45.2960   36.5320   42.2080 H   0  0  0  0  0  0  0  0  0  0  0  0
   43.4110   36.7810   42.0950 H   0  0  0  0  0  0  0  0  0  0  0  0
   44.9800   34.8590   40.3830 H   0  0  0  0  0  0  0  0  0  0  0  0
   45.2050   34.0610   43.2370 C   0  0  0  0  0  0  0  0  0  0  0  0
   46.4540   33.9590   42.5890 C   0  0  0  0  0  0  0  0  0  0  0  0
   47.5290   33.4360   43.2940 C   0  0  0  0  0  0  0  0  0  0  0  0
   47.3200   33.0510   44.5790 N   0  0  0  0  0  0  0  0  0  0  0  0
   46.1240   33.1620   45.1600 C   0  0  0  0  0  0  0  0  0  0  0  0
   45.0960   33.6660   44.4710 N   0  0  0  0  0  0  0  0  0  0  0  0
   46.5640   34.2860   41.5530 H   0  0  0  0  0  0  0  0  0  0  0  0
   48.5220   33.3390   42.8260 H   0  0  0  0  0  0  0  0  0  0  0  0
   46.1010   32.6840   46.5860 C   0  0  0  0  0  0  0  0  0  0  0  0
   45.1240   33.3380   47.3220 F   0  0  0  0  0  0  0  0  0  0  0  0
   47.3310   33.0220   47.1970 F   0  0  0  0  0  0  0  0  0  0  0  0
   46.0020   31.3200   46.6180 F   0  0  0  0  0  0  0  0  0  0  0  0
   39.3510   33.8960   41.0970 C   0  0  0  0  0  0  0  0  0  0  0  0
   38.5590   34.6770   40.9220 H   0  0  0  0  0  0  0  0  0  0  0  0
   39.5640   33.8380   42.1630 H   0  0  0  0  0  0  0  0  0  0  0  0
   38.7860   32.6080   40.5700 C   0  0  0  0  0  0  0  0  0  0  0  0
   37.6900   32.6340   40.4900 H   0  0  0  0  0  0  0  0  0  0  0  0
   39.2530   32.4190   39.5620 H   0  0  0  0  0  0  0  0  0  0  0  0
   39.6830   30.2840   40.6190 C   0  0  1  0  0  3  0  0  0  0  0  0
   39.1490   31.4470   41.4330 C   0  0  1  0  0  3  0  0  0  0  0  0
   39.9490   31.7050   42.5070 O   0  0  0  0  0  0  0  0  0  0  0  0
   40.8710   30.7030   42.7800 C   0  0  0  0  0  2  0  0  0  0  0  0
   40.2860   29.3290   42.7740 C   0  0  2  0  0  3  0  0  0  0  0  0
   39.5670   29.0500   41.4900 C   0  0  2  0  0  3  0  0  0  0  0  0
   38.9740   30.1650   39.4280 O   0  0  0  0  0  0  0  0  0  0  0  0
   39.6520   30.0700   38.7050 H   0  0  0  0  0  0  0  0  0  0  0  0
   39.5450   29.0480   43.9160 O   0  0  0  0  0  0  0  0  0  0  0  0
   38.5800   28.8990   43.7360 H   0  0  0  0  0  0  0  0  0  0  0  0
   40.0140   27.9100   40.8270 O   0  0  0  0  0  0  0  0  0  0  0  0
   39.2400   27.5500   40.2940 H   0  0  0  0  0  0  0  0  0  0  0  0
  1  6  1  0  0  0  0
  1 11  1  0  0  0  0
  2  1  2  0  0  0  0
  3  4  2  0  0  0  0
  3  2  1  0  0  0  0
  4  5  1  0  0  0  0
  5  6  2  0  0  0  0
  5 28  1  0  0  0  0
  7  2  1  0  0  0  0
  8  3  1  0  0  0  0
  9 12  1  1  0  0  0
  9 16  1  0  0  0  0
 10 14  1  0  0  0  0
 10 13  1  0  0  0  0
 10  9  1  0  0  0  0
 11 15  1  6  0  0  0
 11 10  1  0  0  0  0
 11  9  1  0  0  0  0
 16 21  1  0  0  0  0
 17 16  2  0  0  0  0
 17 18  1  0  0  0  0
 18 19  2  0  0  0  0
 19 20  1  0  0  0  0
 20 24  1  0  0  0  0
 21 20  2  0  0  0  0
 22 17  1  0  0  0  0
 23 18  1  0  0  0  0
 24 27  1  0  0  0  0
 24 26  1  0  0  0  0
 24 25  1  0  0  0  0
 28 30  1  0  0  0  0
 29 28  1  0  0  0  0
 31 28  1  0  0  0  0
 32 31  1  0  0  0  0
 33 31  1  0  0  0  0
 34 40  1  6  0  0  0
 34 35  1  0  0  0  0
 34 39  1  0  0  0  0
 35 31  1  6  0  0  0
 35 36  1  0  0  0  0
 36 37  1  0  0  0  0
 38 37  1  0  0  0  0
 38 42  1  1  0  0  0
 39 44  1  6  0  0  0
 39 38  1  0  0  0  0
 41 40  1  0  0  0  0
 43 42  1  0  0  0  0
 45 44  1  0  0  0  0
M  END
>  <minimizedAffinity>
-6.17722797

>  <minimizedRMSD>
2.2288053

$$$$
