
 OpenBabel03242522503D

 29 30  0  0  1  0  0  0  0  0999 V2000
   47.4330   32.2020   48.4420 O   0  0  0  0  0  0  0  0  0  0  0  0
   45.4230   30.7720   47.5660 O   0  0  0  0  0  0  0  0  0  0  0  0
   45.7890   32.0240   48.3970 P   0  0  1  0  0  0  0  0  0  0  0  0
   45.1440   31.7570   49.9250 O   0  0  0  0  0  0  0  0  0  0  0  0
   44.4280   32.3940   50.1780 H   0  0  0  0  0  0  0  0  0  0  0  0
   45.0680   33.3670   47.6780 O   0  0  0  0  0  0  0  0  0  0  0  0
   46.7850   33.4210   44.4770 C   0  0  0  0  0  0  0  0  0  0  0  0
   46.4140   33.0630   45.7850 C   0  0  0  0  0  0  0  0  0  0  0  0
   45.3940   33.7530   46.3950 C   0  0  0  0  0  0  0  0  0  0  0  0
   44.7970   34.7470   45.6970 N   0  0  0  0  0  0  0  0  0  0  0  0
   45.1460   35.0910   44.4530 C   0  0  0  0  0  0  0  0  0  0  0  0
   46.1530   34.4170   43.8370 N   0  0  0  0  0  0  0  0  0  0  0  0
   47.5730   32.9400   43.9120 H   0  0  0  0  0  0  0  0  0  0  0  0
   47.0050   32.2610   46.1420 H   0  0  0  0  0  0  0  0  0  0  0  0
   44.6530   35.8830   43.9270 H   0  0  0  0  0  0  0  0  0  0  0  0
   48.4060   31.4430   48.9980 C   0  0  0  0  0  0  0  0  0  0  0  0
   49.5120   32.0730   49.1410 O   0  0  0  0  0  0  0  0  0  0  0  0
   50.4590   30.7120   50.1750 C   0  0  2  0  0  3  0  0  0  0  0  0
   49.1230   30.3010   49.5970 C   0  0  2  0  0  3  0  0  0  0  0  0
   49.2400   29.2390   48.7080 O   0  0  0  0  0  0  0  0  0  0  0  0
   50.4500   29.1550   48.0610 C   0  0  0  0  0  2  0  0  0  0  0  0
   51.6570   29.0520   48.9370 C   0  0  2  0  0  3  0  0  0  0  0  0
   51.2210   29.4040   50.3500 C   0  0  1  0  0  3  0  0  0  0  0  0
   50.2710   31.3260   51.4350 O   0  0  0  0  0  0  0  0  0  0  0  0
   50.3990   30.6400   52.1410 H   0  0  0  0  0  0  0  0  0  0  0  0
   52.5920   30.0520   48.5900 O   0  0  0  0  0  0  0  0  0  0  0  0
   52.7760   30.0700   47.6260 H   0  0  0  0  0  0  0  0  0  0  0  0
   52.3060   29.5320   51.2000 O   0  0  0  0  0  0  0  0  0  0  0  0
   52.3520   30.4250   51.5910 H   0  0  0  0  0  0  0  0  0  0  0  0
  1 16  1  0  0  0  0
  3  2  2  6  0  0  0
  3  1  1  0  0  0  0
  3  4  1  0  0  0  0
  4  5  1  0  0  0  0
  6  3  1  0  0  0  0
  7  8  1  0  0  0  0
  8 14  1  0  0  0  0
  8  9  2  0  0  0  0
  9  6  1  0  0  0  0
 10  9  1  0  0  0  0
 11 10  2  0  0  0  0
 12 11  1  0  0  0  0
 12  7  2  0  0  0  0
 13  7  1  0  0  0  0
 15 11  1  0  0  0  0
 16 17  2  0  0  0  0
 18 23  1  0  0  0  0
 18 24  1  1  0  0  0
 19 16  1  6  0  0  0
 19 18  1  0  0  0  0
 20 19  1  0  0  0  0
 21 20  1  0  0  0  0
 21 22  1  0  0  0  0
 22 26  1  6  0  0  0
 22 23  1  0  0  0  0
 23 28  1  1  0  0  0
 24 25  1  0  0  0  0
 27 26  1  0  0  0  0
 28 29  1  0  0  0  0
M  END
>  <minimizedAffinity>
-5.33789206

>  <minimizedRMSD>
0.846922159

$$$$
