
 OpenBabel03242523513D

 46 49  0  0  1  0  0  0  0  0999 V2000
   42.4390   34.2260   38.8670 C   0  0  1  0  0  0  0  0  0  0  0  0
   42.9360   35.0480   40.0590 C   0  0  1  0  0  0  0  0  0  0  0  0
   41.8270   35.5850   40.7390 O   0  0  0  0  0  0  0  0  0  0  0  0
   40.7670   35.9100   39.8940 C   0  0  0  0  0  0  0  0  0  0  0  0
   40.1200   34.6790   39.3030 C   0  0  2  0  0  0  0  0  0  0  0  0
   41.1670   33.5460   39.3620 C   0  0  1  0  0  0  0  0  0  0  0  0
   43.1740   33.4330   38.6000 H   0  0  0  0  0  0  0  0  0  0  0  0
   43.6160   35.8390   39.7280 H   0  0  0  0  0  0  0  0  0  0  0  0
   40.0510   36.4560   40.5410 H   0  0  0  0  0  0  0  0  0  0  0  0
   41.0630   36.6630   39.1160 H   0  0  0  0  0  0  0  0  0  0  0  0
   39.1910   34.3790   39.8200 H   0  0  0  0  0  0  0  0  0  0  0  0
   41.2430   33.3200   40.4480 H   0  0  0  0  0  0  0  0  0  0  0  0
   42.1480   35.0610   37.7910 O   0  0  0  0  0  0  0  0  0  0  0  0
   42.9580   35.6560   37.6930 H   0  0  0  0  0  0  0  0  0  0  0  0
   39.9180   34.8860   37.9320 O   0  0  0  0  0  0  0  0  0  0  0  0
   39.7760   34.0100   37.5120 H   0  0  0  0  0  0  0  0  0  0  0  0
   43.4820   34.1240   40.9590 O   0  0  0  0  0  0  0  0  0  0  0  0
   44.5850   34.3120   41.6880 C   0  0  0  0  0  0  0  0  0  0  0  0
   45.8370   34.4150   41.0870 C   0  0  0  0  0  0  0  0  0  0  0  0
   46.9470   34.6130   41.8960 C   0  0  0  0  0  0  0  0  0  0  0  0
   46.7900   34.7010   43.2670 N   0  0  0  0  0  0  0  0  0  0  0  0
   45.5630   34.5950   43.8080 C   0  0  0  0  0  0  0  0  0  0  0  0
   44.4690   34.4030   43.0330 N   0  0  0  0  0  0  0  0  0  0  0  0
   45.9600   34.3470   40.0120 H   0  0  0  0  0  0  0  0  0  0  0  0
   45.4850   34.6700   44.8860 H   0  0  0  0  0  0  0  0  0  0  0  0
   48.3230   34.7190   41.2870 C   0  0  0  0  0  0  0  0  0  0  0  0
   49.0680   36.0180   41.4850 C   0  0  0  0  0  0  0  0  0  0  0  0
   49.4840   34.6890   42.1400 C   0  0  0  0  0  0  0  0  0  0  0  0
   48.3020   34.4360   40.2070 H   0  0  0  0  0  0  0  0  0  0  0  0
   48.5960   36.7210   42.2040 H   0  0  0  0  0  0  0  0  0  0  0  0
   49.7100   36.4250   40.6940 H   0  0  0  0  0  0  0  0  0  0  0  0
   50.4450   34.2790   41.7140 H   0  0  0  0  0  0  0  0  0  0  0  0
   49.3650   34.5530   43.2130 H   0  0  0  0  0  0  0  0  0  0  0  0
   40.7740   32.4810   38.5870 O   0  0  0  0  0  0  0  0  0  0  0  0
   38.8580   31.1870   39.3210 C   0  0  1  0  0  0  0  0  0  0  0  0
   40.3210   31.4690   39.4340 C   0  0  2  0  0  0  0  0  0  0  0  0
   40.5780   31.7860   40.7690 O   0  0  0  0  0  0  0  0  0  0  0  0
   40.4040   30.6300   41.5180 C   0  0  0  0  0  0  0  0  0  0  0  0
   38.9140   30.4360   41.7160 C   0  0  1  0  0  0  0  0  0  0  0  0
   38.1500   31.1820   40.6680 C   0  0  1  0  0  0  0  0  0  0  0  0
   38.2360   32.1520   38.5160 O   0  0  0  0  0  0  0  0  0  0  0  0
   38.6120   32.0220   37.6190 H   0  0  0  0  0  0  0  0  0  0  0  0
   38.5910   29.0890   41.8030 O   0  0  0  0  0  0  0  0  0  0  0  0
   38.1050   28.7560   41.0250 H   0  0  0  0  0  0  0  0  0  0  0  0
   37.9030   32.4980   41.0760 O   0  0  0  0  0  0  0  0  0  0  0  0
   38.5010   33.0870   40.5380 H   0  0  0  0  0  0  0  0  0  0  0  0
  1  7  1  6  0  0  0
  1  6  1  0  0  0  0
  1  2  1  0  0  0  0
  2  8  1  6  0  0  0
  2  3  1  0  0  0  0
  2 17  1  0  0  0  0
  4  9  1  0  0  0  0
  4  3  1  0  0  0  0
  5  6  1  0  0  0  0
  5 11  1  1  0  0  0
  5  4  1  0  0  0  0
  6 12  1  1  0  0  0
 10  4  1  0  0  0  0
 13  1  1  0  0  0  0
 14 13  1  0  0  0  0
 15  5  1  0  0  0  0
 16 15  1  0  0  0  0
 17 18  1  0  0  0  0
 18 23  1  0  0  0  0
 19 18  2  0  0  0  0
 19 20  1  0  0  0  0
 20 21  2  0  0  0  0
 21 22  1  0  0  0  0
 22 25  1  0  0  0  0
 23 22  2  0  0  0  0
 24 19  1  0  0  0  0
 26 27  1  0  0  0  0
 26 20  1  0  0  0  0
 26 28  1  0  0  0  0
 27 28  1  0  0  0  0
 27 30  1  0  0  0  0
 28 33  1  0  0  0  0
 29 26  1  0  0  0  0
 31 27  1  0  0  0  0
 32 28  1  0  0  0  0
 34  6  1  0  0  0  0
 35 41  1  6  0  0  0
 35 36  1  0  0  0  0
 35 40  1  0  0  0  0
 36 34  1  6  0  0  0
 36 37  1  0  0  0  0
 37 38  1  0  0  0  0
 38 39  1  0  0  0  0
 39 43  1  6  0  0  0
 40 45  1  1  0  0  0
 40 39  1  0  0  0  0
 42 41  1  0  0  0  0
 44 43  1  0  0  0  0
 46 45  1  0  0  0  0
M  END
>  <minimizedAffinity>
-7.04650259

>  <minimizedRMSD>
1.67753589

$$$$
