
 OpenBabel03252502243D

 37 39  0  0  1  0  0  0  0  0999 V2000
   47.0690   34.6770   42.1980 N   0  0  0  0  0  0  0  0  0  0  0  0
   48.5070   34.8330   42.3020 C   0  0  0  0  0  0  0  0  0  0  0  0
   48.8770   35.7030   41.0840 C   0  0  0  0  0  0  0  0  0  0  0  0
   48.6480   34.8850   39.8340 C   0  0  0  0  0  0  0  0  0  0  0  0
   47.3810   34.0950   39.8400 C   0  0  0  0  0  0  0  0  0  0  0  0
   46.4300   34.4110   40.9550 C   0  0  1  0  0  0  0  0  0  0  0  0
   48.8380   35.2820   43.2320 H   0  0  0  0  0  0  0  0  0  0  0  0
   48.9570   33.8430   42.0720 H   0  0  0  0  0  0  0  0  0  0  0  0
   48.1570   36.5670   41.1080 H   0  0  0  0  0  0  0  0  0  0  0  0
   49.9180   36.0310   41.1080 H   0  0  0  0  0  0  0  0  0  0  0  0
   48.7450   35.5670   38.9650 H   0  0  0  0  0  0  0  0  0  0  0  0
   49.5200   34.1780   39.7720 H   0  0  0  0  0  0  0  0  0  0  0  0
   47.6050   32.9950   39.9060 H   0  0  0  0  0  0  0  0  0  0  0  0
   46.8970   34.2350   38.8520 H   0  0  0  0  0  0  0  0  0  0  0  0
   45.8770   35.3410   40.6800 H   0  0  0  0  0  0  0  0  0  0  0  0
   44.5260   35.8300   44.6910 C   0  0  0  0  0  0  0  0  0  0  0  0
   45.2900   35.8180   43.5110 C   0  0  0  0  0  0  0  0  0  0  0  0
   46.2390   34.7880   43.3560 C   0  0  0  0  0  0  0  0  0  0  0  0
   46.3460   33.8810   44.3580 N   0  0  0  0  0  0  0  0  0  0  0  0
   45.5920   33.9260   45.4800 C   0  0  0  0  0  0  0  0  0  0  0  0
   44.6710   34.9210   45.6370 N   0  0  0  0  0  0  0  0  0  0  0  0
   43.7970   36.6130   44.8220 H   0  0  0  0  0  0  0  0  0  0  0  0
   45.1890   36.5500   42.7250 H   0  0  0  0  0  0  0  0  0  0  0  0
   45.7060   33.1830   46.2590 H   0  0  0  0  0  0  0  0  0  0  0  0
   45.5640   33.3170   41.1070 O   0  0  0  0  0  0  0  0  0  0  0  0
   43.7900   32.8290   39.5220 C   0  0  2  0  0  3  0  0  0  0  0  0
   44.2750   33.5720   40.7150 C   0  0  1  0  0  3  0  0  0  0  0  0
   43.3230   33.5310   41.7080 O   0  0  0  0  0  0  0  0  0  0  0  0
   43.4710   32.2890   42.3700 C   0  0  0  0  0  2  0  0  0  0  0  0
   43.3770   31.1670   41.3720 C   0  0  1  0  0  3  0  0  0  0  0  0
   42.9380   31.6750   40.0090 C   0  0  2  0  0  3  0  0  0  0  0  0
   44.8060   32.2730   38.7550 O   0  0  0  0  0  0  0  0  0  0  0  0
   44.4470   31.9480   37.9060 H   0  0  0  0  0  0  0  0  0  0  0  0
   44.6160   30.5520   41.2870 O   0  0  0  0  0  0  0  0  0  0  0  0
   44.5710   29.7860   40.6370 H   0  0  0  0  0  0  0  0  0  0  0  0
   43.0320   30.6340   39.0900 O   0  0  0  0  0  0  0  0  0  0  0  0
   42.6850   30.9330   38.2320 H   0  0  0  0  0  0  0  0  0  0  0  0
  1  2  1  0  0  0  0
  1 18  1  0  0  0  0
  2  7  1  0  0  0  0
  3  9  1  0  0  0  0
  3 10  1  0  0  0  0
  3  2  1  0  0  0  0
  4  5  1  0  0  0  0
  4  3  1  0  0  0  0
  5 13  1  0  0  0  0
  5  6  1  0  0  0  0
  6 15  1  6  0  0  0
  6 25  1  0  0  0  0
  6  1  1  0  0  0  0
  8  2  1  0  0  0  0
 11  4  1  0  0  0  0
 12  4  1  0  0  0  0
 14  5  1  0  0  0  0
 16 22  1  0  0  0  0
 16 21  1  0  0  0  0
 17 16  2  0  0  0  0
 18 17  1  0  0  0  0
 18 19  2  0  0  0  0
 19 20  1  0  0  0  0
 20 21  2  0  0  0  0
 20 24  1  0  0  0  0
 23 17  1  0  0  0  0
 26 32  1  1  0  0  0
 26 31  1  0  0  0  0
 26 27  1  0  0  0  0
 27 25  1  1  0  0  0
 27 28  1  0  0  0  0
 28 29  1  0  0  0  0
 30 34  1  6  0  0  0
 30 29  1  0  0  0  0
 31 36  1  6  0  0  0
 31 30  1  0  0  0  0
 33 32  1  0  0  0  0
 35 34  1  0  0  0  0
 37 36  1  0  0  0  0
M  END
>  <minimizedAffinity>
-5.09368658

>  <minimizedRMSD>
0.720699012

$$$$
