
 OpenBabel03242521103D

 22 23  0  0  1  0  0  0  0  0999 V2000
   37.9070   32.2890   38.7990 C   0  0  1  0  0  3  0  0  0  0  0  0
   38.0960   31.0510   39.6210 C   0  0  2  0  0  3  0  0  0  0  0  0
   38.8500   30.1410   38.9140 O   0  0  0  0  0  0  0  0  0  0  0  0
   38.2480   29.6430   37.7820 C   0  0  0  0  0  2  0  0  0  0  0  0
   37.2900   30.5830   37.1100 C   0  0  1  0  0  3  0  0  0  0  0  0
   37.6920   32.0290   37.3320 C   0  0  2  0  0  3  0  0  0  0  0  0
   36.9550   33.1530   39.3540 O   0  0  0  0  0  0  0  0  0  0  0  0
   36.5910   33.7680   38.6820 H   0  0  0  0  0  0  0  0  0  0  0  0
   37.3290   30.3660   35.7360 O   0  0  0  0  0  0  0  0  0  0  0  0
   36.5510   29.8200   35.4610 H   0  0  0  0  0  0  0  0  0  0  0  0
   38.8190   32.2710   36.5570 O   0  0  0  0  0  0  0  0  0  0  0  0
   38.9630   31.5680   35.8560 H   0  0  0  0  0  0  0  0  0  0  0  0
   36.5410   30.3300   40.2040 S   0  0  0  0  0  0  0  0  0  0  0  0
   36.6000   27.4040   42.9690 C   0  0  0  0  0  0  0  0  0  0  0  0
   37.7830   27.7250   43.6800 C   0  0  0  0  0  0  0  0  0  0  0  0
   38.5200   28.8540   43.2610 C   0  0  0  0  0  0  0  0  0  0  0  0
   38.0490   29.5580   42.2070 N   0  0  0  0  0  0  0  0  0  0  0  0
   36.9170   29.2230   41.5520 C   0  0  0  0  0  0  0  0  0  0  0  0
   36.2040   28.1610   41.9280 N   0  0  0  0  0  0  0  0  0  0  0  0
   36.0090   26.5420   43.2640 H   0  0  0  0  0  0  0  0  0  0  0  0
   38.1010   27.1160   44.5170 H   0  0  0  0  0  0  0  0  0  0  0  0
   39.4260   29.1160   43.7920 H   0  0  0  0  0  0  0  0  0  0  0  0
  1  7  1  1  0  0  0
  1  2  1  0  0  0  0
  2 13  1  6  0  0  0
  3  2  1  0  0  0  0
  4  3  1  0  0  0  0
  5  9  1  6  0  0  0
  5  6  1  0  0  0  0
  5  4  1  0  0  0  0
  6 11  1  6  0  0  0
  6  1  1  0  0  0  0
  8  7  1  0  0  0  0
 10  9  1  0  0  0  0
 12 11  1  0  0  0  0
 13 18  1  0  0  0  0
 14 20  1  0  0  0  0
 14 15  1  0  0  0  0
 15 21  1  0  0  0  0
 16 15  2  0  0  0  0
 16 22  1  0  0  0  0
 17 16  1  0  0  0  0
 18 19  1  0  0  0  0
 18 17  2  0  0  0  0
 19 14  2  0  0  0  0
M  END
>  <minimizedAffinity>
-5.03304052

$$$$

 OpenBabel03242521103D

 22 23  0  0  1  0  0  0  0  0999 V2000
   36.6310   31.0010   41.1050 C   0  0  1  0  0  3  0  0  0  0  0  0
   37.8350   30.1670   41.4230 C   0  0  2  0  0  3  0  0  0  0  0  0
   38.9750   30.9100   41.2120 O   0  0  0  0  0  0  0  0  0  0  0  0
   39.2070   31.2580   39.9010 C   0  0  0  0  0  2  0  0  0  0  0  0
   37.9720   31.4330   39.0660 C   0  0  1  0  0  3  0  0  0  0  0  0
   36.7990   31.8990   39.9090 C   0  0  2  0  0  3  0  0  0  0  0  0
   35.4560   30.2410   41.0650 O   0  0  0  0  0  0  0  0  0  0  0  0
   34.7540   30.6880   40.5460 H   0  0  0  0  0  0  0  0  0  0  0  0
   38.2010   32.4270   38.1200 O   0  0  0  0  0  0  0  0  0  0  0  0
   38.3990   32.0140   37.2420 H   0  0  0  0  0  0  0  0  0  0  0  0
   37.0300   33.2270   40.2440 O   0  0  0  0  0  0  0  0  0  0  0  0
   37.7400   33.6510   39.6750 H   0  0  0  0  0  0  0  0  0  0  0  0
   37.8770   28.5950   40.5270 S   0  0  0  0  0  0  0  0  0  0  0  0
   39.1430   25.2170   42.3140 C   0  0  0  0  0  0  0  0  0  0  0  0
   39.7480   25.7390   43.4850 C   0  0  0  0  0  0  0  0  0  0  0  0
   39.7340   27.1380   43.6680 C   0  0  0  0  0  0  0  0  0  0  0  0
   39.1440   27.8920   42.7140 N   0  0  0  0  0  0  0  0  0  0  0  0
   38.5770   27.3610   41.6100 C   0  0  0  0  0  0  0  0  0  0  0  0
   38.5770   26.0420   41.4140 N   0  0  0  0  0  0  0  0  0  0  0  0
   39.1360   24.1450   42.1410 H   0  0  0  0  0  0  0  0  0  0  0  0
   40.2020   25.0740   44.2090 H   0  0  0  0  0  0  0  0  0  0  0  0
   40.1900   27.5550   44.5570 H   0  0  0  0  0  0  0  0  0  0  0  0
  1  7  1  6  0  0  0
  1  2  1  0  0  0  0
  2 13  1  6  0  0  0
  3  2  1  0  0  0  0
  4  3  1  0  0  0  0
  5  9  1  6  0  0  0
  5  4  1  0  0  0  0
  5  6  1  0  0  0  0
  6 11  1  1  0  0  0
  6  1  1  0  0  0  0
  8  7  1  0  0  0  0
 10  9  1  0  0  0  0
 12 11  1  0  0  0  0
 13 18  1  0  0  0  0
 14 15  1  0  0  0  0
 15 16  2  0  0  0  0
 15 21  1  0  0  0  0
 16 22  1  0  0  0  0
 17 16  1  0  0  0  0
 18 17  2  0  0  0  0
 19 18  1  0  0  0  0
 19 14  2  0  0  0  0
 20 14  1  0  0  0  0
M  END
>  <minimizedAffinity>
-4.99859047

$$$$

 OpenBabel03242521103D

 22 23  0  0  1  0  0  0  0  0999 V2000
   36.9900   31.5160   40.1950 C   0  0  1  0  0  3  0  0  0  0  0  0
   38.3370   31.0310   39.7540 C   0  0  2  0  0  3  0  0  0  0  0  0
   38.3920   29.6600   39.8710 O   0  0  0  0  0  0  0  0  0  0  0  0
   38.3250   29.1840   41.1600 C   0  0  0  0  0  2  0  0  0  0  0  0
   37.5340   30.0380   42.1080 C   0  0  1  0  0  3  0  0  0  0  0  0
   36.4290   30.7850   41.3850 C   0  0  2  0  0  3  0  0  0  0  0  0
   36.9470   32.9090   40.3310 O   0  0  0  0  0  0  0  0  0  0  0  0
   36.2150   33.1920   40.9200 H   0  0  0  0  0  0  0  0  0  0  0  0
   36.9120   29.2180   43.0450 O   0  0  0  0  0  0  0  0  0  0  0  0
   37.4210   29.2350   43.8940 H   0  0  0  0  0  0  0  0  0  0  0  0
   35.4500   29.8580   41.0510 O   0  0  0  0  0  0  0  0  0  0  0  0
   35.5440   28.9980   41.5590 H   0  0  0  0  0  0  0  0  0  0  0  0
   39.7100   31.8370   40.6170 S   0  0  0  0  0  0  0  0  0  0  0  0
   42.2150   34.1610   38.4880 C   0  0  0  0  0  0  0  0  0  0  0  0
   42.3580   33.3940   37.3050 C   0  0  0  0  0  0  0  0  0  0  0  0
   41.6580   32.1710   37.2210 C   0  0  0  0  0  0  0  0  0  0  0  0
   40.8960   31.8090   38.2770 N   0  0  0  0  0  0  0  0  0  0  0  0
   40.7820   32.5650   39.3900 C   0  0  0  0  0  0  0  0  0  0  0  0
   41.4330   33.7240   39.4930 N   0  0  0  0  0  0  0  0  0  0  0  0
   42.7390   35.1070   38.5860 H   0  0  0  0  0  0  0  0  0  0  0  0
   42.9870   33.7470   36.4970 H   0  0  0  0  0  0  0  0  0  0  0  0
   41.7540   31.5720   36.3250 H   0  0  0  0  0  0  0  0  0  0  0  0
  1  7  1  1  0  0  0
  1  6  1  0  0  0  0
  2  3  1  0  0  0  0
  2  1  1  0  0  0  0
  2 13  1  1  0  0  0
  3  4  1  0  0  0  0
  4  5  1  0  0  0  0
  5  9  1  1  0  0  0
  6 11  1  6  0  0  0
  6  5  1  0  0  0  0
  7  8  1  0  0  0  0
  9 10  1  0  0  0  0
 11 12  1  0  0  0  0
 14 20  1  0  0  0  0
 14 19  1  0  0  0  0
 15 14  2  0  0  0  0
 16 15  1  0  0  0  0
 16 17  2  0  0  0  0
 17 18  1  0  0  0  0
 18 19  2  0  0  0  0
 18 13  1  0  0  0  0
 21 15  1  0  0  0  0
 22 16  1  0  0  0  0
M  END
>  <minimizedAffinity>
-4.98572206

$$$$

 OpenBabel03242521103D

 22 23  0  0  1  0  0  0  0  0999 V2000
   39.4960   32.0510   40.7750 C   0  0  1  0  0  3  0  0  0  0  0  0
   38.9000   30.7980   40.2100 C   0  0  2  0  0  3  0  0  0  0  0  0
   38.5040   31.0250   38.9110 O   0  0  0  0  0  0  0  0  0  0  0  0
   37.4700   31.9220   38.7670 C   0  0  0  0  0  2  0  0  0  0  0  0
   37.4100   32.9900   39.8210 C   0  0  1  0  0  3  0  0  0  0  0  0
   38.7920   33.3140   40.3550 C   0  0  2  0  0  3  0  0  0  0  0  0
   39.6970   31.9640   42.1590 O   0  0  0  0  0  0  0  0  0  0  0  0
   39.7590   32.8520   42.5710 H   0  0  0  0  0  0  0  0  0  0  0  0
   36.9190   34.1610   39.2530 O   0  0  0  0  0  0  0  0  0  0  0  0
   35.9620   34.2690   39.4830 H   0  0  0  0  0  0  0  0  0  0  0  0
   39.4660   34.0180   39.3660 O   0  0  0  0  0  0  0  0  0  0  0  0
   38.8500   34.3750   38.6590 H   0  0  0  0  0  0  0  0  0  0  0  0
   37.5570   30.1220   41.2170 S   0  0  0  0  0  0  0  0  0  0  0  0
   38.1120   26.5160   42.9210 C   0  0  0  0  0  0  0  0  0  0  0  0
   39.4300   26.6530   43.4240 C   0  0  0  0  0  0  0  0  0  0  0  0
   40.0960   27.8780   43.2070 C   0  0  0  0  0  0  0  0  0  0  0  0
   39.4330   28.8440   42.5330 N   0  0  0  0  0  0  0  0  0  0  0  0
   38.1770   28.6800   42.0670 C   0  0  0  0  0  0  0  0  0  0  0  0
   37.5260   27.5320   42.2590 N   0  0  0  0  0  0  0  0  0  0  0  0
   37.5700   25.5870   43.0690 H   0  0  0  0  0  0  0  0  0  0  0  0
   39.9000   25.8350   43.9560 H   0  0  0  0  0  0  0  0  0  0  0  0
   41.1020   28.0020   43.5850 H   0  0  0  0  0  0  0  0  0  0  0  0
  1  7  1  1  0  0  0
  2  1  1  0  0  0  0
  2 13  1  1  0  0  0
  3  2  1  0  0  0  0
  4  3  1  0  0  0  0
  4  5  1  0  0  0  0
  5  9  1  6  0  0  0
  5  6  1  0  0  0  0
  6 11  1  6  0  0  0
  6  1  1  0  0  0  0
  7  8  1  0  0  0  0
  9 10  1  0  0  0  0
 12 11  1  0  0  0  0
 13 18  1  0  0  0  0
 14 20  1  0  0  0  0
 14 15  1  0  0  0  0
 15 21  1  0  0  0  0
 16 15  2  0  0  0  0
 16 22  1  0  0  0  0
 17 16  1  0  0  0  0
 18 19  1  0  0  0  0
 18 17  2  0  0  0  0
 19 14  2  0  0  0  0
M  END
>  <minimizedAffinity>
-4.88963604

$$$$

 OpenBabel03242521103D

 22 23  0  0  1  0  0  0  0  0999 V2000
   38.0320   31.9100   38.5730 C   0  0  1  0  0  3  0  0  0  0  0  0
   39.4040   31.3110   38.6360 C   0  0  2  0  0  3  0  0  0  0  0  0
   39.7550   31.1080   39.9520 O   0  0  0  0  0  0  0  0  0  0  0  0
   39.9100   32.2560   40.6960 C   0  0  0  0  0  2  0  0  0  0  0  0
   39.0500   33.4080   40.2650 C   0  0  1  0  0  3  0  0  0  0  0  0
   37.7500   32.9250   39.6490 C   0  0  2  0  0  3  0  0  0  0  0  0
   37.7110   32.3640   37.2870 O   0  0  0  0  0  0  0  0  0  0  0  0
   36.9950   33.0340   37.3090 H   0  0  0  0  0  0  0  0  0  0  0  0
   38.7030   34.1590   41.3840 O   0  0  0  0  0  0  0  0  0  0  0  0
   39.2750   34.9660   41.4360 H   0  0  0  0  0  0  0  0  0  0  0  0
   36.9600   32.4310   40.6790 O   0  0  0  0  0  0  0  0  0  0  0  0
   37.2790   32.7240   41.5840 H   0  0  0  0  0  0  0  0  0  0  0  0
   40.6510   32.2740   37.7460 S   0  0  0  0  0  0  0  0  0  0  0  0
   42.6390   29.1010   36.2680 C   0  0  0  0  0  0  0  0  0  0  0  0
   43.9220   29.6620   36.0460 C   0  0  0  0  0  0  0  0  0  0  0  0
   44.1120   31.0230   36.3710 C   0  0  0  0  0  0  0  0  0  0  0  0
   43.0590   31.7040   36.8740 N   0  0  0  0  0  0  0  0  0  0  0  0
   41.8500   31.1360   37.0730 C   0  0  0  0  0  0  0  0  0  0  0  0
   41.6440   29.8530   36.7740 N   0  0  0  0  0  0  0  0  0  0  0  0
   42.4570   28.0570   36.0290 H   0  0  0  0  0  0  0  0  0  0  0  0
   44.7220   29.0560   35.6400 H   0  0  0  0  0  0  0  0  0  0  0  0
   45.0850   31.4690   36.2100 H   0  0  0  0  0  0  0  0  0  0  0  0
  1  7  1  6  0  0  0
  1  2  1  0  0  0  0
  1  6  1  0  0  0  0
  2 13  1  1  0  0  0
  2  3  1  0  0  0  0
  3  4  1  0  0  0  0
  5  4  1  0  0  0  0
  5  9  1  1  0  0  0
  6  5  1  0  0  0  0
  6 11  1  1  0  0  0
  7  8  1  0  0  0  0
  9 10  1  0  0  0  0
 11 12  1  0  0  0  0
 14 19  1  0  0  0  0
 15 14  2  0  0  0  0
 15 16  1  0  0  0  0
 16 17  2  0  0  0  0
 17 18  1  0  0  0  0
 18 13  1  0  0  0  0
 19 18  2  0  0  0  0
 20 14  1  0  0  0  0
 21 15  1  0  0  0  0
 22 16  1  0  0  0  0
M  END
>  <minimizedAffinity>
-4.71318722

$$$$

 OpenBabel03242521103D

 22 23  0  0  1  0  0  0  0  0999 V2000
   40.8180   31.6930   39.2470 C   0  0  1  0  0  3  0  0  0  0  0  0
   39.9310   30.6090   39.7780 C   0  0  2  0  0  3  0  0  0  0  0  0
   39.5200   29.8030   38.7400 O   0  0  0  0  0  0  0  0  0  0  0  0
   38.7020   30.4150   37.8180 C   0  0  0  0  0  2  0  0  0  0  0  0
   38.9370   31.8870   37.6450 C   0  0  1  0  0  3  0  0  0  0  0  0
   40.3850   32.2490   37.9160 C   0  0  2  0  0  3  0  0  0  0  0  0
   41.0740   32.6840   40.2030 O   0  0  0  0  0  0  0  0  0  0  0  0
   41.3520   33.5270   39.7850 H   0  0  0  0  0  0  0  0  0  0  0  0
   38.6820   32.2340   36.3210 O   0  0  0  0  0  0  0  0  0  0  0  0
   37.7880   32.6510   36.2510 H   0  0  0  0  0  0  0  0  0  0  0  0
   41.1390   31.7770   36.8500 O   0  0  0  0  0  0  0  0  0  0  0  0
   40.5770   31.5510   36.0510 H   0  0  0  0  0  0  0  0  0  0  0  0
   38.5320   31.2310   40.7430 S   0  0  0  0  0  0  0  0  0  0  0  0
   37.6910   28.4950   43.5740 C   0  0  0  0  0  0  0  0  0  0  0  0
   36.6850   27.7350   42.9280 C   0  0  0  0  0  0  0  0  0  0  0  0
   36.3080   28.1140   41.6210 C   0  0  0  0  0  0  0  0  0  0  0  0
   36.9320   29.1780   41.0690 N   0  0  0  0  0  0  0  0  0  0  0  0
   37.8870   29.8800   41.7150 C   0  0  0  0  0  0  0  0  0  0  0  0
   38.2600   29.5430   42.9500 N   0  0  0  0  0  0  0  0  0  0  0  0
   38.0050   28.2320   44.5800 H   0  0  0  0  0  0  0  0  0  0  0  0
   36.2270   26.8920   43.4310 H   0  0  0  0  0  0  0  0  0  0  0  0
   35.5420   27.5440   41.1100 H   0  0  0  0  0  0  0  0  0  0  0  0
  1  2  1  0  0  0  0
  1  7  1  1  0  0  0
  2 13  1  6  0  0  0
  3  2  1  0  0  0  0
  4  3  1  0  0  0  0
  5  9  1  6  0  0  0
  5  4  1  0  0  0  0
  5  6  1  0  0  0  0
  6 11  1  6  0  0  0
  6  1  1  0  0  0  0
  8  7  1  0  0  0  0
 10  9  1  0  0  0  0
 12 11  1  0  0  0  0
 13 18  1  0  0  0  0
 14 20  1  0  0  0  0
 15 21  1  0  0  0  0
 15 14  2  0  0  0  0
 16 15  1  0  0  0  0
 17 16  2  0  0  0  0
 17 18  1  0  0  0  0
 18 19  2  0  0  0  0
 19 14  1  0  0  0  0
 22 16  1  0  0  0  0
M  END
>  <minimizedAffinity>
-4.67508936

$$$$

 OpenBabel03242521103D

 22 23  0  0  1  0  0  0  0  0999 V2000
   38.9610   30.6000   38.5560 C   0  0  1  0  0  3  0  0  0  0  0  0
   38.0420   31.0080   39.6660 C   0  0  2  0  0  3  0  0  0  0  0  0
   37.6360   32.3090   39.4690 O   0  0  0  0  0  0  0  0  0  0  0  0
   38.6340   33.2500   39.5660 C   0  0  0  0  0  2  0  0  0  0  0  0
   39.9980   32.7670   39.1630 C   0  0  1  0  0  3  0  0  0  0  0  0
   39.9070   31.6810   38.1070 C   0  0  2  0  0  3  0  0  0  0  0  0
   39.5990   29.3800   38.8180 O   0  0  0  0  0  0  0  0  0  0  0  0
   40.4190   29.2800   38.2880 H   0  0  0  0  0  0  0  0  0  0  0  0
   40.7010   33.8220   38.5890 O   0  0  0  0  0  0  0  0  0  0  0  0
   41.3350   34.1990   39.2480 H   0  0  0  0  0  0  0  0  0  0  0  0
   39.5270   32.2880   36.9180 O   0  0  0  0  0  0  0  0  0  0  0  0
   39.6460   33.2840   36.9380 H   0  0  0  0  0  0  0  0  0  0  0  0
   38.7500   30.7640   41.3140 S   0  0  0  0  0  0  0  0  0  0  0  0
   37.3500   27.8230   43.6800 C   0  0  0  0  0  0  0  0  0  0  0  0
   36.9360   26.8710   42.7150 C   0  0  0  0  0  0  0  0  0  0  0  0
   37.1150   27.1920   41.3510 C   0  0  0  0  0  0  0  0  0  0  0  0
   37.6690   28.3880   41.0530 N   0  0  0  0  0  0  0  0  0  0  0  0
   38.0520   29.2710   41.9990 C   0  0  0  0  0  0  0  0  0  0  0  0
   37.8940   28.9920   43.2940 N   0  0  0  0  0  0  0  0  0  0  0  0
   37.2270   27.6090   44.7370 H   0  0  0  0  0  0  0  0  0  0  0  0
   36.4990   25.9300   43.0260 H   0  0  0  0  0  0  0  0  0  0  0  0
   36.8060   26.4760   40.6000 H   0  0  0  0  0  0  0  0  0  0  0  0
  1  7  1  1  0  0  0
  1  2  1  0  0  0  0
  2 13  1  1  0  0  0
  3  4  1  0  0  0  0
  3  2  1  0  0  0  0
  5  9  1  6  0  0  0
  5  4  1  0  0  0  0
  6 11  1  6  0  0  0
  6  1  1  0  0  0  0
  6  5  1  0  0  0  0
  8  7  1  0  0  0  0
  9 10  1  0  0  0  0
 11 12  1  0  0  0  0
 13 18  1  0  0  0  0
 14 20  1  0  0  0  0
 15 21  1  0  0  0  0
 15 14  2  0  0  0  0
 16 15  1  0  0  0  0
 17 16  2  0  0  0  0
 17 18  1  0  0  0  0
 18 19  2  0  0  0  0
 19 14  1  0  0  0  0
 22 16  1  0  0  0  0
M  END
>  <minimizedAffinity>
-4.67271328

$$$$

 OpenBabel03242521103D

 22 23  0  0  1  0  0  0  0  0999 V2000
   39.5830   31.8210   38.1570 C   0  0  1  0  0  3  0  0  0  0  0  0
   40.6670   32.1340   39.1420 C   0  0  2  0  0  3  0  0  0  0  0  0
   40.2640   31.7570   40.4030 O   0  0  0  0  0  0  0  0  0  0  0  0
   39.2030   32.4690   40.9110 C   0  0  0  0  0  2  0  0  0  0  0  0
   38.2370   32.9840   39.8820 C   0  0  1  0  0  3  0  0  0  0  0  0
   38.1900   32.0750   38.6690 C   0  0  2  0  0  3  0  0  0  0  0  0
   39.8250   32.3950   36.9020 O   0  0  0  0  0  0  0  0  0  0  0  0
   38.9990   32.4820   36.3800 H   0  0  0  0  0  0  0  0  0  0  0  0
   36.9560   32.9880   40.4250 O   0  0  0  0  0  0  0  0  0  0  0  0
   36.7150   33.9060   40.7060 H   0  0  0  0  0  0  0  0  0  0  0  0
   37.5200   30.9170   39.0410 O   0  0  0  0  0  0  0  0  0  0  0  0
   37.0070   31.0270   39.8960 H   0  0  0  0  0  0  0  0  0  0  0  0
   41.2040   33.8630   39.0940 S   0  0  0  0  0  0  0  0  0  0  0  0
   45.0840   34.1600   40.1270 C   0  0  0  0  0  0  0  0  0  0  0  0
   44.9920   34.1350   41.5410 C   0  0  0  0  0  0  0  0  0  0  0  0
   43.7080   34.0240   42.1180 C   0  0  0  0  0  0  0  0  0  0  0  0
   42.6470   33.9500   41.2830 N   0  0  0  0  0  0  0  0  0  0  0  0
   42.7720   33.9770   39.9390 C   0  0  0  0  0  0  0  0  0  0  0  0
   43.9730   34.0810   39.3710 N   0  0  0  0  0  0  0  0  0  0  0  0
   46.0560   34.2450   39.6500 H   0  0  0  0  0  0  0  0  0  0  0  0
   45.8850   34.1980   42.1490 H   0  0  0  0  0  0  0  0  0  0  0  0
   43.6170   34.0020   43.1960 H   0  0  0  0  0  0  0  0  0  0  0  0
  1  7  1  6  0  0  0
  1  6  1  0  0  0  0
  1  2  1  0  0  0  0
  2 13  1  1  0  0  0
  2  3  1  0  0  0  0
  3  4  1  0  0  0  0
  5  9  1  1  0  0  0
  5  4  1  0  0  0  0
  6 11  1  1  0  0  0
  6  5  1  0  0  0  0
  8  7  1  0  0  0  0
  9 10  1  0  0  0  0
 11 12  1  0  0  0  0
 13 18  1  0  0  0  0
 14 15  1  0  0  0  0
 15 16  2  0  0  0  0
 15 21  1  0  0  0  0
 16 22  1  0  0  0  0
 17 16  1  0  0  0  0
 18 17  2  0  0  0  0
 19 18  1  0  0  0  0
 19 14  2  0  0  0  0
 20 14  1  0  0  0  0
M  END
>  <minimizedAffinity>
-4.62222719

$$$$

 OpenBabel03242521103D

 22 23  0  0  1  0  0  0  0  0999 V2000
   38.0810   31.2910   38.6160 C   0  0  1  0  0  3  0  0  0  0  0  0
   39.2350   31.1040   39.5520 C   0  0  2  0  0  3  0  0  0  0  0  0
   38.9300   30.1200   40.4650 O   0  0  0  0  0  0  0  0  0  0  0  0
   37.9070   30.4280   41.3320 C   0  0  0  0  0  2  0  0  0  0  0  0
   36.8650   31.3540   40.7740 C   0  0  1  0  0  3  0  0  0  0  0  0
   36.7300   31.1900   39.2720 C   0  0  2  0  0  3  0  0  0  0  0  0
   38.2250   32.4340   37.8190 O   0  0  0  0  0  0  0  0  0  0  0  0
   37.3610   32.7400   37.4680 H   0  0  0  0  0  0  0  0  0  0  0  0
   35.6280   31.0280   41.3220 O   0  0  0  0  0  0  0  0  0  0  0  0
   35.4050   31.6630   42.0470 H   0  0  0  0  0  0  0  0  0  0  0  0
   36.0940   29.9770   39.0420 O   0  0  0  0  0  0  0  0  0  0  0  0
   35.6460   29.6140   39.8630 H   0  0  0  0  0  0  0  0  0  0  0  0
   39.7600   32.6360   40.3620 S   0  0  0  0  0  0  0  0  0  0  0  0
   43.4910   33.8590   39.4710 C   0  0  0  0  0  0  0  0  0  0  0  0
   43.3970   34.0200   38.0660 C   0  0  0  0  0  0  0  0  0  0  0  0
   42.1580   33.7360   37.4510 C   0  0  0  0  0  0  0  0  0  0  0  0
   41.1400   33.3300   38.2410 N   0  0  0  0  0  0  0  0  0  0  0  0
   41.2660   33.1870   39.5780 C   0  0  0  0  0  0  0  0  0  0  0  0
   42.4250   33.4480   40.1830 N   0  0  0  0  0  0  0  0  0  0  0  0
   44.4290   34.0680   39.9780 H   0  0  0  0  0  0  0  0  0  0  0  0
   44.2550   34.3510   37.4950 H   0  0  0  0  0  0  0  0  0  0  0  0
   42.0670   33.8550   36.3790 H   0  0  0  0  0  0  0  0  0  0  0  0
  1  7  1  1  0  0  0
  1  6  1  0  0  0  0
  1  2  1  0  0  0  0
  2 13  1  1  0  0  0
  2  3  1  0  0  0  0
  3  4  1  0  0  0  0
  5  9  1  1  0  0  0
  5  4  1  0  0  0  0
  6 11  1  1  0  0  0
  6  5  1  0  0  0  0
  8  7  1  0  0  0  0
  9 10  1  0  0  0  0
 11 12  1  0  0  0  0
 14 20  1  0  0  0  0
 14 19  1  0  0  0  0
 15 14  2  0  0  0  0
 16 15  1  0  0  0  0
 16 17  2  0  0  0  0
 17 18  1  0  0  0  0
 18 19  2  0  0  0  0
 18 13  1  0  0  0  0
 21 15  1  0  0  0  0
 22 16  1  0  0  0  0
M  END
>  <minimizedAffinity>
-4.58479118

$$$$
