
 OpenBabel03252505433D

 45 48  0  0  1  0  0  0  0  0999 V2000
   43.1680   34.8740   40.5310 C   0  0  0  0  0  0  0  0  0  0  0  0
   43.1810   35.1530   39.1850 C   0  0  0  0  0  0  0  0  0  0  0  0
   42.0570   35.1150   38.4020 C   0  0  0  0  0  0  0  0  0  0  0  0
   40.8850   34.7830   38.9980 N   0  0  0  0  0  0  0  0  0  0  0  0
   40.8560   34.5010   40.3340 C   0  0  0  0  0  0  0  0  0  0  0  0
   41.9700   34.5440   41.0930 N   0  0  0  0  0  0  0  0  0  0  0  0
   44.1060   35.4130   38.7160 H   0  0  0  0  0  0  0  0  0  0  0  0
   42.0730   35.3370   37.3360 H   0  0  0  0  0  0  0  0  0  0  0  0
   44.2650   34.4440   42.7070 C   0  0  1  0  0  0  0  0  0  0  0  0
   44.5060   35.9710   42.4460 C   0  0  0  0  0  0  0  0  0  0  0  0
   44.4330   34.9020   41.3600 C   0  0  2  0  0  0  0  0  0  0  0  0
   43.2370   34.2820   43.1320 H   0  0  0  0  0  0  0  0  0  0  0  0
   45.5050   36.3570   42.7160 H   0  0  0  0  0  0  0  0  0  0  0  0
   43.6330   36.6340   42.4890 H   0  0  0  0  0  0  0  0  0  0  0  0
   45.3170   34.8590   40.7280 H   0  0  0  0  0  0  0  0  0  0  0  0
   45.3300   33.8040   43.5070 C   0  0  0  0  0  0  0  0  0  0  0  0
   46.5480   33.5140   42.8550 C   0  0  0  0  0  0  0  0  0  0  0  0
   47.5660   32.9140   43.5840 C   0  0  0  0  0  0  0  0  0  0  0  0
   47.3340   32.6380   44.8930 N   0  0  0  0  0  0  0  0  0  0  0  0
   46.1690   32.9270   45.4760 C   0  0  0  0  0  0  0  0  0  0  0  0
   45.1950   33.5030   44.7650 N   0  0  0  0  0  0  0  0  0  0  0  0
   46.6790   33.7590   41.8000 H   0  0  0  0  0  0  0  0  0  0  0  0
   48.5330   32.6700   43.1150 H   0  0  0  0  0  0  0  0  0  0  0  0
   46.1120   32.5460   46.9310 C   0  0  0  0  0  0  0  0  0  0  0  0
   45.1190   33.2490   47.5980 F   0  0  0  0  0  0  0  0  0  0  0  0
   47.3280   32.9270   47.5450 F   0  0  0  0  0  0  0  0  0  0  0  0
   46.0130   31.1880   47.0530 F   0  0  0  0  0  0  0  0  0  0  0  0
   39.5980   34.1310   41.0100 C   0  0  0  0  0  0  0  0  0  0  0  0
   39.2670   35.0520   41.5680 H   0  0  0  0  0  0  0  0  0  0  0  0
   39.7440   33.3190   41.7200 H   0  0  0  0  0  0  0  0  0  0  0  0
   38.5020   33.8250   40.0300 C   0  0  0  0  0  0  0  0  0  0  0  0
   37.5760   34.3720   40.2540 H   0  0  0  0  0  0  0  0  0  0  0  0
   38.8810   34.0900   39.0020 H   0  0  0  0  0  0  0  0  0  0  0  0
   39.0350   31.6160   39.0070 C   0  0  1  0  0  3  0  0  0  0  0  0
   38.1730   32.3700   39.9990 C   0  0  1  0  0  3  0  0  0  0  0  0
   38.1240   31.7260   41.2010 O   0  0  0  0  0  0  0  0  0  0  0  0
   38.6080   30.4240   41.1640 C   0  0  0  0  0  2  0  0  0  0  0  0
   38.0840   29.6200   40.0210 C   0  0  2  0  0  3  0  0  0  0  0  0
   38.3260   30.3100   38.7130 C   0  0  2  0  0  3  0  0  0  0  0  0
   39.2360   32.3830   37.8630 O   0  0  0  0  0  0  0  0  0  0  0  0
   40.2120   32.3490   37.6690 H   0  0  0  0  0  0  0  0  0  0  0  0
   36.7720   29.1970   40.2080 O   0  0  0  0  0  0  0  0  0  0  0  0
   36.1340   29.5850   39.5550 H   0  0  0  0  0  0  0  0  0  0  0  0
   39.0270   29.5400   37.7880 O   0  0  0  0  0  0  0  0  0  0  0  0
   38.7470   29.8450   36.8710 H   0  0  0  0  0  0  0  0  0  0  0  0
  1  6  1  0  0  0  0
  1 11  1  0  0  0  0
  2  1  2  0  0  0  0
  3  4  2  0  0  0  0
  3  2  1  0  0  0  0
  4  5  1  0  0  0  0
  5 28  1  0  0  0  0
  5  6  2  0  0  0  0
  7  2  1  0  0  0  0
  8  3  1  0  0  0  0
  9 12  1  1  0  0  0
  9 16  1  0  0  0  0
 10 14  1  0  0  0  0
 10  9  1  0  0  0  0
 10 13  1  0  0  0  0
 11 15  1  6  0  0  0
 11 10  1  0  0  0  0
 11  9  1  0  0  0  0
 16 21  1  0  0  0  0
 17 16  2  0  0  0  0
 17 18  1  0  0  0  0
 18 19  2  0  0  0  0
 19 20  1  0  0  0  0
 20 24  1  0  0  0  0
 21 20  2  0  0  0  0
 22 17  1  0  0  0  0
 23 18  1  0  0  0  0
 24 27  1  0  0  0  0
 24 26  1  0  0  0  0
 24 25  1  0  0  0  0
 28 29  1  0  0  0  0
 28 30  1  0  0  0  0
 31 32  1  0  0  0  0
 31 28  1  0  0  0  0
 33 31  1  0  0  0  0
 34 40  1  6  0  0  0
 34 35  1  0  0  0  0
 35 31  1  1  0  0  0
 35 36  1  0  0  0  0
 37 36  1  0  0  0  0
 38 42  1  1  0  0  0
 38 37  1  0  0  0  0
 39 44  1  6  0  0  0
 39 34  1  0  0  0  0
 39 38  1  0  0  0  0
 41 40  1  0  0  0  0
 43 42  1  0  0  0  0
 45 44  1  0  0  0  0
M  END
>  <minimizedAffinity>
-5.97874069

>  <minimizedRMSD>
1.60258031

$$$$
