
 OpenBabel03252500273D

 46 48  0  0  1  0  0  0  0  0999 V2000
   47.3390   33.0210   46.8260 O   0  0  0  0  0  0  0  0  0  0  0  0
   46.0360   32.5160   46.3160 P   0  0  1  0  0  0  0  0  0  0  0  0
   46.3220   31.2350   45.2450 O   0  0  0  0  0  0  0  0  0  0  0  0
   47.1450   31.4650   44.7470 H   0  0  0  0  0  0  0  0  0  0  0  0
   45.1760   31.9770   47.6150 O   0  0  0  0  0  0  0  0  0  0  0  0
   46.9690   30.4390   47.9650 C   0  0  2  0  0  0  0  0  0  0  0  0
   45.5070   30.6790   47.8950 C   0  0  2  0  0  0  0  0  0  0  0  0
   44.9820   29.7270   46.9410 C   0  0  0  0  0  0  0  0  0  0  0  0
   45.8790   28.6550   46.8340 O   0  0  0  0  0  0  0  0  0  0  0  0
   46.8390   28.8780   47.7600 C   0  0  0  0  0  0  0  0  0  0  0  0
   47.5690   30.5900   47.0520 H   0  0  0  0  0  0  0  0  0  0  0  0
   45.1910   30.5600   48.9760 H   0  0  0  0  0  0  0  0  0  0  0  0
   44.1770   29.1730   47.5440 H   0  0  0  0  0  0  0  0  0  0  0  0
   44.3710   29.9580   46.0940 H   0  0  0  0  0  0  0  0  0  0  0  0
   46.4460   28.5510   48.7610 H   0  0  0  0  0  0  0  0  0  0  0  0
   47.8180   28.4310   47.6160 H   0  0  0  0  0  0  0  0  0  0  0  0
   47.5710   30.6440   49.1510 O   0  0  0  0  0  0  0  0  0  0  0  0
   48.7610   31.1550   49.3190 C   0  0  0  0  0  0  0  0  0  0  0  0
   48.9570   32.2010   49.3680 H   0  0  0  0  0  0  0  0  0  0  0  0
   49.3030   30.8950   48.2660 H   0  0  0  0  0  0  0  0  0  0  0  0
   49.5590   30.2290   50.2290 C   0  0  0  0  0  0  0  0  0  0  0  0
   50.5450   30.6770   50.4760 H   0  0  0  0  0  0  0  0  0  0  0  0
   49.7290   29.2500   49.7440 H   0  0  0  0  0  0  0  0  0  0  0  0
   48.9670   30.1220   51.1610 H   0  0  0  0  0  0  0  0  0  0  0  0
   45.2970   33.8440   45.5340 O   0  0  0  0  0  0  0  0  0  0  0  0
   44.6870   33.5600   42.0170 C   0  0  0  0  0  0  0  0  0  0  0  0
   45.6410   34.4460   41.4220 C   0  0  0  0  0  0  0  0  0  0  0  0
   46.4790   35.1200   42.3170 C   0  0  0  0  0  0  0  0  0  0  0  0
   46.3530   34.9130   43.6410 N   0  0  0  0  0  0  0  0  0  0  0  0
   45.4390   34.0700   44.1560 C   0  0  0  0  0  0  0  0  0  0  0  0
   44.6090   33.3950   43.3470 N   0  0  0  0  0  0  0  0  0  0  0  0
   45.7110   34.5830   40.3710 H   0  0  0  0  0  0  0  0  0  0  0  0
   47.2180   35.8020   41.9090 H   0  0  0  0  0  0  0  0  0  0  0  0
   43.8340   32.8670   41.1880 O   0  0  0  0  0  0  0  0  0  0  0  0
   42.3580   32.5150   39.3370 C   0  0  1  0  0  0  0  0  0  0  0  0
   43.0730   33.5230   40.1840 C   0  0  1  0  0  0  0  0  0  0  0  0
   42.1740   34.3910   40.7760 O   0  0  0  0  0  0  0  0  0  0  0  0
   41.6510   35.3030   39.8560 C   0  0  0  0  0  0  0  0  0  0  0  0
   41.5570   34.6590   38.4770 C   0  0  1  0  0  0  0  0  0  0  0  0
   41.2160   33.2010   38.6300 C   0  0  1  0  0  0  0  0  0  0  0  0
   43.2230   31.9110   38.4070 O   0  0  0  0  0  0  0  0  0  0  0  0
   43.1370   30.9130   38.4740 H   0  0  0  0  0  0  0  0  0  0  0  0
   40.5900   35.3380   37.7630 O   0  0  0  0  0  0  0  0  0  0  0  0
   40.2870   34.7420   37.0410 H   0  0  0  0  0  0  0  0  0  0  0  0
   41.0000   32.6010   37.4040 O   0  0  0  0  0  0  0  0  0  0  0  0
   40.0810   32.2420   37.2800 H   0  0  0  0  0  0  0  0  0  0  0  0
  2  1  2  1  0  0  0
  2  5  1  0  0  0  0
  3  2  1  0  0  0  0
  4  3  1  0  0  0  0
  5  7  1  0  0  0  0
  6 11  1  6  0  0  0
  6 17  1  0  0  0  0
  7  6  1  0  0  0  0
  7 12  1  1  0  0  0
  8 13  1  0  0  0  0
  8  7  1  0  0  0  0
  9  8  1  0  0  0  0
  9 10  1  0  0  0  0
 10  6  1  0  0  0  0
 10 15  1  0  0  0  0
 14  8  1  0  0  0  0
 16 10  1  0  0  0  0
 17 18  1  0  0  0  0
 18 19  1  0  0  0  0
 18 21  1  0  0  0  0
 20 18  1  0  0  0  0
 21 22  1  0  0  0  0
 21 24  1  0  0  0  0
 23 21  1  0  0  0  0
 25  2  1  0  0  0  0
 26 31  1  0  0  0  0
 27 26  2  0  0  0  0
 27 28  1  0  0  0  0
 28 29  2  0  0  0  0
 29 30  1  0  0  0  0
 30 25  1  0  0  0  0
 31 30  2  0  0  0  0
 32 27  1  0  0  0  0
 33 28  1  0  0  0  0
 34 26  1  0  0  0  0
 35 41  1  6  0  0  0
 35 36  1  0  0  0  0
 36 37  1  0  0  0  0
 36 34  1  1  0  0  0
 38 37  1  0  0  0  0
 39 43  1  6  0  0  0
 39 40  1  0  0  0  0
 39 38  1  0  0  0  0
 40 45  1  6  0  0  0
 40 35  1  0  0  0  0
 41 42  1  0  0  0  0
 44 43  1  0  0  0  0
 46 45  1  0  0  0  0
M  END
>  <minimizedAffinity>
-4.89835691

>  <minimizedRMSD>
5.62804222

$$$$
