
 OpenBabel03252508033D

 45 48  0  0  1  0  0  0  0  0999 V2000
   42.0260   33.2510   41.2200 C   0  0  0  0  0  0  0  0  0  0  0  0
   42.7900   34.3990   41.3350 C   0  0  0  0  0  0  0  0  0  0  0  0
   42.1580   35.6330   41.2300 C   0  0  0  0  0  0  0  0  0  0  0  0
   40.8000   35.7310   41.0170 C   0  0  0  0  0  0  0  0  0  0  0  0
   40.0360   34.6020   40.9010 C   0  0  0  0  0  0  0  0  0  0  0  0
   40.6570   33.3920   41.0040 C   0  0  0  0  0  0  0  0  0  0  0  0
   42.6750   36.5910   41.3030 H   0  0  0  0  0  0  0  0  0  0  0  0
   40.3180   36.6810   40.9380 H   0  0  0  0  0  0  0  0  0  0  0  0
   38.9900   34.6450   40.7350 H   0  0  0  0  0  0  0  0  0  0  0  0
   40.0540   32.4960   40.9130 H   0  0  0  0  0  0  0  0  0  0  0  0
   42.7250   31.7330   41.2430 S   0  0  0  0  0  0  0  0  0  0  0  0
   42.0820   30.9650   40.1400 O   0  0  0  0  0  0  0  0  0  0  0  0
   42.3280   31.0930   42.6260 O   0  0  0  0  0  0  0  0  0  0  0  0
   44.0810   29.5630   41.6190 C   0  0  2  0  0  3  0  0  0  0  0  0
   44.2060   31.0370   41.2450 C   0  0  1  0  0  3  0  0  0  0  0  0
   44.8980   30.9440   40.0050 O   0  0  0  0  0  0  0  0  0  0  0  0
   46.0680   30.2330   40.0920 C   0  0  0  0  0  2  0  0  0  0  0  0
   45.6760   28.7860   39.8410 C   0  0  1  0  0  3  0  0  0  0  0  0
   44.3270   28.5970   40.5010 C   0  0  2  0  0  3  0  0  0  0  0  0
   42.7670   29.2760   42.0640 O   0  0  0  0  0  0  0  0  0  0  0  0
   42.2600   28.7250   41.4480 H   0  0  0  0  0  0  0  0  0  0  0  0
   45.4930   28.5770   38.4740 O   0  0  0  0  0  0  0  0  0  0  0  0
   45.5660   27.5840   38.3210 H   0  0  0  0  0  0  0  0  0  0  0  0
   43.3010   28.6320   39.5830 O   0  0  0  0  0  0  0  0  0  0  0  0
   43.5820   28.7340   38.6570 H   0  0  0  0  0  0  0  0  0  0  0  0
   44.2420   34.3710   41.5620 C   0  0  0  0  0  0  0  0  0  0  0  0
   45.1150   34.2740   40.6400 O   0  0  0  0  0  0  0  0  0  0  0  0
   44.5900   34.4670   42.9460 C   0  0  0  0  0  0  0  0  0  0  0  0
   44.3030   35.7140   43.5840 C   0  0  0  0  0  0  0  0  0  0  0  0
   44.6170   35.8190   44.9410 C   0  0  0  0  0  0  0  0  0  0  0  0
   45.1700   34.7410   45.5580 N   0  0  0  0  0  0  0  0  0  0  0  0
   45.4260   33.5650   44.8990 C   0  0  0  0  0  0  0  0  0  0  0  0
   45.1310   33.4940   43.6550 N   0  0  0  0  0  0  0  0  0  0  0  0
   43.8750   36.5860   43.1570 H   0  0  0  0  0  0  0  0  0  0  0  0
   44.4380   36.7270   45.5190 H   0  0  0  0  0  0  0  0  0  0  0  0
   46.0080   32.4390   45.6570 C   0  0  1  0  0  0  0  0  0  0  0  0
   46.9600   32.7360   46.7920 C   0  0  0  0  0  0  0  0  0  0  0  0
   45.5460   32.3310   47.0630 C   0  0  1  0  0  0  0  0  0  0  0  0
   46.1860   31.4980   45.1310 H   0  0  0  0  0  0  0  0  0  0  0  0
   47.3120   33.7720   46.9400 H   0  0  0  0  0  0  0  0  0  0  0  0
   47.7350   31.9950   47.0570 H   0  0  0  0  0  0  0  0  0  0  0  0
   45.3520   31.3540   47.5310 H   0  0  0  0  0  0  0  0  0  0  0  0
   44.7770   33.4070   47.6620 N   0  0  0  0  0  0  0  0  0  0  0  0
   43.9920   33.0430   48.2610 H   0  0  0  0  0  0  0  0  0  0  0  0
   45.3460   34.0010   48.3230 H   0  0  0  0  0  0  0  0  0  0  0  0
  1 11  1  0  0  0  0
  1  2  1  0  0  0  0
  2 26  1  0  0  0  0
  3  7  1  0  0  0  0
  3  2  2  0  0  0  0
  4  3  1  0  0  0  0
  5  6  1  0  0  0  0
  5  4  2  0  0  0  0
  6  1  2  0  0  0  0
  8  4  1  0  0  0  0
  9  5  1  0  0  0  0
 10  6  1  0  0  0  0
 11 13  2  0  0  0  0
 12 11  2  0  0  0  0
 14 20  1  6  0  0  0
 15 11  1  6  0  0  0
 15 14  1  0  0  0  0
 16 17  1  0  0  0  0
 16 15  1  0  0  0  0
 18 22  1  6  0  0  0
 18 17  1  0  0  0  0
 18 19  1  0  0  0  0
 19 24  1  6  0  0  0
 19 14  1  0  0  0  0
 21 20  1  0  0  0  0
 23 22  1  0  0  0  0
 25 24  1  0  0  0  0
 26 28  1  0  0  0  0
 27 26  2  0  0  0  0
 28 29  2  0  0  0  0
 28 33  1  0  0  0  0
 29 30  1  0  0  0  0
 30 35  1  0  0  0  0
 30 31  2  0  0  0  0
 32 31  1  0  0  0  0
 32 36  1  0  0  0  0
 33 32  2  0  0  0  0
 34 29  1  0  0  0  0
 36 39  1  6  0  0  0
 36 37  1  0  0  0  0
 36 38  1  0  0  0  0
 37 40  1  0  0  0  0
 37 41  1  0  0  0  0
 37 38  1  0  0  0  0
 38 42  1  1  0  0  0
 38 43  1  0  0  0  0
 43 44  1  0  0  0  0
 43 45  1  0  0  0  0
M  END
>  <minimizedAffinity>
-5.73147821

>  <minimizedRMSD>
1.37478006

$$$$
