
 OpenBabel03252504183D

 41 43  0  0  1  0  0  0  0  0999 V2000
   48.2580   30.6700   45.6890 F   0  0  0  0  0  0  0  0  0  0  0  0
   47.5100   31.1090   46.7560 C   0  0  0  0  0  0  0  0  0  0  0  0
   46.3600   31.8110   46.5390 C   0  0  0  0  0  0  0  0  0  0  0  0
   45.6610   32.2220   47.6660 C   0  0  0  0  0  0  0  0  0  0  0  0
   46.1140   31.9300   48.9280 C   0  0  0  0  0  0  0  0  0  0  0  0
   47.2990   31.2090   49.0850 C   0  0  0  0  0  0  0  0  0  0  0  0
   48.0260   30.7800   47.9820 C   0  0  0  0  0  0  0  0  0  0  0  0
   44.7420   32.7830   47.5010 H   0  0  0  0  0  0  0  0  0  0  0  0
   45.5450   32.2650   49.7800 H   0  0  0  0  0  0  0  0  0  0  0  0
   47.6460   30.9850   50.0920 H   0  0  0  0  0  0  0  0  0  0  0  0
   44.9310   33.6740   43.7410 C   0  0  0  0  0  0  0  0  0  0  0  0
   44.9690   32.7590   42.6790 C   0  0  0  0  0  0  0  0  0  0  0  0
   45.4970   31.4860   42.9460 C   0  0  0  0  0  0  0  0  0  0  0  0
   45.9390   31.1960   44.1860 N   0  0  0  0  0  0  0  0  0  0  0  0
   45.8830   32.1180   45.1870 C   0  0  0  0  0  0  0  0  0  0  0  0
   45.3830   33.3350   44.9540 N   0  0  0  0  0  0  0  0  0  0  0  0
   45.5320   30.7720   42.1330 H   0  0  0  0  0  0  0  0  0  0  0  0
   44.4670   33.1600   41.3630 C   0  0  0  0  0  0  0  0  0  0  0  0
   43.2730   33.8460   41.4850 F   0  0  0  0  0  0  0  0  0  0  0  0
   45.3800   34.0630   40.8010 F   0  0  0  0  0  0  0  0  0  0  0  0
   44.2810   32.1470   40.4830 F   0  0  0  0  0  0  0  0  0  0  0  0
   44.4230   34.8990   43.4870 O   0  0  0  0  0  0  0  0  0  0  0  0
   45.1660   36.0920   43.2540 C   0  0  0  0  0  0  0  0  0  0  0  0
   45.0310   36.8840   44.3860 F   0  0  0  0  0  0  0  0  0  0  0  0
   46.4630   35.7810   42.9630 F   0  0  0  0  0  0  0  0  0  0  0  0
   44.5620   36.8050   42.2390 F   0  0  0  0  0  0  0  0  0  0  0  0
   49.2960   30.0060   48.1430 C   0  0  0  0  0  0  0  0  0  0  0  0
   50.1020   30.6720   47.7180 H   0  0  0  0  0  0  0  0  0  0  0  0
   49.3010   29.0940   47.5280 H   0  0  0  0  0  0  0  0  0  0  0  0
   50.6670   30.6890   50.1120 C   0  0  2  0  0  0  0  0  0  0  0  0
   49.6190   29.7520   49.6040 C   0  0  2  0  0  0  0  0  0  0  0  0
   49.8940   28.4160   49.8350 O   0  0  0  0  0  0  0  0  0  0  0  0
   51.1220   28.0170   49.3580 C   0  0  0  0  0  0  0  0  0  0  0  0
   52.1830   28.6550   50.1890 C   0  0  2  0  0  0  0  0  0  0  0  0
   51.8960   30.0400   50.6570 C   0  0  1  0  0  0  0  0  0  0  0  0
   50.1580   31.5460   51.0910 O   0  0  0  0  0  0  0  0  0  0  0  0
   50.0930   31.1170   51.9770 H   0  0  0  0  0  0  0  0  0  0  0  0
   53.3690   28.6320   49.4170 O   0  0  0  0  0  0  0  0  0  0  0  0
   53.1480   28.5940   48.4510 H   0  0  0  0  0  0  0  0  0  0  0  0
   53.0250   30.8310   50.4110 O   0  0  0  0  0  0  0  0  0  0  0  0
   52.7320   31.7600   50.6840 H   0  0  0  0  0  0  0  0  0  0  0  0
  1  2  1  0  0  0  0
  2  7  1  0  0  0  0
  3  2  2  0  0  0  0
  3  4  1  0  0  0  0
  4  5  2  0  0  0  0
  5  6  1  0  0  0  0
  5  9  1  0  0  0  0
  6 10  1  0  0  0  0
  7 27  1  0  0  0  0
  7  6  2  0  0  0  0
  8  4  1  0  0  0  0
 11 16  1  0  0  0  0
 12 13  1  0  0  0  0
 12 11  2  0  0  0  0
 13 14  2  0  0  0  0
 14 15  1  0  0  0  0
 15  3  1  0  0  0  0
 16 15  2  0  0  0  0
 17 13  1  0  0  0  0
 18 19  1  0  0  0  0
 18 12  1  0  0  0  0
 20 18  1  0  0  0  0
 21 18  1  0  0  0  0
 22 11  1  0  0  0  0
 23 22  1  0  0  0  0
 23 24  1  0  0  0  0
 25 23  1  0  0  0  0
 26 23  1  0  0  0  0
 28 27  1  0  0  0  0
 29 27  1  0  0  0  0
 30 35  1  0  0  0  0
 30 36  1  1  0  0  0
 31 27  1  6  0  0  0
 31 32  1  0  0  0  0
 31 30  1  0  0  0  0
 33 32  1  0  0  0  0
 33 34  1  0  0  0  0
 34 38  1  6  0  0  0
 34 35  1  0  0  0  0
 35 40  1  6  0  0  0
 36 37  1  0  0  0  0
 39 38  1  0  0  0  0
 40 41  1  0  0  0  0
M  END
>  <minimizedAffinity>
-5.89395618

>  <minimizedRMSD>
2.96401548

$$$$
