
 OpenBabel03242520483D

 22 23  0  0  1  0  0  0  0  0999 V2000
   48.4010   34.2520   40.4250 C   0  0  1  0  0  3  0  0  0  0  0  0
   47.0450   34.5330   40.9650 C   0  0  1  0  0  3  0  0  0  0  0  0
   46.2190   33.4930   41.2200 O   0  0  0  0  0  0  0  0  0  0  0  0
   46.6810   32.2290   40.9490 C   0  0  0  0  0  2  0  0  0  0  0  0
   47.2040   32.2880   39.5210 C   0  0  1  0  0  3  0  0  0  0  0  0
   48.5560   32.9580   39.6880 C   0  0  1  0  0  3  0  0  0  0  0  0
   48.8170   35.2640   39.5580 O   0  0  0  0  0  0  0  0  0  0  0  0
   49.7650   35.2680   39.3510 H   0  0  0  0  0  0  0  0  0  0  0  0
   47.2900   31.0410   38.9710 O   0  0  0  0  0  0  0  0  0  0  0  0
   48.1370   30.9450   38.4740 H   0  0  0  0  0  0  0  0  0  0  0  0
   49.0680   33.1240   38.3960 O   0  0  0  0  0  0  0  0  0  0  0  0
   50.0090   32.7890   38.3230 H   0  0  0  0  0  0  0  0  0  0  0  0
   47.0880   35.3690   42.1100 O   0  0  0  0  0  0  0  0  0  0  0  0
   44.5300   35.4440   44.8010 C   0  0  0  0  0  0  0  0  0  0  0  0
   45.1940   35.8150   43.6310 C   0  0  0  0  0  0  0  0  0  0  0  0
   46.3330   35.1090   43.2460 C   0  0  0  0  0  0  0  0  0  0  0  0
   46.7450   34.0760   44.0480 N   0  0  0  0  0  0  0  0  0  0  0  0
   46.0840   33.7400   45.1710 C   0  0  0  0  0  0  0  0  0  0  0  0
   44.9750   34.4260   45.5470 N   0  0  0  0  0  0  0  0  0  0  0  0
   43.6520   35.9960   45.0890 H   0  0  0  0  0  0  0  0  0  0  0  0
   44.8820   36.6320   42.9830 H   0  0  0  0  0  0  0  0  0  0  0  0
   46.5370   32.8970   45.6970 H   0  0  0  0  0  0  0  0  0  0  0  0
  1  7  1  6  0  0  0
  1  2  1  0  0  0  0
  2  3  1  0  0  0  0
  2 13  1  1  0  0  0
  4  3  1  0  0  0  0
  5  9  1  1  0  0  0
  5  6  1  0  0  0  0
  5  4  1  0  0  0  0
  6 11  1  6  0  0  0
  6  1  1  0  0  0  0
  8  7  1  0  0  0  0
 10  9  1  0  0  0  0
 12 11  1  0  0  0  0
 13 16  1  0  0  0  0
 14 20  1  0  0  0  0
 14 19  1  0  0  0  0
 15 14  2  0  0  0  0
 16 15  1  0  0  0  0
 16 17  2  0  0  0  0
 17 18  1  0  0  0  0
 18 19  2  0  0  0  0
 18 22  1  0  0  0  0
 21 15  1  0  0  0  0
M  END
>  <minimizedAffinity>
-4.35488844

>  <minimizedRMSD>
2.08019304

$$$$
