
 OpenBabel03242516413D

 35 36  0  0  1  0  0  0  0  0999 V2000
   46.4630   32.8720   43.1770 O   0  0  0  0  0  0  0  0  0  0  0  0
   46.9760   33.3720   44.3600 C   0  0  0  0  0  0  0  0  0  0  0  0
   47.8180   32.7630   44.7510 H   0  0  0  0  0  0  0  0  0  0  0  0
   47.2940   34.4310   44.2340 H   0  0  0  0  0  0  0  0  0  0  0  0
   45.8810   33.3800   45.4000 C   0  0  0  0  0  0  0  0  0  0  0  0
   44.9430   33.0060   44.9430 H   0  0  0  0  0  0  0  0  0  0  0  0
   45.6860   34.3870   45.8050 H   0  0  0  0  0  0  0  0  0  0  0  0
   45.9210   31.7280   48.7780 C   0  0  0  0  0  0  0  0  0  0  0  0
   45.5500   32.5880   47.6970 C   0  0  0  0  0  0  0  0  0  0  0  0
   46.2630   32.4860   46.5130 C   0  0  0  0  0  0  0  0  0  0  0  0
   47.2710   31.5890   46.4170 N   0  0  0  0  0  0  0  0  0  0  0  0
   47.5880   30.7940   47.4650 C   0  0  0  0  0  0  0  0  0  0  0  0
   46.9290   30.8570   48.6280 N   0  0  0  0  0  0  0  0  0  0  0  0
   45.2260   31.8070   49.9940 N   0  0  0  0  0  0  0  0  0  0  0  0
   44.7290   33.2660   47.8850 H   0  0  0  0  0  0  0  0  0  0  0  0
   48.4100   30.1140   47.2790 H   0  0  0  0  0  0  0  0  0  0  0  0
   45.8430   32.4980   50.5060 H   0  0  0  0  0  0  0  0  0  0  0  0
   44.3680   31.3130   50.2600 H   0  0  0  0  0  0  0  0  0  0  0  0
   47.0610   35.0770   41.8980 O   0  0  0  0  0  0  0  0  0  0  0  0
   47.2360   33.5760   41.8360 P   0  0  2  0  0  0  0  0  0  0  0  0
   46.5690   32.8870   40.4550 O   0  0  0  0  0  0  0  0  0  0  0  0
   45.6720   32.5070   40.5970 H   0  0  0  0  0  0  0  0  0  0  0  0
   48.8750   33.1570   41.8360 O   0  0  0  0  0  0  0  0  0  0  0  0
   50.1850   31.9030   40.3100 C   0  0  1  0  0  0  0  0  0  0  0  0
   49.1340   31.8840   41.3930 C   0  0  1  0  0  0  0  0  0  0  0  0
   49.3520   30.9700   42.3910 O   0  0  0  0  0  0  0  0  0  0  0  0
   50.6470   30.9380   42.8840 C   0  0  0  0  0  0  0  0  0  0  0  0
   51.5440   30.4950   41.7460 C   0  0  1  0  0  0  0  0  0  0  0  0
   51.5780   31.6760   40.7890 C   0  0  2  0  0  0  0  0  0  0  0  0
   49.8990   30.9340   39.3250 O   0  0  0  0  0  0  0  0  0  0  0  0
   49.3780   30.2140   39.7840 H   0  0  0  0  0  0  0  0  0  0  0  0
   52.8160   30.1310   42.1640 O   0  0  0  0  0  0  0  0  0  0  0  0
   53.4770   30.6840   41.6770 H   0  0  0  0  0  0  0  0  0  0  0  0
   52.0700   32.8120   41.4080 O   0  0  0  0  0  0  0  0  0  0  0  0
   52.7210   32.6560   42.1170 H   0  0  0  0  0  0  0  0  0  0  0  0
  1  2  1  0  0  0  0
  2  3  1  0  0  0  0
  2  5  1  0  0  0  0
  4  2  1  0  0  0  0
  5  7  1  0  0  0  0
  5 10  1  0  0  0  0
  6  5  1  0  0  0  0
  8 14  1  0  0  0  0
  9 15  1  0  0  0  0
  9  8  2  0  0  0  0
 10  9  1  0  0  0  0
 11 10  2  0  0  0  0
 11 12  1  0  0  0  0
 12 13  2  0  0  0  0
 13  8  1  0  0  0  0
 14 18  1  0  0  0  0
 14 17  1  0  0  0  0
 16 12  1  0  0  0  0
 20 23  1  0  0  0  0
 20 19  2  6  0  0  0
 20  1  1  0  0  0  0
 21 22  1  0  0  0  0
 21 20  1  0  0  0  0
 24 30  1  6  0  0  0
 24 29  1  0  0  0  0
 24 25  1  0  0  0  0
 25 23  1  1  0  0  0
 25 26  1  0  0  0  0
 26 27  1  0  0  0  0
 28 32  1  1  0  0  0
 28 27  1  0  0  0  0
 29 34  1  1  0  0  0
 29 28  1  0  0  0  0
 30 31  1  0  0  0  0
 33 32  1  0  0  0  0
 34 35  1  0  0  0  0
M  END
>  <minimizedAffinity>
-4.80876064

>  <minimizedRMSD>
4.88608837

$$$$
