
 OpenBabel03252505433D

 45 48  0  0  1  0  0  0  0  0999 V2000
   42.6840   34.8480   40.2600 C   0  0  0  0  0  0  0  0  0  0  0  0
   42.5400   35.1900   38.9360 C   0  0  0  0  0  0  0  0  0  0  0  0
   41.3540   35.0820   38.2590 C   0  0  0  0  0  0  0  0  0  0  0  0
   40.2790   34.6130   38.9430 N   0  0  0  0  0  0  0  0  0  0  0  0
   40.4060   34.2680   40.2580 C   0  0  0  0  0  0  0  0  0  0  0  0
   41.5810   34.3810   40.9120 N   0  0  0  0  0  0  0  0  0  0  0  0
   43.3890   35.5580   38.3980 H   0  0  0  0  0  0  0  0  0  0  0  0
   41.2450   35.3540   37.2110 H   0  0  0  0  0  0  0  0  0  0  0  0
   43.9690   34.6340   42.3630 C   0  0  1  0  0  0  0  0  0  0  0  0
   44.1740   36.1270   41.9340 C   0  0  0  0  0  0  0  0  0  0  0  0
   44.0160   34.9570   40.9680 C   0  0  2  0  0  0  0  0  0  0  0  0
   42.9840   34.5150   42.8910 H   0  0  0  0  0  0  0  0  0  0  0  0
   45.1900   36.5380   42.0760 H   0  0  0  0  0  0  0  0  0  0  0  0
   43.3040   36.7920   41.9880 H   0  0  0  0  0  0  0  0  0  0  0  0
   44.8420   34.8510   40.2690 H   0  0  0  0  0  0  0  0  0  0  0  0
   45.1060   34.0750   43.1260 C   0  0  0  0  0  0  0  0  0  0  0  0
   46.3430   33.9540   42.4570 C   0  0  0  0  0  0  0  0  0  0  0  0
   47.4260   33.4340   43.1500 C   0  0  0  0  0  0  0  0  0  0  0  0
   47.2370   33.0670   44.4440 N   0  0  0  0  0  0  0  0  0  0  0  0
   46.0520   33.1960   45.0450 C   0  0  0  0  0  0  0  0  0  0  0  0
   45.0150   33.6980   44.3670 N   0  0  0  0  0  0  0  0  0  0  0  0
   46.4360   34.2660   41.4150 H   0  0  0  0  0  0  0  0  0  0  0  0
   48.4100   33.3220   42.6660 H   0  0  0  0  0  0  0  0  0  0  0  0
   46.0500   32.7380   46.4780 C   0  0  0  0  0  0  0  0  0  0  0  0
   45.0800   33.3980   47.2170 F   0  0  0  0  0  0  0  0  0  0  0  0
   47.2870   33.0910   47.0670 F   0  0  0  0  0  0  0  0  0  0  0  0
   45.9590   31.3740   46.5300 F   0  0  0  0  0  0  0  0  0  0  0  0
   39.2590   33.7490   41.0260 C   0  0  0  0  0  0  0  0  0  0  0  0
   38.4130   34.4700   40.8380 H   0  0  0  0  0  0  0  0  0  0  0  0
   39.4670   33.7170   42.0940 H   0  0  0  0  0  0  0  0  0  0  0  0
   38.7920   32.4190   40.5080 C   0  0  0  0  0  0  0  0  0  0  0  0
   37.7030   32.3850   40.3640 H   0  0  0  0  0  0  0  0  0  0  0  0
   39.3260   32.2260   39.5350 H   0  0  0  0  0  0  0  0  0  0  0  0
   39.6850   30.0990   40.6700 C   0  0  1  0  0  3  0  0  0  0  0  0
   39.1620   31.3040   41.4270 C   0  0  1  0  0  3  0  0  0  0  0  0
   39.9730   31.6170   42.4780 O   0  0  0  0  0  0  0  0  0  0  0  0
   40.8960   30.6270   42.7930 C   0  0  0  0  0  2  0  0  0  0  0  0
   40.3090   29.2560   42.8650 C   0  0  2  0  0  3  0  0  0  0  0  0
   39.5760   28.9120   41.6050 C   0  0  2  0  0  3  0  0  0  0  0  0
   38.9640   29.9190   39.4940 O   0  0  0  0  0  0  0  0  0  0  0  0
   39.6350   29.7860   38.7690 H   0  0  0  0  0  0  0  0  0  0  0  0
   39.5780   29.0370   44.0280 O   0  0  0  0  0  0  0  0  0  0  0  0
   38.6120   28.8810   43.8660 H   0  0  0  0  0  0  0  0  0  0  0  0
   40.0140   27.7380   40.9990 O   0  0  0  0  0  0  0  0  0  0  0  0
   39.2340   27.3530   40.4930 H   0  0  0  0  0  0  0  0  0  0  0  0
  1  6  1  0  0  0  0
  1 11  1  0  0  0  0
  2  1  2  0  0  0  0
  3  2  1  0  0  0  0
  3  4  2  0  0  0  0
  4  5  1  0  0  0  0
  5  6  2  0  0  0  0
  5 28  1  0  0  0  0
  7  2  1  0  0  0  0
  8  3  1  0  0  0  0
  9 12  1  1  0  0  0
  9 16  1  0  0  0  0
 10 14  1  0  0  0  0
 10 13  1  0  0  0  0
 10  9  1  0  0  0  0
 11 15  1  6  0  0  0
 11 10  1  0  0  0  0
 11  9  1  0  0  0  0
 16 21  1  0  0  0  0
 17 16  2  0  0  0  0
 17 18  1  0  0  0  0
 18 19  2  0  0  0  0
 19 20  1  0  0  0  0
 20 24  1  0  0  0  0
 21 20  2  0  0  0  0
 22 17  1  0  0  0  0
 23 18  1  0  0  0  0
 24 27  1  0  0  0  0
 24 26  1  0  0  0  0
 24 25  1  0  0  0  0
 28 30  1  0  0  0  0
 29 28  1  0  0  0  0
 31 28  1  0  0  0  0
 32 31  1  0  0  0  0
 33 31  1  0  0  0  0
 34 40  1  6  0  0  0
 34 35  1  0  0  0  0
 34 39  1  0  0  0  0
 35 31  1  6  0  0  0
 35 36  1  0  0  0  0
 36 37  1  0  0  0  0
 37 38  1  0  0  0  0
 38 42  1  1  0  0  0
 39 44  1  6  0  0  0
 39 38  1  0  0  0  0
 41 40  1  0  0  0  0
 43 42  1  0  0  0  0
 45 44  1  0  0  0  0
M  END
>  <minimizedAffinity>
-6.20163584

>  <minimizedRMSD>
2.29051995

$$$$
