
 OpenBabel03252502563D

 40 42  0  0  1  0  0  0  0  0999 V2000
   45.5880   29.9390   44.7010 Br  0  0  0  0  0  0  0  0  0  0  0  0
   45.6590   30.5310   46.5400 C   0  0  0  0  0  0  0  0  0  0  0  0
   46.3520   31.6920   46.7610 C   0  0  0  0  0  0  0  0  0  0  0  0
   46.3870   32.0980   48.0950 C   0  0  0  0  0  0  0  0  0  0  0  0
   45.7750   31.3910   49.1230 C   0  0  0  0  0  0  0  0  0  0  0  0
   45.1040   30.2400   48.8070 C   0  0  0  0  0  0  0  0  0  0  0  0
   45.0360   29.7910   47.5090 C   0  0  0  0  0  0  0  0  0  0  0  0
   46.9090   33.0020   48.3740 H   0  0  0  0  0  0  0  0  0  0  0  0
   45.8340   31.7530   50.1500 H   0  0  0  0  0  0  0  0  0  0  0  0
   44.6180   29.6730   49.6040 H   0  0  0  0  0  0  0  0  0  0  0  0
   47.0380   32.5280   45.7740 C   0  0  0  0  0  0  0  0  0  0  0  0
   47.2950   31.8620   44.9100 H   0  0  0  0  0  0  0  0  0  0  0  0
   48.0080   32.9040   46.1590 H   0  0  0  0  0  0  0  0  0  0  0  0
   44.5370   35.2890   45.4620 C   0  0  0  0  0  0  0  0  0  0  0  0
   44.7560   35.6980   44.1410 C   0  0  0  0  0  0  0  0  0  0  0  0
   45.7230   35.0490   43.3940 C   0  0  0  0  0  0  0  0  0  0  0  0
   46.4140   34.0500   43.9690 N   0  0  0  0  0  0  0  0  0  0  0  0
   46.2020   33.6510   45.2540 C   0  0  0  0  0  0  0  0  0  0  0  0
   45.2530   34.2980   45.9660 N   0  0  0  0  0  0  0  0  0  0  0  0
   43.8260   35.6860   46.1770 H   0  0  0  0  0  0  0  0  0  0  0  0
   44.1330   36.5050   43.8170 H   0  0  0  0  0  0  0  0  0  0  0  0
   45.8730   35.3820   42.3810 H   0  0  0  0  0  0  0  0  0  0  0  0
   44.3450   28.6120   47.2020 O   0  0  0  0  0  0  0  0  0  0  0  0
   44.1470   26.0430   46.8140 O   0  0  0  0  0  0  0  0  0  0  0  0
   44.8960   27.0680   47.6540 P   0  0  2  0  0  0  0  0  0  0  0  0
   44.5590   26.8610   49.2870 O   0  0  0  0  0  0  0  0  0  0  0  0
   44.1580   25.9690   49.4720 H   0  0  0  0  0  0  0  0  0  0  0  0
   46.5520   26.8690   47.3580 O   0  0  0  0  0  0  0  0  0  0  0  0
   48.6820   26.2400   48.2700 C   0  0  2  0  0  3  0  0  0  0  0  0
   47.1760   26.1710   48.3890 C   0  0  2  0  0  3  0  0  0  0  0  0
   46.7760   24.8400   48.4080 O   0  0  0  0  0  0  0  0  0  0  0  0
   47.3300   24.0800   47.3900 C   0  0  0  0  0  2  0  0  0  0  0  0
   48.8200   23.9560   47.4620 C   0  0  1  0  0  3  0  0  0  0  0  0
   49.2890   24.8830   48.5820 C   0  0  2  0  0  3  0  0  0  0  0  0
   49.2510   27.1410   49.1860 O   0  0  0  0  0  0  0  0  0  0  0  0
   50.2150   26.9140   49.2000 H   0  0  0  0  0  0  0  0  0  0  0  0
   49.2550   22.6820   47.7560 O   0  0  0  0  0  0  0  0  0  0  0  0
   50.1970   22.7730   48.0530 H   0  0  0  0  0  0  0  0  0  0  0  0
   48.8420   24.4770   49.8310 O   0  0  0  0  0  0  0  0  0  0  0  0
   48.5760   23.5300   49.8800 H   0  0  0  0  0  0  0  0  0  0  0  0
  1  2  1  0  0  0  0
  2  3  2  0  0  0  0
  2  7  1  0  0  0  0
  3  4  1  0  0  0  0
  4  8  1  0  0  0  0
  4  5  2  0  0  0  0
  5  9  1  0  0  0  0
  6  5  1  0  0  0  0
  6 10  1  0  0  0  0
  7  6  2  0  0  0  0
 11 13  1  0  0  0  0
 11  3  1  0  0  0  0
 12 11  1  0  0  0  0
 14 19  1  0  0  0  0
 14 20  1  0  0  0  0
 15 14  2  0  0  0  0
 16 17  2  0  0  0  0
 16 15  1  0  0  0  0
 17 18  1  0  0  0  0
 18 11  1  0  0  0  0
 18 19  2  0  0  0  0
 21 15  1  0  0  0  0
 22 16  1  0  0  0  0
 23  7  1  0  0  0  0
 23 25  1  0  0  0  0
 25 24  2  6  0  0  0
 25 26  1  0  0  0  0
 26 27  1  0  0  0  0
 28 25  1  0  0  0  0
 29 30  1  0  0  0  0
 29 34  1  0  0  0  0
 29 35  1  1  0  0  0
 30 28  1  6  0  0  0
 30 31  1  0  0  0  0
 32 33  1  0  0  0  0
 32 31  1  0  0  0  0
 33 37  1  1  0  0  0
 33 34  1  0  0  0  0
 34 39  1  1  0  0  0
 35 36  1  0  0  0  0
 37 38  1  0  0  0  0
 39 40  1  0  0  0  0
M  END
>  <minimizedAffinity>
-5.45551157

>  <minimizedRMSD>
1.22615993

$$$$
