
 OpenBabel03242511173D

 22 23  0  0  1  0  0  0  0  0999 V2000
   37.3420   31.7570   40.8090 C   0  0  1  0  0  3  0  0  0  0  0  0
   38.3980   30.6750   40.6570 C   0  0  2  0  0  3  0  0  0  0  0  0
   39.5560   31.1600   40.0400 O   0  0  0  0  0  0  0  0  0  0  0  0
   40.0120   32.3120   40.6790 C   0  0  0  0  0  2  0  0  0  0  0  0
   39.0500   33.4410   40.3570 C   0  0  1  0  0  3  0  0  0  0  0  0
   37.7550   32.8680   39.8370 C   0  0  2  0  0  3  0  0  0  0  0  0
   36.0710   31.2940   40.4820 O   0  0  0  0  0  0  0  0  0  0  0  0
   35.4860   31.4430   41.2780 H   0  0  0  0  0  0  0  0  0  0  0  0
   38.7950   34.1610   41.5190 O   0  0  0  0  0  0  0  0  0  0  0  0
   39.0870   33.6380   42.3270 H   0  0  0  0  0  0  0  0  0  0  0  0
   36.7880   33.8410   39.7090 O   0  0  0  0  0  0  0  0  0  0  0  0
   36.3250   34.0210   40.5550 H   0  0  0  0  0  0  0  0  0  0  0  0
   37.7940   29.2860   39.6370 S   0  0  0  0  0  0  0  0  0  0  0  0
   36.9080   26.9990   42.8740 C   0  0  0  0  0  0  0  0  0  0  0  0
   37.1430   28.1360   42.0720 C   0  0  0  0  0  0  0  0  0  0  0  0
   37.4800   27.9140   40.7290 C   0  0  0  0  0  0  0  0  0  0  0  0
   37.5630   26.6310   40.2800 N   0  0  0  0  0  0  0  0  0  0  0  0
   37.3320   25.5640   41.0770 C   0  0  0  0  0  0  0  0  0  0  0  0
   37.0050   25.7500   42.3750 N   0  0  0  0  0  0  0  0  0  0  0  0
   36.6510   27.1690   43.9010 H   0  0  0  0  0  0  0  0  0  0  0  0
   37.0640   29.1370   42.4790 H   0  0  0  0  0  0  0  0  0  0  0  0
   37.4320   24.6010   40.5930 H   0  0  0  0  0  0  0  0  0  0  0  0
  1  7  1  6  0  0  0
  2 13  1  6  0  0  0
  2  1  1  0  0  0  0
  3  2  1  0  0  0  0
  3  4  1  0  0  0  0
  5  4  1  0  0  0  0
  5  9  1  1  0  0  0
  6 11  1  1  0  0  0
  6  5  1  0  0  0  0
  6  1  1  0  0  0  0
  7  8  1  0  0  0  0
  9 10  1  0  0  0  0
 11 12  1  0  0  0  0
 13 16  1  0  0  0  0
 14 20  1  0  0  0  0
 15 21  1  0  0  0  0
 15 14  2  0  0  0  0
 16 15  1  0  0  0  0
 17 16  2  0  0  0  0
 17 18  1  0  0  0  0
 18 19  2  0  0  0  0
 19 14  1  0  0  0  0
 22 18  1  0  0  0  0
M  END
>  <minimizedAffinity>
-5.07010221

$$$$

 OpenBabel03242511173D

 22 23  0  0  1  0  0  0  0  0999 V2000
   39.0480   32.6360   40.2440 C   0  0  1  0  0  3  0  0  0  0  0  0
   39.5220   31.2300   40.5690 C   0  0  2  0  0  3  0  0  0  0  0  0
   38.5780   30.2640   40.2040 O   0  0  0  0  0  0  0  0  0  0  0  0
   38.1810   30.4360   38.8790 C   0  0  0  0  0  2  0  0  0  0  0  0
   37.3220   31.6850   38.8030 C   0  0  1  0  0  3  0  0  0  0  0  0
   37.5320   32.5190   40.0430 C   0  0  2  0  0  3  0  0  0  0  0  0
   39.3180   33.5290   41.2760 O   0  0  0  0  0  0  0  0  0  0  0  0
   39.8720   34.2680   40.8940 H   0  0  0  0  0  0  0  0  0  0  0  0
   37.7000   32.4250   37.6870 O   0  0  0  0  0  0  0  0  0  0  0  0
   38.5920   32.1120   37.3440 H   0  0  0  0  0  0  0  0  0  0  0  0
   36.9190   33.7480   39.9340 O   0  0  0  0  0  0  0  0  0  0  0  0
   37.4700   34.3990   39.4490 H   0  0  0  0  0  0  0  0  0  0  0  0
   39.8290   31.0230   42.3570 S   0  0  0  0  0  0  0  0  0  0  0  0
   39.4990   27.0550   43.1570 C   0  0  0  0  0  0  0  0  0  0  0  0
   40.0550   28.2920   42.7700 C   0  0  0  0  0  0  0  0  0  0  0  0
   39.2180   29.4160   42.8250 C   0  0  0  0  0  0  0  0  0  0  0  0
   37.9310   29.2520   43.2420 N   0  0  0  0  0  0  0  0  0  0  0  0
   37.4310   28.0510   43.6050 C   0  0  0  0  0  0  0  0  0  0  0  0
   38.2170   26.9520   43.5610 N   0  0  0  0  0  0  0  0  0  0  0  0
   40.1390   26.1960   43.1150 H   0  0  0  0  0  0  0  0  0  0  0  0
   41.0860   28.3690   42.4460 H   0  0  0  0  0  0  0  0  0  0  0  0
   36.3940   28.0620   43.9150 H   0  0  0  0  0  0  0  0  0  0  0  0
  1  2  1  0  0  0  0
  1  7  1  1  0  0  0
  2 13  1  1  0  0  0
  3  2  1  0  0  0  0
  4  3  1  0  0  0  0
  5  9  1  6  0  0  0
  5  4  1  0  0  0  0
  5  6  1  0  0  0  0
  6 11  1  6  0  0  0
  6  1  1  0  0  0  0
  8  7  1  0  0  0  0
 10  9  1  0  0  0  0
 12 11  1  0  0  0  0
 13 16  1  0  0  0  0
 14 19  1  0  0  0  0
 15 16  1  0  0  0  0
 15 14  2  0  0  0  0
 16 17  2  0  0  0  0
 17 18  1  0  0  0  0
 18 22  1  0  0  0  0
 19 18  2  0  0  0  0
 20 14  1  0  0  0  0
 21 15  1  0  0  0  0
M  END
>  <minimizedAffinity>
-5.06201601

$$$$

 OpenBabel03242511173D

 22 23  0  0  1  0  0  0  0  0999 V2000
   37.3940   31.7950   40.7700 C   0  0  1  0  0  3  0  0  0  0  0  0
   38.4260   30.6910   40.6070 C   0  0  2  0  0  3  0  0  0  0  0  0
   39.5950   31.1570   39.9970 O   0  0  0  0  0  0  0  0  0  0  0  0
   40.0760   32.2900   40.6500 C   0  0  0  0  0  2  0  0  0  0  0  0
   39.1410   33.4450   40.3410 C   0  0  1  0  0  3  0  0  0  0  0  0
   37.8340   32.9080   39.8120 C   0  0  2  0  0  3  0  0  0  0  0  0
   36.1130   31.3650   40.4360 O   0  0  0  0  0  0  0  0  0  0  0  0
   35.5300   31.5170   41.2330 H   0  0  0  0  0  0  0  0  0  0  0  0
   38.9000   34.1570   41.5110 O   0  0  0  0  0  0  0  0  0  0  0  0
   39.1790   33.6170   42.3130 H   0  0  0  0  0  0  0  0  0  0  0  0
   36.8890   33.9050   39.6940 O   0  0  0  0  0  0  0  0  0  0  0  0
   36.4290   34.0840   40.5420 H   0  0  0  0  0  0  0  0  0  0  0  0
   37.7910   29.3290   39.5690 S   0  0  0  0  0  0  0  0  0  0  0  0
   37.2140   25.5770   41.0120 C   0  0  0  0  0  0  0  0  0  0  0  0
   37.4440   26.6320   40.1050 C   0  0  0  0  0  0  0  0  0  0  0  0
   37.5050   27.9300   40.6340 C   0  0  0  0  0  0  0  0  0  0  0  0
   37.3400   28.0960   41.9760 N   0  0  0  0  0  0  0  0  0  0  0  0
   37.1210   27.0610   42.8160 C   0  0  0  0  0  0  0  0  0  0  0  0
   37.0580   25.8010   42.3320 N   0  0  0  0  0  0  0  0  0  0  0  0
   37.1680   24.5850   40.6070 H   0  0  0  0  0  0  0  0  0  0  0  0
   37.5680   26.4470   39.0440 H   0  0  0  0  0  0  0  0  0  0  0  0
   37.0080   27.3330   43.8580 H   0  0  0  0  0  0  0  0  0  0  0  0
  1  7  1  6  0  0  0
  2 13  1  6  0  0  0
  2  1  1  0  0  0  0
  3  2  1  0  0  0  0
  3  4  1  0  0  0  0
  5  4  1  0  0  0  0
  5  9  1  1  0  0  0
  6 11  1  1  0  0  0
  6  5  1  0  0  0  0
  6  1  1  0  0  0  0
  7  8  1  0  0  0  0
  9 10  1  0  0  0  0
 11 12  1  0  0  0  0
 13 16  1  0  0  0  0
 14 19  1  0  0  0  0
 15 16  1  0  0  0  0
 15 14  2  0  0  0  0
 16 17  2  0  0  0  0
 17 18  1  0  0  0  0
 18 22  1  0  0  0  0
 19 18  2  0  0  0  0
 20 14  1  0  0  0  0
 21 15  1  0  0  0  0
M  END
>  <minimizedAffinity>
-4.9954834

$$$$

 OpenBabel03242511173D

 22 23  0  0  1  0  0  0  0  0999 V2000
   36.1900   29.8650   40.9500 C   0  0  1  0  0  3  0  0  0  0  0  0
   36.8220   30.0560   39.5810 C   0  0  2  0  0  3  0  0  0  0  0  0
   38.0740   29.4410   39.4940 O   0  0  0  0  0  0  0  0  0  0  0  0
   38.0010   28.1100   39.9030 C   0  0  0  0  0  2  0  0  0  0  0  0
   37.8030   28.0900   41.4080 C   0  0  1  0  0  3  0  0  0  0  0  0
   37.3410   29.4490   41.8740 C   0  0  2  0  0  3  0  0  0  0  0  0
   35.6060   31.0360   41.4230 O   0  0  0  0  0  0  0  0  0  0  0  0
   34.6450   30.8360   41.6090 H   0  0  0  0  0  0  0  0  0  0  0  0
   36.8300   27.1470   41.7230 O   0  0  0  0  0  0  0  0  0  0  0  0
   36.3150   26.8870   40.8990 H   0  0  0  0  0  0  0  0  0  0  0  0
   36.9680   29.4280   43.2010 O   0  0  0  0  0  0  0  0  0  0  0  0
   36.0470   29.1140   43.3250 H   0  0  0  0  0  0  0  0  0  0  0  0
   37.0710   31.8250   39.1990 S   0  0  0  0  0  0  0  0  0  0  0  0
   40.6950   32.7020   40.8100 C   0  0  0  0  0  0  0  0  0  0  0  0
   39.3160   32.4250   40.7100 C   0  0  0  0  0  0  0  0  0  0  0  0
   38.8010   32.1840   39.4270 C   0  0  0  0  0  0  0  0  0  0  0  0
   39.6510   32.2330   38.3630 N   0  0  0  0  0  0  0  0  0  0  0  0
   40.9690   32.5020   38.4960 C   0  0  0  0  0  0  0  0  0  0  0  0
   41.4890   32.7370   39.7210 N   0  0  0  0  0  0  0  0  0  0  0  0
   41.0880   32.8860   41.7900 H   0  0  0  0  0  0  0  0  0  0  0  0
   38.6810   32.3990   41.5880 H   0  0  0  0  0  0  0  0  0  0  0  0
   41.5290   32.5090   37.5700 H   0  0  0  0  0  0  0  0  0  0  0  0
  1  7  1  1  0  0  0
  1  6  1  0  0  0  0
  2 13  1  1  0  0  0
  2  1  1  0  0  0  0
  3  2  1  0  0  0  0
  3  4  1  0  0  0  0
  4  5  1  0  0  0  0
  5  9  1  6  0  0  0
  5  6  1  0  0  0  0
  6 11  1  1  0  0  0
  7  8  1  0  0  0  0
 10  9  1  0  0  0  0
 11 12  1  0  0  0  0
 13 16  1  0  0  0  0
 14 20  1  0  0  0  0
 15 14  1  0  0  0  0
 15 21  1  0  0  0  0
 16 15  2  0  0  0  0
 17 18  2  0  0  0  0
 17 16  1  0  0  0  0
 18 19  1  0  0  0  0
 19 14  2  0  0  0  0
 22 18  1  0  0  0  0
M  END
>  <minimizedAffinity>
-4.84677124

$$$$

 OpenBabel03242511173D

 22 23  0  0  1  0  0  0  0  0999 V2000
   36.9770   30.9360   41.2010 C   0  0  1  0  0  3  0  0  0  0  0  0
   37.5700   29.5990   40.7910 C   0  0  2  0  0  3  0  0  0  0  0  0
   38.6380   29.7530   39.9020 O   0  0  0  0  0  0  0  0  0  0  0  0
   39.5730   30.6580   40.4030 C   0  0  0  0  0  2  0  0  0  0  0  0
   38.9690   32.0480   40.3300 C   0  0  1  0  0  3  0  0  0  0  0  0
   37.4740   31.9390   40.1530 C   0  0  2  0  0  3  0  0  0  0  0  0
   35.5860   30.9100   41.2050 O   0  0  0  0  0  0  0  0  0  0  0  0
   35.2850   31.1690   42.1220 H   0  0  0  0  0  0  0  0  0  0  0  0
   39.2390   32.7200   41.5180 O   0  0  0  0  0  0  0  0  0  0  0  0
   39.5350   32.0720   42.2280 H   0  0  0  0  0  0  0  0  0  0  0  0
   36.8620   33.1690   40.2700 O   0  0  0  0  0  0  0  0  0  0  0  0
   36.6950   33.4160   41.2050 H   0  0  0  0  0  0  0  0  0  0  0  0
   36.3340   28.5440   39.9580 S   0  0  0  0  0  0  0  0  0  0  0  0
   36.5190   29.6150   36.0450 C   0  0  0  0  0  0  0  0  0  0  0  0
   36.2050   29.6480   37.4200 C   0  0  0  0  0  0  0  0  0  0  0  0
   36.6770   28.5900   38.2110 C   0  0  0  0  0  0  0  0  0  0  0  0
   37.4010   27.6020   37.6150 N   0  0  0  0  0  0  0  0  0  0  0  0
   37.6820   27.6020   36.2930 C   0  0  0  0  0  0  0  0  0  0  0  0
   37.2400   28.6100   35.5090 N   0  0  0  0  0  0  0  0  0  0  0  0
   36.1580   30.4240   35.4410 H   0  0  0  0  0  0  0  0  0  0  0  0
   35.6250   30.4580   37.8460 H   0  0  0  0  0  0  0  0  0  0  0  0
   38.2660   26.7570   35.9500 H   0  0  0  0  0  0  0  0  0  0  0  0
  1  7  1  6  0  0  0
  2 13  1  6  0  0  0
  2  1  1  0  0  0  0
  3  4  1  0  0  0  0
  3  2  1  0  0  0  0
  5  4  1  0  0  0  0
  5  9  1  1  0  0  0
  6 11  1  1  0  0  0
  6  5  1  0  0  0  0
  6  1  1  0  0  0  0
  7  8  1  0  0  0  0
  9 10  1  0  0  0  0
 11 12  1  0  0  0  0
 14 15  1  0  0  0  0
 15 21  1  0  0  0  0
 15 16  2  0  0  0  0
 16 13  1  0  0  0  0
 17 16  1  0  0  0  0
 18 17  2  0  0  0  0
 19 14  2  0  0  0  0
 19 18  1  0  0  0  0
 20 14  1  0  0  0  0
 22 18  1  0  0  0  0
M  END
>  <minimizedAffinity>
-4.73345184

$$$$

 OpenBabel03242511173D

 22 23  0  0  1  0  0  0  0  0999 V2000
   37.2540   31.2140   38.2180 C   0  0  1  0  0  3  0  0  0  0  0  0
   37.3110   31.8620   39.5920 C   0  0  2  0  0  3  0  0  0  0  0  0
   38.6260   32.0000   40.0490 O   0  0  0  0  0  0  0  0  0  0  0  0
   39.4190   32.6300   39.0910 C   0  0  0  0  0  2  0  0  0  0  0  0
   39.6400   31.6560   37.9480 C   0  0  1  0  0  3  0  0  0  0  0  0
   38.6210   30.5460   38.0270 C   0  0  2  0  0  3  0  0  0  0  0  0
   36.2470   30.2580   38.1340 O   0  0  0  0  0  0  0  0  0  0  0  0
   35.6480   30.5210   37.3790 H   0  0  0  0  0  0  0  0  0  0  0  0
   39.4830   32.3330   36.7430 O   0  0  0  0  0  0  0  0  0  0  0  0
   39.0240   33.2150   36.8930 H   0  0  0  0  0  0  0  0  0  0  0  0
   38.6620   29.7430   36.9070 O   0  0  0  0  0  0  0  0  0  0  0  0
   38.1440   30.1150   36.1620 H   0  0  0  0  0  0  0  0  0  0  0  0
   36.4160   30.8720   40.8380 S   0  0  0  0  0  0  0  0  0  0  0  0
   39.0250   28.5190   42.8750 C   0  0  0  0  0  0  0  0  0  0  0  0
   38.1960   29.6120   42.5470 C   0  0  0  0  0  0  0  0  0  0  0  0
   37.4890   29.5410   41.3380 C   0  0  0  0  0  0  0  0  0  0  0  0
   37.6410   28.4350   40.5570 N   0  0  0  0  0  0  0  0  0  0  0  0
   38.4440   27.4050   40.9030 C   0  0  0  0  0  0  0  0  0  0  0  0
   39.1370   27.4490   42.0620 N   0  0  0  0  0  0  0  0  0  0  0  0
   39.5660   28.5740   43.7990 H   0  0  0  0  0  0  0  0  0  0  0  0
   38.1110   30.4700   43.2040 H   0  0  0  0  0  0  0  0  0  0  0  0
   38.4730   26.5890   40.1910 H   0  0  0  0  0  0  0  0  0  0  0  0
  1  7  1  1  0  0  0
  1  2  1  0  0  0  0
  2  3  1  0  0  0  0
  2 13  1  1  0  0  0
  4  3  1  0  0  0  0
  5  9  1  6  0  0  0
  5  6  1  0  0  0  0
  5  4  1  0  0  0  0
  6 11  1  6  0  0  0
  6  1  1  0  0  0  0
  8  7  1  0  0  0  0
  9 10  1  0  0  0  0
 12 11  1  0  0  0  0
 13 16  1  0  0  0  0
 14 20  1  0  0  0  0
 15 14  1  0  0  0  0
 15 21  1  0  0  0  0
 16 15  2  0  0  0  0
 17 18  2  0  0  0  0
 17 16  1  0  0  0  0
 18 19  1  0  0  0  0
 19 14  2  0  0  0  0
 22 18  1  0  0  0  0
M  END
>  <minimizedAffinity>
-4.68495703

$$$$

 OpenBabel03242511173D

 22 23  0  0  1  0  0  0  0  0999 V2000
   37.7440   29.5110   42.4350 C   0  0  1  0  0  3  0  0  0  0  0  0
   38.9610   28.6150   42.2780 C   0  0  2  0  0  3  0  0  0  0  0  0
   39.0640   28.0990   40.9820 O   0  0  0  0  0  0  0  0  0  0  0  0
   38.9860   29.1190   40.0350 C   0  0  0  0  0  2  0  0  0  0  0  0
   37.5540   29.6220   40.0030 C   0  0  1  0  0  3  0  0  0  0  0  0
   36.8330   29.1710   41.2490 C   0  0  2  0  0  3  0  0  0  0  0  0
   37.0710   29.2720   43.6290 O   0  0  0  0  0  0  0  0  0  0  0  0
   37.0330   30.1370   44.1280 H   0  0  0  0  0  0  0  0  0  0  0  0
   37.5660   31.0130   39.9630 O   0  0  0  0  0  0  0  0  0  0  0  0
   38.4740   31.3630   40.2150 H   0  0  0  0  0  0  0  0  0  0  0  0
   35.5910   29.7590   41.3540 O   0  0  0  0  0  0  0  0  0  0  0  0
   35.6350   30.6560   41.7500 H   0  0  0  0  0  0  0  0  0  0  0  0
   38.8940   27.1870   43.4150 S   0  0  0  0  0  0  0  0  0  0  0  0
   36.7060   24.3760   41.4640 C   0  0  0  0  0  0  0  0  0  0  0  0
   37.0280   25.5190   42.2250 C   0  0  0  0  0  0  0  0  0  0  0  0
   38.3870   25.7680   42.4650 C   0  0  0  0  0  0  0  0  0  0  0  0
   39.3090   24.9020   41.9580 N   0  0  0  0  0  0  0  0  0  0  0  0
   38.9640   23.8140   41.2330 C   0  0  0  0  0  0  0  0  0  0  0  0
   37.6610   23.5530   40.9880 N   0  0  0  0  0  0  0  0  0  0  0  0
   35.6670   24.1860   41.2810 H   0  0  0  0  0  0  0  0  0  0  0  0
   36.2560   26.1780   42.6070 H   0  0  0  0  0  0  0  0  0  0  0  0
   39.7950   23.2110   40.8920 H   0  0  0  0  0  0  0  0  0  0  0  0
  1  7  1  1  0  0  0
  2  1  1  0  0  0  0
  2 13  1  1  0  0  0
  3  2  1  0  0  0  0
  4  3  1  0  0  0  0
  5  9  1  1  0  0  0
  5  4  1  0  0  0  0
  5  6  1  0  0  0  0
  6 11  1  1  0  0  0
  6  1  1  0  0  0  0
  7  8  1  0  0  0  0
  9 10  1  0  0  0  0
 11 12  1  0  0  0  0
 14 15  1  0  0  0  0
 15 16  2  0  0  0  0
 15 21  1  0  0  0  0
 16 13  1  0  0  0  0
 17 16  1  0  0  0  0
 18 17  2  0  0  0  0
 19 18  1  0  0  0  0
 19 14  2  0  0  0  0
 20 14  1  0  0  0  0
 22 18  1  0  0  0  0
M  END
>  <minimizedAffinity>
-4.6774292

$$$$

 OpenBabel03242511173D

 22 23  0  0  1  0  0  0  0  0999 V2000
   37.2760   31.3730   38.8360 C   0  0  1  0  0  3  0  0  0  0  0  0
   38.2240   30.1850   38.8110 C   0  0  2  0  0  3  0  0  0  0  0  0
   38.6350   29.8190   40.0970 O   0  0  0  0  0  0  0  0  0  0  0  0
   37.5360   29.6490   40.9370 C   0  0  0  0  0  2  0  0  0  0  0  0
   36.9500   31.0180   41.2290 C   0  0  1  0  0  3  0  0  0  0  0  0
   37.4630   32.0130   40.2160 C   0  0  2  0  0  3  0  0  0  0  0  0
   37.5760   32.3000   37.8430 O   0  0  0  0  0  0  0  0  0  0  0  0
   36.7550   32.4140   37.2840 H   0  0  0  0  0  0  0  0  0  0  0  0
   35.5640   30.9460   41.1350 O   0  0  0  0  0  0  0  0  0  0  0  0
   35.2890   30.1030   40.6600 H   0  0  0  0  0  0  0  0  0  0  0  0
   36.8150   33.2240   40.3260 O   0  0  0  0  0  0  0  0  0  0  0  0
   35.9590   33.2340   39.8470 H   0  0  0  0  0  0  0  0  0  0  0  0
   39.7360   30.5550   37.8560 S   0  0  0  0  0  0  0  0  0  0  0  0
   42.4730   32.1570   40.3930 C   0  0  0  0  0  0  0  0  0  0  0  0
   41.7380   31.2020   39.6600 C   0  0  0  0  0  0  0  0  0  0  0  0
   40.7200   31.6830   38.8220 C   0  0  0  0  0  0  0  0  0  0  0  0
   40.5010   33.0260   38.7640 N   0  0  0  0  0  0  0  0  0  0  0  0
   41.2260   33.9130   39.4820 C   0  0  0  0  0  0  0  0  0  0  0  0
   42.2120   33.4760   40.2960 N   0  0  0  0  0  0  0  0  0  0  0  0
   43.2510   31.7900   41.0330 H   0  0  0  0  0  0  0  0  0  0  0  0
   41.9510   30.1430   39.7420 H   0  0  0  0  0  0  0  0  0  0  0  0
   40.9480   34.9490   39.3420 H   0  0  0  0  0  0  0  0  0  0  0  0
  1  7  1  6  0  0  0
  1  6  1  0  0  0  0
  2 13  1  6  0  0  0
  2  1  1  0  0  0  0
  2  3  1  0  0  0  0
  3  4  1  0  0  0  0
  4  5  1  0  0  0  0
  5  9  1  6  0  0  0
  6 11  1  6  0  0  0
  6  5  1  0  0  0  0
  8  7  1  0  0  0  0
 10  9  1  0  0  0  0
 12 11  1  0  0  0  0
 13 16  1  0  0  0  0
 14 20  1  0  0  0  0
 15 21  1  0  0  0  0
 15 14  2  0  0  0  0
 16 15  1  0  0  0  0
 17 16  2  0  0  0  0
 17 18  1  0  0  0  0
 18 19  2  0  0  0  0
 19 14  1  0  0  0  0
 22 18  1  0  0  0  0
M  END
>  <minimizedAffinity>
-4.62698793

$$$$

 OpenBabel03242511173D

 22 23  0  0  1  0  0  0  0  0999 V2000
   36.0930   29.0110   41.3470 C   0  0  1  0  0  3  0  0  0  0  0  0
   36.5510   28.5500   39.9720 C   0  0  2  0  0  3  0  0  0  0  0  0
   37.7060   27.7660   40.0430 O   0  0  0  0  0  0  0  0  0  0  0  0
   37.5450   26.7310   40.9630 C   0  0  0  0  0  2  0  0  0  0  0  0
   37.5520   27.3330   42.3560 C   0  0  1  0  0  3  0  0  0  0  0  0
   37.3060   28.8200   42.2640 C   0  0  2  0  0  3  0  0  0  0  0  0
   35.7080   30.3480   41.3470 O   0  0  0  0  0  0  0  0  0  0  0  0
   34.7650   30.3860   41.6760 H   0  0  0  0  0  0  0  0  0  0  0  0
   36.5350   26.7500   43.1050 O   0  0  0  0  0  0  0  0  0  0  0  0
   35.8870   26.2700   42.5030 H   0  0  0  0  0  0  0  0  0  0  0  0
   37.1170   29.3780   43.5100 O   0  0  0  0  0  0  0  0  0  0  0  0
   36.1930   29.2830   43.8250 H   0  0  0  0  0  0  0  0  0  0  0  0
   36.9360   29.9660   38.8850 S   0  0  0  0  0  0  0  0  0  0  0  0
   34.3540   28.8500   35.9560 C   0  0  0  0  0  0  0  0  0  0  0  0
   34.8980   29.0600   37.2400 C   0  0  0  0  0  0  0  0  0  0  0  0
   36.1650   29.6590   37.3090 C   0  0  0  0  0  0  0  0  0  0  0  0
   36.7910   29.9970   36.1470 N   0  0  0  0  0  0  0  0  0  0  0  0
   36.2390   29.7800   34.9330 C   0  0  0  0  0  0  0  0  0  0  0  0
   35.0200   29.2060   34.8390 N   0  0  0  0  0  0  0  0  0  0  0  0
   33.3860   28.3920   35.9040 H   0  0  0  0  0  0  0  0  0  0  0  0
   34.3590   28.7710   38.1350 H   0  0  0  0  0  0  0  0  0  0  0  0
   36.8440   30.0970   34.0930 H   0  0  0  0  0  0  0  0  0  0  0  0
  1  7  1  6  0  0  0
  1  6  1  0  0  0  0
  2 13  1  6  0  0  0
  2  3  1  0  0  0  0
  2  1  1  0  0  0  0
  3  4  1  0  0  0  0
  4  5  1  0  0  0  0
  5  9  1  1  0  0  0
  6  5  1  0  0  0  0
  6 11  1  1  0  0  0
  7  8  1  0  0  0  0
 10  9  1  0  0  0  0
 11 12  1  0  0  0  0
 14 15  1  0  0  0  0
 15 16  2  0  0  0  0
 15 21  1  0  0  0  0
 16 13  1  0  0  0  0
 17 16  1  0  0  0  0
 18 17  2  0  0  0  0
 19 18  1  0  0  0  0
 19 14  2  0  0  0  0
 20 14  1  0  0  0  0
 22 18  1  0  0  0  0
M  END
>  <minimizedAffinity>
-4.57510948

$$$$
