
 OpenBabel03252505433D

 45 48  0  0  1  0  0  0  0  0999 V2000
   42.6670   34.8210   40.2960 C   0  0  0  0  0  0  0  0  0  0  0  0
   42.5140   35.1090   38.9610 C   0  0  0  0  0  0  0  0  0  0  0  0
   41.3180   34.9930   38.3020 C   0  0  0  0  0  0  0  0  0  0  0  0
   40.2440   34.5720   39.0150 N   0  0  0  0  0  0  0  0  0  0  0  0
   40.3790   34.2800   40.3420 C   0  0  0  0  0  0  0  0  0  0  0  0
   41.5630   34.4000   40.9790 N   0  0  0  0  0  0  0  0  0  0  0  0
   43.3620   35.4400   38.4000 H   0  0  0  0  0  0  0  0  0  0  0  0
   41.2030   35.2230   37.2440 H   0  0  0  0  0  0  0  0  0  0  0  0
   43.9750   34.6510   42.3900 C   0  0  1  0  0  0  0  0  0  0  0  0
   44.1880   36.1300   41.9190 C   0  0  0  0  0  0  0  0  0  0  0  0
   44.0080   34.9370   40.9860 C   0  0  2  0  0  0  0  0  0  0  0  0
   42.9950   34.5550   42.9320 H   0  0  0  0  0  0  0  0  0  0  0  0
   45.2080   36.5360   42.0380 H   0  0  0  0  0  0  0  0  0  0  0  0
   43.3230   36.8040   41.9650 H   0  0  0  0  0  0  0  0  0  0  0  0
   44.8250   34.8060   40.2800 H   0  0  0  0  0  0  0  0  0  0  0  0
   45.1160   34.1020   43.1530 C   0  0  0  0  0  0  0  0  0  0  0  0
   46.3590   34.0110   42.4910 C   0  0  0  0  0  0  0  0  0  0  0  0
   47.4470   33.5010   43.1860 C   0  0  0  0  0  0  0  0  0  0  0  0
   47.2550   33.1160   44.4740 N   0  0  0  0  0  0  0  0  0  0  0  0
   46.0650   33.2170   45.0680 C   0  0  0  0  0  0  0  0  0  0  0  0
   45.0240   33.7080   44.3890 N   0  0  0  0  0  0  0  0  0  0  0  0
   46.4540   34.3370   41.4540 H   0  0  0  0  0  0  0  0  0  0  0  0
   48.4350   33.4120   42.7080 H   0  0  0  0  0  0  0  0  0  0  0  0
   46.0610   32.7410   46.4950 C   0  0  0  0  0  0  0  0  0  0  0  0
   45.0920   33.3950   47.2430 F   0  0  0  0  0  0  0  0  0  0  0  0
   47.2980   33.0840   47.0890 F   0  0  0  0  0  0  0  0  0  0  0  0
   45.9670   31.3770   46.5310 F   0  0  0  0  0  0  0  0  0  0  0  0
   39.2320   33.8140   41.1440 C   0  0  0  0  0  0  0  0  0  0  0  0
   38.4760   34.6480   41.1110 H   0  0  0  0  0  0  0  0  0  0  0  0
   39.5100   33.6260   42.1790 H   0  0  0  0  0  0  0  0  0  0  0  0
   38.5610   32.6230   40.5220 C   0  0  0  0  0  0  0  0  0  0  0  0
   37.4660   32.6710   40.6020 H   0  0  0  0  0  0  0  0  0  0  0  0
   38.8780   32.5790   39.4420 H   0  0  0  0  0  0  0  0  0  0  0  0
   37.9050   30.3010   41.1470 C   0  0  1  0  0  3  0  0  0  0  0  0
   39.0040   31.3440   41.1490 C   0  0  1  0  0  3  0  0  0  0  0  0
   40.1830   30.8190   40.7040 O   0  0  0  0  0  0  0  0  0  0  0  0
   40.1920   29.4310   40.6340 C   0  0  0  0  0  2  0  0  0  0  0  0
   39.6510   28.7630   41.8540 C   0  0  2  0  0  3  0  0  0  0  0  0
   38.2790   29.2650   42.1870 C   0  0  2  0  0  3  0  0  0  0  0  0
   36.6740   30.8990   41.4090 O   0  0  0  0  0  0  0  0  0  0  0  0
   36.0410   30.5520   40.7230 H   0  0  0  0  0  0  0  0  0  0  0  0
   40.5400   28.7810   42.9240 O   0  0  0  0  0  0  0  0  0  0  0  0
   40.2160   29.3090   43.6990 H   0  0  0  0  0  0  0  0  0  0  0  0
   37.3180   28.2630   42.2850 O   0  0  0  0  0  0  0  0  0  0  0  0
   36.6130   28.5860   42.9260 H   0  0  0  0  0  0  0  0  0  0  0  0
  1  6  1  0  0  0  0
  1 11  1  0  0  0  0
  2  1  2  0  0  0  0
  3  2  1  0  0  0  0
  3  4  2  0  0  0  0
  4  5  1  0  0  0  0
  5  6  2  0  0  0  0
  5 28  1  0  0  0  0
  7  2  1  0  0  0  0
  8  3  1  0  0  0  0
  9 12  1  1  0  0  0
  9 16  1  0  0  0  0
 10 14  1  0  0  0  0
 10 13  1  0  0  0  0
 10  9  1  0  0  0  0
 11 15  1  6  0  0  0
 11 10  1  0  0  0  0
 11  9  1  0  0  0  0
 16 21  1  0  0  0  0
 17 16  2  0  0  0  0
 17 18  1  0  0  0  0
 18 19  2  0  0  0  0
 19 20  1  0  0  0  0
 20 24  1  0  0  0  0
 21 20  2  0  0  0  0
 22 17  1  0  0  0  0
 23 18  1  0  0  0  0
 24 27  1  0  0  0  0
 24 26  1  0  0  0  0
 24 25  1  0  0  0  0
 28 30  1  0  0  0  0
 29 28  1  0  0  0  0
 31 32  1  0  0  0  0
 31 28  1  0  0  0  0
 33 31  1  0  0  0  0
 34 35  1  0  0  0  0
 34 40  1  1  0  0  0
 34 39  1  0  0  0  0
 35 31  1  6  0  0  0
 36 35  1  0  0  0  0
 37 36  1  0  0  0  0
 37 38  1  0  0  0  0
 38 39  1  0  0  0  0
 38 42  1  1  0  0  0
 39 44  1  6  0  0  0
 41 40  1  0  0  0  0
 42 43  1  0  0  0  0
 44 45  1  0  0  0  0
M  END
>  <minimizedAffinity>
-6.64322519

>  <minimizedRMSD>
1.84922588

$$$$
