
 OpenBabel03242517283D

 43 45  0  0  1  0  0  0  0  0999 V2000
   44.9930   34.7280   44.9910 C   0  0  0  0  0  0  0  0  0  0  0  0
   45.8700   34.6110   43.8800 C   0  0  0  0  0  0  0  0  0  0  0  0
   46.9330   33.7080   43.9600 C   0  0  0  0  0  0  0  0  0  0  0  0
   47.0820   32.9790   45.0970 N   0  0  0  0  0  0  0  0  0  0  0  0
   46.2360   33.1030   46.1470 C   0  0  0  0  0  0  0  0  0  0  0  0
   45.2120   33.9740   46.0690 N   0  0  0  0  0  0  0  0  0  0  0  0
   46.4520   32.3200   47.2840 N   0  0  0  0  0  0  0  0  0  0  0  0
   47.6930   32.3990   47.9930 C   0  0  0  0  0  0  0  0  0  0  0  0
   47.9350   31.2430   48.9170 C   0  0  0  0  0  0  0  0  0  0  0  0
   46.7800   30.6710   49.5270 N   0  0  0  0  0  0  0  0  0  0  0  0
   45.5650   31.3710   49.2280 C   0  0  0  0  0  0  0  0  0  0  0  0
   45.3910   31.4190   47.7390 C   0  0  2  0  0  0  0  0  0  0  0  0
   44.1570   35.3870   45.0250 H   0  0  0  0  0  0  0  0  0  0  0  0
   45.6560   35.2370   43.0320 H   0  0  0  0  0  0  0  0  0  0  0  0
   47.5910   33.6240   43.1170 H   0  0  0  0  0  0  0  0  0  0  0  0
   47.6930   33.3380   48.5840 H   0  0  0  0  0  0  0  0  0  0  0  0
   48.5800   32.4730   47.3020 H   0  0  0  0  0  0  0  0  0  0  0  0
   48.6280   31.5950   49.7220 H   0  0  0  0  0  0  0  0  0  0  0  0
   48.5340   30.4760   48.3490 H   0  0  0  0  0  0  0  0  0  0  0  0
   46.7250   29.6530   49.2970 H   0  0  0  0  0  0  0  0  0  0  0  0
   45.6710   32.3960   49.6230 H   0  0  0  0  0  0  0  0  0  0  0  0
   44.7340   30.8400   49.7100 H   0  0  0  0  0  0  0  0  0  0  0  0
   44.4320   31.9060   47.4740 H   0  0  0  0  0  0  0  0  0  0  0  0
   45.4630   30.0750   47.1010 C   0  0  0  0  0  0  0  0  0  0  0  0
   44.8510   30.0980   46.1720 H   0  0  0  0  0  0  0  0  0  0  0  0
   46.5210   29.8110   46.9070 H   0  0  0  0  0  0  0  0  0  0  0  0
   44.9510   29.0620   48.0820 C   0  0  0  0  0  0  0  0  0  0  0  0
   45.1020   27.7550   47.8840 C   0  0  0  0  0  0  0  0  0  0  0  0
   44.6120   26.7090   48.8280 C   0  0  0  0  0  0  0  0  0  0  0  0
   44.8550   26.9980   49.8650 H   0  0  0  0  0  0  0  0  0  0  0  0
   43.5150   26.6460   48.7320 H   0  0  0  0  0  0  0  0  0  0  0  0
   45.2220   24.4030   49.5840 C   0  0  1  0  0  0  0  0  0  0  0  0
   45.3220   25.4050   48.5000 C   0  0  2  0  0  0  0  0  0  0  0  0
   46.5790   25.6210   47.9670 O   0  0  0  0  0  0  0  0  0  0  0  0
   47.6000   25.4620   48.8900 C   0  0  0  0  0  0  0  0  0  0  0  0
   47.6770   23.9820   49.1620 C   0  0  1  0  0  0  0  0  0  0  0  0
   46.4350   23.5740   49.8660 C   0  0  1  0  0  0  0  0  0  0  0  0
   44.9070   25.0560   50.7800 O   0  0  0  0  0  0  0  0  0  0  0  0
   44.5620   24.3550   51.4110 H   0  0  0  0  0  0  0  0  0  0  0  0
   47.8290   23.3000   47.9600 O   0  0  0  0  0  0  0  0  0  0  0  0
   47.5110   22.3720   48.1130 H   0  0  0  0  0  0  0  0  0  0  0  0
   46.7180   23.4800   51.2380 O   0  0  0  0  0  0  0  0  0  0  0  0
   46.5810   24.3320   51.7090 H   0  0  0  0  0  0  0  0  0  0  0  0
  1 13  1  0  0  0  0
  1  6  1  0  0  0  0
  2  3  1  0  0  0  0
  2  1  2  0  0  0  0
  3  4  2  0  0  0  0
  4  5  1  0  0  0  0
  5  7  1  0  0  0  0
  6  5  2  0  0  0  0
  7 12  1  0  0  0  0
  7  8  1  0  0  0  0
  8 16  1  0  0  0  0
  8  9  1  0  0  0  0
  9 10  1  0  0  0  0
  9 18  1  0  0  0  0
 11 10  1  0  0  0  0
 11 21  1  0  0  0  0
 11 22  1  0  0  0  0
 12 23  1  6  0  0  0
 12 11  1  0  0  0  0
 14  2  1  0  0  0  0
 15  3  1  0  0  0  0
 17  8  1  0  0  0  0
 19  9  1  0  0  0  0
 20 10  1  0  0  0  0
 24 12  1  0  0  0  0
 24 27  1  0  0  0  0
 25 24  1  0  0  0  0
 26 24  1  0  0  0  0
 28 27  2  0  0  0  0
 28 29  1  0  0  0  0
 29 30  1  0  0  0  0
 31 29  1  0  0  0  0
 32 37  1  0  0  0  0
 32 38  1  1  0  0  0
 33 29  1  1  0  0  0
 33 32  1  0  0  0  0
 34 33  1  0  0  0  0
 34 35  1  0  0  0  0
 35 36  1  0  0  0  0
 36 40  1  6  0  0  0
 36 37  1  0  0  0  0
 37 42  1  1  0  0  0
 38 39  1  0  0  0  0
 40 41  1  0  0  0  0
 42 43  1  0  0  0  0
M  END
>  <minimizedAffinity>
-6.3504281

>  <minimizedRMSD>
2.04406953

$$$$
