
 OpenBabel03252509003D

 48 50  0  0  1  0  0  0  0  0999 V2000
   47.1950   33.8430   42.8520 N   0  0  0  0  0  0  0  0  0  0  0  0
   46.8580   35.1730   42.4930 C   0  0  0  0  0  0  0  0  0  0  0  0
   45.4480   35.5980   42.8430 C   0  0  0  0  0  0  0  0  0  0  0  0
   44.8980   34.9670   44.0880 C   0  0  0  0  0  0  0  0  0  0  0  0
   45.9320   34.1160   44.7850 C   0  0  0  0  0  0  0  0  0  0  0  0
   46.3660   33.0950   43.6730 C   0  0  2  0  0  0  0  0  0  0  0  0
   47.0160   35.4460   41.4470 H   0  0  0  0  0  0  0  0  0  0  0  0
   47.5380   35.8580   43.0800 H   0  0  0  0  0  0  0  0  0  0  0  0
   44.7890   35.4360   41.9550 H   0  0  0  0  0  0  0  0  0  0  0  0
   45.4300   36.7090   42.9850 H   0  0  0  0  0  0  0  0  0  0  0  0
   44.4360   35.7130   44.7790 H   0  0  0  0  0  0  0  0  0  0  0  0
   44.0780   34.2820   43.7860 H   0  0  0  0  0  0  0  0  0  0  0  0
   46.8020   34.6640   45.1500 H   0  0  0  0  0  0  0  0  0  0  0  0
   45.3980   33.5080   45.5290 H   0  0  0  0  0  0  0  0  0  0  0  0
   45.4200   32.6990   43.2630 H   0  0  0  0  0  0  0  0  0  0  0  0
   48.0130   33.1640   41.8900 C   0  0  0  0  0  0  0  0  0  0  0  0
   48.8510   33.8180   41.6220 H   0  0  0  0  0  0  0  0  0  0  0  0
   48.4240   32.2520   42.3930 H   0  0  0  0  0  0  0  0  0  0  0  0
   47.1500   32.7220   40.7490 C   0  0  0  0  0  0  0  0  0  0  0  0
   46.2050   33.3020   40.7240 H   0  0  0  0  0  0  0  0  0  0  0  0
   46.8660   31.6700   40.7910 H   0  0  0  0  0  0  0  0  0  0  0  0
   49.3230   32.3150   37.7110 C   0  0  0  0  0  0  0  0  0  0  0  0
   48.6580   32.0490   38.9230 C   0  0  0  0  0  0  0  0  0  0  0  0
   47.8470   33.0160   39.4680 C   0  0  0  0  0  0  0  0  0  0  0  0
   47.7330   34.1790   38.8070 N   0  0  0  0  0  0  0  0  0  0  0  0
   48.3730   34.4200   37.6520 C   0  0  0  0  0  0  0  0  0  0  0  0
   49.1680   33.5020   37.0950 N   0  0  0  0  0  0  0  0  0  0  0  0
   49.9330   31.5070   37.3580 H   0  0  0  0  0  0  0  0  0  0  0  0
   48.7730   31.0990   39.4290 H   0  0  0  0  0  0  0  0  0  0  0  0
   48.1790   35.4080   37.2380 H   0  0  0  0  0  0  0  0  0  0  0  0
   47.0830   32.1610   44.4130 O   0  0  0  0  0  0  0  0  0  0  0  0
   45.0700   30.5760   43.7120 O   0  0  0  0  0  0  0  0  0  0  0  0
   46.1990   30.7600   44.7170 P   0  0  2  0  0  0  0  0  0  0  0  0
   45.4210   31.0110   46.2210 O   0  0  0  0  0  0  0  0  0  0  0  0
   44.5450   31.4510   46.0740 H   0  0  0  0  0  0  0  0  0  0  0  0
   47.1500   29.4030   44.8610 O   0  0  0  0  0  0  0  0  0  0  0  0
   48.8540   28.1550   43.8470 C   0  0  2  0  0  3  0  0  0  0  0  0
   47.4760   28.7920   43.6670 C   0  0  2  0  0  3  0  0  0  0  0  0
   47.5060   29.7680   42.6720 O   0  0  0  0  0  0  0  0  0  0  0  0
   48.1260   29.2950   41.5180 C   0  0  0  0  0  2  0  0  0  0  0  0
   49.6030   29.0530   41.7110 C   0  0  1  0  0  3  0  0  0  0  0  0
   49.8700   29.0740   43.2110 C   0  0  1  0  0  3  0  0  0  0  0  0
   48.8270   26.8970   43.2230 O   0  0  0  0  0  0  0  0  0  0  0  0
   47.8960   26.6690   42.9160 H   0  0  0  0  0  0  0  0  0  0  0  0
   49.9760   27.7940   41.2070 O   0  0  0  0  0  0  0  0  0  0  0  0
   50.8340   27.5850   41.6610 H   0  0  0  0  0  0  0  0  0  0  0  0
   49.5710   30.3820   43.6200 O   0  0  0  0  0  0  0  0  0  0  0  0
   50.2560   30.7410   44.2390 H   0  0  0  0  0  0  0  0  0  0  0  0
  1  6  1  0  0  0  0
  2  3  1  0  0  0  0
  2  1  1  0  0  0  0
  2  8  1  0  0  0  0
  3 10  1  0  0  0  0
  3  4  1  0  0  0  0
  4 11  1  0  0  0  0
  4  5  1  0  0  0  0
  5 13  1  0  0  0  0
  5 14  1  0  0  0  0
  6 15  1  6  0  0  0
  6 31  1  0  0  0  0
  6  5  1  0  0  0  0
  7  2  1  0  0  0  0
  9  3  1  0  0  0  0
 12  4  1  0  0  0  0
 16 18  1  0  0  0  0
 16  1  1  0  0  0  0
 17 16  1  0  0  0  0
 19 21  1  0  0  0  0
 19 16  1  0  0  0  0
 20 19  1  0  0  0  0
 22 23  1  0  0  0  0
 23 29  1  0  0  0  0
 23 24  2  0  0  0  0
 24 19  1  0  0  0  0
 25 24  1  0  0  0  0
 26 25  2  0  0  0  0
 27 26  1  0  0  0  0
 27 22  2  0  0  0  0
 28 22  1  0  0  0  0
 30 26  1  0  0  0  0
 31 33  1  0  0  0  0
 33 32  2  6  0  0  0
 33 36  1  0  0  0  0
 33 34  1  0  0  0  0
 35 34  1  0  0  0  0
 37 43  1  6  0  0  0
 38 37  1  0  0  0  0
 38 36  1  1  0  0  0
 39 38  1  0  0  0  0
 40 41  1  0  0  0  0
 40 39  1  0  0  0  0
 41 45  1  1  0  0  0
 41 42  1  0  0  0  0
 42 47  1  1  0  0  0
 42 37  1  0  0  0  0
 44 43  1  0  0  0  0
 45 46  1  0  0  0  0
 47 48  1  0  0  0  0
M  END
>  <minimizedAffinity>
-3.74192762

>  <minimizedRMSD>
1.33820081

$$$$
