
 OpenBabel03242523493D

 29 31  0  0  1  0  0  0  0  0999 V2000
   37.2560   29.5600   41.5900 C   0  0  0  0  0  0  0  0  0  0  0  0
   36.8830   28.3170   41.0580 C   0  0  0  0  0  0  0  0  0  0  0  0
   37.3390   27.1570   41.6890 C   0  0  0  0  0  0  0  0  0  0  0  0
   38.1350   27.2700   42.8080 N   0  0  0  0  0  0  0  0  0  0  0  0
   38.4650   28.4800   43.2810 C   0  0  0  0  0  0  0  0  0  0  0  0
   38.0330   29.6140   42.6830 N   0  0  0  0  0  0  0  0  0  0  0  0
   36.2770   28.1090   40.2080 H   0  0  0  0  0  0  0  0  0  0  0  0
   39.0920   28.5450   44.1630 H   0  0  0  0  0  0  0  0  0  0  0  0
   36.9510   25.8050   41.1680 C   0  0  0  0  0  0  0  0  0  0  0  0
   38.0140   24.7600   41.0360 C   0  0  0  0  0  0  0  0  0  0  0  0
   36.9070   24.6800   42.0870 C   0  0  0  0  0  0  0  0  0  0  0  0
   36.2850   25.9000   40.2890 H   0  0  0  0  0  0  0  0  0  0  0  0
   37.8690   24.0080   40.2400 H   0  0  0  0  0  0  0  0  0  0  0  0
   39.0460   24.9460   41.3410 H   0  0  0  0  0  0  0  0  0  0  0  0
   36.1440   23.8980   42.0240 H   0  0  0  0  0  0  0  0  0  0  0  0
   37.3000   24.8730   43.1090 H   0  0  0  0  0  0  0  0  0  0  0  0
   36.8280   30.6780   40.9950 O   0  0  0  0  0  0  0  0  0  0  0  0
   37.3800   32.7160   40.0130 C   0  0  1  0  0  3  0  0  0  0  0  0
   37.2800   31.1930   39.7840 C   0  0  1  0  0  3  0  0  0  0  0  0
   38.5590   30.6660   39.5900 O   0  0  0  0  0  0  0  0  0  0  0  0
   39.4310   31.5380   38.9510 C   0  0  0  0  0  2  0  0  0  0  0  0
   39.7750   32.7340   39.8220 C   0  0  2  0  0  3  0  0  0  0  0  0
   38.6390   32.8900   40.8410 C   0  0  1  0  0  3  0  0  0  0  0  0
   37.5160   33.3690   38.7780 O   0  0  0  0  0  0  0  0  0  0  0  0
   36.9450   32.8740   38.1100 H   0  0  0  0  0  0  0  0  0  0  0  0
   39.6850   33.8890   39.0240 O   0  0  0  0  0  0  0  0  0  0  0  0
   39.3810   34.6700   39.5530 H   0  0  0  0  0  0  0  0  0  0  0  0
   38.7080   34.1200   41.4690 O   0  0  0  0  0  0  0  0  0  0  0  0
   37.8480   34.5910   41.2890 H   0  0  0  0  0  0  0  0  0  0  0  0
  1  6  1  0  0  0  0
  2  1  2  0  0  0  0
  2  3  1  0  0  0  0
  3  4  2  0  0  0  0
  4  5  1  0  0  0  0
  5  8  1  0  0  0  0
  6  5  2  0  0  0  0
  7  2  1  0  0  0  0
  9  3  1  0  0  0  0
  9 11  1  0  0  0  0
 10  9  1  0  0  0  0
 10 14  1  0  0  0  0
 10 11  1  0  0  0  0
 11 16  1  0  0  0  0
 12  9  1  0  0  0  0
 13 10  1  0  0  0  0
 15 11  1  0  0  0  0
 17  1  1  0  0  0  0
 18 24  1  6  0  0  0
 18 23  1  0  0  0  0
 19 18  1  0  0  0  0
 19 17  1  1  0  0  0
 20 19  1  0  0  0  0
 21 20  1  0  0  0  0
 21 22  1  0  0  0  0
 22 26  1  6  0  0  0
 22 23  1  0  0  0  0
 23 28  1  6  0  0  0
 25 24  1  0  0  0  0
 26 27  1  0  0  0  0
 29 28  1  0  0  0  0
M  END
>  <minimizedAffinity>
-5.71900415

$$$$

 OpenBabel03242523493D

 29 31  0  0  1  0  0  0  0  0999 V2000
   37.1140   28.9190   41.0010 C   0  0  0  0  0  0  0  0  0  0  0  0
   36.9000   27.5330   41.0110 C   0  0  0  0  0  0  0  0  0  0  0  0
   37.1450   26.8290   42.1920 C   0  0  0  0  0  0  0  0  0  0  0  0
   37.5860   27.5130   43.3030 N   0  0  0  0  0  0  0  0  0  0  0  0
   37.7770   28.8390   43.2470 C   0  0  0  0  0  0  0  0  0  0  0  0
   37.5450   29.5390   42.1110 N   0  0  0  0  0  0  0  0  0  0  0  0
   36.5630   26.9030   40.2220 H   0  0  0  0  0  0  0  0  0  0  0  0
   38.1240   29.3580   44.1320 H   0  0  0  0  0  0  0  0  0  0  0  0
   36.9120   25.3480   42.2580 C   0  0  0  0  0  0  0  0  0  0  0  0
   36.8800   24.5750   40.9780 C   0  0  0  0  0  0  0  0  0  0  0  0
   38.0200   24.4470   41.9880 C   0  0  0  0  0  0  0  0  0  0  0  0
   36.0920   25.1110   42.9620 H   0  0  0  0  0  0  0  0  0  0  0  0
   36.2490   23.6690   40.9660 H   0  0  0  0  0  0  0  0  0  0  0  0
   37.0560   25.0510   40.0110 H   0  0  0  0  0  0  0  0  0  0  0  0
   38.1660   23.5120   42.5380 H   0  0  0  0  0  0  0  0  0  0  0  0
   38.9530   24.9220   41.6130 H   0  0  0  0  0  0  0  0  0  0  0  0
   36.8850   29.6040   39.8760 O   0  0  0  0  0  0  0  0  0  0  0  0
   37.1940   30.7800   37.8890 C   0  0  1  0  0  3  0  0  0  0  0  0
   37.6380   29.5490   38.7070 C   0  0  1  0  0  3  0  0  0  0  0  0
   38.9710   29.7040   39.0960 O   0  0  0  0  0  0  0  0  0  0  0  0
   39.7430   30.4010   38.1760 C   0  0  0  0  0  2  0  0  0  0  0  0
   39.3310   31.8610   38.0830 C   0  0  2  0  0  3  0  0  0  0  0  0
   37.8790   31.9500   38.5690 C   0  0  1  0  0  3  0  0  0  0  0  0
   37.6460   30.6530   36.5670 O   0  0  0  0  0  0  0  0  0  0  0  0
   37.5770   29.6790   36.3160 H   0  0  0  0  0  0  0  0  0  0  0  0
   39.2610   32.2030   36.7200 O   0  0  0  0  0  0  0  0  0  0  0  0
   38.5540   32.8770   36.5540 H   0  0  0  0  0  0  0  0  0  0  0  0
   37.3230   33.1720   38.2350 O   0  0  0  0  0  0  0  0  0  0  0  0
   36.5250   32.9860   37.6680 H   0  0  0  0  0  0  0  0  0  0  0  0
  1  2  2  0  0  0  0
  1  6  1  0  0  0  0
  2  3  1  0  0  0  0
  3  9  1  0  0  0  0
  3  4  2  0  0  0  0
  5  4  1  0  0  0  0
  5  8  1  0  0  0  0
  6  5  2  0  0  0  0
  7  2  1  0  0  0  0
  9 12  1  0  0  0  0
 10 11  1  0  0  0  0
 10  9  1  0  0  0  0
 11  9  1  0  0  0  0
 11 15  1  0  0  0  0
 13 10  1  0  0  0  0
 14 10  1  0  0  0  0
 16 11  1  0  0  0  0
 17  1  1  0  0  0  0
 18 24  1  6  0  0  0
 18 23  1  0  0  0  0
 18 19  1  0  0  0  0
 19 20  1  0  0  0  0
 19 17  1  1  0  0  0
 21 20  1  0  0  0  0
 22 26  1  6  0  0  0
 22 21  1  0  0  0  0
 22 23  1  0  0  0  0
 23 28  1  6  0  0  0
 25 24  1  0  0  0  0
 27 26  1  0  0  0  0
 29 28  1  0  0  0  0
M  END
>  <minimizedAffinity>
-5.60665607

$$$$

 OpenBabel03242523493D

 29 31  0  0  1  0  0  0  0  0999 V2000
   37.5000   29.0670   41.4550 C   0  0  0  0  0  0  0  0  0  0  0  0
   37.5950   27.7750   40.9170 C   0  0  0  0  0  0  0  0  0  0  0  0
   37.6170   26.6880   41.7940 C   0  0  0  0  0  0  0  0  0  0  0  0
   37.5440   26.9170   43.1500 N   0  0  0  0  0  0  0  0  0  0  0  0
   37.4540   28.1700   43.6190 C   0  0  0  0  0  0  0  0  0  0  0  0
   37.4310   29.2360   42.7850 N   0  0  0  0  0  0  0  0  0  0  0  0
   37.6560   27.4800   39.8970 H   0  0  0  0  0  0  0  0  0  0  0  0
   37.3980   28.3270   44.6890 H   0  0  0  0  0  0  0  0  0  0  0  0
   37.6990   25.2860   41.2650 C   0  0  0  0  0  0  0  0  0  0  0  0
   38.1010   24.1930   42.2040 C   0  0  0  0  0  0  0  0  0  0  0  0
   36.6810   24.3250   41.6540 C   0  0  0  0  0  0  0  0  0  0  0  0
   38.2130   25.2660   40.2850 H   0  0  0  0  0  0  0  0  0  0  0  0
   38.6270   23.3310   41.7590 H   0  0  0  0  0  0  0  0  0  0  0  0
   38.2980   24.3840   43.2610 H   0  0  0  0  0  0  0  0  0  0  0  0
   36.2860   23.5730   40.9630 H   0  0  0  0  0  0  0  0  0  0  0  0
   35.9690   24.6620   42.4390 H   0  0  0  0  0  0  0  0  0  0  0  0
   37.4800   30.1170   40.6270 O   0  0  0  0  0  0  0  0  0  0  0  0
   37.9930   31.8400   39.1460 C   0  0  1  0  0  3  0  0  0  0  0  0
   38.5710   30.6600   39.9560 C   0  0  1  0  0  3  0  0  0  0  0  0
   39.4300   31.1500   40.9430 O   0  0  0  0  0  0  0  0  0  0  0  0
   40.1090   32.3030   40.5710 C   0  0  0  0  0  2  0  0  0  0  0  0
   39.1730   33.4910   40.4320 C   0  0  2  0  0  3  0  0  0  0  0  0
   37.7680   32.9300   40.1770 C   0  0  1  0  0  3  0  0  0  0  0  0
   38.9320   32.2590   38.1910 O   0  0  0  0  0  0  0  0  0  0  0  0
   39.4010   31.4360   37.8470 H   0  0  0  0  0  0  0  0  0  0  0  0
   39.5000   34.1610   39.2390 O   0  0  0  0  0  0  0  0  0  0  0  0
   38.6970   34.5660   38.8210 H   0  0  0  0  0  0  0  0  0  0  0  0
   36.9140   33.9240   39.7360 O   0  0  0  0  0  0  0  0  0  0  0  0
   36.5710   33.6430   38.8430 H   0  0  0  0  0  0  0  0  0  0  0  0
  1  6  1  0  0  0  0
  2  1  2  0  0  0  0
  2  3  1  0  0  0  0
  3  4  2  0  0  0  0
  4  5  1  0  0  0  0
  5  8  1  0  0  0  0
  6  5  2  0  0  0  0
  7  2  1  0  0  0  0
  9 11  1  0  0  0  0
  9  3  1  0  0  0  0
  9 10  1  0  0  0  0
 10 14  1  0  0  0  0
 11 10  1  0  0  0  0
 11 16  1  0  0  0  0
 12  9  1  0  0  0  0
 13 10  1  0  0  0  0
 15 11  1  0  0  0  0
 17  1  1  0  0  0  0
 18 24  1  6  0  0  0
 18 19  1  0  0  0  0
 18 23  1  0  0  0  0
 19 17  1  1  0  0  0
 19 20  1  0  0  0  0
 21 20  1  0  0  0  0
 22 26  1  6  0  0  0
 22 21  1  0  0  0  0
 23 28  1  6  0  0  0
 23 22  1  0  0  0  0
 25 24  1  0  0  0  0
 27 26  1  0  0  0  0
 29 28  1  0  0  0  0
M  END
>  <minimizedAffinity>
-5.57841539

$$$$

 OpenBabel03242523493D

 29 31  0  0  1  0  0  0  0  0999 V2000
   37.2600   28.7010   39.3410 C   0  0  0  0  0  0  0  0  0  0  0  0
   37.3830   28.3970   40.7050 C   0  0  0  0  0  0  0  0  0  0  0  0
   37.0560   27.1090   41.1340 C   0  0  0  0  0  0  0  0  0  0  0  0
   36.6260   26.1820   40.2100 N   0  0  0  0  0  0  0  0  0  0  0  0
   36.5250   26.5170   38.9150 C   0  0  0  0  0  0  0  0  0  0  0  0
   36.8370   27.7600   38.4810 N   0  0  0  0  0  0  0  0  0  0  0  0
   37.7020   29.0260   41.5030 H   0  0  0  0  0  0  0  0  0  0  0  0
   36.1850   25.7720   38.2060 H   0  0  0  0  0  0  0  0  0  0  0  0
   37.1880   26.7320   42.5800 C   0  0  0  0  0  0  0  0  0  0  0  0
   38.2660   27.3810   43.3890 C   0  0  0  0  0  0  0  0  0  0  0  0
   36.7830   27.6860   43.5980 C   0  0  0  0  0  0  0  0  0  0  0  0
   37.1120   25.6350   42.7080 H   0  0  0  0  0  0  0  0  0  0  0  0
   38.6770   26.7890   44.2260 H   0  0  0  0  0  0  0  0  0  0  0  0
   38.9270   28.1400   42.9670 H   0  0  0  0  0  0  0  0  0  0  0  0
   36.2830   27.3820   44.5240 H   0  0  0  0  0  0  0  0  0  0  0  0
   36.5200   28.7030   43.2340 H   0  0  0  0  0  0  0  0  0  0  0  0
   37.5680   29.9310   38.9180 O   0  0  0  0  0  0  0  0  0  0  0  0
   38.3170   31.7910   37.7330 C   0  0  1  0  0  3  0  0  0  0  0  0
   38.3770   30.2520   37.8320 C   0  0  1  0  0  3  0  0  0  0  0  0
   39.6710   29.8580   38.1820 O   0  0  0  0  0  0  0  0  0  0  0  0
   40.6630   30.6880   37.6780 C   0  0  0  0  0  2  0  0  0  0  0  0
   40.6310   32.0640   38.3210 C   0  0  2  0  0  3  0  0  0  0  0  0
   39.2100   32.2760   38.8600 C   0  0  1  0  0  3  0  0  0  0  0  0
   38.8310   32.2020   36.4930 O   0  0  0  0  0  0  0  0  0  0  0  0
   38.5460   31.5210   35.8070 H   0  0  0  0  0  0  0  0  0  0  0  0
   40.7590   33.0220   37.2980 O   0  0  0  0  0  0  0  0  0  0  0  0
   40.2540   33.8480   37.5120 H   0  0  0  0  0  0  0  0  0  0  0  0
   39.0000   33.6030   39.1840 O   0  0  0  0  0  0  0  0  0  0  0  0
   38.2300   33.9210   38.6370 H   0  0  0  0  0  0  0  0  0  0  0  0
  1  2  1  0  0  0  0
  2  3  2  0  0  0  0
  2  7  1  0  0  0  0
  3  9  1  0  0  0  0
  4  3  1  0  0  0  0
  5  4  2  0  0  0  0
  6  5  1  0  0  0  0
  6  1  2  0  0  0  0
  8  5  1  0  0  0  0
  9 12  1  0  0  0  0
  9 10  1  0  0  0  0
  9 11  1  0  0  0  0
 10 11  1  0  0  0  0
 10 13  1  0  0  0  0
 11 15  1  0  0  0  0
 14 10  1  0  0  0  0
 16 11  1  0  0  0  0
 17  1  1  0  0  0  0
 18 24  1  6  0  0  0
 18 19  1  0  0  0  0
 18 23  1  0  0  0  0
 19 20  1  0  0  0  0
 19 17  1  1  0  0  0
 21 20  1  0  0  0  0
 21 22  1  0  0  0  0
 22 26  1  6  0  0  0
 22 23  1  0  0  0  0
 23 28  1  6  0  0  0
 25 24  1  0  0  0  0
 26 27  1  0  0  0  0
 29 28  1  0  0  0  0
M  END
>  <minimizedAffinity>
-5.4419446

$$$$

 OpenBabel03242523493D

 29 31  0  0  1  0  0  0  0  0999 V2000
   38.8150   31.6170   40.9990 C   0  0  0  0  0  0  0  0  0  0  0  0
   39.0640   30.5860   41.9170 C   0  0  0  0  0  0  0  0  0  0  0  0
   38.0040   29.7580   42.2940 C   0  0  0  0  0  0  0  0  0  0  0  0
   36.7560   29.9770   41.7540 N   0  0  0  0  0  0  0  0  0  0  0  0
   36.5650   30.9750   40.8790 C   0  0  0  0  0  0  0  0  0  0  0  0
   37.5790   31.7880   40.5020 N   0  0  0  0  0  0  0  0  0  0  0  0
   39.9780   30.3240   42.3950 H   0  0  0  0  0  0  0  0  0  0  0  0
   35.5750   31.1290   40.4670 H   0  0  0  0  0  0  0  0  0  0  0  0
   38.2250   28.6310   43.2590 C   0  0  0  0  0  0  0  0  0  0  0  0
   37.0470   27.8100   43.6780 C   0  0  0  0  0  0  0  0  0  0  0  0
   38.1510   27.2630   42.7740 C   0  0  0  0  0  0  0  0  0  0  0  0
   38.8860   28.9480   44.0880 H   0  0  0  0  0  0  0  0  0  0  0  0
   37.0920   27.3630   44.6870 H   0  0  0  0  0  0  0  0  0  0  0  0
   36.0480   27.9880   43.2750 H   0  0  0  0  0  0  0  0  0  0  0  0
   38.8170   26.4730   43.1360 H   0  0  0  0  0  0  0  0  0  0  0  0
   37.7970   27.1360   41.7280 H   0  0  0  0  0  0  0  0  0  0  0  0
   39.8200   32.4180   40.6320 O   0  0  0  0  0  0  0  0  0  0  0  0
   40.8140   31.4560   38.7580 C   0  0  1  0  0  3  0  0  0  0  0  0
   41.0710   32.0160   40.1730 C   0  0  1  0  0  3  0  0  0  0  0  0
   41.8430   33.1770   40.0820 O   0  0  0  0  0  0  0  0  0  0  0  0
   42.7460   33.1660   39.0270 C   0  0  0  0  0  2  0  0  0  0  0  0
   42.0430   33.2180   37.6810 C   0  0  2  0  0  3  0  0  0  0  0  0
   40.6190   32.6880   37.8960 C   0  0  1  0  0  3  0  0  0  0  0  0
   41.9390   30.7340   38.3280 O   0  0  0  0  0  0  0  0  0  0  0  0
   42.3150   30.2540   39.1310 H   0  0  0  0  0  0  0  0  0  0  0  0
   42.6450   32.2610   36.8430 O   0  0  0  0  0  0  0  0  0  0  0  0
   41.9880   31.8700   36.2120 H   0  0  0  0  0  0  0  0  0  0  0  0
   40.0100   32.4110   36.6850 O   0  0  0  0  0  0  0  0  0  0  0  0
   39.7620   31.4460   36.6960 H   0  0  0  0  0  0  0  0  0  0  0  0
  1  2  1  0  0  0  0
  2  3  2  0  0  0  0
  2  7  1  0  0  0  0
  3  9  1  0  0  0  0
  4  3  1  0  0  0  0
  5  4  2  0  0  0  0
  6  5  1  0  0  0  0
  6  1  2  0  0  0  0
  8  5  1  0  0  0  0
  9 10  1  0  0  0  0
  9 12  1  0  0  0  0
 10 13  1  0  0  0  0
 11 15  1  0  0  0  0
 11  9  1  0  0  0  0
 11 10  1  0  0  0  0
 14 10  1  0  0  0  0
 16 11  1  0  0  0  0
 17  1  1  0  0  0  0
 18 24  1  6  0  0  0
 18 19  1  0  0  0  0
 19 17  1  6  0  0  0
 20 19  1  0  0  0  0
 21 20  1  0  0  0  0
 22 26  1  6  0  0  0
 22 23  1  0  0  0  0
 22 21  1  0  0  0  0
 23 28  1  6  0  0  0
 23 18  1  0  0  0  0
 24 25  1  0  0  0  0
 27 26  1  0  0  0  0
 28 29  1  0  0  0  0
M  END
>  <minimizedAffinity>
-5.42635965

$$$$

 OpenBabel03242523493D

 29 31  0  0  1  0  0  0  0  0999 V2000
   38.8250   29.2800   41.5130 C   0  0  0  0  0  0  0  0  0  0  0  0
   38.7740   27.9390   41.1040 C   0  0  0  0  0  0  0  0  0  0  0  0
   38.1040   27.0210   41.9150 C   0  0  0  0  0  0  0  0  0  0  0  0
   37.5180   27.4570   43.0830 N   0  0  0  0  0  0  0  0  0  0  0  0
   37.5920   28.7490   43.4330 C   0  0  0  0  0  0  0  0  0  0  0  0
   38.2370   29.6540   42.6600 N   0  0  0  0  0  0  0  0  0  0  0  0
   39.1850   27.4910   40.2310 H   0  0  0  0  0  0  0  0  0  0  0  0
   37.1230   29.0710   44.3550 H   0  0  0  0  0  0  0  0  0  0  0  0
   38.0060   25.5790   41.5110 C   0  0  0  0  0  0  0  0  0  0  0  0
   36.9410   24.7350   42.1350 C   0  0  0  0  0  0  0  0  0  0  0  0
   36.9030   25.1560   40.6660 C   0  0  0  0  0  0  0  0  0  0  0  0
   39.0090   25.1110   41.4830 H   0  0  0  0  0  0  0  0  0  0  0  0
   37.1630   23.6580   42.2400 H   0  0  0  0  0  0  0  0  0  0  0  0
   36.2180   25.1470   42.8420 H   0  0  0  0  0  0  0  0  0  0  0  0
   37.0190   24.4080   39.8750 H   0  0  0  0  0  0  0  0  0  0  0  0
   36.1140   25.9170   40.4800 H   0  0  0  0  0  0  0  0  0  0  0  0
   39.4650   30.1700   40.7470 O   0  0  0  0  0  0  0  0  0  0  0  0
   39.9050   31.6920   39.0400 C   0  0  1  0  0  3  0  0  0  0  0  0
   38.9090   31.2970   40.1510 C   0  0  1  0  0  3  0  0  0  0  0  0
   37.7080   30.8790   39.5720 O   0  0  0  0  0  0  0  0  0  0  0  0
   37.4000   31.5350   38.3880 C   0  0  0  0  0  2  0  0  0  0  0  0
   38.3640   31.1700   37.2720 C   0  0  2  0  0  3  0  0  0  0  0  0
   39.6580   30.6810   37.9360 C   0  0  1  0  0  3  0  0  0  0  0  0
   39.6140   32.9880   38.5870 O   0  0  0  0  0  0  0  0  0  0  0  0
   39.3230   33.5300   39.3860 H   0  0  0  0  0  0  0  0  0  0  0  0
   38.7390   32.3580   36.6190 O   0  0  0  0  0  0  0  0  0  0  0  0
   39.6700   32.3080   36.2830 H   0  0  0  0  0  0  0  0  0  0  0  0
   40.6900   30.6200   37.0180 O   0  0  0  0  0  0  0  0  0  0  0  0
   41.4150   31.2170   37.3490 H   0  0  0  0  0  0  0  0  0  0  0  0
  1  6  1  0  0  0  0
  2  1  2  0  0  0  0
  2  3  1  0  0  0  0
  3  4  2  0  0  0  0
  4  5  1  0  0  0  0
  5  8  1  0  0  0  0
  6  5  2  0  0  0  0
  7  2  1  0  0  0  0
  9  3  1  0  0  0  0
  9 10  1  0  0  0  0
 10 13  1  0  0  0  0
 10 14  1  0  0  0  0
 11  9  1  0  0  0  0
 11 10  1  0  0  0  0
 12  9  1  0  0  0  0
 15 11  1  0  0  0  0
 16 11  1  0  0  0  0
 17  1  1  0  0  0  0
 18 24  1  6  0  0  0
 18 19  1  0  0  0  0
 19 17  1  6  0  0  0
 20 19  1  0  0  0  0
 21 20  1  0  0  0  0
 22 26  1  6  0  0  0
 22 23  1  0  0  0  0
 22 21  1  0  0  0  0
 23 28  1  6  0  0  0
 23 18  1  0  0  0  0
 24 25  1  0  0  0  0
 27 26  1  0  0  0  0
 28 29  1  0  0  0  0
M  END
>  <minimizedAffinity>
-5.18216562

$$$$

 OpenBabel03242523493D

 29 31  0  0  1  0  0  0  0  0999 V2000
   40.0910   29.2600   39.7810 C   0  0  0  0  0  0  0  0  0  0  0  0
   39.1590   29.5340   40.7930 C   0  0  0  0  0  0  0  0  0  0  0  0
   38.3330   28.4990   41.2360 C   0  0  0  0  0  0  0  0  0  0  0  0
   38.4590   27.2500   40.6710 N   0  0  0  0  0  0  0  0  0  0  0  0
   39.3650   27.0340   39.7060 C   0  0  0  0  0  0  0  0  0  0  0  0
   40.1740   28.0240   39.2630 N   0  0  0  0  0  0  0  0  0  0  0  0
   38.9750   30.4510   41.2990 H   0  0  0  0  0  0  0  0  0  0  0  0
   39.4460   26.0430   39.2750 H   0  0  0  0  0  0  0  0  0  0  0  0
   37.3340   28.7390   42.3290 C   0  0  0  0  0  0  0  0  0  0  0  0
   36.5600   27.5720   42.8560 C   0  0  0  0  0  0  0  0  0  0  0  0
   37.6370   28.2830   43.6750 C   0  0  0  0  0  0  0  0  0  0  0  0
   36.7250   29.6380   42.1130 H   0  0  0  0  0  0  0  0  0  0  0  0
   35.5490   27.7870   43.2460 H   0  0  0  0  0  0  0  0  0  0  0  0
   36.7290   26.5570   42.4930 H   0  0  0  0  0  0  0  0  0  0  0  0
   37.3620   28.8550   44.5670 H   0  0  0  0  0  0  0  0  0  0  0  0
   38.5490   27.6550   43.7820 H   0  0  0  0  0  0  0  0  0  0  0  0
   40.8870   30.2420   39.3450 O   0  0  0  0  0  0  0  0  0  0  0  0
   40.5650   32.1660   38.0730 C   0  0  1  0  0  3  0  0  0  0  0  0
   41.0060   30.6870   38.0320 C   0  0  1  0  0  3  0  0  0  0  0  0
   42.3650   30.6160   37.7190 O   0  0  0  0  0  0  0  0  0  0  0  0
   42.7970   31.6250   36.8690 C   0  0  0  0  0  2  0  0  0  0  0  0
   42.7600   32.9860   37.5430 C   0  0  2  0  0  3  0  0  0  0  0  0
   41.7440   32.8940   38.6890 C   0  0  1  0  0  3  0  0  0  0  0  0
   40.3380   32.6250   36.7660 O   0  0  0  0  0  0  0  0  0  0  0  0
   39.9280   31.8650   36.2460 H   0  0  0  0  0  0  0  0  0  0  0  0
   42.1820   33.8990   36.6410 O   0  0  0  0  0  0  0  0  0  0  0  0
   41.6640   34.5970   37.1170 H   0  0  0  0  0  0  0  0  0  0  0  0
   41.4180   34.1530   39.1600 O   0  0  0  0  0  0  0  0  0  0  0  0
   40.4340   34.2610   39.0520 H   0  0  0  0  0  0  0  0  0  0  0  0
  1  2  1  0  0  0  0
  2  3  2  0  0  0  0
  2  7  1  0  0  0  0
  3  9  1  0  0  0  0
  4  3  1  0  0  0  0
  5  4  2  0  0  0  0
  6  5  1  0  0  0  0
  6  1  2  0  0  0  0
  8  5  1  0  0  0  0
  9 10  1  0  0  0  0
  9 11  1  0  0  0  0
 10 13  1  0  0  0  0
 10 11  1  0  0  0  0
 11 16  1  0  0  0  0
 11 15  1  0  0  0  0
 12  9  1  0  0  0  0
 14 10  1  0  0  0  0
 17  1  1  0  0  0  0
 18 24  1  6  0  0  0
 18 23  1  0  0  0  0
 19 18  1  0  0  0  0
 19 17  1  1  0  0  0
 20 19  1  0  0  0  0
 21 22  1  0  0  0  0
 21 20  1  0  0  0  0
 22 26  1  6  0  0  0
 22 23  1  0  0  0  0
 23 28  1  6  0  0  0
 25 24  1  0  0  0  0
 26 27  1  0  0  0  0
 29 28  1  0  0  0  0
M  END
>  <minimizedAffinity>
-5.07535887

$$$$

 OpenBabel03242523493D

 29 31  0  0  1  0  0  0  0  0999 V2000
   37.2150   26.7040   40.7600 C   0  0  0  0  0  0  0  0  0  0  0  0
   36.5790   25.9740   39.7460 C   0  0  0  0  0  0  0  0  0  0  0  0
   36.3330   24.6150   39.9570 C   0  0  0  0  0  0  0  0  0  0  0  0
   36.7190   24.0390   41.1470 N   0  0  0  0  0  0  0  0  0  0  0  0
   37.3240   24.7770   42.0890 C   0  0  0  0  0  0  0  0  0  0  0  0
   37.5710   26.0950   41.9030 N   0  0  0  0  0  0  0  0  0  0  0  0
   36.2380   26.3090   38.7950 H   0  0  0  0  0  0  0  0  0  0  0  0
   37.6190   24.3040   43.0170 H   0  0  0  0  0  0  0  0  0  0  0  0
   35.6380   23.7960   38.9090 C   0  0  0  0  0  0  0  0  0  0  0  0
   34.9520   24.5090   37.7870 C   0  0  0  0  0  0  0  0  0  0  0  0
   36.2300   23.6940   37.5860 C   0  0  0  0  0  0  0  0  0  0  0  0
   35.0440   22.9870   39.3740 H   0  0  0  0  0  0  0  0  0  0  0  0
   34.0770   24.0020   37.3430 H   0  0  0  0  0  0  0  0  0  0  0  0
   34.9760   25.5970   37.6940 H   0  0  0  0  0  0  0  0  0  0  0  0
   36.2070   22.7700   37.0000 H   0  0  0  0  0  0  0  0  0  0  0  0
   37.1070   24.3520   37.3940 H   0  0  0  0  0  0  0  0  0  0  0  0
   37.4590   28.0050   40.5710 O   0  0  0  0  0  0  0  0  0  0  0  0
   36.8200   30.1070   41.3440 C   0  0  1  0  0  3  0  0  0  0  0  0
   36.5130   28.9940   40.3190 C   0  0  1  0  0  3  0  0  0  0  0  0
   36.7740   29.4630   39.0300 O   0  0  0  0  0  0  0  0  0  0  0  0
   36.5260   30.8200   38.8690 C   0  0  0  0  0  2  0  0  0  0  0  0
   37.5070   31.6720   39.6560 C   0  0  2  0  0  3  0  0  0  0  0  0
   38.0530   30.7970   40.7920 C   0  0  1  0  0  3  0  0  0  0  0  0
   35.7420   31.0040   41.3990 O   0  0  0  0  0  0  0  0  0  0  0  0
   34.8960   30.4670   41.2960 H   0  0  0  0  0  0  0  0  0  0  0  0
   36.7740   32.6770   40.3150 O   0  0  0  0  0  0  0  0  0  0  0  0
   37.1870   32.9120   41.1850 H   0  0  0  0  0  0  0  0  0  0  0  0
   38.7090   31.5680   41.7340 O   0  0  0  0  0  0  0  0  0  0  0  0
   38.2490   31.4220   42.6060 H   0  0  0  0  0  0  0  0  0  0  0  0
  1  6  1  0  0  0  0
  2  3  1  0  0  0  0
  2  1  2  0  0  0  0
  3  4  2  0  0  0  0
  4  5  1  0  0  0  0
  5  8  1  0  0  0  0
  6  5  2  0  0  0  0
  7  2  1  0  0  0  0
  9 12  1  0  0  0  0
  9  3  1  0  0  0  0
 10  9  1  0  0  0  0
 11 10  1  0  0  0  0
 11  9  1  0  0  0  0
 13 10  1  0  0  0  0
 14 10  1  0  0  0  0
 15 11  1  0  0  0  0
 16 11  1  0  0  0  0
 17  1  1  0  0  0  0
 18 24  1  6  0  0  0
 19 17  1  1  0  0  0
 19 18  1  0  0  0  0
 20 19  1  0  0  0  0
 21 20  1  0  0  0  0
 21 22  1  0  0  0  0
 22 26  1  1  0  0  0
 22 23  1  0  0  0  0
 23 18  1  0  0  0  0
 23 28  1  1  0  0  0
 25 24  1  0  0  0  0
 26 27  1  0  0  0  0
 28 29  1  0  0  0  0
M  END
>  <minimizedAffinity>
-5.05549383

$$$$

 OpenBabel03242523493D

 29 31  0  0  1  0  0  0  0  0999 V2000
   36.9620   29.1490   39.0970 C   0  0  0  0  0  0  0  0  0  0  0  0
   36.8840   28.2700   40.1870 C   0  0  0  0  0  0  0  0  0  0  0  0
   36.6230   28.7990   41.4520 C   0  0  0  0  0  0  0  0  0  0  0  0
   36.4500   30.1580   41.5900 N   0  0  0  0  0  0  0  0  0  0  0  0
   36.5340   30.9610   40.5190 C   0  0  0  0  0  0  0  0  0  0  0  0
   36.7860   30.4670   39.2850 N   0  0  0  0  0  0  0  0  0  0  0  0
   36.9970   27.2120   40.2010 H   0  0  0  0  0  0  0  0  0  0  0  0
   36.3950   32.0270   40.6500 H   0  0  0  0  0  0  0  0  0  0  0  0
   36.5110   27.8960   42.6460 C   0  0  0  0  0  0  0  0  0  0  0  0
   37.4400   26.7280   42.7450 C   0  0  0  0  0  0  0  0  0  0  0  0
   37.5450   27.9440   43.6660 C   0  0  0  0  0  0  0  0  0  0  0  0
   35.4510   27.6640   42.8640 H   0  0  0  0  0  0  0  0  0  0  0  0
   37.0620   25.8430   43.2880 H   0  0  0  0  0  0  0  0  0  0  0  0
   38.2120   26.5400   41.9970 H   0  0  0  0  0  0  0  0  0  0  0  0
   37.3240   27.8460   44.7340 H   0  0  0  0  0  0  0  0  0  0  0  0
   38.4370   28.5620   43.4250 H   0  0  0  0  0  0  0  0  0  0  0  0
   37.2140   28.6560   37.8800 O   0  0  0  0  0  0  0  0  0  0  0  0
   37.4510   28.3070   35.5890 C   0  0  1  0  0  3  0  0  0  0  0  0
   36.8000   29.1990   36.6670 C   0  0  1  0  0  3  0  0  0  0  0  0
   35.4130   29.0430   36.6250 O   0  0  0  0  0  0  0  0  0  0  0  0
   34.9170   28.7990   35.3510 C   0  0  0  0  0  2  0  0  0  0  0  0
   35.3440   27.4380   34.8290 C   0  0  2  0  0  3  0  0  0  0  0  0
   36.6140   27.0410   35.5920 C   0  0  1  0  0  3  0  0  0  0  0  0
   37.3680   28.9420   34.3410 O   0  0  0  0  0  0  0  0  0  0  0  0
   37.4980   29.9300   34.4950 H   0  0  0  0  0  0  0  0  0  0  0  0
   35.7760   27.6020   33.5000 O   0  0  0  0  0  0  0  0  0  0  0  0
   36.5050   26.9680   33.2770 H   0  0  0  0  0  0  0  0  0  0  0  0
   37.2440   25.9740   34.9780 O   0  0  0  0  0  0  0  0  0  0  0  0
   38.1630   26.2730   34.7390 H   0  0  0  0  0  0  0  0  0  0  0  0
  1  6  2  0  0  0  0
  1  2  1  0  0  0  0
  2  7  1  0  0  0  0
  2  3  2  0  0  0  0
  3  4  1  0  0  0  0
  3  9  1  0  0  0  0
  5  8  1  0  0  0  0
  5  4  2  0  0  0  0
  6  5  1  0  0  0  0
  9 10  1  0  0  0  0
  9 12  1  0  0  0  0
  9 11  1  0  0  0  0
 10 13  1  0  0  0  0
 10 11  1  0  0  0  0
 11 15  1  0  0  0  0
 14 10  1  0  0  0  0
 16 11  1  0  0  0  0
 17  1  1  0  0  0  0
 18 24  1  6  0  0  0
 18 23  1  0  0  0  0
 18 19  1  0  0  0  0
 19 17  1  1  0  0  0
 20 19  1  0  0  0  0
 21 20  1  0  0  0  0
 22 26  1  6  0  0  0
 22 21  1  0  0  0  0
 22 23  1  0  0  0  0
 23 28  1  6  0  0  0
 24 25  1  0  0  0  0
 27 26  1  0  0  0  0
 29 28  1  0  0  0  0
M  END
>  <minimizedAffinity>
-4.9837327

$$$$
