
 OpenBabel03252504473D

 30 31  0  0  1  0  0  0  0  0999 V2000
   44.6190   31.5980   48.8880 O   0  0  0  0  0  0  0  0  0  0  0  0
   45.5870   31.7780   47.7030 P   0  0  1  0  0  0  0  0  0  0  0  0
   45.3180   30.5080   46.6420 O   0  0  0  0  0  0  0  0  0  0  0  0
   44.3390   30.5300   46.4060 H   0  0  0  0  0  0  0  0  0  0  0  0
   45.2650   33.3100   47.0710 O   0  0  0  0  0  0  0  0  0  0  0  0
   45.4940   35.1210   43.9370 C   0  0  0  0  0  0  0  0  0  0  0  0
   46.5320   34.4310   43.3290 C   0  0  0  0  0  0  0  0  0  0  0  0
   47.1300   33.3640   44.0030 C   0  0  0  0  0  0  0  0  0  0  0  0
   46.6420   33.0660   45.2370 N   0  0  0  0  0  0  0  0  0  0  0  0
   45.6330   33.7520   45.8080 C   0  0  0  0  0  0  0  0  0  0  0  0
   45.0500   34.7890   45.1540 N   0  0  0  0  0  0  0  0  0  0  0  0
   46.9030   34.6800   42.3540 H   0  0  0  0  0  0  0  0  0  0  0  0
   47.9410   32.8030   43.5590 H   0  0  0  0  0  0  0  0  0  0  0  0
   44.8560   36.2570   43.2210 C   0  0  0  0  0  0  0  0  0  0  0  0
   45.4320   37.1890   43.3980 H   0  0  0  0  0  0  0  0  0  0  0  0
   43.8180   36.3720   43.6090 H   0  0  0  0  0  0  0  0  0  0  0  0
   44.7570   35.9930   42.1450 H   0  0  0  0  0  0  0  0  0  0  0  0
   47.1900   31.7050   48.2370 O   0  0  0  0  0  0  0  0  0  0  0  0
   49.0200   30.3310   48.8850 C   0  0  2  0  0  0  0  0  0  0  0  0
   47.7540   30.4530   48.0580 C   0  0  2  0  0  0  0  0  0  0  0  0
   48.1250   30.3660   46.7180 O   0  0  0  0  0  0  0  0  0  0  0  0
   48.7320   29.1800   46.3730 C   0  0  0  0  0  0  0  0  0  0  0  0
   50.0040   28.9280   47.1690 C   0  0  1  0  0  0  0  0  0  0  0  0
   49.5920   28.9370   48.6240 C   0  0  1  0  0  0  0  0  0  0  0  0
   48.7940   30.4230   50.2420 O   0  0  0  0  0  0  0  0  0  0  0  0
   48.0050   29.8870   50.5240 H   0  0  0  0  0  0  0  0  0  0  0  0
   50.4430   27.6540   46.8250 O   0  0  0  0  0  0  0  0  0  0  0  0
   51.4310   27.7040   46.6830 H   0  0  0  0  0  0  0  0  0  0  0  0
   50.6110   28.6040   49.4930 O   0  0  0  0  0  0  0  0  0  0  0  0
   50.1730   28.3480   50.3460 H   0  0  0  0  0  0  0  0  0  0  0  0
  2 18  1  0  0  0  0
  2  1  2  1  0  0  0
  3  2  1  0  0  0  0
  4  3  1  0  0  0  0
  5  2  1  0  0  0  0
  6 11  1  0  0  0  0
  7  6  2  0  0  0  0
  7  8  1  0  0  0  0
  8  9  2  0  0  0  0
  9 10  1  0  0  0  0
 10  5  1  0  0  0  0
 11 10  2  0  0  0  0
 12  7  1  0  0  0  0
 13  8  1  0  0  0  0
 14 15  1  0  0  0  0
 14 16  1  0  0  0  0
 14  6  1  0  0  0  0
 17 14  1  0  0  0  0
 19 25  1  1  0  0  0
 20 18  1  6  0  0  0
 20 19  1  0  0  0  0
 21 20  1  0  0  0  0
 22 21  1  0  0  0  0
 22 23  1  0  0  0  0
 23 27  1  6  0  0  0
 23 24  1  0  0  0  0
 24 19  1  0  0  0  0
 24 29  1  1  0  0  0
 25 26  1  0  0  0  0
 28 27  1  0  0  0  0
 29 30  1  0  0  0  0
M  END
>  <minimizedAffinity>
-5.0849328

>  <minimizedRMSD>
1.76884341

$$$$
