
 OpenBabel03252507463D

 40 42  0  0  1  0  0  0  0  0999 V2000
   48.6540   33.3730   40.4140 C   0  0  0  0  0  0  0  0  0  0  0  0
   48.7650   32.4720   39.3730 C   0  0  0  0  0  0  0  0  0  0  0  0
   49.7320   31.4770   39.3770 C   0  0  0  0  0  0  0  0  0  0  0  0
   50.5700   31.4350   40.4650 N   0  0  0  0  0  0  0  0  0  0  0  0
   50.4310   32.3300   41.4600 C   0  0  0  0  0  0  0  0  0  0  0  0
   49.4990   33.2710   41.4340 N   0  0  0  0  0  0  0  0  0  0  0  0
   49.8220   30.7700   38.5640 H   0  0  0  0  0  0  0  0  0  0  0  0
   51.0690   32.3310   42.3350 H   0  0  0  0  0  0  0  0  0  0  0  0
   47.5930   34.3920   40.3150 C   0  0  0  0  0  0  0  0  0  0  0  0
   46.7730   34.0550   39.6460 H   0  0  0  0  0  0  0  0  0  0  0  0
   47.9800   35.3420   39.8790 H   0  0  0  0  0  0  0  0  0  0  0  0
   46.9390   34.6850   41.6420 C   0  0  0  0  0  0  0  0  0  0  0  0
   47.3570   35.6400   42.0320 H   0  0  0  0  0  0  0  0  0  0  0  0
   47.2010   33.8570   42.3290 H   0  0  0  0  0  0  0  0  0  0  0  0
   45.4540   34.7220   41.5910 C   0  0  0  0  0  0  0  0  0  0  0  0
   44.7440   35.6550   42.4030 C   0  0  0  0  0  0  0  0  0  0  0  0
   42.9860   35.3080   41.9860 S   0  0  0  0  0  0  0  0  0  0  0  0
   43.5170   33.9410   40.7680 C   0  0  0  0  0  0  0  0  0  0  0  0
   44.6520   33.9770   40.8640 N   0  0  0  0  0  0  0  0  0  0  0  0
   45.1580   36.3740   43.0840 H   0  0  0  0  0  0  0  0  0  0  0  0
   42.6060   33.1880   40.0270 O   0  0  0  0  0  0  0  0  0  0  0  0
   41.1350   32.9590   37.8380 O   0  0  0  0  0  0  0  0  0  0  0  0
   41.7690   33.9800   38.7800 P   0  0  0  0  0  0  0  0  0  0  0  0
   40.5670   34.9300   39.4780 O   0  0  0  0  0  0  0  0  0  0  0  0
   39.8320   35.0010   38.8340 H   0  0  0  0  0  0  0  0  0  0  0  0
   42.8420   34.9900   37.9340 O   0  0  0  0  0  0  0  0  0  0  0  0
   42.5310   35.2480   37.0510 H   0  0  0  0  0  0  0  0  0  0  0  0
   47.6320   32.5780   37.9650 S   0  0  0  0  0  0  0  0  0  0  0  0
   49.0940   32.2450   35.7400 C   0  0  2  0  0  3  0  0  0  0  0  0
   48.1580   31.4680   36.6710 C   0  0  2  0  0  3  0  0  0  0  0  0
   47.0160   31.0500   35.9860 O   0  0  0  0  0  0  0  0  0  0  0  0
   46.5980   32.1210   35.1970 C   0  0  0  0  0  2  0  0  0  0  0  0
   47.3870   32.0380   33.9110 C   0  0  2  0  0  3  0  0  0  0  0  0
   48.8460   31.8750   34.2960 C   0  0  1  0  0  3  0  0  0  0  0  0
   50.4180   31.9140   36.0260 O   0  0  0  0  0  0  0  0  0  0  0  0
   50.9790   32.3700   35.3800 H   0  0  0  0  0  0  0  0  0  0  0  0
   47.1680   33.1600   33.1120 O   0  0  0  0  0  0  0  0  0  0  0  0
   47.9040   33.2960   32.4690 H   0  0  0  0  0  0  0  0  0  0  0  0
   49.6230   32.7150   33.5110 O   0  0  0  0  0  0  0  0  0  0  0  0
   49.9780   33.4980   33.9660 H   0  0  0  0  0  0  0  0  0  0  0  0
  1  6  1  0  0  0  0
  2  3  1  0  0  0  0
  2  1  2  0  0  0  0
  3  4  2  0  0  0  0
  4  5  1  0  0  0  0
  5  8  1  0  0  0  0
  6  5  2  0  0  0  0
  7  3  1  0  0  0  0
  9  1  1  0  0  0  0
  9 12  1  0  0  0  0
 10  9  1  0  0  0  0
 11  9  1  0  0  0  0
 12 13  1  0  0  0  0
 12 14  1  0  0  0  0
 15 12  1  0  0  0  0
 15 16  2  0  0  0  0
 16 20  1  0  0  0  0
 17 16  1  0  0  0  0
 18 19  2  0  0  0  0
 18 17  1  0  0  0  0
 19 15  1  0  0  0  0
 21 18  1  0  0  0  0
 22 23  2  0  0  0  0
 23 24  1  0  0  0  0
 23 21  1  0  0  0  0
 25 24  1  0  0  0  0
 26 23  1  0  0  0  0
 27 26  1  0  0  0  0
 28  2  1  0  0  0  0
 29 35  1  1  0  0  0
 29 30  1  0  0  0  0
 30 28  1  1  0  0  0
 31 30  1  0  0  0  0
 32 31  1  0  0  0  0
 33 37  1  1  0  0  0
 33 34  1  0  0  0  0
 33 32  1  0  0  0  0
 34 39  1  6  0  0  0
 34 29  1  0  0  0  0
 36 35  1  0  0  0  0
 38 37  1  0  0  0  0
 39 40  1  0  0  0  0
M  END
>  <minimizedAffinity>
-5.80895138

>  <minimizedRMSD>
4.15646267

$$$$
