
 OpenBabel03242520483D

 22 23  0  0  1  0  0  0  0  0999 V2000
   48.8890   34.6270   42.4370 C   0  0  1  0  0  3  0  0  0  0  0  0
   47.9630   34.4330   41.2920 C   0  0  1  0  0  3  0  0  0  0  0  0
   47.7390   33.1780   40.8430 O   0  0  0  0  0  0  0  0  0  0  0  0
   48.4000   32.1490   41.4680 C   0  0  0  0  0  2  0  0  0  0  0  0
   49.8630   32.5620   41.4900 C   0  0  1  0  0  3  0  0  0  0  0  0
   49.9130   33.5530   42.6390 C   0  0  1  0  0  3  0  0  0  0  0  0
   49.5850   35.8320   42.3220 O   0  0  0  0  0  0  0  0  0  0  0  0
   50.0290   36.1330   43.1320 H   0  0  0  0  0  0  0  0  0  0  0  0
   50.6820   31.4860   41.6760 O   0  0  0  0  0  0  0  0  0  0  0  0
   51.3930   31.7070   42.3240 H   0  0  0  0  0  0  0  0  0  0  0  0
   51.2230   34.0440   42.6700 O   0  0  0  0  0  0  0  0  0  0  0  0
   51.6140   34.0020   43.5910 H   0  0  0  0  0  0  0  0  0  0  0  0
   46.7120   35.0690   41.5040 O   0  0  0  0  0  0  0  0  0  0  0  0
   44.7100   35.9560   44.5020 C   0  0  0  0  0  0  0  0  0  0  0  0
   45.2860   36.0960   43.2390 C   0  0  0  0  0  0  0  0  0  0  0  0
   46.0790   35.0640   42.7400 C   0  0  0  0  0  0  0  0  0  0  0  0
   46.2530   33.9550   43.5260 N   0  0  0  0  0  0  0  0  0  0  0  0
   45.6830   33.8480   44.7410 C   0  0  0  0  0  0  0  0  0  0  0  0
   44.9110   34.8510   45.2290 N   0  0  0  0  0  0  0  0  0  0  0  0
   44.0990   36.7600   44.8780 H   0  0  0  0  0  0  0  0  0  0  0  0
   45.1600   36.9680   42.6010 H   0  0  0  0  0  0  0  0  0  0  0  0
   45.9170   32.9050   45.2410 H   0  0  0  0  0  0  0  0  0  0  0  0
  1  7  1  6  0  0  0
  1  6  1  0  0  0  0
  2 13  1  1  0  0  0
  2  1  1  0  0  0  0
  3  2  1  0  0  0  0
  3  4  1  0  0  0  0
  4  5  1  0  0  0  0
  5  9  1  1  0  0  0
  5  6  1  0  0  0  0
  6 11  1  6  0  0  0
  7  8  1  0  0  0  0
  9 10  1  0  0  0  0
 11 12  1  0  0  0  0
 13 16  1  0  0  0  0
 14 20  1  0  0  0  0
 14 19  1  0  0  0  0
 15 14  2  0  0  0  0
 16 15  1  0  0  0  0
 16 17  2  0  0  0  0
 17 18  1  0  0  0  0
 18 19  2  0  0  0  0
 18 22  1  0  0  0  0
 21 15  1  0  0  0  0
M  END
>  <minimizedAffinity>
-4.94200134

>  <minimizedRMSD>
1.10455418

$$$$
