
 OpenBabel03242521593D

 36 38  0  0  1  0  0  0  0  0999 V2000
   46.8040   34.8850   42.1720 C   0  0  0  0  0  0  0  0  0  0  0  0
   48.0640   35.4640   42.0250 C   0  0  0  0  0  0  0  0  0  0  0  0
   48.8590   35.3690   40.8890 C   0  0  0  0  0  0  0  0  0  0  0  0
   48.3680   34.6470   39.8200 C   0  0  0  0  0  0  0  0  0  0  0  0
   47.1440   34.0940   39.9750 C   0  0  0  0  0  0  0  0  0  0  0  0
   46.4090   34.2070   41.0840 N   0  0  0  0  0  0  0  0  0  0  0  0
   48.3880   36.0230   42.9200 H   0  0  0  0  0  0  0  0  0  0  0  0
   49.8070   35.8970   40.9890 H   0  0  0  0  0  0  0  0  0  0  0  0
   49.1160   34.6670   39.0490 H   0  0  0  0  0  0  0  0  0  0  0  0
   44.4340   35.9150   44.8990 C   0  0  0  0  0  0  0  0  0  0  0  0
   45.1010   35.9780   43.6640 C   0  0  0  0  0  0  0  0  0  0  0  0
   46.0160   34.9980   43.3810 C   0  0  0  0  0  0  0  0  0  0  0  0
   46.2240   34.0140   44.3190 N   0  0  0  0  0  0  0  0  0  0  0  0
   45.5720   33.9750   45.4950 C   0  0  0  0  0  0  0  0  0  0  0  0
   44.6790   34.9340   45.7730 N   0  0  0  0  0  0  0  0  0  0  0  0
   43.7280   36.7380   45.0300 H   0  0  0  0  0  0  0  0  0  0  0  0
   44.9920   36.7050   42.8910 H   0  0  0  0  0  0  0  0  0  0  0  0
   45.7580   33.1900   46.2130 H   0  0  0  0  0  0  0  0  0  0  0  0
   46.6340   33.3700   38.9130 O   0  0  0  0  0  0  0  0  0  0  0  0
   48.0600   34.6130   37.0700 O   0  0  0  0  0  0  0  0  0  0  0  0
   47.4110   33.2940   37.3880 P   0  0  1  0  0  0  0  0  0  0  0  0
   48.6010   32.0860   37.4620 O   0  0  0  0  0  0  0  0  0  0  0  0
   48.9750   32.0940   38.3840 H   0  0  0  0  0  0  0  0  0  0  0  0
   46.2410   32.9270   36.2220 O   0  0  0  0  0  0  0  0  0  0  0  0
   44.5950   31.3990   35.5050 C   0  0  1  0  0  0  0  0  0  0  0  0
   45.9180   31.5880   36.1560 C   0  0  1  0  0  0  0  0  0  0  0  0
   46.9700   30.9600   35.5140 O   0  0  0  0  0  0  0  0  0  0  0  0
   46.6280   29.7710   34.8870 C   0  0  0  0  0  0  0  0  0  0  0  0
   45.8050   30.1390   33.6810 C   0  0  1  0  0  0  0  0  0  0  0  0
   44.6730   31.0450   34.0410 C   0  0  1  0  0  0  0  0  0  0  0  0
   43.7610   30.5110   36.1840 O   0  0  0  0  0  0  0  0  0  0  0  0
   44.2700   29.8540   36.7250 H   0  0  0  0  0  0  0  0  0  0  0  0
   46.6610   30.8350   32.7970 O   0  0  0  0  0  0  0  0  0  0  0  0
   46.0990   31.1540   32.0560 H   0  0  0  0  0  0  0  0  0  0  0  0
   43.4810   30.3740   33.7250 O   0  0  0  0  0  0  0  0  0  0  0  0
   43.3910   30.2350   32.7500 H   0  0  0  0  0  0  0  0  0  0  0  0
  1 12  1  0  0  0  0
  2  1  1  0  0  0  0
  2  7  1  0  0  0  0
  3  8  1  0  0  0  0
  3  2  2  0  0  0  0
  4  5  2  0  0  0  0
  4  3  1  0  0  0  0
  5  6  1  0  0  0  0
  6  1  2  0  0  0  0
  9  4  1  0  0  0  0
 10 16  1  0  0  0  0
 10 15  1  0  0  0  0
 11 10  2  0  0  0  0
 12 11  1  0  0  0  0
 12 13  2  0  0  0  0
 13 14  1  0  0  0  0
 14 15  2  0  0  0  0
 14 18  1  0  0  0  0
 17 11  1  0  0  0  0
 19  5  1  0  0  0  0
 21 20  2  6  0  0  0
 21 22  1  0  0  0  0
 21 19  1  0  0  0  0
 22 23  1  0  0  0  0
 24 21  1  0  0  0  0
 25 26  1  0  0  0  0
 25 31  1  1  0  0  0
 26 24  1  6  0  0  0
 27 26  1  0  0  0  0
 28 27  1  0  0  0  0
 29 33  1  6  0  0  0
 29 30  1  0  0  0  0
 29 28  1  0  0  0  0
 30 35  1  1  0  0  0
 30 25  1  0  0  0  0
 31 32  1  0  0  0  0
 34 33  1  0  0  0  0
 36 35  1  0  0  0  0
M  END
>  <minimizedAffinity>
-6.33276224

>  <minimizedRMSD>
3.32650781

$$$$
