
 OpenBabel03252505433D

 45 48  0  0  1  0  0  0  0  0999 V2000
   43.0340   34.9380   40.3880 C   0  0  0  0  0  0  0  0  0  0  0  0
   43.0560   35.0120   39.0150 C   0  0  0  0  0  0  0  0  0  0  0  0
   41.9260   34.9450   38.2440 C   0  0  0  0  0  0  0  0  0  0  0  0
   40.7360   34.7980   38.8800 N   0  0  0  0  0  0  0  0  0  0  0  0
   40.6980   34.7220   40.2430 C   0  0  0  0  0  0  0  0  0  0  0  0
   41.8190   34.7900   40.9900 N   0  0  0  0  0  0  0  0  0  0  0  0
   43.9950   35.1260   38.5160 H   0  0  0  0  0  0  0  0  0  0  0  0
   41.9490   35.0040   37.1570 H   0  0  0  0  0  0  0  0  0  0  0  0
   44.1620   34.5070   42.5480 C   0  0  1  0  0  0  0  0  0  0  0  0
   44.3550   36.0430   42.3100 C   0  0  0  0  0  0  0  0  0  0  0  0
   44.3050   34.9910   41.2070 C   0  0  2  0  0  0  0  0  0  0  0  0
   43.1430   34.3070   42.9790 H   0  0  0  0  0  0  0  0  0  0  0  0
   45.3450   36.4550   42.5770 H   0  0  0  0  0  0  0  0  0  0  0  0
   43.4640   36.6790   42.3710 H   0  0  0  0  0  0  0  0  0  0  0  0
   45.1840   34.9840   40.5670 H   0  0  0  0  0  0  0  0  0  0  0  0
   45.2530   33.8850   43.3280 C   0  0  0  0  0  0  0  0  0  0  0  0
   46.4770   33.6520   42.6650 C   0  0  0  0  0  0  0  0  0  0  0  0
   47.5180   33.0710   43.3750 C   0  0  0  0  0  0  0  0  0  0  0  0
   47.3030   32.7580   44.6790 N   0  0  0  0  0  0  0  0  0  0  0  0
   46.1320   32.9940   45.2730 C   0  0  0  0  0  0  0  0  0  0  0  0
   45.1350   33.5520   44.5790 N   0  0  0  0  0  0  0  0  0  0  0  0
   46.5930   33.9250   41.6140 H   0  0  0  0  0  0  0  0  0  0  0  0
   48.4900   32.8720   42.8960 H   0  0  0  0  0  0  0  0  0  0  0  0
   46.0960   32.5790   46.7190 C   0  0  0  0  0  0  0  0  0  0  0  0
   45.1190   33.2720   47.4190 F   0  0  0  0  0  0  0  0  0  0  0  0
   47.3240   32.9360   47.3220 F   0  0  0  0  0  0  0  0  0  0  0  0
   45.9880   31.2190   46.8110 F   0  0  0  0  0  0  0  0  0  0  0  0
   39.4220   34.5550   40.9640 C   0  0  0  0  0  0  0  0  0  0  0  0
   38.8190   35.4800   40.7370 H   0  0  0  0  0  0  0  0  0  0  0  0
   39.5700   34.4820   42.0400 H   0  0  0  0  0  0  0  0  0  0  0  0
   38.6220   33.4010   40.4310 C   0  0  0  0  0  0  0  0  0  0  0  0
   37.5530   33.4870   40.6680 H   0  0  0  0  0  0  0  0  0  0  0  0
   38.7790   33.3640   39.3160 H   0  0  0  0  0  0  0  0  0  0  0  0
   40.0680   31.4120   40.0250 C   0  0  1  0  0  3  0  0  0  0  0  0
   39.1010   32.0960   40.9710 C   0  0  1  0  0  3  0  0  0  0  0  0
   39.5800   32.0980   42.2490 O   0  0  0  0  0  0  0  0  0  0  0  0
   40.6600   31.2480   42.4490 C   0  0  0  0  0  2  0  0  0  0  0  0
   40.4670   29.8830   41.8740 C   0  0  2  0  0  3  0  0  0  0  0  0
   40.1110   29.9510   40.4210 C   0  0  2  0  0  3  0  0  0  0  0  0
   39.6610   31.5960   38.7060 O   0  0  0  0  0  0  0  0  0  0  0  0
   40.4680   31.8860   38.2000 H   0  0  0  0  0  0  0  0  0  0  0  0
   39.6170   29.0870   42.6340 O   0  0  0  0  0  0  0  0  0  0  0  0
   38.7790   28.8410   42.1630 H   0  0  0  0  0  0  0  0  0  0  0  0
   40.9600   29.2190   39.5960 O   0  0  0  0  0  0  0  0  0  0  0  0
   40.4260   28.9380   38.7900 H   0  0  0  0  0  0  0  0  0  0  0  0
  1  6  1  0  0  0  0
  1 11  1  0  0  0  0
  2  1  2  0  0  0  0
  3  4  2  0  0  0  0
  3  2  1  0  0  0  0
  4  5  1  0  0  0  0
  5 28  1  0  0  0  0
  5  6  2  0  0  0  0
  7  2  1  0  0  0  0
  8  3  1  0  0  0  0
  9 12  1  1  0  0  0
  9 16  1  0  0  0  0
 10 14  1  0  0  0  0
 10  9  1  0  0  0  0
 10 13  1  0  0  0  0
 11 15  1  6  0  0  0
 11 10  1  0  0  0  0
 11  9  1  0  0  0  0
 16 21  1  0  0  0  0
 17 16  2  0  0  0  0
 17 18  1  0  0  0  0
 18 19  2  0  0  0  0
 19 20  1  0  0  0  0
 20 24  1  0  0  0  0
 21 20  2  0  0  0  0
 22 17  1  0  0  0  0
 23 18  1  0  0  0  0
 24 27  1  0  0  0  0
 24 26  1  0  0  0  0
 24 25  1  0  0  0  0
 28 30  1  0  0  0  0
 29 28  1  0  0  0  0
 31 32  1  0  0  0  0
 31 28  1  0  0  0  0
 33 31  1  0  0  0  0
 34 40  1  6  0  0  0
 34 39  1  0  0  0  0
 34 35  1  0  0  0  0
 35 31  1  6  0  0  0
 35 36  1  0  0  0  0
 36 37  1  0  0  0  0
 38 37  1  0  0  0  0
 38 42  1  1  0  0  0
 39 44  1  6  0  0  0
 39 38  1  0  0  0  0
 41 40  1  0  0  0  0
 43 42  1  0  0  0  0
 45 44  1  0  0  0  0
M  END
>  <minimizedAffinity>
-5.80785275

>  <minimizedRMSD>
1.71033835

$$$$
