
 OpenBabel03242515563D

 40 43  0  0  1  0  0  0  0  0999 V2000
   45.9610   32.7730   46.4750 C   0  0  0  0  0  0  0  0  0  0  0  0
   45.4490   32.9080   47.7880 C   0  0  0  0  0  0  0  0  0  0  0  0
   45.6830   32.0010   48.7860 C   0  0  0  0  0  0  0  0  0  0  0  0
   46.4320   30.9090   48.5630 C   0  0  0  0  0  0  0  0  0  0  0  0
   46.9580   30.7200   47.3050 C   0  0  0  0  0  0  0  0  0  0  0  0
   47.7180   29.5970   47.0970 C   0  0  0  0  0  0  0  0  0  0  0  0
   48.2670   29.3550   45.8510 C   0  0  0  0  0  0  0  0  0  0  0  0
   48.0010   30.3030   44.8560 C   0  0  0  0  0  0  0  0  0  0  0  0
   47.2540   31.3620   45.1470 C   0  0  0  0  0  0  0  0  0  0  0  0
   46.7040   31.6510   46.3180 C   0  0  0  0  0  0  0  0  0  0  0  0
   44.8390   33.7700   48.0230 H   0  0  0  0  0  0  0  0  0  0  0  0
   45.2550   32.1740   49.7670 H   0  0  0  0  0  0  0  0  0  0  0  0
   46.5950   30.2210   49.3690 H   0  0  0  0  0  0  0  0  0  0  0  0
   47.8650   28.9070   47.9630 H   0  0  0  0  0  0  0  0  0  0  0  0
   48.8500   28.4090   45.8620 H   0  0  0  0  0  0  0  0  0  0  0  0
   48.5540   29.8470   44.0380 H   0  0  0  0  0  0  0  0  0  0  0  0
   44.4480   35.7350   45.1010 C   0  0  0  0  0  0  0  0  0  0  0  0
   45.0880   35.8400   43.8240 C   0  0  0  0  0  0  0  0  0  0  0  0
   46.0530   34.8690   43.4250 C   0  0  0  0  0  0  0  0  0  0  0  0
   46.3040   33.8930   44.3010 N   0  0  0  0  0  0  0  0  0  0  0  0
   45.7350   33.7760   45.4650 C   0  0  0  0  0  0  0  0  0  0  0  0
   44.8070   34.7030   45.8580 N   0  0  0  0  0  0  0  0  0  0  0  0
   43.7240   36.4840   45.3720 H   0  0  0  0  0  0  0  0  0  0  0  0
   46.4920   35.0030   42.4680 H   0  0  0  0  0  0  0  0  0  0  0  0
   44.7060   36.9450   43.0130 N   0  0  0  0  0  0  0  0  0  0  0  0
   44.4180   36.8290   42.0030 H   0  0  0  0  0  0  0  0  0  0  0  0
   44.6750   37.9140   43.3190 H   0  0  0  0  0  0  0  0  0  0  0  0
   47.1760   32.0610   44.0000 O   0  0  0  0  0  0  0  0  0  0  0  0
   48.3440   30.7760   42.2610 C   0  0  2  0  0  0  0  0  0  0  0  0
   47.9660   32.0790   42.8410 C   0  0  2  0  0  0  0  0  0  0  0  0
   49.1580   32.7850   43.1650 O   0  0  0  0  0  0  0  0  0  0  0  0
   49.5710   33.3780   41.9760 C   0  0  0  0  0  0  0  0  0  0  0  0
   49.7770   32.3110   40.9480 C   0  0  1  0  0  0  0  0  0  0  0  0
   49.6890   30.9310   41.5750 C   0  0  1  0  0  0  0  0  0  0  0  0
   47.4390   30.4050   41.2630 O   0  0  0  0  0  0  0  0  0  0  0  0
   46.9880   31.1720   40.8430 H   0  0  0  0  0  0  0  0  0  0  0  0
   48.8240   32.4470   39.9500 O   0  0  0  0  0  0  0  0  0  0  0  0
   49.2080   32.3450   39.0350 H   0  0  0  0  0  0  0  0  0  0  0  0
   50.6900   30.7450   42.5070 O   0  0  0  0  0  0  0  0  0  0  0  0
   50.7730   29.8200   42.7900 H   0  0  0  0  0  0  0  0  0  0  0  0
  1  2  1  0  0  0  0
  2 11  1  0  0  0  0
  2  3  2  0  0  0  0
  3 12  1  0  0  0  0
  4  3  1  0  0  0  0
  4 13  1  0  0  0  0
  5  4  2  0  0  0  0
  6  5  1  0  0  0  0
  6 14  1  0  0  0  0
  7 15  1  0  0  0  0
  7  6  2  0  0  0  0
  8  9  2  0  0  0  0
  8  7  1  0  0  0  0
  9 10  1  0  0  0  0
 10  1  2  0  0  0  0
 10  5  1  0  0  0  0
 16  8  1  0  0  0  0
 17 23  1  0  0  0  0
 17 22  1  0  0  0  0
 18 17  2  0  0  0  0
 19 18  1  0  0  0  0
 19 20  2  0  0  0  0
 20 21  1  0  0  0  0
 21 22  2  0  0  0  0
 21  1  1  0  0  0  0
 24 19  1  0  0  0  0
 25 27  1  0  0  0  0
 25 18  1  0  0  0  0
 26 25  1  0  0  0  0
 28  9  1  0  0  0  0
 29 35  1  6  0  0  0
 29 30  1  0  0  0  0
 30 31  1  0  0  0  0
 30 28  1  1  0  0  0
 32 31  1  0  0  0  0
 33 37  1  6  0  0  0
 33 34  1  0  0  0  0
 33 32  1  0  0  0  0
 34 29  1  0  0  0  0
 34 39  1  1  0  0  0
 36 35  1  0  0  0  0
 38 37  1  0  0  0  0
 39 40  1  0  0  0  0
M  END
>  <minimizedAffinity>
-6.25285816

>  <minimizedRMSD>
0.826185882

$$$$
