
 OpenBabel03252505433D

 45 48  0  0  1  0  0  0  0  0999 V2000
   42.7970   34.8330   40.0470 C   0  0  0  0  0  0  0  0  0  0  0  0
   42.6050   35.5240   38.8740 C   0  0  0  0  0  0  0  0  0  0  0  0
   41.4850   35.3830   38.0970 C   0  0  0  0  0  0  0  0  0  0  0  0
   40.5300   34.5160   38.5200 N   0  0  0  0  0  0  0  0  0  0  0  0
   40.7060   33.8220   39.6820 C   0  0  0  0  0  0  0  0  0  0  0  0
   41.8140   33.9720   40.4380 N   0  0  0  0  0  0  0  0  0  0  0  0
   43.3590   36.2060   38.5420 H   0  0  0  0  0  0  0  0  0  0  0  0
   41.3380   35.9320   37.1690 H   0  0  0  0  0  0  0  0  0  0  0  0
   43.9450   34.5300   42.2180 C   0  0  1  0  0  0  0  0  0  0  0  0
   44.0260   36.0720   41.9490 C   0  0  0  0  0  0  0  0  0  0  0  0
   44.0570   34.9960   40.8680 C   0  0  2  0  0  0  0  0  0  0  0  0
   42.9420   34.2660   42.6510 H   0  0  0  0  0  0  0  0  0  0  0  0
   44.9820   36.5600   42.2100 H   0  0  0  0  0  0  0  0  0  0  0  0
   43.0910   36.6420   41.9950 H   0  0  0  0  0  0  0  0  0  0  0  0
   44.9370   35.0400   40.2300 H   0  0  0  0  0  0  0  0  0  0  0  0
   45.0760   34.0070   43.0140 C   0  0  0  0  0  0  0  0  0  0  0  0
   46.3260   33.8900   42.3690 C   0  0  0  0  0  0  0  0  0  0  0  0
   47.4050   33.4030   43.0940 C   0  0  0  0  0  0  0  0  0  0  0  0
   47.1980   33.0640   44.3930 N   0  0  0  0  0  0  0  0  0  0  0  0
   46.0010   33.1880   44.9690 C   0  0  0  0  0  0  0  0  0  0  0  0
   44.9690   33.6570   44.2610 N   0  0  0  0  0  0  0  0  0  0  0  0
   46.4340   34.1790   41.3220 H   0  0  0  0  0  0  0  0  0  0  0  0
   48.3990   33.2960   42.6310 H   0  0  0  0  0  0  0  0  0  0  0  0
   45.9800   32.7630   46.4120 C   0  0  0  0  0  0  0  0  0  0  0  0
   45.0230   33.4650   47.1310 F   0  0  0  0  0  0  0  0  0  0  0  0
   47.2220   33.1000   47.0000 F   0  0  0  0  0  0  0  0  0  0  0  0
   45.8550   31.4040   46.4960 F   0  0  0  0  0  0  0  0  0  0  0  0
   39.6900   32.8680   40.1640 C   0  0  0  0  0  0  0  0  0  0  0  0
   38.7450   33.1170   39.6040 H   0  0  0  0  0  0  0  0  0  0  0  0
   39.5090   32.9730   41.2330 H   0  0  0  0  0  0  0  0  0  0  0  0
   40.0290   31.4520   39.7940 C   0  0  0  0  0  0  0  0  0  0  0  0
   39.9290   31.2660   38.7160 H   0  0  0  0  0  0  0  0  0  0  0  0
   41.0850   31.2550   40.1340 H   0  0  0  0  0  0  0  0  0  0  0  0
   39.5380   30.3350   41.9660 C   0  0  1  0  0  3  0  0  0  0  0  0
   39.1620   30.4680   40.5050 C   0  0  1  0  0  3  0  0  0  0  0  0
   37.8140   30.6150   40.3520 O   0  0  0  0  0  0  0  0  0  0  0  0
   37.0810   30.3230   41.4970 C   0  0  0  0  0  2  0  0  0  0  0  0
   37.4830   29.0470   42.1590 C   0  0  2  0  0  3  0  0  0  0  0  0
   38.9520   29.0260   42.4540 C   0  0  2  0  0  3  0  0  0  0  0  0
   40.9210   30.3880   42.1160 O   0  0  0  0  0  0  0  0  0  0  0  0
   41.1000   31.0340   42.8520 H   0  0  0  0  0  0  0  0  0  0  0  0
   37.0190   27.9170   41.4940 O   0  0  0  0  0  0  0  0  0  0  0  0
   37.7430   27.3500   41.1230 H   0  0  0  0  0  0  0  0  0  0  0  0
   39.2570   28.7910   43.7920 O   0  0  0  0  0  0  0  0  0  0  0  0
   40.1600   28.3460   43.8190 H   0  0  0  0  0  0  0  0  0  0  0  0
  1  6  1  0  0  0  0
  1 11  1  0  0  0  0
  2  1  2  0  0  0  0
  3  4  2  0  0  0  0
  3  2  1  0  0  0  0
  4  5  1  0  0  0  0
  5 28  1  0  0  0  0
  5  6  2  0  0  0  0
  7  2  1  0  0  0  0
  8  3  1  0  0  0  0
  9 12  1  1  0  0  0
  9 16  1  0  0  0  0
 10 14  1  0  0  0  0
 10 13  1  0  0  0  0
 10  9  1  0  0  0  0
 11 15  1  6  0  0  0
 11 10  1  0  0  0  0
 11  9  1  0  0  0  0
 16 21  1  0  0  0  0
 17 16  2  0  0  0  0
 17 18  1  0  0  0  0
 18 19  2  0  0  0  0
 19 20  1  0  0  0  0
 20 24  1  0  0  0  0
 21 20  2  0  0  0  0
 22 17  1  0  0  0  0
 23 18  1  0  0  0  0
 24 27  1  0  0  0  0
 24 26  1  0  0  0  0
 24 25  1  0  0  0  0
 28 30  1  0  0  0  0
 29 28  1  0  0  0  0
 31 33  1  0  0  0  0
 31 28  1  0  0  0  0
 32 31  1  0  0  0  0
 34 40  1  6  0  0  0
 34 39  1  0  0  0  0
 35 31  1  1  0  0  0
 35 34  1  0  0  0  0
 36 35  1  0  0  0  0
 36 37  1  0  0  0  0
 37 38  1  0  0  0  0
 38 42  1  6  0  0  0
 38 39  1  0  0  0  0
 39 44  1  1  0  0  0
 40 41  1  0  0  0  0
 43 42  1  0  0  0  0
 44 45  1  0  0  0  0
M  END
>  <minimizedAffinity>
-6.18039083

>  <minimizedRMSD>
2.34600711

$$$$
