
 OpenBabel03252502243D

 37 39  0  0  1  0  0  0  0  0999 V2000
   46.8280   34.5960   42.1830 N   0  0  0  0  0  0  0  0  0  0  0  0
   48.2690   34.4590   42.2620 C   0  0  0  0  0  0  0  0  0  0  0  0
   48.7890   35.2930   41.0740 C   0  0  0  0  0  0  0  0  0  0  0  0
   48.3850   34.5960   39.7960 C   0  0  0  0  0  0  0  0  0  0  0  0
   46.9870   34.0720   39.7960 C   0  0  0  0  0  0  0  0  0  0  0  0
   46.1330   34.5190   40.9440 C   0  0  1  0  0  0  0  0  0  0  0  0
   48.6950   34.7900   43.2020 H   0  0  0  0  0  0  0  0  0  0  0  0
   48.5100   33.4100   41.9810 H   0  0  0  0  0  0  0  0  0  0  0  0
   48.2560   36.2810   41.1500 H   0  0  0  0  0  0  0  0  0  0  0  0
   49.8750   35.4070   41.0890 H   0  0  0  0  0  0  0  0  0  0  0  0
   48.6050   35.2830   38.9550 H   0  0  0  0  0  0  0  0  0  0  0  0
   49.0980   33.7330   39.6850 H   0  0  0  0  0  0  0  0  0  0  0  0
   46.9880   32.9490   39.8100 H   0  0  0  0  0  0  0  0  0  0  0  0
   46.5280   34.3500   38.8250 H   0  0  0  0  0  0  0  0  0  0  0  0
   45.7720   35.5520   40.7210 H   0  0  0  0  0  0  0  0  0  0  0  0
   44.5060   36.0610   44.7270 C   0  0  0  0  0  0  0  0  0  0  0  0
   45.2260   35.9470   43.5250 C   0  0  0  0  0  0  0  0  0  0  0  0
   46.0510   34.8160   43.3630 C   0  0  0  0  0  0  0  0  0  0  0  0
   46.0900   33.9180   44.3780 N   0  0  0  0  0  0  0  0  0  0  0  0
   45.3800   34.0640   45.5200 C   0  0  0  0  0  0  0  0  0  0  0  0
   44.5790   35.1570   45.6850 N   0  0  0  0  0  0  0  0  0  0  0  0
   43.8710   36.9220   44.8640 H   0  0  0  0  0  0  0  0  0  0  0  0
   45.1810   36.6730   42.7290 H   0  0  0  0  0  0  0  0  0  0  0  0
   45.4370   33.3250   46.3100 H   0  0  0  0  0  0  0  0  0  0  0  0
   45.0680   33.6120   41.0680 O   0  0  0  0  0  0  0  0  0  0  0  0
   43.2640   34.2730   39.5820 C   0  0  2  0  0  0  0  0  0  0  0  0
   43.8310   34.1920   40.9550 C   0  0  1  0  0  0  0  0  0  0  0  0
   42.8700   33.7390   41.8290 O   0  0  0  0  0  0  0  0  0  0  0  0
   42.8400   32.3290   41.7140 C   0  0  0  0  0  0  0  0  0  0  0  0
   42.6080   31.9400   40.2800 C   0  0  1  0  0  0  0  0  0  0  0  0
   42.2580   33.1500   39.4290 C   0  0  2  0  0  0  0  0  0  0  0  0
   44.2040   34.1000   38.5750 O   0  0  0  0  0  0  0  0  0  0  0  0
   43.8150   34.3280   37.7080 H   0  0  0  0  0  0  0  0  0  0  0  0
   43.7520   31.3240   39.8010 O   0  0  0  0  0  0  0  0  0  0  0  0
   43.6120   31.0400   38.8470 H   0  0  0  0  0  0  0  0  0  0  0  0
   42.2200   32.7650   38.0920 O   0  0  0  0  0  0  0  0  0  0  0  0
   41.9280   33.5190   37.5500 H   0  0  0  0  0  0  0  0  0  0  0  0
  1  2  1  0  0  0  0
  1 18  1  0  0  0  0
  2  7  1  0  0  0  0
  3 10  1  0  0  0  0
  3  9  1  0  0  0  0
  3  2  1  0  0  0  0
  4  3  1  0  0  0  0
  5  4  1  0  0  0  0
  5 13  1  0  0  0  0
  5  6  1  0  0  0  0
  6 15  1  6  0  0  0
  6 25  1  0  0  0  0
  6  1  1  0  0  0  0
  8  2  1  0  0  0  0
 11  4  1  0  0  0  0
 12  4  1  0  0  0  0
 14  5  1  0  0  0  0
 16 22  1  0  0  0  0
 16 21  1  0  0  0  0
 17 16  2  0  0  0  0
 18 17  1  0  0  0  0
 18 19  2  0  0  0  0
 19 20  1  0  0  0  0
 20 21  2  0  0  0  0
 20 24  1  0  0  0  0
 23 17  1  0  0  0  0
 26 32  1  6  0  0  0
 26 27  1  0  0  0  0
 27 25  1  6  0  0  0
 27 28  1  0  0  0  0
 29 28  1  0  0  0  0
 30 34  1  6  0  0  0
 30 29  1  0  0  0  0
 31 36  1  6  0  0  0
 31 26  1  0  0  0  0
 31 30  1  0  0  0  0
 33 32  1  0  0  0  0
 35 34  1  0  0  0  0
 37 36  1  0  0  0  0
M  END
>  <minimizedAffinity>
-5.69978142

>  <minimizedRMSD>
0.645231128

$$$$
