
 OpenBabel03252508473D

 48 50  0  0  1  0  0  0  0  0999 V2000
   42.1650   31.9150   42.4880 N   0  0  0  0  0  0  0  0  0  0  0  0
   42.1940   32.4710   43.3860 H   0  0  0  0  0  0  0  0  0  0  0  0
   43.0430   32.5390   41.5540 C   0  0  0  0  0  0  0  0  0  0  0  0
   43.7020   31.8150   41.0150 H   0  0  0  0  0  0  0  0  0  0  0  0
   42.3910   33.0150   40.7710 H   0  0  0  0  0  0  0  0  0  0  0  0
   43.6690   34.9440   41.7960 C   0  0  0  0  0  0  0  0  0  0  0  0
   43.8930   33.6220   42.1210 C   0  0  0  0  0  0  0  0  0  0  0  0
   44.9290   33.3260   42.9890 C   0  0  0  0  0  0  0  0  0  0  0  0
   45.7060   34.3240   43.5070 C   0  0  0  0  0  0  0  0  0  0  0  0
   45.4920   35.6460   43.1900 C   0  0  0  0  0  0  0  0  0  0  0  0
   44.4510   35.8970   42.3220 C   0  0  0  0  0  0  0  0  0  0  0  0
   45.1050   32.2800   43.2460 H   0  0  0  0  0  0  0  0  0  0  0  0
   46.4950   34.0060   44.1770 H   0  0  0  0  0  0  0  0  0  0  0  0
   46.1210   36.4290   43.6100 H   0  0  0  0  0  0  0  0  0  0  0  0
   44.2280   36.9230   42.0290 H   0  0  0  0  0  0  0  0  0  0  0  0
   40.3390   35.8950   40.2820 C   0  0  0  0  0  0  0  0  0  0  0  0
   41.3330   35.6880   41.2550 C   0  0  0  0  0  0  0  0  0  0  0  0
   42.5640   35.1980   40.8760 C   0  0  0  0  0  0  0  0  0  0  0  0
   42.7470   34.9360   39.5500 N   0  0  0  0  0  0  0  0  0  0  0  0
   41.7810   35.1400   38.6210 C   0  0  0  0  0  0  0  0  0  0  0  0
   40.5880   35.6180   39.0010 N   0  0  0  0  0  0  0  0  0  0  0  0
   39.3750   36.2870   40.6340 H   0  0  0  0  0  0  0  0  0  0  0  0
   41.2040   35.8890   42.3010 H   0  0  0  0  0  0  0  0  0  0  0  0
   41.9820   34.9140   37.5730 H   0  0  0  0  0  0  0  0  0  0  0  0
   40.5210   31.9740   41.9950 S   0  0  0  0  0  0  0  0  0  0  0  0
   39.8150   33.1420   42.6210 O   0  0  0  0  0  0  0  0  0  0  0  0
   39.0840   33.0110   43.2500 H   0  0  0  0  0  0  0  0  0  0  0  0
   39.8170   30.6940   42.3100 O   0  0  0  0  0  0  0  0  0  0  0  0
   39.7200   30.3910   43.2350 H   0  0  0  0  0  0  0  0  0  0  0  0
   40.5320   32.1790   40.3280 O   0  0  0  0  0  0  0  0  0  0  0  0
   39.3680   31.6140   39.8070 C   0  0  0  0  0  0  0  0  0  0  0  0
   38.7920   32.4610   39.3820 H   0  0  0  0  0  0  0  0  0  0  0  0
   38.7570   31.0880   40.5500 H   0  0  0  0  0  0  0  0  0  0  0  0
   39.7550   30.7130   38.6420 C   0  0  0  0  0  0  0  0  0  0  0  0
   39.3820   31.1660   37.7110 H   0  0  0  0  0  0  0  0  0  0  0  0
   40.8650   30.5790   38.6120 H   0  0  0  0  0  0  0  0  0  0  0  0
   37.6680   29.3850   38.9670 C   0  0  2  0  0  3  0  0  0  0  0  0
   39.1530   29.3530   38.9100 C   0  0  2  0  0  3  0  0  0  0  0  0
   39.7560   28.8830   40.0710 O   0  0  0  0  0  0  0  0  0  0  0  0
   39.1460   27.7820   40.6210 C   0  0  0  0  0  2  0  0  0  0  0  0
   37.7570   28.0980   41.1200 C   0  0  1  0  0  3  0  0  0  0  0  0
   37.0780   29.1690   40.3380 C   0  0  2  0  0  3  0  0  0  0  0  0
   37.1070   28.4250   38.0870 O   0  0  0  0  0  0  0  0  0  0  0  0
   37.7670   28.1190   37.4330 H   0  0  0  0  0  0  0  0  0  0  0  0
   36.9510   26.9610   41.1600 O   0  0  0  0  0  0  0  0  0  0  0  0
   36.0220   27.2740   41.3040 H   0  0  0  0  0  0  0  0  0  0  0  0
   35.7330   28.7980   40.1050 O   0  0  0  0  0  0  0  0  0  0  0  0
   35.3920   29.5300   39.4960 H   0  0  0  0  0  0  0  0  0  0  0  0
  1  2  1  0  0  0  0
  3  7  1  0  0  0  0
  3  1  1  0  0  0  0
  4  3  1  0  0  0  0
  5  3  1  0  0  0  0
  6  7  2  0  0  0  0
  6 11  1  0  0  0  0
  7  8  1  0  0  0  0
  8 12  1  0  0  0  0
  8  9  2  0  0  0  0
  9 13  1  0  0  0  0
 10  9  1  0  0  0  0
 10 14  1  0  0  0  0
 11 10  2  0  0  0  0
 15 11  1  0  0  0  0
 16 22  1  0  0  0  0
 16 17  1  0  0  0  0
 17 23  1  0  0  0  0
 18 17  2  0  0  0  0
 18  6  1  0  0  0  0
 19 18  1  0  0  0  0
 20 21  1  0  0  0  0
 20 19  2  0  0  0  0
 21 16  2  0  0  0  0
 24 20  1  0  0  0  0
 25 28  1  0  0  0  0
 25  1  1  0  0  0  0
 25 26  1  0  0  0  0
 26 27  1  0  0  0  0
 28 29  1  0  0  0  0
 30 25  1  0  0  0  0
 31 30  1  0  0  0  0
 31 33  1  0  0  0  0
 32 31  1  0  0  0  0
 34 31  1  0  0  0  0
 35 34  1  0  0  0  0
 36 34  1  0  0  0  0
 37 43  1  6  0  0  0
 37 42  1  0  0  0  0
 38 34  1  1  0  0  0
 38 37  1  0  0  0  0
 38 39  1  0  0  0  0
 39 40  1  0  0  0  0
 40 41  1  0  0  0  0
 41 45  1  6  0  0  0
 42 47  1  6  0  0  0
 42 41  1  0  0  0  0
 44 43  1  0  0  0  0
 45 46  1  0  0  0  0
 48 47  1  0  0  0  0
M  END
>  <minimizedAffinity>
-5.72723007

>  <minimizedRMSD>
2.24613261

$$$$
