
 OpenBabel03252508473D

 48 50  0  0  1  0  0  0  0  0999 V2000
   42.6660   31.3740   42.6180 N   0  0  0  0  0  0  0  0  0  0  0  0
   42.8920   31.7150   43.5920 H   0  0  0  0  0  0  0  0  0  0  0  0
   42.9720   32.4220   41.7010 C   0  0  0  0  0  0  0  0  0  0  0  0
   43.3920   32.0550   40.7330 H   0  0  0  0  0  0  0  0  0  0  0  0
   41.9970   32.9240   41.4520 H   0  0  0  0  0  0  0  0  0  0  0  0
   43.6740   34.8090   41.9250 C   0  0  0  0  0  0  0  0  0  0  0  0
   43.8730   33.4790   42.2370 C   0  0  0  0  0  0  0  0  0  0  0  0
   44.9340   33.1510   43.0630 C   0  0  0  0  0  0  0  0  0  0  0  0
   45.7580   34.1250   43.5530 C   0  0  0  0  0  0  0  0  0  0  0  0
   45.5690   35.4530   43.2490 C   0  0  0  0  0  0  0  0  0  0  0  0
   44.5020   35.7380   42.4230 C   0  0  0  0  0  0  0  0  0  0  0  0
   45.0910   32.1000   43.3100 H   0  0  0  0  0  0  0  0  0  0  0  0
   46.5640   33.7820   44.1900 H   0  0  0  0  0  0  0  0  0  0  0  0
   46.2350   36.2170   43.6460 H   0  0  0  0  0  0  0  0  0  0  0  0
   44.2960   36.7710   42.1430 H   0  0  0  0  0  0  0  0  0  0  0  0
   40.2700   35.7220   40.5610 C   0  0  0  0  0  0  0  0  0  0  0  0
   41.2900   35.4680   41.4950 C   0  0  0  0  0  0  0  0  0  0  0  0
   42.5410   35.0970   41.0510 C   0  0  0  0  0  0  0  0  0  0  0  0
   42.7170   34.9960   39.7020 N   0  0  0  0  0  0  0  0  0  0  0  0
   41.7250   35.2440   38.8110 C   0  0  0  0  0  0  0  0  0  0  0  0
   40.5130   35.6040   39.2550 N   0  0  0  0  0  0  0  0  0  0  0  0
   39.2900   36.0140   40.9640 H   0  0  0  0  0  0  0  0  0  0  0  0
   41.1670   35.5430   42.5580 H   0  0  0  0  0  0  0  0  0  0  0  0
   41.9220   35.1480   37.7430 H   0  0  0  0  0  0  0  0  0  0  0  0
   40.9880   31.0070   42.6670 S   0  0  0  0  0  0  0  0  0  0  0  0
   40.1630   32.2300   42.3920 O   0  0  0  0  0  0  0  0  0  0  0  0
   39.5740   32.6040   43.0710 H   0  0  0  0  0  0  0  0  0  0  0  0
   40.6100   30.3910   43.9760 O   0  0  0  0  0  0  0  0  0  0  0  0
   40.7130   30.8890   44.8120 H   0  0  0  0  0  0  0  0  0  0  0  0
   40.7110   29.8820   41.4510 O   0  0  0  0  0  0  0  0  0  0  0  0
   40.1330   28.7490   42.0210 C   0  0  0  0  0  0  0  0  0  0  0  0
   39.2660   28.5010   41.3740 H   0  0  0  0  0  0  0  0  0  0  0  0
   39.7920   28.8940   43.0530 H   0  0  0  0  0  0  0  0  0  0  0  0
   41.1190   27.5960   41.9000 C   0  0  0  0  0  0  0  0  0  0  0  0
   40.9870   27.1250   40.9140 H   0  0  0  0  0  0  0  0  0  0  0  0
   42.1650   27.9710   42.0330 H   0  0  0  0  0  0  0  0  0  0  0  0
   41.4320   27.1100   44.3270 C   0  0  2  0  0  3  0  0  0  0  0  0
   40.8410   26.6470   43.0420 C   0  0  2  0  0  3  0  0  0  0  0  0
   41.2880   25.3970   42.6280 O   0  0  0  0  0  0  0  0  0  0  0  0
   41.3660   24.4640   43.6310 C   0  0  0  0  0  2  0  0  0  0  0  0
   42.4130   24.8230   44.6570 C   0  0  1  0  0  3  0  0  0  0  0  0
   42.5990   26.2920   44.8210 C   0  0  2  0  0  3  0  0  0  0  0  0
   40.4520   27.1470   45.3510 O   0  0  0  0  0  0  0  0  0  0  0  0
   39.5510   27.1230   44.9730 H   0  0  0  0  0  0  0  0  0  0  0  0
   42.1450   24.2410   45.8960 O   0  0  0  0  0  0  0  0  0  0  0  0
   42.7510   24.6710   46.5500 H   0  0  0  0  0  0  0  0  0  0  0  0
   42.7060   26.6010   46.1970 O   0  0  0  0  0  0  0  0  0  0  0  0
   42.7320   27.6100   46.2080 H   0  0  0  0  0  0  0  0  0  0  0  0
  1 25  1  0  0  0  0
  1  2  1  0  0  0  0
  3  7  1  0  0  0  0
  3  1  1  0  0  0  0
  4  3  1  0  0  0  0
  5  3  1  0  0  0  0
  6  7  2  0  0  0  0
  6 11  1  0  0  0  0
  7  8  1  0  0  0  0
  8 12  1  0  0  0  0
  8  9  2  0  0  0  0
  9 13  1  0  0  0  0
 10  9  1  0  0  0  0
 10 14  1  0  0  0  0
 11 10  2  0  0  0  0
 15 11  1  0  0  0  0
 16 22  1  0  0  0  0
 16 17  1  0  0  0  0
 17 23  1  0  0  0  0
 18 17  2  0  0  0  0
 18  6  1  0  0  0  0
 19 18  1  0  0  0  0
 20 21  1  0  0  0  0
 20 19  2  0  0  0  0
 21 16  2  0  0  0  0
 24 20  1  0  0  0  0
 25 28  1  0  0  0  0
 26 25  1  0  0  0  0
 26 27  1  0  0  0  0
 28 29  1  0  0  0  0
 30 31  1  0  0  0  0
 30 25  1  0  0  0  0
 31 33  1  0  0  0  0
 32 31  1  0  0  0  0
 34 31  1  0  0  0  0
 34 36  1  0  0  0  0
 35 34  1  0  0  0  0
 37 42  1  0  0  0  0
 37 43  1  1  0  0  0
 38 34  1  6  0  0  0
 38 37  1  0  0  0  0
 39 38  1  0  0  0  0
 39 40  1  0  0  0  0
 40 41  1  0  0  0  0
 41 42  1  0  0  0  0
 41 45  1  1  0  0  0
 42 47  1  1  0  0  0
 44 43  1  0  0  0  0
 45 46  1  0  0  0  0
 47 48  1  0  0  0  0
M  END
>  <minimizedAffinity>
-5.33181477

>  <minimizedRMSD>
1.38219512

$$$$
