
 OpenBabel03242522503D

 29 30  0  0  1  0  0  0  0  0999 V2000
   47.3920   32.0470   48.2310 O   0  0  0  0  0  0  0  0  0  0  0  0
   45.1940   30.8130   47.5270 O   0  0  0  0  0  0  0  0  0  0  0  0
   45.7410   32.0170   48.3280 P   0  0  1  0  0  0  0  0  0  0  0  0
   45.2090   31.7900   49.9060 O   0  0  0  0  0  0  0  0  0  0  0  0
   44.5780   32.4840   50.2230 H   0  0  0  0  0  0  0  0  0  0  0  0
   45.0840   33.4280   47.6810 O   0  0  0  0  0  0  0  0  0  0  0  0
   46.6920   33.5010   44.4240 C   0  0  0  0  0  0  0  0  0  0  0  0
   46.3640   33.1340   45.7410 C   0  0  0  0  0  0  0  0  0  0  0  0
   45.3680   33.8240   46.3920 C   0  0  0  0  0  0  0  0  0  0  0  0
   44.7530   34.8260   45.7230 N   0  0  0  0  0  0  0  0  0  0  0  0
   45.0610   35.1780   44.4700 C   0  0  0  0  0  0  0  0  0  0  0  0
   46.0440   34.5050   43.8150 N   0  0  0  0  0  0  0  0  0  0  0  0
   47.4570   33.0210   43.8290 H   0  0  0  0  0  0  0  0  0  0  0  0
   46.9620   32.3260   46.0720 H   0  0  0  0  0  0  0  0  0  0  0  0
   44.5540   35.9770   43.9680 H   0  0  0  0  0  0  0  0  0  0  0  0
   48.3340   31.1580   48.6260 C   0  0  0  0  0  0  0  0  0  0  0  0
   49.3570   31.7160   49.1560 O   0  0  0  0  0  0  0  0  0  0  0  0
   50.0910   30.0410   49.9670 C   0  0  2  0  0  3  0  0  0  0  0  0
   49.0460   29.8920   48.8830 C   0  0  2  0  0  3  0  0  0  0  0  0
   49.5720   29.3470   47.7190 O   0  0  0  0  0  0  0  0  0  0  0  0
   50.9060   29.6000   47.5100 C   0  0  0  0  0  2  0  0  0  0  0  0
   51.8350   29.1530   48.5930 C   0  0  2  0  0  3  0  0  0  0  0  0
   50.9860   28.8190   49.8070 C   0  0  1  0  0  3  0  0  0  0  0  0
   49.4720   30.0180   51.2390 O   0  0  0  0  0  0  0  0  0  0  0  0
   49.5210   29.0920   51.5940 H   0  0  0  0  0  0  0  0  0  0  0  0
   52.6490   30.2320   49.0070 O   0  0  0  0  0  0  0  0  0  0  0  0
   53.0770   30.6860   48.2520 H   0  0  0  0  0  0  0  0  0  0  0  0
   51.7690   28.5850   50.9260 O   0  0  0  0  0  0  0  0  0  0  0  0
   51.5580   29.2080   51.6470 H   0  0  0  0  0  0  0  0  0  0  0  0
  1  3  1  0  0  0  0
  1 16  1  0  0  0  0
  3  2  2  6  0  0  0
  3  4  1  0  0  0  0
  4  5  1  0  0  0  0
  6  3  1  0  0  0  0
  7  8  1  0  0  0  0
  8 14  1  0  0  0  0
  8  9  2  0  0  0  0
  9  6  1  0  0  0  0
 10  9  1  0  0  0  0
 11 10  2  0  0  0  0
 12  7  2  0  0  0  0
 12 11  1  0  0  0  0
 13  7  1  0  0  0  0
 15 11  1  0  0  0  0
 16 17  2  0  0  0  0
 18 24  1  1  0  0  0
 19 16  1  6  0  0  0
 19 18  1  0  0  0  0
 20 19  1  0  0  0  0
 21 20  1  0  0  0  0
 21 22  1  0  0  0  0
 22 26  1  1  0  0  0
 22 23  1  0  0  0  0
 23 18  1  0  0  0  0
 23 28  1  1  0  0  0
 24 25  1  0  0  0  0
 27 26  1  0  0  0  0
 28 29  1  0  0  0  0
M  END
>  <minimizedAffinity>
-5.09741497

>  <minimizedRMSD>
0.542856038

$$$$
