
 OpenBabel03242522503D

 29 30  0  0  1  0  0  0  0  0999 V2000
   47.3880   31.7220   48.3570 O   0  0  0  0  0  0  0  0  0  0  0  0
   45.1060   30.6090   47.7230 O   0  0  0  0  0  0  0  0  0  0  0  0
   45.7390   31.8320   48.4250 P   0  0  1  0  0  0  0  0  0  0  0  0
   45.1710   31.7910   50.0060 O   0  0  0  0  0  0  0  0  0  0  0  0
   44.5940   32.5600   50.2480 H   0  0  0  0  0  0  0  0  0  0  0  0
   45.2070   33.2280   47.6420 O   0  0  0  0  0  0  0  0  0  0  0  0
   47.0480   33.0170   44.5170 C   0  0  0  0  0  0  0  0  0  0  0  0
   46.6200   32.7630   45.8320 C   0  0  0  0  0  0  0  0  0  0  0  0
   45.5890   33.5130   46.3490 C   0  0  0  0  0  0  0  0  0  0  0  0
   45.0390   34.4610   45.5570 N   0  0  0  0  0  0  0  0  0  0  0  0
   45.4420   34.7070   44.3060 C   0  0  0  0  0  0  0  0  0  0  0  0
   46.4600   33.9730   43.7820 N   0  0  0  0  0  0  0  0  0  0  0  0
   47.8470   32.4840   44.0210 H   0  0  0  0  0  0  0  0  0  0  0  0
   47.1810   31.9800   46.2710 H   0  0  0  0  0  0  0  0  0  0  0  0
   44.9840   35.4660   43.7040 H   0  0  0  0  0  0  0  0  0  0  0  0
   48.2370   30.7140   48.6670 C   0  0  0  0  0  0  0  0  0  0  0  0
   48.6830   30.7860   49.8650 O   0  0  0  0  0  0  0  0  0  0  0  0
   50.4480   29.8000   48.0300 C   0  0  2  0  0  3  0  0  0  0  0  0
   49.0650   29.4970   48.5640 C   0  0  2  0  0  3  0  0  0  0  0  0
   48.4290   28.4980   47.8380 O   0  0  0  0  0  0  0  0  0  0  0  0
   48.8150   28.4000   46.5220 C   0  0  0  0  0  2  0  0  0  0  0  0
   50.2730   28.1750   46.2820 C   0  0  2  0  0  3  0  0  0  0  0  0
   50.9950   28.4460   47.5920 C   0  0  1  0  0  3  0  0  0  0  0  0
   51.2580   30.3300   49.0600 O   0  0  0  0  0  0  0  0  0  0  0  0
   51.7880   29.5900   49.4560 H   0  0  0  0  0  0  0  0  0  0  0  0
   50.7720   29.1490   45.3880 O   0  0  0  0  0  0  0  0  0  0  0  0
   50.2220   29.2270   44.5800 H   0  0  0  0  0  0  0  0  0  0  0  0
   52.3690   28.4570   47.4230 O   0  0  0  0  0  0  0  0  0  0  0  0
   52.7540   29.3170   47.6800 H   0  0  0  0  0  0  0  0  0  0  0  0
  1  3  1  0  0  0  0
  1 16  1  0  0  0  0
  3  2  2  6  0  0  0
  3  4  1  0  0  0  0
  4  5  1  0  0  0  0
  6  3  1  0  0  0  0
  7  8  1  0  0  0  0
  8 14  1  0  0  0  0
  8  9  2  0  0  0  0
  9  6  1  0  0  0  0
 10  9  1  0  0  0  0
 11 10  2  0  0  0  0
 12 11  1  0  0  0  0
 12  7  2  0  0  0  0
 13  7  1  0  0  0  0
 15 11  1  0  0  0  0
 16 17  2  0  0  0  0
 18 19  1  0  0  0  0
 18 24  1  1  0  0  0
 19 16  1  6  0  0  0
 20 19  1  0  0  0  0
 21 20  1  0  0  0  0
 22 26  1  6  0  0  0
 22 21  1  0  0  0  0
 22 23  1  0  0  0  0
 23 28  1  6  0  0  0
 23 18  1  0  0  0  0
 24 25  1  0  0  0  0
 27 26  1  0  0  0  0
 28 29  1  0  0  0  0
M  END
>  <minimizedAffinity>
-4.56760311

>  <minimizedRMSD>
0.800411344

$$$$
