
 OpenBabel03242520483D

 22 23  0  0  1  0  0  0  0  0999 V2000
   48.5720   34.9010   42.2870 C   0  0  1  0  0  3  0  0  0  0  0  0
   47.6500   34.2800   41.3000 C   0  0  1  0  0  3  0  0  0  0  0  0
   47.6550   32.9340   41.1650 O   0  0  0  0  0  0  0  0  0  0  0  0
   48.5290   32.2170   41.9450 C   0  0  0  0  0  2  0  0  0  0  0  0
   49.8840   32.8790   41.7470 C   0  0  1  0  0  3  0  0  0  0  0  0
   49.7900   34.1060   42.6350 C   0  0  1  0  0  3  0  0  0  0  0  0
   49.0160   36.1500   41.8450 O   0  0  0  0  0  0  0  0  0  0  0  0
   49.4270   36.7060   42.5240 H   0  0  0  0  0  0  0  0  0  0  0  0
   50.9030   32.0400   42.0970 O   0  0  0  0  0  0  0  0  0  0  0  0
   51.5850   32.5310   42.6130 H   0  0  0  0  0  0  0  0  0  0  0  0
   50.9810   34.8150   42.4400 O   0  0  0  0  0  0  0  0  0  0  0  0
   51.4140   35.0630   43.3090 H   0  0  0  0  0  0  0  0  0  0  0  0
   46.3110   34.7150   41.4720 O   0  0  0  0  0  0  0  0  0  0  0  0
   44.6690   36.2510   44.4270 C   0  0  0  0  0  0  0  0  0  0  0  0
   45.1780   36.1500   43.1310 C   0  0  0  0  0  0  0  0  0  0  0  0
   45.7660   34.9530   42.7270 C   0  0  0  0  0  0  0  0  0  0  0  0
   45.8140   33.9270   43.6340 N   0  0  0  0  0  0  0  0  0  0  0  0
   45.3140   34.0530   44.8780 C   0  0  0  0  0  0  0  0  0  0  0  0
   44.7410   35.2180   45.2740 N   0  0  0  0  0  0  0  0  0  0  0  0
   44.2170   37.1810   44.7290 H   0  0  0  0  0  0  0  0  0  0  0  0
   45.1490   36.9540   42.3980 H   0  0  0  0  0  0  0  0  0  0  0  0
   45.4290   33.1470   45.4780 H   0  0  0  0  0  0  0  0  0  0  0  0
  1  7  1  6  0  0  0
  1  6  1  0  0  0  0
  2 13  1  1  0  0  0
  2  1  1  0  0  0  0
  3  2  1  0  0  0  0
  3  4  1  0  0  0  0
  5  4  1  0  0  0  0
  5  9  1  1  0  0  0
  5  6  1  0  0  0  0
  6 11  1  6  0  0  0
  7  8  1  0  0  0  0
  9 10  1  0  0  0  0
 11 12  1  0  0  0  0
 13 16  1  0  0  0  0
 14 20  1  0  0  0  0
 14 19  1  0  0  0  0
 15 14  2  0  0  0  0
 16 15  1  0  0  0  0
 16 17  2  0  0  0  0
 17 18  1  0  0  0  0
 18 19  2  0  0  0  0
 18 22  1  0  0  0  0
 21 15  1  0  0  0  0
M  END
>  <minimizedAffinity>
-4.95371723

>  <minimizedRMSD>
1.05149806

$$$$
