
 OpenBabel03252508473D

 48 50  0  0  1  0  0  0  0  0999 V2000
   42.7680   31.5360   42.5840 N   0  0  0  0  0  0  0  0  0  0  0  0
   42.9540   31.9060   43.5560 H   0  0  0  0  0  0  0  0  0  0  0  0
   43.0800   32.5690   41.6510 C   0  0  0  0  0  0  0  0  0  0  0  0
   43.5470   32.1890   40.7100 H   0  0  0  0  0  0  0  0  0  0  0  0
   42.1020   33.0360   41.3520 H   0  0  0  0  0  0  0  0  0  0  0  0
   43.6670   34.9840   41.8880 C   0  0  0  0  0  0  0  0  0  0  0  0
   43.9300   33.6640   42.1930 C   0  0  0  0  0  0  0  0  0  0  0  0
   45.0060   33.3830   43.0160 C   0  0  0  0  0  0  0  0  0  0  0  0
   45.7830   34.3930   43.5110 C   0  0  0  0  0  0  0  0  0  0  0  0
   45.5310   35.7120   43.2140 C   0  0  0  0  0  0  0  0  0  0  0  0
   44.4500   35.9490   42.3900 C   0  0  0  0  0  0  0  0  0  0  0  0
   45.2140   32.3390   43.2570 H   0  0  0  0  0  0  0  0  0  0  0  0
   46.6050   34.0850   44.1460 H   0  0  0  0  0  0  0  0  0  0  0  0
   46.1600   36.5050   43.6150 H   0  0  0  0  0  0  0  0  0  0  0  0
   44.1950   36.9730   42.1160 H   0  0  0  0  0  0  0  0  0  0  0  0
   40.2340   35.7890   40.5280 C   0  0  0  0  0  0  0  0  0  0  0  0
   41.2670   35.5840   41.4590 C   0  0  0  0  0  0  0  0  0  0  0  0
   42.5210   35.2230   41.0160 C   0  0  0  0  0  0  0  0  0  0  0  0
   42.6870   35.0820   39.6690 N   0  0  0  0  0  0  0  0  0  0  0  0
   41.6830   35.2820   38.7810 C   0  0  0  0  0  0  0  0  0  0  0  0
   40.4670   35.6340   39.2240 N   0  0  0  0  0  0  0  0  0  0  0  0
   39.2520   36.0750   40.9310 H   0  0  0  0  0  0  0  0  0  0  0  0
   41.1520   35.6910   42.5210 H   0  0  0  0  0  0  0  0  0  0  0  0
   41.8710   35.1560   37.7140 H   0  0  0  0  0  0  0  0  0  0  0  0
   41.1000   31.1280   42.5870 S   0  0  0  0  0  0  0  0  0  0  0  0
   40.2590   32.3060   42.1870 O   0  0  0  0  0  0  0  0  0  0  0  0
   39.6310   32.7130   42.8100 H   0  0  0  0  0  0  0  0  0  0  0  0
   40.6770   30.5990   43.9200 O   0  0  0  0  0  0  0  0  0  0  0  0
   40.7300   31.1590   44.7200 H   0  0  0  0  0  0  0  0  0  0  0  0
   40.9040   29.9110   41.4460 O   0  0  0  0  0  0  0  0  0  0  0  0
   40.7660   28.6960   42.1160 C   0  0  0  0  0  0  0  0  0  0  0  0
   40.1050   28.0780   41.4740 H   0  0  0  0  0  0  0  0  0  0  0  0
   40.3290   28.7870   43.1170 H   0  0  0  0  0  0  0  0  0  0  0  0
   42.1240   28.0090   42.1440 C   0  0  0  0  0  0  0  0  0  0  0  0
   42.3530   27.6450   41.1310 H   0  0  0  0  0  0  0  0  0  0  0  0
   42.9080   28.7220   42.5040 H   0  0  0  0  0  0  0  0  0  0  0  0
   40.8580   27.0220   44.0530 C   0  0  2  0  0  3  0  0  0  0  0  0
   42.0400   26.8930   43.1590 C   0  0  2  0  0  3  0  0  0  0  0  0
   43.2600   26.8830   43.8280 O   0  0  0  0  0  0  0  0  0  0  0  0
   43.2730   26.1170   44.9670 C   0  0  0  0  0  2  0  0  0  0  0  0
   42.3610   26.6730   46.0330 C   0  0  1  0  0  3  0  0  0  0  0  0
   41.1760   27.3880   45.4810 C   0  0  2  0  0  3  0  0  0  0  0  0
   40.0980   25.8250   44.0610 O   0  0  0  0  0  0  0  0  0  0  0  0
   40.3310   25.2560   43.3010 H   0  0  0  0  0  0  0  0  0  0  0  0
   41.9420   25.6840   46.9230 O   0  0  0  0  0  0  0  0  0  0  0  0
   41.2080   26.0760   47.4610 H   0  0  0  0  0  0  0  0  0  0  0  0
   40.0230   27.0250   46.2170 O   0  0  0  0  0  0  0  0  0  0  0  0
   39.2740   27.4780   45.7150 H   0  0  0  0  0  0  0  0  0  0  0  0
  1 25  1  0  0  0  0
  1  2  1  0  0  0  0
  3  7  1  0  0  0  0
  3  1  1  0  0  0  0
  4  3  1  0  0  0  0
  5  3  1  0  0  0  0
  6  7  2  0  0  0  0
  6 11  1  0  0  0  0
  7  8  1  0  0  0  0
  8 12  1  0  0  0  0
  8  9  2  0  0  0  0
  9 13  1  0  0  0  0
 10  9  1  0  0  0  0
 10 14  1  0  0  0  0
 11 10  2  0  0  0  0
 15 11  1  0  0  0  0
 16 22  1  0  0  0  0
 16 17  1  0  0  0  0
 17 23  1  0  0  0  0
 18 17  2  0  0  0  0
 18  6  1  0  0  0  0
 19 18  1  0  0  0  0
 20 21  1  0  0  0  0
 20 19  2  0  0  0  0
 21 16  2  0  0  0  0
 24 20  1  0  0  0  0
 25 28  1  0  0  0  0
 26 25  1  0  0  0  0
 26 27  1  0  0  0  0
 28 29  1  0  0  0  0
 30 31  1  0  0  0  0
 30 25  1  0  0  0  0
 31 34  1  0  0  0  0
 31 33  1  0  0  0  0
 32 31  1  0  0  0  0
 34 36  1  0  0  0  0
 35 34  1  0  0  0  0
 37 43  1  1  0  0  0
 37 42  1  0  0  0  0
 38 34  1  6  0  0  0
 38 39  1  0  0  0  0
 38 37  1  0  0  0  0
 39 40  1  0  0  0  0
 40 41  1  0  0  0  0
 41 45  1  1  0  0  0
 42 41  1  0  0  0  0
 42 47  1  1  0  0  0
 44 43  1  0  0  0  0
 45 46  1  0  0  0  0
 48 47  1  0  0  0  0
M  END
>  <minimizedAffinity>
-5.67783594

>  <minimizedRMSD>
1.82611799

$$$$
