
 OpenBabel03252505433D

 45 48  0  0  1  0  0  0  0  0999 V2000
   42.6610   34.8550   40.2460 C   0  0  0  0  0  0  0  0  0  0  0  0
   42.5060   35.2240   38.9310 C   0  0  0  0  0  0  0  0  0  0  0  0
   41.3190   35.1060   38.2560 C   0  0  0  0  0  0  0  0  0  0  0  0
   40.2570   34.5990   38.9310 N   0  0  0  0  0  0  0  0  0  0  0  0
   40.3950   34.2270   40.2370 C   0  0  0  0  0  0  0  0  0  0  0  0
   41.5700   34.3490   40.8910 N   0  0  0  0  0  0  0  0  0  0  0  0
   43.3440   35.6220   38.4000 H   0  0  0  0  0  0  0  0  0  0  0  0
   41.2020   35.4000   37.2140 H   0  0  0  0  0  0  0  0  0  0  0  0
   43.9480   34.6610   42.3510 C   0  0  1  0  0  0  0  0  0  0  0  0
   44.1440   36.1530   41.9120 C   0  0  0  0  0  0  0  0  0  0  0  0
   43.9920   34.9760   40.9530 C   0  0  2  0  0  0  0  0  0  0  0  0
   42.9630   34.5400   42.8790 H   0  0  0  0  0  0  0  0  0  0  0  0
   45.1570   36.5700   42.0510 H   0  0  0  0  0  0  0  0  0  0  0  0
   43.2700   36.8130   41.9620 H   0  0  0  0  0  0  0  0  0  0  0  0
   44.8190   34.8700   40.2550 H   0  0  0  0  0  0  0  0  0  0  0  0
   45.0870   34.1130   43.1160 C   0  0  0  0  0  0  0  0  0  0  0  0
   46.3320   34.0220   42.4560 C   0  0  0  0  0  0  0  0  0  0  0  0
   47.4190   33.5130   43.1530 C   0  0  0  0  0  0  0  0  0  0  0  0
   47.2250   33.1280   44.4410 N   0  0  0  0  0  0  0  0  0  0  0  0
   46.0340   33.2290   45.0330 C   0  0  0  0  0  0  0  0  0  0  0  0
   44.9940   33.7200   44.3520 N   0  0  0  0  0  0  0  0  0  0  0  0
   46.4280   34.3480   41.4190 H   0  0  0  0  0  0  0  0  0  0  0  0
   48.4080   33.4240   42.6760 H   0  0  0  0  0  0  0  0  0  0  0  0
   46.0280   32.7550   46.4600 C   0  0  0  0  0  0  0  0  0  0  0  0
   45.0650   33.4160   47.2080 F   0  0  0  0  0  0  0  0  0  0  0  0
   47.2680   33.0900   47.0530 F   0  0  0  0  0  0  0  0  0  0  0  0
   45.9240   31.3910   46.4980 F   0  0  0  0  0  0  0  0  0  0  0  0
   39.2620   33.6660   40.9970 C   0  0  0  0  0  0  0  0  0  0  0  0
   38.3440   34.1920   40.6100 H   0  0  0  0  0  0  0  0  0  0  0  0
   39.3560   33.8550   42.0650 H   0  0  0  0  0  0  0  0  0  0  0  0
   39.0570   32.2080   40.7040 C   0  0  0  0  0  0  0  0  0  0  0  0
   38.0050   31.9670   40.4910 H   0  0  0  0  0  0  0  0  0  0  0  0
   39.7090   31.9420   39.8240 H   0  0  0  0  0  0  0  0  0  0  0  0
   39.3230   29.8720   41.5280 C   0  0  1  0  0  3  0  0  0  0  0  0
   39.4980   31.3450   41.8380 C   0  0  1  0  0  3  0  0  0  0  0  0
   40.7340   31.5970   42.3560 O   0  0  0  0  0  0  0  0  0  0  0  0
   41.4250   30.4580   42.7510 C   0  0  0  0  0  2  0  0  0  0  0  0
   40.6070   29.5090   43.5620 C   0  0  2  0  0  3  0  0  0  0  0  0
   39.3390   29.1390   42.8550 C   0  0  2  0  0  3  0  0  0  0  0  0
   38.1430   29.6650   40.8200 O   0  0  0  0  0  0  0  0  0  0  0  0
   38.3760   29.0800   40.0490 H   0  0  0  0  0  0  0  0  0  0  0  0
   40.4250   29.9330   44.8750 O   0  0  0  0  0  0  0  0  0  0  0  0
   39.4790   30.1300   45.0990 H   0  0  0  0  0  0  0  0  0  0  0  0
   39.1640   27.7680   42.6870 O   0  0  0  0  0  0  0  0  0  0  0  0
   38.1720   27.5950   42.6560 H   0  0  0  0  0  0  0  0  0  0  0  0
  1  6  1  0  0  0  0
  1 11  1  0  0  0  0
  2  1  2  0  0  0  0
  3  2  1  0  0  0  0
  3  4  2  0  0  0  0
  4  5  1  0  0  0  0
  5  6  2  0  0  0  0
  5 28  1  0  0  0  0
  7  2  1  0  0  0  0
  8  3  1  0  0  0  0
  9 12  1  1  0  0  0
  9 16  1  0  0  0  0
 10 14  1  0  0  0  0
 10 13  1  0  0  0  0
 10  9  1  0  0  0  0
 11 15  1  6  0  0  0
 11 10  1  0  0  0  0
 11  9  1  0  0  0  0
 16 21  1  0  0  0  0
 17 16  2  0  0  0  0
 17 18  1  0  0  0  0
 18 19  2  0  0  0  0
 19 20  1  0  0  0  0
 20 24  1  0  0  0  0
 21 20  2  0  0  0  0
 22 17  1  0  0  0  0
 23 18  1  0  0  0  0
 24 27  1  0  0  0  0
 24 26  1  0  0  0  0
 24 25  1  0  0  0  0
 28 30  1  0  0  0  0
 29 28  1  0  0  0  0
 31 28  1  0  0  0  0
 32 31  1  0  0  0  0
 33 31  1  0  0  0  0
 34 40  1  1  0  0  0
 34 35  1  0  0  0  0
 34 39  1  0  0  0  0
 35 31  1  6  0  0  0
 35 36  1  0  0  0  0
 36 37  1  0  0  0  0
 37 38  1  0  0  0  0
 38 42  1  1  0  0  0
 39 44  1  6  0  0  0
 39 38  1  0  0  0  0
 41 40  1  0  0  0  0
 42 43  1  0  0  0  0
 45 44  1  0  0  0  0
M  END
>  <minimizedAffinity>
-6.54655552

>  <minimizedRMSD>
2.56935644

$$$$
