
 OpenBabel03242519323D

 51 54  0  0  1  0  0  0  0  0999 V2000
   50.3570   31.0410   42.1500 C   0  0  0  0  0  0  0  0  0  0  0  0
   50.4530   30.5430   40.9110 N   0  0  0  0  0  0  0  0  0  0  0  0
   51.1440   29.3730   40.9530 C   0  0  0  0  0  0  0  0  0  0  0  0
   51.4720   29.1650   42.2440 N   0  0  0  0  0  0  0  0  0  0  0  0
   51.0010   30.1700   42.9840 N   0  0  0  0  0  0  0  0  0  0  0  0
   51.3790   28.7420   40.1100 H   0  0  0  0  0  0  0  0  0  0  0  0
   47.8230   33.6160   42.8430 C   0  0  0  0  0  0  0  0  0  0  0  0
   48.6130   34.7910   42.7150 C   0  0  0  0  0  0  0  0  0  0  0  0
   49.9710   34.6760   42.3980 C   0  0  0  0  0  0  0  0  0  0  0  0
   50.4670   33.4070   42.2270 N   0  0  0  0  0  0  0  0  0  0  0  0
   49.6520   32.3010   42.3630 C   0  0  0  0  0  0  0  0  0  0  0  0
   48.3630   32.4050   42.6640 N   0  0  0  0  0  0  0  0  0  0  0  0
   48.2900   35.7890   42.8340 H   0  0  0  0  0  0  0  0  0  0  0  0
   50.6140   35.5340   42.2900 H   0  0  0  0  0  0  0  0  0  0  0  0
   46.4170   33.8610   43.1850 C   0  0  0  0  0  0  0  0  0  0  0  0
   45.7750   34.9000   42.4190 C   0  0  0  0  0  0  0  0  0  0  0  0
   45.4140   36.1020   43.1860 C   0  0  0  0  0  0  0  0  0  0  0  0
   44.5350   35.7390   44.3890 C   0  0  0  0  0  0  0  0  0  0  0  0
   45.0000   34.5330   45.1380 C   0  0  0  0  0  0  0  0  0  0  0  0
   46.4070   34.1300   44.7270 C   0  0  0  0  0  0  0  0  0  0  0  0
   45.8870   32.8650   43.1370 H   0  0  0  0  0  0  0  0  0  0  0  0
   44.8150   34.5060   41.9690 H   0  0  0  0  0  0  0  0  0  0  0  0
   46.3720   35.2210   41.5290 H   0  0  0  0  0  0  0  0  0  0  0  0
   44.7430   36.7290   42.5320 H   0  0  0  0  0  0  0  0  0  0  0  0
   46.2220   36.7750   43.4910 H   0  0  0  0  0  0  0  0  0  0  0  0
   43.5260   35.4760   43.9570 H   0  0  0  0  0  0  0  0  0  0  0  0
   44.3730   36.6430   45.0040 H   0  0  0  0  0  0  0  0  0  0  0  0
   45.0800   34.8270   46.2040 H   0  0  0  0  0  0  0  0  0  0  0  0
   44.3030   33.6700   45.0980 H   0  0  0  0  0  0  0  0  0  0  0  0
   47.0670   34.9900   44.9220 H   0  0  0  0  0  0  0  0  0  0  0  0
   46.6830   33.2010   45.2650 H   0  0  0  0  0  0  0  0  0  0  0  0
   52.2310   28.0660   42.7800 C   0  0  0  0  0  0  0  0  0  0  0  0
   52.8880   27.5800   42.0710 H   0  0  0  0  0  0  0  0  0  0  0  0
   51.5000   27.2630   43.1020 H   0  0  0  0  0  0  0  0  0  0  0  0
   52.9870   28.5110   43.9500 C   0  0  0  0  0  3  0  0  0  0  0  0
   53.1440   28.0440   45.1830 C   0  0  0  0  0  3  0  0  0  0  0  0
   54.0790   28.6230   46.2630 C   0  0  0  0  0  0  0  0  0  0  0  0
   53.5690   28.5020   47.2160 H   0  0  0  0  0  0  0  0  0  0  0  0
   54.9850   27.9970   46.2290 H   0  0  0  0  0  0  0  0  0  0  0  0
   55.8900   30.2120   46.4700 C   0  0  1  0  0  3  0  0  0  0  0  0
   54.4790   30.0270   45.9370 C   0  0  2  0  0  3  0  0  0  0  0  0
   53.6010   31.0030   46.3330 O   0  0  0  0  0  0  0  0  0  0  0  0
   53.5550   31.2610   47.6810 C   0  0  0  0  0  2  0  0  0  0  0  0
   54.8960   31.6010   48.2910 C   0  0  1  0  0  3  0  0  0  0  0  0
   55.8720   30.4930   47.9690 C   0  0  2  0  0  3  0  0  0  0  0  0
   56.5670   28.9870   46.3400 O   0  0  0  0  0  0  0  0  0  0  0  0
   56.8160   28.8120   45.4120 H   0  0  0  0  0  0  0  0  0  0  0  0
   55.4020   32.7950   47.7980 O   0  0  0  0  0  0  0  0  0  0  0  0
   55.7720   32.6840   46.8870 H   0  0  0  0  0  0  0  0  0  0  0  0
   57.1440   30.8800   48.3330 O   0  0  0  0  0  0  0  0  0  0  0  0
   57.8170   30.2010   48.1330 H   0  0  0  0  0  0  0  0  0  0  0  0
  1 11  1  0  0  0  0
  1  5  2  0  0  0  0
  2  3  2  0  0  0  0
  2  1  1  0  0  0  0
  3  4  1  0  0  0  0
  4 32  1  0  0  0  0
  4  5  1  0  0  0  0
  6  3  1  0  0  0  0
  7 15  1  0  0  0  0
  8 13  1  0  0  0  0
  8  7  1  0  0  0  0
  9  8  2  0  0  0  0
 10 11  2  0  0  0  0
 10  9  1  0  0  0  0
 11 12  1  0  0  0  0
 12  7  2  0  0  0  0
 14  9  1  0  0  0  0
 15 20  1  0  0  0  0
 16 15  1  0  0  0  0
 16 17  1  0  0  0  0
 17 25  1  0  0  0  0
 17 18  1  0  0  0  0
 18 27  1  0  0  0  0
 18 19  1  0  0  0  0
 19 28  1  0  0  0  0
 20 30  1  0  0  0  0
 20 19  1  0  0  0  0
 20 31  1  0  0  0  0
 21 15  1  0  0  0  0
 22 16  1  0  0  0  0
 23 16  1  0  0  0  0
 24 17  1  0  0  0  0
 26 18  1  0  0  0  0
 29 19  1  0  0  0  0
 32 34  1  0  0  0  0
 32 35  1  0  0  0  0
 33 32  1  0  0  0  0
 35 36  2  0  0  0  0
 36 37  1  0  0  0  0
 37 38  1  0  0  0  0
 39 37  1  0  0  0  0
 40 46  1  1  0  0  0
 40 45  1  0  0  0  0
 41 37  1  1  0  0  0
 41 42  1  0  0  0  0
 41 40  1  0  0  0  0
 42 43  1  0  0  0  0
 43 44  1  0  0  0  0
 44 48  1  6  0  0  0
 45 44  1  0  0  0  0
 45 50  1  6  0  0  0
 47 46  1  0  0  0  0
 49 48  1  0  0  0  0
 51 50  1  0  0  0  0
M  END
>  <minimizedAffinity>
-4.48202705

>  <minimizedRMSD>
1.78088009

$$$$
