
 OpenBabel03252503413D

 24 25  0  0  1  0  0  0  0  0999 V2000
   45.4870   35.2940   42.4510 C   0  0  0  0  0  0  0  0  0  0  0  0
   44.5430   34.8990   41.5170 C   0  0  0  0  0  0  0  0  0  0  0  0
   44.9240   34.0000   40.5290 C   0  0  0  0  0  0  0  0  0  0  0  0
   46.1950   33.5510   40.5240 N   0  0  0  0  0  0  0  0  0  0  0  0
   47.1050   33.9510   41.4490 C   0  0  0  0  0  0  0  0  0  0  0  0
   46.7650   34.8270   42.4270 N   0  0  0  0  0  0  0  0  0  0  0  0
   45.2320   35.9930   43.2380 H   0  0  0  0  0  0  0  0  0  0  0  0
   44.1680   33.7100   39.8130 H   0  0  0  0  0  0  0  0  0  0  0  0
   49.0130   33.0170   42.7660 C   0  0  2  0  0  3  0  0  0  0  0  0
   48.4710   33.4300   41.3920 C   0  0  1  0  0  3  0  0  0  0  0  0
   48.5910   32.2630   40.6290 O   0  0  0  0  0  0  0  0  0  0  0  0
   49.9140   32.1920   40.2400 C   0  0  0  0  0  2  0  0  0  0  0  0
   50.9100   32.1800   41.3580 C   0  0  1  0  0  3  0  0  0  0  0  0
   50.5280   32.9750   42.5650 C   0  0  1  0  0  3  0  0  0  0  0  0
   48.5420   31.7230   43.0460 O   0  0  0  0  0  0  0  0  0  0  0  0
   48.0220   31.7210   43.8890 H   0  0  0  0  0  0  0  0  0  0  0  0
   51.1320   30.8610   41.7470 O   0  0  0  0  0  0  0  0  0  0  0  0
   51.5450   30.3740   40.9900 H   0  0  0  0  0  0  0  0  0  0  0  0
   50.9300   34.2980   42.3600 O   0  0  0  0  0  0  0  0  0  0  0  0
   51.4630   34.4050   41.5490 H   0  0  0  0  0  0  0  0  0  0  0  0
   43.1850   35.4860   41.6620 C   0  0  0  0  0  0  0  0  0  0  0  0
   42.6260   34.8400   42.3680 H   0  0  0  0  0  0  0  0  0  0  0  0
   42.7190   35.4410   40.6430 H   0  0  0  0  0  0  0  0  0  0  0  0
   43.2880   36.5210   41.9830 H   0  0  0  0  0  0  0  0  0  0  0  0
  1  7  1  0  0  0  0
  2 21  1  0  0  0  0
  2  1  2  0  0  0  0
  3  2  1  0  0  0  0
  4  3  2  0  0  0  0
  4  5  1  0  0  0  0
  5  6  2  0  0  0  0
  6  1  1  0  0  0  0
  8  3  1  0  0  0  0
  9 15  1  6  0  0  0
 10  5  1  1  0  0  0
 10  9  1  0  0  0  0
 11 10  1  0  0  0  0
 12 11  1  0  0  0  0
 12 13  1  0  0  0  0
 13 17  1  1  0  0  0
 13 14  1  0  0  0  0
 14 19  1  6  0  0  0
 14  9  1  0  0  0  0
 15 16  1  0  0  0  0
 18 17  1  0  0  0  0
 20 19  1  0  0  0  0
 21 24  1  0  0  0  0
 21 22  1  0  0  0  0
 23 21  1  0  0  0  0
M  END
>  <minimizedAffinity>
-4.07884979

>  <minimizedRMSD>
6.54961157

$$$$
