
 OpenBabel03242515143D

 30 31  0  0  1  0  0  0  0  0999 V2000
   35.8260   29.8290   40.6350 C   0  0  0  0  0  0  0  0  0  0  0  0
   35.6610   29.1770   39.7280 H   0  0  0  0  0  0  0  0  0  0  0  0
   34.8360   29.9980   41.0700 H   0  0  0  0  0  0  0  0  0  0  0  0
   37.9610   28.4900   43.4140 C   0  0  0  0  0  0  0  0  0  0  0  0
   37.9310   27.1060   43.1120 C   0  0  0  0  0  0  0  0  0  0  0  0
   37.1920   26.7250   41.9950 C   0  0  0  0  0  0  0  0  0  0  0  0
   36.5470   27.6880   41.2580 N   0  0  0  0  0  0  0  0  0  0  0  0
   36.6110   29.0010   41.5950 C   0  0  0  0  0  0  0  0  0  0  0  0
   37.3140   29.3990   42.6660 N   0  0  0  0  0  0  0  0  0  0  0  0
   38.5100   28.8740   44.2640 H   0  0  0  0  0  0  0  0  0  0  0  0
   38.4650   26.4230   43.7410 H   0  0  0  0  0  0  0  0  0  0  0  0
   37.1680   25.3050   41.6940 C   0  0  0  0  0  0  0  0  0  0  0  0
   38.4700   24.7960   41.6980 F   0  0  0  0  0  0  0  0  0  0  0  0
   36.7380   25.1900   40.3820 F   0  0  0  0  0  0  0  0  0  0  0  0
   36.4240   24.5720   42.5740 F   0  0  0  0  0  0  0  0  0  0  0  0
   36.5610   31.0400   40.1880 C   0  0  0  0  0  0  0  0  0  0  0  0
   35.9070   31.8520   39.8230 H   0  0  0  0  0  0  0  0  0  0  0  0
   37.0550   31.4690   41.1030 H   0  0  0  0  0  0  0  0  0  0  0  0
   37.8140   31.6960   38.1180 C   0  0  2  0  0  3  0  0  0  0  0  0
   37.6650   30.7180   39.2410 C   0  0  1  0  0  3  0  0  0  0  0  0
   38.8800   30.6100   39.9130 O   0  0  0  0  0  0  0  0  0  0  0  0
   39.4990   31.8180   40.1250 C   0  0  0  0  0  2  0  0  0  0  0  0
   40.1000   32.2630   38.8170 C   0  0  1  0  0  3  0  0  0  0  0  0
   39.2820   31.6660   37.6790 C   0  0  2  0  0  3  0  0  0  0  0  0
   37.5440   33.0040   38.4300 O   0  0  0  0  0  0  0  0  0  0  0  0
   36.9960   33.1730   39.2110 H   0  0  0  0  0  0  0  0  0  0  0  0
   40.1700   33.6510   38.7040 O   0  0  0  0  0  0  0  0  0  0  0  0
   40.0310   34.0810   39.5980 H   0  0  0  0  0  0  0  0  0  0  0  0
   39.4620   32.4280   36.5240 O   0  0  0  0  0  0  0  0  0  0  0  0
   39.5510   31.8780   35.7060 H   0  0  0  0  0  0  0  0  0  0  0  0
  1  3  1  0  0  0  0
  1  8  1  0  0  0  0
  2  1  1  0  0  0  0
  4 10  1  0  0  0  0
  5  4  1  0  0  0  0
  5 11  1  0  0  0  0
  6  5  2  0  0  0  0
  7  8  2  0  0  0  0
  7  6  1  0  0  0  0
  8  9  1  0  0  0  0
  9  4  2  0  0  0  0
 12 13  1  0  0  0  0
 12  6  1  0  0  0  0
 12 15  1  0  0  0  0
 14 12  1  0  0  0  0
 16  1  1  0  0  0  0
 16 18  1  0  0  0  0
 17 16  1  0  0  0  0
 19 25  1  1  0  0  0
 19 20  1  0  0  0  0
 20 21  1  0  0  0  0
 20 16  1  1  0  0  0
 21 22  1  0  0  0  0
 23 27  1  1  0  0  0
 23 22  1  0  0  0  0
 24 29  1  6  0  0  0
 24 19  1  0  0  0  0
 24 23  1  0  0  0  0
 25 26  1  0  0  0  0
 27 28  1  0  0  0  0
 30 29  1  0  0  0  0
M  END
>  <minimizedAffinity>
-6.19750166

$$$$

 OpenBabel03242515143D

 30 31  0  0  1  0  0  0  0  0999 V2000
   39.5310   30.8970   42.2700 C   0  0  0  0  0  0  0  0  0  0  0  0
   39.3080   31.4430   43.2320 H   0  0  0  0  0  0  0  0  0  0  0  0
   40.2620   30.1230   42.5240 H   0  0  0  0  0  0  0  0  0  0  0  0
   36.1450   29.9400   40.9690 C   0  0  0  0  0  0  0  0  0  0  0  0
   36.0940   28.5810   41.3710 C   0  0  0  0  0  0  0  0  0  0  0  0
   37.2050   28.0870   42.0500 C   0  0  0  0  0  0  0  0  0  0  0  0
   38.2690   28.9230   42.2910 N   0  0  0  0  0  0  0  0  0  0  0  0
   38.2620   30.2170   41.8820 C   0  0  0  0  0  0  0  0  0  0  0  0
   37.2070   30.7220   41.2260 N   0  0  0  0  0  0  0  0  0  0  0  0
   35.3260   30.4040   40.4370 H   0  0  0  0  0  0  0  0  0  0  0  0
   35.2240   28.0010   41.1420 H   0  0  0  0  0  0  0  0  0  0  0  0
   37.1430   26.6960   42.4570 C   0  0  0  0  0  0  0  0  0  0  0  0
   36.2220   26.5450   43.4980 F   0  0  0  0  0  0  0  0  0  0  0  0
   38.3750   26.3960   43.0170 F   0  0  0  0  0  0  0  0  0  0  0  0
   36.7870   25.8460   41.4490 F   0  0  0  0  0  0  0  0  0  0  0  0
   39.9670   31.9080   41.2720 C   0  0  0  0  0  0  0  0  0  0  0  0
   39.3460   32.8210   41.2590 H   0  0  0  0  0  0  0  0  0  0  0  0
   40.9820   32.2650   41.6010 H   0  0  0  0  0  0  0  0  0  0  0  0
   39.4770   32.0760   38.8190 C   0  0  2  0  0  3  0  0  0  0  0  0
   40.1610   31.3230   39.9160 C   0  0  1  0  0  3  0  0  0  0  0  0
   41.5150   31.2100   39.6130 O   0  0  0  0  0  0  0  0  0  0  0  0
   42.0660   32.3690   39.1220 C   0  0  0  0  0  2  0  0  0  0  0  0
   41.6140   32.5230   37.6930 C   0  0  1  0  0  3  0  0  0  0  0  0
   40.2690   31.8270   37.5310 C   0  0  2  0  0  3  0  0  0  0  0  0
   39.4320   33.4390   38.9730 O   0  0  0  0  0  0  0  0  0  0  0  0
   39.5450   33.7910   39.8690 H   0  0  0  0  0  0  0  0  0  0  0  0
   41.5330   33.8580   37.2980 O   0  0  0  0  0  0  0  0  0  0  0  0
   42.0130   34.4460   37.9530 H   0  0  0  0  0  0  0  0  0  0  0  0
   39.5950   32.3600   36.4320 O   0  0  0  0  0  0  0  0  0  0  0  0
   39.1340   31.6730   35.8880 H   0  0  0  0  0  0  0  0  0  0  0  0
  1  3  1  0  0  0  0
  1  2  1  0  0  0  0
  4  9  2  0  0  0  0
  4  5  1  0  0  0  0
  5  6  2  0  0  0  0
  6  7  1  0  0  0  0
  6 12  1  0  0  0  0
  8  1  1  0  0  0  0
  8  7  2  0  0  0  0
  9  8  1  0  0  0  0
 10  4  1  0  0  0  0
 11  5  1  0  0  0  0
 12 14  1  0  0  0  0
 12 13  1  0  0  0  0
 15 12  1  0  0  0  0
 16 18  1  0  0  0  0
 16  1  1  0  0  0  0
 17 16  1  0  0  0  0
 19 25  1  1  0  0  0
 19 20  1  0  0  0  0
 20 16  1  1  0  0  0
 21 20  1  0  0  0  0
 22 21  1  0  0  0  0
 23 27  1  1  0  0  0
 23 22  1  0  0  0  0
 24 29  1  6  0  0  0
 24 23  1  0  0  0  0
 24 19  1  0  0  0  0
 25 26  1  0  0  0  0
 27 28  1  0  0  0  0
 30 29  1  0  0  0  0
M  END
>  <minimizedAffinity>
-5.9615345

$$$$

 OpenBabel03242515143D

 30 31  0  0  1  0  0  0  0  0999 V2000
   35.5290   29.3570   38.8880 C   0  0  0  0  0  0  0  0  0  0  0  0
   35.5760   29.2120   37.7700 H   0  0  0  0  0  0  0  0  0  0  0  0
   34.4660   29.4280   39.1380 H   0  0  0  0  0  0  0  0  0  0  0  0
   36.7440   25.8830   39.6130 C   0  0  0  0  0  0  0  0  0  0  0  0
   37.0600   26.0070   40.9890 C   0  0  0  0  0  0  0  0  0  0  0  0
   36.8420   27.2540   41.5720 C   0  0  0  0  0  0  0  0  0  0  0  0
   36.3410   28.2750   40.8000 N   0  0  0  0  0  0  0  0  0  0  0  0
   36.0560   28.0970   39.4860 C   0  0  0  0  0  0  0  0  0  0  0  0
   36.2560   26.9090   38.8960 N   0  0  0  0  0  0  0  0  0  0  0  0
   36.8830   24.9510   39.0820 H   0  0  0  0  0  0  0  0  0  0  0  0
   37.4470   25.1580   41.5150 H   0  0  0  0  0  0  0  0  0  0  0  0
   37.1690   27.3700   42.9810 C   0  0  0  0  0  0  0  0  0  0  0  0
   38.1940   26.4780   43.3070 F   0  0  0  0  0  0  0  0  0  0  0  0
   36.0590   26.9180   43.6780 F   0  0  0  0  0  0  0  0  0  0  0  0
   37.5640   28.6240   43.3490 F   0  0  0  0  0  0  0  0  0  0  0  0
   36.3610   30.5420   39.2210 C   0  0  0  0  0  0  0  0  0  0  0  0
   35.8830   31.5080   38.9820 H   0  0  0  0  0  0  0  0  0  0  0  0
   36.4680   30.5530   40.3410 H   0  0  0  0  0  0  0  0  0  0  0  0
   38.0890   31.4730   37.6610 C   0  0  2  0  0  3  0  0  0  0  0  0
   37.7460   30.4350   38.6820 C   0  0  1  0  0  3  0  0  0  0  0  0
   38.6850   30.4810   39.7090 O   0  0  0  0  0  0  0  0  0  0  0  0
   39.0050   31.7580   40.1020 C   0  0  0  0  0  2  0  0  0  0  0  0
   39.9130   32.3480   39.0540 C   0  0  1  0  0  3  0  0  0  0  0  0
   39.6060   31.6860   37.7170 C   0  0  2  0  0  3  0  0  0  0  0  0
   37.5300   32.7100   37.8610 O   0  0  0  0  0  0  0  0  0  0  0  0
   36.7420   32.7590   38.4240 H   0  0  0  0  0  0  0  0  0  0  0  0
   39.7950   33.7340   38.9610 O   0  0  0  0  0  0  0  0  0  0  0  0
   39.3120   34.0970   39.7610 H   0  0  0  0  0  0  0  0  0  0  0  0
   40.0200   32.5180   36.6770 O   0  0  0  0  0  0  0  0  0  0  0  0
   40.4520   32.0250   35.9340 H   0  0  0  0  0  0  0  0  0  0  0  0
  1  3  1  0  0  0  0
  1 16  1  0  0  0  0
  1  8  1  0  0  0  0
  2  1  1  0  0  0  0
  4  5  1  0  0  0  0
  5 11  1  0  0  0  0
  5  6  2  0  0  0  0
  6 12  1  0  0  0  0
  7  6  1  0  0  0  0
  8  7  2  0  0  0  0
  9  8  1  0  0  0  0
  9  4  2  0  0  0  0
 10  4  1  0  0  0  0
 12 13  1  0  0  0  0
 12 15  1  0  0  0  0
 12 14  1  0  0  0  0
 16 18  1  0  0  0  0
 17 16  1  0  0  0  0
 19 24  1  0  0  0  0
 19 25  1  1  0  0  0
 19 20  1  0  0  0  0
 20 16  1  1  0  0  0
 20 21  1  0  0  0  0
 21 22  1  0  0  0  0
 23 27  1  6  0  0  0
 23 22  1  0  0  0  0
 24 29  1  6  0  0  0
 24 23  1  0  0  0  0
 25 26  1  0  0  0  0
 27 28  1  0  0  0  0
 30 29  1  0  0  0  0
M  END
>  <minimizedAffinity>
-5.91308403

$$$$

 OpenBabel03242515143D

 30 31  0  0  1  0  0  0  0  0999 V2000
   37.5050   28.0150   43.6790 C   0  0  0  0  0  0  0  0  0  0  0  0
   36.4890   27.9230   43.1970 H   0  0  0  0  0  0  0  0  0  0  0  0
   37.3350   27.9400   44.7580 H   0  0  0  0  0  0  0  0  0  0  0  0
   40.0400   25.3130   43.0860 C   0  0  0  0  0  0  0  0  0  0  0  0
   39.3080   24.4670   42.2160 C   0  0  0  0  0  0  0  0  0  0  0  0
   38.0140   24.8680   41.8940 C   0  0  0  0  0  0  0  0  0  0  0  0
   37.5240   26.0380   42.4220 N   0  0  0  0  0  0  0  0  0  0  0  0
   38.2710   26.8100   43.2520 C   0  0  0  0  0  0  0  0  0  0  0  0
   39.5210   26.4500   43.5810 N   0  0  0  0  0  0  0  0  0  0  0  0
   41.0510   25.0780   43.3880 H   0  0  0  0  0  0  0  0  0  0  0  0
   39.7680   23.5720   41.8490 H   0  0  0  0  0  0  0  0  0  0  0  0
   37.2740   23.9950   41.0020 C   0  0  0  0  0  0  0  0  0  0  0  0
   37.7790   22.6940   41.0820 F   0  0  0  0  0  0  0  0  0  0  0  0
   37.5610   24.4170   39.7130 F   0  0  0  0  0  0  0  0  0  0  0  0
   35.9350   23.9470   41.2690 F   0  0  0  0  0  0  0  0  0  0  0  0
   38.1150   29.2820   43.1990 C   0  0  0  0  0  0  0  0  0  0  0  0
   37.6770   30.1900   43.6500 H   0  0  0  0  0  0  0  0  0  0  0  0
   39.1820   29.2790   43.5570 H   0  0  0  0  0  0  0  0  0  0  0  0
   36.8730   29.6320   41.0490 C   0  0  2  0  0  3  0  0  0  0  0  0
   38.1850   29.3530   41.7130 C   0  0  1  0  0  3  0  0  0  0  0  0
   39.1130   30.3070   41.3040 O   0  0  0  0  0  0  0  0  0  0  0  0
   38.6100   31.5860   41.2780 C   0  0  0  0  0  2  0  0  0  0  0  0
   37.7330   31.7090   40.0590 C   0  0  1  0  0  3  0  0  0  0  0  0
   37.1740   30.3330   39.7200 C   0  0  2  0  0  3  0  0  0  0  0  0
   36.0300   30.4720   41.7320 O   0  0  0  0  0  0  0  0  0  0  0  0
   36.1740   30.5720   42.6850 H   0  0  0  0  0  0  0  0  0  0  0  0
   36.7040   32.6350   40.2300 O   0  0  0  0  0  0  0  0  0  0  0  0
   36.8820   33.2090   41.0320 H   0  0  0  0  0  0  0  0  0  0  0  0
   36.0080   30.4740   38.9680 O   0  0  0  0  0  0  0  0  0  0  0  0
   35.9430   29.8210   38.2270 H   0  0  0  0  0  0  0  0  0  0  0  0
  1  3  1  0  0  0  0
  2  1  1  0  0  0  0
  4 10  1  0  0  0  0
  4  9  1  0  0  0  0
  5  4  2  0  0  0  0
  6  5  1  0  0  0  0
  6  7  2  0  0  0  0
  7  8  1  0  0  0  0
  8  9  2  0  0  0  0
  8  1  1  0  0  0  0
 11  5  1  0  0  0  0
 12 13  1  0  0  0  0
 12 15  1  0  0  0  0
 12  6  1  0  0  0  0
 14 12  1  0  0  0  0
 16 18  1  0  0  0  0
 16 17  1  0  0  0  0
 16  1  1  0  0  0  0
 19 20  1  0  0  0  0
 19 25  1  1  0  0  0
 20 16  1  1  0  0  0
 21 20  1  0  0  0  0
 22 21  1  0  0  0  0
 23 27  1  1  0  0  0
 23 22  1  0  0  0  0
 24 29  1  6  0  0  0
 24 23  1  0  0  0  0
 24 19  1  0  0  0  0
 25 26  1  0  0  0  0
 27 28  1  0  0  0  0
 30 29  1  0  0  0  0
M  END
>  <minimizedAffinity>
-5.80009937

$$$$

 OpenBabel03242515143D

 30 31  0  0  1  0  0  0  0  0999 V2000
   39.9270   29.2760   42.7190 C   0  0  0  0  0  0  0  0  0  0  0  0
   40.3650   29.2450   43.7590 H   0  0  0  0  0  0  0  0  0  0  0  0
   40.6970   28.8720   42.0550 H   0  0  0  0  0  0  0  0  0  0  0  0
   36.5950   27.5590   42.8790 C   0  0  0  0  0  0  0  0  0  0  0  0
   36.9930   26.2150   42.6760 C   0  0  0  0  0  0  0  0  0  0  0  0
   38.3550   25.9850   42.4980 C   0  0  0  0  0  0  0  0  0  0  0  0
   39.2240   27.0490   42.5310 N   0  0  0  0  0  0  0  0  0  0  0  0
   38.7850   28.3170   42.7300 C   0  0  0  0  0  0  0  0  0  0  0  0
   37.4790   28.5710   42.9030 N   0  0  0  0  0  0  0  0  0  0  0  0
   35.5570   27.8280   43.0250 H   0  0  0  0  0  0  0  0  0  0  0  0
   36.2480   25.4450   42.6660 H   0  0  0  0  0  0  0  0  0  0  0  0
   38.7520   24.6040   42.2910 C   0  0  0  0  0  0  0  0  0  0  0  0
   39.5170   24.1610   43.3740 F   0  0  0  0  0  0  0  0  0  0  0  0
   39.6200   24.6050   41.2100 F   0  0  0  0  0  0  0  0  0  0  0  0
   37.6980   23.7490   42.1380 F   0  0  0  0  0  0  0  0  0  0  0  0
   39.4990   30.6740   42.4550 C   0  0  0  0  0  0  0  0  0  0  0  0
   38.5410   30.9480   42.9310 H   0  0  0  0  0  0  0  0  0  0  0  0
   40.2590   31.3400   42.9510 H   0  0  0  0  0  0  0  0  0  0  0  0
   38.2430   30.8160   40.2890 C   0  0  2  0  0  3  0  0  0  0  0  0
   39.5410   31.0170   41.0060 C   0  0  1  0  0  3  0  0  0  0  0  0
   39.9630   32.3310   40.8190 O   0  0  0  0  0  0  0  0  0  0  0  0
   38.9540   33.2550   40.9430 C   0  0  0  0  0  2  0  0  0  0  0  0
   38.1190   33.1950   39.6910 C   0  0  1  0  0  3  0  0  0  0  0  0
   38.2170   31.7910   39.1070 C   0  0  2  0  0  3  0  0  0  0  0  0
   37.1130   31.0850   41.0210 O   0  0  0  0  0  0  0  0  0  0  0  0
   37.1940   31.0750   41.9860 H   0  0  0  0  0  0  0  0  0  0  0  0
   36.7890   33.5470   39.9160 O   0  0  0  0  0  0  0  0  0  0  0  0
   36.6940   33.9980   40.8070 H   0  0  0  0  0  0  0  0  0  0  0  0
   37.1110   31.5440   38.2950 O   0  0  0  0  0  0  0  0  0  0  0  0
   37.3420   31.0610   37.4620 H   0  0  0  0  0  0  0  0  0  0  0  0
  1  8  1  0  0  0  0
  1  2  1  0  0  0  0
  3  1  1  0  0  0  0
  4  9  1  0  0  0  0
  4 10  1  0  0  0  0
  5  4  2  0  0  0  0
  6  7  2  0  0  0  0
  6  5  1  0  0  0  0
  7  8  1  0  0  0  0
  8  9  2  0  0  0  0
 11  5  1  0  0  0  0
 12  6  1  0  0  0  0
 12 13  1  0  0  0  0
 14 12  1  0  0  0  0
 15 12  1  0  0  0  0
 16  1  1  0  0  0  0
 16 17  1  0  0  0  0
 16 18  1  0  0  0  0
 19 20  1  0  0  0  0
 19 25  1  1  0  0  0
 20 16  1  1  0  0  0
 21 22  1  0  0  0  0
 21 20  1  0  0  0  0
 23 27  1  1  0  0  0
 23 22  1  0  0  0  0
 24 29  1  6  0  0  0
 24 23  1  0  0  0  0
 24 19  1  0  0  0  0
 25 26  1  0  0  0  0
 27 28  1  0  0  0  0
 30 29  1  0  0  0  0
M  END
>  <minimizedAffinity>
-5.67947769

$$$$

 OpenBabel03242515143D

 30 31  0  0  1  0  0  0  0  0999 V2000
   35.9170   28.8780   39.6390 C   0  0  0  0  0  0  0  0  0  0  0  0
   36.5550   28.6310   38.7410 H   0  0  0  0  0  0  0  0  0  0  0  0
   34.8920   28.6120   39.3630 H   0  0  0  0  0  0  0  0  0  0  0  0
   36.9440   27.2210   42.8450 C   0  0  0  0  0  0  0  0  0  0  0  0
   37.1870   25.9040   42.3820 C   0  0  0  0  0  0  0  0  0  0  0  0
   36.9860   25.6700   41.0240 C   0  0  0  0  0  0  0  0  0  0  0  0
   36.5740   26.7050   40.2200 N   0  0  0  0  0  0  0  0  0  0  0  0
   36.3560   27.9480   40.7190 C   0  0  0  0  0  0  0  0  0  0  0  0
   36.5410   28.2040   42.0220 N   0  0  0  0  0  0  0  0  0  0  0  0
   37.0750   27.4900   43.8840 H   0  0  0  0  0  0  0  0  0  0  0  0
   37.5080   25.1560   43.0790 H   0  0  0  0  0  0  0  0  0  0  0  0
   37.2380   24.3170   40.5610 C   0  0  0  0  0  0  0  0  0  0  0  0
   38.2040   24.3330   39.5500 F   0  0  0  0  0  0  0  0  0  0  0  0
   36.0730   23.8920   39.9430 F   0  0  0  0  0  0  0  0  0  0  0  0
   37.6680   23.4740   41.5450 F   0  0  0  0  0  0  0  0  0  0  0  0
   36.1550   30.3040   39.9800 C   0  0  0  0  0  0  0  0  0  0  0  0
   35.2850   30.9590   39.7990 H   0  0  0  0  0  0  0  0  0  0  0  0
   36.3090   30.3450   41.0940 H   0  0  0  0  0  0  0  0  0  0  0  0
   37.4950   32.3260   39.3440 C   0  0  2  0  0  3  0  0  0  0  0  0
   37.4100   30.8320   39.3750 C   0  0  1  0  0  3  0  0  0  0  0  0
   38.5290   30.3270   40.0320 O   0  0  0  0  0  0  0  0  0  0  0  0
   38.8590   31.0240   41.1690 C   0  0  0  0  0  2  0  0  0  0  0  0
   39.5140   32.3130   40.7440 C   0  0  1  0  0  3  0  0  0  0  0  0
   38.9820   32.6990   39.3700 C   0  0  2  0  0  3  0  0  0  0  0  0
   36.9280   32.9750   40.4120 O   0  0  0  0  0  0  0  0  0  0  0  0
   36.2650   32.4920   40.9280 H   0  0  0  0  0  0  0  0  0  0  0  0
   39.3150   33.3440   41.6620 O   0  0  0  0  0  0  0  0  0  0  0  0
   38.9810   32.9760   42.5330 H   0  0  0  0  0  0  0  0  0  0  0  0
   39.1440   34.0700   39.1730 O   0  0  0  0  0  0  0  0  0  0  0  0
   39.4430   34.2990   38.2580 H   0  0  0  0  0  0  0  0  0  0  0  0
  1 16  1  0  0  0  0
  1  8  1  0  0  0  0
  2  1  1  0  0  0  0
  3  1  1  0  0  0  0
  4 10  1  0  0  0  0
  5  4  1  0  0  0  0
  5 11  1  0  0  0  0
  6  5  2  0  0  0  0
  7  8  2  0  0  0  0
  7  6  1  0  0  0  0
  8  9  1  0  0  0  0
  9  4  2  0  0  0  0
 12  6  1  0  0  0  0
 12 15  1  0  0  0  0
 13 12  1  0  0  0  0
 14 12  1  0  0  0  0
 16 18  1  0  0  0  0
 17 16  1  0  0  0  0
 19 24  1  0  0  0  0
 19 20  1  0  0  0  0
 19 25  1  1  0  0  0
 20 16  1  1  0  0  0
 20 21  1  0  0  0  0
 21 22  1  0  0  0  0
 23 22  1  0  0  0  0
 23 27  1  1  0  0  0
 24 29  1  1  0  0  0
 24 23  1  0  0  0  0
 25 26  1  0  0  0  0
 27 28  1  0  0  0  0
 30 29  1  0  0  0  0
M  END
>  <minimizedAffinity>
-5.59403276

$$$$

 OpenBabel03242515143D

 30 31  0  0  1  0  0  0  0  0999 V2000
   39.2060   28.8500   42.6220 C   0  0  0  0  0  0  0  0  0  0  0  0
   38.1480   29.0440   42.9670 H   0  0  0  0  0  0  0  0  0  0  0  0
   39.8530   29.4160   43.2990 H   0  0  0  0  0  0  0  0  0  0  0  0
   40.5050   25.4810   43.6390 C   0  0  0  0  0  0  0  0  0  0  0  0
   39.5220   24.6440   43.0540 C   0  0  0  0  0  0  0  0  0  0  0  0
   38.4930   25.2760   42.3600 C   0  0  0  0  0  0  0  0  0  0  0  0
   38.4840   26.6480   42.2790 N   0  0  0  0  0  0  0  0  0  0  0  0
   39.4530   27.3990   42.8600 C   0  0  0  0  0  0  0  0  0  0  0  0
   40.4560   26.8190   43.5350 N   0  0  0  0  0  0  0  0  0  0  0  0
   41.3380   25.0730   44.1950 H   0  0  0  0  0  0  0  0  0  0  0  0
   39.6070   23.5820   43.1650 H   0  0  0  0  0  0  0  0  0  0  0  0
   37.4920   24.4100   41.7650 C   0  0  0  0  0  0  0  0  0  0  0  0
   37.0860   24.9280   40.5310 F   0  0  0  0  0  0  0  0  0  0  0  0
   36.3720   24.4890   42.5780 F   0  0  0  0  0  0  0  0  0  0  0  0
   37.9260   23.1300   41.5650 F   0  0  0  0  0  0  0  0  0  0  0  0
   39.2810   29.2160   41.1840 C   0  0  0  0  0  0  0  0  0  0  0  0
   40.1840   29.7920   40.9150 H   0  0  0  0  0  0  0  0  0  0  0  0
   39.3860   28.2510   40.6140 H   0  0  0  0  0  0  0  0  0  0  0  0
   37.9590   31.3270   40.9000 C   0  0  2  0  0  3  0  0  0  0  0  0
   38.0260   29.8470   40.6900 C   0  0  1  0  0  3  0  0  0  0  0  0
   37.8290   29.5710   39.3400 O   0  0  0  0  0  0  0  0  0  0  0  0
   38.5100   30.4200   38.5010 C   0  0  0  0  0  2  0  0  0  0  0  0
   37.7770   31.7360   38.4850 C   0  0  1  0  0  3  0  0  0  0  0  0
   37.0470   31.9020   39.8110 C   0  0  2  0  0  3  0  0  0  0  0  0
   39.1500   31.9980   40.7830 O   0  0  0  0  0  0  0  0  0  0  0  0
   39.9650   31.4830   40.8870 H   0  0  0  0  0  0  0  0  0  0  0  0
   38.6230   32.8180   38.2450 O   0  0  0  0  0  0  0  0  0  0  0  0
   39.5070   32.4980   37.8960 H   0  0  0  0  0  0  0  0  0  0  0  0
   36.8020   33.2550   40.0440 O   0  0  0  0  0  0  0  0  0  0  0  0
   35.9030   33.4280   40.4220 H   0  0  0  0  0  0  0  0  0  0  0  0
  1  8  1  0  0  0  0
  1  2  1  0  0  0  0
  1  3  1  0  0  0  0
  4 10  1  0  0  0  0
  5 11  1  0  0  0  0
  5  4  2  0  0  0  0
  6  5  1  0  0  0  0
  7  6  2  0  0  0  0
  7  8  1  0  0  0  0
  8  9  2  0  0  0  0
  9  4  1  0  0  0  0
 12  6  1  0  0  0  0
 12 14  1  0  0  0  0
 13 12  1  0  0  0  0
 15 12  1  0  0  0  0
 16  1  1  0  0  0  0
 17 16  1  0  0  0  0
 18 16  1  0  0  0  0
 19 25  1  6  0  0  0
 20 19  1  0  0  0  0
 20 16  1  6  0  0  0
 21 20  1  0  0  0  0
 22 21  1  0  0  0  0
 23 27  1  1  0  0  0
 23 22  1  0  0  0  0
 23 24  1  0  0  0  0
 24 29  1  1  0  0  0
 24 19  1  0  0  0  0
 25 26  1  0  0  0  0
 28 27  1  0  0  0  0
 29 30  1  0  0  0  0
M  END
>  <minimizedAffinity>
-5.41399765

$$$$

 OpenBabel03242515143D

 30 31  0  0  1  0  0  0  0  0999 V2000
   36.4270   28.5720   38.2700 C   0  0  0  0  0  0  0  0  0  0  0  0
   36.1290   28.0220   37.3310 H   0  0  0  0  0  0  0  0  0  0  0  0
   35.5510   29.1560   38.5680 H   0  0  0  0  0  0  0  0  0  0  0  0
   36.9600   25.4080   40.2140 C   0  0  0  0  0  0  0  0  0  0  0  0
   37.0680   25.9320   41.5260 C   0  0  0  0  0  0  0  0  0  0  0  0
   36.9540   27.3140   41.6590 C   0  0  0  0  0  0  0  0  0  0  0  0
   36.7460   28.0810   40.5380 N   0  0  0  0  0  0  0  0  0  0  0  0
   36.6510   27.5230   39.3050 C   0  0  0  0  0  0  0  0  0  0  0  0
   36.7570   26.1960   39.1440 N   0  0  0  0  0  0  0  0  0  0  0  0
   37.0370   24.3470   40.0190 H   0  0  0  0  0  0  0  0  0  0  0  0
   37.2300   25.2610   42.3450 H   0  0  0  0  0  0  0  0  0  0  0  0
   37.0660   27.8410   43.0080 C   0  0  0  0  0  0  0  0  0  0  0  0
   38.1220   27.2150   43.6770 F   0  0  0  0  0  0  0  0  0  0  0  0
   35.9220   27.4400   43.6800 F   0  0  0  0  0  0  0  0  0  0  0  0
   37.2740   29.1890   43.0530 F   0  0  0  0  0  0  0  0  0  0  0  0
   37.6570   29.3470   37.9640 C   0  0  0  0  0  0  0  0  0  0  0  0
   38.5340   29.0540   38.5680 H   0  0  0  0  0  0  0  0  0  0  0  0
   37.9460   29.0840   36.9080 H   0  0  0  0  0  0  0  0  0  0  0  0
   37.1770   31.3970   39.3250 C   0  0  2  0  0  3  0  0  0  0  0  0
   37.4200   30.8170   37.9670 C   0  0  1  0  0  3  0  0  0  0  0  0
   38.4810   31.4930   37.3690 O   0  0  0  0  0  0  0  0  0  0  0  0
   39.5340   31.7250   38.2210 C   0  0  0  0  0  2  0  0  0  0  0  0
   39.1440   32.8560   39.1370 C   0  0  1  0  0  3  0  0  0  0  0  0
   37.6280   32.8610   39.2850 C   0  0  2  0  0  3  0  0  0  0  0  0
   37.8790   30.8170   40.3520 O   0  0  0  0  0  0  0  0  0  0  0  0
   38.2200   29.9210   40.2110 H   0  0  0  0  0  0  0  0  0  0  0  0
   39.7640   32.7760   40.3830 O   0  0  0  0  0  0  0  0  0  0  0  0
   40.5250   32.1240   40.3520 H   0  0  0  0  0  0  0  0  0  0  0  0
   37.2750   33.5130   40.4660 O   0  0  0  0  0  0  0  0  0  0  0  0
   36.4840   34.1000   40.3650 H   0  0  0  0  0  0  0  0  0  0  0  0
  1  3  1  0  0  0  0
  1  8  1  0  0  0  0
  2  1  1  0  0  0  0
  4  5  1  0  0  0  0
  5  6  2  0  0  0  0
  5 11  1  0  0  0  0
  6 12  1  0  0  0  0
  7  6  1  0  0  0  0
  8  7  2  0  0  0  0
  9  8  1  0  0  0  0
  9  4  2  0  0  0  0
 10  4  1  0  0  0  0
 12 15  1  0  0  0  0
 12 13  1  0  0  0  0
 12 14  1  0  0  0  0
 16  1  1  0  0  0  0
 16 17  1  0  0  0  0
 18 16  1  0  0  0  0
 19 25  1  1  0  0  0
 20 16  1  1  0  0  0
 20 19  1  0  0  0  0
 21 20  1  0  0  0  0
 21 22  1  0  0  0  0
 22 23  1  0  0  0  0
 23 24  1  0  0  0  0
 23 27  1  1  0  0  0
 24 19  1  0  0  0  0
 24 29  1  1  0  0  0
 26 25  1  0  0  0  0
 28 27  1  0  0  0  0
 30 29  1  0  0  0  0
M  END
>  <minimizedAffinity>
-5.29298353

$$$$

 OpenBabel03242515143D

 30 31  0  0  1  0  0  0  0  0999 V2000
   39.0260   29.9310   39.2680 C   0  0  0  0  0  0  0  0  0  0  0  0
   39.8920   29.2830   38.9430 H   0  0  0  0  0  0  0  0  0  0  0  0
   38.1480   29.5480   38.7400 H   0  0  0  0  0  0  0  0  0  0  0  0
   38.9780   29.9780   43.0190 C   0  0  0  0  0  0  0  0  0  0  0  0
   38.2690   28.7780   43.2780 C   0  0  0  0  0  0  0  0  0  0  0  0
   37.8580   28.0420   42.1690 C   0  0  0  0  0  0  0  0  0  0  0  0
   38.1560   28.5050   40.9100 N   0  0  0  0  0  0  0  0  0  0  0  0
   38.8380   29.6620   40.7230 C   0  0  0  0  0  0  0  0  0  0  0  0
   39.2470   30.3930   41.7700 N   0  0  0  0  0  0  0  0  0  0  0  0
   39.3330   30.6110   43.8210 H   0  0  0  0  0  0  0  0  0  0  0  0
   38.0800   28.4910   44.2930 H   0  0  0  0  0  0  0  0  0  0  0  0
   37.1330   26.8150   42.4460 C   0  0  0  0  0  0  0  0  0  0  0  0
   38.0110   25.8430   42.9330 F   0  0  0  0  0  0  0  0  0  0  0  0
   36.7010   26.3320   41.2200 F   0  0  0  0  0  0  0  0  0  0  0  0
   36.1240   26.9680   43.3520 F   0  0  0  0  0  0  0  0  0  0  0  0
   39.3960   31.3430   38.9900 C   0  0  0  0  0  0  0  0  0  0  0  0
   38.5440   31.9770   38.6840 H   0  0  0  0  0  0  0  0  0  0  0  0
   39.7350   31.7830   39.9680 H   0  0  0  0  0  0  0  0  0  0  0  0
   40.8510   32.8520   37.6140 C   0  0  2  0  0  3  0  0  0  0  0  0
   40.5590   31.4560   38.0660 C   0  0  1  0  0  3  0  0  0  0  0  0
   41.7060   30.9170   38.6440 O   0  0  0  0  0  0  0  0  0  0  0  0
   42.3630   31.7910   39.4760 C   0  0  0  0  0  2  0  0  0  0  0  0
   43.0940   32.7860   38.6130 C   0  0  1  0  0  3  0  0  0  0  0  0
   42.3470   32.9240   37.2920 C   0  0  2  0  0  3  0  0  0  0  0  0
   40.6190   33.8370   38.5400 O   0  0  0  0  0  0  0  0  0  0  0  0
   40.0150   33.6310   39.2700 H   0  0  0  0  0  0  0  0  0  0  0  0
   43.2410   34.0270   39.2320 O   0  0  0  0  0  0  0  0  0  0  0  0
   43.0470   33.9520   40.2130 H   0  0  0  0  0  0  0  0  0  0  0  0
   42.6610   34.1490   36.7030 O   0  0  0  0  0  0  0  0  0  0  0  0
   42.7930   34.0870   35.7240 H   0  0  0  0  0  0  0  0  0  0  0  0
  1  8  1  0  0  0  0
  2  1  1  0  0  0  0
  3  1  1  0  0  0  0
  4  5  1  0  0  0  0
  4 10  1  0  0  0  0
  5 11  1  0  0  0  0
  6 12  1  0  0  0  0
  6  5  2  0  0  0  0
  7  6  1  0  0  0  0
  8  7  2  0  0  0  0
  8  9  1  0  0  0  0
  9  4  2  0  0  0  0
 12 13  1  0  0  0  0
 12 15  1  0  0  0  0
 14 12  1  0  0  0  0
 16  1  1  0  0  0  0
 16 18  1  0  0  0  0
 17 16  1  0  0  0  0
 19 20  1  0  0  0  0
 19 25  1  1  0  0  0
 20 21  1  0  0  0  0
 20 16  1  1  0  0  0
 21 22  1  0  0  0  0
 23 27  1  1  0  0  0
 23 22  1  0  0  0  0
 24 29  1  1  0  0  0
 24 19  1  0  0  0  0
 24 23  1  0  0  0  0
 25 26  1  0  0  0  0
 27 28  1  0  0  0  0
 30 29  1  0  0  0  0
M  END
>  <minimizedAffinity>
-5.24958372

$$$$
