
 OpenBabel03252504333D

 43 45  0  0  1  0  0  0  0  0999 V2000
   40.9480   35.1540   41.5850 C   0  0  0  0  0  0  0  0  0  0  0  0
   41.1600   34.8600   42.6500 H   0  0  0  0  0  0  0  0  0  0  0  0
   40.2550   36.0200   41.6610 H   0  0  0  0  0  0  0  0  0  0  0  0
   40.6310   32.7430   41.4910 C   0  0  0  0  0  0  0  0  0  0  0  0
   40.1590   33.9960   41.0590 C   0  0  0  0  0  0  0  0  0  0  0  0
   39.0730   34.0350   40.2540 C   0  0  0  0  0  0  0  0  0  0  0  0
   38.5330   32.8720   39.9300 N   0  0  0  0  0  0  0  0  0  0  0  0
   38.9480   31.6780   40.3180 C   0  0  0  0  0  0  0  0  0  0  0  0
   40.0650   31.5720   41.1510 N   0  0  0  0  0  0  0  0  0  0  0  0
   41.4920   32.6200   42.1350 H   0  0  0  0  0  0  0  0  0  0  0  0
   38.7460   35.0160   39.9460 H   0  0  0  0  0  0  0  0  0  0  0  0
   37.1990   30.0450   40.8310 C   0  0  1  0  0  3  0  0  0  0  0  0
   38.2980   30.3960   39.9230 C   0  0  2  0  0  3  0  0  0  0  0  0
   39.2980   29.4840   39.7370 O   0  0  0  0  0  0  0  0  0  0  0  0
   39.0520   28.1990   40.1260 C   0  0  0  0  0  2  0  0  0  0  0  0
   38.8170   28.3060   41.6390 C   0  0  1  0  0  3  0  0  0  0  0  0
   37.4160   28.8670   41.7340 C   0  0  1  0  0  3  0  0  0  0  0  0
   36.7930   31.1130   41.6640 O   0  0  0  0  0  0  0  0  0  0  0  0
   37.1240   31.0090   42.5760 H   0  0  0  0  0  0  0  0  0  0  0  0
   38.8850   27.0320   42.1520 O   0  0  0  0  0  0  0  0  0  0  0  0
   39.5690   26.5080   41.6460 H   0  0  0  0  0  0  0  0  0  0  0  0
   37.1890   29.1530   43.0820 O   0  0  0  0  0  0  0  0  0  0  0  0
   36.4860   28.5840   43.4830 H   0  0  0  0  0  0  0  0  0  0  0  0
   42.0080   35.4940   40.8080 O   0  0  0  0  0  0  0  0  0  0  0  0
   43.3580   35.4390   41.1270 C   0  0  0  0  0  3  0  0  0  0  0  0
   43.6580   35.5220   42.4200 C   0  0  0  0  0  3  0  0  0  0  0  0
   45.0550   35.4820   43.0090 C   0  0  0  0  0  0  0  0  0  0  0  0
   45.7300   34.9730   42.2920 H   0  0  0  0  0  0  0  0  0  0  0  0
   45.4370   36.4950   43.2220 H   0  0  0  0  0  0  0  0  0  0  0  0
   44.9880   34.7350   44.1690 O   0  0  0  0  0  0  0  0  0  0  0  0
   45.7240   32.5640   42.8170 O   0  0  0  0  0  0  0  0  0  0  0  0
   45.9750   33.3710   44.0710 P   0  0  1  0  0  0  0  0  0  0  0  0
   47.6150   33.8360   44.0400 O   0  0  0  0  0  0  0  0  0  0  0  0
   47.6440   34.6400   44.6510 H   0  0  0  0  0  0  0  0  0  0  0  0
   45.7640   32.4020   45.4350 O   0  0  0  0  0  0  0  0  0  0  0  0
   46.1030   33.0560   46.6040 C   0  0  0  0  0  0  0  0  0  0  0  0
   47.0390   32.3860   47.5630 C   0  0  0  0  0  0  0  0  0  0  0  0
   45.5500   32.4540   47.8710 C   0  0  0  0  0  0  0  0  0  0  0  0
   46.1070   34.1600   46.5420 H   0  0  0  0  0  0  0  0  0  0  0  0
   47.4570   31.4200   47.2050 H   0  0  0  0  0  0  0  0  0  0  0  0
   47.6710   33.0710   48.1590 H   0  0  0  0  0  0  0  0  0  0  0  0
   45.2050   33.1180   48.6870 H   0  0  0  0  0  0  0  0  0  0  0  0
   45.0480   31.4660   47.8240 H   0  0  0  0  0  0  0  0  0  0  0  0
  1  3  1  0  0  0  0
  1  2  1  0  0  0  0
  4 10  1  0  0  0  0
  5  4  2  0  0  0  0
  5  1  1  0  0  0  0
  6  5  1  0  0  0  0
  7  6  2  0  0  0  0
  7  8  1  0  0  0  0
  8  9  2  0  0  0  0
  9  4  1  0  0  0  0
 11  6  1  0  0  0  0
 12 18  1  1  0  0  0
 12 17  1  0  0  0  0
 13  8  1  1  0  0  0
 13 12  1  0  0  0  0
 14 13  1  0  0  0  0
 14 15  1  0  0  0  0
 15 16  1  0  0  0  0
 16 17  1  0  0  0  0
 16 20  1  1  0  0  0
 17 22  1  1  0  0  0
 18 19  1  0  0  0  0
 21 20  1  0  0  0  0
 22 23  1  0  0  0  0
 24 25  1  0  0  0  0
 24  1  1  0  0  0  0
 25 26  2  0  0  0  0
 26 27  1  0  0  0  0
 27 29  1  0  0  0  0
 27 30  1  0  0  0  0
 28 27  1  0  0  0  0
 32 31  2  6  0  0  0
 32 30  1  0  0  0  0
 32 35  1  0  0  0  0
 33 32  1  0  0  0  0
 33 34  1  0  0  0  0
 35 36  1  0  0  0  0
 36 37  1  0  0  0  0
 36 38  1  0  0  0  0
 37 38  1  0  0  0  0
 37 41  1  0  0  0  0
 38 42  1  0  0  0  0
 39 36  1  0  0  0  0
 40 37  1  0  0  0  0
 43 38  1  0  0  0  0
M  END
>  <minimizedAffinity>
-5.87645721

>  <minimizedRMSD>
1.19745028

$$$$
