
 OpenBabel03252507083D

 27 28  0  0  1  0  0  0  0  0999 V2000
   44.5400   35.8180   44.5880 C   0  0  0  0  0  0  0  0  0  0  0  0
   45.1520   35.8040   43.3190 C   0  0  0  0  0  0  0  0  0  0  0  0
   46.1360   34.8520   43.0810 C   0  0  0  0  0  0  0  0  0  0  0  0
   46.4730   33.9730   44.0780 N   0  0  0  0  0  0  0  0  0  0  0  0
   45.8690   34.0170   45.2710 C   0  0  0  0  0  0  0  0  0  0  0  0
   44.9050   34.9310   45.5390 N   0  0  0  0  0  0  0  0  0  0  0  0
   43.7820   36.5660   44.7400 H   0  0  0  0  0  0  0  0  0  0  0  0
   44.8760   36.4960   42.5580 H   0  0  0  0  0  0  0  0  0  0  0  0
   45.0760   32.9160   47.2740 C   0  0  1  0  0  3  0  0  0  0  0  0
   46.2490   33.0580   46.3310 C   0  0  1  0  0  3  0  0  0  0  0  0
   46.5840   31.8060   45.8520 O   0  0  0  0  0  0  0  0  0  0  0  0
   47.0860   31.0750   46.9290 C   0  0  0  0  0  2  0  0  0  0  0  0
   45.9910   30.7710   47.9280 C   0  0  2  0  0  3  0  0  0  0  0  0
   45.4880   32.0940   48.4760 C   0  0  1  0  0  3  0  0  0  0  0  0
   44.5850   34.1680   47.6660 O   0  0  0  0  0  0  0  0  0  0  0  0
   45.3240   34.8070   47.8150 H   0  0  0  0  0  0  0  0  0  0  0  0
   46.4990   29.9780   48.9360 O   0  0  0  0  0  0  0  0  0  0  0  0
   47.2930   30.3780   49.3360 H   0  0  0  0  0  0  0  0  0  0  0  0
   46.5020   32.6740   49.2030 O   0  0  0  0  0  0  0  0  0  0  0  0
   46.7860   33.5630   48.9210 H   0  0  0  0  0  0  0  0  0  0  0  0
   46.7260   34.8620   41.8140 O   0  0  0  0  0  0  0  0  0  0  0  0
   48.6970   33.2220   41.1390 O   0  0  0  0  0  0  0  0  0  0  0  0
   48.4240   34.6080   41.6920 P   0  0  0  0  0  0  0  0  0  0  0  0
   49.0650   35.8110   40.7140 O   0  0  0  0  0  0  0  0  0  0  0  0
   49.1320   36.6340   41.2610 H   0  0  0  0  0  0  0  0  0  0  0  0
   49.0690   34.6820   43.2580 O   0  0  0  0  0  0  0  0  0  0  0  0
   49.5190   35.5680   43.4090 H   0  0  0  0  0  0  0  0  0  0  0  0
  1  7  1  0  0  0  0
  1  6  1  0  0  0  0
  2  1  2  0  0  0  0
  3  2  1  0  0  0  0
  3  4  2  0  0  0  0
  4  5  1  0  0  0  0
  5  6  2  0  0  0  0
  8  2  1  0  0  0  0
  9 15  1  1  0  0  0
  9 14  1  0  0  0  0
 10  5  1  6  0  0  0
 10  9  1  0  0  0  0
 11 10  1  0  0  0  0
 11 12  1  0  0  0  0
 12 13  1  0  0  0  0
 13 14  1  0  0  0  0
 13 17  1  1  0  0  0
 14 19  1  6  0  0  0
 15 16  1  0  0  0  0
 17 18  1  0  0  0  0
 20 19  1  0  0  0  0
 21  3  1  0  0  0  0
 22 23  2  0  0  0  0
 23 21  1  0  0  0  0
 23 26  1  0  0  0  0
 24 25  1  0  0  0  0
 24 23  1  0  0  0  0
 26 27  1  0  0  0  0
M  END
>  <minimizedAffinity>
-7.01983356

>  <minimizedRMSD>
0.474363327

$$$$
