
 OpenBabel03242511473D

 47 49  0  0  1  0  0  0  0  0999 V2000
   44.5940   35.7520   44.7070 C   0  0  0  0  0  0  0  0  0  0  0  0
   44.2480   35.9830   43.3540 C   0  0  0  0  0  0  0  0  0  0  0  0
   44.4880   34.9540   42.4640 C   0  0  0  0  0  0  0  0  0  0  0  0
   45.0280   33.8010   42.9080 N   0  0  0  0  0  0  0  0  0  0  0  0
   45.3360   33.6380   44.2070 C   0  0  0  0  0  0  0  0  0  0  0  0
   45.1300   34.5800   45.1000 N   0  0  0  0  0  0  0  0  0  0  0  0
   44.4100   36.5530   45.4150 H   0  0  0  0  0  0  0  0  0  0  0  0
   43.8140   36.9310   43.0370 H   0  0  0  0  0  0  0  0  0  0  0  0
   45.9220   32.3460   44.6110 C   0  0  0  0  0  0  0  0  0  0  0  0
   45.0590   31.6580   44.8080 H   0  0  0  0  0  0  0  0  0  0  0  0
   46.5530   31.8910   43.8220 H   0  0  0  0  0  0  0  0  0  0  0  0
   46.7070   32.5410   45.8870 C   0  0  0  0  0  0  0  0  0  0  0  0
   46.7770   33.6380   46.1320 H   0  0  0  0  0  0  0  0  0  0  0  0
   47.7630   32.2240   45.6950 H   0  0  0  0  0  0  0  0  0  0  0  0
   46.1360   31.8240   47.0010 C   0  0  0  0  0  0  0  0  0  0  0  0
   45.3440   32.2970   48.0100 C   0  0  0  0  0  0  0  0  0  0  0  0
   44.8540   31.5320   49.0200 C   0  0  0  0  0  0  0  0  0  0  0  0
   45.1750   30.1900   49.0300 C   0  0  0  0  0  0  0  0  0  0  0  0
   45.9710   29.7010   48.0220 C   0  0  0  0  0  0  0  0  0  0  0  0
   46.4550   30.5020   47.0090 C   0  0  0  0  0  0  0  0  0  0  0  0
   45.1120   33.3680   47.9670 H   0  0  0  0  0  0  0  0  0  0  0  0
   44.2360   32.0150   49.7660 H   0  0  0  0  0  0  0  0  0  0  0  0
   44.7550   29.6250   49.8630 H   0  0  0  0  0  0  0  0  0  0  0  0
   46.1300   28.6210   48.1770 H   0  0  0  0  0  0  0  0  0  0  0  0
   48.6010   29.4580   46.5900 C   0  0  0  0  0  0  0  0  0  0  0  0
   49.3730   29.8010   47.5540 O   0  0  0  0  0  0  0  0  0  0  0  0
   47.2470   29.6760   46.1390 N   0  0  0  0  0  0  0  0  0  0  0  0
   49.4120   28.8690   46.1670 H   0  0  0  0  0  0  0  0  0  0  0  0
   47.0670   29.1870   45.2380 H   0  0  0  0  0  0  0  0  0  0  0  0
   44.1230   35.2060   41.0480 C   0  0  0  0  0  0  0  0  0  0  0  0
   44.4160   36.2420   40.7980 H   0  0  0  0  0  0  0  0  0  0  0  0
   44.7200   34.5430   40.4040 H   0  0  0  0  0  0  0  0  0  0  0  0
   42.6280   35.0160   40.8200 C   0  0  0  0  0  0  0  0  0  0  0  0
   42.1110   35.8600   41.2970 H   0  0  0  0  0  0  0  0  0  0  0  0
   42.2820   34.0640   41.2610 H   0  0  0  0  0  0  0  0  0  0  0  0
   42.5100   33.5550   38.8180 C   0  0  1  0  0  3  0  0  0  0  0  0
   42.2900   34.9060   39.3390 C   0  0  1  0  0  3  0  0  0  0  0  0
   41.0680   35.4960   39.1860 O   0  0  0  0  0  0  0  0  0  0  0  0
   40.3250   35.0690   38.1170 C   0  0  0  0  0  2  0  0  0  0  0  0
   40.0230   33.6050   38.3800 C   0  0  1  0  0  3  0  0  0  0  0  0
   41.3540   32.9050   38.1180 C   0  0  2  0  0  3  0  0  0  0  0  0
   43.6050   33.4930   37.9330 O   0  0  0  0  0  0  0  0  0  0  0  0
   44.1270   34.3350   37.9830 H   0  0  0  0  0  0  0  0  0  0  0  0
   39.6130   33.3900   39.6970 O   0  0  0  0  0  0  0  0  0  0  0  0
   39.4250   34.2360   40.1670 H   0  0  0  0  0  0  0  0  0  0  0  0
   41.2560   31.5450   38.4530 O   0  0  0  0  0  0  0  0  0  0  0  0
   40.5070   31.4370   39.1200 H   0  0  0  0  0  0  0  0  0  0  0  0
  1  6  1  0  0  0  0
  1  7  1  0  0  0  0
  2  1  2  0  0  0  0
  3  4  2  0  0  0  0
  3  2  1  0  0  0  0
  4  5  1  0  0  0  0
  5  9  1  0  0  0  0
  5  6  2  0  0  0  0
  8  2  1  0  0  0  0
  9 10  1  0  0  0  0
  9 12  1  0  0  0  0
 11  9  1  0  0  0  0
 12 13  1  0  0  0  0
 12 15  1  0  0  0  0
 14 12  1  0  0  0  0
 15 20  2  0  0  0  0
 15 16  1  0  0  0  0
 16 17  2  0  0  0  0
 17 18  1  0  0  0  0
 17 22  1  0  0  0  0
 18 23  1  0  0  0  0
 19 24  1  0  0  0  0
 19 18  2  0  0  0  0
 20 19  1  0  0  0  0
 21 16  1  0  0  0  0
 25 26  2  0  0  0  0
 27 25  1  0  0  0  0
 27 20  1  0  0  0  0
 28 25  1  0  0  0  0
 29 27  1  0  0  0  0
 30  3  1  0  0  0  0
 31 30  1  0  0  0  0
 32 30  1  0  0  0  0
 33 30  1  0  0  0  0
 33 35  1  0  0  0  0
 33 34  1  0  0  0  0
 36 42  1  6  0  0  0
 36 37  1  0  0  0  0
 37 33  1  1  0  0  0
 38 37  1  0  0  0  0
 39 40  1  0  0  0  0
 39 38  1  0  0  0  0
 40 44  1  1  0  0  0
 41 40  1  0  0  0  0
 41 46  1  1  0  0  0
 41 36  1  0  0  0  0
 42 43  1  0  0  0  0
 44 45  1  0  0  0  0
 46 47  1  0  0  0  0
M  END
>  <minimizedAffinity>
-6.0222168

>  <minimizedRMSD>
0.942777157

$$$$
