
 OpenBabel03242518263D

 48 52  0  0  1  0  0  0  0  0999 V2000
   46.6150   30.6770   44.6250 C   0  0  0  0  0  0  0  0  0  0  0  0
   46.1330   31.9290   44.8560 C   0  0  0  0  0  0  0  0  0  0  0  0
   46.4540   32.5310   46.0550 C   0  0  0  0  0  0  0  0  0  0  0  0
   47.2350   31.8840   46.9840 C   0  0  0  0  0  0  0  0  0  0  0  0
   47.7190   30.6060   46.7300 C   0  0  0  0  0  0  0  0  0  0  0  0
   47.4060   29.9840   45.5260 C   0  0  0  0  0  0  0  0  0  0  0  0
   48.4710   30.2050   47.8320 O   0  0  0  0  0  0  0  0  0  0  0  0
   48.1890   31.1110   48.8910 C   0  0  2  0  0  0  0  0  0  0  0  0
   47.7010   32.2620   48.2560 O   0  0  0  0  0  0  0  0  0  0  0  0
   46.4160   30.1220   43.7120 H   0  0  0  0  0  0  0  0  0  0  0  0
   46.0940   33.5250   46.2850 H   0  0  0  0  0  0  0  0  0  0  0  0
   47.7910   29.0070   45.3670 H   0  0  0  0  0  0  0  0  0  0  0  0
   47.4020   30.7140   49.5740 H   0  0  0  0  0  0  0  0  0  0  0  0
   44.5010   34.5780   42.8710 C   0  0  0  0  0  0  0  0  0  0  0  0
   43.7310   33.8520   41.9820 C   0  0  0  0  0  0  0  0  0  0  0  0
   43.7810   32.4630   42.0730 C   0  0  0  0  0  0  0  0  0  0  0  0
   44.5600   31.8590   43.0070 N   0  0  0  0  0  0  0  0  0  0  0  0
   45.3040   32.6070   43.8640 C   0  0  0  0  0  0  0  0  0  0  0  0
   45.2670   33.9570   43.7890 N   0  0  0  0  0  0  0  0  0  0  0  0
   44.5720   35.6540   42.9290 H   0  0  0  0  0  0  0  0  0  0  0  0
   43.1790   31.9210   41.3770 H   0  0  0  0  0  0  0  0  0  0  0  0
   42.9570   34.5790   41.0520 N   0  0  0  0  0  0  0  0  0  0  0  0
   43.1180   34.2780   39.6570 C   0  0  0  0  0  0  0  0  0  0  0  0
   42.3360   35.1520   38.7500 C   0  0  0  0  0  0  0  0  0  0  0  0
   40.9830   35.3390   39.1680 N   0  0  0  0  0  0  0  0  0  0  0  0
   40.7120   35.3720   40.5480 C   0  0  0  0  0  0  0  0  0  0  0  0
   42.0030   35.6100   41.3340 C   0  0  0  0  0  0  0  0  0  0  0  0
   42.9170   33.1840   39.5090 H   0  0  0  0  0  0  0  0  0  0  0  0
   44.2080   34.4120   39.4180 H   0  0  0  0  0  0  0  0  0  0  0  0
   42.8120   36.1280   38.6270 H   0  0  0  0  0  0  0  0  0  0  0  0
   42.3360   34.6760   37.7370 H   0  0  0  0  0  0  0  0  0  0  0  0
   40.6070   36.2010   38.7080 H   0  0  0  0  0  0  0  0  0  0  0  0
   40.3370   34.3810   40.8810 H   0  0  0  0  0  0  0  0  0  0  0  0
   39.9440   36.0980   40.8610 H   0  0  0  0  0  0  0  0  0  0  0  0
   41.7400   35.7100   42.4030 H   0  0  0  0  0  0  0  0  0  0  0  0
   42.4230   36.5810   40.9950 H   0  0  0  0  0  0  0  0  0  0  0  0
   49.6690   30.3050   50.6890 C   0  0  2  0  0  3  0  0  0  0  0  0
   49.4900   31.3340   49.6060 C   0  0  1  0  0  3  0  0  0  0  0  0
   50.5080   31.3670   48.6820 O   0  0  0  0  0  0  0  0  0  0  0  0
   51.6510   30.6930   49.0400 C   0  0  0  0  0  2  0  0  0  0  0  0
   52.0510   30.8450   50.4730 C   0  0  2  0  0  3  0  0  0  0  0  0
   50.9270   30.7250   51.4560 C   0  0  2  0  0  3  0  0  0  0  0  0
   49.7470   29.0080   50.2310 O   0  0  0  0  0  0  0  0  0  0  0  0
   48.9560   28.4580   50.4500 H   0  0  0  0  0  0  0  0  0  0  0  0
   52.7650   32.0310   50.6500 O   0  0  0  0  0  0  0  0  0  0  0  0
   52.2010   32.8210   50.5830 H   0  0  0  0  0  0  0  0  0  0  0  0
   51.1610   29.8280   52.4830 O   0  0  0  0  0  0  0  0  0  0  0  0
   51.0010   30.2550   53.3800 H   0  0  0  0  0  0  0  0  0  0  0  0
  1  2  2  0  0  0  0
  1  6  1  0  0  0  0
  2  3  1  0  0  0  0
  3 11  1  0  0  0  0
  3  4  2  0  0  0  0
  4  9  1  0  0  0  0
  5  4  1  0  0  0  0
  5  7  1  0  0  0  0
  6  5  2  0  0  0  0
  7  8  1  0  0  0  0
  8 13  1  1  0  0  0
  8 38  1  0  0  0  0
  9  8  1  0  0  0  0
 10  1  1  0  0  0  0
 12  6  1  0  0  0  0
 14 20  1  0  0  0  0
 14 19  1  0  0  0  0
 15 16  1  0  0  0  0
 15 14  2  0  0  0  0
 16 17  2  0  0  0  0
 17 18  1  0  0  0  0
 18  2  1  0  0  0  0
 19 18  2  0  0  0  0
 21 16  1  0  0  0  0
 22 27  1  0  0  0  0
 22 15  1  0  0  0  0
 23 22  1  0  0  0  0
 24 25  1  0  0  0  0
 24 23  1  0  0  0  0
 25 26  1  0  0  0  0
 26 34  1  0  0  0  0
 26 33  1  0  0  0  0
 26 27  1  0  0  0  0
 27 35  1  0  0  0  0
 28 23  1  0  0  0  0
 29 23  1  0  0  0  0
 30 24  1  0  0  0  0
 31 24  1  0  0  0  0
 32 25  1  0  0  0  0
 36 27  1  0  0  0  0
 37 43  1  6  0  0  0
 37 42  1  0  0  0  0
 38 39  1  6  0  0  0
 38 37  1  0  0  0  0
 39 40  1  0  0  0  0
 40 41  1  0  0  0  0
 41 45  1  6  0  0  0
 41 42  1  0  0  0  0
 42 47  1  1  0  0  0
 43 44  1  0  0  0  0
 46 45  1  0  0  0  0
 47 48  1  0  0  0  0
M  END
>  <minimizedAffinity>
-6.30286217

>  <minimizedRMSD>
0.815677941

$$$$
