
 OpenBabel03242520373D

 38 41  0  0  1  0  0  0  0  0999 V2000
   45.7780   33.6270   42.9320 C   0  0  0  0  0  0  0  0  0  0  0  0
   47.0540   33.1170   42.4940 C   0  0  0  0  0  0  0  0  0  0  0  0
   47.8850   32.6000   43.4540 C   0  0  0  0  0  0  0  0  0  0  0  0
   47.4810   32.5910   44.7470 N   0  0  0  0  0  0  0  0  0  0  0  0
   46.2750   33.0780   45.1300 C   0  0  0  0  0  0  0  0  0  0  0  0
   45.4390   33.5900   44.2100 N   0  0  0  0  0  0  0  0  0  0  0  0
   45.0930   34.0410   42.2070 H   0  0  0  0  0  0  0  0  0  0  0  0
   48.8590   32.2030   43.1720 H   0  0  0  0  0  0  0  0  0  0  0  0
   47.4570   33.1640   41.0680 C   0  0  1  0  0  0  0  0  0  0  0  0
   46.9200   34.1290   40.1590 C   0  0  0  0  0  0  0  0  0  0  0  0
   48.3050   34.3660   40.6060 C   0  0  1  0  0  0  0  0  0  0  0  0
   47.9320   32.1920   40.7530 H   0  0  0  0  0  0  0  0  0  0  0  0
   46.0840   34.7860   40.4700 H   0  0  0  0  0  0  0  0  0  0  0  0
   46.7690   33.7950   39.0880 H   0  0  0  0  0  0  0  0  0  0  0  0
   49.1050   34.1440   39.8510 H   0  0  0  0  0  0  0  0  0  0  0  0
   48.6880   35.4280   41.5650 C   0  0  0  0  0  0  0  0  0  0  0  0
   49.2920   36.5010   40.9320 F   0  0  0  0  0  0  0  0  0  0  0  0
   49.5470   34.9400   42.5530 F   0  0  0  0  0  0  0  0  0  0  0  0
   47.5350   35.8980   42.1420 F   0  0  0  0  0  0  0  0  0  0  0  0
   45.9180   33.0190   46.5800 C   0  0  2  0  0  0  0  0  0  0  0  0
   47.0560   32.5130   47.4510 C   0  0  0  0  0  0  0  0  0  0  0  0
   45.8170   31.7000   47.2680 C   0  0  2  0  0  0  0  0  0  0  0  0
   45.2540   33.8260   46.9380 H   0  0  0  0  0  0  0  0  0  0  0  0
   47.1940   33.0510   48.4100 H   0  0  0  0  0  0  0  0  0  0  0  0
   48.0070   32.2190   46.9760 H   0  0  0  0  0  0  0  0  0  0  0  0
   45.1510   31.6580   48.1520 H   0  0  0  0  0  0  0  0  0  0  0  0
   46.9880   29.5770   46.6120 C   0  0  1  0  0  0  0  0  0  0  0  0
   45.7590   30.4670   46.4340 C   0  0  1  0  0  0  0  0  0  0  0  0
   44.6520   29.7280   46.9130 O   0  0  0  0  0  0  0  0  0  0  0  0
   44.9740   29.0600   48.1120 C   0  0  0  0  0  0  0  0  0  0  0  0
   45.6420   27.7480   47.6800 C   0  0  2  0  0  0  0  0  0  0  0  0
   46.5080   28.1260   46.4890 C   0  0  1  0  0  0  0  0  0  0  0  0
   47.8960   29.7460   45.5720 O   0  0  0  0  0  0  0  0  0  0  0  0
   47.6240   30.4950   44.9620 H   0  0  0  0  0  0  0  0  0  0  0  0
   44.6270   26.8660   47.3520 O   0  0  0  0  0  0  0  0  0  0  0  0
   43.8060   27.0160   47.9100 H   0  0  0  0  0  0  0  0  0  0  0  0
   45.8250   27.9720   45.2900 O   0  0  0  0  0  0  0  0  0  0  0  0
   44.8640   27.7390   45.4330 H   0  0  0  0  0  0  0  0  0  0  0  0
  1  6  1  0  0  0  0
  2  1  2  0  0  0  0
  2  3  1  0  0  0  0
  3  4  2  0  0  0  0
  4  5  1  0  0  0  0
  5 20  1  0  0  0  0
  6  5  2  0  0  0  0
  7  1  1  0  0  0  0
  8  3  1  0  0  0  0
  9 12  1  6  0  0  0
  9  2  1  0  0  0  0
 10 13  1  0  0  0  0
 10 11  1  0  0  0  0
 10  9  1  0  0  0  0
 11 15  1  6  0  0  0
 11  9  1  0  0  0  0
 11 16  1  0  0  0  0
 14 10  1  0  0  0  0
 16 19  1  0  0  0  0
 16 18  1  0  0  0  0
 17 16  1  0  0  0  0
 20 23  1  1  0  0  0
 20 22  1  0  0  0  0
 20 21  1  0  0  0  0
 21 24  1  0  0  0  0
 22 21  1  0  0  0  0
 22 26  1  1  0  0  0
 25 21  1  0  0  0  0
 27 33  1  6  0  0  0
 28 27  1  0  0  0  0
 28 29  1  1  0  0  0
 28 22  1  0  0  0  0
 29 30  1  0  0  0  0
 31 35  1  6  0  0  0
 31 30  1  0  0  0  0
 32 37  1  6  0  0  0
 32 27  1  0  0  0  0
 32 31  1  0  0  0  0
 34 33  1  0  0  0  0
 35 36  1  0  0  0  0
 37 38  1  0  0  0  0
M  END
>  <minimizedAffinity>
-5.78660583

>  <minimizedRMSD>
0.826230943

$$$$
