
 OpenBabel03252501453D

 26 27  0  0  1  0  0  0  0  0999 V2000
   44.8480   35.0030   44.5990 C   0  0  0  0  0  0  0  0  0  0  0  0
   44.8210   34.3520   43.3700 C   0  0  0  0  0  0  0  0  0  0  0  0
   45.3050   33.0570   43.3070 C   0  0  0  0  0  0  0  0  0  0  0  0
   45.7880   32.4750   44.4530 N   0  0  0  0  0  0  0  0  0  0  0  0
   45.7990   33.1360   45.6260 C   0  0  0  0  0  0  0  0  0  0  0  0
   45.3310   34.3940   45.6950 N   0  0  0  0  0  0  0  0  0  0  0  0
   44.4580   36.0230   44.6060 H   0  0  0  0  0  0  0  0  0  0  0  0
   45.3260   32.4660   42.3940 H   0  0  0  0  0  0  0  0  0  0  0  0
   46.3790   31.0210   46.6670 C   0  0  1  0  0  0  0  0  0  0  0  0
   46.3190   32.5140   46.8660 C   0  0  2  0  0  0  0  0  0  0  0  0
   45.4420   32.8160   47.8850 O   0  0  0  0  0  0  0  0  0  0  0  0
   45.8440   32.3450   49.1210 C   0  0  0  0  0  0  0  0  0  0  0  0
   46.0890   30.8590   49.0850 C   0  0  2  0  0  0  0  0  0  0  0  0
   46.9880   30.4470   47.9370 C   0  0  1  0  0  0  0  0  0  0  0  0
   45.1030   30.4800   46.5400 O   0  0  0  0  0  0  0  0  0  0  0  0
   44.3940   31.1150   46.8240 H   0  0  0  0  0  0  0  0  0  0  0  0
   44.8750   30.1800   48.9580 O   0  0  0  0  0  0  0  0  0  0  0  0
   44.1090   30.7610   49.2040 H   0  0  0  0  0  0  0  0  0  0  0  0
   47.0080   29.0580   47.9090 O   0  0  0  0  0  0  0  0  0  0  0  0
   47.7490   28.6780   47.4070 H   0  0  0  0  0  0  0  0  0  0  0  0
   44.3080   34.9840   42.1720 C   0  0  0  0  0  0  0  0  0  0  0  0
   43.3460   34.5510   41.3930 C   0  0  0  0  0  0  0  0  0  0  0  0
   42.9110   35.3040   40.1770 C   0  0  0  0  0  0  0  0  0  0  0  0
   42.9500   36.3870   40.4940 H   0  0  0  0  0  0  0  0  0  0  0  0
   43.6430   35.2050   39.3470 H   0  0  0  0  0  0  0  0  0  0  0  0
   41.8790   35.1100   39.8950 H   0  0  0  0  0  0  0  0  0  0  0  0
  1  7  1  0  0  0  0
  1  6  1  0  0  0  0
  2  1  2  0  0  0  0
  3  2  1  0  0  0  0
  3  4  2  0  0  0  0
  4  5  1  0  0  0  0
  5  6  2  0  0  0  0
  8  3  1  0  0  0  0
  9 15  1  1  0  0  0
  9 10  1  0  0  0  0
  9 14  1  0  0  0  0
 10  5  1  6  0  0  0
 10 11  1  0  0  0  0
 11 12  1  0  0  0  0
 13 17  1  6  0  0  0
 13 12  1  0  0  0  0
 14 19  1  6  0  0  0
 14 13  1  0  0  0  0
 15 16  1  0  0  0  0
 17 18  1  0  0  0  0
 20 19  1  0  0  0  0
 21  2  1  0  0  0  0
 22 21  2  0  0  0  0
 23 24  1  0  0  0  0
 23 22  1  0  0  0  0
 25 23  1  0  0  0  0
 26 23  1  0  0  0  0
M  END
>  <minimizedAffinity>
-5.33856392

>  <minimizedRMSD>
1.3422395

$$$$
