
 OpenBabel03242521403D

 24 25  0  0  1  0  0  0  0  0999 V2000
   45.4640   35.1870   43.6180 C   0  0  0  0  0  0  0  0  0  0  0  0
   46.6440   34.6640   43.0900 C   0  0  0  0  0  0  0  0  0  0  0  0
   47.3020   33.6490   43.8190 C   0  0  0  0  0  0  0  0  0  0  0  0
   46.7350   33.2450   44.9980 N   0  0  0  0  0  0  0  0  0  0  0  0
   45.5860   33.7860   45.4640 C   0  0  0  0  0  0  0  0  0  0  0  0
   44.9520   34.7520   44.7800 N   0  0  0  0  0  0  0  0  0  0  0  0
   47.0820   34.9990   42.1490 H   0  0  0  0  0  0  0  0  0  0  0  0
   45.1860   33.4180   46.4120 H   0  0  0  0  0  0  0  0  0  0  0  0
   48.2140   32.1630   42.1550 C   0  0  1  0  0  3  0  0  0  0  0  0
   48.5620   33.0370   43.3300 C   0  0  1  0  0  3  0  0  0  0  0  0
   49.3790   34.0470   42.8710 O   0  0  0  0  0  0  0  0  0  0  0  0
   50.5880   33.6450   42.3720 C   0  0  0  0  0  2  0  0  0  0  0  0
   50.5680   32.5500   41.3700 C   0  0  2  0  0  3  0  0  0  0  0  0
   49.4380   31.5770   41.5050 C   0  0  2  0  0  3  0  0  0  0  0  0
   47.3510   31.1620   42.5580 O   0  0  0  0  0  0  0  0  0  0  0  0
   47.3600   30.3950   41.9480 H   0  0  0  0  0  0  0  0  0  0  0  0
   51.7490   31.8230   41.5210 O   0  0  0  0  0  0  0  0  0  0  0  0
   51.6960   30.9650   41.0240 H   0  0  0  0  0  0  0  0  0  0  0  0
   49.0640   31.1300   40.2380 O   0  0  0  0  0  0  0  0  0  0  0  0
   48.1170   30.9440   40.1350 H   0  0  0  0  0  0  0  0  0  0  0  0
   44.7840   36.2660   42.8250 C   0  0  0  0  0  0  0  0  0  0  0  0
   43.8870   35.7780   42.3550 H   0  0  0  0  0  0  0  0  0  0  0  0
   45.4600   36.7140   42.1020 H   0  0  0  0  0  0  0  0  0  0  0  0
   44.3480   37.0130   43.5340 H   0  0  0  0  0  0  0  0  0  0  0  0
  1  6  1  0  0  0  0
  2  1  2  0  0  0  0
  2  3  1  0  0  0  0
  3  4  2  0  0  0  0
  4  5  1  0  0  0  0
  5  8  1  0  0  0  0
  6  5  2  0  0  0  0
  7  2  1  0  0  0  0
  9 15  1  1  0  0  0
  9 10  1  0  0  0  0
 10  3  1  6  0  0  0
 11 10  1  0  0  0  0
 12 11  1  0  0  0  0
 13 14  1  0  0  0  0
 13 17  1  1  0  0  0
 13 12  1  0  0  0  0
 14 19  1  6  0  0  0
 14  9  1  0  0  0  0
 16 15  1  0  0  0  0
 18 17  1  0  0  0  0
 20 19  1  0  0  0  0
 21 24  1  0  0  0  0
 21  1  1  0  0  0  0
 22 21  1  0  0  0  0
 23 21  1  0  0  0  0
M  END
>  <minimizedAffinity>
-4.26879454

>  <minimizedRMSD>
1.48480141

$$$$
