
 OpenBabel03242515233D

 24 25  0  0  1  0  0  0  0  0999 V2000
   43.9630   35.5320   41.4120 C   0  0  0  0  0  0  0  0  0  0  0  0
   44.7070   35.1610   40.6530 H   0  0  0  0  0  0  0  0  0  0  0  0
   43.9630   36.6270   41.4300 H   0  0  0  0  0  0  0  0  0  0  0  0
   44.3500   35.8840   43.7840 C   0  0  0  0  0  0  0  0  0  0  0  0
   44.4250   34.9880   42.7020 C   0  0  0  0  0  0  0  0  0  0  0  0
   44.9140   33.7160   42.9610 C   0  0  0  0  0  0  0  0  0  0  0  0
   45.2880   33.4130   44.2200 N   0  0  0  0  0  0  0  0  0  0  0  0
   45.2050   34.2900   45.2320 C   0  0  0  0  0  0  0  0  0  0  0  0
   44.7300   35.5570   45.0360 N   0  0  0  0  0  0  0  0  0  0  0  0
   43.9820   36.9160   43.7140 H   0  0  0  0  0  0  0  0  0  0  0  0
   44.9530   33.0620   42.1010 H   0  0  0  0  0  0  0  0  0  0  0  0
   45.5200   33.9900   46.2220 H   0  0  0  0  0  0  0  0  0  0  0  0
   42.5610   34.4340   39.6960 C   0  0  1  0  0  3  0  0  0  0  0  0
   42.5730   35.0500   41.0500 C   0  0  2  0  0  3  0  0  0  0  0  0
   41.5960   35.9450   41.3200 O   0  0  0  0  0  0  0  0  0  0  0  0
   40.3670   35.7360   40.8230 C   0  0  0  0  0  2  0  0  0  0  0  0
   40.2170   35.1650   39.4640 C   0  0  1  0  0  3  0  0  0  0  0  0
   41.1990   34.0420   39.2120 C   0  0  1  0  0  3  0  0  0  0  0  0
   43.0620   35.4150   38.8170 O   0  0  0  0  0  0  0  0  0  0  0  0
   43.3230   35.0240   37.9550 H   0  0  0  0  0  0  0  0  0  0  0  0
   38.9390   34.6150   39.3560 O   0  0  0  0  0  0  0  0  0  0  0  0
   38.2670   35.2710   39.0890 H   0  0  0  0  0  0  0  0  0  0  0  0
   41.1570   33.7890   37.8530 O   0  0  0  0  0  0  0  0  0  0  0  0
   40.6700   34.4550   37.3440 H   0  0  0  0  0  0  0  0  0  0  0  0
  1  3  1  0  0  0  0
  1  5  1  0  0  0  0
  2  1  1  0  0  0  0
  4  9  1  0  0  0  0
  5  6  1  0  0  0  0
  5  4  2  0  0  0  0
  6  7  2  0  0  0  0
  7  8  1  0  0  0  0
  8 12  1  0  0  0  0
  9  8  2  0  0  0  0
 10  4  1  0  0  0  0
 11  6  1  0  0  0  0
 13 19  1  6  0  0  0
 13 14  1  0  0  0  0
 14 15  1  0  0  0  0
 14  1  1  6  0  0  0
 16 15  1  0  0  0  0
 17 21  1  1  0  0  0
 17 16  1  0  0  0  0
 18 23  1  6  0  0  0
 18 17  1  0  0  0  0
 18 13  1  0  0  0  0
 20 19  1  0  0  0  0
 22 21  1  0  0  0  0
 24 23  1  0  0  0  0
M  END
>  <minimizedAffinity>
-5.20107031

>  <minimizedRMSD>
1.29928517

$$$$
