
 OpenBabel03252505263D

 46 49  0  0  1  0  0  0  0  0999 V2000
   39.6460   27.7860   40.4730 F   0  0  0  0  0  0  0  0  0  0  0  0
   38.8170   27.9090   41.5400 C   0  0  0  0  0  0  0  0  0  0  0  0
   38.9040   29.0350   42.3120 C   0  0  0  0  0  0  0  0  0  0  0  0
   38.0700   29.1500   43.3830 C   0  0  0  0  0  0  0  0  0  0  0  0
   37.1670   28.1390   43.6590 C   0  0  0  0  0  0  0  0  0  0  0  0
   37.0730   27.0090   42.8940 C   0  0  0  0  0  0  0  0  0  0  0  0
   37.9330   26.9040   41.8010 C   0  0  0  0  0  0  0  0  0  0  0  0
   38.1490   30.0490   43.9850 H   0  0  0  0  0  0  0  0  0  0  0  0
   36.5340   28.2960   44.5230 H   0  0  0  0  0  0  0  0  0  0  0  0
   36.3530   26.2340   43.1370 H   0  0  0  0  0  0  0  0  0  0  0  0
   37.8060   25.7140   41.0270 N   0  0  0  0  0  0  0  0  0  0  0  0
   38.6740   24.5640   40.9120 C   0  0  0  0  0  0  0  0  0  0  0  0
   37.7000   23.3910   41.1220 C   0  0  0  0  0  0  0  0  0  0  0  0
   36.3750   23.9700   40.7300 C   0  0  0  0  0  0  0  0  0  0  0  0
   36.7560   25.2900   40.1060 C   0  0  2  0  0  0  0  0  0  0  0  0
   39.0880   24.4460   39.8850 H   0  0  0  0  0  0  0  0  0  0  0  0
   39.4460   24.4990   41.6990 H   0  0  0  0  0  0  0  0  0  0  0  0
   38.0020   22.5320   40.5170 H   0  0  0  0  0  0  0  0  0  0  0  0
   37.6780   23.1760   42.2140 H   0  0  0  0  0  0  0  0  0  0  0  0
   35.7120   24.1860   41.5880 H   0  0  0  0  0  0  0  0  0  0  0  0
   35.8340   23.3680   39.9930 H   0  0  0  0  0  0  0  0  0  0  0  0
   35.9710   26.0560   40.1650 H   0  0  0  0  0  0  0  0  0  0  0  0
   37.2080   25.1960   38.6850 C   0  0  0  0  0  0  0  0  0  0  0  0
   36.3450   25.4140   38.0110 H   0  0  0  0  0  0  0  0  0  0  0  0
   38.0460   25.8940   38.4820 H   0  0  0  0  0  0  0  0  0  0  0  0
   37.5190   24.1350   38.5150 H   0  0  0  0  0  0  0  0  0  0  0  0
   41.8320   31.2440   42.4730 C   0  0  0  0  0  0  0  0  0  0  0  0
   41.6880   32.0350   41.3320 C   0  0  0  0  0  0  0  0  0  0  0  0
   40.5780   31.7990   40.5130 C   0  0  0  0  0  0  0  0  0  0  0  0
   39.7190   30.8090   40.8960 N   0  0  0  0  0  0  0  0  0  0  0  0
   39.8810   30.0790   41.9780 C   0  0  0  0  0  0  0  0  0  0  0  0
   40.9300   30.2980   42.7590 N   0  0  0  0  0  0  0  0  0  0  0  0
   42.6910   31.4560   43.0710 H   0  0  0  0  0  0  0  0  0  0  0  0
   42.3110   32.8060   40.9840 H   0  0  0  0  0  0  0  0  0  0  0  0
   38.6780   32.3040   38.9290 C   0  0  2  0  0  3  0  0  0  0  0  0
   40.1390   32.4470   39.2630 C   0  0  1  0  0  3  0  0  0  0  0  0
   40.6090   33.7220   39.0850 O   0  0  0  0  0  0  0  0  0  0  0  0
   40.0170   34.7230   39.7880 C   0  0  0  0  0  2  0  0  0  0  0  0
   38.6870   34.3760   40.3560 C   0  0  1  0  0  3  0  0  0  0  0  0
   37.8730   33.3810   39.6200 C   0  0  2  0  0  3  0  0  0  0  0  0
   38.1720   31.0330   39.0690 O   0  0  0  0  0  0  0  0  0  0  0  0
   38.0120   30.5280   38.2580 H   0  0  0  0  0  0  0  0  0  0  0  0
   38.7630   34.1030   41.7450 O   0  0  0  0  0  0  0  0  0  0  0  0
   37.8890   33.7120   42.0160 H   0  0  0  0  0  0  0  0  0  0  0  0
   36.9430   32.8140   40.5010 O   0  0  0  0  0  0  0  0  0  0  0  0
   36.2740   33.5190   40.6900 H   0  0  0  0  0  0  0  0  0  0  0  0
  1  2  1  0  0  0  0
  2  7  2  0  0  0  0
  2  3  1  0  0  0  0
  3  4  2  0  0  0  0
  4  5  1  0  0  0  0
  4  8  1  0  0  0  0
  5  9  1  0  0  0  0
  6 10  1  0  0  0  0
  6  5  2  0  0  0  0
  7  6  1  0  0  0  0
 11  7  1  0  0  0  0
 12 11  1  0  0  0  0
 12 13  1  0  0  0  0
 12 17  1  0  0  0  0
 13 19  1  0  0  0  0
 14 13  1  0  0  0  0
 14 20  1  0  0  0  0
 15 22  1  1  0  0  0
 15 14  1  0  0  0  0
 15 11  1  0  0  0  0
 16 12  1  0  0  0  0
 18 13  1  0  0  0  0
 21 14  1  0  0  0  0
 23 15  1  0  0  0  0
 24 23  1  0  0  0  0
 25 23  1  0  0  0  0
 26 23  1  0  0  0  0
 27 32  1  0  0  0  0
 27 33  1  0  0  0  0
 28 27  2  0  0  0  0
 29 30  2  0  0  0  0
 29 28  1  0  0  0  0
 30 31  1  0  0  0  0
 31  3  1  0  0  0  0
 31 32  2  0  0  0  0
 34 28  1  0  0  0  0
 35 41  1  1  0  0  0
 35 36  1  0  0  0  0
 35 40  1  0  0  0  0
 36 29  1  1  0  0  0
 37 36  1  0  0  0  0
 37 38  1  0  0  0  0
 38 39  1  0  0  0  0
 39 43  1  1  0  0  0
 40 39  1  0  0  0  0
 40 45  1  1  0  0  0
 42 41  1  0  0  0  0
 43 44  1  0  0  0  0
 45 46  1  0  0  0  0
M  END
>  <minimizedAffinity>
-7.55525589

$$$$

 OpenBabel03252505263D

 46 49  0  0  1  0  0  0  0  0999 V2000
   38.7760   30.4380   41.8760 F   0  0  0  0  0  0  0  0  0  0  0  0
   37.8580   30.2200   40.9010 C   0  0  0  0  0  0  0  0  0  0  0  0
   37.6780   31.1810   39.9430 C   0  0  0  0  0  0  0  0  0  0  0  0
   36.7530   30.9550   38.9690 C   0  0  0  0  0  0  0  0  0  0  0  0
   36.0290   29.7760   38.9710 C   0  0  0  0  0  0  0  0  0  0  0  0
   36.2010   28.8110   39.9250 C   0  0  0  0  0  0  0  0  0  0  0  0
   37.1510   29.0540   40.9160 C   0  0  0  0  0  0  0  0  0  0  0  0
   36.6210   31.7250   38.2150 H   0  0  0  0  0  0  0  0  0  0  0  0
   35.3120   29.6620   38.1690 H   0  0  0  0  0  0  0  0  0  0  0  0
   35.6170   27.8960   39.8990 H   0  0  0  0  0  0  0  0  0  0  0  0
   37.3040   28.0270   41.8920 N   0  0  0  0  0  0  0  0  0  0  0  0
   37.4160   26.5930   41.7460 C   0  0  0  0  0  0  0  0  0  0  0  0
   38.6550   26.2680   42.6000 C   0  0  0  0  0  0  0  0  0  0  0  0
   38.7130   27.4090   43.5690 C   0  0  0  0  0  0  0  0  0  0  0  0
   37.3950   28.1070   43.3470 C   0  0  2  0  0  0  0  0  0  0  0  0
   36.5640   26.0510   42.2150 H   0  0  0  0  0  0  0  0  0  0  0  0
   37.6260   26.2580   40.7150 H   0  0  0  0  0  0  0  0  0  0  0  0
   38.5430   25.2900   43.0760 H   0  0  0  0  0  0  0  0  0  0  0  0
   39.5410   26.3330   41.9290 H   0  0  0  0  0  0  0  0  0  0  0  0
   39.5170   28.1370   43.3510 H   0  0  0  0  0  0  0  0  0  0  0  0
   38.7800   27.0930   44.6150 H   0  0  0  0  0  0  0  0  0  0  0  0
   37.4080   29.1770   43.5930 H   0  0  0  0  0  0  0  0  0  0  0  0
   36.2350   27.4820   44.0540 C   0  0  0  0  0  0  0  0  0  0  0  0
   36.0660   28.0140   45.0200 H   0  0  0  0  0  0  0  0  0  0  0  0
   35.3200   27.5110   43.4280 H   0  0  0  0  0  0  0  0  0  0  0  0
   36.5300   26.4280   44.2860 H   0  0  0  0  0  0  0  0  0  0  0  0
   38.5900   34.7230   40.2500 C   0  0  0  0  0  0  0  0  0  0  0  0
   39.9720   34.7060   40.0580 C   0  0  0  0  0  0  0  0  0  0  0  0
   40.5810   33.4690   39.8230 C   0  0  0  0  0  0  0  0  0  0  0  0
   39.7710   32.3690   39.8010 N   0  0  0  0  0  0  0  0  0  0  0  0
   38.4700   32.4160   39.9860 C   0  0  0  0  0  0  0  0  0  0  0  0
   37.8860   33.5860   40.2080 N   0  0  0  0  0  0  0  0  0  0  0  0
   38.1640   35.6870   40.4260 H   0  0  0  0  0  0  0  0  0  0  0  0
   40.6450   35.5130   40.0660 H   0  0  0  0  0  0  0  0  0  0  0  0
   42.2730   31.6440   39.4020 C   0  0  2  0  0  3  0  0  0  0  0  0
   41.9910   33.1120   39.5820 C   0  0  1  0  0  3  0  0  0  0  0  0
   42.6290   33.8980   38.6600 O   0  0  0  0  0  0  0  0  0  0  0  0
   42.3690   33.6780   37.3440 C   0  0  0  0  0  2  0  0  0  0  0  0
   41.7370   32.3630   37.0520 C   0  0  1  0  0  3  0  0  0  0  0  0
   42.0570   31.2390   37.9620 C   0  0  2  0  0  3  0  0  0  0  0  0
   41.6720   30.8190   40.3240 O   0  0  0  0  0  0  0  0  0  0  0  0
   42.2330   30.4500   41.0210 H   0  0  0  0  0  0  0  0  0  0  0  0
   40.3470   32.4910   36.8040 O   0  0  0  0  0  0  0  0  0  0  0  0
   39.9650   31.5730   36.7940 H   0  0  0  0  0  0  0  0  0  0  0  0
   41.0440   30.2750   37.8660 O   0  0  0  0  0  0  0  0  0  0  0  0
   41.1490   29.8500   36.9780 H   0  0  0  0  0  0  0  0  0  0  0  0
  2  7  1  0  0  0  0
  2  1  1  0  0  0  0
  3 31  1  0  0  0  0
  3  2  2  0  0  0  0
  4  5  2  0  0  0  0
  4  3  1  0  0  0  0
  5  6  1  0  0  0  0
  6  7  2  0  0  0  0
  7 11  1  0  0  0  0
  8  4  1  0  0  0  0
  9  5  1  0  0  0  0
 10  6  1  0  0  0  0
 11 15  1  0  0  0  0
 12 11  1  0  0  0  0
 12 16  1  0  0  0  0
 12 13  1  0  0  0  0
 13 18  1  0  0  0  0
 13 14  1  0  0  0  0
 14 21  1  0  0  0  0
 15 14  1  0  0  0  0
 15 22  1  1  0  0  0
 15 23  1  0  0  0  0
 17 12  1  0  0  0  0
 19 13  1  0  0  0  0
 20 14  1  0  0  0  0
 23 26  1  0  0  0  0
 23 24  1  0  0  0  0
 25 23  1  0  0  0  0
 27 33  1  0  0  0  0
 28 34  1  0  0  0  0
 28 27  2  0  0  0  0
 29 28  1  0  0  0  0
 30 29  2  0  0  0  0
 30 31  1  0  0  0  0
 31 32  2  0  0  0  0
 32 27  1  0  0  0  0
 35 36  1  0  0  0  0
 35 41  1  1  0  0  0
 36 29  1  6  0  0  0
 37 36  1  0  0  0  0
 38 37  1  0  0  0  0
 39 43  1  1  0  0  0
 39 38  1  0  0  0  0
 39 40  1  0  0  0  0
 40 45  1  1  0  0  0
 40 35  1  0  0  0  0
 41 42  1  0  0  0  0
 44 43  1  0  0  0  0
 46 45  1  0  0  0  0
M  END
>  <minimizedAffinity>
-7.41186476

$$$$

 OpenBabel03252505263D

 46 49  0  0  1  0  0  0  0  0999 V2000
   38.1680   28.2360   39.5810 F   0  0  0  0  0  0  0  0  0  0  0  0
   37.8770   28.1780   40.9050 C   0  0  0  0  0  0  0  0  0  0  0  0
   37.8940   29.3360   41.6320 C   0  0  0  0  0  0  0  0  0  0  0  0
   37.6020   29.2690   42.9610 C   0  0  0  0  0  0  0  0  0  0  0  0
   37.2990   28.0470   43.5350 C   0  0  0  0  0  0  0  0  0  0  0  0
   37.2800   26.8830   42.8160 C   0  0  0  0  0  0  0  0  0  0  0  0
   37.5810   26.9660   41.4570 C   0  0  0  0  0  0  0  0  0  0  0  0
   37.6180   30.1960   43.5250 H   0  0  0  0  0  0  0  0  0  0  0  0
   37.0760   28.0650   44.5940 H   0  0  0  0  0  0  0  0  0  0  0  0
   37.0380   25.9400   43.2960 H   0  0  0  0  0  0  0  0  0  0  0  0
   37.5510   25.7350   40.7410 N   0  0  0  0  0  0  0  0  0  0  0  0
   38.4990   24.6450   40.6930 C   0  0  0  0  0  0  0  0  0  0  0  0
   37.6080   23.4170   40.9480 C   0  0  0  0  0  0  0  0  0  0  0  0
   36.2510   23.8790   40.5120 C   0  0  0  0  0  0  0  0  0  0  0  0
   36.5470   25.1920   39.8290 C   0  0  2  0  0  0  0  0  0  0  0  0
   38.9360   24.5070   39.6780 H   0  0  0  0  0  0  0  0  0  0  0  0
   39.2620   24.6730   41.4900 H   0  0  0  0  0  0  0  0  0  0  0  0
   37.9800   22.5540   40.3900 H   0  0  0  0  0  0  0  0  0  0  0  0
   37.5840   23.2530   42.0490 H   0  0  0  0  0  0  0  0  0  0  0  0
   35.5620   24.0890   41.3510 H   0  0  0  0  0  0  0  0  0  0  0  0
   35.7660   23.2060   39.8000 H   0  0  0  0  0  0  0  0  0  0  0  0
   35.7090   25.9020   39.8410 H   0  0  0  0  0  0  0  0  0  0  0  0
   37.0270   25.0620   38.4190 C   0  0  0  0  0  0  0  0  0  0  0  0
   36.1610   25.1860   37.7260 H   0  0  0  0  0  0  0  0  0  0  0  0
   37.8160   25.8090   38.1930 H   0  0  0  0  0  0  0  0  0  0  0  0
   37.4150   24.0190   38.3050 H   0  0  0  0  0  0  0  0  0  0  0  0
   37.5550   32.6660   40.1240 C   0  0  0  0  0  0  0  0  0  0  0  0
   38.8640   32.9740   39.7520 C   0  0  0  0  0  0  0  0  0  0  0  0
   39.8570   32.0270   40.0260 C   0  0  0  0  0  0  0  0  0  0  0  0
   39.4660   30.8700   40.6380 N   0  0  0  0  0  0  0  0  0  0  0  0
   38.2230   30.6080   40.9770 C   0  0  0  0  0  0  0  0  0  0  0  0
   37.2760   31.5000   40.7200 N   0  0  0  0  0  0  0  0  0  0  0  0
   36.8260   33.4140   39.8970 H   0  0  0  0  0  0  0  0  0  0  0  0
   39.2260   33.8410   39.2830 H   0  0  0  0  0  0  0  0  0  0  0  0
   41.8540   30.8380   39.0390 C   0  0  2  0  0  3  0  0  0  0  0  0
   41.3080   32.0400   39.7630 C   0  0  1  0  0  3  0  0  0  0  0  0
   41.7900   33.2260   39.2750 O   0  0  0  0  0  0  0  0  0  0  0  0
   41.5710   33.5120   37.9650 C   0  0  0  0  0  2  0  0  0  0  0  0
   41.1890   32.3400   37.1330 C   0  0  1  0  0  3  0  0  0  0  0  0
   41.7120   31.0160   37.5440 C   0  0  2  0  0  3  0  0  0  0  0  0
   41.4160   29.6240   39.5150 O   0  0  0  0  0  0  0  0  0  0  0  0
   42.0370   29.1060   40.0470 H   0  0  0  0  0  0  0  0  0  0  0  0
   39.7990   32.3200   36.8580 O   0  0  0  0  0  0  0  0  0  0  0  0
   39.5910   31.4330   36.4580 H   0  0  0  0  0  0  0  0  0  0  0  0
   40.8920   30.0160   37.0040 O   0  0  0  0  0  0  0  0  0  0  0  0
   41.0700   30.0070   36.0300 H   0  0  0  0  0  0  0  0  0  0  0  0
  1  2  1  0  0  0  0
  2  7  2  0  0  0  0
  2  3  1  0  0  0  0
  3  4  2  0  0  0  0
  4  8  1  0  0  0  0
  4  5  1  0  0  0  0
  5  9  1  0  0  0  0
  6 10  1  0  0  0  0
  6  5  2  0  0  0  0
  7  6  1  0  0  0  0
 11  7  1  0  0  0  0
 12 11  1  0  0  0  0
 12 13  1  0  0  0  0
 12 17  1  0  0  0  0
 13 19  1  0  0  0  0
 14 13  1  0  0  0  0
 14 20  1  0  0  0  0
 15 22  1  1  0  0  0
 15 14  1  0  0  0  0
 15 11  1  0  0  0  0
 16 12  1  0  0  0  0
 18 13  1  0  0  0  0
 21 14  1  0  0  0  0
 23 15  1  0  0  0  0
 24 23  1  0  0  0  0
 25 23  1  0  0  0  0
 26 23  1  0  0  0  0
 27 32  1  0  0  0  0
 28 29  1  0  0  0  0
 28 27  2  0  0  0  0
 29 30  2  0  0  0  0
 30 31  1  0  0  0  0
 31  3  1  0  0  0  0
 32 31  2  0  0  0  0
 33 27  1  0  0  0  0
 34 28  1  0  0  0  0
 35 41  1  1  0  0  0
 35 36  1  0  0  0  0
 36 29  1  6  0  0  0
 37 36  1  0  0  0  0
 38 37  1  0  0  0  0
 39 43  1  1  0  0  0
 39 40  1  0  0  0  0
 39 38  1  0  0  0  0
 40 45  1  1  0  0  0
 40 35  1  0  0  0  0
 41 42  1  0  0  0  0
 44 43  1  0  0  0  0
 46 45  1  0  0  0  0
M  END
>  <minimizedAffinity>
-7.00833607

$$$$

 OpenBabel03252505263D

 46 49  0  0  1  0  0  0  0  0999 V2000
   37.4440   31.1250   37.2700 F   0  0  0  0  0  0  0  0  0  0  0  0
   36.7440   30.6290   38.3210 C   0  0  0  0  0  0  0  0  0  0  0  0
   36.9450   31.1750   39.5590 C   0  0  0  0  0  0  0  0  0  0  0  0
   36.2400   30.6700   40.6100 C   0  0  0  0  0  0  0  0  0  0  0  0
   35.3500   29.6310   40.4010 C   0  0  0  0  0  0  0  0  0  0  0  0
   35.1440   29.0780   39.1680 C   0  0  0  0  0  0  0  0  0  0  0  0
   35.8710   29.6050   38.1010 C   0  0  0  0  0  0  0  0  0  0  0  0
   36.4090   31.1140   41.5860 H   0  0  0  0  0  0  0  0  0  0  0  0
   34.8240   29.2790   41.2790 H   0  0  0  0  0  0  0  0  0  0  0  0
   34.4380   28.2640   39.0370 H   0  0  0  0  0  0  0  0  0  0  0  0
   35.6300   29.0040   36.8310 N   0  0  0  0  0  0  0  0  0  0  0  0
   34.4610   29.0260   35.9820 C   0  0  0  0  0  0  0  0  0  0  0  0
   35.0500   29.4190   34.6160 C   0  0  0  0  0  0  0  0  0  0  0  0
   36.4800   28.9850   34.7200 C   0  0  0  0  0  0  0  0  0  0  0  0
   36.4950   28.1770   35.9940 C   0  0  2  0  0  0  0  0  0  0  0  0
   34.0140   28.0140   35.8490 H   0  0  0  0  0  0  0  0  0  0  0  0
   33.7160   29.7930   36.2550 H   0  0  0  0  0  0  0  0  0  0  0  0
   34.4990   28.9290   33.8090 H   0  0  0  0  0  0  0  0  0  0  0  0
   35.0250   30.5300   34.5560 H   0  0  0  0  0  0  0  0  0  0  0  0
   37.1910   29.8220   34.8490 H   0  0  0  0  0  0  0  0  0  0  0  0
   36.8080   28.3520   33.8900 H   0  0  0  0  0  0  0  0  0  0  0  0
   37.4710   28.1500   36.4960 H   0  0  0  0  0  0  0  0  0  0  0  0
   36.0120   26.7710   35.8410 C   0  0  0  0  0  0  0  0  0  0  0  0
   36.8900   26.0960   35.7020 H   0  0  0  0  0  0  0  0  0  0  0  0
   35.4130   26.4530   36.7200 H   0  0  0  0  0  0  0  0  0  0  0  0
   35.4000   26.7400   34.9050 H   0  0  0  0  0  0  0  0  0  0  0  0
   38.3320   34.5280   40.1200 C   0  0  0  0  0  0  0  0  0  0  0  0
   39.7090   34.3120   40.0390 C   0  0  0  0  0  0  0  0  0  0  0  0
   40.1490   33.0070   39.7900 C   0  0  0  0  0  0  0  0  0  0  0  0
   39.1940   32.0420   39.6460 N   0  0  0  0  0  0  0  0  0  0  0  0
   37.9020   32.2760   39.7280 C   0  0  0  0  0  0  0  0  0  0  0  0
   37.4770   33.5100   39.9630 N   0  0  0  0  0  0  0  0  0  0  0  0
   38.0370   35.5360   40.3100 H   0  0  0  0  0  0  0  0  0  0  0  0
   40.4890   35.0080   40.1420 H   0  0  0  0  0  0  0  0  0  0  0  0
   41.5850   30.9970   39.2740 C   0  0  2  0  0  3  0  0  0  0  0  0
   41.5080   32.4540   39.6440 C   0  0  1  0  0  3  0  0  0  0  0  0
   42.3700   33.2380   38.9230 O   0  0  0  0  0  0  0  0  0  0  0  0
   42.2480   33.2410   37.5690 C   0  0  0  0  0  2  0  0  0  0  0  0
   41.4660   32.1030   37.0170 C   0  0  1  0  0  3  0  0  0  0  0  0
   41.4940   30.8300   37.7740 C   0  0  2  0  0  3  0  0  0  0  0  0
   40.7540   30.1690   39.9930 O   0  0  0  0  0  0  0  0  0  0  0  0
   41.1600   29.6210   40.6800 H   0  0  0  0  0  0  0  0  0  0  0  0
   40.1540   32.4940   36.6500 O   0  0  0  0  0  0  0  0  0  0  0  0
   39.6420   31.6630   36.4610 H   0  0  0  0  0  0  0  0  0  0  0  0
   40.3670   30.0710   37.4290 O   0  0  0  0  0  0  0  0  0  0  0  0
   40.5180   29.7560   36.5020 H   0  0  0  0  0  0  0  0  0  0  0  0
  1  2  1  0  0  0  0
  2  3  1  0  0  0  0
  3 31  1  0  0  0  0
  3  4  2  0  0  0  0
  4  8  1  0  0  0  0
  5  4  1  0  0  0  0
  5  9  1  0  0  0  0
  6  5  2  0  0  0  0
  7  2  2  0  0  0  0
  7  6  1  0  0  0  0
 10  6  1  0  0  0  0
 11  7  1  0  0  0  0
 12 17  1  0  0  0  0
 12 11  1  0  0  0  0
 13 14  1  0  0  0  0
 13 12  1  0  0  0  0
 14 20  1  0  0  0  0
 14 15  1  0  0  0  0
 15 22  1  1  0  0  0
 15 11  1  0  0  0  0
 16 12  1  0  0  0  0
 18 13  1  0  0  0  0
 19 13  1  0  0  0  0
 21 14  1  0  0  0  0
 23 15  1  0  0  0  0
 23 25  1  0  0  0  0
 24 23  1  0  0  0  0
 26 23  1  0  0  0  0
 27 33  1  0  0  0  0
 28 27  1  0  0  0  0
 28 34  1  0  0  0  0
 29 28  2  0  0  0  0
 30 31  2  0  0  0  0
 30 29  1  0  0  0  0
 31 32  1  0  0  0  0
 32 27  2  0  0  0  0
 35 36  1  0  0  0  0
 35 41  1  1  0  0  0
 36 29  1  6  0  0  0
 37 36  1  0  0  0  0
 38 37  1  0  0  0  0
 39 43  1  1  0  0  0
 39 38  1  0  0  0  0
 39 40  1  0  0  0  0
 40 45  1  1  0  0  0
 40 35  1  0  0  0  0
 41 42  1  0  0  0  0
 44 43  1  0  0  0  0
 46 45  1  0  0  0  0
M  END
>  <minimizedAffinity>
-6.88617945

$$$$

 OpenBabel03252505263D

 46 49  0  0  1  0  0  0  0  0999 V2000
   37.6760   27.8560   39.5660 F   0  0  0  0  0  0  0  0  0  0  0  0
   37.5710   27.8300   40.9190 C   0  0  0  0  0  0  0  0  0  0  0  0
   37.6450   29.0110   41.6050 C   0  0  0  0  0  0  0  0  0  0  0  0
   37.5410   28.9760   42.9630 C   0  0  0  0  0  0  0  0  0  0  0  0
   37.3650   27.7630   43.6050 C   0  0  0  0  0  0  0  0  0  0  0  0
   37.2910   26.5780   42.9280 C   0  0  0  0  0  0  0  0  0  0  0  0
   37.3990   26.6280   41.5380 C   0  0  0  0  0  0  0  0  0  0  0  0
   37.6010   29.9200   43.4940 H   0  0  0  0  0  0  0  0  0  0  0  0
   37.2900   27.8080   44.6840 H   0  0  0  0  0  0  0  0  0  0  0  0
   37.1520   25.6430   43.4620 H   0  0  0  0  0  0  0  0  0  0  0  0
   37.3170   25.3740   40.8660 N   0  0  0  0  0  0  0  0  0  0  0  0
   36.5870   24.1700   41.1950 C   0  0  0  0  0  0  0  0  0  0  0  0
   35.8700   23.8440   39.8730 C   0  0  0  0  0  0  0  0  0  0  0  0
   36.7270   24.5140   38.8430 C   0  0  0  0  0  0  0  0  0  0  0  0
   37.9480   24.9170   39.6320 C   0  0  2  0  0  0  0  0  0  0  0  0
   37.2610   23.3090   41.4040 H   0  0  0  0  0  0  0  0  0  0  0  0
   35.8110   24.3080   41.9680 H   0  0  0  0  0  0  0  0  0  0  0  0
   35.7870   22.7620   39.7420 H   0  0  0  0  0  0  0  0  0  0  0  0
   34.8850   24.3630   39.8990 H   0  0  0  0  0  0  0  0  0  0  0  0
   36.2820   25.4350   38.4240 H   0  0  0  0  0  0  0  0  0  0  0  0
   37.0300   23.8510   38.0260 H   0  0  0  0  0  0  0  0  0  0  0  0
   38.4800   25.7860   39.2210 H   0  0  0  0  0  0  0  0  0  0  0  0
   38.9420   23.8190   39.8380 C   0  0  0  0  0  0  0  0  0  0  0  0
   39.7350   23.8920   39.0560 H   0  0  0  0  0  0  0  0  0  0  0  0
   39.3910   23.8690   40.8520 H   0  0  0  0  0  0  0  0  0  0  0  0
   38.3940   22.8560   39.6880 H   0  0  0  0  0  0  0  0  0  0  0  0
   36.9930   32.3010   40.1120 C   0  0  0  0  0  0  0  0  0  0  0  0
   38.2120   32.6170   39.5110 C   0  0  0  0  0  0  0  0  0  0  0  0
   39.2540   31.6890   39.6260 C   0  0  0  0  0  0  0  0  0  0  0  0
   38.9950   30.5420   40.3200 N   0  0  0  0  0  0  0  0  0  0  0  0
   37.8340   30.2710   40.8770 C   0  0  0  0  0  0  0  0  0  0  0  0
   36.8420   31.1460   40.7710 N   0  0  0  0  0  0  0  0  0  0  0  0
   36.2240   33.0340   40.0010 H   0  0  0  0  0  0  0  0  0  0  0  0
   38.4730   33.4770   38.9680 H   0  0  0  0  0  0  0  0  0  0  0  0
   41.3540   33.0320   39.2310 C   0  0  2  0  0  3  0  0  0  0  0  0
   40.6360   31.7140   39.1130 C   0  0  1  0  0  3  0  0  0  0  0  0
   41.4060   30.6470   39.4940 O   0  0  0  0  0  0  0  0  0  0  0  0
   41.8980   30.6350   40.7620 C   0  0  0  0  0  2  0  0  0  0  0  0
   41.8720   31.9560   41.4460 C   0  0  1  0  0  3  0  0  0  0  0  0
   41.9920   33.1630   40.5950 C   0  0  2  0  0  3  0  0  0  0  0  0
   40.6240   34.1290   38.8340 O   0  0  0  0  0  0  0  0  0  0  0  0
   40.8460   34.5210   37.9770 H   0  0  0  0  0  0  0  0  0  0  0  0
   40.8090   32.0460   42.3780 O   0  0  0  0  0  0  0  0  0  0  0  0
   40.7450   32.9970   42.6610 H   0  0  0  0  0  0  0  0  0  0  0  0
   41.4610   34.2600   41.2860 O   0  0  0  0  0  0  0  0  0  0  0  0
   42.0990   34.4650   42.0150 H   0  0  0  0  0  0  0  0  0  0  0  0
  1  2  1  0  0  0  0
  2  7  2  0  0  0  0
  2  3  1  0  0  0  0
  3  4  2  0  0  0  0
  4  8  1  0  0  0  0
  4  5  1  0  0  0  0
  5  9  1  0  0  0  0
  6 10  1  0  0  0  0
  6  5  2  0  0  0  0
  7  6  1  0  0  0  0
 11 12  1  0  0  0  0
 11  7  1  0  0  0  0
 12 16  1  0  0  0  0
 12 17  1  0  0  0  0
 13 19  1  0  0  0  0
 13 12  1  0  0  0  0
 14 15  1  0  0  0  0
 14 13  1  0  0  0  0
 15 22  1  6  0  0  0
 15 23  1  0  0  0  0
 15 11  1  0  0  0  0
 18 13  1  0  0  0  0
 20 14  1  0  0  0  0
 21 14  1  0  0  0  0
 23 25  1  0  0  0  0
 24 23  1  0  0  0  0
 26 23  1  0  0  0  0
 27 32  1  0  0  0  0
 28 29  1  0  0  0  0
 28 27  2  0  0  0  0
 29 30  2  0  0  0  0
 30 31  1  0  0  0  0
 31  3  1  0  0  0  0
 32 31  2  0  0  0  0
 33 27  1  0  0  0  0
 34 28  1  0  0  0  0
 35 41  1  1  0  0  0
 35 40  1  0  0  0  0
 36 35  1  0  0  0  0
 36 37  1  0  0  0  0
 36 29  1  1  0  0  0
 37 38  1  0  0  0  0
 38 39  1  0  0  0  0
 39 43  1  6  0  0  0
 40 45  1  1  0  0  0
 40 39  1  0  0  0  0
 42 41  1  0  0  0  0
 43 44  1  0  0  0  0
 45 46  1  0  0  0  0
M  END
>  <minimizedAffinity>
-6.68221188

$$$$

 OpenBabel03252505263D

 46 49  0  0  1  0  0  0  0  0999 V2000
   39.9320   30.4580   38.6270 F   0  0  0  0  0  0  0  0  0  0  0  0
   39.3390   31.5630   39.1460 C   0  0  0  0  0  0  0  0  0  0  0  0
   38.0580   31.4600   39.6150 C   0  0  0  0  0  0  0  0  0  0  0  0
   37.4690   32.5750   40.1330 C   0  0  0  0  0  0  0  0  0  0  0  0
   38.1720   33.7660   40.1710 C   0  0  0  0  0  0  0  0  0  0  0  0
   39.4520   33.8780   39.7030 C   0  0  0  0  0  0  0  0  0  0  0  0
   40.0430   32.7300   39.1760 C   0  0  0  0  0  0  0  0  0  0  0  0
   36.4530   32.4790   40.5020 H   0  0  0  0  0  0  0  0  0  0  0  0
   37.6450   34.6100   40.5950 H   0  0  0  0  0  0  0  0  0  0  0  0
   39.9770   34.8280   39.7480 H   0  0  0  0  0  0  0  0  0  0  0  0
   41.3770   32.8850   38.6990 N   0  0  0  0  0  0  0  0  0  0  0  0
   41.8780   33.3130   37.4140 C   0  0  0  0  0  0  0  0  0  0  0  0
   42.9090   34.3890   37.8000 C   0  0  0  0  0  0  0  0  0  0  0  0
   43.2890   34.0140   39.1990 C   0  0  0  0  0  0  0  0  0  0  0  0
   42.6550   32.6560   39.3680 C   0  0  2  0  0  0  0  0  0  0  0  0
   42.4470   32.5110   36.8910 H   0  0  0  0  0  0  0  0  0  0  0  0
   41.1210   33.7940   36.7700 H   0  0  0  0  0  0  0  0  0  0  0  0
   43.7470   34.3830   37.0980 H   0  0  0  0  0  0  0  0  0  0  0  0
   42.3680   35.3620   37.8330 H   0  0  0  0  0  0  0  0  0  0  0  0
   42.8600   34.6800   39.9710 H   0  0  0  0  0  0  0  0  0  0  0  0
   44.3690   33.9280   39.3520 H   0  0  0  0  0  0  0  0  0  0  0  0
   42.4140   32.4000   40.4090 H   0  0  0  0  0  0  0  0  0  0  0  0
   43.4430   31.5280   38.7830 C   0  0  0  0  0  0  0  0  0  0  0  0
   44.0610   31.0590   39.5860 H   0  0  0  0  0  0  0  0  0  0  0  0
   42.7770   30.7740   38.3140 H   0  0  0  0  0  0  0  0  0  0  0  0
   44.1370   31.9760   38.0290 H   0  0  0  0  0  0  0  0  0  0  0  0
   35.6530   28.8510   38.6770 C   0  0  0  0  0  0  0  0  0  0  0  0
   36.0580   27.7620   39.4500 C   0  0  0  0  0  0  0  0  0  0  0  0
   37.1610   27.9370   40.2930 C   0  0  0  0  0  0  0  0  0  0  0  0
   37.7590   29.1650   40.2920 N   0  0  0  0  0  0  0  0  0  0  0  0
   37.3540   30.1740   39.5510 C   0  0  0  0  0  0  0  0  0  0  0  0
   36.3080   30.0150   38.7510 N   0  0  0  0  0  0  0  0  0  0  0  0
   34.8070   28.6770   38.0490 H   0  0  0  0  0  0  0  0  0  0  0  0
   35.6440   26.7980   39.4940 H   0  0  0  0  0  0  0  0  0  0  0  0
   39.1330   27.4860   41.8040 C   0  0  2  0  0  3  0  0  0  0  0  0
   37.8280   27.0090   41.2240 C   0  0  1  0  0  3  0  0  0  0  0  0
   37.0000   26.4430   42.1570 O   0  0  0  0  0  0  0  0  0  0  0  0
   36.6220   27.2030   43.2190 C   0  0  0  0  0  2  0  0  0  0  0  0
   37.4620   28.4100   43.4430 C   0  0  1  0  0  3  0  0  0  0  0  0
   38.8830   28.3350   43.0300 C   0  0  2  0  0  3  0  0  0  0  0  0
   40.0050   28.0380   40.8950 O   0  0  0  0  0  0  0  0  0  0  0  0
   40.7640   27.5000   40.6260 H   0  0  0  0  0  0  0  0  0  0  0  0
   36.8210   29.5900   42.9900 O   0  0  0  0  0  0  0  0  0  0  0  0
   37.4980   30.3180   43.0070 H   0  0  0  0  0  0  0  0  0  0  0  0
   39.3700   29.6350   42.8390 O   0  0  0  0  0  0  0  0  0  0  0  0
   39.4450   30.0380   43.7400 H   0  0  0  0  0  0  0  0  0  0  0  0
  1  2  1  0  0  0  0
  2  7  2  0  0  0  0
  2  3  1  0  0  0  0
  3  4  2  0  0  0  0
  4  5  1  0  0  0  0
  4  8  1  0  0  0  0
  5  9  1  0  0  0  0
  6 10  1  0  0  0  0
  6  5  2  0  0  0  0
  7  6  1  0  0  0  0
 11  7  1  0  0  0  0
 11 15  1  0  0  0  0
 12 13  1  0  0  0  0
 12 11  1  0  0  0  0
 13 19  1  0  0  0  0
 13 14  1  0  0  0  0
 14 21  1  0  0  0  0
 14 15  1  0  0  0  0
 14 20  1  0  0  0  0
 15 22  1  1  0  0  0
 16 12  1  0  0  0  0
 17 12  1  0  0  0  0
 18 13  1  0  0  0  0
 23 15  1  0  0  0  0
 23 24  1  0  0  0  0
 25 23  1  0  0  0  0
 26 23  1  0  0  0  0
 27 32  2  0  0  0  0
 27 28  1  0  0  0  0
 28 34  1  0  0  0  0
 28 29  2  0  0  0  0
 30 29  1  0  0  0  0
 31  3  1  0  0  0  0
 31 30  2  0  0  0  0
 32 31  1  0  0  0  0
 33 27  1  0  0  0  0
 35 41  1  6  0  0  0
 35 40  1  0  0  0  0
 36 29  1  1  0  0  0
 36 35  1  0  0  0  0
 36 37  1  0  0  0  0
 37 38  1  0  0  0  0
 38 39  1  0  0  0  0
 39 43  1  6  0  0  0
 40 45  1  6  0  0  0
 40 39  1  0  0  0  0
 42 41  1  0  0  0  0
 43 44  1  0  0  0  0
 45 46  1  0  0  0  0
M  END
>  <minimizedAffinity>
-6.62992668

$$$$

 OpenBabel03252505263D

 46 49  0  0  1  0  0  0  0  0999 V2000
   32.9320   28.9310   38.4640 F   0  0  0  0  0  0  0  0  0  0  0  0
   33.2700   29.0760   37.1570 C   0  0  0  0  0  0  0  0  0  0  0  0
   34.5090   28.6650   36.7510 C   0  0  0  0  0  0  0  0  0  0  0  0
   34.8410   28.8160   35.4380 C   0  0  0  0  0  0  0  0  0  0  0  0
   33.9270   29.3730   34.5600 C   0  0  0  0  0  0  0  0  0  0  0  0
   32.6870   29.7880   34.9580 C   0  0  0  0  0  0  0  0  0  0  0  0
   32.3600   29.6270   36.3040 C   0  0  0  0  0  0  0  0  0  0  0  0
   35.8270   28.4850   35.1290 H   0  0  0  0  0  0  0  0  0  0  0  0
   34.2560   29.4630   33.5330 H   0  0  0  0  0  0  0  0  0  0  0  0
   31.9920   30.2210   34.2450 H   0  0  0  0  0  0  0  0  0  0  0  0
   31.0590   30.0700   36.6820 N   0  0  0  0  0  0  0  0  0  0  0  0
   29.9340   29.3440   37.2250 C   0  0  0  0  0  0  0  0  0  0  0  0
   29.5360   30.2060   38.4370 C   0  0  0  0  0  0  0  0  0  0  0  0
   30.0610   31.5630   38.0810 C   0  0  0  0  0  0  0  0  0  0  0  0
   30.4600   31.4010   36.6350 C   0  0  2  0  0  0  0  0  0  0  0  0
   29.0560   29.3460   36.5400 H   0  0  0  0  0  0  0  0  0  0  0  0
   30.1840   28.3370   37.6020 H   0  0  0  0  0  0  0  0  0  0  0  0
   28.4530   30.1770   38.5850 H   0  0  0  0  0  0  0  0  0  0  0  0
   30.1110   29.8260   39.3120 H   0  0  0  0  0  0  0  0  0  0  0  0
   30.9670   31.8510   38.6460 H   0  0  0  0  0  0  0  0  0  0  0  0
   29.3130   32.3570   38.1610 H   0  0  0  0  0  0  0  0  0  0  0  0
   31.2570   32.0830   36.3110 H   0  0  0  0  0  0  0  0  0  0  0  0
   29.3280   31.5140   35.6650 C   0  0  0  0  0  0  0  0  0  0  0  0
   29.2860   32.5580   35.2730 H   0  0  0  0  0  0  0  0  0  0  0  0
   29.4400   30.7900   34.8310 H   0  0  0  0  0  0  0  0  0  0  0  0
   28.3890   31.3210   36.2410 H   0  0  0  0  0  0  0  0  0  0  0  0
   36.2110   26.2430   38.9230 C   0  0  0  0  0  0  0  0  0  0  0  0
   37.1980   27.0160   39.5360 C   0  0  0  0  0  0  0  0  0  0  0  0
   37.2680   28.3710   39.1950 C   0  0  0  0  0  0  0  0  0  0  0  0
   36.3630   28.8340   38.2840 N   0  0  0  0  0  0  0  0  0  0  0  0
   35.4430   28.0810   37.7210 C   0  0  0  0  0  0  0  0  0  0  0  0
   35.3690   26.7960   38.0410 N   0  0  0  0  0  0  0  0  0  0  0  0
   36.1890   25.2150   39.2110 H   0  0  0  0  0  0  0  0  0  0  0  0
   37.9200   26.7200   40.2390 H   0  0  0  0  0  0  0  0  0  0  0  0
   37.5260   30.7730   39.9280 C   0  0  2  0  0  3  0  0  0  0  0  0
   38.1730   29.4410   39.6550 C   0  0  1  0  0  3  0  0  0  0  0  0
   39.0550   29.0620   40.6320 O   0  0  0  0  0  0  0  0  0  0  0  0
   38.5870   28.9400   41.9030 C   0  0  0  0  0  2  0  0  0  0  0  0
   37.2810   29.6100   42.1460 C   0  0  1  0  0  3  0  0  0  0  0  0
   36.9730   30.8100   41.3350 C   0  0  2  0  0  3  0  0  0  0  0  0
   36.6510   31.2040   38.9580 O   0  0  0  0  0  0  0  0  0  0  0  0
   36.9570   31.9060   38.3660 H   0  0  0  0  0  0  0  0  0  0  0  0
   36.2110   28.6810   42.1800 O   0  0  0  0  0  0  0  0  0  0  0  0
   35.3660   29.2050   42.1670 H   0  0  0  0  0  0  0  0  0  0  0  0
   35.5840   31.0010   41.3150 O   0  0  0  0  0  0  0  0  0  0  0  0
   35.3320   31.3030   42.2230 H   0  0  0  0  0  0  0  0  0  0  0  0
  2  1  1  0  0  0  0
  3  2  1  0  0  0  0
  3 31  1  0  0  0  0
  4  3  2  0  0  0  0
  5  6  2  0  0  0  0
  5  4  1  0  0  0  0
  6  7  1  0  0  0  0
  7 11  1  0  0  0  0
  7  2  2  0  0  0  0
  8  4  1  0  0  0  0
  9  5  1  0  0  0  0
 10  6  1  0  0  0  0
 11 12  1  0  0  0  0
 12 17  1  0  0  0  0
 12 13  1  0  0  0  0
 13 18  1  0  0  0  0
 13 19  1  0  0  0  0
 14 21  1  0  0  0  0
 14 13  1  0  0  0  0
 14 20  1  0  0  0  0
 15 22  1  6  0  0  0
 15 11  1  0  0  0  0
 15 14  1  0  0  0  0
 16 12  1  0  0  0  0
 23 26  1  0  0  0  0
 23 15  1  0  0  0  0
 24 23  1  0  0  0  0
 25 23  1  0  0  0  0
 27 33  1  0  0  0  0
 27 28  1  0  0  0  0
 28 34  1  0  0  0  0
 29 28  2  0  0  0  0
 30 29  1  0  0  0  0
 31 32  1  0  0  0  0
 31 30  2  0  0  0  0
 32 27  2  0  0  0  0
 35 41  1  6  0  0  0
 35 40  1  0  0  0  0
 36 29  1  1  0  0  0
 36 35  1  0  0  0  0
 36 37  1  0  0  0  0
 37 38  1  0  0  0  0
 38 39  1  0  0  0  0
 39 43  1  6  0  0  0
 40 45  1  6  0  0  0
 40 39  1  0  0  0  0
 42 41  1  0  0  0  0
 44 43  1  0  0  0  0
 45 46  1  0  0  0  0
M  END
>  <minimizedAffinity>
-6.59768724

$$$$

 OpenBabel03252505263D

 46 49  0  0  1  0  0  0  0  0999 V2000
   40.3510   29.8940   40.5010 F   0  0  0  0  0  0  0  0  0  0  0  0
   39.2080   30.6150   40.3900 C   0  0  0  0  0  0  0  0  0  0  0  0
   39.2140   31.7380   39.6090 C   0  0  0  0  0  0  0  0  0  0  0  0
   38.0620   32.4580   39.5040 C   0  0  0  0  0  0  0  0  0  0  0  0
   36.9290   32.0400   40.1810 C   0  0  0  0  0  0  0  0  0  0  0  0
   36.9140   30.9200   40.9650 C   0  0  0  0  0  0  0  0  0  0  0  0
   38.1000   30.1920   41.0630 C   0  0  0  0  0  0  0  0  0  0  0  0
   38.0800   33.3460   38.8810 H   0  0  0  0  0  0  0  0  0  0  0  0
   36.0500   32.6580   40.0530 H   0  0  0  0  0  0  0  0  0  0  0  0
   36.0090   30.6180   41.4830 H   0  0  0  0  0  0  0  0  0  0  0  0
   38.0460   29.0310   41.8870 N   0  0  0  0  0  0  0  0  0  0  0  0
   38.5110   28.8070   43.2370 C   0  0  0  0  0  0  0  0  0  0  0  0
   37.2810   28.1740   43.9120 C   0  0  0  0  0  0  0  0  0  0  0  0
   36.5250   27.5810   42.7630 C   0  0  0  0  0  0  0  0  0  0  0  0
   37.5020   27.7020   41.6190 C   0  0  2  0  0  0  0  0  0  0  0  0
   39.3200   28.0430   43.2860 H   0  0  0  0  0  0  0  0  0  0  0  0
   38.7560   29.7300   43.7910 H   0  0  0  0  0  0  0  0  0  0  0  0
   37.5920   27.4410   44.6610 H   0  0  0  0  0  0  0  0  0  0  0  0
   36.6750   29.0080   44.3350 H   0  0  0  0  0  0  0  0  0  0  0  0
   35.6170   28.1480   42.4870 H   0  0  0  0  0  0  0  0  0  0  0  0
   36.2680   26.5260   42.9040 H   0  0  0  0  0  0  0  0  0  0  0  0
   37.0280   27.7600   40.6300 H   0  0  0  0  0  0  0  0  0  0  0  0
   38.5410   26.6280   41.5750 C   0  0  0  0  0  0  0  0  0  0  0  0
   38.2080   25.8270   40.8730 H   0  0  0  0  0  0  0  0  0  0  0  0
   39.5250   27.0340   41.2630 H   0  0  0  0  0  0  0  0  0  0  0  0
   38.5940   26.1880   42.6020 H   0  0  0  0  0  0  0  0  0  0  0  0
   41.7620   32.1420   36.9970 C   0  0  0  0  0  0  0  0  0  0  0  0
   42.7430   32.9020   37.6350 C   0  0  0  0  0  0  0  0  0  0  0  0
   42.5170   33.2710   38.9660 C   0  0  0  0  0  0  0  0  0  0  0  0
   41.3490   32.8570   39.5390 N   0  0  0  0  0  0  0  0  0  0  0  0
   40.4420   32.1400   38.9120 C   0  0  0  0  0  0  0  0  0  0  0  0
   40.6500   31.7860   37.6510 N   0  0  0  0  0  0  0  0  0  0  0  0
   41.9720   31.8800   35.9830 H   0  0  0  0  0  0  0  0  0  0  0  0
   43.6560   33.2520   37.2500 H   0  0  0  0  0  0  0  0  0  0  0  0
   42.7720   34.2130   41.2940 C   0  0  2  0  0  3  0  0  0  0  0  0
   43.3380   34.0530   39.9080 C   0  0  1  0  0  3  0  0  0  0  0  0
   44.6710   33.7340   39.9060 O   0  0  0  0  0  0  0  0  0  0  0  0
   45.0560   32.5980   40.5450 C   0  0  0  0  0  2  0  0  0  0  0  0
   44.0510   32.0550   41.4980 C   0  0  1  0  0  3  0  0  0  0  0  0
   43.1440   33.0260   42.1540 C   0  0  2  0  0  3  0  0  0  0  0  0
   41.4410   34.5590   41.3420 O   0  0  0  0  0  0  0  0  0  0  0  0
   41.2300   35.4770   41.5650 H   0  0  0  0  0  0  0  0  0  0  0  0
   43.3630   30.9400   40.9590 O   0  0  0  0  0  0  0  0  0  0  0  0
   42.5990   30.7440   41.5650 H   0  0  0  0  0  0  0  0  0  0  0  0
   41.9950   32.3520   42.5890 O   0  0  0  0  0  0  0  0  0  0  0  0
   42.2760   31.7910   43.3550 H   0  0  0  0  0  0  0  0  0  0  0  0
  2  1  1  0  0  0  0
  2  7  1  0  0  0  0
  3  2  2  0  0  0  0
  4  3  1  0  0  0  0
  4  5  2  0  0  0  0
  5  6  1  0  0  0  0
  6  7  2  0  0  0  0
  6 10  1  0  0  0  0
  7 11  1  0  0  0  0
  8  4  1  0  0  0  0
  9  5  1  0  0  0  0
 11 12  1  0  0  0  0
 12 16  1  0  0  0  0
 12 17  1  0  0  0  0
 12 13  1  0  0  0  0
 13 19  1  0  0  0  0
 13 18  1  0  0  0  0
 14 21  1  0  0  0  0
 14 13  1  0  0  0  0
 15 22  1  6  0  0  0
 15 11  1  0  0  0  0
 15 14  1  0  0  0  0
 20 14  1  0  0  0  0
 23 15  1  0  0  0  0
 23 26  1  0  0  0  0
 24 23  1  0  0  0  0
 25 23  1  0  0  0  0
 27 28  2  0  0  0  0
 27 32  1  0  0  0  0
 28 29  1  0  0  0  0
 29 30  2  0  0  0  0
 31 30  1  0  0  0  0
 31  3  1  0  0  0  0
 32 31  2  0  0  0  0
 33 27  1  0  0  0  0
 34 28  1  0  0  0  0
 35 41  1  6  0  0  0
 35 40  1  0  0  0  0
 36 29  1  1  0  0  0
 36 35  1  0  0  0  0
 37 36  1  0  0  0  0
 37 38  1  0  0  0  0
 38 39  1  0  0  0  0
 39 43  1  6  0  0  0
 39 40  1  0  0  0  0
 40 45  1  6  0  0  0
 41 42  1  0  0  0  0
 43 44  1  0  0  0  0
 45 46  1  0  0  0  0
M  END
>  <minimizedAffinity>
-6.59105349

$$$$

 OpenBabel03252505263D

 46 49  0  0  1  0  0  0  0  0999 V2000
   40.4040   30.9640   41.3540 F   0  0  0  0  0  0  0  0  0  0  0  0
   39.2240   31.3600   40.8150 C   0  0  0  0  0  0  0  0  0  0  0  0
   38.1060   30.6090   41.0560 C   0  0  0  0  0  0  0  0  0  0  0  0
   36.9260   31.0130   40.5090 C   0  0  0  0  0  0  0  0  0  0  0  0
   36.8870   32.1590   39.7340 C   0  0  0  0  0  0  0  0  0  0  0  0
   37.9980   32.9160   39.4870 C   0  0  0  0  0  0  0  0  0  0  0  0
   39.2000   32.4910   40.0530 C   0  0  0  0  0  0  0  0  0  0  0  0
   36.0480   30.4080   40.7100 H   0  0  0  0  0  0  0  0  0  0  0  0
   35.9180   32.4220   39.3320 H   0  0  0  0  0  0  0  0  0  0  0  0
   37.9350   33.8100   38.8740 H   0  0  0  0  0  0  0  0  0  0  0  0
   40.3370   33.3040   39.7740 N   0  0  0  0  0  0  0  0  0  0  0  0
   40.5780   34.7080   40.0180 C   0  0  0  0  0  0  0  0  0  0  0  0
   41.9520   34.6940   40.7120 C   0  0  0  0  0  0  0  0  0  0  0  0
   42.5630   33.4110   40.2380 C   0  0  0  0  0  0  0  0  0  0  0  0
   41.6140   32.9670   39.1520 C   0  0  2  0  0  0  0  0  0  0  0  0
   40.7110   35.2860   39.0750 H   0  0  0  0  0  0  0  0  0  0  0  0
   39.8600   35.1770   40.7140 H   0  0  0  0  0  0  0  0  0  0  0  0
   42.5260   35.5830   40.4370 H   0  0  0  0  0  0  0  0  0  0  0  0
   41.7650   34.6090   41.8060 H   0  0  0  0  0  0  0  0  0  0  0  0
   42.5830   32.6160   41.0070 H   0  0  0  0  0  0  0  0  0  0  0  0
   43.5640   33.5320   39.8130 H   0  0  0  0  0  0  0  0  0  0  0  0
   41.5970   31.8810   38.9880 H   0  0  0  0  0  0  0  0  0  0  0  0
   41.8310   33.6320   37.8310 C   0  0  0  0  0  0  0  0  0  0  0  0
   42.4680   32.9770   37.1910 H   0  0  0  0  0  0  0  0  0  0  0  0
   40.8660   33.8480   37.3260 H   0  0  0  0  0  0  0  0  0  0  0  0
   42.3970   34.5750   38.0340 H   0  0  0  0  0  0  0  0  0  0  0  0
   37.6130   28.2230   43.8020 C   0  0  0  0  0  0  0  0  0  0  0  0
   38.3940   27.1340   43.4120 C   0  0  0  0  0  0  0  0  0  0  0  0
   39.0870   27.2320   42.2000 C   0  0  0  0  0  0  0  0  0  0  0  0
   38.9450   28.3900   41.4910 N   0  0  0  0  0  0  0  0  0  0  0  0
   38.2010   29.4010   41.8840 C   0  0  0  0  0  0  0  0  0  0  0  0
   37.5420   29.3150   43.0320 N   0  0  0  0  0  0  0  0  0  0  0  0
   37.1020   28.1090   44.7330 H   0  0  0  0  0  0  0  0  0  0  0  0
   38.5420   26.2210   43.9090 H   0  0  0  0  0  0  0  0  0  0  0  0
   39.9330   24.8610   42.0110 C   0  0  2  0  0  3  0  0  0  0  0  0
   39.9840   26.2820   41.5170 C   0  0  1  0  0  3  0  0  0  0  0  0
   39.9810   26.3750   40.1500 O   0  0  0  0  0  0  0  0  0  0  0  0
   38.9300   25.8370   39.4760 C   0  0  0  0  0  2  0  0  0  0  0  0
   38.1190   24.8720   40.2680 C   0  0  1  0  0  3  0  0  0  0  0  0
   38.8180   24.1050   41.3250 C   0  0  2  0  0  3  0  0  0  0  0  0
   39.9610   24.7200   43.3790 O   0  0  0  0  0  0  0  0  0  0  0  0
   40.7920   24.4240   43.7770 H   0  0  0  0  0  0  0  0  0  0  0  0
   36.9070   25.4500   40.7200 O   0  0  0  0  0  0  0  0  0  0  0  0
   36.5080   24.8200   41.3780 H   0  0  0  0  0  0  0  0  0  0  0  0
   37.8750   23.6590   42.2600 O   0  0  0  0  0  0  0  0  0  0  0  0
   37.3520   22.9480   41.8100 H   0  0  0  0  0  0  0  0  0  0  0  0
  2  3  1  0  0  0  0
  2  1  1  0  0  0  0
  3 31  1  0  0  0  0
  4  8  1  0  0  0  0
  4  3  2  0  0  0  0
  5  4  1  0  0  0  0
  6  5  2  0  0  0  0
  6  7  1  0  0  0  0
  7  2  2  0  0  0  0
  9  5  1  0  0  0  0
 10  6  1  0  0  0  0
 11 12  1  0  0  0  0
 11  7  1  0  0  0  0
 12 13  1  0  0  0  0
 12 17  1  0  0  0  0
 13 19  1  0  0  0  0
 14 13  1  0  0  0  0
 14 20  1  0  0  0  0
 15 22  1  6  0  0  0
 15 11  1  0  0  0  0
 15 14  1  0  0  0  0
 16 12  1  0  0  0  0
 18 13  1  0  0  0  0
 21 14  1  0  0  0  0
 23 26  1  0  0  0  0
 23 15  1  0  0  0  0
 24 23  1  0  0  0  0
 25 23  1  0  0  0  0
 27 33  1  0  0  0  0
 28 27  1  0  0  0  0
 28 34  1  0  0  0  0
 29 28  2  0  0  0  0
 30 31  2  0  0  0  0
 30 29  1  0  0  0  0
 31 32  1  0  0  0  0
 32 27  2  0  0  0  0
 35 41  1  1  0  0  0
 36 35  1  0  0  0  0
 36 29  1  1  0  0  0
 37 36  1  0  0  0  0
 38 37  1  0  0  0  0
 38 39  1  0  0  0  0
 39 43  1  1  0  0  0
 39 40  1  0  0  0  0
 40 35  1  0  0  0  0
 40 45  1  1  0  0  0
 41 42  1  0  0  0  0
 43 44  1  0  0  0  0
 46 45  1  0  0  0  0
M  END
>  <minimizedAffinity>
-6.58389091

$$$$
