
 OpenBabel03252503133D

 37 40  0  0  1  0  0  0  0  0999 V2000
   46.0010   34.2470   40.8480 C   0  0  0  0  0  0  0  0  0  0  0  0
   44.6620   34.2440   40.5210 C   0  0  0  0  0  0  0  0  0  0  0  0
   44.5630   33.5030   39.4030 N   0  0  0  0  0  0  0  0  0  0  0  0
   45.8160   33.0640   39.0570 C   0  0  0  0  0  0  0  0  0  0  0  0
   46.7040   33.5260   39.9550 N   0  0  0  0  0  0  0  0  0  0  0  0
   43.8700   34.7430   41.0670 H   0  0  0  0  0  0  0  0  0  0  0  0
   43.7200   33.2750   38.8630 H   0  0  0  0  0  0  0  0  0  0  0  0
   46.5390   32.9990   36.6910 C   0  0  1  0  0  3  0  0  0  0  0  0
   46.2660   32.2180   37.9180 C   0  0  1  0  0  3  0  0  0  0  0  0
   47.2680   31.3890   38.3530 O   0  0  0  0  0  0  0  0  0  0  0  0
   48.4920   31.5220   37.7460 C   0  0  0  0  0  2  0  0  0  0  0  0
   48.8750   32.9720   37.6270 C   0  0  2  0  0  3  0  0  0  0  0  0
   47.9300   33.5720   36.6000 C   0  0  1  0  0  3  0  0  0  0  0  0
   46.2010   32.2540   35.5370 O   0  0  0  0  0  0  0  0  0  0  0  0
   45.7020   31.4370   35.7580 H   0  0  0  0  0  0  0  0  0  0  0  0
   50.1740   32.9990   37.0730 O   0  0  0  0  0  0  0  0  0  0  0  0
   50.2360   33.7350   36.3880 H   0  0  0  0  0  0  0  0  0  0  0  0
   48.4430   33.2130   35.3540 O   0  0  0  0  0  0  0  0  0  0  0  0
   48.4680   33.9360   34.7040 H   0  0  0  0  0  0  0  0  0  0  0  0
   46.6290   34.9400   42.0240 C   0  0  0  0  0  0  0  0  0  0  0  0
   47.7880   35.4500   41.9980 O   0  0  0  0  0  0  0  0  0  0  0  0
   45.2640   36.2420   43.5760 C   0  0  0  0  0  0  0  0  0  0  0  0
   45.9200   35.0500   43.2490 C   0  0  0  0  0  0  0  0  0  0  0  0
   45.8120   34.0310   44.1980 C   0  0  0  0  0  0  0  0  0  0  0  0
   45.1290   34.1920   45.3380 N   0  0  0  0  0  0  0  0  0  0  0  0
   44.5090   35.3750   45.6070 C   0  0  0  0  0  0  0  0  0  0  0  0
   44.5790   36.3860   44.7300 N   0  0  0  0  0  0  0  0  0  0  0  0
   45.3080   37.0810   42.8800 H   0  0  0  0  0  0  0  0  0  0  0  0
   43.9640   35.4710   46.5390 H   0  0  0  0  0  0  0  0  0  0  0  0
   46.4460   32.8050   43.9450 C   0  0  0  0  0  0  0  0  0  0  0  0
   47.7300   32.3520   44.0730 C   0  0  0  0  0  0  0  0  0  0  0  0
   48.0790   31.1090   43.7510 C   0  0  0  0  0  0  0  0  0  0  0  0
   47.0980   30.2870   43.2800 C   0  0  0  0  0  0  0  0  0  0  0  0
   45.6060   31.3800   43.3110 S   0  0  0  0  0  0  0  0  0  0  0  0
   48.4520   33.0970   44.4650 H   0  0  0  0  0  0  0  0  0  0  0  0
   49.0700   30.6820   43.8250 H   0  0  0  0  0  0  0  0  0  0  0  0
   47.0920   29.2630   42.9520 H   0  0  0  0  0  0  0  0  0  0  0  0
  1 20  1  0  0  0  0
  2  1  2  0  0  0  0
  2  6  1  0  0  0  0
  3  2  1  0  0  0  0
  4  3  1  0  0  0  0
  4  5  2  0  0  0  0
  5  1  1  0  0  0  0
  7  3  1  0  0  0  0
  8 14  1  6  0  0  0
  8  9  1  0  0  0  0
  9 10  1  0  0  0  0
  9  4  1  1  0  0  0
 11 10  1  0  0  0  0
 12 16  1  6  0  0  0
 12 11  1  0  0  0  0
 13 18  1  6  0  0  0
 13  8  1  0  0  0  0
 13 12  1  0  0  0  0
 14 15  1  0  0  0  0
 17 16  1  0  0  0  0
 19 18  1  0  0  0  0
 20 23  1  0  0  0  0
 21 20  2  0  0  0  0
 22 27  1  0  0  0  0
 23 22  2  0  0  0  0
 23 24  1  0  0  0  0
 24 25  2  0  0  0  0
 25 26  1  0  0  0  0
 26 29  1  0  0  0  0
 27 26  2  0  0  0  0
 28 22  1  0  0  0  0
 30 31  2  0  0  0  0
 30 24  1  0  0  0  0
 31 35  1  0  0  0  0
 32 36  1  0  0  0  0
 32 31  1  0  0  0  0
 33 34  1  0  0  0  0
 33 32  2  0  0  0  0
 34 30  1  0  0  0  0
 37 33  1  0  0  0  0
M  END
>  <minimizedAffinity>
-5.8504324

>  <minimizedRMSD>
0.764080584

$$$$
