
 OpenBabel03242518023D

 40 42  0  0  1  0  0  0  0  0999 V2000
   46.2640   31.7030   45.5110 C   0  0  0  0  0  0  0  0  0  0  0  0
   45.2550   32.0000   45.7790 H   0  0  0  0  0  0  0  0  0  0  0  0
   46.1380   30.7430   44.9260 H   0  0  0  0  0  0  0  0  0  0  0  0
   47.3870   32.3480   47.6380 C   0  0  0  0  0  0  0  0  0  0  0  0
   47.0560   31.3610   46.6830 C   0  0  0  0  0  0  0  0  0  0  0  0
   47.5320   30.0660   46.9370 C   0  0  0  0  0  0  0  0  0  0  0  0
   48.2620   29.8320   48.0470 N   0  0  0  0  0  0  0  0  0  0  0  0
   48.5570   30.8040   48.9340 C   0  0  0  0  0  0  0  0  0  0  0  0
   48.1220   32.0430   48.7250 N   0  0  0  0  0  0  0  0  0  0  0  0
   47.0640   33.3780   47.5290 H   0  0  0  0  0  0  0  0  0  0  0  0
   47.2910   29.2940   46.2220 H   0  0  0  0  0  0  0  0  0  0  0  0
   50.3680   31.6510   50.2660 C   0  0  1  0  0  3  0  0  0  0  0  0
   49.3630   30.5300   50.1530 C   0  0  2  0  0  3  0  0  0  0  0  0
   49.9180   29.2860   50.1890 O   0  0  0  0  0  0  0  0  0  0  0  0
   51.1410   29.1990   50.8030 C   0  0  0  0  0  2  0  0  0  0  0  0
   51.3650   30.1480   51.9450 C   0  0  2  0  0  3  0  0  0  0  0  0
   51.0130   31.5700   51.6260 C   0  0  1  0  0  3  0  0  0  0  0  0
   51.2600   31.5330   49.2280 O   0  0  0  0  0  0  0  0  0  0  0  0
   51.8710   32.2970   49.1300 H   0  0  0  0  0  0  0  0  0  0  0  0
   52.7240   30.0990   52.2550 O   0  0  0  0  0  0  0  0  0  0  0  0
   52.9030   30.4000   53.1840 H   0  0  0  0  0  0  0  0  0  0  0  0
   52.0610   32.4570   51.6760 O   0  0  0  0  0  0  0  0  0  0  0  0
   52.8870   31.9800   51.8800 H   0  0  0  0  0  0  0  0  0  0  0  0
   47.0510   32.7170   44.7090 C   0  0  0  0  0  0  0  0  0  0  0  0
   47.9510   33.0960   45.2770 H   0  0  0  0  0  0  0  0  0  0  0  0
   47.4900   32.1810   43.8460 H   0  0  0  0  0  0  0  0  0  0  0  0
   46.6080   34.5630   43.1430 C   0  0  0  0  0  0  0  0  0  0  0  0
   46.2950   33.9150   44.3210 C   0  0  0  0  0  0  0  0  0  0  0  0
   45.2980   34.3320   45.1620 C   0  0  0  0  0  0  0  0  0  0  0  0
   44.5740   35.4500   44.8170 C   0  0  0  0  0  0  0  0  0  0  0  0
   44.8170   36.1540   43.6680 C   0  0  0  0  0  0  0  0  0  0  0  0
   45.8460   35.6720   42.8600 C   0  0  0  0  0  0  0  0  0  0  0  0
   44.9890   33.9050   46.0800 H   0  0  0  0  0  0  0  0  0  0  0  0
   43.7610   35.8590   45.4220 H   0  0  0  0  0  0  0  0  0  0  0  0
   44.2540   37.0370   43.3840 H   0  0  0  0  0  0  0  0  0  0  0  0
   46.0740   36.2030   41.9330 H   0  0  0  0  0  0  0  0  0  0  0  0
   47.8760   34.0620   42.0440 S   0  0  0  0  0  0  0  0  0  0  0  0
   49.2330   34.5900   42.4550 O   0  0  0  0  0  0  0  0  0  0  0  0
   47.6150   34.6970   40.6960 O   0  0  0  0  0  0  0  0  0  0  0  0
   47.8890   32.7190   41.8130 H   0  0  0  0  0  0  0  0  0  0  0  0
  1  2  1  0  0  0  0
  1  5  1  0  0  0  0
  3  1  1  0  0  0  0
  4  9  1  0  0  0  0
  5  6  1  0  0  0  0
  5  4  2  0  0  0  0
  6  7  2  0  0  0  0
  7  8  1  0  0  0  0
  9  8  2  0  0  0  0
 10  4  1  0  0  0  0
 11  6  1  0  0  0  0
 12 18  1  6  0  0  0
 12 17  1  0  0  0  0
 13  8  1  6  0  0  0
 13 14  1  0  0  0  0
 13 12  1  0  0  0  0
 14 15  1  0  0  0  0
 15 16  1  0  0  0  0
 16 20  1  6  0  0  0
 17 22  1  6  0  0  0
 17 16  1  0  0  0  0
 19 18  1  0  0  0  0
 20 21  1  0  0  0  0
 22 23  1  0  0  0  0
 24 25  1  0  0  0  0
 24  1  1  0  0  0  0
 26 24  1  0  0  0  0
 27 28  1  0  0  0  0
 28 24  1  0  0  0  0
 28 29  2  0  0  0  0
 29 33  1  0  0  0  0
 30 29  1  0  0  0  0
 30 34  1  0  0  0  0
 31 30  2  0  0  0  0
 32 27  2  0  0  0  0
 32 31  1  0  0  0  0
 35 31  1  0  0  0  0
 36 32  1  0  0  0  0
 37 38  2  0  0  0  0
 37 27  1  0  0  0  0
 39 37  2  0  0  0  0
 40 37  1  0  0  0  0
M  END
>  <minimizedAffinity>
-6.24934244

>  <minimizedRMSD>
0.457717925

$$$$
