
 OpenBabel03242515233D

 24 25  0  0  1  0  0  0  0  0999 V2000
   44.8640   34.5690   41.0160 C   0  0  0  0  0  0  0  0  0  0  0  0
   45.5600   33.7330   40.7270 H   0  0  0  0  0  0  0  0  0  0  0  0
   45.2140   35.5120   40.5830 H   0  0  0  0  0  0  0  0  0  0  0  0
   44.6840   35.8900   43.0460 C   0  0  0  0  0  0  0  0  0  0  0  0
   44.9140   34.6200   42.4880 C   0  0  0  0  0  0  0  0  0  0  0  0
   45.1570   33.5740   43.3660 C   0  0  0  0  0  0  0  0  0  0  0  0
   45.1600   33.8300   44.6890 N   0  0  0  0  0  0  0  0  0  0  0  0
   44.9370   35.0540   45.1910 C   0  0  0  0  0  0  0  0  0  0  0  0
   44.6920   36.1220   44.3750 N   0  0  0  0  0  0  0  0  0  0  0  0
   44.4790   36.7980   42.4640 H   0  0  0  0  0  0  0  0  0  0  0  0
   45.3280   32.6160   42.8940 H   0  0  0  0  0  0  0  0  0  0  0  0
   44.9530   35.1990   46.2640 H   0  0  0  0  0  0  0  0  0  0  0  0
   43.5100   33.3060   39.3760 C   0  0  1  0  0  3  0  0  0  0  0  0
   43.4700   34.2820   40.4980 C   0  0  2  0  0  3  0  0  0  0  0  0
   42.7160   35.3900   40.3110 O   0  0  0  0  0  0  0  0  0  0  0  0
   41.5640   35.2870   39.6310 C   0  0  0  0  0  2  0  0  0  0  0  0
   41.4860   34.3770   38.4660 C   0  0  1  0  0  3  0  0  0  0  0  0
   42.1850   33.0610   38.7260 C   0  0  1  0  0  3  0  0  0  0  0  0
   44.3680   33.8630   38.4050 O   0  0  0  0  0  0  0  0  0  0  0  0
   44.6520   33.1900   37.7500 H   0  0  0  0  0  0  0  0  0  0  0  0
   40.1420   34.0810   38.2270 O   0  0  0  0  0  0  0  0  0  0  0  0
   39.7030   34.7460   37.6620 H   0  0  0  0  0  0  0  0  0  0  0  0
   42.2880   32.4280   37.5010 O   0  0  0  0  0  0  0  0  0  0  0  0
   42.0640   32.9930   36.7460 H   0  0  0  0  0  0  0  0  0  0  0  0
  1  5  1  0  0  0  0
  2  1  1  0  0  0  0
  3  1  1  0  0  0  0
  4  9  1  0  0  0  0
  5  4  2  0  0  0  0
  5  6  1  0  0  0  0
  6  7  2  0  0  0  0
  7  8  1  0  0  0  0
  8 12  1  0  0  0  0
  9  8  2  0  0  0  0
 10  4  1  0  0  0  0
 11  6  1  0  0  0  0
 13 19  1  6  0  0  0
 13 14  1  0  0  0  0
 14  1  1  6  0  0  0
 15 14  1  0  0  0  0
 16 15  1  0  0  0  0
 17 21  1  1  0  0  0
 17 18  1  0  0  0  0
 17 16  1  0  0  0  0
 18 23  1  6  0  0  0
 18 13  1  0  0  0  0
 20 19  1  0  0  0  0
 22 21  1  0  0  0  0
 24 23  1  0  0  0  0
M  END
>  <minimizedAffinity>
-4.62929773

>  <minimizedRMSD>
3.06179428

$$$$
