
 OpenBabel03252501193D

 27 28  0  0  1  0  0  0  0  0999 V2000
   46.3700   34.1790   40.7790 C   0  0  0  0  0  0  0  0  0  0  0  0
   46.4950   33.0990   40.5070 H   0  0  0  0  0  0  0  0  0  0  0  0
   46.8530   34.8470   40.0410 H   0  0  0  0  0  0  0  0  0  0  0  0
   44.4290   35.2170   42.0090 C   0  0  0  0  0  0  0  0  0  0  0  0
   44.9440   34.4170   40.9740 C   0  0  0  0  0  0  0  0  0  0  0  0
   43.9810   33.8680   40.1180 C   0  0  0  0  0  0  0  0  0  0  0  0
   42.6550   34.1400   40.3370 N   0  0  0  0  0  0  0  0  0  0  0  0
   42.2260   34.9130   41.3450 C   0  0  0  0  0  0  0  0  0  0  0  0
   43.1260   35.4590   42.1910 N   0  0  0  0  0  0  0  0  0  0  0  0
   45.0570   35.7120   42.7300 H   0  0  0  0  0  0  0  0  0  0  0  0
   41.1460   34.9920   41.3300 H   0  0  0  0  0  0  0  0  0  0  0  0
   44.4710   33.0180   39.0360 C   0  0  0  0  0  0  0  0  0  0  0  0
   43.4550   32.7660   38.1360 F   0  0  0  0  0  0  0  0  0  0  0  0
   44.7550   31.7800   39.6430 F   0  0  0  0  0  0  0  0  0  0  0  0
   45.5180   33.5160   38.3730 F   0  0  0  0  0  0  0  0  0  0  0  0
   47.9930   33.2820   42.5060 C   0  0  1  0  0  0  0  0  0  0  0  0
   47.1600   34.4220   42.0480 C   0  0  1  0  0  0  0  0  0  0  0  0
   47.8630   35.6480   41.9720 O   0  0  0  0  0  0  0  0  0  0  0  0
   49.0260   35.5470   41.2170 C   0  0  0  0  0  0  0  0  0  0  0  0
   49.9830   34.7490   42.1160 C   0  0  2  0  0  0  0  0  0  0  0  0
   49.4350   33.3380   42.0630 C   0  0  2  0  0  0  0  0  0  0  0  0
   48.0530   33.2180   43.9180 O   0  0  0  0  0  0  0  0  0  0  0  0
   47.5490   34.0000   44.2580 H   0  0  0  0  0  0  0  0  0  0  0  0
   49.7840   35.2720   43.4150 O   0  0  0  0  0  0  0  0  0  0  0  0
   50.5840   35.2500   43.9620 H   0  0  0  0  0  0  0  0  0  0  0  0
   49.6290   32.8810   40.7570 O   0  0  0  0  0  0  0  0  0  0  0  0
   50.5980   33.0810   40.5670 H   0  0  0  0  0  0  0  0  0  0  0  0
  1  5  1  0  0  0  0
  2  1  1  0  0  0  0
  3  1  1  0  0  0  0
  4  9  1  0  0  0  0
  4 10  1  0  0  0  0
  5  4  2  0  0  0  0
  6  7  2  0  0  0  0
  6  5  1  0  0  0  0
  7  8  1  0  0  0  0
  8  9  2  0  0  0  0
 11  8  1  0  0  0  0
 12 14  1  0  0  0  0
 12  6  1  0  0  0  0
 13 12  1  0  0  0  0
 15 12  1  0  0  0  0
 16 22  1  1  0  0  0
 17  1  1  6  0  0  0
 17 16  1  0  0  0  0
 18 17  1  0  0  0  0
 19 18  1  0  0  0  0
 19 20  1  0  0  0  0
 20 24  1  1  0  0  0
 21 26  1  6  0  0  0
 21 20  1  0  0  0  0
 21 16  1  0  0  0  0
 22 23  1  0  0  0  0
 24 25  1  0  0  0  0
 27 26  1  0  0  0  0
M  END
>  <minimizedAffinity>
-4.99067163

>  <minimizedRMSD>
5.67798853

$$$$
