
 OpenBabel03242510273D

 21 22  0  0  1  0  0  0  0  0999 V2000
   48.1370   33.4950   42.5670 C   0  0  1  0  0  0  0  0  0  0  0  0
   46.6870   33.7250   42.2920 C   0  0  2  0  0  0  0  0  0  0  0  0
   46.4830   34.6580   41.2670 O   0  0  0  0  0  0  0  0  0  0  0  0
   46.8770   33.9940   40.1020 C   0  0  0  0  0  0  0  0  0  0  0  0
   48.3780   33.9260   40.0950 C   0  0  2  0  0  0  0  0  0  0  0  0
   48.9820   33.3750   41.3470 C   0  0  2  0  0  0  0  0  0  0  0  0
   44.5780   35.7860   44.6640 C   0  0  0  0  0  0  0  0  0  0  0  0
   45.2110   35.3930   43.4760 C   0  0  0  0  0  0  0  0  0  0  0  0
   45.9860   34.2130   43.5020 C   0  0  0  0  0  0  0  0  0  0  0  0
   46.0760   33.5270   44.6740 N   0  0  0  0  0  0  0  0  0  0  0  0
   45.4430   33.9480   45.8030 C   0  0  0  0  0  0  0  0  0  0  0  0
   44.6980   35.0760   45.7910 N   0  0  0  0  0  0  0  0  0  0  0  0
   43.9880   36.6930   44.6290 H   0  0  0  0  0  0  0  0  0  0  0  0
   45.1270   35.9520   42.5550 H   0  0  0  0  0  0  0  0  0  0  0  0
   45.5050   33.4130   46.7420 H   0  0  0  0  0  0  0  0  0  0  0  0
   48.6580   34.4570   43.4630 O   0  0  0  0  0  0  0  0  0  0  0  0
   49.5310   34.1340   43.8050 H   0  0  0  0  0  0  0  0  0  0  0  0
   48.8200   35.2370   39.8450 O   0  0  0  0  0  0  0  0  0  0  0  0
   48.1500   35.9110   40.1390 H   0  0  0  0  0  0  0  0  0  0  0  0
   49.4670   32.0650   41.1890 O   0  0  0  0  0  0  0  0  0  0  0  0
   48.8560   31.4830   40.7030 H   0  0  0  0  0  0  0  0  0  0  0  0
  1 16  1  1  0  0  0
  2  1  1  0  0  0  0
  2  9  1  1  0  0  0
  3  2  1  0  0  0  0
  4  3  1  0  0  0  0
  5 18  1  1  0  0  0
  5  4  1  0  0  0  0
  5  6  1  0  0  0  0
  6 20  1  6  0  0  0
  6  1  1  0  0  0  0
  7 12  1  0  0  0  0
  8  9  1  0  0  0  0
  8  7  2  0  0  0  0
  9 10  2  0  0  0  0
 10 11  1  0  0  0  0
 11 15  1  0  0  0  0
 12 11  2  0  0  0  0
 13  7  1  0  0  0  0
 14  8  1  0  0  0  0
 16 17  1  0  0  0  0
 18 19  1  0  0  0  0
 21 20  1  0  0  0  0
M  END
>  <minimizedAffinity>
-5.06340551

>  <minimizedRMSD>
0.57009697

$$$$
