
 OpenBabel03252500423D

 31 33  0  0  1  0  0  0  0  0999 V2000
   47.6650   34.8670   41.5360 C   0  0  1  0  0  0  0  0  0  0  0  0
   48.9660   34.0800   41.4130 C   0  0  0  0  0  0  0  0  0  0  0  0
   48.3260   34.7520   40.2290 C   0  0  1  0  0  0  0  0  0  0  0  0
   47.8860   35.8410   42.0500 H   0  0  0  0  0  0  0  0  0  0  0  0
   49.9220   34.5070   41.7220 H   0  0  0  0  0  0  0  0  0  0  0  0
   48.9120   32.9790   41.5110 H   0  0  0  0  0  0  0  0  0  0  0  0
   48.8200   35.6980   39.8400 H   0  0  0  0  0  0  0  0  0  0  0  0
   48.2200   34.4580   37.8030 C   0  0  2  0  0  0  0  0  0  0  0  0
   47.9330   33.8240   39.1120 C   0  0  1  0  0  0  0  0  0  0  0  0
   48.6080   32.6340   39.3670 O   0  0  0  0  0  0  0  0  0  0  0  0
   48.6300   31.7360   38.3370 C   0  0  0  0  0  0  0  0  0  0  0  0
   49.4160   32.3620   37.1950 C   0  0  1  0  0  0  0  0  0  0  0  0
   48.5810   33.4880   36.6930 C   0  0  1  0  0  0  0  0  0  0  0  0
   49.2210   35.4500   37.9040 O   0  0  0  0  0  0  0  0  0  0  0  0
   50.1330   35.0450   37.8360 H   0  0  0  0  0  0  0  0  0  0  0  0
   50.6700   32.7680   37.6300 O   0  0  0  0  0  0  0  0  0  0  0  0
   51.2630   31.9530   37.6540 H   0  0  0  0  0  0  0  0  0  0  0  0
   47.4460   33.0150   36.0720 O   0  0  0  0  0  0  0  0  0  0  0  0
   47.6250   32.1830   35.5640 H   0  0  0  0  0  0  0  0  0  0  0  0
   46.4430   34.0910   41.8570 C   0  0  0  0  0  0  0  0  0  0  0  0
   45.6440   34.3510   41.0940 H   0  0  0  0  0  0  0  0  0  0  0  0
   46.6030   33.0140   41.7700 H   0  0  0  0  0  0  0  0  0  0  0  0
   45.8500   34.4730   43.1710 C   0  0  0  0  0  0  0  0  0  0  0  0
   45.2050   35.6860   43.1830 C   0  0  0  0  0  0  0  0  0  0  0  0
   44.6100   36.1360   44.3580 C   0  0  0  0  0  0  0  0  0  0  0  0
   44.7100   35.3170   45.4470 N   0  0  0  0  0  0  0  0  0  0  0  0
   45.3530   34.1220   45.4110 C   0  0  0  0  0  0  0  0  0  0  0  0
   45.9190   33.7060   44.2750 N   0  0  0  0  0  0  0  0  0  0  0  0
   44.9870   36.4770   42.4880 H   0  0  0  0  0  0  0  0  0  0  0  0
   44.0630   37.0200   44.6180 H   0  0  0  0  0  0  0  0  0  0  0  0
   45.4130   33.4980   46.2940 H   0  0  0  0  0  0  0  0  0  0  0  0
  1 20  1  0  0  0  0
  1  4  1  1  0  0  0
  2  6  1  0  0  0  0
  2  1  1  0  0  0  0
  2  5  1  0  0  0  0
  3  7  1  6  0  0  0
  3  2  1  0  0  0  0
  3  1  1  0  0  0  0
  8 14  1  1  0  0  0
  8  9  1  0  0  0  0
  9 10  1  1  0  0  0
  9  3  1  0  0  0  0
 11 10  1  0  0  0  0
 12 16  1  1  0  0  0
 12 11  1  0  0  0  0
 13 18  1  1  0  0  0
 13 12  1  0  0  0  0
 13  8  1  0  0  0  0
 15 14  1  0  0  0  0
 16 17  1  0  0  0  0
 19 18  1  0  0  0  0
 20 23  1  0  0  0  0
 21 20  1  0  0  0  0
 22 20  1  0  0  0  0
 23 24  2  0  0  0  0
 23 28  1  0  0  0  0
 24 25  1  0  0  0  0
 25 30  1  0  0  0  0
 25 26  2  0  0  0  0
 27 26  1  0  0  0  0
 27 31  1  0  0  0  0
 28 27  2  0  0  0  0
 29 24  1  0  0  0  0
M  END
>  <minimizedAffinity>
-6.24194908

>  <minimizedRMSD>
2.91583753

$$$$
