
 OpenBabel03242521403D

 24 25  0  0  1  0  0  0  0  0999 V2000
   45.4390   35.0670   44.0700 C   0  0  0  0  0  0  0  0  0  0  0  0
   46.5320   34.5420   43.3800 C   0  0  0  0  0  0  0  0  0  0  0  0
   47.2320   33.4660   43.9700 C   0  0  0  0  0  0  0  0  0  0  0  0
   46.7890   33.0100   45.1830 N   0  0  0  0  0  0  0  0  0  0  0  0
   45.7220   33.5550   45.8080 C   0  0  0  0  0  0  0  0  0  0  0  0
   45.0480   34.5790   45.2580 N   0  0  0  0  0  0  0  0  0  0  0  0
   46.8700   34.9180   42.4150 H   0  0  0  0  0  0  0  0  0  0  0  0
   45.4200   33.1440   46.7750 H   0  0  0  0  0  0  0  0  0  0  0  0
   47.9040   32.1370   42.0750 C   0  0  1  0  0  3  0  0  0  0  0  0
   48.4050   32.8480   43.3050 C   0  0  1  0  0  3  0  0  0  0  0  0
   49.2450   33.8590   42.8890 O   0  0  0  0  0  0  0  0  0  0  0  0
   50.3790   33.4520   42.2400 C   0  0  0  0  0  2  0  0  0  0  0  0
   50.2050   32.4850   41.1290 C   0  0  2  0  0  3  0  0  0  0  0  0
   49.0300   31.5660   41.2560 C   0  0  2  0  0  3  0  0  0  0  0  0
   47.0160   31.1440   42.4420 O   0  0  0  0  0  0  0  0  0  0  0  0
   46.9250   30.4550   41.7520 H   0  0  0  0  0  0  0  0  0  0  0  0
   51.3450   31.6820   41.0910 O   0  0  0  0  0  0  0  0  0  0  0  0
   51.1960   30.8910   40.5090 H   0  0  0  0  0  0  0  0  0  0  0  0
   48.5240   31.2900   39.9860 O   0  0  0  0  0  0  0  0  0  0  0  0
   47.5610   31.1690   39.9490 H   0  0  0  0  0  0  0  0  0  0  0  0
   44.7120   36.2100   43.4220 C   0  0  0  0  0  0  0  0  0  0  0  0
   43.7500   35.7770   43.0340 H   0  0  0  0  0  0  0  0  0  0  0  0
   45.3170   36.6800   42.6510 H   0  0  0  0  0  0  0  0  0  0  0  0
   44.3870   36.9260   44.2180 H   0  0  0  0  0  0  0  0  0  0  0  0
  1  6  1  0  0  0  0
  2  3  1  0  0  0  0
  2  1  2  0  0  0  0
  3  4  2  0  0  0  0
  4  5  1  0  0  0  0
  5  8  1  0  0  0  0
  6  5  2  0  0  0  0
  7  2  1  0  0  0  0
  9 15  1  1  0  0  0
  9 10  1  0  0  0  0
 10  3  1  6  0  0  0
 11 10  1  0  0  0  0
 12 11  1  0  0  0  0
 13 17  1  1  0  0  0
 13 14  1  0  0  0  0
 13 12  1  0  0  0  0
 14 19  1  6  0  0  0
 14  9  1  0  0  0  0
 16 15  1  0  0  0  0
 18 17  1  0  0  0  0
 20 19  1  0  0  0  0
 21  1  1  0  0  0  0
 21 24  1  0  0  0  0
 22 21  1  0  0  0  0
 23 21  1  0  0  0  0
M  END
>  <minimizedAffinity>
-4.10108137

>  <minimizedRMSD>
1.97588396

$$$$
