
 OpenBabel03252507083D

 27 28  0  0  1  0  0  0  0  0999 V2000
   44.5400   35.8170   44.5860 C   0  0  0  0  0  0  0  0  0  0  0  0
   45.1520   35.8030   43.3170 C   0  0  0  0  0  0  0  0  0  0  0  0
   46.1370   34.8510   43.0810 C   0  0  0  0  0  0  0  0  0  0  0  0
   46.4730   33.9720   44.0780 N   0  0  0  0  0  0  0  0  0  0  0  0
   45.8690   34.0170   45.2710 C   0  0  0  0  0  0  0  0  0  0  0  0
   44.9050   34.9310   45.5380 N   0  0  0  0  0  0  0  0  0  0  0  0
   43.7820   36.5660   44.7380 H   0  0  0  0  0  0  0  0  0  0  0  0
   44.8770   36.4950   42.5570 H   0  0  0  0  0  0  0  0  0  0  0  0
   45.0760   32.9170   47.2740 C   0  0  1  0  0  0  0  0  0  0  0  0
   46.2490   33.0590   46.3310 C   0  0  1  0  0  0  0  0  0  0  0  0
   46.5850   31.8060   45.8530 O   0  0  0  0  0  0  0  0  0  0  0  0
   47.0870   31.0760   46.9300 C   0  0  0  0  0  0  0  0  0  0  0  0
   45.9920   30.7720   47.9300 C   0  0  2  0  0  0  0  0  0  0  0  0
   45.4890   32.0950   48.4760 C   0  0  1  0  0  0  0  0  0  0  0  0
   44.5840   34.1680   47.6660 O   0  0  0  0  0  0  0  0  0  0  0  0
   45.3240   34.8080   47.8140 H   0  0  0  0  0  0  0  0  0  0  0  0
   46.5000   29.9780   48.9360 O   0  0  0  0  0  0  0  0  0  0  0  0
   47.2940   30.3800   49.3370 H   0  0  0  0  0  0  0  0  0  0  0  0
   46.5010   32.6760   49.2040 O   0  0  0  0  0  0  0  0  0  0  0  0
   46.7850   33.5650   48.9210 H   0  0  0  0  0  0  0  0  0  0  0  0
   46.7270   34.8600   41.8140 O   0  0  0  0  0  0  0  0  0  0  0  0
   48.6990   33.2220   41.1390 O   0  0  0  0  0  0  0  0  0  0  0  0
   48.4250   34.6080   41.6920 P   0  0  0  0  0  0  0  0  0  0  0  0
   49.0660   35.8110   40.7150 O   0  0  0  0  0  0  0  0  0  0  0  0
   49.1320   36.6340   41.2610 H   0  0  0  0  0  0  0  0  0  0  0  0
   49.0690   34.6830   43.2580 O   0  0  0  0  0  0  0  0  0  0  0  0
   49.5190   35.5680   43.4090 H   0  0  0  0  0  0  0  0  0  0  0  0
  1  7  1  0  0  0  0
  1  6  1  0  0  0  0
  2  1  2  0  0  0  0
  3  2  1  0  0  0  0
  3  4  2  0  0  0  0
  4  5  1  0  0  0  0
  5  6  2  0  0  0  0
  8  2  1  0  0  0  0
  9 15  1  1  0  0  0
  9 14  1  0  0  0  0
 10  5  1  6  0  0  0
 10  9  1  0  0  0  0
 11 10  1  0  0  0  0
 11 12  1  0  0  0  0
 12 13  1  0  0  0  0
 13 14  1  0  0  0  0
 13 17  1  1  0  0  0
 14 19  1  6  0  0  0
 15 16  1  0  0  0  0
 17 18  1  0  0  0  0
 20 19  1  0  0  0  0
 21  3  1  0  0  0  0
 22 23  2  0  0  0  0
 23 21  1  0  0  0  0
 23 26  1  0  0  0  0
 24 25  1  0  0  0  0
 24 23  1  0  0  0  0
 26 27  1  0  0  0  0
M  END
>  <minimizedAffinity>
-7.02005911

>  <minimizedRMSD>
0.680253446

$$$$
