
 OpenBabel03252507083D

 27 28  0  0  1  0  0  0  0  0999 V2000
   44.6610   35.9910   44.3980 C   0  0  0  0  0  0  0  0  0  0  0  0
   45.3270   35.9350   43.1580 C   0  0  0  0  0  0  0  0  0  0  0  0
   46.1670   34.8550   42.9190 C   0  0  0  0  0  0  0  0  0  0  0  0
   46.3180   33.8940   43.8860 N   0  0  0  0  0  0  0  0  0  0  0  0
   45.6680   33.9820   45.0530 C   0  0  0  0  0  0  0  0  0  0  0  0
   44.8400   35.0210   45.3210 N   0  0  0  0  0  0  0  0  0  0  0  0
   44.0180   36.8390   44.5520 H   0  0  0  0  0  0  0  0  0  0  0  0
   45.1970   36.6910   42.4200 H   0  0  0  0  0  0  0  0  0  0  0  0
   45.9730   31.6040   45.3720 C   0  0  1  0  0  3  0  0  0  0  0  0
   45.8460   32.9350   46.0810 C   0  0  1  0  0  3  0  0  0  0  0  0
   46.9610   33.1200   46.8760 O   0  0  0  0  0  0  0  0  0  0  0  0
   46.8990   32.1730   47.8980 C   0  0  0  0  0  2  0  0  0  0  0  0
   47.1050   30.7770   47.3490 C   0  0  2  0  0  3  0  0  0  0  0  0
   45.9630   30.4850   46.3930 C   0  0  1  0  0  3  0  0  0  0  0  0
   44.9550   31.4310   44.4280 O   0  0  0  0  0  0  0  0  0  0  0  0
   44.0950   31.7840   44.7660 H   0  0  0  0  0  0  0  0  0  0  0  0
   47.1230   29.8740   48.3920 O   0  0  0  0  0  0  0  0  0  0  0  0
   46.3270   29.9600   48.9480 H   0  0  0  0  0  0  0  0  0  0  0  0
   44.7950   30.4280   47.1180 O   0  0  0  0  0  0  0  0  0  0  0  0
   44.0900   31.0450   46.8540 H   0  0  0  0  0  0  0  0  0  0  0  0
   46.8150   34.8250   41.6800 O   0  0  0  0  0  0  0  0  0  0  0  0
   48.9110   33.3590   40.9820 O   0  0  0  0  0  0  0  0  0  0  0  0
   48.5280   34.6670   41.6470 P   0  0  0  0  0  0  0  0  0  0  0  0
   49.1620   35.9920   40.8370 O   0  0  0  0  0  0  0  0  0  0  0  0
   49.1500   36.7580   41.4640 H   0  0  0  0  0  0  0  0  0  0  0  0
   49.0700   34.6150   43.2530 O   0  0  0  0  0  0  0  0  0  0  0  0
   49.4610   35.5010   43.5200 H   0  0  0  0  0  0  0  0  0  0  0  0
  1  7  1  0  0  0  0
  1  6  1  0  0  0  0
  2  1  2  0  0  0  0
  3  2  1  0  0  0  0
  3  4  2  0  0  0  0
  4  5  1  0  0  0  0
  5  6  2  0  0  0  0
  8  2  1  0  0  0  0
  9 15  1  6  0  0  0
  9 10  1  0  0  0  0
  9 14  1  0  0  0  0
 10  5  1  6  0  0  0
 10 11  1  0  0  0  0
 11 12  1  0  0  0  0
 13 12  1  0  0  0  0
 13 17  1  1  0  0  0
 14 19  1  1  0  0  0
 14 13  1  0  0  0  0
 15 16  1  0  0  0  0
 17 18  1  0  0  0  0
 20 19  1  0  0  0  0
 21  3  1  0  0  0  0
 22 23  2  0  0  0  0
 23 21  1  0  0  0  0
 23 26  1  0  0  0  0
 24 25  1  0  0  0  0
 24 23  1  0  0  0  0
 26 27  1  0  0  0  0
M  END
>  <minimizedAffinity>
-6.54363728

>  <minimizedRMSD>
0.173587412

$$$$
