
 OpenBabel03242522033D

 38 40  0  0  1  0  0  0  0  0999 V2000
   44.8490   34.7070   45.3060 C   0  0  0  0  0  0  0  0  0  0  0  0
   45.6150   34.6140   44.1440 C   0  0  0  0  0  0  0  0  0  0  0  0
   46.7410   33.7790   44.1190 C   0  0  0  0  0  0  0  0  0  0  0  0
   47.0040   33.1030   45.2700 N   0  0  0  0  0  0  0  0  0  0  0  0
   46.2540   33.2060   46.3760 C   0  0  0  0  0  0  0  0  0  0  0  0
   45.1660   34.0170   46.3950 N   0  0  0  0  0  0  0  0  0  0  0  0
   44.0070   35.3670   45.2410 H   0  0  0  0  0  0  0  0  0  0  0  0
   45.3990   35.1500   43.2450 H   0  0  0  0  0  0  0  0  0  0  0  0
   47.5830   33.6120   42.9990 N   0  0  0  0  0  0  0  0  0  0  0  0
   47.1880   32.7350   41.9000 C   0  0  0  0  0  0  0  0  0  0  0  0
   48.3550   32.2740   41.0940 C   0  0  0  0  0  0  0  0  0  0  0  0
   49.2290   33.3140   40.6740 N   0  0  0  0  0  0  0  0  0  0  0  0
   49.4160   34.3990   41.5620 C   0  0  2  0  0  0  0  0  0  0  0  0
   48.8320   34.2930   42.9150 C   0  0  0  0  0  0  0  0  0  0  0  0
   46.7220   31.8260   42.3760 H   0  0  0  0  0  0  0  0  0  0  0  0
   46.4130   33.2040   41.2740 H   0  0  0  0  0  0  0  0  0  0  0  0
   47.9260   31.8200   40.1530 H   0  0  0  0  0  0  0  0  0  0  0  0
   48.9090   31.4460   41.5810 H   0  0  0  0  0  0  0  0  0  0  0  0
   49.1320   33.6090   39.6780 H   0  0  0  0  0  0  0  0  0  0  0  0
   50.5170   34.5720   41.6500 H   0  0  0  0  0  0  0  0  0  0  0  0
   49.5990   33.8030   43.5770 H   0  0  0  0  0  0  0  0  0  0  0  0
   48.6920   35.3250   43.3290 H   0  0  0  0  0  0  0  0  0  0  0  0
   48.8490   35.6600   40.9130 C   0  0  0  0  0  0  0  0  0  0  0  0
   49.5700   36.7720   41.3400 F   0  0  0  0  0  0  0  0  0  0  0  0
   47.5800   35.8140   41.4260 F   0  0  0  0  0  0  0  0  0  0  0  0
   48.8780   35.6290   39.5540 F   0  0  0  0  0  0  0  0  0  0  0  0
   46.8720   31.0060   47.1590 C   0  0  1  0  0  0  0  0  0  0  0  0
   46.6310   32.4200   47.5840 C   0  0  2  0  0  0  0  0  0  0  0  0
   45.7240   32.5840   48.6060 O   0  0  0  0  0  0  0  0  0  0  0  0
   44.9600   31.4710   48.8650 C   0  0  0  0  0  0  0  0  0  0  0  0
   45.7370   30.2520   49.2590 C   0  0  2  0  0  0  0  0  0  0  0  0
   46.8760   30.0340   48.3100 C   0  0  1  0  0  0  0  0  0  0  0  0
   46.0000   30.6470   46.1360 O   0  0  0  0  0  0  0  0  0  0  0  0
   46.4770   30.1980   45.3870 H   0  0  0  0  0  0  0  0  0  0  0  0
   44.8430   29.1690   49.1810 O   0  0  0  0  0  0  0  0  0  0  0  0
   44.5140   29.0420   48.2590 H   0  0  0  0  0  0  0  0  0  0  0  0
   46.8000   28.7520   47.7660 O   0  0  0  0  0  0  0  0  0  0  0  0
   47.3010   28.7310   46.9110 H   0  0  0  0  0  0  0  0  0  0  0  0
  1  6  1  0  0  0  0
  2  1  2  0  0  0  0
  3  2  1  0  0  0  0
  3  4  2  0  0  0  0
  4  5  1  0  0  0  0
  5  6  2  0  0  0  0
  7  1  1  0  0  0  0
  8  2  1  0  0  0  0
  9  3  1  0  0  0  0
 10 15  1  0  0  0  0
 10  9  1  0  0  0  0
 11 18  1  0  0  0  0
 11 10  1  0  0  0  0
 12 11  1  0  0  0  0
 12 13  1  0  0  0  0
 13 20  1  1  0  0  0
 13 14  1  0  0  0  0
 14  9  1  0  0  0  0
 14 22  1  0  0  0  0
 14 21  1  0  0  0  0
 16 10  1  0  0  0  0
 17 11  1  0  0  0  0
 19 12  1  0  0  0  0
 23 24  1  0  0  0  0
 23 25  1  0  0  0  0
 23 13  1  0  0  0  0
 26 23  1  0  0  0  0
 27 33  1  6  0  0  0
 27 28  1  0  0  0  0
 27 32  1  0  0  0  0
 28  5  1  6  0  0  0
 28 29  1  0  0  0  0
 29 30  1  0  0  0  0
 30 31  1  0  0  0  0
 31 35  1  6  0  0  0
 32 37  1  6  0  0  0
 32 31  1  0  0  0  0
 34 33  1  0  0  0  0
 36 35  1  0  0  0  0
 38 37  1  0  0  0  0
M  END
>  <minimizedAffinity>
-6.70413923

>  <minimizedRMSD>
0.797680676

$$$$
