
 OpenBabel03242515233D

 24 25  0  0  1  0  0  0  0  0999 V2000
   44.2870   35.7170   42.0300 C   0  0  0  0  0  0  0  0  0  0  0  0
   45.2110   35.9130   41.4180 H   0  0  0  0  0  0  0  0  0  0  0  0
   43.7840   36.6630   42.2590 H   0  0  0  0  0  0  0  0  0  0  0  0
   44.3000   35.6460   44.4580 C   0  0  0  0  0  0  0  0  0  0  0  0
   44.7710   35.0710   43.2640 C   0  0  0  0  0  0  0  0  0  0  0  0
   45.6220   33.9810   43.3730 C   0  0  0  0  0  0  0  0  0  0  0  0
   45.9480   33.5390   44.6040 N   0  0  0  0  0  0  0  0  0  0  0  0
   45.4820   34.1090   45.7260 C   0  0  0  0  0  0  0  0  0  0  0  0
   44.6410   35.1840   45.6790 N   0  0  0  0  0  0  0  0  0  0  0  0
   43.6230   36.5080   44.5100 H   0  0  0  0  0  0  0  0  0  0  0  0
   45.9590   33.5730   42.4310 H   0  0  0  0  0  0  0  0  0  0  0  0
   45.7790   33.7090   46.6870 H   0  0  0  0  0  0  0  0  0  0  0  0
   42.0810   35.5630   40.9220 C   0  0  1  0  0  3  0  0  0  0  0  0
   43.3340   34.8320   41.2550 C   0  0  2  0  0  3  0  0  0  0  0  0
   43.1910   33.5920   41.7770 O   0  0  0  0  0  0  0  0  0  0  0  0
   42.1980   32.8070   41.3290 C   0  0  0  0  0  2  0  0  0  0  0  0
   40.8860   33.4090   41.0010 C   0  0  1  0  0  3  0  0  0  0  0  0
   41.0340   34.7210   40.2630 C   0  0  1  0  0  3  0  0  0  0  0  0
   41.5570   36.0180   42.1490 O   0  0  0  0  0  0  0  0  0  0  0  0
   40.8780   36.7140   42.0120 H   0  0  0  0  0  0  0  0  0  0  0  0
   40.2050   32.5390   40.1460 O   0  0  0  0  0  0  0  0  0  0  0  0
   39.7030   31.8540   40.6260 H   0  0  0  0  0  0  0  0  0  0  0  0
   39.7840   35.3090   40.2640 O   0  0  0  0  0  0  0  0  0  0  0  0
   39.1450   34.8750   40.8490 H   0  0  0  0  0  0  0  0  0  0  0  0
  1  3  1  0  0  0  0
  1  5  1  0  0  0  0
  2  1  1  0  0  0  0
  4 10  1  0  0  0  0
  4  9  1  0  0  0  0
  5  6  1  0  0  0  0
  5  4  2  0  0  0  0
  6  7  2  0  0  0  0
  7  8  1  0  0  0  0
  8 12  1  0  0  0  0
  9  8  2  0  0  0  0
 11  6  1  0  0  0  0
 13 14  1  0  0  0  0
 13 19  1  1  0  0  0
 14 15  1  0  0  0  0
 14  1  1  1  0  0  0
 16 15  1  0  0  0  0
 17 21  1  6  0  0  0
 17 16  1  0  0  0  0
 18 23  1  1  0  0  0
 18 13  1  0  0  0  0
 18 17  1  0  0  0  0
 20 19  1  0  0  0  0
 21 22  1  0  0  0  0
 23 24  1  0  0  0  0
M  END
>  <minimizedAffinity>
-4.76447296

>  <minimizedRMSD>
1.48996711

$$$$
