
 OpenBabel03242511333D

 38 40  0  0  1  0  0  0  0  0999 V2000
   49.7240   32.7160   41.5620 C   0  0  0  0  0  0  0  0  0  0  0  0
   51.0700   32.3640   41.7490 C   0  0  0  0  0  0  0  0  0  0  0  0
   51.7670   31.7280   40.7210 C   0  0  0  0  0  0  0  0  0  0  0  0
   51.0860   31.4830   39.5750 N   0  0  0  0  0  0  0  0  0  0  0  0
   49.7990   31.8330   39.4250 C   0  0  0  0  0  0  0  0  0  0  0  0
   49.1420   32.4370   40.4060 N   0  0  0  0  0  0  0  0  0  0  0  0
   51.6370   32.5530   42.6700 H   0  0  0  0  0  0  0  0  0  0  0  0
   52.8060   31.4410   40.8310 H   0  0  0  0  0  0  0  0  0  0  0  0
   49.4850   32.5160   37.0730 C   0  0  2  0  0  0  0  0  0  0  0  0
   49.1390   31.5130   38.1090 C   0  0  2  0  0  0  0  0  0  0  0  0
   47.8250   31.2780   38.3620 O   0  0  0  0  0  0  0  0  0  0  0  0
   46.9180   31.7860   37.4580 C   0  0  0  0  0  0  0  0  0  0  0  0
   47.1260   33.3020   37.4500 C   0  0  1  0  0  0  0  0  0  0  0  0
   48.4460   33.5480   36.7780 C   0  0  2  0  0  0  0  0  0  0  0  0
   49.9320   31.9040   35.8930 O   0  0  0  0  0  0  0  0  0  0  0  0
   50.9180   31.8820   35.8290 H   0  0  0  0  0  0  0  0  0  0  0  0
   46.0810   33.9000   36.7650 O   0  0  0  0  0  0  0  0  0  0  0  0
   45.8940   34.8080   37.1120 H   0  0  0  0  0  0  0  0  0  0  0  0
   48.2080   33.5670   35.4030 O   0  0  0  0  0  0  0  0  0  0  0  0
   48.5030   32.7680   34.9300 H   0  0  0  0  0  0  0  0  0  0  0  0
   49.0670   33.3780   42.6860 C   0  0  0  0  0  0  0  0  0  0  0  0
   47.8570   33.0020   43.0360 C   0  0  0  0  0  0  0  0  0  0  0  0
   47.1270   33.6210   44.1600 C   0  0  0  0  0  0  0  0  0  0  0  0
   46.8580   32.8260   44.8930 H   0  0  0  0  0  0  0  0  0  0  0  0
   47.7200   34.3700   44.7040 H   0  0  0  0  0  0  0  0  0  0  0  0
   44.7300   36.2450   43.4620 C   0  0  1  0  0  0  0  0  0  0  0  0
   45.9140   35.4460   42.8980 C   0  0  0  0  0  0  0  0  0  0  0  0
   45.7810   34.1870   43.6770 C   0  0  2  0  0  0  0  0  0  0  0  0
   44.9050   34.3780   44.7110 O   0  0  0  0  0  0  0  0  0  0  0  0
   44.6970   35.7310   44.8870 C   0  0  0  0  0  0  0  0  0  0  0  0
   43.7960   35.9710   42.9390 H   0  0  0  0  0  0  0  0  0  0  0  0
   46.8300   36.0120   43.1450 H   0  0  0  0  0  0  0  0  0  0  0  0
   45.7700   35.3240   41.8080 H   0  0  0  0  0  0  0  0  0  0  0  0
   45.3720   33.4130   42.9840 H   0  0  0  0  0  0  0  0  0  0  0  0
   43.6520   35.8590   45.2610 H   0  0  0  0  0  0  0  0  0  0  0  0
   45.4250   36.2190   45.5340 H   0  0  0  0  0  0  0  0  0  0  0  0
   44.9950   37.6040   43.3840 O   0  0  0  0  0  0  0  0  0  0  0  0
   44.8890   37.9580   44.3180 H   0  0  0  0  0  0  0  0  0  0  0  0
  1  2  1  0  0  0  0
  1 21  1  0  0  0  0
  2  7  1  0  0  0  0
  3  8  1  0  0  0  0
  3  2  2  0  0  0  0
  4  3  1  0  0  0  0
  5  4  2  0  0  0  0
  5  6  1  0  0  0  0
  6  1  2  0  0  0  0
  9 15  1  6  0  0  0
  9 10  1  0  0  0  0
 10 11  1  0  0  0  0
 10  5  1  1  0  0  0
 12 11  1  0  0  0  0
 13 17  1  6  0  0  0
 13 12  1  0  0  0  0
 14 19  1  6  0  0  0
 14  9  1  0  0  0  0
 14 13  1  0  0  0  0
 16 15  1  0  0  0  0
 17 18  1  0  0  0  0
 20 19  1  0  0  0  0
 21 22  2  0  0  0  0
 22 23  1  0  0  0  0
 23 25  1  0  0  0  0
 23 24  1  0  0  0  0
 26 31  1  6  0  0  0
 26 30  1  0  0  0  0
 27 32  1  0  0  0  0
 27 26  1  0  0  0  0
 27 28  1  0  0  0  0
 28 34  1  6  0  0  0
 28 23  1  0  0  0  0
 28 29  1  0  0  0  0
 29 30  1  0  0  0  0
 30 35  1  0  0  0  0
 30 36  1  0  0  0  0
 33 27  1  0  0  0  0
 37 26  1  0  0  0  0
 37 38  1  0  0  0  0
M  END
>  <minimizedAffinity>
-6.30207586

>  <minimizedRMSD>
0.463061213

$$$$
