
 OpenBabel03252503133D

 37 40  0  0  1  0  0  0  0  0999 V2000
   46.1440   34.0390   40.5700 C   0  0  0  0  0  0  0  0  0  0  0  0
   44.8330   34.1230   40.1530 C   0  0  0  0  0  0  0  0  0  0  0  0
   44.7310   33.2870   39.1040 N   0  0  0  0  0  0  0  0  0  0  0  0
   45.9550   32.7060   38.8880 C   0  0  0  0  0  0  0  0  0  0  0  0
   46.8280   33.1740   39.7970 N   0  0  0  0  0  0  0  0  0  0  0  0
   44.0600   34.7420   40.5950 H   0  0  0  0  0  0  0  0  0  0  0  0
   43.9050   33.0820   38.5310 H   0  0  0  0  0  0  0  0  0  0  0  0
   45.2660   30.9390   37.2980 C   0  0  1  0  0  3  0  0  0  0  0  0
   46.3910   31.7150   37.8660 C   0  0  1  0  0  3  0  0  0  0  0  0
   47.2190   32.3420   36.9710 O   0  0  0  0  0  0  0  0  0  0  0  0
   46.8090   32.3710   35.6600 C   0  0  0  0  0  2  0  0  0  0  0  0
   45.3590   32.7610   35.5630 C   0  0  2  0  0  3  0  0  0  0  0  0
   44.5720   31.5900   36.1300 C   0  0  1  0  0  3  0  0  0  0  0  0
   45.6710   29.6170   36.9970 O   0  0  0  0  0  0  0  0  0  0  0  0
   46.5580   29.4090   37.3660 H   0  0  0  0  0  0  0  0  0  0  0  0
   45.0580   32.8460   34.1870 O   0  0  0  0  0  0  0  0  0  0  0  0
   44.1530   32.4410   34.0110 H   0  0  0  0  0  0  0  0  0  0  0  0
   44.5080   30.6440   35.1080 O   0  0  0  0  0  0  0  0  0  0  0  0
   43.6280   30.2520   34.9760 H   0  0  0  0  0  0  0  0  0  0  0  0
   46.7640   34.7860   41.7170 C   0  0  0  0  0  0  0  0  0  0  0  0
   47.9290   35.2820   41.6810 O   0  0  0  0  0  0  0  0  0  0  0  0
   45.4000   36.1850   43.1830 C   0  0  0  0  0  0  0  0  0  0  0  0
   46.0390   34.9680   42.9240 C   0  0  0  0  0  0  0  0  0  0  0  0
   45.8990   33.9980   43.9190 C   0  0  0  0  0  0  0  0  0  0  0  0
   45.2020   34.2260   45.0400 N   0  0  0  0  0  0  0  0  0  0  0  0
   44.5990   35.4320   45.2410 C   0  0  0  0  0  0  0  0  0  0  0  0
   44.7000   36.3970   44.3180 N   0  0  0  0  0  0  0  0  0  0  0  0
   45.4680   36.9880   42.4470 H   0  0  0  0  0  0  0  0  0  0  0  0
   44.0430   35.5820   46.1590 H   0  0  0  0  0  0  0  0  0  0  0  0
   46.5150   32.7510   43.7360 C   0  0  0  0  0  0  0  0  0  0  0  0
   47.7890   32.2830   43.9050 C   0  0  0  0  0  0  0  0  0  0  0  0
   48.1200   31.0210   43.6490 C   0  0  0  0  0  0  0  0  0  0  0  0
   47.1330   30.1930   43.2050 C   0  0  0  0  0  0  0  0  0  0  0  0
   45.6590   31.3110   43.1600 S   0  0  0  0  0  0  0  0  0  0  0  0
   48.5190   33.0350   44.2710 H   0  0  0  0  0  0  0  0  0  0  0  0
   49.1030   30.5810   43.7590 H   0  0  0  0  0  0  0  0  0  0  0  0
   47.1120   29.1540   42.9260 H   0  0  0  0  0  0  0  0  0  0  0  0
  1 20  1  0  0  0  0
  2  1  2  0  0  0  0
  2  6  1  0  0  0  0
  3  2  1  0  0  0  0
  4  3  1  0  0  0  0
  4  5  2  0  0  0  0
  5  1  1  0  0  0  0
  7  3  1  0  0  0  0
  8 14  1  6  0  0  0
  8  9  1  0  0  0  0
  9  4  1  1  0  0  0
 10  9  1  0  0  0  0
 11 10  1  0  0  0  0
 12 16  1  6  0  0  0
 12 11  1  0  0  0  0
 12 13  1  0  0  0  0
 13 18  1  6  0  0  0
 13  8  1  0  0  0  0
 14 15  1  0  0  0  0
 17 16  1  0  0  0  0
 19 18  1  0  0  0  0
 20 23  1  0  0  0  0
 21 20  2  0  0  0  0
 22 27  1  0  0  0  0
 23 22  2  0  0  0  0
 23 24  1  0  0  0  0
 24 25  2  0  0  0  0
 25 26  1  0  0  0  0
 26 29  1  0  0  0  0
 27 26  2  0  0  0  0
 28 22  1  0  0  0  0
 30 31  2  0  0  0  0
 30 24  1  0  0  0  0
 31 35  1  0  0  0  0
 32 36  1  0  0  0  0
 32 31  1  0  0  0  0
 33 32  2  0  0  0  0
 34 33  1  0  0  0  0
 34 30  1  0  0  0  0
 37 33  1  0  0  0  0
M  END
>  <minimizedAffinity>
-5.66373158

>  <minimizedRMSD>
0.744469106

$$$$
