
 OpenBabel03252503423D

 24 25  0  0  1  0  0  0  0  0999 V2000
   37.7020   26.3380   40.5450 C   0  0  0  0  0  0  0  0  0  0  0  0
   37.1680   26.0990   41.8010 C   0  0  0  0  0  0  0  0  0  0  0  0
   36.8280   27.1860   42.5950 C   0  0  0  0  0  0  0  0  0  0  0  0
   37.0320   28.4260   42.1080 N   0  0  0  0  0  0  0  0  0  0  0  0
   37.5560   28.6390   40.8740 C   0  0  0  0  0  0  0  0  0  0  0  0
   37.8990   27.6000   40.0730 N   0  0  0  0  0  0  0  0  0  0  0  0
   37.9800   25.5180   39.8940 H   0  0  0  0  0  0  0  0  0  0  0  0
   36.4140   26.9700   43.5700 H   0  0  0  0  0  0  0  0  0  0  0  0
   36.4530   30.6840   39.9530 C   0  0  2  0  0  3  0  0  0  0  0  0
   37.7550   30.0090   40.3990 C   0  0  1  0  0  3  0  0  0  0  0  0
   38.2520   30.8730   41.3810 O   0  0  0  0  0  0  0  0  0  0  0  0
   38.8590   31.9130   40.7060 C   0  0  0  0  0  2  0  0  0  0  0  0
   37.9760   32.6650   39.7600 C   0  0  1  0  0  3  0  0  0  0  0  0
   36.9240   31.8490   39.0820 C   0  0  1  0  0  3  0  0  0  0  0  0
   35.8120   31.1860   41.1000 O   0  0  0  0  0  0  0  0  0  0  0  0
   34.9050   30.7950   41.1860 H   0  0  0  0  0  0  0  0  0  0  0  0
   37.3580   33.7030   40.4530 O   0  0  0  0  0  0  0  0  0  0  0  0
   38.0530   34.3370   40.7610 H   0  0  0  0  0  0  0  0  0  0  0  0
   37.4850   31.2760   37.9380 O   0  0  0  0  0  0  0  0  0  0  0  0
   38.3850   31.6080   37.7580 H   0  0  0  0  0  0  0  0  0  0  0  0
   37.0070   24.6730   42.1880 C   0  0  0  0  0  0  0  0  0  0  0  0
   36.0210   24.3410   41.8040 H   0  0  0  0  0  0  0  0  0  0  0  0
   37.0120   24.6550   43.3090 H   0  0  0  0  0  0  0  0  0  0  0  0
   37.8540   24.1100   41.7990 H   0  0  0  0  0  0  0  0  0  0  0  0
  1  2  1  0  0  0  0
  2 21  1  0  0  0  0
  2  3  2  0  0  0  0
  3  8  1  0  0  0  0
  4  3  1  0  0  0  0
  5  4  2  0  0  0  0
  6  1  2  0  0  0  0
  6  5  1  0  0  0  0
  7  1  1  0  0  0  0
  9 10  1  0  0  0  0
  9 15  1  1  0  0  0
 10  5  1  1  0  0  0
 10 11  1  0  0  0  0
 12 11  1  0  0  0  0
 13 17  1  1  0  0  0
 13 12  1  0  0  0  0
 14 19  1  6  0  0  0
 14 13  1  0  0  0  0
 14  9  1  0  0  0  0
 15 16  1  0  0  0  0
 17 18  1  0  0  0  0
 20 19  1  0  0  0  0
 21 23  1  0  0  0  0
 22 21  1  0  0  0  0
 24 21  1  0  0  0  0
M  END
>  <minimizedAffinity>
-5.41282558

$$$$

 OpenBabel03252503423D

 24 25  0  0  1  0  0  0  0  0999 V2000
   38.1030   29.3630   40.0230 C   0  0  0  0  0  0  0  0  0  0  0  0
   37.0030   30.1170   40.4010 C   0  0  0  0  0  0  0  0  0  0  0  0
   37.0710   31.4980   40.2740 C   0  0  0  0  0  0  0  0  0  0  0  0
   38.2030   32.0440   39.7880 N   0  0  0  0  0  0  0  0  0  0  0  0
   39.2690   31.2870   39.4230 C   0  0  0  0  0  0  0  0  0  0  0  0
   39.2360   29.9360   39.5340 N   0  0  0  0  0  0  0  0  0  0  0  0
   38.0910   28.2830   40.1060 H   0  0  0  0  0  0  0  0  0  0  0  0
   36.1990   32.0610   40.5780 H   0  0  0  0  0  0  0  0  0  0  0  0
   40.7940   31.5340   37.4570 C   0  0  2  0  0  3  0  0  0  0  0  0
   40.4720   31.9370   38.9010 C   0  0  1  0  0  3  0  0  0  0  0  0
   40.3700   33.3310   38.8370 O   0  0  0  0  0  0  0  0  0  0  0  0
   41.6640   33.8120   38.8430 C   0  0  0  0  0  2  0  0  0  0  0  0
   42.5390   33.3100   37.7370 C   0  0  1  0  0  3  0  0  0  0  0  0
   42.2660   31.9110   37.2900 C   0  0  1  0  0  3  0  0  0  0  0  0
   40.0080   32.3260   36.6020 O   0  0  0  0  0  0  0  0  0  0  0  0
   39.4390   31.7530   36.0280 H   0  0  0  0  0  0  0  0  0  0  0  0
   42.4110   34.1610   36.6420 O   0  0  0  0  0  0  0  0  0  0  0  0
   42.7530   35.0550   36.8940 H   0  0  0  0  0  0  0  0  0  0  0  0
   42.9850   31.0410   38.1140 O   0  0  0  0  0  0  0  0  0  0  0  0
   43.5900   31.5130   38.7180 H   0  0  0  0  0  0  0  0  0  0  0  0
   35.8320   29.3610   40.9190 C   0  0  0  0  0  0  0  0  0  0  0  0
   35.2200   29.0710   40.0410 H   0  0  0  0  0  0  0  0  0  0  0  0
   35.2650   30.0780   41.5680 H   0  0  0  0  0  0  0  0  0  0  0  0
   36.1940   28.5230   41.5110 H   0  0  0  0  0  0  0  0  0  0  0  0
  1  7  1  0  0  0  0
  1  2  1  0  0  0  0
  2 21  1  0  0  0  0
  3  2  2  0  0  0  0
  3  8  1  0  0  0  0
  4  3  1  0  0  0  0
  5  6  1  0  0  0  0
  5  4  2  0  0  0  0
  6  1  2  0  0  0  0
  9 15  1  6  0  0  0
  9 10  1  0  0  0  0
 10  5  1  6  0  0  0
 11 12  1  0  0  0  0
 11 10  1  0  0  0  0
 13 17  1  6  0  0  0
 13 12  1  0  0  0  0
 14  9  1  0  0  0  0
 14 13  1  0  0  0  0
 14 19  1  1  0  0  0
 16 15  1  0  0  0  0
 17 18  1  0  0  0  0
 19 20  1  0  0  0  0
 21 24  1  0  0  0  0
 21 23  1  0  0  0  0
 22 21  1  0  0  0  0
M  END
>  <minimizedAffinity>
-5.10877991

$$$$

 OpenBabel03252503423D

 24 25  0  0  1  0  0  0  0  0999 V2000
   40.7430   31.8440   39.6470 C   0  0  0  0  0  0  0  0  0  0  0  0
   40.5620   33.0790   40.2480 C   0  0  0  0  0  0  0  0  0  0  0  0
   39.3030   33.3980   40.7390 C   0  0  0  0  0  0  0  0  0  0  0  0
   38.3130   32.4920   40.6100 N   0  0  0  0  0  0  0  0  0  0  0  0
   38.5120   31.2870   40.0180 C   0  0  0  0  0  0  0  0  0  0  0  0
   39.7290   30.9440   39.5280 N   0  0  0  0  0  0  0  0  0  0  0  0
   41.7090   31.5550   39.2500 H   0  0  0  0  0  0  0  0  0  0  0  0
   39.1900   34.3690   41.2020 H   0  0  0  0  0  0  0  0  0  0  0  0
   36.6480   30.1430   41.2270 C   0  0  2  0  0  3  0  0  0  0  0  0
   37.3990   30.3440   39.9060 C   0  0  1  0  0  3  0  0  0  0  0  0
   36.3990   30.7630   39.0210 O   0  0  0  0  0  0  0  0  0  0  0  0
   35.7300   29.6210   38.6280 C   0  0  0  0  0  2  0  0  0  0  0  0
   35.1290   28.8170   39.7390 C   0  0  1  0  0  3  0  0  0  0  0  0
   35.8920   28.8300   41.0240 C   0  0  1  0  0  3  0  0  0  0  0  0
   35.7270   31.1970   41.3650 O   0  0  0  0  0  0  0  0  0  0  0  0
   35.8990   31.6970   42.2030 H   0  0  0  0  0  0  0  0  0  0  0  0
   33.8390   29.2820   39.9820 O   0  0  0  0  0  0  0  0  0  0  0  0
   33.2860   29.1180   39.1770 H   0  0  0  0  0  0  0  0  0  0  0  0
   36.8640   27.8280   40.9640 O   0  0  0  0  0  0  0  0  0  0  0  0
   36.7730   27.2670   40.1700 H   0  0  0  0  0  0  0  0  0  0  0  0
   41.7550   33.9630   40.3110 C   0  0  0  0  0  0  0  0  0  0  0  0
   42.3090   33.6960   41.2320 H   0  0  0  0  0  0  0  0  0  0  0  0
   41.3590   35.0100   40.3860 H   0  0  0  0  0  0  0  0  0  0  0  0
   42.3250   33.8420   39.3910 H   0  0  0  0  0  0  0  0  0  0  0  0
  1  2  1  0  0  0  0
  2 21  1  0  0  0  0
  2  3  2  0  0  0  0
  3  8  1  0  0  0  0
  4  3  1  0  0  0  0
  5  4  2  0  0  0  0
  6  1  2  0  0  0  0
  6  5  1  0  0  0  0
  7  1  1  0  0  0  0
  9 15  1  6  0  0  0
 10  5  1  1  0  0  0
 10  9  1  0  0  0  0
 11 10  1  0  0  0  0
 12 11  1  0  0  0  0
 12 13  1  0  0  0  0
 13 17  1  1  0  0  0
 13 14  1  0  0  0  0
 14 19  1  6  0  0  0
 14  9  1  0  0  0  0
 15 16  1  0  0  0  0
 18 17  1  0  0  0  0
 20 19  1  0  0  0  0
 21 23  1  0  0  0  0
 21 22  1  0  0  0  0
 24 21  1  0  0  0  0
M  END
>  <minimizedAffinity>
-5.01387835

$$$$

 OpenBabel03252503423D

 24 25  0  0  1  0  0  0  0  0999 V2000
   38.6110   25.6990   41.4700 C   0  0  0  0  0  0  0  0  0  0  0  0
   39.2490   25.8690   42.6880 C   0  0  0  0  0  0  0  0  0  0  0  0
   39.3120   27.1460   43.2310 C   0  0  0  0  0  0  0  0  0  0  0  0
   38.7480   28.1630   42.5490 N   0  0  0  0  0  0  0  0  0  0  0  0
   38.1270   27.9740   41.3560 C   0  0  0  0  0  0  0  0  0  0  0  0
   38.0480   26.7400   40.7990 N   0  0  0  0  0  0  0  0  0  0  0  0
   38.5390   24.7200   41.0120 H   0  0  0  0  0  0  0  0  0  0  0  0
   39.8170   27.2500   44.1810 H   0  0  0  0  0  0  0  0  0  0  0  0
   37.9060   30.4630   41.2930 C   0  0  2  0  0  3  0  0  0  0  0  0
   37.5330   29.1170   40.6620 C   0  0  1  0  0  3  0  0  0  0  0  0
   37.9600   29.2470   39.3360 O   0  0  0  0  0  0  0  0  0  0  0  0
   36.9860   29.9790   38.6870 C   0  0  0  0  0  2  0  0  0  0  0  0
   36.7040   31.3280   39.2710 C   0  0  1  0  0  3  0  0  0  0  0  0
   36.8470   31.4260   40.7550 C   0  0  1  0  0  3  0  0  0  0  0  0
   39.1700   30.8350   40.8010 O   0  0  0  0  0  0  0  0  0  0  0  0
   39.8070   30.9590   41.5500 H   0  0  0  0  0  0  0  0  0  0  0  0
   37.5540   32.2590   38.6790 O   0  0  0  0  0  0  0  0  0  0  0  0
   37.3400   32.3140   37.7130 H   0  0  0  0  0  0  0  0  0  0  0  0
   35.6380   31.0380   41.3370 O   0  0  0  0  0  0  0  0  0  0  0  0
   34.9330   30.8980   40.6760 H   0  0  0  0  0  0  0  0  0  0  0  0
   39.8190   24.6460   43.3110 C   0  0  0  0  0  0  0  0  0  0  0  0
   39.0090   24.1750   43.9030 H   0  0  0  0  0  0  0  0  0  0  0  0
   40.6400   24.9980   43.9890 H   0  0  0  0  0  0  0  0  0  0  0  0
   40.2270   24.0140   42.5240 H   0  0  0  0  0  0  0  0  0  0  0  0
  1  2  1  0  0  0  0
  2  3  2  0  0  0  0
  2 21  1  0  0  0  0
  3  8  1  0  0  0  0
  4  3  1  0  0  0  0
  5  4  2  0  0  0  0
  6  5  1  0  0  0  0
  6  1  2  0  0  0  0
  7  1  1  0  0  0  0
  9 15  1  6  0  0  0
 10  9  1  0  0  0  0
 10  5  1  1  0  0  0
 11 10  1  0  0  0  0
 12 13  1  0  0  0  0
 12 11  1  0  0  0  0
 13 17  1  6  0  0  0
 13 14  1  0  0  0  0
 14  9  1  0  0  0  0
 14 19  1  1  0  0  0
 15 16  1  0  0  0  0
 18 17  1  0  0  0  0
 20 19  1  0  0  0  0
 21 22  1  0  0  0  0
 21 23  1  0  0  0  0
 24 21  1  0  0  0  0
M  END
>  <minimizedAffinity>
-4.80704451

$$$$

 OpenBabel03252503423D

 24 25  0  0  1  0  0  0  0  0999 V2000
   37.7440   26.6140   40.7630 C   0  0  0  0  0  0  0  0  0  0  0  0
   37.1570   26.2470   41.9630 C   0  0  0  0  0  0  0  0  0  0  0  0
   36.8720   27.2390   42.8910 C   0  0  0  0  0  0  0  0  0  0  0  0
   37.1770   28.5150   42.5830 N   0  0  0  0  0  0  0  0  0  0  0  0
   37.7520   28.8530   41.4010 C   0  0  0  0  0  0  0  0  0  0  0  0
   38.0440   27.9090   40.4730 N   0  0  0  0  0  0  0  0  0  0  0  0
   37.9830   25.8710   40.0110 H   0  0  0  0  0  0  0  0  0  0  0  0
   36.4150   26.9240   43.8200 H   0  0  0  0  0  0  0  0  0  0  0  0
   39.4680   30.4580   40.5460 C   0  0  2  0  0  3  0  0  0  0  0  0
   38.0610   30.2560   41.1220 C   0  0  1  0  0  3  0  0  0  0  0  0
   37.2270   30.8300   40.1560 O   0  0  0  0  0  0  0  0  0  0  0  0
   37.2710   32.1930   40.3700 C   0  0  0  0  0  2  0  0  0  0  0  0
   38.6330   32.8080   40.3020 C   0  0  1  0  0  3  0  0  0  0  0  0
   39.7520   31.9410   40.7830 C   0  0  1  0  0  3  0  0  0  0  0  0
   39.4090   30.2070   39.1640 O   0  0  0  0  0  0  0  0  0  0  0  0
   40.0370   29.4800   38.9190 H   0  0  0  0  0  0  0  0  0  0  0  0
   38.8920   33.1810   38.9850 O   0  0  0  0  0  0  0  0  0  0  0  0
   38.2470   33.8840   38.7220 H   0  0  0  0  0  0  0  0  0  0  0  0
   39.8640   32.1000   42.1660 O   0  0  0  0  0  0  0  0  0  0  0  0
   39.2850   32.8070   42.5090 H   0  0  0  0  0  0  0  0  0  0  0  0
   36.8840   24.7970   42.1480 C   0  0  0  0  0  0  0  0  0  0  0  0
   35.8890   24.5950   41.7030 H   0  0  0  0  0  0  0  0  0  0  0  0
   36.8550   24.6280   43.2560 H   0  0  0  0  0  0  0  0  0  0  0  0
   37.7000   24.2310   41.7030 H   0  0  0  0  0  0  0  0  0  0  0  0
  1  2  1  0  0  0  0
  2 21  1  0  0  0  0
  2  3  2  0  0  0  0
  3  8  1  0  0  0  0
  4  3  1  0  0  0  0
  5  4  2  0  0  0  0
  6  1  2  0  0  0  0
  6  5  1  0  0  0  0
  7  1  1  0  0  0  0
  9 15  1  6  0  0  0
  9 14  1  0  0  0  0
  9 10  1  0  0  0  0
 10  5  1  6  0  0  0
 11 12  1  0  0  0  0
 11 10  1  0  0  0  0
 13 17  1  6  0  0  0
 13 12  1  0  0  0  0
 13 14  1  0  0  0  0
 14 19  1  1  0  0  0
 16 15  1  0  0  0  0
 18 17  1  0  0  0  0
 19 20  1  0  0  0  0
 21 23  1  0  0  0  0
 22 21  1  0  0  0  0
 24 21  1  0  0  0  0
M  END
>  <minimizedAffinity>
-4.73686695

$$$$

 OpenBabel03252503423D

 24 25  0  0  1  0  0  0  0  0999 V2000
   40.1880   26.7360   42.0710 C   0  0  0  0  0  0  0  0  0  0  0  0
   39.1980   25.9290   42.6090 C   0  0  0  0  0  0  0  0  0  0  0  0
   37.8760   26.3390   42.5020 C   0  0  0  0  0  0  0  0  0  0  0  0
   37.6140   27.5050   41.8770 N   0  0  0  0  0  0  0  0  0  0  0  0
   38.5990   28.2810   41.3570 C   0  0  0  0  0  0  0  0  0  0  0  0
   39.8990   27.9090   41.4450 N   0  0  0  0  0  0  0  0  0  0  0  0
   41.2310   26.4520   42.1330 H   0  0  0  0  0  0  0  0  0  0  0  0
   37.1250   25.6910   42.9310 H   0  0  0  0  0  0  0  0  0  0  0  0
   36.7410   29.7410   40.5390 C   0  0  2  0  0  3  0  0  0  0  0  0
   38.2530   29.5370   40.6900 C   0  0  1  0  0  3  0  0  0  0  0  0
   38.6680   30.6740   41.3920 O   0  0  0  0  0  0  0  0  0  0  0  0
   38.7560   31.6900   40.4620 C   0  0  0  0  0  2  0  0  0  0  0  0
   37.4950   31.9830   39.7110 C   0  0  1  0  0  3  0  0  0  0  0  0
   36.6210   30.8000   39.4440 C   0  0  1  0  0  3  0  0  0  0  0  0
   36.2520   30.2620   41.7500 O   0  0  0  0  0  0  0  0  0  0  0  0
   35.5540   29.6650   42.1240 H   0  0  0  0  0  0  0  0  0  0  0  0
   36.7600   32.9290   40.4200 O   0  0  0  0  0  0  0  0  0  0  0  0
   37.2770   33.7730   40.4520 H   0  0  0  0  0  0  0  0  0  0  0  0
   37.0580   30.1920   38.2650 O   0  0  0  0  0  0  0  0  0  0  0  0
   37.7480   30.7120   37.8100 H   0  0  0  0  0  0  0  0  0  0  0  0
   39.6540   24.6750   43.2650 C   0  0  0  0  0  0  0  0  0  0  0  0
   39.7290   23.9030   42.4730 H   0  0  0  0  0  0  0  0  0  0  0  0
   38.8520   24.4010   43.9990 H   0  0  0  0  0  0  0  0  0  0  0  0
   40.5880   24.8760   43.7870 H   0  0  0  0  0  0  0  0  0  0  0  0
  1  7  1  0  0  0  0
  1  2  1  0  0  0  0
  2 21  1  0  0  0  0
  3  2  2  0  0  0  0
  3  8  1  0  0  0  0
  4  3  1  0  0  0  0
  5  6  1  0  0  0  0
  5  4  2  0  0  0  0
  6  1  2  0  0  0  0
  9 10  1  0  0  0  0
  9 15  1  1  0  0  0
 10  5  1  1  0  0  0
 10 11  1  0  0  0  0
 12 11  1  0  0  0  0
 13 17  1  1  0  0  0
 13 12  1  0  0  0  0
 14 19  1  6  0  0  0
 14 13  1  0  0  0  0
 14  9  1  0  0  0  0
 15 16  1  0  0  0  0
 17 18  1  0  0  0  0
 20 19  1  0  0  0  0
 21 24  1  0  0  0  0
 21 23  1  0  0  0  0
 22 21  1  0  0  0  0
M  END
>  <minimizedAffinity>
-4.73247051

$$$$

 OpenBabel03252503423D

 24 25  0  0  1  0  0  0  0  0999 V2000
   36.9900   27.7320   38.9290 C   0  0  0  0  0  0  0  0  0  0  0  0
   35.8570   27.9860   38.1710 C   0  0  0  0  0  0  0  0  0  0  0  0
   35.5150   29.3060   37.9140 C   0  0  0  0  0  0  0  0  0  0  0  0
   36.3000   30.2830   38.4100 N   0  0  0  0  0  0  0  0  0  0  0  0
   37.4050   30.0130   39.1510 C   0  0  0  0  0  0  0  0  0  0  0  0
   37.7680   28.7350   39.4200 N   0  0  0  0  0  0  0  0  0  0  0  0
   37.2920   26.7170   39.1530 H   0  0  0  0  0  0  0  0  0  0  0  0
   34.6260   29.4750   37.3210 H   0  0  0  0  0  0  0  0  0  0  0  0
   37.6970   32.4940   39.2430 C   0  0  2  0  0  3  0  0  0  0  0  0
   38.2190   31.1150   39.6640 C   0  0  1  0  0  3  0  0  0  0  0  0
   38.2430   31.1870   41.0610 O   0  0  0  0  0  0  0  0  0  0  0  0
   39.3920   31.8780   41.3920 C   0  0  0  0  0  2  0  0  0  0  0  0
   39.5050   33.2500   40.8050 C   0  0  1  0  0  3  0  0  0  0  0  0
   38.8960   33.4190   39.4510 C   0  0  1  0  0  3  0  0  0  0  0  0
   36.6670   32.8550   40.1300 O   0  0  0  0  0  0  0  0  0  0  0  0
   35.8270   33.0210   39.6310 H   0  0  0  0  0  0  0  0  0  0  0  0
   38.9130   34.1610   41.6770 O   0  0  0  0  0  0  0  0  0  0  0  0
   39.4260   34.1680   42.5240 H   0  0  0  0  0  0  0  0  0  0  0  0
   39.8450   33.0460   38.4950 O   0  0  0  0  0  0  0  0  0  0  0  0
   40.7210   32.8680   38.8890 H   0  0  0  0  0  0  0  0  0  0  0  0
   35.1010   26.7970   37.6980 C   0  0  0  0  0  0  0  0  0  0  0  0
   35.5610   26.4790   36.7410 H   0  0  0  0  0  0  0  0  0  0  0  0
   34.0500   27.1490   37.5250 H   0  0  0  0  0  0  0  0  0  0  0  0
   35.1190   26.0400   38.4800 H   0  0  0  0  0  0  0  0  0  0  0  0
  1  7  1  0  0  0  0
  1  6  1  0  0  0  0
  2  1  2  0  0  0  0
  3  2  1  0  0  0  0
  3  4  2  0  0  0  0
  4  5  1  0  0  0  0
  5  6  2  0  0  0  0
  8  3  1  0  0  0  0
  9 14  1  0  0  0  0
  9 10  1  0  0  0  0
  9 15  1  1  0  0  0
 10  5  1  1  0  0  0
 10 11  1  0  0  0  0
 11 12  1  0  0  0  0
 13 12  1  0  0  0  0
 13 17  1  1  0  0  0
 14 19  1  6  0  0  0
 14 13  1  0  0  0  0
 16 15  1  0  0  0  0
 17 18  1  0  0  0  0
 19 20  1  0  0  0  0
 21  2  1  0  0  0  0
 21 24  1  0  0  0  0
 22 21  1  0  0  0  0
 23 21  1  0  0  0  0
M  END
>  <minimizedAffinity>
-4.7186327

$$$$

 OpenBabel03252503423D

 24 25  0  0  1  0  0  0  0  0999 V2000
   37.2440   27.8040   41.2820 C   0  0  0  0  0  0  0  0  0  0  0  0
   37.2280   28.1820   42.6150 C   0  0  0  0  0  0  0  0  0  0  0  0
   37.9270   29.3220   42.9900 C   0  0  0  0  0  0  0  0  0  0  0  0
   38.5900   30.0110   42.0400 N   0  0  0  0  0  0  0  0  0  0  0  0
   38.5930   29.6230   40.7390 C   0  0  0  0  0  0  0  0  0  0  0  0
   37.9210   28.5150   40.3400 N   0  0  0  0  0  0  0  0  0  0  0  0
   36.7120   26.9220   40.9480 H   0  0  0  0  0  0  0  0  0  0  0  0
   37.8970   29.5930   44.0360 H   0  0  0  0  0  0  0  0  0  0  0  0
   39.4270   29.7240   38.3840 C   0  0  2  0  0  3  0  0  0  0  0  0
   39.3320   30.4110   39.7510 C   0  0  1  0  0  3  0  0  0  0  0  0
   38.7320   31.6410   39.4570 O   0  0  0  0  0  0  0  0  0  0  0  0
   39.7350   32.4510   38.9640 C   0  0  0  0  0  2  0  0  0  0  0  0
   40.4470   31.9260   37.7570 C   0  0  1  0  0  3  0  0  0  0  0  0
   40.5890   30.4390   37.6940 C   0  0  1  0  0  3  0  0  0  0  0  0
   38.2360   29.9840   37.6850 O   0  0  0  0  0  0  0  0  0  0  0  0
   37.7890   29.1340   37.4390 H   0  0  0  0  0  0  0  0  0  0  0  0
   39.7740   32.3570   36.6170 O   0  0  0  0  0  0  0  0  0  0  0  0
   39.8270   33.3450   36.5730 H   0  0  0  0  0  0  0  0  0  0  0  0
   41.7410   30.0800   38.4000 O   0  0  0  0  0  0  0  0  0  0  0  0
   42.2620   30.8560   38.6820 H   0  0  0  0  0  0  0  0  0  0  0  0
   36.4490   27.3150   43.5370 C   0  0  0  0  0  0  0  0  0  0  0  0
   35.4000   27.6750   43.5140 H   0  0  0  0  0  0  0  0  0  0  0  0
   36.8910   27.4710   44.5560 H   0  0  0  0  0  0  0  0  0  0  0  0
   36.5750   26.2790   43.2280 H   0  0  0  0  0  0  0  0  0  0  0  0
  1  2  1  0  0  0  0
  2  3  2  0  0  0  0
  2 21  1  0  0  0  0
  3  8  1  0  0  0  0
  4  3  1  0  0  0  0
  5  4  2  0  0  0  0
  6  5  1  0  0  0  0
  6  1  2  0  0  0  0
  7  1  1  0  0  0  0
  9 15  1  6  0  0  0
  9 10  1  0  0  0  0
 10  5  1  1  0  0  0
 11 10  1  0  0  0  0
 12 11  1  0  0  0  0
 13 17  1  6  0  0  0
 13 12  1  0  0  0  0
 14 13  1  0  0  0  0
 14  9  1  0  0  0  0
 14 19  1  1  0  0  0
 16 15  1  0  0  0  0
 18 17  1  0  0  0  0
 19 20  1  0  0  0  0
 21 23  1  0  0  0  0
 22 21  1  0  0  0  0
 24 21  1  0  0  0  0
M  END
>  <minimizedAffinity>
-4.68427372

$$$$

 OpenBabel03252503423D

 24 25  0  0  1  0  0  0  0  0999 V2000
   40.5670   32.2800   38.0450 C   0  0  0  0  0  0  0  0  0  0  0  0
   41.1710   33.3850   38.6240 C   0  0  0  0  0  0  0  0  0  0  0  0
   40.8680   33.6900   39.9440 C   0  0  0  0  0  0  0  0  0  0  0  0
   40.0000   32.8970   40.6040 N   0  0  0  0  0  0  0  0  0  0  0  0
   39.4190   31.8190   40.0180 C   0  0  0  0  0  0  0  0  0  0  0  0
   39.6940   31.4940   38.7310 N   0  0  0  0  0  0  0  0  0  0  0  0
   40.7760   32.0070   37.0180 H   0  0  0  0  0  0  0  0  0  0  0  0
   41.3520   34.5580   40.3700 H   0  0  0  0  0  0  0  0  0  0  0  0
   37.4330   30.3050   39.9080 C   0  0  2  0  0  3  0  0  0  0  0  0
   38.4840   30.9950   40.7850 C   0  0  1  0  0  3  0  0  0  0  0  0
   39.0990   29.9320   41.4560 O   0  0  0  0  0  0  0  0  0  0  0  0
   38.2540   29.5920   42.4940 C   0  0  0  0  0  2  0  0  0  0  0  0
   36.8650   29.2080   42.0890 C   0  0  1  0  0  3  0  0  0  0  0  0
   36.3270   29.9240   40.8920 C   0  0  1  0  0  3  0  0  0  0  0  0
   38.0120   29.1380   39.3780 O   0  0  0  0  0  0  0  0  0  0  0  0
   37.9880   29.1610   38.3880 H   0  0  0  0  0  0  0  0  0  0  0  0
   36.8330   27.8380   41.8410 O   0  0  0  0  0  0  0  0  0  0  0  0
   37.0270   27.3590   42.6850 H   0  0  0  0  0  0  0  0  0  0  0  0
   35.7580   31.1260   41.3210 O   0  0  0  0  0  0  0  0  0  0  0  0
   35.7250   31.1970   42.2940 H   0  0  0  0  0  0  0  0  0  0  0  0
   42.1040   34.1550   37.7600 C   0  0  0  0  0  0  0  0  0  0  0  0
   43.0990   33.6760   37.8490 H   0  0  0  0  0  0  0  0  0  0  0  0
   42.1330   35.1920   38.1850 H   0  0  0  0  0  0  0  0  0  0  0  0
   41.7030   34.1750   36.7480 H   0  0  0  0  0  0  0  0  0  0  0  0
  1  2  2  0  0  0  0
  1  6  1  0  0  0  0
  2  3  1  0  0  0  0
  3  8  1  0  0  0  0
  3  4  2  0  0  0  0
  5  4  1  0  0  0  0
  6  5  2  0  0  0  0
  7  1  1  0  0  0  0
  9 15  1  1  0  0  0
  9 10  1  0  0  0  0
  9 14  1  0  0  0  0
 10  5  1  6  0  0  0
 10 11  1  0  0  0  0
 11 12  1  0  0  0  0
 13 17  1  6  0  0  0
 13 12  1  0  0  0  0
 14 19  1  1  0  0  0
 14 13  1  0  0  0  0
 16 15  1  0  0  0  0
 17 18  1  0  0  0  0
 19 20  1  0  0  0  0
 21 22  1  0  0  0  0
 21 23  1  0  0  0  0
 21  2  1  0  0  0  0
 24 21  1  0  0  0  0
M  END
>  <minimizedAffinity>
-4.67237806

$$$$
