
 OpenBabel03252506223D

 38 40  0  0  1  0  0  0  0  0999 V2000
   45.1270   35.7950   42.8950 C   0  0  0  0  0  0  0  0  0  0  0  0
   44.1660   35.5530   41.9110 C   0  0  0  0  0  0  0  0  0  0  0  0
   44.4490   34.5590   40.9580 C   0  0  0  0  0  0  0  0  0  0  0  0
   45.6280   33.8940   41.0400 N   0  0  0  0  0  0  0  0  0  0  0  0
   46.5240   34.1630   42.0080 C   0  0  0  0  0  0  0  0  0  0  0  0
   46.2870   35.1080   42.9400 N   0  0  0  0  0  0  0  0  0  0  0  0
   43.2370   36.1150   41.8910 H   0  0  0  0  0  0  0  0  0  0  0  0
   43.7210   34.3510   40.1830 H   0  0  0  0  0  0  0  0  0  0  0  0
   49.0210   35.7360   41.3160 Cl  0  0  0  0  0  0  0  0  0  0  0  0
   48.9640   34.0530   41.7070 C   0  0  0  0  0  0  0  0  0  0  0  0
   47.7850   33.3830   42.0160 C   0  0  0  0  0  0  0  0  0  0  0  0
   47.7220   32.0560   42.3260 C   0  0  0  0  0  0  0  0  0  0  0  0
   48.8890   31.3490   42.3310 C   0  0  0  0  0  0  0  0  0  0  0  0
   50.1150   31.9010   42.0420 C   0  0  0  0  0  0  0  0  0  0  0  0
   50.0960   33.2560   41.7360 C   0  0  0  0  0  0  0  0  0  0  0  0
   46.7770   31.5560   42.5660 H   0  0  0  0  0  0  0  0  0  0  0  0
   48.8560   30.2940   42.5750 H   0  0  0  0  0  0  0  0  0  0  0  0
   51.0680   31.3690   42.0360 H   0  0  0  0  0  0  0  0  0  0  0  0
   51.0500   33.7180   41.5040 H   0  0  0  0  0  0  0  0  0  0  0  0
   44.8600   36.8300   43.9100 C   0  0  0  0  0  3  0  0  0  0  0  0
   45.4490   37.9970   43.7740 C   0  0  0  0  0  3  0  0  0  0  0  0
   45.1950   39.0560   44.7860 C   0  0  0  0  0  0  0  0  0  0  0  0
   46.1460   39.2660   45.3560 H   0  0  0  0  0  0  0  0  0  0  0  0
   44.3870   38.7940   45.4750 H   0  0  0  0  0  0  0  0  0  0  0  0
   44.9040   40.2930   44.0610 N   0  0  0  0  0  0  0  0  0  0  0  0
   45.6580   40.5030   43.3750 H   0  0  0  0  0  0  0  0  0  0  0  0
   43.9900   42.4950   44.6420 C   0  0  2  0  0  3  0  0  0  0  0  0
   44.8910   41.3400   45.0650 C   0  0  1  0  0  3  0  0  0  0  0  0
   44.4380   40.8920   46.2900 O   0  0  0  0  0  0  0  0  0  0  0  0
   44.7520   41.8510   47.2400 C   0  0  0  0  0  2  0  0  0  0  0  0
   44.0100   43.1540   46.9960 C   0  0  1  0  0  3  0  0  0  0  0  0
   44.3010   43.6410   45.5940 C   0  0  1  0  0  3  0  0  0  0  0  0
   42.6480   42.2010   44.7370 O   0  0  0  0  0  0  0  0  0  0  0  0
   42.2560   41.7770   43.9340 H   0  0  0  0  0  0  0  0  0  0  0  0
   42.6560   42.9240   47.1130 O   0  0  0  0  0  0  0  0  0  0  0  0
   42.4070   41.9710   47.0580 H   0  0  0  0  0  0  0  0  0  0  0  0
   45.6850   43.8860   45.4660 O   0  0  0  0  0  0  0  0  0  0  0  0
   46.0880   44.2020   46.3150 H   0  0  0  0  0  0  0  0  0  0  0  0
  1  6  1  0  0  0  0
  1 20  1  0  0  0  0
  2  1  2  0  0  0  0
  3  4  2  0  0  0  0
  3  2  1  0  0  0  0
  4  5  1  0  0  0  0
  5 11  1  0  0  0  0
  5  6  2  0  0  0  0
  7  2  1  0  0  0  0
  8  3  1  0  0  0  0
  9 10  1  0  0  0  0
 10 15  2  0  0  0  0
 10 11  1  0  0  0  0
 11 12  2  0  0  0  0
 12 13  1  0  0  0  0
 12 16  1  0  0  0  0
 13 17  1  0  0  0  0
 14 13  2  0  0  0  0
 15 14  1  0  0  0  0
 18 14  1  0  0  0  0
 19 15  1  0  0  0  0
 21 20  2  0  0  0  0
 21 22  1  0  0  0  0
 22 23  1  0  0  0  0
 22 24  1  0  0  0  0
 25 22  1  0  0  0  0
 26 25  1  0  0  0  0
 27 33  1  1  0  0  0
 27 28  1  0  0  0  0
 27 32  1  0  0  0  0
 28 25  1  6  0  0  0
 28 29  1  0  0  0  0
 29 30  1  0  0  0  0
 31 35  1  6  0  0  0
 31 30  1  0  0  0  0
 32 37  1  1  0  0  0
 32 31  1  0  0  0  0
 34 33  1  0  0  0  0
 36 35  1  0  0  0  0
 37 38  1  0  0  0  0
M  END
>  <minimizedAffinity>
-2.0838697

>  <minimizedRMSD>
0.566112518

$$$$
