
 OpenBabel03252504333D

 43 45  0  0  1  0  0  0  0  0999 V2000
   42.2310   35.4500   40.6360 C   0  0  0  0  0  0  0  0  0  0  0  0
   41.9870   35.9340   41.6220 H   0  0  0  0  0  0  0  0  0  0  0  0
   41.8750   36.1710   39.8690 H   0  0  0  0  0  0  0  0  0  0  0  0
   40.2870   34.3120   41.5570 C   0  0  0  0  0  0  0  0  0  0  0  0
   41.3140   34.2670   40.5980 C   0  0  0  0  0  0  0  0  0  0  0  0
   41.3660   33.2100   39.7560 C   0  0  0  0  0  0  0  0  0  0  0  0
   40.4320   32.2860   39.9050 N   0  0  0  0  0  0  0  0  0  0  0  0
   39.4530   32.2970   40.7940 C   0  0  0  0  0  0  0  0  0  0  0  0
   39.3450   33.3620   41.6920 N   0  0  0  0  0  0  0  0  0  0  0  0
   40.1710   35.1190   42.2690 H   0  0  0  0  0  0  0  0  0  0  0  0
   42.1710   33.2160   39.0370 H   0  0  0  0  0  0  0  0  0  0  0  0
   38.8910   30.1200   41.7620 C   0  0  1  0  0  3  0  0  0  0  0  0
   38.4220   31.2260   40.9170 C   0  0  2  0  0  3  0  0  0  0  0  0
   37.9970   30.9370   39.6520 O   0  0  0  0  0  0  0  0  0  0  0  0
   37.7140   29.6310   39.3710 C   0  0  0  0  0  2  0  0  0  0  0  0
   39.0540   28.9090   39.5690 C   0  0  1  0  0  3  0  0  0  0  0  0
   39.1790   28.8190   41.0740 C   0  0  1  0  0  3  0  0  0  0  0  0
   40.0450   30.4340   42.5140 O   0  0  0  0  0  0  0  0  0  0  0  0
   40.8490   30.0310   42.1340 H   0  0  0  0  0  0  0  0  0  0  0  0
   38.9350   27.6650   38.9980 O   0  0  0  0  0  0  0  0  0  0  0  0
   38.3570   27.7290   38.1850 H   0  0  0  0  0  0  0  0  0  0  0  0
   40.4560   28.3210   41.3410 O   0  0  0  0  0  0  0  0  0  0  0  0
   40.4410   27.4230   41.7560 H   0  0  0  0  0  0  0  0  0  0  0  0
   43.5320   35.1440   40.3960 O   0  0  0  0  0  0  0  0  0  0  0  0
   44.5420   34.9050   41.3180 C   0  0  0  0  0  3  0  0  0  0  0  0
   44.4070   35.4990   42.5000 C   0  0  0  0  0  3  0  0  0  0  0  0
   45.3750   35.3860   43.6630 C   0  0  0  0  0  0  0  0  0  0  0  0
   46.3820   35.1450   43.2670 H   0  0  0  0  0  0  0  0  0  0  0  0
   45.4220   36.3220   44.2460 H   0  0  0  0  0  0  0  0  0  0  0  0
   44.9410   34.3410   44.4550 O   0  0  0  0  0  0  0  0  0  0  0  0
   45.7780   32.1540   43.1910 O   0  0  0  0  0  0  0  0  0  0  0  0
   46.0160   33.0440   44.3900 P   0  0  1  0  0  0  0  0  0  0  0  0
   47.6190   33.6150   44.2710 O   0  0  0  0  0  0  0  0  0  0  0  0
   47.6130   34.4510   44.8370 H   0  0  0  0  0  0  0  0  0  0  0  0
   45.9210   32.1390   45.8100 O   0  0  0  0  0  0  0  0  0  0  0  0
   46.2190   32.8860   46.9320 C   0  0  0  0  0  0  0  0  0  0  0  0
   47.1400   32.3080   47.9630 C   0  0  0  0  0  0  0  0  0  0  0  0
   45.6430   32.3740   48.2280 C   0  0  0  0  0  0  0  0  0  0  0  0
   46.2080   33.9820   46.7860 H   0  0  0  0  0  0  0  0  0  0  0  0
   47.5820   31.3250   47.6920 H   0  0  0  0  0  0  0  0  0  0  0  0
   47.7460   33.0480   48.5210 H   0  0  0  0  0  0  0  0  0  0  0  0
   45.2670   33.0930   48.9820 H   0  0  0  0  0  0  0  0  0  0  0  0
   45.1580   31.3770   48.2450 H   0  0  0  0  0  0  0  0  0  0  0  0
  1  2  1  0  0  0  0
  3  1  1  0  0  0  0
  4  9  1  0  0  0  0
  4 10  1  0  0  0  0
  5  1  1  0  0  0  0
  5  4  2  0  0  0  0
  6  7  2  0  0  0  0
  6  5  1  0  0  0  0
  7  8  1  0  0  0  0
  8  9  2  0  0  0  0
 11  6  1  0  0  0  0
 12 18  1  6  0  0  0
 13  8  1  6  0  0  0
 13 12  1  0  0  0  0
 14 13  1  0  0  0  0
 15 16  1  0  0  0  0
 15 14  1  0  0  0  0
 16 20  1  6  0  0  0
 16 17  1  0  0  0  0
 17 22  1  6  0  0  0
 17 12  1  0  0  0  0
 19 18  1  0  0  0  0
 21 20  1  0  0  0  0
 22 23  1  0  0  0  0
 24  1  1  0  0  0  0
 24 25  1  0  0  0  0
 25 26  2  0  0  0  0
 26 27  1  0  0  0  0
 27 29  1  0  0  0  0
 27 30  1  0  0  0  0
 28 27  1  0  0  0  0
 32 31  2  6  0  0  0
 32 30  1  0  0  0  0
 32 35  1  0  0  0  0
 33 32  1  0  0  0  0
 33 34  1  0  0  0  0
 35 36  1  0  0  0  0
 36 37  1  0  0  0  0
 36 38  1  0  0  0  0
 37 38  1  0  0  0  0
 37 41  1  0  0  0  0
 38 43  1  0  0  0  0
 38 42  1  0  0  0  0
 39 36  1  0  0  0  0
 40 37  1  0  0  0  0
M  END
>  <minimizedAffinity>
-4.99573374

>  <minimizedRMSD>
1.80749059

$$$$
