
 OpenBabel03252504053D

 22 23  0  0  1  0  0  0  0  0999 V2000
   47.9990   35.2510   41.9120 C   0  0  2  0  0  3  0  0  0  0  0  0
   46.5670   34.8090   41.9860 C   0  0  1  0  0  3  0  0  0  0  0  0
   46.2750   33.6940   41.2160 O   0  0  0  0  0  0  0  0  0  0  0  0
   46.6270   33.8740   39.8970 C   0  0  0  0  0  2  0  0  0  0  0  0
   48.1160   33.9000   39.7690 C   0  0  2  0  0  3  0  0  0  0  0  0
   48.8360   34.5870   40.8880 C   0  0  2  0  0  3  0  0  0  0  0  0
   44.8980   34.9550   45.3860 C   0  0  0  0  0  0  0  0  0  0  0  0
   45.2510   35.3180   44.0780 C   0  0  0  0  0  0  0  0  0  0  0  0
   46.1380   34.4890   43.3880 C   0  0  0  0  0  0  0  0  0  0  0  0
   46.6150   33.3820   44.0010 N   0  0  0  0  0  0  0  0  0  0  0  0
   46.2560   33.0540   45.2650 C   0  0  0  0  0  0  0  0  0  0  0  0
   45.4020   33.8450   45.9390 N   0  0  0  0  0  0  0  0  0  0  0  0
   44.2100   35.6090   45.9050 H   0  0  0  0  0  0  0  0  0  0  0  0
   46.6640   32.1500   45.7230 H   0  0  0  0  0  0  0  0  0  0  0  0
   44.7710   36.4550   43.4340 O   0  0  0  0  0  0  0  0  0  0  0  0
   45.0950   37.3850   43.6200 H   0  0  0  0  0  0  0  0  0  0  0  0
   48.5520   35.0360   43.1840 O   0  0  0  0  0  0  0  0  0  0  0  0
   49.2480   35.6980   43.3690 H   0  0  0  0  0  0  0  0  0  0  0  0
   48.4480   34.4390   38.5090 O   0  0  0  0  0  0  0  0  0  0  0  0
   48.1440   33.7630   37.8460 H   0  0  0  0  0  0  0  0  0  0  0  0
   49.7110   33.6740   41.5190 O   0  0  0  0  0  0  0  0  0  0  0  0
   50.5330   33.5730   40.9770 H   0  0  0  0  0  0  0  0  0  0  0  0
  1  2  1  0  0  0  0
  1 17  1  1  0  0  0
  2  9  1  1  0  0  0
  3  2  1  0  0  0  0
  4  3  1  0  0  0  0
  5 19  1  6  0  0  0
  5  4  1  0  0  0  0
  5  6  1  0  0  0  0
  6 21  1  1  0  0  0
  6  1  1  0  0  0  0
  7 13  1  0  0  0  0
  7 12  1  0  0  0  0
  8  7  2  0  0  0  0
  9 10  2  0  0  0  0
  9  8  1  0  0  0  0
 10 11  1  0  0  0  0
 11 14  1  0  0  0  0
 11 12  2  0  0  0  0
 15 16  1  0  0  0  0
 15  8  1  0  0  0  0
 17 18  1  0  0  0  0
 20 19  1  0  0  0  0
 22 21  1  0  0  0  0
M  END
>  <minimizedAffinity>
-4.95251751

>  <minimizedRMSD>
0.577844262

$$$$
