
 OpenBabel03252507383D

 41 45  0  0  1  0  0  0  0  0999 V2000
   45.3390   34.5970   43.6720 C   0  0  0  0  0  0  0  0  0  0  0  0
   46.0930   33.5420   44.2520 C   0  0  0  0  0  0  0  0  0  0  0  0
   46.0170   33.3930   45.6270 C   0  0  0  0  0  0  0  0  0  0  0  0
   45.2440   34.2450   46.3390 N   0  0  0  0  0  0  0  0  0  0  0  0
   44.5330   35.2450   45.7640 C   0  0  0  0  0  0  0  0  0  0  0  0
   44.5870   35.4110   44.4460 N   0  0  0  0  0  0  0  0  0  0  0  0
   46.7020   32.8680   43.7040 H   0  0  0  0  0  0  0  0  0  0  0  0
   43.9130   35.9310   46.3250 H   0  0  0  0  0  0  0  0  0  0  0  0
   47.0780   32.6460   47.6840 C   0  0  0  0  0  0  0  0  0  0  0  0
   46.7270   32.3620   46.3720 C   0  0  0  0  0  0  0  0  0  0  0  0
   47.0650   31.1420   45.8660 C   0  0  0  0  0  0  0  0  0  0  0  0
   47.7380   30.1780   46.5910 C   0  0  0  0  0  0  0  0  0  0  0  0
   48.1640   28.9320   46.3010 N   0  0  0  0  0  0  0  0  0  0  0  0
   48.7830   28.4320   47.4320 C   0  0  0  0  0  0  0  0  0  0  0  0
   48.7220   29.3750   48.3780 N   0  0  0  0  0  0  0  0  0  0  0  0
   48.0870   30.4470   47.8830 C   0  0  0  0  0  0  0  0  0  0  0  0
   47.7590   31.6800   48.4310 C   0  0  0  0  0  0  0  0  0  0  0  0
   46.8560   33.5830   48.1780 H   0  0  0  0  0  0  0  0  0  0  0  0
   46.7980   30.9010   44.8380 H   0  0  0  0  0  0  0  0  0  0  0  0
   48.0260   28.4730   45.3750 H   0  0  0  0  0  0  0  0  0  0  0  0
   49.1990   27.4290   47.4010 H   0  0  0  0  0  0  0  0  0  0  0  0
   48.0300   31.9190   49.4700 H   0  0  0  0  0  0  0  0  0  0  0  0
   45.4150   34.7470   42.2890 O   0  0  0  0  0  0  0  0  0  0  0  0
   44.5070   34.0830   41.4680 C   0  0  0  0  0  0  0  0  0  0  0  0
   45.3040   33.7670   40.4270 C   0  0  0  0  0  0  0  0  0  0  0  0
   44.0940   32.8510   39.2740 S   0  0  0  0  0  0  0  0  0  0  0  0
   42.7170   33.1270   40.5460 C   0  0  0  0  0  0  0  0  0  0  0  0
   43.2770   33.6750   41.3210 N   0  0  0  0  0  0  0  0  0  0  0  0
   46.3050   33.7180   39.7950 H   0  0  0  0  0  0  0  0  0  0  0  0
   40.4000   33.8320   40.9540 C   0  0  1  0  0  3  0  0  0  0  0  0
   41.2330   32.6960   40.4940 C   0  0  1  0  0  3  0  0  0  0  0  0
   40.9470   32.1740   39.2690 O   0  0  0  0  0  0  0  0  0  0  0  0
   40.6150   33.0960   38.2950 C   0  0  0  0  0  2  0  0  0  0  0  0
   39.2850   33.7000   38.6970 C   0  0  1  0  0  3  0  0  0  0  0  0
   39.5900   34.5340   39.9330 C   0  0  2  0  0  3  0  0  0  0  0  0
   39.4940   33.3840   41.9420 O   0  0  0  0  0  0  0  0  0  0  0  0
   39.1730   32.5060   41.5880 H   0  0  0  0  0  0  0  0  0  0  0  0
   38.7460   34.5070   37.7150 O   0  0  0  0  0  0  0  0  0  0  0  0
   38.2940   33.8830   37.0610 H   0  0  0  0  0  0  0  0  0  0  0  0
   40.2230   35.7030   39.4790 O   0  0  0  0  0  0  0  0  0  0  0  0
   39.5930   36.2900   38.9940 H   0  0  0  0  0  0  0  0  0  0  0  0
  1  2  2  0  0  0  0
  1  6  1  0  0  0  0
  2  3  1  0  0  0  0
  3  4  2  0  0  0  0
  3 10  1  0  0  0  0
  5  8  1  0  0  0  0
  5  4  1  0  0  0  0
  6  5  2  0  0  0  0
  7  2  1  0  0  0  0
  9 18  1  0  0  0  0
  9 17  1  0  0  0  0
 10  9  2  0  0  0  0
 11 10  1  0  0  0  0
 11 12  2  0  0  0  0
 12 16  1  0  0  0  0
 13 12  1  0  0  0  0
 13 14  1  0  0  0  0
 14 15  2  0  0  0  0
 16 15  1  0  0  0  0
 16 17  2  0  0  0  0
 17 22  1  0  0  0  0
 19 11  1  0  0  0  0
 20 13  1  0  0  0  0
 21 14  1  0  0  0  0
 23  1  1  0  0  0  0
 24 23  1  0  0  0  0
 25 24  2  0  0  0  0
 26 25  1  0  0  0  0
 26 27  1  0  0  0  0
 27 28  2  0  0  0  0
 28 24  1  0  0  0  0
 29 25  1  0  0  0  0
 30 36  1  1  0  0  0
 31 27  1  6  0  0  0
 31 30  1  0  0  0  0
 32 31  1  0  0  0  0
 33 34  1  0  0  0  0
 33 32  1  0  0  0  0
 34 38  1  6  0  0  0
 34 35  1  0  0  0  0
 35 40  1  6  0  0  0
 35 30  1  0  0  0  0
 37 36  1  0  0  0  0
 39 38  1  0  0  0  0
 41 40  1  0  0  0  0
M  END
>  <minimizedAffinity>
-6.82038689

>  <minimizedRMSD>
2.21916747

$$$$
