
 OpenBabel03242513103D

 44 48  0  0  1  0  0  0  0  0999 V2000
   37.6430   28.0610   40.1050 C   0  0  0  0  0  0  0  0  0  0  0  0
   37.5680   28.3900   41.4650 C   0  0  0  0  0  0  0  0  0  0  0  0
   37.2750   27.3820   42.3560 C   0  0  0  0  0  0  0  0  0  0  0  0
   37.0770   26.1280   41.8500 N   0  0  0  0  0  0  0  0  0  0  0  0
   37.1490   25.8210   40.5480 C   0  0  0  0  0  0  0  0  0  0  0  0
   37.4360   26.8000   39.6630 N   0  0  0  0  0  0  0  0  0  0  0  0
   37.8700   28.8270   39.3850 H   0  0  0  0  0  0  0  0  0  0  0  0
   35.9150   24.1560   39.2480 C   0  0  0  0  0  0  0  0  0  0  0  0
   36.9220   24.4600   40.1120 C   0  0  0  0  0  0  0  0  0  0  0  0
   37.7850   23.4820   40.6220 C   0  0  0  0  0  0  0  0  0  0  0  0
   37.6360   22.1520   40.2560 C   0  0  0  0  0  0  0  0  0  0  0  0
   38.2680   20.9760   40.5450 N   0  0  0  0  0  0  0  0  0  0  0  0
   37.6190   19.9910   39.8410 C   0  0  0  0  0  0  0  0  0  0  0  0
   36.6190   20.5690   39.1470 N   0  0  0  0  0  0  0  0  0  0  0  0
   36.6090   21.8920   39.3840 C   0  0  0  0  0  0  0  0  0  0  0  0
   35.7450   22.8260   38.8660 C   0  0  0  0  0  0  0  0  0  0  0  0
   35.2420   24.8790   38.8420 H   0  0  0  0  0  0  0  0  0  0  0  0
   38.5850   23.7190   41.3090 H   0  0  0  0  0  0  0  0  0  0  0  0
   39.0800   21.0060   41.2020 H   0  0  0  0  0  0  0  0  0  0  0  0
   38.0560   19.0150   40.0100 H   0  0  0  0  0  0  0  0  0  0  0  0
   34.9580   22.5530   38.1830 H   0  0  0  0  0  0  0  0  0  0  0  0
   37.1850   27.6780   43.8020 C   0  0  0  0  0  0  0  0  0  0  0  0
   37.0930   29.0710   44.0140 F   0  0  0  0  0  0  0  0  0  0  0  0
   36.0370   27.1380   44.3320 F   0  0  0  0  0  0  0  0  0  0  0  0
   38.2970   27.1910   44.4080 F   0  0  0  0  0  0  0  0  0  0  0  0
   37.7840   29.6700   41.8480 O   0  0  0  0  0  0  0  0  0  0  0  0
   38.9140   30.3540   41.5320 C   0  0  0  0  0  0  0  0  0  0  0  0
   39.7310   30.2410   42.6580 C   0  0  0  0  0  0  0  0  0  0  0  0
   41.2460   31.1680   42.2300 S   0  0  0  0  0  0  0  0  0  0  0  0
   40.5380   31.5870   40.5420 C   0  0  0  0  0  0  0  0  0  0  0  0
   39.5580   31.0650   40.6460 N   0  0  0  0  0  0  0  0  0  0  0  0
   39.7540   29.7310   43.8100 H   0  0  0  0  0  0  0  0  0  0  0  0
   40.6900   33.8080   39.5630 C   0  0  1  0  0  3  0  0  0  0  0  0
   41.2200   32.3950   39.4780 C   0  0  2  0  0  3  0  0  0  0  0  0
   40.8990   31.8790   38.2270 O   0  0  0  0  0  0  0  0  0  0  0  0
   41.6430   32.5450   37.2610 C   0  0  0  0  0  2  0  0  0  0  0  0
   42.3540   33.7540   37.7780 C   0  0  2  0  0  3  0  0  0  0  0  0
   41.5260   34.6590   38.6300 C   0  0  2  0  0  3  0  0  0  0  0  0
   39.3650   33.7740   39.1340 O   0  0  0  0  0  0  0  0  0  0  0  0
   39.1800   33.0110   38.5310 H   0  0  0  0  0  0  0  0  0  0  0  0
   42.7180   34.5070   36.6380 O   0  0  0  0  0  0  0  0  0  0  0  0
   42.9250   35.4610   36.8920 H   0  0  0  0  0  0  0  0  0  0  0  0
   42.3770   35.4270   39.4530 O   0  0  0  0  0  0  0  0  0  0  0  0
   41.8440   35.7670   40.2300 H   0  0  0  0  0  0  0  0  0  0  0  0
  1  2  1  0  0  0  0
  2 26  1  0  0  0  0
  2  3  2  0  0  0  0
  3 22  1  0  0  0  0
  4  3  1  0  0  0  0
  5  4  2  0  0  0  0
  6  1  2  0  0  0  0
  6  5  1  0  0  0  0
  7  1  1  0  0  0  0
  8  9  1  0  0  0  0
  9  5  1  0  0  0  0
  9 10  2  0  0  0  0
 10 18  1  0  0  0  0
 11 12  1  0  0  0  0
 11 10  1  0  0  0  0
 12 19  1  0  0  0  0
 13 20  1  0  0  0  0
 13 12  1  0  0  0  0
 14 15  1  0  0  0  0
 14 13  2  0  0  0  0
 15 11  2  0  0  0  0
 16  8  2  0  0  0  0
 16 15  1  0  0  0  0
 17  8  1  0  0  0  0
 21 16  1  0  0  0  0
 22 23  1  0  0  0  0
 22 24  1  0  0  0  0
 22 25  1  0  0  0  0
 27 26  1  0  0  0  0
 27 28  2  0  0  0  0
 28 32  1  0  0  0  0
 29 28  1  0  0  0  0
 30 31  2  0  0  0  0
 30 29  1  0  0  0  0
 31 27  1  0  0  0  0
 33 39  1  6  0  0  0
 34 33  1  0  0  0  0
 34 30  1  1  0  0  0
 35 34  1  0  0  0  0
 36 37  1  0  0  0  0
 36 35  1  0  0  0  0
 37 41  1  6  0  0  0
 37 38  1  0  0  0  0
 38 43  1  1  0  0  0
 38 33  1  0  0  0  0
 40 39  1  0  0  0  0
 41 42  1  0  0  0  0
 43 44  1  0  0  0  0
M  END
>  <minimizedAffinity>
-8.10384083

$$$$

 OpenBabel03242513103D

 44 48  0  0  1  0  0  0  0  0999 V2000
   36.6920   28.5020   39.9290 C   0  0  0  0  0  0  0  0  0  0  0  0
   37.2440   28.8520   41.1690 C   0  0  0  0  0  0  0  0  0  0  0  0
   37.6510   27.8340   42.0030 C   0  0  0  0  0  0  0  0  0  0  0  0
   37.4860   26.5510   41.5610 N   0  0  0  0  0  0  0  0  0  0  0  0
   36.9560   26.2240   40.3750 C   0  0  0  0  0  0  0  0  0  0  0  0
   36.5540   27.2120   39.5470 N   0  0  0  0  0  0  0  0  0  0  0  0
   36.3650   29.2750   39.2560 H   0  0  0  0  0  0  0  0  0  0  0  0
   35.8790   24.4290   39.1090 C   0  0  0  0  0  0  0  0  0  0  0  0
   36.8240   24.8320   40.0010 C   0  0  0  0  0  0  0  0  0  0  0  0
   37.7130   23.9310   40.6000 C   0  0  0  0  0  0  0  0  0  0  0  0
   37.6560   22.5790   40.2970 C   0  0  0  0  0  0  0  0  0  0  0  0
   38.3350   21.4570   40.6750 N   0  0  0  0  0  0  0  0  0  0  0  0
   37.7750   20.4030   39.9950 C   0  0  0  0  0  0  0  0  0  0  0  0
   36.7810   20.8880   39.2270 N   0  0  0  0  0  0  0  0  0  0  0  0
   36.6870   22.2180   39.3940 C   0  0  0  0  0  0  0  0  0  0  0  0
   35.8000   23.0750   38.7890 C   0  0  0  0  0  0  0  0  0  0  0  0
   35.1870   25.0930   38.6360 H   0  0  0  0  0  0  0  0  0  0  0  0
   38.4660   24.2470   41.3090 H   0  0  0  0  0  0  0  0  0  0  0  0
   39.1120   21.5650   41.3660 H   0  0  0  0  0  0  0  0  0  0  0  0
   38.2560   19.4630   40.2340 H   0  0  0  0  0  0  0  0  0  0  0  0
   35.0630   22.7250   38.0860 H   0  0  0  0  0  0  0  0  0  0  0  0
   38.2400   28.1510   43.3210 C   0  0  0  0  0  0  0  0  0  0  0  0
   38.6560   26.9700   43.9710 F   0  0  0  0  0  0  0  0  0  0  0  0
   39.3720   28.9170   43.1680 F   0  0  0  0  0  0  0  0  0  0  0  0
   37.3010   28.7840   44.0670 F   0  0  0  0  0  0  0  0  0  0  0  0
   37.3560   30.1600   41.4970 O   0  0  0  0  0  0  0  0  0  0  0  0
   38.1640   31.0220   40.8260 C   0  0  0  0  0  0  0  0  0  0  0  0
   37.3930   32.1700   40.6420 C   0  0  0  0  0  0  0  0  0  0  0  0
   38.4830   33.3230   39.7340 S   0  0  0  0  0  0  0  0  0  0  0  0
   39.8630   32.0490   39.7340 C   0  0  0  0  0  0  0  0  0  0  0  0
   39.3320   31.2370   40.2830 N   0  0  0  0  0  0  0  0  0  0  0  0
   36.2510   32.6390   40.8900 H   0  0  0  0  0  0  0  0  0  0  0  0
   41.0520   32.3840   37.6380 C   0  0  1  0  0  3  0  0  0  0  0  0
   41.2260   32.2280   39.1310 C   0  0  2  0  0  3  0  0  0  0  0  0
   41.9920   31.0920   39.3700 O   0  0  0  0  0  0  0  0  0  0  0  0
   43.2890   31.3230   38.9310 C   0  0  0  0  0  2  0  0  0  0  0  0
   43.4370   32.5720   38.1230 C   0  0  2  0  0  3  0  0  0  0  0  0
   42.4010   32.7670   37.0650 C   0  0  2  0  0  3  0  0  0  0  0  0
   40.6480   31.1450   37.1430 O   0  0  0  0  0  0  0  0  0  0  0  0
   40.9290   30.3940   37.7230 H   0  0  0  0  0  0  0  0  0  0  0  0
   44.6730   32.4530   37.4480 O   0  0  0  0  0  0  0  0  0  0  0  0
   44.7150   33.0880   36.6660 H   0  0  0  0  0  0  0  0  0  0  0  0
   42.3180   34.1390   36.7460 O   0  0  0  0  0  0  0  0  0  0  0  0
   41.4310   34.3100   36.3130 H   0  0  0  0  0  0  0  0  0  0  0  0
  1  2  1  0  0  0  0
  2 26  1  0  0  0  0
  2  3  2  0  0  0  0
  3 22  1  0  0  0  0
  4  3  1  0  0  0  0
  5  4  2  0  0  0  0
  6  1  2  0  0  0  0
  6  5  1  0  0  0  0
  7  1  1  0  0  0  0
  8  9  1  0  0  0  0
  9  5  1  0  0  0  0
  9 10  2  0  0  0  0
 10 18  1  0  0  0  0
 11 10  1  0  0  0  0
 11 12  1  0  0  0  0
 12 19  1  0  0  0  0
 13 20  1  0  0  0  0
 13 12  1  0  0  0  0
 14 15  1  0  0  0  0
 14 13  2  0  0  0  0
 15 11  2  0  0  0  0
 16  8  2  0  0  0  0
 16 15  1  0  0  0  0
 17  8  1  0  0  0  0
 21 16  1  0  0  0  0
 22 23  1  0  0  0  0
 22 25  1  0  0  0  0
 24 22  1  0  0  0  0
 27 26  1  0  0  0  0
 28 27  2  0  0  0  0
 28 32  1  0  0  0  0
 29 30  1  0  0  0  0
 29 28  1  0  0  0  0
 30 31  2  0  0  0  0
 31 27  1  0  0  0  0
 33 39  1  6  0  0  0
 33 34  1  0  0  0  0
 34 35  1  0  0  0  0
 34 30  1  1  0  0  0
 36 35  1  0  0  0  0
 37 41  1  6  0  0  0
 37 36  1  0  0  0  0
 38 43  1  1  0  0  0
 38 33  1  0  0  0  0
 38 37  1  0  0  0  0
 39 40  1  0  0  0  0
 42 41  1  0  0  0  0
 44 43  1  0  0  0  0
M  END
>  <minimizedAffinity>
-7.57011461

$$$$

 OpenBabel03242513103D

 44 48  0  0  1  0  0  0  0  0999 V2000
   36.5240   28.1660   40.3320 C   0  0  0  0  0  0  0  0  0  0  0  0
   37.1730   28.4610   41.5380 C   0  0  0  0  0  0  0  0  0  0  0  0
   37.7130   27.4140   42.2510 C   0  0  0  0  0  0  0  0  0  0  0  0
   37.5780   26.1570   41.7290 N   0  0  0  0  0  0  0  0  0  0  0  0
   36.9560   25.8830   40.5750 C   0  0  0  0  0  0  0  0  0  0  0  0
   36.4210   26.9010   39.8660 N   0  0  0  0  0  0  0  0  0  0  0  0
   36.0920   28.9640   39.7530 H   0  0  0  0  0  0  0  0  0  0  0  0
   35.9730   24.1590   39.1450 C   0  0  0  0  0  0  0  0  0  0  0  0
   36.8650   24.5160   40.1090 C   0  0  0  0  0  0  0  0  0  0  0  0
   37.7360   23.5910   40.6970 C   0  0  0  0  0  0  0  0  0  0  0  0
   37.7150   22.2600   40.3090 C   0  0  0  0  0  0  0  0  0  0  0  0
   38.3920   21.1250   40.6520 N   0  0  0  0  0  0  0  0  0  0  0  0
   37.8850   20.1080   39.8790 C   0  0  0  0  0  0  0  0  0  0  0  0
   36.9240   20.6280   39.0920 N   0  0  0  0  0  0  0  0  0  0  0  0
   36.8010   21.9440   39.3350 C   0  0  0  0  0  0  0  0  0  0  0  0
   35.9330   22.8260   38.7380 C   0  0  0  0  0  0  0  0  0  0  0  0
   35.2970   24.8420   38.6780 H   0  0  0  0  0  0  0  0  0  0  0  0
   38.4450   23.8710   41.4630 H   0  0  0  0  0  0  0  0  0  0  0  0
   39.1300   21.1990   41.3890 H   0  0  0  0  0  0  0  0  0  0  0  0
   38.3670   19.1610   40.0850 H   0  0  0  0  0  0  0  0  0  0  0  0
   35.2390   22.5110   37.9770 H   0  0  0  0  0  0  0  0  0  0  0  0
   38.4090   27.6730   43.5300 C   0  0  0  0  0  0  0  0  0  0  0  0
   39.0920   26.5150   43.9610 F   0  0  0  0  0  0  0  0  0  0  0  0
   39.3720   28.6410   43.3640 F   0  0  0  0  0  0  0  0  0  0  0  0
   37.4840   28.0350   44.4530 F   0  0  0  0  0  0  0  0  0  0  0  0
   37.2440   29.7470   41.9540 O   0  0  0  0  0  0  0  0  0  0  0  0
   37.7460   30.7450   41.1810 C   0  0  0  0  0  0  0  0  0  0  0  0
   36.6280   31.3730   40.6310 C   0  0  0  0  0  0  0  0  0  0  0  0
   37.3100   32.7100   39.5880 S   0  0  0  0  0  0  0  0  0  0  0  0
   39.0590   32.2130   40.0590 C   0  0  0  0  0  0  0  0  0  0  0  0
   38.8070   31.3610   40.7320 N   0  0  0  0  0  0  0  0  0  0  0  0
   35.3700   31.3160   40.6260 H   0  0  0  0  0  0  0  0  0  0  0  0
   41.4750   32.2560   40.3370 C   0  0  1  0  0  3  0  0  0  0  0  0
   40.3200   32.8740   39.5840 C   0  0  2  0  0  3  0  0  0  0  0  0
   40.2730   34.2310   39.8840 O   0  0  0  0  0  0  0  0  0  0  0  0
   41.3780   34.8550   39.3190 C   0  0  0  0  0  2  0  0  0  0  0  0
   42.4020   33.9020   38.7920 C   0  0  2  0  0  3  0  0  0  0  0  0
   42.7510   32.7770   39.7100 C   0  0  2  0  0  3  0  0  0  0  0  0
   41.3740   32.6820   41.6610 O   0  0  0  0  0  0  0  0  0  0  0  0
   40.8800   33.5350   41.7480 H   0  0  0  0  0  0  0  0  0  0  0  0
   43.5860   34.6570   38.6250 O   0  0  0  0  0  0  0  0  0  0  0  0
   44.3900   34.0510   38.5660 H   0  0  0  0  0  0  0  0  0  0  0  0
   43.2830   31.7100   38.9550 O   0  0  0  0  0  0  0  0  0  0  0  0
   43.1990   30.8690   39.4920 H   0  0  0  0  0  0  0  0  0  0  0  0
  1  2  1  0  0  0  0
  2 26  1  0  0  0  0
  2  3  2  0  0  0  0
  3 22  1  0  0  0  0
  4  3  1  0  0  0  0
  5  4  2  0  0  0  0
  6  1  2  0  0  0  0
  6  5  1  0  0  0  0
  7  1  1  0  0  0  0
  8  9  1  0  0  0  0
  9  5  1  0  0  0  0
  9 10  2  0  0  0  0
 10 18  1  0  0  0  0
 11 12  1  0  0  0  0
 11 10  1  0  0  0  0
 12 19  1  0  0  0  0
 13 20  1  0  0  0  0
 13 12  1  0  0  0  0
 14 15  1  0  0  0  0
 14 13  2  0  0  0  0
 15 11  2  0  0  0  0
 16  8  2  0  0  0  0
 16 15  1  0  0  0  0
 17  8  1  0  0  0  0
 21 16  1  0  0  0  0
 22 23  1  0  0  0  0
 22 25  1  0  0  0  0
 24 22  1  0  0  0  0
 27 26  1  0  0  0  0
 28 27  2  0  0  0  0
 29 30  1  0  0  0  0
 29 28  1  0  0  0  0
 30 31  2  0  0  0  0
 31 27  1  0  0  0  0
 32 28  1  0  0  0  0
 33 39  1  1  0  0  0
 34 35  1  0  0  0  0
 34 30  1  1  0  0  0
 34 33  1  0  0  0  0
 36 35  1  0  0  0  0
 37 41  1  1  0  0  0
 37 36  1  0  0  0  0
 37 38  1  0  0  0  0
 38 43  1  6  0  0  0
 38 33  1  0  0  0  0
 39 40  1  0  0  0  0
 42 41  1  0  0  0  0
 43 44  1  0  0  0  0
M  END
>  <minimizedAffinity>
-7.56078148

$$$$

 OpenBabel03242513103D

 44 48  0  0  1  0  0  0  0  0999 V2000
   37.9790   27.2620   42.0170 C   0  0  0  0  0  0  0  0  0  0  0  0
   37.3190   28.3240   41.3830 C   0  0  0  0  0  0  0  0  0  0  0  0
   36.5000   28.0270   40.3170 C   0  0  0  0  0  0  0  0  0  0  0  0
   36.3880   26.7150   39.9510 N   0  0  0  0  0  0  0  0  0  0  0  0
   37.0220   25.7050   40.5620 C   0  0  0  0  0  0  0  0  0  0  0  0
   37.8290   25.9820   41.6090 N   0  0  0  0  0  0  0  0  0  0  0  0
   38.6260   27.4630   42.8540 H   0  0  0  0  0  0  0  0  0  0  0  0
   35.8560   24.0350   39.2070 C   0  0  0  0  0  0  0  0  0  0  0  0
   36.8380   24.3470   40.0970 C   0  0  0  0  0  0  0  0  0  0  0  0
   37.7150   23.3820   40.6070 C   0  0  0  0  0  0  0  0  0  0  0  0
   37.6070   22.0560   40.2130 C   0  0  0  0  0  0  0  0  0  0  0  0
   38.2620   20.8910   40.4920 N   0  0  0  0  0  0  0  0  0  0  0  0
   37.6520   19.9040   39.7570 C   0  0  0  0  0  0  0  0  0  0  0  0
   36.6520   20.4690   39.0550 N   0  0  0  0  0  0  0  0  0  0  0  0
   36.6040   21.7870   39.3150 C   0  0  0  0  0  0  0  0  0  0  0  0
   35.7280   22.7090   38.7970 C   0  0  0  0  0  0  0  0  0  0  0  0
   35.1730   24.7500   38.8010 H   0  0  0  0  0  0  0  0  0  0  0  0
   38.4950   23.6250   41.3140 H   0  0  0  0  0  0  0  0  0  0  0  0
   39.0600   20.9280   41.1670 H   0  0  0  0  0  0  0  0  0  0  0  0
   38.1100   18.9360   39.9170 H   0  0  0  0  0  0  0  0  0  0  0  0
   34.9620   22.4300   38.0940 H   0  0  0  0  0  0  0  0  0  0  0  0
   35.7810   29.1120   39.6140 C   0  0  0  0  0  0  0  0  0  0  0  0
   34.8680   28.5730   38.6820 F   0  0  0  0  0  0  0  0  0  0  0  0
   35.0280   29.8420   40.5030 F   0  0  0  0  0  0  0  0  0  0  0  0
   36.6940   29.8840   38.9740 F   0  0  0  0  0  0  0  0  0  0  0  0
   37.5090   29.5850   41.8360 O   0  0  0  0  0  0  0  0  0  0  0  0
   38.6250   30.3080   41.5590 C   0  0  0  0  0  0  0  0  0  0  0  0
   39.3760   30.2770   42.7340 C   0  0  0  0  0  0  0  0  0  0  0  0
   40.8720   31.2570   42.3570 S   0  0  0  0  0  0  0  0  0  0  0  0
   40.2490   31.5760   40.6150 C   0  0  0  0  0  0  0  0  0  0  0  0
   39.2890   31.0130   40.6830 N   0  0  0  0  0  0  0  0  0  0  0  0
   39.3530   29.8140   43.9060 H   0  0  0  0  0  0  0  0  0  0  0  0
   40.5640   33.8220   39.7350 C   0  0  1  0  0  3  0  0  0  0  0  0
   40.9570   32.3740   39.5590 C   0  0  2  0  0  3  0  0  0  0  0  0
   40.5380   31.9530   38.3010 O   0  0  0  0  0  0  0  0  0  0  0  0
   41.2990   32.5980   37.3350 C   0  0  0  0  0  2  0  0  0  0  0  0
   42.1400   33.7100   37.8750 C   0  0  2  0  0  3  0  0  0  0  0  0
   41.4350   34.6410   38.8060 C   0  0  2  0  0  3  0  0  0  0  0  0
   39.2240   33.9290   39.3670 O   0  0  0  0  0  0  0  0  0  0  0  0
   38.9450   33.2180   38.7380 H   0  0  0  0  0  0  0  0  0  0  0  0
   42.5230   34.4850   36.7560 O   0  0  0  0  0  0  0  0  0  0  0  0
   42.8280   35.4020   37.0450 H   0  0  0  0  0  0  0  0  0  0  0  0
   42.3870   35.2860   39.6240 O   0  0  0  0  0  0  0  0  0  0  0  0
   41.9210   35.6320   40.4400 H   0  0  0  0  0  0  0  0  0  0  0  0
  1  7  1  0  0  0  0
  2 26  1  0  0  0  0
  2  1  2  0  0  0  0
  3  2  1  0  0  0  0
  4  3  2  0  0  0  0
  4  5  1  0  0  0  0
  5  6  2  0  0  0  0
  6  1  1  0  0  0  0
  8  9  1  0  0  0  0
  9  5  1  0  0  0  0
  9 10  2  0  0  0  0
 10 18  1  0  0  0  0
 11 12  1  0  0  0  0
 11 10  1  0  0  0  0
 12 19  1  0  0  0  0
 13 20  1  0  0  0  0
 13 12  1  0  0  0  0
 14 15  1  0  0  0  0
 14 13  2  0  0  0  0
 15 11  2  0  0  0  0
 16  8  2  0  0  0  0
 16 15  1  0  0  0  0
 17  8  1  0  0  0  0
 21 16  1  0  0  0  0
 22  3  1  0  0  0  0
 22 24  1  0  0  0  0
 23 22  1  0  0  0  0
 25 22  1  0  0  0  0
 27 26  1  0  0  0  0
 27 28  2  0  0  0  0
 28 32  1  0  0  0  0
 29 28  1  0  0  0  0
 30 31  2  0  0  0  0
 30 29  1  0  0  0  0
 31 27  1  0  0  0  0
 33 39  1  6  0  0  0
 34 33  1  0  0  0  0
 34 30  1  1  0  0  0
 35 34  1  0  0  0  0
 36 37  1  0  0  0  0
 36 35  1  0  0  0  0
 37 41  1  6  0  0  0
 37 38  1  0  0  0  0
 38 43  1  1  0  0  0
 38 33  1  0  0  0  0
 40 39  1  0  0  0  0
 41 42  1  0  0  0  0
 43 44  1  0  0  0  0
M  END
>  <minimizedAffinity>
-7.54202509

$$$$

 OpenBabel03242513103D

 44 48  0  0  1  0  0  0  0  0999 V2000
   36.9140   28.0630   39.9850 C   0  0  0  0  0  0  0  0  0  0  0  0
   37.1620   28.5050   41.2920 C   0  0  0  0  0  0  0  0  0  0  0  0
   37.7200   27.6120   42.1780 C   0  0  0  0  0  0  0  0  0  0  0  0
   37.9950   26.3540   41.7200 N   0  0  0  0  0  0  0  0  0  0  0  0
   37.7550   25.9380   40.4690 C   0  0  0  0  0  0  0  0  0  0  0  0
   37.2070   26.8040   39.5890 N   0  0  0  0  0  0  0  0  0  0  0  0
   36.4780   28.7390   39.2690 H   0  0  0  0  0  0  0  0  0  0  0  0
   37.7520   23.5250   40.8740 C   0  0  0  0  0  0  0  0  0  0  0  0
   38.0810   24.5820   40.0820 C   0  0  0  0  0  0  0  0  0  0  0  0
   38.7480   24.4180   38.8610 C   0  0  0  0  0  0  0  0  0  0  0  0
   39.0980   23.1530   38.4150 C   0  0  0  0  0  0  0  0  0  0  0  0
   39.7290   22.6360   37.3210 N   0  0  0  0  0  0  0  0  0  0  0  0
   39.7620   21.2720   37.4850 C   0  0  0  0  0  0  0  0  0  0  0  0
   39.1630   20.9830   38.6560 N   0  0  0  0  0  0  0  0  0  0  0  0
   38.7470   22.1170   39.2450 C   0  0  0  0  0  0  0  0  0  0  0  0
   38.0940   22.2430   40.4470 C   0  0  0  0  0  0  0  0  0  0  0  0
   37.2440   23.6190   41.8090 H   0  0  0  0  0  0  0  0  0  0  0  0
   39.0110   25.2550   38.2300 H   0  0  0  0  0  0  0  0  0  0  0  0
   40.0620   23.3030   36.5870 H   0  0  0  0  0  0  0  0  0  0  0  0
   40.2490   20.7740   36.6570 H   0  0  0  0  0  0  0  0  0  0  0  0
   37.8470   21.3860   41.0500 H   0  0  0  0  0  0  0  0  0  0  0  0
   38.0010   28.0300   43.5690 C   0  0  0  0  0  0  0  0  0  0  0  0
   36.7950   28.2400   44.2720 F   0  0  0  0  0  0  0  0  0  0  0  0
   38.6640   27.0320   44.2450 F   0  0  0  0  0  0  0  0  0  0  0  0
   38.7210   29.1780   43.5320 F   0  0  0  0  0  0  0  0  0  0  0  0
   36.8460   29.7770   41.6300 O   0  0  0  0  0  0  0  0  0  0  0  0
   37.5220   30.8560   41.1550 C   0  0  0  0  0  0  0  0  0  0  0  0
   36.5930   31.5520   40.3820 C   0  0  0  0  0  0  0  0  0  0  0  0
   37.5090   32.9980   39.7410 S   0  0  0  0  0  0  0  0  0  0  0  0
   39.0620   32.4360   40.6360 C   0  0  0  0  0  0  0  0  0  0  0  0
   38.6500   31.5120   41.1060 N   0  0  0  0  0  0  0  0  0  0  0  0
   35.3910   31.5050   40.0080 H   0  0  0  0  0  0  0  0  0  0  0  0
   40.4560   33.9710   39.3660 C   0  0  1  0  0  3  0  0  0  0  0  0
   40.3870   33.1390   40.6250 C   0  0  2  0  0  3  0  0  0  0  0  0
   41.4110   32.1970   40.5870 O   0  0  0  0  0  0  0  0  0  0  0  0
   42.6290   32.8510   40.7170 C   0  0  0  0  0  2  0  0  0  0  0  0
   42.5280   34.3380   40.6030 C   0  0  2  0  0  3  0  0  0  0  0  0
   41.6990   34.8300   39.4610 C   0  0  2  0  0  3  0  0  0  0  0  0
   40.5580   33.0850   38.2950 O   0  0  0  0  0  0  0  0  0  0  0  0
   40.9460   32.2140   38.5590 H   0  0  0  0  0  0  0  0  0  0  0  0
   43.8430   34.8000   40.3640 O   0  0  0  0  0  0  0  0  0  0  0  0
   43.8300   35.7330   39.9800 H   0  0  0  0  0  0  0  0  0  0  0  0
   41.2530   36.1390   39.7430 O   0  0  0  0  0  0  0  0  0  0  0  0
   40.4550   36.3320   39.1700 H   0  0  0  0  0  0  0  0  0  0  0  0
  1  2  1  0  0  0  0
  2 26  1  0  0  0  0
  2  3  2  0  0  0  0
  3 22  1  0  0  0  0
  4  3  1  0  0  0  0
  5  4  2  0  0  0  0
  6  1  2  0  0  0  0
  6  5  1  0  0  0  0
  7  1  1  0  0  0  0
  8 17  1  0  0  0  0
  9  5  1  0  0  0  0
  9  8  2  0  0  0  0
 10  9  1  0  0  0  0
 11 10  2  0  0  0  0
 11 15  1  0  0  0  0
 12 13  1  0  0  0  0
 12 11  1  0  0  0  0
 13 14  2  0  0  0  0
 14 15  1  0  0  0  0
 15 16  2  0  0  0  0
 16  8  1  0  0  0  0
 16 21  1  0  0  0  0
 18 10  1  0  0  0  0
 19 12  1  0  0  0  0
 20 13  1  0  0  0  0
 22 24  1  0  0  0  0
 22 23  1  0  0  0  0
 25 22  1  0  0  0  0
 27 26  1  0  0  0  0
 28 27  2  0  0  0  0
 29 28  1  0  0  0  0
 29 30  1  0  0  0  0
 30 31  2  0  0  0  0
 31 27  1  0  0  0  0
 32 28  1  0  0  0  0
 33 39  1  6  0  0  0
 33 38  1  0  0  0  0
 33 34  1  0  0  0  0
 34 30  1  6  0  0  0
 35 34  1  0  0  0  0
 35 36  1  0  0  0  0
 37 41  1  6  0  0  0
 37 36  1  0  0  0  0
 38 43  1  1  0  0  0
 38 37  1  0  0  0  0
 39 40  1  0  0  0  0
 42 41  1  0  0  0  0
 44 43  1  0  0  0  0
M  END
>  <minimizedAffinity>
-7.29631758

$$$$

 OpenBabel03242513103D

 44 48  0  0  1  0  0  0  0  0999 V2000
   36.6610   27.8280   40.1920 C   0  0  0  0  0  0  0  0  0  0  0  0
   37.2460   28.2520   41.3930 C   0  0  0  0  0  0  0  0  0  0  0  0
   37.8090   27.2940   42.2070 C   0  0  0  0  0  0  0  0  0  0  0  0
   37.7590   25.9950   41.7850 N   0  0  0  0  0  0  0  0  0  0  0  0
   37.1980   25.5980   40.6340 C   0  0  0  0  0  0  0  0  0  0  0  0
   36.6420   26.5270   39.8270 N   0  0  0  0  0  0  0  0  0  0  0  0
   36.2130   28.5530   39.5350 H   0  0  0  0  0  0  0  0  0  0  0  0
   38.2450   23.3880   40.5900 C   0  0  0  0  0  0  0  0  0  0  0  0
   37.1960   24.1960   40.2770 C   0  0  0  0  0  0  0  0  0  0  0  0
   36.0660   23.7200   39.5990 C   0  0  0  0  0  0  0  0  0  0  0  0
   35.9820   22.3880   39.2200 C   0  0  0  0  0  0  0  0  0  0  0  0
   35.0710   21.6060   38.5720 N   0  0  0  0  0  0  0  0  0  0  0  0
   35.6010   20.3400   38.5120 C   0  0  0  0  0  0  0  0  0  0  0  0
   36.8050   20.3680   39.1130 N   0  0  0  0  0  0  0  0  0  0  0  0
   37.0620   21.6100   39.5560 C   0  0  0  0  0  0  0  0  0  0  0  0
   38.1840   22.0450   40.2190 C   0  0  0  0  0  0  0  0  0  0  0  0
   39.1190   23.7220   41.1060 H   0  0  0  0  0  0  0  0  0  0  0  0
   35.2310   24.3580   39.3490 H   0  0  0  0  0  0  0  0  0  0  0  0
   34.1830   22.0550   38.2470 H   0  0  0  0  0  0  0  0  0  0  0  0
   34.9400   19.6460   38.0100 H   0  0  0  0  0  0  0  0  0  0  0  0
   38.9980   21.3800   40.4530 H   0  0  0  0  0  0  0  0  0  0  0  0
   38.4390   27.6900   43.4850 C   0  0  0  0  0  0  0  0  0  0  0  0
   37.4640   28.1800   44.3820 F   0  0  0  0  0  0  0  0  0  0  0  0
   39.0040   26.5980   44.1000 F   0  0  0  0  0  0  0  0  0  0  0  0
   39.3570   28.6550   43.2280 F   0  0  0  0  0  0  0  0  0  0  0  0
   37.2340   29.5690   41.7060 O   0  0  0  0  0  0  0  0  0  0  0  0
   37.6800   30.5320   40.8580 C   0  0  0  0  0  0  0  0  0  0  0  0
   36.6010   31.4010   40.6990 C   0  0  0  0  0  0  0  0  0  0  0  0
   37.2050   32.6900   39.5530 S   0  0  0  0  0  0  0  0  0  0  0  0
   38.8780   31.8430   39.4500 C   0  0  0  0  0  0  0  0  0  0  0  0
   38.6660   30.9880   40.1330 N   0  0  0  0  0  0  0  0  0  0  0  0
   35.4100   31.5710   41.0750 H   0  0  0  0  0  0  0  0  0  0  0  0
   41.0600   31.1860   38.6020 C   0  0  1  0  0  3  0  0  0  0  0  0
   40.0520   32.3110   38.6410 C   0  0  2  0  0  3  0  0  0  0  0  0
   40.6380   33.4070   39.2650 O   0  0  0  0  0  0  0  0  0  0  0  0
   41.6340   33.9140   38.4410 C   0  0  0  0  0  2  0  0  0  0  0  0
   41.9650   33.0290   37.2830 C   0  0  2  0  0  3  0  0  0  0  0  0
   42.1420   31.5850   37.6210 C   0  0  2  0  0  3  0  0  0  0  0  0
   41.5880   31.0660   39.8860 O   0  0  0  0  0  0  0  0  0  0  0  0
   41.5240   31.9070   40.4030 H   0  0  0  0  0  0  0  0  0  0  0  0
   43.2150   33.4780   36.7960 O   0  0  0  0  0  0  0  0  0  0  0  0
   43.6510   32.7690   36.2260 H   0  0  0  0  0  0  0  0  0  0  0  0
   41.9300   30.8090   36.4620 O   0  0  0  0  0  0  0  0  0  0  0  0
   41.7160   29.8720   36.7430 H   0  0  0  0  0  0  0  0  0  0  0  0
  1  2  1  0  0  0  0
  2 26  1  0  0  0  0
  2  3  2  0  0  0  0
  3 22  1  0  0  0  0
  4  3  1  0  0  0  0
  5  4  2  0  0  0  0
  6  1  2  0  0  0  0
  6  5  1  0  0  0  0
  7  1  1  0  0  0  0
  8 17  1  0  0  0  0
  9  8  1  0  0  0  0
  9  5  1  0  0  0  0
 10  9  2  0  0  0  0
 11 15  2  0  0  0  0
 11 10  1  0  0  0  0
 12 11  1  0  0  0  0
 13 12  1  0  0  0  0
 13 14  2  0  0  0  0
 14 15  1  0  0  0  0
 15 16  1  0  0  0  0
 16 21  1  0  0  0  0
 16  8  2  0  0  0  0
 18 10  1  0  0  0  0
 19 12  1  0  0  0  0
 20 13  1  0  0  0  0
 22 24  1  0  0  0  0
 22 23  1  0  0  0  0
 25 22  1  0  0  0  0
 27 26  1  0  0  0  0
 28 27  2  0  0  0  0
 28 32  1  0  0  0  0
 29 28  1  0  0  0  0
 30 29  1  0  0  0  0
 30 31  2  0  0  0  0
 31 27  1  0  0  0  0
 33 34  1  0  0  0  0
 33 39  1  1  0  0  0
 34 35  1  0  0  0  0
 34 30  1  1  0  0  0
 36 35  1  0  0  0  0
 37 41  1  1  0  0  0
 37 38  1  0  0  0  0
 37 36  1  0  0  0  0
 38 43  1  6  0  0  0
 38 33  1  0  0  0  0
 39 40  1  0  0  0  0
 42 41  1  0  0  0  0
 43 44  1  0  0  0  0
M  END
>  <minimizedAffinity>
-7.19328451

$$$$

 OpenBabel03242513103D

 44 48  0  0  1  0  0  0  0  0999 V2000
   39.5500   29.4960   41.3950 C   0  0  0  0  0  0  0  0  0  0  0  0
   38.4650   30.3230   41.0720 C   0  0  0  0  0  0  0  0  0  0  0  0
   37.2870   29.7200   40.6930 C   0  0  0  0  0  0  0  0  0  0  0  0
   37.2570   28.3540   40.6580 N   0  0  0  0  0  0  0  0  0  0  0  0
   38.2990   27.5700   40.9670 C   0  0  0  0  0  0  0  0  0  0  0  0
   39.4610   28.1480   41.3400 N   0  0  0  0  0  0  0  0  0  0  0  0
   40.4840   29.9380   41.6950 H   0  0  0  0  0  0  0  0  0  0  0  0
   37.4220   25.4460   41.8080 C   0  0  0  0  0  0  0  0  0  0  0  0
   38.1660   26.1300   40.8970 C   0  0  0  0  0  0  0  0  0  0  0  0
   38.8390   25.4860   39.8500 C   0  0  0  0  0  0  0  0  0  0  0  0
   38.7640   24.1080   39.7100 C   0  0  0  0  0  0  0  0  0  0  0  0
   39.2690   23.1790   38.8460 N   0  0  0  0  0  0  0  0  0  0  0  0
   38.8110   21.9540   39.2640 C   0  0  0  0  0  0  0  0  0  0  0  0
   38.0490   22.1490   40.3570 N   0  0  0  0  0  0  0  0  0  0  0  0
   38.0040   23.4590   40.6500 C   0  0  0  0  0  0  0  0  0  0  0  0
   37.3330   24.0600   41.6880 C   0  0  0  0  0  0  0  0  0  0  0  0
   36.8990   25.9100   42.6150 H   0  0  0  0  0  0  0  0  0  0  0  0
   39.4310   26.0250   39.1250 H   0  0  0  0  0  0  0  0  0  0  0  0
   39.8770   23.5170   38.0640 H   0  0  0  0  0  0  0  0  0  0  0  0
   39.1650   21.1490   38.6320 H   0  0  0  0  0  0  0  0  0  0  0  0
   36.7510   23.4900   42.3920 H   0  0  0  0  0  0  0  0  0  0  0  0
   36.1130   30.5490   40.3440 C   0  0  0  0  0  0  0  0  0  0  0  0
   36.3970   31.3550   39.2210 F   0  0  0  0  0  0  0  0  0  0  0  0
   35.0540   29.7510   39.9790 F   0  0  0  0  0  0  0  0  0  0  0  0
   35.8100   31.3310   41.4100 F   0  0  0  0  0  0  0  0  0  0  0  0
   38.6140   31.6660   41.1450 O   0  0  0  0  0  0  0  0  0  0  0  0
   39.6410   32.3280   40.5490 C   0  0  0  0  0  0  0  0  0  0  0  0
   39.2870   33.6760   40.6140 C   0  0  0  0  0  0  0  0  0  0  0  0
   40.6680   34.5590   39.8060 S   0  0  0  0  0  0  0  0  0  0  0  0
   41.5490   32.9320   39.4870 C   0  0  0  0  0  0  0  0  0  0  0  0
   40.7960   32.2500   39.9460 N   0  0  0  0  0  0  0  0  0  0  0  0
   38.3720   34.4350   41.0310 H   0  0  0  0  0  0  0  0  0  0  0  0
   43.1250   34.0100   37.9800 C   0  0  1  0  0  3  0  0  0  0  0  0
   42.8750   32.7680   38.8030 C   0  0  2  0  0  3  0  0  0  0  0  0
   42.8220   31.6740   37.9450 O   0  0  0  0  0  0  0  0  0  0  0  0
   44.0900   31.4490   37.4250 C   0  0  0  0  0  2  0  0  0  0  0  0
   45.0610   32.5490   37.7110 C   0  0  2  0  0  3  0  0  0  0  0  0
   44.5450   33.9280   37.4620 C   0  0  2  0  0  3  0  0  0  0  0  0
   42.2190   33.9880   36.9220 O   0  0  0  0  0  0  0  0  0  0  0  0
   41.9150   33.0730   36.7010 H   0  0  0  0  0  0  0  0  0  0  0  0
   46.1360   32.3600   36.8120 O   0  0  0  0  0  0  0  0  0  0  0  0
   46.6800   33.2060   36.7230 H   0  0  0  0  0  0  0  0  0  0  0  0
   45.2970   34.8480   38.2230 O   0  0  0  0  0  0  0  0  0  0  0  0
   44.7610   35.6890   38.3230 H   0  0  0  0  0  0  0  0  0  0  0  0
  1  7  1  0  0  0  0
  2 26  1  0  0  0  0
  2  1  2  0  0  0  0
  3  2  1  0  0  0  0
  4  3  2  0  0  0  0
  4  5  1  0  0  0  0
  5  6  2  0  0  0  0
  6  1  1  0  0  0  0
  8 17  1  0  0  0  0
  9  5  1  0  0  0  0
  9  8  2  0  0  0  0
 10  9  1  0  0  0  0
 11 10  2  0  0  0  0
 11 15  1  0  0  0  0
 12 13  1  0  0  0  0
 12 11  1  0  0  0  0
 13 14  2  0  0  0  0
 14 15  1  0  0  0  0
 15 16  2  0  0  0  0
 16  8  1  0  0  0  0
 16 21  1  0  0  0  0
 18 10  1  0  0  0  0
 19 12  1  0  0  0  0
 20 13  1  0  0  0  0
 22  3  1  0  0  0  0
 22 25  1  0  0  0  0
 23 22  1  0  0  0  0
 24 22  1  0  0  0  0
 27 28  2  0  0  0  0
 27 26  1  0  0  0  0
 28 32  1  0  0  0  0
 29 28  1  0  0  0  0
 30 29  1  0  0  0  0
 30 31  2  0  0  0  0
 31 27  1  0  0  0  0
 33 39  1  6  0  0  0
 33 34  1  0  0  0  0
 34 30  1  6  0  0  0
 35 34  1  0  0  0  0
 36 37  1  0  0  0  0
 36 35  1  0  0  0  0
 37 41  1  6  0  0  0
 38 37  1  0  0  0  0
 38 33  1  0  0  0  0
 38 43  1  1  0  0  0
 40 39  1  0  0  0  0
 42 41  1  0  0  0  0
 43 44  1  0  0  0  0
M  END
>  <minimizedAffinity>
-7.16797495

$$$$

 OpenBabel03242513103D

 44 48  0  0  1  0  0  0  0  0999 V2000
   37.3060   29.1190   39.9110 C   0  0  0  0  0  0  0  0  0  0  0  0
   37.7790   29.1930   41.2280 C   0  0  0  0  0  0  0  0  0  0  0  0
   37.8130   28.0300   41.9650 C   0  0  0  0  0  0  0  0  0  0  0  0
   37.3830   26.8830   41.3580 N   0  0  0  0  0  0  0  0  0  0  0  0
   36.9320   26.8210   40.0980 C   0  0  0  0  0  0  0  0  0  0  0  0
   36.8930   27.9540   39.3640 N   0  0  0  0  0  0  0  0  0  0  0  0
   37.2670   30.0120   39.3100 H   0  0  0  0  0  0  0  0  0  0  0  0
   36.6000   24.4030   40.2640 C   0  0  0  0  0  0  0  0  0  0  0  0
   36.4980   25.5550   39.5470 C   0  0  0  0  0  0  0  0  0  0  0  0
   35.9710   25.5800   38.2490 C   0  0  0  0  0  0  0  0  0  0  0  0
   35.5310   24.4120   37.6460 C   0  0  0  0  0  0  0  0  0  0  0  0
   34.9830   24.0720   36.4430 N   0  0  0  0  0  0  0  0  0  0  0  0
   34.7700   22.7150   36.4690 C   0  0  0  0  0  0  0  0  0  0  0  0
   35.1830   22.2550   37.6650 N   0  0  0  0  0  0  0  0  0  0  0  0
   35.6530   23.2740   38.4050 C   0  0  0  0  0  0  0  0  0  0  0  0
   36.1650   23.2150   39.6780 C   0  0  0  0  0  0  0  0  0  0  0  0
   36.9970   24.3530   41.2540 H   0  0  0  0  0  0  0  0  0  0  0  0
   35.8880   26.4930   37.6770 H   0  0  0  0  0  0  0  0  0  0  0  0
   34.8240   24.8350   35.7450 H   0  0  0  0  0  0  0  0  0  0  0  0
   34.3330   22.3540   35.5470 H   0  0  0  0  0  0  0  0  0  0  0  0
   36.2320   22.2860   40.2200 H   0  0  0  0  0  0  0  0  0  0  0  0
   38.3040   28.0550   43.3600 C   0  0  0  0  0  0  0  0  0  0  0  0
   39.5890   28.6340   43.4190 F   0  0  0  0  0  0  0  0  0  0  0  0
   37.4950   28.8490   44.1380 F   0  0  0  0  0  0  0  0  0  0  0  0
   38.3500   26.7800   43.8190 F   0  0  0  0  0  0  0  0  0  0  0  0
   38.1780   30.3880   41.7210 O   0  0  0  0  0  0  0  0  0  0  0  0
   38.9110   31.2760   41.0000 C   0  0  0  0  0  0  0  0  0  0  0  0
   38.1510   32.4460   40.9890 C   0  0  0  0  0  0  0  0  0  0  0  0
   39.1390   33.6340   40.0120 S   0  0  0  0  0  0  0  0  0  0  0  0
   40.4740   32.3400   39.7510 C   0  0  0  0  0  0  0  0  0  0  0  0
   40.0010   31.5050   40.3180 N   0  0  0  0  0  0  0  0  0  0  0  0
   37.0640   32.9180   41.4150 H   0  0  0  0  0  0  0  0  0  0  0  0
   41.4540   33.4610   37.8280 C   0  0  1  0  0  3  0  0  0  0  0  0
   41.7490   32.5330   38.9830 C   0  0  2  0  0  3  0  0  0  0  0  0
   42.1700   31.3110   38.4690 O   0  0  0  0  0  0  0  0  0  0  0  0
   43.4170   31.4760   37.8800 C   0  0  0  0  0  2  0  0  0  0  0  0
   43.8280   32.9060   37.7340 C   0  0  2  0  0  3  0  0  0  0  0  0
   42.7770   33.8130   37.1830 C   0  0  2  0  0  3  0  0  0  0  0  0
   40.6480   32.7580   36.9340 O   0  0  0  0  0  0  0  0  0  0  0  0
   40.7630   31.7780   37.0100 H   0  0  0  0  0  0  0  0  0  0  0  0
   44.8870   32.9110   36.7970 O   0  0  0  0  0  0  0  0  0  0  0  0
   45.0210   33.8360   36.4150 H   0  0  0  0  0  0  0  0  0  0  0  0
   43.0630   35.1400   37.5670 O   0  0  0  0  0  0  0  0  0  0  0  0
   42.2210   35.6780   37.4980 H   0  0  0  0  0  0  0  0  0  0  0  0
  1  2  1  0  0  0  0
  2 26  1  0  0  0  0
  2  3  2  0  0  0  0
  3 22  1  0  0  0  0
  4  3  1  0  0  0  0
  5  4  2  0  0  0  0
  6  1  2  0  0  0  0
  6  5  1  0  0  0  0
  7  1  1  0  0  0  0
  8 17  1  0  0  0  0
  9  5  1  0  0  0  0
  9  8  2  0  0  0  0
 10  9  1  0  0  0  0
 11 10  2  0  0  0  0
 11 15  1  0  0  0  0
 12 13  1  0  0  0  0
 12 11  1  0  0  0  0
 13 14  2  0  0  0  0
 14 15  1  0  0  0  0
 15 16  2  0  0  0  0
 16 21  1  0  0  0  0
 16  8  1  0  0  0  0
 18 10  1  0  0  0  0
 19 12  1  0  0  0  0
 20 13  1  0  0  0  0
 22 23  1  0  0  0  0
 22 25  1  0  0  0  0
 22 24  1  0  0  0  0
 27 26  1  0  0  0  0
 28 27  2  0  0  0  0
 28 32  1  0  0  0  0
 29 28  1  0  0  0  0
 30 29  1  0  0  0  0
 30 31  2  0  0  0  0
 31 27  1  0  0  0  0
 33 39  1  6  0  0  0
 33 34  1  0  0  0  0
 34 30  1  6  0  0  0
 35 34  1  0  0  0  0
 36 35  1  0  0  0  0
 37 41  1  6  0  0  0
 37 36  1  0  0  0  0
 38 43  1  1  0  0  0
 38 37  1  0  0  0  0
 38 33  1  0  0  0  0
 39 40  1  0  0  0  0
 42 41  1  0  0  0  0
 44 43  1  0  0  0  0
M  END
>  <minimizedAffinity>
-7.15080786

$$$$

 OpenBabel03242513103D

 44 48  0  0  1  0  0  0  0  0999 V2000
   37.9740   30.1210   40.8080 C   0  0  0  0  0  0  0  0  0  0  0  0
   38.0010   29.4810   42.0550 C   0  0  0  0  0  0  0  0  0  0  0  0
   37.1700   28.3990   42.2400 C   0  0  0  0  0  0  0  0  0  0  0  0
   36.3760   28.0240   41.1920 N   0  0  0  0  0  0  0  0  0  0  0  0
   36.3560   28.6410   40.0030 C   0  0  0  0  0  0  0  0  0  0  0  0
   37.1660   29.7040   39.8080 N   0  0  0  0  0  0  0  0  0  0  0  0
   38.6130   30.9700   40.6330 H   0  0  0  0  0  0  0  0  0  0  0  0
   35.7370   27.0090   38.2890 C   0  0  0  0  0  0  0  0  0  0  0  0
   35.4770   28.1670   38.9560 C   0  0  0  0  0  0  0  0  0  0  0  0
   34.3540   28.9540   38.6710 C   0  0  0  0  0  0  0  0  0  0  0  0
   33.4600   28.5720   37.6820 C   0  0  0  0  0  0  0  0  0  0  0  0
   32.3050   29.0730   37.1540 N   0  0  0  0  0  0  0  0  0  0  0  0
   31.8990   28.1970   36.1770 C   0  0  0  0  0  0  0  0  0  0  0  0
   32.7960   27.1940   36.1230 N   0  0  0  0  0  0  0  0  0  0  0  0
   33.7610   27.3990   37.0350 C   0  0  0  0  0  0  0  0  0  0  0  0
   34.8530   26.6040   37.2900 C   0  0  0  0  0  0  0  0  0  0  0  0
   36.5840   26.3880   38.4850 H   0  0  0  0  0  0  0  0  0  0  0  0
   34.1440   29.8740   39.1980 H   0  0  0  0  0  0  0  0  0  0  0  0
   31.9380   29.9720   37.5430 H   0  0  0  0  0  0  0  0  0  0  0  0
   30.9820   28.5160   35.6990 H   0  0  0  0  0  0  0  0  0  0  0  0
   35.0300   25.6930   36.7440 H   0  0  0  0  0  0  0  0  0  0  0  0
   37.1610   27.6890   43.5370 C   0  0  0  0  0  0  0  0  0  0  0  0
   36.9550   28.6010   44.5940 F   0  0  0  0  0  0  0  0  0  0  0  0
   36.1110   26.8030   43.5910 F   0  0  0  0  0  0  0  0  0  0  0  0
   38.3550   27.0660   43.6910 F   0  0  0  0  0  0  0  0  0  0  0  0
   38.8310   29.9450   43.0180 O   0  0  0  0  0  0  0  0  0  0  0  0
   40.1200   30.2960   42.7740 C   0  0  0  0  0  0  0  0  0  0  0  0
   40.8200   29.0900   42.7300 C   0  0  0  0  0  0  0  0  0  0  0  0
   42.5550   29.5690   42.4090 S   0  0  0  0  0  0  0  0  0  0  0  0
   42.0690   31.3830   42.3800 C   0  0  0  0  0  0  0  0  0  0  0  0
   40.9780   31.2600   42.5700 N   0  0  0  0  0  0  0  0  0  0  0  0
   40.6470   27.8470   42.8350 H   0  0  0  0  0  0  0  0  0  0  0  0
   42.2360   33.5980   41.3890 C   0  0  1  0  0  3  0  0  0  0  0  0
   42.9980   32.5390   42.1510 C   0  0  2  0  0  3  0  0  0  0  0  0
   44.0730   32.1230   41.3720 O   0  0  0  0  0  0  0  0  0  0  0  0
   44.9920   33.1600   41.2830 C   0  0  0  0  0  2  0  0  0  0  0  0
   44.4800   34.4640   41.8040 C   0  0  2  0  0  3  0  0  0  0  0  0
   43.1090   34.8350   41.3420 C   0  0  2  0  0  3  0  0  0  0  0  0
   42.0240   33.1030   40.1030 O   0  0  0  0  0  0  0  0  0  0  0  0
   42.6950   32.4250   39.8420 H   0  0  0  0  0  0  0  0  0  0  0  0
   45.3500   35.4550   41.2940 O   0  0  0  0  0  0  0  0  0  0  0  0
   44.9190   36.3660   41.3390 H   0  0  0  0  0  0  0  0  0  0  0  0
   42.5440   35.7510   42.2550 O   0  0  0  0  0  0  0  0  0  0  0  0
   41.5490   35.7360   42.1440 H   0  0  0  0  0  0  0  0  0  0  0  0
  1  2  1  0  0  0  0
  2  3  2  0  0  0  0
  2 26  1  0  0  0  0
  3 22  1  0  0  0  0
  4  3  1  0  0  0  0
  5  4  2  0  0  0  0
  6  5  1  0  0  0  0
  6  1  2  0  0  0  0
  7  1  1  0  0  0  0
  8 17  1  0  0  0  0
  8  9  1  0  0  0  0
  9  5  1  0  0  0  0
 10  9  2  0  0  0  0
 10 18  1  0  0  0  0
 11 10  1  0  0  0  0
 12 19  1  0  0  0  0
 12 11  1  0  0  0  0
 13 12  1  0  0  0  0
 14 13  2  0  0  0  0
 14 15  1  0  0  0  0
 15 16  1  0  0  0  0
 15 11  2  0  0  0  0
 16  8  2  0  0  0  0
 20 13  1  0  0  0  0
 21 16  1  0  0  0  0
 22 24  1  0  0  0  0
 22 25  1  0  0  0  0
 22 23  1  0  0  0  0
 27 26  1  0  0  0  0
 28 27  2  0  0  0  0
 28 32  1  0  0  0  0
 29 28  1  0  0  0  0
 30 29  1  0  0  0  0
 30 31  2  0  0  0  0
 31 27  1  0  0  0  0
 33 39  1  6  0  0  0
 33 34  1  0  0  0  0
 34 30  1  6  0  0  0
 35 34  1  0  0  0  0
 36 35  1  0  0  0  0
 36 37  1  0  0  0  0
 37 41  1  6  0  0  0
 38 33  1  0  0  0  0
 38 37  1  0  0  0  0
 38 43  1  1  0  0  0
 40 39  1  0  0  0  0
 41 42  1  0  0  0  0
 44 43  1  0  0  0  0
M  END
>  <minimizedAffinity>
-7.11773348

$$$$
