
 OpenBabel03242521143D

 31 33  0  0  1  0  0  0  0  0999 V2000
   44.4590   35.7430   44.8910 C   0  0  0  0  0  0  0  0  0  0  0  0
   45.0730   35.6860   43.6100 C   0  0  0  0  0  0  0  0  0  0  0  0
   46.0270   34.6810   43.4140 C   0  0  0  0  0  0  0  0  0  0  0  0
   46.2990   33.8400   44.4470 N   0  0  0  0  0  0  0  0  0  0  0  0
   45.7020   33.9250   45.6340 C   0  0  0  0  0  0  0  0  0  0  0  0
   44.7690   34.8820   45.8760 N   0  0  0  0  0  0  0  0  0  0  0  0
   43.7150   36.5330   45.0340 H   0  0  0  0  0  0  0  0  0  0  0  0
   44.7700   36.4120   42.8730 H   0  0  0  0  0  0  0  0  0  0  0  0
   46.6500   34.6080   42.1440 N   0  0  0  0  0  0  0  0  0  0  0  0
   47.8720   35.1400   42.0020 C   0  0  0  0  0  0  0  0  0  0  0  0
   48.4910   35.0710   40.7540 C   0  0  0  0  0  0  0  0  0  0  0  0
   47.8090   34.4550   39.7250 C   0  0  0  0  0  0  0  0  0  0  0  0
   48.3840   34.3990   38.5910 O   0  0  0  0  0  0  0  0  0  0  0  0
   46.5780   33.9150   39.8530 N   0  0  0  0  0  0  0  0  0  0  0  0
   46.0460   34.0200   41.0870 C   0  0  0  0  0  0  0  0  0  0  0  0
   44.9120   33.5540   41.3110 O   0  0  0  0  0  0  0  0  0  0  0  0
   48.3800   35.6170   42.8370 H   0  0  0  0  0  0  0  0  0  0  0  0
   49.4750   35.4840   40.5860 H   0  0  0  0  0  0  0  0  0  0  0  0
   46.0670   33.4510   39.0710 H   0  0  0  0  0  0  0  0  0  0  0  0
   45.3230   31.6530   46.5530 C   0  0  2  0  0  0  0  0  0  0  0  0
   46.0380   32.9850   46.7160 C   0  0  1  0  0  0  0  0  0  0  0  0
   47.3970   32.6740   46.7950 O   0  0  0  0  0  0  0  0  0  0  0  0
   47.6800   32.3020   48.1280 C   0  0  0  0  0  0  0  0  0  0  0  0
   46.5320   31.5590   48.7550 C   0  0  1  0  0  0  0  0  0  0  0  0
   45.7780   30.7880   47.6940 C   0  0  1  0  0  0  0  0  0  0  0  0
   45.6230   31.0510   45.3330 O   0  0  0  0  0  0  0  0  0  0  0  0
   46.6000   31.0040   45.1500 H   0  0  0  0  0  0  0  0  0  0  0  0
   47.0640   30.5960   49.6420 O   0  0  0  0  0  0  0  0  0  0  0  0
   47.5790   29.8960   49.1760 H   0  0  0  0  0  0  0  0  0  0  0  0
   44.7520   30.0450   48.2470 O   0  0  0  0  0  0  0  0  0  0  0  0
   44.4720   29.3040   47.6520 H   0  0  0  0  0  0  0  0  0  0  0  0
  1  7  1  0  0  0  0
  1  6  1  0  0  0  0
  2  1  2  0  0  0  0
  3  2  1  0  0  0  0
  3  4  2  0  0  0  0
  4  5  1  0  0  0  0
  5  6  2  0  0  0  0
  8  2  1  0  0  0  0
  9  3  1  0  0  0  0
 10  9  1  0  0  0  0
 10 17  1  0  0  0  0
 11 10  2  0  0  0  0
 12 14  1  0  0  0  0
 12 11  1  0  0  0  0
 13 12  2  0  0  0  0
 14 15  1  0  0  0  0
 15 16  2  0  0  0  0
 15  9  1  0  0  0  0
 18 11  1  0  0  0  0
 19 14  1  0  0  0  0
 20 26  1  6  0  0  0
 20 21  1  0  0  0  0
 20 25  1  0  0  0  0
 21  5  1  6  0  0  0
 21 22  1  0  0  0  0
 22 23  1  0  0  0  0
 23 24  1  0  0  0  0
 24 28  1  1  0  0  0
 25 30  1  1  0  0  0
 25 24  1  0  0  0  0
 27 26  1  0  0  0  0
 29 28  1  0  0  0  0
 31 30  1  0  0  0  0
M  END
>  <minimizedAffinity>
-7.05666065

>  <minimizedRMSD>
0.656074107

$$$$
