
 OpenBabel03242515273D

 34 36  0  0  1  0  0  0  0  0999 V2000
   40.1060   28.2830   41.7860 C   0  0  0  0  0  0  0  0  0  0  0  0
   38.9180   28.4130   42.5260 C   0  0  0  0  0  0  0  0  0  0  0  0
   38.1350   29.5150   42.2720 C   0  0  0  0  0  0  0  0  0  0  0  0
   38.5390   30.4060   41.3390 N   0  0  0  0  0  0  0  0  0  0  0  0
   39.6870   30.2460   40.6510 C   0  0  0  0  0  0  0  0  0  0  0  0
   40.5010   29.1960   40.8450 N   0  0  0  0  0  0  0  0  0  0  0  0
   40.7990   27.4480   41.9090 H   0  0  0  0  0  0  0  0  0  0  0  0
   37.2350   29.5990   42.8430 H   0  0  0  0  0  0  0  0  0  0  0  0
   40.9120   32.3660   40.2290 C   0  0  1  0  0  3  0  0  0  0  0  0
   40.0650   31.2750   39.6350 C   0  0  1  0  0  3  0  0  0  0  0  0
   40.7880   30.7470   38.5740 O   0  0  0  0  0  0  0  0  0  0  0  0
   40.7180   31.6390   37.5240 C   0  0  0  0  0  2  0  0  0  0  0  0
   41.1700   33.0280   37.8280 C   0  0  1  0  0  3  0  0  0  0  0  0
   40.8850   33.5080   39.2170 C   0  0  1  0  0  3  0  0  0  0  0  0
   40.4180   32.8260   41.4420 O   0  0  0  0  0  0  0  0  0  0  0  0
   39.4310   32.8500   41.4230 H   0  0  0  0  0  0  0  0  0  0  0  0
   42.5180   33.1950   37.4740 O   0  0  0  0  0  0  0  0  0  0  0  0
   42.7700   34.0670   37.9160 H   0  0  0  0  0  0  0  0  0  0  0  0
   39.5860   34.0240   39.2560 O   0  0  0  0  0  0  0  0  0  0  0  0
   39.0580   33.7020   38.4780 H   0  0  0  0  0  0  0  0  0  0  0  0
   38.6560   27.3440   43.4890 C   0  0  0  0  0  0  0  0  0  0  0  0
   37.7430   27.6680   44.0700 H   0  0  0  0  0  0  0  0  0  0  0  0
   39.4450   27.2460   44.2280 H   0  0  0  0  0  0  0  0  0  0  0  0
   38.3530   26.1200   42.7610 N   0  0  0  0  0  0  0  0  0  0  0  0
   37.2430   26.0390   42.0280 C   0  0  0  0  0  0  0  0  0  0  0  0
   36.9870   24.8540   41.3470 C   0  0  0  0  0  0  0  0  0  0  0  0
   37.8560   23.8060   41.4330 C   0  0  0  0  0  0  0  0  0  0  0  0
   37.6280   22.7260   40.8160 O   0  0  0  0  0  0  0  0  0  0  0  0
   38.9700   23.9220   42.1830 N   0  0  0  0  0  0  0  0  0  0  0  0
   39.2260   25.0770   42.8510 C   0  0  0  0  0  0  0  0  0  0  0  0
   40.2820   25.1220   43.5340 O   0  0  0  0  0  0  0  0  0  0  0  0
   36.5240   26.8480   41.9310 H   0  0  0  0  0  0  0  0  0  0  0  0
   36.1100   24.7080   40.7320 H   0  0  0  0  0  0  0  0  0  0  0  0
   39.6640   23.1250   42.2700 H   0  0  0  0  0  0  0  0  0  0  0  0
  1  7  1  0  0  0  0
  1  2  1  0  0  0  0
  2 21  1  0  0  0  0
  3  2  2  0  0  0  0
  3  8  1  0  0  0  0
  4  3  1  0  0  0  0
  5  6  1  0  0  0  0
  5  4  2  0  0  0  0
  6  1  2  0  0  0  0
  9 15  1  1  0  0  0
 10  9  1  0  0  0  0
 10  5  1  1  0  0  0
 11 10  1  0  0  0  0
 12 13  1  0  0  0  0
 12 11  1  0  0  0  0
 13 17  1  1  0  0  0
 13 14  1  0  0  0  0
 14 19  1  6  0  0  0
 14  9  1  0  0  0  0
 16 15  1  0  0  0  0
 17 18  1  0  0  0  0
 20 19  1  0  0  0  0
 21 22  1  0  0  0  0
 21 23  1  0  0  0  0
 24 30  1  0  0  0  0
 24 21  1  0  0  0  0
 25 24  1  0  0  0  0
 26 27  1  0  0  0  0
 26 25  2  0  0  0  0
 27 29  1  0  0  0  0
 28 27  2  0  0  0  0
 29 34  1  0  0  0  0
 29 30  1  0  0  0  0
 30 31  2  0  0  0  0
 32 25  1  0  0  0  0
 33 26  1  0  0  0  0
M  END
>  <minimizedAffinity>
-5.88971949

$$$$

 OpenBabel03242515273D

 34 36  0  0  1  0  0  0  0  0999 V2000
   36.9110   28.5370   42.3540 C   0  0  0  0  0  0  0  0  0  0  0  0
   37.9070   27.5490   42.4520 C   0  0  0  0  0  0  0  0  0  0  0  0
   39.1420   27.8440   41.9230 C   0  0  0  0  0  0  0  0  0  0  0  0
   39.3370   29.0490   41.3420 N   0  0  0  0  0  0  0  0  0  0  0  0
   38.3550   29.9700   41.2670 C   0  0  0  0  0  0  0  0  0  0  0  0
   37.1260   29.7530   41.7620 N   0  0  0  0  0  0  0  0  0  0  0  0
   35.8990   28.4060   42.7400 H   0  0  0  0  0  0  0  0  0  0  0  0
   39.8870   27.0820   42.0060 H   0  0  0  0  0  0  0  0  0  0  0  0
   39.8990   31.9140   41.1520 C   0  0  1  0  0  3  0  0  0  0  0  0
   38.6490   31.2800   40.6090 C   0  0  1  0  0  3  0  0  0  0  0  0
   38.8260   31.1680   39.2370 O   0  0  0  0  0  0  0  0  0  0  0  0
   38.6630   32.4200   38.6820 C   0  0  0  0  0  2  0  0  0  0  0  0
   39.5420   33.4910   39.2390 C   0  0  1  0  0  3  0  0  0  0  0  0
   39.8540   33.3710   40.6990 C   0  0  1  0  0  3  0  0  0  0  0  0
   39.9600   31.8740   42.5380 O   0  0  0  0  0  0  0  0  0  0  0  0
   39.0630   32.0180   42.9250 H   0  0  0  0  0  0  0  0  0  0  0  0
   40.6980   33.6340   38.4580 O   0  0  0  0  0  0  0  0  0  0  0  0
   41.3010   34.2030   39.0340 H   0  0  0  0  0  0  0  0  0  0  0  0
   38.8230   33.9680   41.4300 O   0  0  0  0  0  0  0  0  0  0  0  0
   38.0090   34.0670   40.8690 H   0  0  0  0  0  0  0  0  0  0  0  0
   37.5000   26.3110   43.1160 C   0  0  0  0  0  0  0  0  0  0  0  0
   36.4080   26.4430   43.3740 H   0  0  0  0  0  0  0  0  0  0  0  0
   38.0030   26.1640   44.0670 H   0  0  0  0  0  0  0  0  0  0  0  0
   37.6410   25.2070   42.1780 N   0  0  0  0  0  0  0  0  0  0  0  0
   36.7790   25.0740   41.1710 C   0  0  0  0  0  0  0  0  0  0  0  0
   36.9460   24.0060   40.2960 C   0  0  0  0  0  0  0  0  0  0  0  0
   37.9700   23.1220   40.4710 C   0  0  0  0  0  0  0  0  0  0  0  0
   38.1260   22.1500   39.6780 O   0  0  0  0  0  0  0  0  0  0  0  0
   38.8250   23.2860   41.5010 N   0  0  0  0  0  0  0  0  0  0  0  0
   38.6670   24.3270   42.3590 C   0  0  0  0  0  0  0  0  0  0  0  0
   39.4980   24.4250   43.2990 O   0  0  0  0  0  0  0  0  0  0  0  0
   35.9490   25.7540   40.9940 H   0  0  0  0  0  0  0  0  0  0  0  0
   36.2900   23.8280   39.4560 H   0  0  0  0  0  0  0  0  0  0  0  0
   39.6300   22.6160   41.6630 H   0  0  0  0  0  0  0  0  0  0  0  0
  1  2  1  0  0  0  0
  1  7  1  0  0  0  0
  2 21  1  0  0  0  0
  3  8  1  0  0  0  0
  3  2  2  0  0  0  0
  4  3  1  0  0  0  0
  5  4  2  0  0  0  0
  5  6  1  0  0  0  0
  6  1  2  0  0  0  0
  9 15  1  1  0  0  0
 10  9  1  0  0  0  0
 10  5  1  1  0  0  0
 11 10  1  0  0  0  0
 12 11  1  0  0  0  0
 12 13  1  0  0  0  0
 13 17  1  6  0  0  0
 13 14  1  0  0  0  0
 14  9  1  0  0  0  0
 14 19  1  1  0  0  0
 15 16  1  0  0  0  0
 17 18  1  0  0  0  0
 20 19  1  0  0  0  0
 21 22  1  0  0  0  0
 21 23  1  0  0  0  0
 24 30  1  0  0  0  0
 24 21  1  0  0  0  0
 25 24  1  0  0  0  0
 26 27  1  0  0  0  0
 26 25  2  0  0  0  0
 27 29  1  0  0  0  0
 28 27  2  0  0  0  0
 29 34  1  0  0  0  0
 29 30  1  0  0  0  0
 30 31  2  0  0  0  0
 32 25  1  0  0  0  0
 33 26  1  0  0  0  0
M  END
>  <minimizedAffinity>
-5.81837034

$$$$

 OpenBabel03242515273D

 34 36  0  0  1  0  0  0  0  0999 V2000
   39.2060   29.9050   39.7380 C   0  0  0  0  0  0  0  0  0  0  0  0
   38.9330   30.2760   41.0670 C   0  0  0  0  0  0  0  0  0  0  0  0
   39.7150   31.2630   41.6190 C   0  0  0  0  0  0  0  0  0  0  0  0
   40.6930   31.8210   40.8720 N   0  0  0  0  0  0  0  0  0  0  0  0
   40.9240   31.4380   39.6010 C   0  0  0  0  0  0  0  0  0  0  0  0
   40.2010   30.4810   38.9960 N   0  0  0  0  0  0  0  0  0  0  0  0
   38.6470   29.1340   39.2050 H   0  0  0  0  0  0  0  0  0  0  0  0
   39.4940   31.5320   42.6300 H   0  0  0  0  0  0  0  0  0  0  0  0
   41.9790   33.5990   38.9760 C   0  0  1  0  0  3  0  0  0  0  0  0
   42.0240   32.1030   38.8380 C   0  0  1  0  0  3  0  0  0  0  0  0
   43.2880   31.7060   39.2560 O   0  0  0  0  0  0  0  0  0  0  0  0
   44.1850   32.0190   38.2560 C   0  0  0  0  0  2  0  0  0  0  0  0
   44.1990   33.4490   37.8280 C   0  0  1  0  0  3  0  0  0  0  0  0
   42.8740   34.1450   37.8670 C   0  0  1  0  0  3  0  0  0  0  0  0
   40.6990   34.1120   38.8170 O   0  0  0  0  0  0  0  0  0  0  0  0
   40.2150   33.6140   38.1150 H   0  0  0  0  0  0  0  0  0  0  0  0
   45.1930   34.1590   38.5180 O   0  0  0  0  0  0  0  0  0  0  0  0
   44.9690   35.1250   38.3230 H   0  0  0  0  0  0  0  0  0  0  0  0
   42.1980   33.8910   36.6700 O   0  0  0  0  0  0  0  0  0  0  0  0
   42.5890   33.1030   36.2070 H   0  0  0  0  0  0  0  0  0  0  0  0
   37.8340   29.5540   41.7070 C   0  0  0  0  0  0  0  0  0  0  0  0
   37.0550   29.4000   40.9030 H   0  0  0  0  0  0  0  0  0  0  0  0
   37.3400   30.1420   42.4740 H   0  0  0  0  0  0  0  0  0  0  0  0
   38.3210   28.2580   42.1570 N   0  0  0  0  0  0  0  0  0  0  0  0
   39.2480   28.1900   43.1110 C   0  0  0  0  0  0  0  0  0  0  0  0
   39.6890   26.9340   43.5140 C   0  0  0  0  0  0  0  0  0  0  0  0
   39.1790   25.8060   42.9420 C   0  0  0  0  0  0  0  0  0  0  0  0
   39.5770   24.6620   43.3050 O   0  0  0  0  0  0  0  0  0  0  0  0
   38.2410   25.9110   41.9790 N   0  0  0  0  0  0  0  0  0  0  0  0
   37.8070   27.1340   41.5800 C   0  0  0  0  0  0  0  0  0  0  0  0
   36.9300   27.1650   40.6770 O   0  0  0  0  0  0  0  0  0  0  0  0
   39.6820   29.0620   43.5940 H   0  0  0  0  0  0  0  0  0  0  0  0
   40.4380   26.7930   44.2810 H   0  0  0  0  0  0  0  0  0  0  0  0
   37.8270   25.0520   41.5150 H   0  0  0  0  0  0  0  0  0  0  0  0
  1  2  1  0  0  0  0
  2  3  2  0  0  0  0
  2 21  1  0  0  0  0
  3  8  1  0  0  0  0
  4  3  1  0  0  0  0
  5  4  2  0  0  0  0
  6  5  1  0  0  0  0
  6  1  2  0  0  0  0
  7  1  1  0  0  0  0
  9 15  1  6  0  0  0
 10  9  1  0  0  0  0
 10 11  1  0  0  0  0
 10  5  1  1  0  0  0
 12 11  1  0  0  0  0
 13 14  1  0  0  0  0
 13 12  1  0  0  0  0
 13 17  1  1  0  0  0
 14 19  1  6  0  0  0
 14  9  1  0  0  0  0
 16 15  1  0  0  0  0
 18 17  1  0  0  0  0
 20 19  1  0  0  0  0
 21 24  1  0  0  0  0
 21 23  1  0  0  0  0
 22 21  1  0  0  0  0
 24 25  1  0  0  0  0
 25 26  2  0  0  0  0
 25 32  1  0  0  0  0
 26 33  1  0  0  0  0
 27 28  2  0  0  0  0
 27 26  1  0  0  0  0
 29 27  1  0  0  0  0
 30 29  1  0  0  0  0
 30 24  1  0  0  0  0
 31 30  2  0  0  0  0
 34 29  1  0  0  0  0
M  END
>  <minimizedAffinity>
-5.71123171

$$$$

 OpenBabel03242515273D

 34 36  0  0  1  0  0  0  0  0999 V2000
   40.3700   31.8420   40.7280 C   0  0  0  0  0  0  0  0  0  0  0  0
   40.0310   33.1730   40.4300 C   0  0  0  0  0  0  0  0  0  0  0  0
   38.7690   33.4080   39.9380 C   0  0  0  0  0  0  0  0  0  0  0  0
   37.9270   32.3650   39.7650 N   0  0  0  0  0  0  0  0  0  0  0  0
   38.2900   31.1000   40.0620 C   0  0  0  0  0  0  0  0  0  0  0  0
   39.5050   30.7960   40.5470 N   0  0  0  0  0  0  0  0  0  0  0  0
   41.3440   31.5460   41.1230 H   0  0  0  0  0  0  0  0  0  0  0  0
   38.5280   34.4260   39.7170 H   0  0  0  0  0  0  0  0  0  0  0  0
   35.9010   30.4250   40.1840 C   0  0  1  0  0  3  0  0  0  0  0  0
   37.3020   30.0000   39.8440 C   0  0  1  0  0  3  0  0  0  0  0  0
   37.2720   29.5530   38.5290 O   0  0  0  0  0  0  0  0  0  0  0  0
   36.6830   28.3070   38.5160 C   0  0  0  0  0  2  0  0  0  0  0  0
   35.3240   28.2290   39.1280 C   0  0  1  0  0  3  0  0  0  0  0  0
   35.0930   29.1360   40.2970 C   0  0  1  0  0  3  0  0  0  0  0  0
   35.8290   31.1110   41.3880 O   0  0  0  0  0  0  0  0  0  0  0  0
   36.4540   30.7190   42.0440 H   0  0  0  0  0  0  0  0  0  0  0  0
   34.3330   28.3680   38.1440 O   0  0  0  0  0  0  0  0  0  0  0  0
   33.4910   28.5230   38.6790 H   0  0  0  0  0  0  0  0  0  0  0  0
   35.5470   28.4990   41.4550 O   0  0  0  0  0  0  0  0  0  0  0  0
   36.1650   27.7550   41.2260 H   0  0  0  0  0  0  0  0  0  0  0  0
   41.0800   34.1610   40.6860 C   0  0  0  0  0  0  0  0  0  0  0  0
   41.4790   33.9270   41.7170 H   0  0  0  0  0  0  0  0  0  0  0  0
   40.6920   35.1730   40.7520 H   0  0  0  0  0  0  0  0  0  0  0  0
   42.1420   33.9810   39.7080 N   0  0  0  0  0  0  0  0  0  0  0  0
   41.8920   34.1610   38.4120 C   0  0  0  0  0  0  0  0  0  0  0  0
   42.9330   33.9810   37.5070 C   0  0  0  0  0  0  0  0  0  0  0  0
   44.1760   33.6280   37.9450 C   0  0  0  0  0  0  0  0  0  0  0  0
   45.1250   33.4630   37.1260 O   0  0  0  0  0  0  0  0  0  0  0  0
   44.3950   33.4540   39.2640 N   0  0  0  0  0  0  0  0  0  0  0  0
   43.3820   33.6290   40.1520 C   0  0  0  0  0  0  0  0  0  0  0  0
   43.6510   33.4520   41.3690 O   0  0  0  0  0  0  0  0  0  0  0  0
   40.9180   34.4420   38.0190 H   0  0  0  0  0  0  0  0  0  0  0  0
   42.8120   34.1070   36.4400 H   0  0  0  0  0  0  0  0  0  0  0  0
   45.3500   33.1800   39.6340 H   0  0  0  0  0  0  0  0  0  0  0  0
  1  7  1  0  0  0  0
  2 21  1  0  0  0  0
  2  1  2  0  0  0  0
  3  2  1  0  0  0  0
  4  3  2  0  0  0  0
  4  5  1  0  0  0  0
  5  6  2  0  0  0  0
  6  1  1  0  0  0  0
  8  3  1  0  0  0  0
  9 14  1  0  0  0  0
  9 15  1  1  0  0  0
 10  5  1  6  0  0  0
 10  9  1  0  0  0  0
 11 10  1  0  0  0  0
 12 11  1  0  0  0  0
 12 13  1  0  0  0  0
 13 17  1  6  0  0  0
 13 14  1  0  0  0  0
 14 19  1  1  0  0  0
 15 16  1  0  0  0  0
 17 18  1  0  0  0  0
 20 19  1  0  0  0  0
 21 23  1  0  0  0  0
 21 22  1  0  0  0  0
 24 30  1  0  0  0  0
 24 21  1  0  0  0  0
 25 24  1  0  0  0  0
 26 27  1  0  0  0  0
 26 25  2  0  0  0  0
 27 29  1  0  0  0  0
 28 27  2  0  0  0  0
 29 34  1  0  0  0  0
 29 30  1  0  0  0  0
 30 31  2  0  0  0  0
 32 25  1  0  0  0  0
 33 26  1  0  0  0  0
M  END
>  <minimizedAffinity>
-5.62153006

$$$$

 OpenBabel03242515273D

 34 36  0  0  1  0  0  0  0  0999 V2000
   38.2590   30.4570   41.3310 C   0  0  0  0  0  0  0  0  0  0  0  0
   37.4410   29.7370   40.4420 C   0  0  0  0  0  0  0  0  0  0  0  0
   37.7590   29.7930   39.1060 C   0  0  0  0  0  0  0  0  0  0  0  0
   38.8250   30.5260   38.7150 N   0  0  0  0  0  0  0  0  0  0  0  0
   39.5860   31.2030   39.5980 C   0  0  0  0  0  0  0  0  0  0  0  0
   39.3360   31.1950   40.9170 N   0  0  0  0  0  0  0  0  0  0  0  0
   38.0950   30.4810   42.4100 H   0  0  0  0  0  0  0  0  0  0  0  0
   37.1270   29.2400   38.4450 H   0  0  0  0  0  0  0  0  0  0  0  0
   41.3400   31.3830   37.8460 C   0  0  1  0  0  3  0  0  0  0  0  0
   40.7500   31.9910   39.0880 C   0  0  1  0  0  3  0  0  0  0  0  0
   40.4170   33.3000   38.7670 O   0  0  0  0  0  0  0  0  0  0  0  0
   41.5810   34.0390   38.7250 C   0  0  0  0  0  2  0  0  0  0  0  0
   42.6370   33.5250   37.8040 C   0  0  1  0  0  3  0  0  0  0  0  0
   42.7090   32.0340   37.6770 C   0  0  1  0  0  3  0  0  0  0  0  0
   41.5030   30.0090   37.9510 O   0  0  0  0  0  0  0  0  0  0  0  0
   41.7850   29.7650   38.8650 H   0  0  0  0  0  0  0  0  0  0  0  0
   42.5530   34.1610   36.5560 O   0  0  0  0  0  0  0  0  0  0  0  0
   43.1450   33.5950   35.9650 H   0  0  0  0  0  0  0  0  0  0  0  0
   43.5020   31.5330   38.7140 O   0  0  0  0  0  0  0  0  0  0  0  0
   43.5910   32.2040   39.4420 H   0  0  0  0  0  0  0  0  0  0  0  0
   36.3350   29.0060   41.0600 C   0  0  0  0  0  0  0  0  0  0  0  0
   35.4530   29.1330   40.3650 H   0  0  0  0  0  0  0  0  0  0  0  0
   36.0210   29.4430   42.0030 H   0  0  0  0  0  0  0  0  0  0  0  0
   36.6870   27.5960   41.1340 N   0  0  0  0  0  0  0  0  0  0  0  0
   36.5980   26.8290   40.0480 C   0  0  0  0  0  0  0  0  0  0  0  0
   36.9430   25.4860   40.1570 C   0  0  0  0  0  0  0  0  0  0  0  0
   37.3620   24.9750   41.3510 C   0  0  0  0  0  0  0  0  0  0  0  0
   37.6770   23.7550   41.4550 O   0  0  0  0  0  0  0  0  0  0  0  0
   37.4420   25.7790   42.4300 N   0  0  0  0  0  0  0  0  0  0  0  0
   37.1050   27.0910   42.3300 C   0  0  0  0  0  0  0  0  0  0  0  0
   37.2010   27.7890   43.3730 O   0  0  0  0  0  0  0  0  0  0  0  0
   36.2690   27.1940   39.0780 H   0  0  0  0  0  0  0  0  0  0  0  0
   36.8970   24.7990   39.3240 H   0  0  0  0  0  0  0  0  0  0  0  0
   37.7630   25.4110   43.3710 H   0  0  0  0  0  0  0  0  0  0  0  0
  1  7  1  0  0  0  0
  2 21  1  0  0  0  0
  2  1  2  0  0  0  0
  3  2  1  0  0  0  0
  4  3  2  0  0  0  0
  4  5  1  0  0  0  0
  5  6  2  0  0  0  0
  6  1  1  0  0  0  0
  8  3  1  0  0  0  0
  9 15  1  1  0  0  0
  9 10  1  0  0  0  0
 10  5  1  6  0  0  0
 11 10  1  0  0  0  0
 12 11  1  0  0  0  0
 13 17  1  6  0  0  0
 13 12  1  0  0  0  0
 14 13  1  0  0  0  0
 14  9  1  0  0  0  0
 14 19  1  1  0  0  0
 15 16  1  0  0  0  0
 18 17  1  0  0  0  0
 19 20  1  0  0  0  0
 21 24  1  0  0  0  0
 21 23  1  0  0  0  0
 22 21  1  0  0  0  0
 24 30  1  0  0  0  0
 25 26  2  0  0  0  0
 25 24  1  0  0  0  0
 26 27  1  0  0  0  0
 27 28  2  0  0  0  0
 27 29  1  0  0  0  0
 29 34  1  0  0  0  0
 30 29  1  0  0  0  0
 30 31  2  0  0  0  0
 32 25  1  0  0  0  0
 33 26  1  0  0  0  0
M  END
>  <minimizedAffinity>
-5.60278559

$$$$

 OpenBabel03242515273D

 34 36  0  0  1  0  0  0  0  0999 V2000
   38.1230   30.1090   40.6390 C   0  0  0  0  0  0  0  0  0  0  0  0
   37.2020   30.7260   39.7740 C   0  0  0  0  0  0  0  0  0  0  0  0
   36.2130   29.9350   39.2390 C   0  0  0  0  0  0  0  0  0  0  0  0
   36.1730   28.6230   39.5640 N   0  0  0  0  0  0  0  0  0  0  0  0
   37.0750   28.0690   40.3980 C   0  0  0  0  0  0  0  0  0  0  0  0
   38.0680   28.7790   40.9580 N   0  0  0  0  0  0  0  0  0  0  0  0
   38.9450   30.6450   41.1170 H   0  0  0  0  0  0  0  0  0  0  0  0
   35.5220   30.4190   38.5830 H   0  0  0  0  0  0  0  0  0  0  0  0
   37.7060   25.7650   39.7130 C   0  0  1  0  0  3  0  0  0  0  0  0
   36.9650   26.6110   40.7100 C   0  0  1  0  0  3  0  0  0  0  0  0
   37.4730   26.2860   41.9600 O   0  0  0  0  0  0  0  0  0  0  0  0
   36.9560   25.0610   42.3250 C   0  0  0  0  0  2  0  0  0  0  0  0
   37.1900   23.9480   41.3580 C   0  0  1  0  0  3  0  0  0  0  0  0
   37.1910   24.3420   39.9130 C   0  0  1  0  0  3  0  0  0  0  0  0
   37.4670   26.1520   38.4020 O   0  0  0  0  0  0  0  0  0  0  0  0
   36.5250   26.4260   38.2910 H   0  0  0  0  0  0  0  0  0  0  0  0
   38.3380   23.2230   41.7110 O   0  0  0  0  0  0  0  0  0  0  0  0
   38.5210   22.6600   40.8920 H   0  0  0  0  0  0  0  0  0  0  0  0
   35.8730   24.3440   39.4480 O   0  0  0  0  0  0  0  0  0  0  0  0
   35.2330   24.3770   40.2080 H   0  0  0  0  0  0  0  0  0  0  0  0
   37.4140   32.1550   39.5460 C   0  0  0  0  0  0  0  0  0  0  0  0
   37.4510   32.6290   40.5710 H   0  0  0  0  0  0  0  0  0  0  0  0
   36.5740   32.6260   39.0440 H   0  0  0  0  0  0  0  0  0  0  0  0
   38.6970   32.3410   38.8850 N   0  0  0  0  0  0  0  0  0  0  0  0
   39.7520   32.7560   39.5840 C   0  0  0  0  0  0  0  0  0  0  0  0
   40.9620   32.9220   38.9170 C   0  0  0  0  0  0  0  0  0  0  0  0
   41.0550   32.6630   37.5810 C   0  0  0  0  0  0  0  0  0  0  0  0
   42.1530   32.8120   36.9710 O   0  0  0  0  0  0  0  0  0  0  0  0
   39.9680   32.2440   36.9040 N   0  0  0  0  0  0  0  0  0  0  0  0
   38.7830   32.0810   37.5490 C   0  0  0  0  0  0  0  0  0  0  0  0
   37.8060   31.6870   36.8610 O   0  0  0  0  0  0  0  0  0  0  0  0
   39.7230   32.9730   40.6490 H   0  0  0  0  0  0  0  0  0  0  0  0
   41.8630   33.2550   39.4120 H   0  0  0  0  0  0  0  0  0  0  0  0
   40.0100   32.0360   35.8650 H   0  0  0  0  0  0  0  0  0  0  0  0
  1  6  1  0  0  0  0
  1  7  1  0  0  0  0
  2  1  2  0  0  0  0
  3  4  2  0  0  0  0
  3  2  1  0  0  0  0
  4  5  1  0  0  0  0
  5  6  2  0  0  0  0
  8  3  1  0  0  0  0
  9 15  1  6  0  0  0
  9 14  1  0  0  0  0
  9 10  1  0  0  0  0
 10  5  1  6  0  0  0
 10 11  1  0  0  0  0
 11 12  1  0  0  0  0
 13 17  1  1  0  0  0
 13 12  1  0  0  0  0
 14 19  1  1  0  0  0
 14 13  1  0  0  0  0
 16 15  1  0  0  0  0
 18 17  1  0  0  0  0
 19 20  1  0  0  0  0
 21  2  1  0  0  0  0
 21 22  1  0  0  0  0
 23 21  1  0  0  0  0
 24 21  1  0  0  0  0
 24 25  1  0  0  0  0
 25 32  1  0  0  0  0
 26 33  1  0  0  0  0
 26 25  2  0  0  0  0
 27 26  1  0  0  0  0
 28 27  2  0  0  0  0
 29 30  1  0  0  0  0
 29 27  1  0  0  0  0
 30 24  1  0  0  0  0
 31 30  2  0  0  0  0
 34 29  1  0  0  0  0
M  END
>  <minimizedAffinity>
-5.5850234

$$$$

 OpenBabel03242515273D

 34 36  0  0  1  0  0  0  0  0999 V2000
   35.0600   29.3220   39.2780 C   0  0  0  0  0  0  0  0  0  0  0  0
   34.9250   29.0310   37.9090 C   0  0  0  0  0  0  0  0  0  0  0  0
   35.9140   29.4820   37.0680 C   0  0  0  0  0  0  0  0  0  0  0  0
   36.9520   30.1750   37.5870 N   0  0  0  0  0  0  0  0  0  0  0  0
   37.0460   30.4340   38.9070 C   0  0  0  0  0  0  0  0  0  0  0  0
   36.1190   30.0250   39.7880 N   0  0  0  0  0  0  0  0  0  0  0  0
   34.3330   29.0110   40.0310 H   0  0  0  0  0  0  0  0  0  0  0  0
   35.7950   29.2530   36.0310 H   0  0  0  0  0  0  0  0  0  0  0  0
   37.8480   32.1690   40.4950 C   0  0  1  0  0  3  0  0  0  0  0  0
   38.2260   31.2050   39.4050 C   0  0  1  0  0  3  0  0  0  0  0  0
   39.2230   30.3910   39.9260 O   0  0  0  0  0  0  0  0  0  0  0  0
   40.3950   31.1180   39.9550 C   0  0  0  0  0  2  0  0  0  0  0  0
   40.3320   32.4120   40.6980 C   0  0  1  0  0  3  0  0  0  0  0  0
   39.0230   33.1350   40.6200 C   0  0  1  0  0  3  0  0  0  0  0  0
   36.7010   32.8910   40.1960 O   0  0  0  0  0  0  0  0  0  0  0  0
   36.6790   33.1170   39.2350 H   0  0  0  0  0  0  0  0  0  0  0  0
   40.7670   32.2410   42.0210 O   0  0  0  0  0  0  0  0  0  0  0  0
   40.4780   33.0950   42.4750 H   0  0  0  0  0  0  0  0  0  0  0  0
   39.0070   33.9100   39.4570 O   0  0  0  0  0  0  0  0  0  0  0  0
   39.7010   33.5970   38.8180 H   0  0  0  0  0  0  0  0  0  0  0  0
   33.7300   28.2710   37.5440 C   0  0  0  0  0  0  0  0  0  0  0  0
   33.2250   28.0010   38.5180 H   0  0  0  0  0  0  0  0  0  0  0  0
   33.9670   27.3220   37.0730 H   0  0  0  0  0  0  0  0  0  0  0  0
   32.8460   29.1280   36.7680 N   0  0  0  0  0  0  0  0  0  0  0  0
   33.0300   29.2600   35.4550 C   0  0  0  0  0  0  0  0  0  0  0  0
   32.1660   30.0890   34.7470 C   0  0  0  0  0  0  0  0  0  0  0  0
   31.1580   30.7460   35.3900 C   0  0  0  0  0  0  0  0  0  0  0  0
   30.3690   31.5000   34.7510 O   0  0  0  0  0  0  0  0  0  0  0  0
   30.9990   30.5900   36.7190 N   0  0  0  0  0  0  0  0  0  0  0  0
   31.8400   29.7820   37.4160 C   0  0  0  0  0  0  0  0  0  0  0  0
   31.6400   29.6790   38.6550 O   0  0  0  0  0  0  0  0  0  0  0  0
   33.8200   28.7560   34.9030 H   0  0  0  0  0  0  0  0  0  0  0  0
   32.2480   30.2490   33.6810 H   0  0  0  0  0  0  0  0  0  0  0  0
   30.2260   31.0880   37.2460 H   0  0  0  0  0  0  0  0  0  0  0  0
  1  6  1  0  0  0  0
  1  7  1  0  0  0  0
  2  1  2  0  0  0  0
  3  4  2  0  0  0  0
  3  2  1  0  0  0  0
  4  5  1  0  0  0  0
  5  6  2  0  0  0  0
  8  3  1  0  0  0  0
  9 15  1  6  0  0  0
  9 14  1  0  0  0  0
 10  5  1  1  0  0  0
 10 11  1  0  0  0  0
 10  9  1  0  0  0  0
 11 12  1  0  0  0  0
 12 13  1  0  0  0  0
 13 17  1  1  0  0  0
 14 19  1  6  0  0  0
 14 13  1  0  0  0  0
 16 15  1  0  0  0  0
 17 18  1  0  0  0  0
 20 19  1  0  0  0  0
 21  2  1  0  0  0  0
 21 22  1  0  0  0  0
 23 21  1  0  0  0  0
 24 30  1  0  0  0  0
 24 21  1  0  0  0  0
 25 24  1  0  0  0  0
 26 27  1  0  0  0  0
 26 25  2  0  0  0  0
 27 29  1  0  0  0  0
 28 27  2  0  0  0  0
 29 34  1  0  0  0  0
 29 30  1  0  0  0  0
 30 31  2  0  0  0  0
 32 25  1  0  0  0  0
 33 26  1  0  0  0  0
M  END
>  <minimizedAffinity>
-5.55558681

$$$$

 OpenBabel03242515273D

 34 36  0  0  1  0  0  0  0  0999 V2000
   38.1540   27.2150   42.1330 C   0  0  0  0  0  0  0  0  0  0  0  0
   37.2990   26.4610   41.3100 C   0  0  0  0  0  0  0  0  0  0  0  0
   36.7440   27.0990   40.2260 C   0  0  0  0  0  0  0  0  0  0  0  0
   37.0400   28.4000   40.0070 N   0  0  0  0  0  0  0  0  0  0  0  0
   37.8650   29.0890   40.8210 C   0  0  0  0  0  0  0  0  0  0  0  0
   38.4430   28.5320   41.8970 N   0  0  0  0  0  0  0  0  0  0  0  0
   38.6460   26.8060   43.0180 H   0  0  0  0  0  0  0  0  0  0  0  0
   36.0970   26.5120   39.6100 H   0  0  0  0  0  0  0  0  0  0  0  0
   37.0090   31.4200   40.9250 C   0  0  1  0  0  3  0  0  0  0  0  0
   38.1440   30.5250   40.5120 C   0  0  1  0  0  3  0  0  0  0  0  0
   39.2790   31.0050   41.1520 O   0  0  0  0  0  0  0  0  0  0  0  0
   39.6870   32.1470   40.4980 C   0  0  0  0  0  2  0  0  0  0  0  0
   38.6590   33.2230   40.3770 C   0  0  1  0  0  3  0  0  0  0  0  0
   37.2480   32.7480   40.2110 C   0  0  1  0  0  3  0  0  0  0  0  0
   35.7710   30.9210   40.5470 O   0  0  0  0  0  0  0  0  0  0  0  0
   35.8300   30.4890   39.6610 H   0  0  0  0  0  0  0  0  0  0  0  0
   38.7890   34.1470   41.4240 O   0  0  0  0  0  0  0  0  0  0  0  0
   37.9340   34.6820   41.3720 H   0  0  0  0  0  0  0  0  0  0  0  0
   37.0140   32.5010   38.8550 O   0  0  0  0  0  0  0  0  0  0  0  0
   37.8720   32.4090   38.3630 H   0  0  0  0  0  0  0  0  0  0  0  0
   37.1040   25.0690   41.7140 C   0  0  0  0  0  0  0  0  0  0  0  0
   35.9900   24.9440   41.8610 H   0  0  0  0  0  0  0  0  0  0  0  0
   37.5460   24.8500   42.6810 H   0  0  0  0  0  0  0  0  0  0  0  0
   37.5460   24.2000   40.6340 N   0  0  0  0  0  0  0  0  0  0  0  0
   38.8420   24.1030   40.3440 C   0  0  0  0  0  0  0  0  0  0  0  0
   39.2260   23.2620   39.3060 C   0  0  0  0  0  0  0  0  0  0  0  0
   38.2920   22.5570   38.6060 C   0  0  0  0  0  0  0  0  0  0  0  0
   38.6360   21.7910   37.6610 O   0  0  0  0  0  0  0  0  0  0  0  0
   36.9870   22.6770   38.9250 N   0  0  0  0  0  0  0  0  0  0  0  0
   36.6060   23.4980   39.9380 C   0  0  0  0  0  0  0  0  0  0  0  0
   35.3740   23.5660   40.1870 O   0  0  0  0  0  0  0  0  0  0  0  0
   39.6210   24.6460   40.8750 H   0  0  0  0  0  0  0  0  0  0  0  0
   40.2570   23.1290   39.0090 H   0  0  0  0  0  0  0  0  0  0  0  0
   36.2380   22.1430   38.3990 H   0  0  0  0  0  0  0  0  0  0  0  0
  1  7  1  0  0  0  0
  2 21  1  0  0  0  0
  2  1  2  0  0  0  0
  3  2  1  0  0  0  0
  4  3  2  0  0  0  0
  4  5  1  0  0  0  0
  5  6  2  0  0  0  0
  6  1  1  0  0  0  0
  8  3  1  0  0  0  0
  9 15  1  6  0  0  0
 10  5  1  1  0  0  0
 10  9  1  0  0  0  0
 10 11  1  0  0  0  0
 12 11  1  0  0  0  0
 13 12  1  0  0  0  0
 13 17  1  1  0  0  0
 14 19  1  6  0  0  0
 14 13  1  0  0  0  0
 14  9  1  0  0  0  0
 16 15  1  0  0  0  0
 18 17  1  0  0  0  0
 20 19  1  0  0  0  0
 21 22  1  0  0  0  0
 21 23  1  0  0  0  0
 24 21  1  0  0  0  0
 25 24  1  0  0  0  0
 25 32  1  0  0  0  0
 26 25  2  0  0  0  0
 27 29  1  0  0  0  0
 27 26  1  0  0  0  0
 28 27  2  0  0  0  0
 29 30  1  0  0  0  0
 30 31  2  0  0  0  0
 30 24  1  0  0  0  0
 33 26  1  0  0  0  0
 34 29  1  0  0  0  0
M  END
>  <minimizedAffinity>
-5.49429607

$$$$

 OpenBabel03242515273D

 34 36  0  0  1  0  0  0  0  0999 V2000
   38.1500   28.8900   41.6920 C   0  0  0  0  0  0  0  0  0  0  0  0
   38.9200   28.1670   42.6200 C   0  0  0  0  0  0  0  0  0  0  0  0
   40.2610   28.4610   42.6930 C   0  0  0  0  0  0  0  0  0  0  0  0
   40.7690   29.4160   41.8820 N   0  0  0  0  0  0  0  0  0  0  0  0
   39.9970   30.0880   41.0040 C   0  0  0  0  0  0  0  0  0  0  0  0
   38.6810   29.8540   40.8780 N   0  0  0  0  0  0  0  0  0  0  0  0
   37.0780   28.7350   41.5550 H   0  0  0  0  0  0  0  0  0  0  0  0
   40.8310   27.9020   43.4030 H   0  0  0  0  0  0  0  0  0  0  0  0
   41.3210   30.5300   38.9480 C   0  0  1  0  0  3  0  0  0  0  0  0
   40.6320   31.1310   40.1410 C   0  0  1  0  0  3  0  0  0  0  0  0
   39.7180   32.0530   39.6470 O   0  0  0  0  0  0  0  0  0  0  0  0
   40.4170   33.1710   39.2440 C   0  0  0  0  0  2  0  0  0  0  0  0
   41.5060   32.9290   38.2530 C   0  0  1  0  0  3  0  0  0  0  0  0
   42.2300   31.6260   38.3990 C   0  0  1  0  0  3  0  0  0  0  0  0
   42.0930   29.4250   39.2780 O   0  0  0  0  0  0  0  0  0  0  0  0
   42.5340   29.5630   40.1500 H   0  0  0  0  0  0  0  0  0  0  0  0
   41.0360   33.1320   36.9470 O   0  0  0  0  0  0  0  0  0  0  0  0
   41.7650   32.7340   36.3710 H   0  0  0  0  0  0  0  0  0  0  0  0
   43.2510   31.7830   39.3410 O   0  0  0  0  0  0  0  0  0  0  0  0
   43.0920   32.5900   39.8990 H   0  0  0  0  0  0  0  0  0  0  0  0
   38.1870   27.1740   43.4070 C   0  0  0  0  0  0  0  0  0  0  0  0
   37.1500   27.6000   43.5520 H   0  0  0  0  0  0  0  0  0  0  0  0
   38.5900   27.0560   44.4080 H   0  0  0  0  0  0  0  0  0  0  0  0
   38.0960   25.9410   42.6400 N   0  0  0  0  0  0  0  0  0  0  0  0
   37.1140   25.7780   41.7550 C   0  0  0  0  0  0  0  0  0  0  0  0
   37.0600   24.5850   41.0410 C   0  0  0  0  0  0  0  0  0  0  0  0
   37.9940   23.6130   41.2480 C   0  0  0  0  0  0  0  0  0  0  0  0
   37.9490   22.5280   40.6010 O   0  0  0  0  0  0  0  0  0  0  0  0
   38.9750   23.8110   42.1500 N   0  0  0  0  0  0  0  0  0  0  0  0
   39.0330   24.9730   42.8510 C   0  0  0  0  0  0  0  0  0  0  0  0
   39.9740   25.0970   43.6790 O   0  0  0  0  0  0  0  0  0  0  0  0
   36.3490   26.5250   41.5580 H   0  0  0  0  0  0  0  0  0  0  0  0
   36.2950   24.3760   40.3060 H   0  0  0  0  0  0  0  0  0  0  0  0
   39.7150   23.0740   42.3330 H   0  0  0  0  0  0  0  0  0  0  0  0
  1  2  1  0  0  0  0
  2  3  2  0  0  0  0
  2 21  1  0  0  0  0
  3  8  1  0  0  0  0
  4  3  1  0  0  0  0
  5  4  2  0  0  0  0
  6  5  1  0  0  0  0
  6  1  2  0  0  0  0
  7  1  1  0  0  0  0
  9 15  1  1  0  0  0
  9 10  1  0  0  0  0
 10  5  1  6  0  0  0
 11 10  1  0  0  0  0
 12 11  1  0  0  0  0
 13 17  1  6  0  0  0
 13 14  1  0  0  0  0
 13 12  1  0  0  0  0
 14  9  1  0  0  0  0
 14 19  1  1  0  0  0
 15 16  1  0  0  0  0
 18 17  1  0  0  0  0
 19 20  1  0  0  0  0
 21 22  1  0  0  0  0
 21 23  1  0  0  0  0
 24 30  1  0  0  0  0
 24 21  1  0  0  0  0
 25 24  1  0  0  0  0
 26 27  1  0  0  0  0
 26 25  2  0  0  0  0
 27 29  1  0  0  0  0
 28 27  2  0  0  0  0
 29 34  1  0  0  0  0
 29 30  1  0  0  0  0
 30 31  2  0  0  0  0
 32 25  1  0  0  0  0
 33 26  1  0  0  0  0
M  END
>  <minimizedAffinity>
-5.35518694

$$$$
