
 OpenBabel03242519313D

 51 54  0  0  1  0  0  0  0  0999 V2000
   50.6330   31.3800   42.4810 C   0  0  0  0  0  0  0  0  0  0  0  0
   50.5750   30.6010   41.3930 N   0  0  0  0  0  0  0  0  0  0  0  0
   51.4060   29.5400   41.5590 C   0  0  0  0  0  0  0  0  0  0  0  0
   51.9780   29.6830   42.7720 N   0  0  0  0  0  0  0  0  0  0  0  0
   51.5180   30.7970   43.3450 N   0  0  0  0  0  0  0  0  0  0  0  0
   51.5710   28.7420   40.8510 H   0  0  0  0  0  0  0  0  0  0  0  0
   47.8810   33.7910   42.8650 C   0  0  0  0  0  0  0  0  0  0  0  0
   48.5660   35.0060   42.5870 C   0  0  0  0  0  0  0  0  0  0  0  0
   49.9310   34.9690   42.2780 C   0  0  0  0  0  0  0  0  0  0  0  0
   50.5360   33.7370   42.2620 N   0  0  0  0  0  0  0  0  0  0  0  0
   49.8200   32.5900   42.5410 C   0  0  0  0  0  0  0  0  0  0  0  0
   48.5250   32.6190   42.8350 N   0  0  0  0  0  0  0  0  0  0  0  0
   48.1580   35.9780   42.5840 H   0  0  0  0  0  0  0  0  0  0  0  0
   50.4980   35.8600   42.0600 H   0  0  0  0  0  0  0  0  0  0  0  0
   46.4580   33.9540   43.1840 C   0  0  0  0  0  0  0  0  0  0  0  0
   45.7770   34.9730   42.4260 C   0  0  0  0  0  0  0  0  0  0  0  0
   45.3370   36.1380   43.2090 C   0  0  0  0  0  0  0  0  0  0  0  0
   44.4550   35.7040   44.3870 C   0  0  0  0  0  0  0  0  0  0  0  0
   44.9700   34.5080   45.1200 C   0  0  0  0  0  0  0  0  0  0  0  0
   46.4030   34.1890   44.7300 C   0  0  0  0  0  0  0  0  0  0  0  0
   45.9830   32.9320   43.1040 H   0  0  0  0  0  0  0  0  0  0  0  0
   44.8480   34.5390   41.9480 H   0  0  0  0  0  0  0  0  0  0  0  0
   46.3720   35.3450   41.5550 H   0  0  0  0  0  0  0  0  0  0  0  0
   44.6460   36.7420   42.5540 H   0  0  0  0  0  0  0  0  0  0  0  0
   46.1020   36.8460   43.5440 H   0  0  0  0  0  0  0  0  0  0  0  0
   43.4700   35.3970   43.9290 H   0  0  0  0  0  0  0  0  0  0  0  0
   44.2340   36.5840   45.0160 H   0  0  0  0  0  0  0  0  0  0  0  0
   45.0140   34.7840   46.1930 H   0  0  0  0  0  0  0  0  0  0  0  0
   44.3210   33.6100   45.0490 H   0  0  0  0  0  0  0  0  0  0  0  0
   47.0130   35.0790   44.9560 H   0  0  0  0  0  0  0  0  0  0  0  0
   46.7190   33.2650   45.2550 H   0  0  0  0  0  0  0  0  0  0  0  0
   52.9530   28.8170   43.3800 C   0  0  0  0  0  0  0  0  0  0  0  0
   53.8330   28.6330   42.7780 H   0  0  0  0  0  0  0  0  0  0  0  0
   52.4750   27.8010   43.5220 H   0  0  0  0  0  0  0  0  0  0  0  0
   53.3350   29.3440   44.6890 C   0  0  0  0  0  3  0  0  0  0  0  0
   53.1280   28.9520   45.9410 C   0  0  0  0  0  3  0  0  0  0  0  0
   53.7080   29.6120   47.2080 C   0  0  0  0  0  0  0  0  0  0  0  0
   54.2780   28.8450   47.7270 H   0  0  0  0  0  0  0  0  0  0  0  0
   54.3770   30.4080   46.8420 H   0  0  0  0  0  0  0  0  0  0  0  0
   53.1320   31.6470   48.3810 C   0  0  1  0  0  3  0  0  0  0  0  0
   52.6320   30.2570   48.0240 C   0  0  2  0  0  3  0  0  0  0  0  0
   52.1860   29.5300   49.0980 O   0  0  0  0  0  0  0  0  0  0  0  0
   53.0400   29.4530   50.1690 C   0  0  0  0  0  2  0  0  0  0  0  0
   53.4890   30.7940   50.7000 C   0  0  1  0  0  3  0  0  0  0  0  0
   54.0910   31.5910   49.5660 C   0  0  2  0  0  3  0  0  0  0  0  0
   53.9080   32.1180   47.3080 O   0  0  0  0  0  0  0  0  0  0  0  0
   53.3520   32.3870   46.5530 H   0  0  0  0  0  0  0  0  0  0  0  0
   52.4350   31.5180   51.2400 O   0  0  0  0  0  0  0  0  0  0  0  0
   51.8680   31.9140   50.5330 H   0  0  0  0  0  0  0  0  0  0  0  0
   54.3140   32.8860   49.9800 O   0  0  0  0  0  0  0  0  0  0  0  0
   54.6910   33.4470   49.2750 H   0  0  0  0  0  0  0  0  0  0  0  0
  1 11  1  0  0  0  0
  1  5  2  0  0  0  0
  2  3  2  0  0  0  0
  2  1  1  0  0  0  0
  3  4  1  0  0  0  0
  4  5  1  0  0  0  0
  4 32  1  0  0  0  0
  6  3  1  0  0  0  0
  7 15  1  0  0  0  0
  8  7  2  0  0  0  0
  9  8  1  0  0  0  0
 10  9  2  0  0  0  0
 10 11  1  0  0  0  0
 11 12  2  0  0  0  0
 12  7  1  0  0  0  0
 13  8  1  0  0  0  0
 14  9  1  0  0  0  0
 15 20  1  0  0  0  0
 16 15  1  0  0  0  0
 16 17  1  0  0  0  0
 17 25  1  0  0  0  0
 17 18  1  0  0  0  0
 18 27  1  0  0  0  0
 18 19  1  0  0  0  0
 19 28  1  0  0  0  0
 20 30  1  0  0  0  0
 20 19  1  0  0  0  0
 20 31  1  0  0  0  0
 21 15  1  0  0  0  0
 22 16  1  0  0  0  0
 23 16  1  0  0  0  0
 24 17  1  0  0  0  0
 26 18  1  0  0  0  0
 29 19  1  0  0  0  0
 32 34  1  0  0  0  0
 32 35  1  0  0  0  0
 33 32  1  0  0  0  0
 35 36  2  0  0  0  0
 36 37  1  0  0  0  0
 37 38  1  0  0  0  0
 39 37  1  0  0  0  0
 40 46  1  6  0  0  0
 40 45  1  0  0  0  0
 41 37  1  1  0  0  0
 41 40  1  0  0  0  0
 41 42  1  0  0  0  0
 42 43  1  0  0  0  0
 43 44  1  0  0  0  0
 44 48  1  6  0  0  0
 45 50  1  1  0  0  0
 45 44  1  0  0  0  0
 47 46  1  0  0  0  0
 49 48  1  0  0  0  0
 51 50  1  0  0  0  0
M  END
>  <minimizedAffinity>
-4.96683836

>  <minimizedRMSD>
3.08207369

$$$$
