
 OpenBabel03252507383D

 41 45  0  0  1  0  0  0  0  0999 V2000
   46.0940   34.5030   43.5580 C   0  0  0  0  0  0  0  0  0  0  0  0
   46.7900   33.4740   44.2470 C   0  0  0  0  0  0  0  0  0  0  0  0
   46.4390   33.2500   45.5680 C   0  0  0  0  0  0  0  0  0  0  0  0
   45.4700   34.0070   46.1290 N   0  0  0  0  0  0  0  0  0  0  0  0
   44.8190   34.9840   45.4520 C   0  0  0  0  0  0  0  0  0  0  0  0
   45.1340   35.2220   44.1820 N   0  0  0  0  0  0  0  0  0  0  0  0
   47.5520   32.8740   43.8170 H   0  0  0  0  0  0  0  0  0  0  0  0
   44.0420   35.5950   45.8920 H   0  0  0  0  0  0  0  0  0  0  0  0
   47.2830   32.5540   47.7400 C   0  0  0  0  0  0  0  0  0  0  0  0
   47.0560   32.2340   46.4090 C   0  0  0  0  0  0  0  0  0  0  0  0
   47.4210   30.9930   45.9760 C   0  0  0  0  0  0  0  0  0  0  0  0
   48.0040   30.0430   46.7920 C   0  0  0  0  0  0  0  0  0  0  0  0
   48.4350   28.7830   46.5830 N   0  0  0  0  0  0  0  0  0  0  0  0
   48.9340   28.3110   47.7840 C   0  0  0  0  0  0  0  0  0  0  0  0
   48.7970   29.2850   48.6900 N   0  0  0  0  0  0  0  0  0  0  0  0
   48.2310   30.3490   48.1030 C   0  0  0  0  0  0  0  0  0  0  0  0
   47.8720   31.6030   48.5790 C   0  0  0  0  0  0  0  0  0  0  0  0
   47.0310   33.5090   48.1810 H   0  0  0  0  0  0  0  0  0  0  0  0
   47.2510   30.7230   44.9350 H   0  0  0  0  0  0  0  0  0  0  0  0
   48.3800   28.2960   45.6630 H   0  0  0  0  0  0  0  0  0  0  0  0
   49.3330   27.3020   47.8240 H   0  0  0  0  0  0  0  0  0  0  0  0
   48.0450   31.8720   49.6310 H   0  0  0  0  0  0  0  0  0  0  0  0
   46.4460   34.7300   42.2290 O   0  0  0  0  0  0  0  0  0  0  0  0
   45.5830   34.3430   41.2070 C   0  0  0  0  0  0  0  0  0  0  0  0
   46.4610   33.8010   40.3380 C   0  0  0  0  0  0  0  0  0  0  0  0
   45.3150   33.2550   38.9170 S   0  0  0  0  0  0  0  0  0  0  0  0
   43.8350   33.9260   39.8900 C   0  0  0  0  0  0  0  0  0  0  0  0
   44.3480   34.3010   40.7890 N   0  0  0  0  0  0  0  0  0  0  0  0
   47.5180   33.4610   39.9250 H   0  0  0  0  0  0  0  0  0  0  0  0
   41.7560   32.6160   39.8570 C   0  0  1  0  0  3  0  0  0  0  0  0
   42.3350   33.9360   39.5110 C   0  0  1  0  0  3  0  0  0  0  0  0
   41.7330   35.0360   40.0400 O   0  0  0  0  0  0  0  0  0  0  0  0
   41.3030   34.9020   41.3470 C   0  0  0  0  0  2  0  0  0  0  0  0
   40.1700   33.8970   41.3370 C   0  0  1  0  0  3  0  0  0  0  0  0
   40.8280   32.5650   41.0090 C   0  0  2  0  0  3  0  0  0  0  0  0
   41.0430   32.1080   38.7460 O   0  0  0  0  0  0  0  0  0  0  0  0
   40.5550   32.9050   38.3940 H   0  0  0  0  0  0  0  0  0  0  0  0
   39.5240   33.8070   42.5550 O   0  0  0  0  0  0  0  0  0  0  0  0
   38.8740   34.5790   42.5810 H   0  0  0  0  0  0  0  0  0  0  0  0
   41.4770   32.1400   42.1810 O   0  0  0  0  0  0  0  0  0  0  0  0
   40.8270   31.8750   42.8760 H   0  0  0  0  0  0  0  0  0  0  0  0
  1  6  2  0  0  0  0
  1  2  1  0  0  0  0
  2  3  2  0  0  0  0
  3  4  1  0  0  0  0
  3 10  1  0  0  0  0
  5  8  1  0  0  0  0
  5  4  2  0  0  0  0
  6  5  1  0  0  0  0
  7  2  1  0  0  0  0
  9 18  1  0  0  0  0
  9 17  1  0  0  0  0
 10  9  2  0  0  0  0
 11 10  1  0  0  0  0
 11 12  2  0  0  0  0
 12 16  1  0  0  0  0
 13 12  1  0  0  0  0
 13 14  1  0  0  0  0
 14 21  1  0  0  0  0
 14 15  2  0  0  0  0
 16 17  2  0  0  0  0
 16 15  1  0  0  0  0
 17 22  1  0  0  0  0
 19 11  1  0  0  0  0
 20 13  1  0  0  0  0
 23  1  1  0  0  0  0
 24 23  1  0  0  0  0
 25 24  2  0  0  0  0
 26 27  1  0  0  0  0
 26 25  1  0  0  0  0
 27 28  2  0  0  0  0
 28 24  1  0  0  0  0
 29 25  1  0  0  0  0
 30 36  1  6  0  0  0
 30 35  1  0  0  0  0
 31 30  1  0  0  0  0
 31 27  1  1  0  0  0
 31 32  1  0  0  0  0
 32 33  1  0  0  0  0
 34 33  1  0  0  0  0
 34 38  1  1  0  0  0
 35 34  1  0  0  0  0
 35 40  1  1  0  0  0
 37 36  1  0  0  0  0
 38 39  1  0  0  0  0
 40 41  1  0  0  0  0
M  END
>  <minimizedAffinity>
-7.1476841

>  <minimizedRMSD>
2.03084087

$$$$
