
 OpenBabel03252507083D

 27 28  0  0  1  0  0  0  0  0999 V2000
   44.5580   36.2030   44.5550 C   0  0  0  0  0  0  0  0  0  0  0  0
   45.1820   36.0940   43.2960 C   0  0  0  0  0  0  0  0  0  0  0  0
   45.9360   34.9550   43.0410 C   0  0  0  0  0  0  0  0  0  0  0  0
   46.0430   33.9910   44.0100 N   0  0  0  0  0  0  0  0  0  0  0  0
   45.4350   34.1310   45.1940 C   0  0  0  0  0  0  0  0  0  0  0  0
   44.6920   35.2280   45.4780 N   0  0  0  0  0  0  0  0  0  0  0  0
   43.9810   37.0970   44.7210 H   0  0  0  0  0  0  0  0  0  0  0  0
   45.0860   36.8550   42.5570 H   0  0  0  0  0  0  0  0  0  0  0  0
   47.0390   32.8170   46.4400 C   0  0  1  0  0  3  0  0  0  0  0  0
   45.5660   33.0780   46.2240 C   0  0  1  0  0  3  0  0  0  0  0  0
   44.9930   33.4120   47.4360 O   0  0  0  0  0  0  0  0  0  0  0  0
   45.0330   32.2720   48.2380 C   0  0  0  0  0  2  0  0  0  0  0  0
   46.4600   31.9350   48.6210 C   0  0  2  0  0  3  0  0  0  0  0  0
   47.2140   31.6150   47.3430 C   0  0  1  0  0  3  0  0  0  0  0  0
   47.7070   32.6330   45.2240 O   0  0  0  0  0  0  0  0  0  0  0  0
   47.1530   32.1120   44.5910 H   0  0  0  0  0  0  0  0  0  0  0  0
   46.4590   30.8560   49.4800 O   0  0  0  0  0  0  0  0  0  0  0  0
   45.9680   30.1030   49.1040 H   0  0  0  0  0  0  0  0  0  0  0  0
   46.6920   30.4600   46.8090 O   0  0  0  0  0  0  0  0  0  0  0  0
   46.3450   30.5200   45.9000 H   0  0  0  0  0  0  0  0  0  0  0  0
   46.5440   34.8730   41.7850 O   0  0  0  0  0  0  0  0  0  0  0  0
   48.4200   33.1190   41.1290 O   0  0  0  0  0  0  0  0  0  0  0  0
   48.2240   34.5090   41.7040 P   0  0  0  0  0  0  0  0  0  0  0  0
   48.9710   35.6850   40.7710 O   0  0  0  0  0  0  0  0  0  0  0  0
   49.0770   36.4910   41.3360 H   0  0  0  0  0  0  0  0  0  0  0  0
   48.8270   34.5090   43.2880 O   0  0  0  0  0  0  0  0  0  0  0  0
   49.3310   35.3590   43.4710 H   0  0  0  0  0  0  0  0  0  0  0  0
  1  7  1  0  0  0  0
  1  6  1  0  0  0  0
  2  1  2  0  0  0  0
  3  2  1  0  0  0  0
  3  4  2  0  0  0  0
  4  5  1  0  0  0  0
  5  6  2  0  0  0  0
  8  2  1  0  0  0  0
  9 15  1  6  0  0  0
  9 14  1  0  0  0  0
 10  5  1  6  0  0  0
 10  9  1  0  0  0  0
 10 11  1  0  0  0  0
 11 12  1  0  0  0  0
 12 13  1  0  0  0  0
 13 17  1  1  0  0  0
 14 19  1  6  0  0  0
 14 13  1  0  0  0  0
 16 15  1  0  0  0  0
 18 17  1  0  0  0  0
 20 19  1  0  0  0  0
 21  3  1  0  0  0  0
 22 23  2  0  0  0  0
 23 21  1  0  0  0  0
 23 26  1  0  0  0  0
 24 25  1  0  0  0  0
 24 23  1  0  0  0  0
 26 27  1  0  0  0  0
M  END
>  <minimizedAffinity>
-6.35555696

>  <minimizedRMSD>
0.636903763

$$$$
