
 OpenBabel03252506283D

 50 54  0  0  1  0  0  0  0  0999 V2000
   46.8480   32.1910   44.7720 C   0  0  0  0  0  0  0  0  0  0  0  0
   47.6540   31.0950   44.3760 C   0  0  0  0  0  0  0  0  0  0  0  0
   47.8790   30.3150   45.4520 C   0  0  0  0  0  0  0  0  0  0  0  0
   47.2400   30.8970   46.4810 N   0  0  0  0  0  0  0  0  0  0  0  0
   46.6250   32.0150   46.0820 N   0  0  0  0  0  0  0  0  0  0  0  0
   48.0110   30.9450   43.3650 H   0  0  0  0  0  0  0  0  0  0  0  0
   48.4700   29.4130   45.4070 H   0  0  0  0  0  0  0  0  0  0  0  0
   45.4040   35.3280   43.6010 C   0  0  0  0  0  0  0  0  0  0  0  0
   45.5490   35.2580   42.2080 C   0  0  0  0  0  0  0  0  0  0  0  0
   46.1530   34.1070   41.7040 C   0  0  0  0  0  0  0  0  0  0  0  0
   46.5530   33.1530   42.5580 N   0  0  0  0  0  0  0  0  0  0  0  0
   46.4090   33.2330   43.8780 C   0  0  0  0  0  0  0  0  0  0  0  0
   45.8290   34.3320   44.3950 N   0  0  0  0  0  0  0  0  0  0  0  0
   44.9400   36.2120   43.9920 H   0  0  0  0  0  0  0  0  0  0  0  0
   45.1990   36.0710   41.5970 H   0  0  0  0  0  0  0  0  0  0  0  0
   47.8000   33.8320   39.8670 C   0  0  2  0  0  3  0  0  0  0  0  0
   46.3200   34.0050   40.2290 C   0  0  1  0  0  3  0  0  0  0  0  0
   45.7030   32.8380   39.7410 O   0  0  0  0  0  0  0  0  0  0  0  0
   45.7020   32.8810   38.3690 C   0  0  0  0  0  2  0  0  0  0  0  0
   47.0900   32.8860   37.7510 C   0  0  1  0  0  3  0  0  0  0  0  0
   47.9360   33.9780   38.3840 C   0  0  2  0  0  3  0  0  0  0  0  0
   48.2160   32.5570   40.2690 O   0  0  0  0  0  0  0  0  0  0  0  0
   47.4740   32.1040   40.7580 H   0  0  0  0  0  0  0  0  0  0  0  0
   47.7350   31.6580   37.9180 O   0  0  0  0  0  0  0  0  0  0  0  0
   48.7080   31.8630   37.9950 H   0  0  0  0  0  0  0  0  0  0  0  0
   49.2790   33.7740   38.0700 O   0  0  0  0  0  0  0  0  0  0  0  0
   49.6190   34.4540   37.4430 H   0  0  0  0  0  0  0  0  0  0  0  0
   47.2160   30.3910   47.8400 C   0  0  0  0  0  0  0  0  0  0  0  0
   47.6570   31.1670   48.5190 H   0  0  0  0  0  0  0  0  0  0  0  0
   47.8000   29.4770   47.9240 H   0  0  0  0  0  0  0  0  0  0  0  0
   45.8080   30.1860   48.2870 C   0  0  0  0  0  0  0  0  0  0  0  0
   45.2470   31.1290   48.1160 H   0  0  0  0  0  0  0  0  0  0  0  0
   45.8470   30.0530   49.4040 H   0  0  0  0  0  0  0  0  0  0  0  0
   45.0670   27.7320   48.2010 C   0  0  0  0  0  0  0  0  0  0  0  0
   45.1080   29.0350   47.7400 C   0  0  0  0  0  0  0  0  0  0  0  0
   44.3760   29.2960   46.5800 C   0  0  0  0  0  0  0  0  0  0  0  0
   43.6590   28.3250   45.9340 C   0  0  0  0  0  0  0  0  0  0  0  0
   42.8830   28.2830   44.8330 N   0  0  0  0  0  0  0  0  0  0  0  0
   42.3970   27.0670   44.6190 C   0  0  0  0  0  0  0  0  0  0  0  0
   42.8560   26.2110   45.6230 C   0  0  0  0  0  0  0  0  0  0  0  0
   43.6270   27.0400   46.4020 C   0  0  0  0  0  0  0  0  0  0  0  0
   44.3480   26.7640   47.5520 C   0  0  0  0  0  0  0  0  0  0  0  0
   45.6480   27.5730   49.1030 H   0  0  0  0  0  0  0  0  0  0  0  0
   44.3290   30.2820   46.1160 H   0  0  0  0  0  0  0  0  0  0  0  0
   42.6860   29.1220   44.2120 H   0  0  0  0  0  0  0  0  0  0  0  0
   41.7440   26.7920   43.7880 H   0  0  0  0  0  0  0  0  0  0  0  0
   42.6290   25.1660   45.7150 H   0  0  0  0  0  0  0  0  0  0  0  0
   44.3440   25.4070   48.0890 C   0  0  0  0  0  0  0  0  0  0  0  0
   45.0230   25.1180   49.1190 O   0  0  0  0  0  0  0  0  0  0  0  0
   43.7550   24.6210   47.6130 H   0  0  0  0  0  0  0  0  0  0  0  0
  1  5  2  0  0  0  0
  2  1  1  0  0  0  0
  2  3  2  0  0  0  0
  3  4  1  0  0  0  0
  4 28  1  0  0  0  0
  5  4  1  0  0  0  0
  6  2  1  0  0  0  0
  7  3  1  0  0  0  0
  8 14  1  0  0  0  0
  8 13  1  0  0  0  0
  9  8  2  0  0  0  0
 10  9  1  0  0  0  0
 10 11  2  0  0  0  0
 11 12  1  0  0  0  0
 12 13  2  0  0  0  0
 12  1  1  0  0  0  0
 15  9  1  0  0  0  0
 16 17  1  0  0  0  0
 16 22  1  6  0  0  0
 17 10  1  1  0  0  0
 18 17  1  0  0  0  0
 19 18  1  0  0  0  0
 20 24  1  1  0  0  0
 20 19  1  0  0  0  0
 20 21  1  0  0  0  0
 21 26  1  1  0  0  0
 21 16  1  0  0  0  0
 22 23  1  0  0  0  0
 24 25  1  0  0  0  0
 27 26  1  0  0  0  0
 28 30  1  0  0  0  0
 28 31  1  0  0  0  0
 28 29  1  0  0  0  0
 31 33  1  0  0  0  0
 32 31  1  0  0  0  0
 34 43  1  0  0  0  0
 35 34  1  0  0  0  0
 35 31  1  0  0  0  0
 36 35  2  0  0  0  0
 37 41  2  0  0  0  0
 37 36  1  0  0  0  0
 38 37  1  0  0  0  0
 39 38  1  0  0  0  0
 39 40  2  0  0  0  0
 40 47  1  0  0  0  0
 40 41  1  0  0  0  0
 41 42  1  0  0  0  0
 42 48  1  0  0  0  0
 42 34  2  0  0  0  0
 44 36  1  0  0  0  0
 45 38  1  0  0  0  0
 46 39  1  0  0  0  0
 48 49  2  0  0  0  0
 50 48  1  0  0  0  0
M  END
>  <minimizedAffinity>
-5.71846962

>  <minimizedRMSD>
1.82951117

$$$$
