
 OpenBabel03242523233D

 46 49  0  0  1  0  0  0  0  0999 V2000
   47.1590   32.4290   44.4590 C   0  0  0  0  0  0  0  0  0  0  0  0
   47.9760   32.6520   43.4340 C   0  0  0  0  0  0  0  0  0  0  0  0
   48.7080   31.5750   43.0390 C   0  0  0  0  0  0  0  0  0  0  0  0
   48.5470   30.3590   43.7210 N   0  0  0  0  0  0  0  0  0  0  0  0
   47.7190   30.2060   44.7310 C   0  0  0  0  0  0  0  0  0  0  0  0
   46.9650   31.2700   45.1570 N   0  0  0  0  0  0  0  0  0  0  0  0
   49.4490   31.4140   42.2790 H   0  0  0  0  0  0  0  0  0  0  0  0
   47.6510   29.2150   45.2160 H   0  0  0  0  0  0  0  0  0  0  0  0
   48.2460   33.8940   42.7950 C   0  0  1  0  0  0  0  0  0  0  0  0
   49.2780   34.2400   41.9870 C   0  0  0  0  0  0  0  0  0  0  0  0
   47.9680   34.0580   41.2860 C   0  0  1  0  0  0  0  0  0  0  0  0
   47.8870   34.7630   43.4330 H   0  0  0  0  0  0  0  0  0  0  0  0
   49.6990   35.2790   41.8230 H   0  0  0  0  0  0  0  0  0  0  0  0
   50.0940   33.5190   41.7570 H   0  0  0  0  0  0  0  0  0  0  0  0
   47.3660   34.9910   41.0630 H   0  0  0  0  0  0  0  0  0  0  0  0
   47.0520   33.4640   39.1420 C   0  0  1  0  0  0  0  0  0  0  0  0
   47.9210   32.9590   40.3210 C   0  0  1  0  0  0  0  0  0  0  0  0
   49.1890   32.8210   39.6850 O   0  0  0  0  0  0  0  0  0  0  0  0
   49.1140   32.1790   38.4770 C   0  0  0  0  0  0  0  0  0  0  0  0
   48.7450   33.2180   37.4260 C   0  0  2  0  0  0  0  0  0  0  0  0
   47.9090   34.2550   38.1830 C   0  0  2  0  0  0  0  0  0  0  0  0
   46.4700   32.4060   38.4820 O   0  0  0  0  0  0  0  0  0  0  0  0
   45.5010   32.3640   38.7190 H   0  0  0  0  0  0  0  0  0  0  0  0
   48.0580   32.6500   36.3710 O   0  0  0  0  0  0  0  0  0  0  0  0
   47.6800   31.7570   36.5790 H   0  0  0  0  0  0  0  0  0  0  0  0
   48.8260   35.0440   38.8610 O   0  0  0  0  0  0  0  0  0  0  0  0
   48.8650   35.9780   38.5810 H   0  0  0  0  0  0  0  0  0  0  0  0
   46.2080   33.3920   45.0500 C   0  0  0  0  0  0  0  0  0  0  0  0
   45.6810   33.9700   45.9620 O   0  0  0  0  0  0  0  0  0  0  0  0
   44.4130   31.6520   43.2380 Cl  0  0  0  0  0  0  0  0  0  0  0  0
   44.5940   33.3820   43.0110 C   0  0  0  0  0  0  0  0  0  0  0  0
   45.4450   34.0420   43.9350 C   0  0  0  0  0  0  0  0  0  0  0  0
   45.4970   35.3880   43.6600 C   0  0  0  0  0  0  0  0  0  0  0  0
   44.9060   36.1050   42.7130 C   0  0  0  0  0  0  0  0  0  0  0  0
   44.0960   35.4000   41.8510 C   0  0  0  0  0  0  0  0  0  0  0  0
   43.9320   34.0520   41.9880 C   0  0  0  0  0  0  0  0  0  0  0  0
   46.1080   36.0320   44.3360 H   0  0  0  0  0  0  0  0  0  0  0  0
   45.0110   37.1800   42.5700 H   0  0  0  0  0  0  0  0  0  0  0  0
   43.5860   35.9600   41.0470 H   0  0  0  0  0  0  0  0  0  0  0  0
   43.1010   33.4690   41.0750 O   0  0  0  0  0  0  0  0  0  0  0  0
   40.8950   32.9520   39.7560 O   0  0  0  0  0  0  0  0  0  0  0  0
   41.4270   33.2090   41.1460 P   0  0  0  0  0  0  0  0  0  0  0  0
   41.1070   31.8980   42.1790 O   0  0  0  0  0  0  0  0  0  0  0  0
   41.0480   32.1810   43.1180 H   0  0  0  0  0  0  0  0  0  0  0  0
   40.6200   34.5280   41.8320 O   0  0  0  0  0  0  0  0  0  0  0  0
   41.2200   35.2760   42.0110 H   0  0  0  0  0  0  0  0  0  0  0  0
  1 28  1  0  0  0  0
  1  6  1  0  0  0  0
  2  1  2  0  0  0  0
  3  2  1  0  0  0  0
  3  4  2  0  0  0  0
  4  5  1  0  0  0  0
  5  6  2  0  0  0  0
  5  8  1  0  0  0  0
  7  3  1  0  0  0  0
  9 12  1  1  0  0  0
  9  2  1  0  0  0  0
 10  9  1  0  0  0  0
 11 15  1  6  0  0  0
 11 10  1  0  0  0  0
 11  9  1  0  0  0  0
 13 10  1  0  0  0  0
 14 10  1  0  0  0  0
 16 22  1  6  0  0  0
 16 17  1  0  0  0  0
 17 18  1  6  0  0  0
 17 11  1  0  0  0  0
 19 18  1  0  0  0  0
 20 24  1  6  0  0  0
 20 21  1  0  0  0  0
 20 19  1  0  0  0  0
 21 26  1  1  0  0  0
 21 16  1  0  0  0  0
 22 23  1  0  0  0  0
 24 25  1  0  0  0  0
 27 26  1  0  0  0  0
 28 29  2  0  0  0  0
 31 30  1  0  0  0  0
 31 32  1  0  0  0  0
 32 28  1  0  0  0  0
 33 32  2  0  0  0  0
 33 37  1  0  0  0  0
 34 33  1  0  0  0  0
 35 36  1  0  0  0  0
 35 34  2  0  0  0  0
 36 31  2  0  0  0  0
 38 34  1  0  0  0  0
 39 35  1  0  0  0  0
 40 42  1  0  0  0  0
 40 36  1  0  0  0  0
 41 42  2  0  0  0  0
 42 45  1  0  0  0  0
 42 43  1  0  0  0  0
 43 44  1  0  0  0  0
 45 46  1  0  0  0  0
M  END
>  <minimizedAffinity>
-6.4170742

>  <minimizedRMSD>
1.26821983

$$$$
