
 OpenBabel03252506193D

 26 27  0  0  1  0  0  0  0  0999 V2000
   44.8720   35.5460   43.7010 C   0  0  0  0  0  0  0  0  0  0  0  0
   44.0190   35.2400   42.5970 C   0  0  0  0  0  0  0  0  0  0  0  0
   44.0590   33.9180   42.1200 C   0  0  0  0  0  0  0  0  0  0  0  0
   44.8920   33.0150   42.7200 N   0  0  0  0  0  0  0  0  0  0  0  0
   45.6880   33.3610   43.7740 C   0  0  0  0  0  0  0  0  0  0  0  0
   45.6580   34.6270   44.2420 N   0  0  0  0  0  0  0  0  0  0  0  0
   43.4040   36.0220   42.2000 H   0  0  0  0  0  0  0  0  0  0  0  0
   43.4260   33.6700   41.2930 H   0  0  0  0  0  0  0  0  0  0  0  0
   45.8910   31.6950   45.5730 C   0  0  2  0  0  3  0  0  0  0  0  0
   46.5740   32.3650   44.3990 C   0  0  1  0  0  3  0  0  0  0  0  0
   46.9530   31.3400   43.5310 O   0  0  0  0  0  0  0  0  0  0  0  0
   48.0320   30.6820   44.1160 C   0  0  0  0  0  2  0  0  0  0  0  0
   47.6980   30.0470   45.4410 C   0  0  2  0  0  3  0  0  0  0  0  0
   46.9910   31.0100   46.3730 C   0  0  2  0  0  3  0  0  0  0  0  0
   44.9980   30.7020   45.1790 O   0  0  0  0  0  0  0  0  0  0  0  0
   44.1540   31.0560   44.8000 H   0  0  0  0  0  0  0  0  0  0  0  0
   48.9130   29.7170   46.0590 O   0  0  0  0  0  0  0  0  0  0  0  0
   49.1780   28.8410   45.6760 H   0  0  0  0  0  0  0  0  0  0  0  0
   46.3760   30.2910   47.4010 O   0  0  0  0  0  0  0  0  0  0  0  0
   46.3580   30.8220   48.2400 H   0  0  0  0  0  0  0  0  0  0  0  0
   44.8390   36.9080   44.2100 C   0  0  0  0  0  3  0  0  0  0  0  0
   45.3690   37.8750   43.4930 C   0  0  0  0  0  3  0  0  0  0  0  0
   45.3850   39.2900   43.9100 C   0  0  0  0  0  0  0  0  0  0  0  0
   44.4140   39.7430   43.5640 H   0  0  0  0  0  0  0  0  0  0  0  0
   46.1660   39.8550   43.3960 H   0  0  0  0  0  0  0  0  0  0  0  0
   45.3850   39.4130   45.0030 H   0  0  0  0  0  0  0  0  0  0  0  0
  1 21  1  0  0  0  0
  1  6  1  0  0  0  0
  2  1  2  0  0  0  0
  3  2  1  0  0  0  0
  3  4  2  0  0  0  0
  4  5  1  0  0  0  0
  5  6  2  0  0  0  0
  7  2  1  0  0  0  0
  8  3  1  0  0  0  0
  9 15  1  6  0  0  0
  9 14  1  0  0  0  0
 10  5  1  6  0  0  0
 10  9  1  0  0  0  0
 11 12  1  0  0  0  0
 11 10  1  0  0  0  0
 12 13  1  0  0  0  0
 13 17  1  1  0  0  0
 13 14  1  0  0  0  0
 14 19  1  1  0  0  0
 16 15  1  0  0  0  0
 18 17  1  0  0  0  0
 19 20  1  0  0  0  0
 22 23  1  0  0  0  0
 22 21  2  0  0  0  0
 23 26  1  0  0  0  0
 24 23  1  0  0  0  0
 25 23  1  0  0  0  0
M  END
>  <minimizedAffinity>
-3.70011282

>  <minimizedRMSD>
1.06347442

$$$$
