
 OpenBabel03252507083D

 27 28  0  0  1  0  0  0  0  0999 V2000
   44.5570   36.2030   44.5540 C   0  0  0  0  0  0  0  0  0  0  0  0
   45.1820   36.0940   43.2960 C   0  0  0  0  0  0  0  0  0  0  0  0
   45.9350   34.9550   43.0410 C   0  0  0  0  0  0  0  0  0  0  0  0
   46.0430   33.9910   44.0100 N   0  0  0  0  0  0  0  0  0  0  0  0
   45.4350   34.1310   45.1940 C   0  0  0  0  0  0  0  0  0  0  0  0
   44.6920   35.2280   45.4780 N   0  0  0  0  0  0  0  0  0  0  0  0
   43.9800   37.0970   44.7200 H   0  0  0  0  0  0  0  0  0  0  0  0
   45.0850   36.8540   42.5560 H   0  0  0  0  0  0  0  0  0  0  0  0
   47.0400   32.8180   46.4400 C   0  0  1  0  0  3  0  0  0  0  0  0
   45.5660   33.0780   46.2230 C   0  0  1  0  0  3  0  0  0  0  0  0
   44.9930   33.4130   47.4360 O   0  0  0  0  0  0  0  0  0  0  0  0
   45.0330   32.2720   48.2380 C   0  0  0  0  0  2  0  0  0  0  0  0
   46.4600   31.9350   48.6200 C   0  0  2  0  0  3  0  0  0  0  0  0
   47.2140   31.6160   47.3430 C   0  0  1  0  0  3  0  0  0  0  0  0
   47.7070   32.6340   45.2230 O   0  0  0  0  0  0  0  0  0  0  0  0
   47.1530   32.1130   44.5910 H   0  0  0  0  0  0  0  0  0  0  0  0
   46.4590   30.8570   49.4790 O   0  0  0  0  0  0  0  0  0  0  0  0
   45.9680   30.1040   49.1030 H   0  0  0  0  0  0  0  0  0  0  0  0
   46.6920   30.4600   46.8090 O   0  0  0  0  0  0  0  0  0  0  0  0
   46.3440   30.5210   45.9010 H   0  0  0  0  0  0  0  0  0  0  0  0
   46.5440   34.8730   41.7850 O   0  0  0  0  0  0  0  0  0  0  0  0
   48.4200   33.1180   41.1300 O   0  0  0  0  0  0  0  0  0  0  0  0
   48.2240   34.5080   41.7030 P   0  0  0  0  0  0  0  0  0  0  0  0
   48.9710   35.6840   40.7690 O   0  0  0  0  0  0  0  0  0  0  0  0
   49.0770   36.4900   41.3340 H   0  0  0  0  0  0  0  0  0  0  0  0
   48.8270   34.5100   43.2880 O   0  0  0  0  0  0  0  0  0  0  0  0
   49.3310   35.3600   43.4700 H   0  0  0  0  0  0  0  0  0  0  0  0
  1  7  1  0  0  0  0
  1  6  1  0  0  0  0
  2  1  2  0  0  0  0
  3  2  1  0  0  0  0
  3  4  2  0  0  0  0
  4  5  1  0  0  0  0
  5  6  2  0  0  0  0
  8  2  1  0  0  0  0
  9 15  1  6  0  0  0
  9 14  1  0  0  0  0
 10  5  1  6  0  0  0
 10  9  1  0  0  0  0
 10 11  1  0  0  0  0
 11 12  1  0  0  0  0
 12 13  1  0  0  0  0
 13 17  1  1  0  0  0
 14 19  1  6  0  0  0
 14 13  1  0  0  0  0
 16 15  1  0  0  0  0
 18 17  1  0  0  0  0
 20 19  1  0  0  0  0
 21  3  1  0  0  0  0
 22 23  2  0  0  0  0
 23 21  1  0  0  0  0
 23 26  1  0  0  0  0
 24 25  1  0  0  0  0
 24 23  1  0  0  0  0
 26 27  1  0  0  0  0
M  END
>  <minimizedAffinity>
-6.35459232

>  <minimizedRMSD>
0.553788841

$$$$
