
 OpenBabel03242518023D

 40 42  0  0  1  0  0  0  0  0999 V2000
   46.2390   31.6500   45.6590 C   0  0  0  0  0  0  0  0  0  0  0  0
   45.2380   31.9510   45.9510 H   0  0  0  0  0  0  0  0  0  0  0  0
   46.0930   30.6870   45.0820 H   0  0  0  0  0  0  0  0  0  0  0  0
   47.4110   32.3010   47.7560 C   0  0  0  0  0  0  0  0  0  0  0  0
   47.0600   31.3120   46.8110 C   0  0  0  0  0  0  0  0  0  0  0  0
   47.5470   30.0190   47.0530 C   0  0  0  0  0  0  0  0  0  0  0  0
   48.3060   29.7890   48.1450 N   0  0  0  0  0  0  0  0  0  0  0  0
   48.6180   30.7630   49.0240 C   0  0  0  0  0  0  0  0  0  0  0  0
   48.1730   32.0000   48.8250 N   0  0  0  0  0  0  0  0  0  0  0  0
   47.0810   33.3300   47.6540 H   0  0  0  0  0  0  0  0  0  0  0  0
   47.2920   29.2450   46.3460 H   0  0  0  0  0  0  0  0  0  0  0  0
   50.3990   31.6650   50.3610 C   0  0  1  0  0  3  0  0  0  0  0  0
   49.4550   30.4930   50.2230 C   0  0  2  0  0  3  0  0  0  0  0  0
   50.0780   29.2810   50.2110 O   0  0  0  0  0  0  0  0  0  0  0  0
   51.3130   29.2410   50.8060 C   0  0  0  0  0  2  0  0  0  0  0  0
   51.5010   30.1630   51.9760 C   0  0  2  0  0  3  0  0  0  0  0  0
   51.0670   31.5730   51.7100 C   0  0  1  0  0  3  0  0  0  0  0  0
   51.2810   31.6290   49.3090 O   0  0  0  0  0  0  0  0  0  0  0  0
   51.8470   32.4290   49.2300 H   0  0  0  0  0  0  0  0  0  0  0  0
   52.8640   30.1790   52.2670 O   0  0  0  0  0  0  0  0  0  0  0  0
   53.0390   30.4580   53.2040 H   0  0  0  0  0  0  0  0  0  0  0  0
   52.0650   32.5140   51.7780 O   0  0  0  0  0  0  0  0  0  0  0  0
   52.9170   32.0770   51.9550 H   0  0  0  0  0  0  0  0  0  0  0  0
   47.0070   32.6560   44.8290 C   0  0  0  0  0  0  0  0  0  0  0  0
   47.9310   33.0240   45.3650 H   0  0  0  0  0  0  0  0  0  0  0  0
   47.4080   32.1170   43.9510 H   0  0  0  0  0  0  0  0  0  0  0  0
   46.5160   34.5000   43.2750 C   0  0  0  0  0  0  0  0  0  0  0  0
   46.2490   33.8630   44.4700 C   0  0  0  0  0  0  0  0  0  0  0  0
   45.2990   34.2980   45.3540 C   0  0  0  0  0  0  0  0  0  0  0  0
   44.5750   35.4240   45.0360 C   0  0  0  0  0  0  0  0  0  0  0  0
   44.7740   36.1190   43.8730 C   0  0  0  0  0  0  0  0  0  0  0  0
   45.7570   35.6180   43.0220 C   0  0  0  0  0  0  0  0  0  0  0  0
   45.0270   33.8800   46.2880 H   0  0  0  0  0  0  0  0  0  0  0  0
   43.7970   35.8480   45.6770 H   0  0  0  0  0  0  0  0  0  0  0  0
   44.2100   37.0090   43.6110 H   0  0  0  0  0  0  0  0  0  0  0  0
   45.9490   36.1410   42.0820 H   0  0  0  0  0  0  0  0  0  0  0  0
   47.7250   33.9760   42.1210 S   0  0  0  0  0  0  0  0  0  0  0  0
   49.1150   34.4410   42.4970 O   0  0  0  0  0  0  0  0  0  0  0  0
   47.4430   34.6530   40.7980 O   0  0  0  0  0  0  0  0  0  0  0  0
   47.6760   32.6400   41.8600 H   0  0  0  0  0  0  0  0  0  0  0  0
  1  2  1  0  0  0  0
  1  5  1  0  0  0  0
  3  1  1  0  0  0  0
  4  9  1  0  0  0  0
  5  6  1  0  0  0  0
  5  4  2  0  0  0  0
  6  7  2  0  0  0  0
  7  8  1  0  0  0  0
  9  8  2  0  0  0  0
 10  4  1  0  0  0  0
 11  6  1  0  0  0  0
 12 18  1  6  0  0  0
 12 17  1  0  0  0  0
 13  8  1  6  0  0  0
 13 12  1  0  0  0  0
 14 13  1  0  0  0  0
 14 15  1  0  0  0  0
 15 16  1  0  0  0  0
 16 20  1  6  0  0  0
 17 22  1  6  0  0  0
 17 16  1  0  0  0  0
 19 18  1  0  0  0  0
 20 21  1  0  0  0  0
 22 23  1  0  0  0  0
 24 25  1  0  0  0  0
 24  1  1  0  0  0  0
 26 24  1  0  0  0  0
 27 28  1  0  0  0  0
 28 24  1  0  0  0  0
 28 29  2  0  0  0  0
 29 33  1  0  0  0  0
 30 29  1  0  0  0  0
 30 34  1  0  0  0  0
 31 30  2  0  0  0  0
 32 27  2  0  0  0  0
 32 31  1  0  0  0  0
 35 31  1  0  0  0  0
 36 32  1  0  0  0  0
 37 38  2  0  0  0  0
 37 27  1  0  0  0  0
 39 37  2  0  0  0  0
 40 37  1  0  0  0  0
M  END
>  <minimizedAffinity>
-6.2251339

>  <minimizedRMSD>
0.262868226

$$$$
