
 OpenBabel03242522323D

 42 45  0  0  1  0  0  0  0  0999 V2000
   38.5820   29.1460   41.1560 F   0  0  0  0  0  0  0  0  0  0  0  0
   37.5610   29.2770   40.2790 C   0  0  0  0  0  0  0  0  0  0  0  0
   37.3740   30.4360   39.6110 C   0  0  0  0  0  0  0  0  0  0  0  0
   36.3030   30.4860   38.7310 C   0  0  0  0  0  0  0  0  0  0  0  0
   35.4590   29.4230   38.5300 C   0  0  0  0  0  0  0  0  0  0  0  0
   35.7190   28.2860   39.2460 C   0  0  0  0  0  0  0  0  0  0  0  0
   36.7510   28.1760   40.1230 C   0  0  0  0  0  0  0  0  0  0  0  0
   36.1390   31.4120   38.1870 H   0  0  0  0  0  0  0  0  0  0  0  0
   34.6300   29.4910   37.8370 H   0  0  0  0  0  0  0  0  0  0  0  0
   35.0490   27.4440   39.0860 H   0  0  0  0  0  0  0  0  0  0  0  0
   36.9260   26.9220   40.8220 C   0  0  0  0  0  0  0  0  0  0  0  0
   37.3520   25.8030   40.1310 C   0  0  0  0  0  0  0  0  0  0  0  0
   37.5110   24.6320   40.8060 C   0  0  0  0  0  0  0  0  0  0  0  0
   37.2500   24.5490   42.1750 C   0  0  0  0  0  0  0  0  0  0  0  0
   36.8220   25.7080   42.8260 C   0  0  0  0  0  0  0  0  0  0  0  0
   36.6590   26.8930   42.1500 C   0  0  0  0  0  0  0  0  0  0  0  0
   37.5440   25.9050   39.0670 H   0  0  0  0  0  0  0  0  0  0  0  0
   37.8430   23.7840   40.2380 H   0  0  0  0  0  0  0  0  0  0  0  0
   37.3970   23.5950   42.6410 H   0  0  0  0  0  0  0  0  0  0  0  0
   36.6550   25.5130   43.8760 H   0  0  0  0  0  0  0  0  0  0  0  0
   36.2330   27.8760   43.0060 O   0  0  0  0  0  0  0  0  0  0  0  0
   36.7930   28.3130   43.7010 H   0  0  0  0  0  0  0  0  0  0  0  0
   38.7830   33.8300   40.4870 C   0  0  0  0  0  0  0  0  0  0  0  0
   37.8690   32.7970   40.2710 C   0  0  0  0  0  0  0  0  0  0  0  0
   38.2970   31.5540   39.8510 C   0  0  0  0  0  0  0  0  0  0  0  0
   39.6310   31.4160   39.6680 N   0  0  0  0  0  0  0  0  0  0  0  0
   40.4930   32.4140   39.8780 C   0  0  0  0  0  0  0  0  0  0  0  0
   40.0650   33.6190   40.2870 N   0  0  0  0  0  0  0  0  0  0  0  0
   38.3610   34.7680   40.8140 H   0  0  0  0  0  0  0  0  0  0  0  0
   36.8010   32.9160   40.4200 H   0  0  0  0  0  0  0  0  0  0  0  0
   42.6560   33.5890   39.5720 C   0  0  2  0  0  3  0  0  0  0  0  0
   41.9670   32.2490   39.6740 C   0  0  2  0  0  3  0  0  0  0  0  0
   42.2180   31.5950   38.4600 O   0  0  0  0  0  0  0  0  0  0  0  0
   41.9030   32.4980   37.4430 C   0  0  0  0  0  2  0  0  0  0  0  0
   43.1950   33.2780   37.1890 C   0  0  2  0  0  3  0  0  0  0  0  0
   43.7930   33.5320   38.5610 C   0  0  1  0  0  3  0  0  0  0  0  0
   43.1840   33.9930   40.8070 O   0  0  0  0  0  0  0  0  0  0  0  0
   43.4750   33.2240   41.3680 H   0  0  0  0  0  0  0  0  0  0  0  0
   42.8320   34.4410   36.5390 O   0  0  0  0  0  0  0  0  0  0  0  0
   43.0980   34.4730   35.5880 H   0  0  0  0  0  0  0  0  0  0  0  0
   44.5060   34.7160   38.5990 O   0  0  0  0  0  0  0  0  0  0  0  0
   44.7850   34.9150   37.6530 H   0  0  0  0  0  0  0  0  0  0  0  0
  2  1  1  0  0  0  0
  3 25  1  0  0  0  0
  3  2  2  0  0  0  0
  4  3  1  0  0  0  0
  5  4  2  0  0  0  0
  5  6  1  0  0  0  0
  6  7  2  0  0  0  0
  7  2  1  0  0  0  0
  7 11  1  0  0  0  0
  8  4  1  0  0  0  0
  9  5  1  0  0  0  0
 10  6  1  0  0  0  0
 11 16  1  0  0  0  0
 12 13  1  0  0  0  0
 12 11  2  0  0  0  0
 13 14  2  0  0  0  0
 14 19  1  0  0  0  0
 14 15  1  0  0  0  0
 15 20  1  0  0  0  0
 16 15  2  0  0  0  0
 16 21  1  0  0  0  0
 17 12  1  0  0  0  0
 18 13  1  0  0  0  0
 21 22  1  0  0  0  0
 23 29  1  0  0  0  0
 24 30  1  0  0  0  0
 24 23  2  0  0  0  0
 25 24  1  0  0  0  0
 26 25  2  0  0  0  0
 26 27  1  0  0  0  0
 27 28  2  0  0  0  0
 28 23  1  0  0  0  0
 31 32  1  0  0  0  0
 31 37  1  1  0  0  0
 32 27  1  6  0  0  0
 33 32  1  0  0  0  0
 34 33  1  0  0  0  0
 35 39  1  1  0  0  0
 35 34  1  0  0  0  0
 35 36  1  0  0  0  0
 36 41  1  6  0  0  0
 36 31  1  0  0  0  0
 37 38  1  0  0  0  0
 40 39  1  0  0  0  0
 42 41  1  0  0  0  0
M  END
>  <minimizedAffinity>
-7.71275711

$$$$

 OpenBabel03242522323D

 42 45  0  0  1  0  0  0  0  0999 V2000
   37.2150   31.0080   37.3270 F   0  0  0  0  0  0  0  0  0  0  0  0
   36.6040   30.5020   38.4220 C   0  0  0  0  0  0  0  0  0  0  0  0
   36.8870   30.9840   39.6520 C   0  0  0  0  0  0  0  0  0  0  0  0
   36.2160   30.4080   40.7200 C   0  0  0  0  0  0  0  0  0  0  0  0
   35.3040   29.3950   40.5630 C   0  0  0  0  0  0  0  0  0  0  0  0
   35.0750   28.9640   39.2840 C   0  0  0  0  0  0  0  0  0  0  0  0
   35.7010   29.4880   38.1980 C   0  0  0  0  0  0  0  0  0  0  0  0
   36.4340   30.7850   41.7160 H   0  0  0  0  0  0  0  0  0  0  0  0
   34.7950   28.9640   41.4160 H   0  0  0  0  0  0  0  0  0  0  0  0
   34.3520   28.1620   39.1610 H   0  0  0  0  0  0  0  0  0  0  0  0
   35.3770   28.9510   36.8950 C   0  0  0  0  0  0  0  0  0  0  0  0
   34.1360   29.2000   36.3380 C   0  0  0  0  0  0  0  0  0  0  0  0
   33.8490   28.6870   35.1110 C   0  0  0  0  0  0  0  0  0  0  0  0
   34.7830   27.9180   34.4150 C   0  0  0  0  0  0  0  0  0  0  0  0
   36.0220   27.6950   35.0220 C   0  0  0  0  0  0  0  0  0  0  0  0
   36.3180   28.2110   36.2610 C   0  0  0  0  0  0  0  0  0  0  0  0
   33.4340   29.8020   36.9080 H   0  0  0  0  0  0  0  0  0  0  0  0
   32.8760   28.9000   34.7090 H   0  0  0  0  0  0  0  0  0  0  0  0
   34.4890   27.5460   33.4540 H   0  0  0  0  0  0  0  0  0  0  0  0
   36.6530   27.0900   34.3860 H   0  0  0  0  0  0  0  0  0  0  0  0
   37.5880   27.8540   36.6350 O   0  0  0  0  0  0  0  0  0  0  0  0
   38.4250   28.2230   36.2470 H   0  0  0  0  0  0  0  0  0  0  0  0
   38.4740   34.3810   40.1190 C   0  0  0  0  0  0  0  0  0  0  0  0
   37.5050   33.3830   40.0000 C   0  0  0  0  0  0  0  0  0  0  0  0
   37.8690   32.0690   39.7830 C   0  0  0  0  0  0  0  0  0  0  0  0
   39.1990   31.8280   39.6960 N   0  0  0  0  0  0  0  0  0  0  0  0
   40.1140   32.7940   39.8120 C   0  0  0  0  0  0  0  0  0  0  0  0
   39.7470   34.0690   40.0230 N   0  0  0  0  0  0  0  0  0  0  0  0
   38.1000   35.3780   40.2880 H   0  0  0  0  0  0  0  0  0  0  0  0
   36.4420   33.5840   40.0710 H   0  0  0  0  0  0  0  0  0  0  0  0
   42.3710   33.7950   39.5720 C   0  0  2  0  0  3  0  0  0  0  0  0
   41.5810   32.5150   39.7150 C   0  0  2  0  0  3  0  0  0  0  0  0
   41.8580   31.7630   38.5660 O   0  0  0  0  0  0  0  0  0  0  0  0
   41.6710   32.6120   37.4740 C   0  0  0  0  0  2  0  0  0  0  0  0
   43.0290   33.2830   37.2540 C   0  0  2  0  0  3  0  0  0  0  0  0
   43.5590   33.5910   38.6430 C   0  0  1  0  0  3  0  0  0  0  0  0
   42.8500   34.2470   40.8090 O   0  0  0  0  0  0  0  0  0  0  0  0
   43.0500   33.5010   41.4380 H   0  0  0  0  0  0  0  0  0  0  0  0
   42.7900   34.4200   36.5080 O   0  0  0  0  0  0  0  0  0  0  0  0
   43.1150   34.3680   35.5760 H   0  0  0  0  0  0  0  0  0  0  0  0
   44.3520   34.7230   38.6510 O   0  0  0  0  0  0  0  0  0  0  0  0
   44.7010   34.8360   37.7130 H   0  0  0  0  0  0  0  0  0  0  0  0
  1  2  1  0  0  0  0
  2  3  1  0  0  0  0
  3 25  1  0  0  0  0
  3  4  2  0  0  0  0
  4  8  1  0  0  0  0
  5  4  1  0  0  0  0
  5  9  1  0  0  0  0
  6  5  2  0  0  0  0
  7  2  2  0  0  0  0
  7  6  1  0  0  0  0
 10  6  1  0  0  0  0
 11  7  1  0  0  0  0
 12 11  1  0  0  0  0
 12 17  1  0  0  0  0
 13 12  2  0  0  0  0
 14 15  2  0  0  0  0
 14 13  1  0  0  0  0
 15 16  1  0  0  0  0
 16 21  1  0  0  0  0
 16 11  2  0  0  0  0
 18 13  1  0  0  0  0
 19 14  1  0  0  0  0
 20 15  1  0  0  0  0
 22 21  1  0  0  0  0
 23 29  1  0  0  0  0
 24 30  1  0  0  0  0
 24 23  2  0  0  0  0
 25 24  1  0  0  0  0
 26 25  2  0  0  0  0
 26 27  1  0  0  0  0
 27 28  2  0  0  0  0
 28 23  1  0  0  0  0
 31 32  1  0  0  0  0
 31 37  1  1  0  0  0
 32 27  1  6  0  0  0
 33 32  1  0  0  0  0
 34 33  1  0  0  0  0
 35 39  1  6  0  0  0
 35 34  1  0  0  0  0
 35 36  1  0  0  0  0
 36 41  1  6  0  0  0
 36 31  1  0  0  0  0
 37 38  1  0  0  0  0
 40 39  1  0  0  0  0
 42 41  1  0  0  0  0
M  END
>  <minimizedAffinity>
-7.61397696

$$$$

 OpenBabel03242522323D

 42 45  0  0  1  0  0  0  0  0999 V2000
   39.5540   27.1210   40.6980 F   0  0  0  0  0  0  0  0  0  0  0  0
   38.7260   27.4560   41.7140 C   0  0  0  0  0  0  0  0  0  0  0  0
   38.9890   28.5290   42.4890 C   0  0  0  0  0  0  0  0  0  0  0  0
   38.0890   28.8020   43.5080 C   0  0  0  0  0  0  0  0  0  0  0  0
   36.9760   28.0330   43.7390 C   0  0  0  0  0  0  0  0  0  0  0  0
   36.7820   26.9630   42.9070 C   0  0  0  0  0  0  0  0  0  0  0  0
   37.6280   26.6450   41.8930 C   0  0  0  0  0  0  0  0  0  0  0  0
   38.2880   29.6620   44.1420 H   0  0  0  0  0  0  0  0  0  0  0  0
   36.2900   28.2690   44.5430 H   0  0  0  0  0  0  0  0  0  0  0  0
   35.9000   26.3550   43.0910 H   0  0  0  0  0  0  0  0  0  0  0  0
   37.3190   25.4900   41.0790 C   0  0  0  0  0  0  0  0  0  0  0  0
   36.6060   25.6470   39.9050 C   0  0  0  0  0  0  0  0  0  0  0  0
   36.3250   24.5490   39.1530 C   0  0  0  0  0  0  0  0  0  0  0  0
   36.7430   23.2780   39.5500 C   0  0  0  0  0  0  0  0  0  0  0  0
   37.4600   23.1730   40.7440 C   0  0  0  0  0  0  0  0  0  0  0  0
   37.7470   24.2780   41.5090 C   0  0  0  0  0  0  0  0  0  0  0  0
   36.2960   26.6510   39.6280 H   0  0  0  0  0  0  0  0  0  0  0  0
   35.7690   24.7080   38.2480 H   0  0  0  0  0  0  0  0  0  0  0  0
   36.4860   22.4580   38.9090 H   0  0  0  0  0  0  0  0  0  0  0  0
   37.7240   22.1430   40.9390 H   0  0  0  0  0  0  0  0  0  0  0  0
   38.4560   23.9160   42.6250 O   0  0  0  0  0  0  0  0  0  0  0  0
   39.4060   23.6250   42.6310 H   0  0  0  0  0  0  0  0  0  0  0  0
   42.5060   29.9080   42.5680 C   0  0  0  0  0  0  0  0  0  0  0  0
   41.3900   29.1220   42.8630 C   0  0  0  0  0  0  0  0  0  0  0  0
   40.1900   29.3300   42.2140 C   0  0  0  0  0  0  0  0  0  0  0  0
   40.1760   30.3270   41.2970 N   0  0  0  0  0  0  0  0  0  0  0  0
   41.2510   31.0700   41.0260 C   0  0  0  0  0  0  0  0  0  0  0  0
   42.4140   30.8570   41.6640 N   0  0  0  0  0  0  0  0  0  0  0  0
   43.4010   29.6760   43.1230 H   0  0  0  0  0  0  0  0  0  0  0  0
   41.4100   28.3270   43.5990 H   0  0  0  0  0  0  0  0  0  0  0  0
   40.1760   31.9080   38.9540 C   0  0  2  0  0  3  0  0  0  0  0  0
   41.2240   32.1680   40.0090 C   0  0  2  0  0  3  0  0  0  0  0  0
   42.4470   32.2290   39.3280 O   0  0  0  0  0  0  0  0  0  0  0  0
   42.5080   31.1020   38.5070 C   0  0  0  0  0  2  0  0  0  0  0  0
   41.8550   31.5310   37.1910 C   0  0  2  0  0  3  0  0  0  0  0  0
   40.6590   32.3780   37.5890 C   0  0  1  0  0  3  0  0  0  0  0  0
   38.9730   32.5660   39.2470 O   0  0  0  0  0  0  0  0  0  0  0  0
   39.1160   33.4230   39.7350 H   0  0  0  0  0  0  0  0  0  0  0  0
   41.4940   30.3720   36.5340 O   0  0  0  0  0  0  0  0  0  0  0  0
   42.0400   30.1740   35.7330 H   0  0  0  0  0  0  0  0  0  0  0  0
   39.6290   32.2760   36.6730 O   0  0  0  0  0  0  0  0  0  0  0  0
   40.0470   31.9990   35.8000 H   0  0  0  0  0  0  0  0  0  0  0  0
  1  2  1  0  0  0  0
  2  7  2  0  0  0  0
  2  3  1  0  0  0  0
  3  4  2  0  0  0  0
  4  5  1  0  0  0  0
  4  8  1  0  0  0  0
  5  9  1  0  0  0  0
  6 10  1  0  0  0  0
  6  5  2  0  0  0  0
  7  6  1  0  0  0  0
 11 16  1  0  0  0  0
 11  7  1  0  0  0  0
 12 11  2  0  0  0  0
 13 14  2  0  0  0  0
 13 12  1  0  0  0  0
 14 15  1  0  0  0  0
 15 20  1  0  0  0  0
 15 16  2  0  0  0  0
 16 21  1  0  0  0  0
 17 12  1  0  0  0  0
 18 13  1  0  0  0  0
 19 14  1  0  0  0  0
 21 22  1  0  0  0  0
 23 24  1  0  0  0  0
 23 29  1  0  0  0  0
 24 30  1  0  0  0  0
 25  3  1  0  0  0  0
 25 24  2  0  0  0  0
 26 25  1  0  0  0  0
 27 26  2  0  0  0  0
 27 28  1  0  0  0  0
 28 23  2  0  0  0  0
 31 37  1  1  0  0  0
 31 32  1  0  0  0  0
 32 27  1  1  0  0  0
 33 32  1  0  0  0  0
 34 33  1  0  0  0  0
 35 39  1  1  0  0  0
 35 36  1  0  0  0  0
 35 34  1  0  0  0  0
 36 41  1  6  0  0  0
 36 31  1  0  0  0  0
 37 38  1  0  0  0  0
 40 39  1  0  0  0  0
 42 41  1  0  0  0  0
M  END
>  <minimizedAffinity>
-7.49714708

$$$$

 OpenBabel03242522323D

 42 45  0  0  1  0  0  0  0  0999 V2000
   38.0530   27.8630   39.9770 F   0  0  0  0  0  0  0  0  0  0  0  0
   37.8550   27.9490   41.3120 C   0  0  0  0  0  0  0  0  0  0  0  0
   37.8290   29.1520   41.9260 C   0  0  0  0  0  0  0  0  0  0  0  0
   37.6210   29.1500   43.2970 C   0  0  0  0  0  0  0  0  0  0  0  0
   37.4470   27.9970   44.0190 C   0  0  0  0  0  0  0  0  0  0  0  0
   37.4870   26.8200   43.3200 C   0  0  0  0  0  0  0  0  0  0  0  0
   37.6870   26.7570   41.9780 C   0  0  0  0  0  0  0  0  0  0  0  0
   37.5980   30.1110   43.8060 H   0  0  0  0  0  0  0  0  0  0  0  0
   37.2860   28.0250   45.0900 H   0  0  0  0  0  0  0  0  0  0  0  0
   37.3480   25.9060   43.8930 H   0  0  0  0  0  0  0  0  0  0  0  0
   37.7090   25.4550   41.3490 C   0  0  0  0  0  0  0  0  0  0  0  0
   36.5290   24.8830   40.9100 C   0  0  0  0  0  0  0  0  0  0  0  0
   36.5690   23.6580   40.3200 C   0  0  0  0  0  0  0  0  0  0  0  0
   37.7770   22.9770   40.1550 C   0  0  0  0  0  0  0  0  0  0  0  0
   38.9410   23.5980   40.6160 C   0  0  0  0  0  0  0  0  0  0  0  0
   38.9070   24.8350   41.2130 C   0  0  0  0  0  0  0  0  0  0  0  0
   35.6090   25.4420   41.0550 H   0  0  0  0  0  0  0  0  0  0  0  0
   35.6350   23.2440   39.9920 H   0  0  0  0  0  0  0  0  0  0  0  0
   37.7340   22.0160   39.6830 H   0  0  0  0  0  0  0  0  0  0  0  0
   39.8030   22.9730   40.4310 H   0  0  0  0  0  0  0  0  0  0  0  0
   40.1700   25.2260   41.5750 O   0  0  0  0  0  0  0  0  0  0  0  0
   40.8840   25.5140   40.9460 H   0  0  0  0  0  0  0  0  0  0  0  0
   37.1980   32.2000   39.7850 C   0  0  0  0  0  0  0  0  0  0  0  0
   36.9690   31.0490   40.5410 C   0  0  0  0  0  0  0  0  0  0  0  0
   38.0190   30.3670   41.1220 C   0  0  0  0  0  0  0  0  0  0  0  0
   39.2530   30.8840   40.9100 N   0  0  0  0  0  0  0  0  0  0  0  0
   39.4560   31.9870   40.1850 C   0  0  0  0  0  0  0  0  0  0  0  0
   38.4250   32.6410   39.6240 N   0  0  0  0  0  0  0  0  0  0  0  0
   36.3200   32.6690   39.3690 H   0  0  0  0  0  0  0  0  0  0  0  0
   35.9780   30.6410   40.7060 H   0  0  0  0  0  0  0  0  0  0  0  0
   40.8830   33.3360   38.6700 C   0  0  2  0  0  3  0  0  0  0  0  0
   40.8240   32.5490   39.9580 C   0  0  2  0  0  3  0  0  0  0  0  0
   41.7580   31.5140   39.8180 O   0  0  0  0  0  0  0  0  0  0  0  0
   41.5070   30.9080   38.5860 C   0  0  0  0  0  2  0  0  0  0  0  0
   42.3540   31.6880   37.5780 C   0  0  2  0  0  3  0  0  0  0  0  0
   42.2300   33.1460   37.9860 C   0  0  1  0  0  3  0  0  0  0  0  0
   40.6910   34.7070   38.8930 O   0  0  0  0  0  0  0  0  0  0  0  0
   41.0390   35.0020   39.7780 H   0  0  0  0  0  0  0  0  0  0  0  0
   41.8170   31.4340   36.3320 O   0  0  0  0  0  0  0  0  0  0  0  0
   42.3820   30.8620   35.7570 H   0  0  0  0  0  0  0  0  0  0  0  0
   42.3210   33.9930   36.8980 O   0  0  0  0  0  0  0  0  0  0  0  0
   42.8260   33.4930   36.1850 H   0  0  0  0  0  0  0  0  0  0  0  0
  1  2  1  0  0  0  0
  2  3  2  0  0  0  0
  2  7  1  0  0  0  0
  3  4  1  0  0  0  0
  4  8  1  0  0  0  0
  4  5  2  0  0  0  0
  5  9  1  0  0  0  0
  6 10  1  0  0  0  0
  6  5  1  0  0  0  0
  7  6  2  0  0  0  0
 11  7  1  0  0  0  0
 12 17  1  0  0  0  0
 12 11  2  0  0  0  0
 13 12  1  0  0  0  0
 14 13  2  0  0  0  0
 14 15  1  0  0  0  0
 15 16  2  0  0  0  0
 16 11  1  0  0  0  0
 16 21  1  0  0  0  0
 18 13  1  0  0  0  0
 19 14  1  0  0  0  0
 20 15  1  0  0  0  0
 22 21  1  0  0  0  0
 23 24  1  0  0  0  0
 24 30  1  0  0  0  0
 24 25  2  0  0  0  0
 25  3  1  0  0  0  0
 26 25  1  0  0  0  0
 27 26  2  0  0  0  0
 28 23  2  0  0  0  0
 28 27  1  0  0  0  0
 29 23  1  0  0  0  0
 31 37  1  1  0  0  0
 31 32  1  0  0  0  0
 32 27  1  6  0  0  0
 33 32  1  0  0  0  0
 34 33  1  0  0  0  0
 35 39  1  6  0  0  0
 35 36  1  0  0  0  0
 35 34  1  0  0  0  0
 36 41  1  6  0  0  0
 36 31  1  0  0  0  0
 37 38  1  0  0  0  0
 40 39  1  0  0  0  0
 42 41  1  0  0  0  0
M  END
>  <minimizedAffinity>
-7.29752684

$$$$

 OpenBabel03242522323D

 42 45  0  0  1  0  0  0  0  0999 V2000
   38.5700   29.4190   39.9700 F   0  0  0  0  0  0  0  0  0  0  0  0
   38.2600   28.7730   41.1170 C   0  0  0  0  0  0  0  0  0  0  0  0
   39.0770   28.8470   42.1890 C   0  0  0  0  0  0  0  0  0  0  0  0
   38.6850   28.1550   43.3250 C   0  0  0  0  0  0  0  0  0  0  0  0
   37.5260   27.4220   43.3820 C   0  0  0  0  0  0  0  0  0  0  0  0
   36.7540   27.3990   42.2520 C   0  0  0  0  0  0  0  0  0  0  0  0
   37.0860   28.0560   41.1100 C   0  0  0  0  0  0  0  0  0  0  0  0
   39.3330   28.2040   44.1960 H   0  0  0  0  0  0  0  0  0  0  0  0
   37.2450   26.8900   44.2830 H   0  0  0  0  0  0  0  0  0  0  0  0
   35.8360   26.8180   42.2990 H   0  0  0  0  0  0  0  0  0  0  0  0
   36.1900   27.9580   39.9790 C   0  0  0  0  0  0  0  0  0  0  0  0
   36.3090   26.9000   39.0970 C   0  0  0  0  0  0  0  0  0  0  0  0
   35.4560   26.8240   38.0390 C   0  0  0  0  0  0  0  0  0  0  0  0
   34.4740   27.7940   37.8350 C   0  0  0  0  0  0  0  0  0  0  0  0
   34.3950   28.8430   38.7540 C   0  0  0  0  0  0  0  0  0  0  0  0
   35.2530   28.9250   39.8250 C   0  0  0  0  0  0  0  0  0  0  0  0
   37.0850   26.1640   39.2870 H   0  0  0  0  0  0  0  0  0  0  0  0
   35.5780   25.9890   37.3750 H   0  0  0  0  0  0  0  0  0  0  0  0
   33.8380   27.6710   36.9810 H   0  0  0  0  0  0  0  0  0  0  0  0
   33.5990   29.5230   38.4870 H   0  0  0  0  0  0  0  0  0  0  0  0
   34.9750   30.0390   40.5750 O   0  0  0  0  0  0  0  0  0  0  0  0
   34.1800   30.1510   41.1620 H   0  0  0  0  0  0  0  0  0  0  0  0
   42.5050   30.2880   42.8580 C   0  0  0  0  0  0  0  0  0  0  0  0
   41.3520   29.5130   42.9890 C   0  0  0  0  0  0  0  0  0  0  0  0
   40.3100   29.6400   42.0930 C   0  0  0  0  0  0  0  0  0  0  0  0
   40.4850   30.5500   41.1050 N   0  0  0  0  0  0  0  0  0  0  0  0
   41.5950   31.2840   40.9920 C   0  0  0  0  0  0  0  0  0  0  0  0
   42.6020   31.1500   41.8710 N   0  0  0  0  0  0  0  0  0  0  0  0
   43.2680   30.1230   43.6020 H   0  0  0  0  0  0  0  0  0  0  0  0
   41.2190   28.7870   43.7840 H   0  0  0  0  0  0  0  0  0  0  0  0
   40.6530   32.2060   38.8900 C   0  0  2  0  0  3  0  0  0  0  0  0
   41.7780   32.2850   39.8940 C   0  0  2  0  0  3  0  0  0  0  0  0
   42.9520   32.0120   39.1780 O   0  0  0  0  0  0  0  0  0  0  0  0
   42.7140   30.8470   38.4460 C   0  0  0  0  0  2  0  0  0  0  0  0
   42.1210   31.3260   37.1190 C   0  0  2  0  0  3  0  0  0  0  0  0
   41.1720   32.4550   37.4810 C   0  0  1  0  0  3  0  0  0  0  0  0
   39.6500   33.1460   39.1630 O   0  0  0  0  0  0  0  0  0  0  0  0
   40.0080   33.9770   39.5790 H   0  0  0  0  0  0  0  0  0  0  0  0
   41.4740   30.2410   36.5620 O   0  0  0  0  0  0  0  0  0  0  0  0
   41.9240   29.8670   35.7650 H   0  0  0  0  0  0  0  0  0  0  0  0
   40.1080   32.5330   36.6020 O   0  0  0  0  0  0  0  0  0  0  0  0
   40.4130   32.1060   35.7430 H   0  0  0  0  0  0  0  0  0  0  0  0
  1  2  1  0  0  0  0
  2  3  1  0  0  0  0
  3  4  2  0  0  0  0
  4  5  1  0  0  0  0
  4  8  1  0  0  0  0
  5  9  1  0  0  0  0
  6 10  1  0  0  0  0
  6  5  2  0  0  0  0
  7  2  2  0  0  0  0
  7  6  1  0  0  0  0
 11  7  1  0  0  0  0
 12 17  1  0  0  0  0
 12 11  2  0  0  0  0
 13 12  1  0  0  0  0
 14 13  2  0  0  0  0
 14 15  1  0  0  0  0
 15 16  2  0  0  0  0
 16 11  1  0  0  0  0
 16 21  1  0  0  0  0
 18 13  1  0  0  0  0
 19 14  1  0  0  0  0
 20 15  1  0  0  0  0
 21 22  1  0  0  0  0
 23 24  1  0  0  0  0
 23 29  1  0  0  0  0
 24 30  1  0  0  0  0
 25  3  1  0  0  0  0
 25 24  2  0  0  0  0
 26 25  1  0  0  0  0
 27 26  2  0  0  0  0
 27 28  1  0  0  0  0
 28 23  2  0  0  0  0
 31 37  1  1  0  0  0
 31 32  1  0  0  0  0
 32 27  1  1  0  0  0
 33 32  1  0  0  0  0
 34 33  1  0  0  0  0
 35 39  1  1  0  0  0
 35 36  1  0  0  0  0
 35 34  1  0  0  0  0
 36 41  1  6  0  0  0
 36 31  1  0  0  0  0
 37 38  1  0  0  0  0
 40 39  1  0  0  0  0
 42 41  1  0  0  0  0
M  END
>  <minimizedAffinity>
-7.24806118

$$$$

 OpenBabel03242522323D

 42 45  0  0  1  0  0  0  0  0999 V2000
   40.6650   31.2410   38.7340 F   0  0  0  0  0  0  0  0  0  0  0  0
   40.1720   32.3760   39.2790 C   0  0  0  0  0  0  0  0  0  0  0  0
   38.8600   32.4790   39.5820 C   0  0  0  0  0  0  0  0  0  0  0  0
   38.4370   33.6770   40.1380 C   0  0  0  0  0  0  0  0  0  0  0  0
   39.2910   34.7240   40.3800 C   0  0  0  0  0  0  0  0  0  0  0  0
   40.6060   34.5370   40.0440 C   0  0  0  0  0  0  0  0  0  0  0  0
   41.0790   33.3880   39.4960 C   0  0  0  0  0  0  0  0  0  0  0  0
   37.3840   33.7760   40.3860 H   0  0  0  0  0  0  0  0  0  0  0  0
   38.9330   35.6490   40.8150 H   0  0  0  0  0  0  0  0  0  0  0  0
   41.2810   35.3670   40.2360 H   0  0  0  0  0  0  0  0  0  0  0  0
   42.4890   33.3080   39.1840 C   0  0  0  0  0  0  0  0  0  0  0  0
   43.3830   32.8790   40.1480 C   0  0  0  0  0  0  0  0  0  0  0  0
   44.7060   32.8100   39.8360 C   0  0  0  0  0  0  0  0  0  0  0  0
   45.1660   33.1640   38.5660 C   0  0  0  0  0  0  0  0  0  0  0  0
   44.2220   33.5910   37.6290 C   0  0  0  0  0  0  0  0  0  0  0  0
   42.8850   33.6630   37.9380 C   0  0  0  0  0  0  0  0  0  0  0  0
   42.9890   32.6130   41.1250 H   0  0  0  0  0  0  0  0  0  0  0  0
   45.3720   32.4730   40.6080 H   0  0  0  0  0  0  0  0  0  0  0  0
   46.2200   33.0850   38.3910 H   0  0  0  0  0  0  0  0  0  0  0  0
   44.7010   33.8340   36.6910 H   0  0  0  0  0  0  0  0  0  0  0  0
   42.1680   34.1070   36.8570 O   0  0  0  0  0  0  0  0  0  0  0  0
   41.9820   33.5780   36.0360 H   0  0  0  0  0  0  0  0  0  0  0  0
   36.5710   30.0170   37.8580 C   0  0  0  0  0  0  0  0  0  0  0  0
   37.4070   31.1140   38.0710 C   0  0  0  0  0  0  0  0  0  0  0  0
   37.9740   31.3390   39.3090 C   0  0  0  0  0  0  0  0  0  0  0  0
   37.6660   30.4410   40.2750 N   0  0  0  0  0  0  0  0  0  0  0  0
   36.8650   29.3960   40.0560 C   0  0  0  0  0  0  0  0  0  0  0  0
   36.3190   29.1880   38.8460 N   0  0  0  0  0  0  0  0  0  0  0  0
   36.1720   29.9180   36.8610 H   0  0  0  0  0  0  0  0  0  0  0  0
   37.6480   31.8290   37.2920 H   0  0  0  0  0  0  0  0  0  0  0  0
   37.5120   28.5010   42.2770 C   0  0  2  0  0  3  0  0  0  0  0  0
   36.5330   28.4090   41.1310 C   0  0  2  0  0  3  0  0  0  0  0  0
   36.6390   27.1010   40.6400 O   0  0  0  0  0  0  0  0  0  0  0  0
   37.9990   26.8500   40.4530 C   0  0  0  0  0  2  0  0  0  0  0  0
   38.4890   26.2920   41.7910 C   0  0  2  0  0  3  0  0  0  0  0  0
   37.7920   27.1210   42.8560 C   0  0  1  0  0  3  0  0  0  0  0  0
   37.0280   29.3210   43.3060 O   0  0  0  0  0  0  0  0  0  0  0  0
   36.0350   29.2920   43.3830 H   0  0  0  0  0  0  0  0  0  0  0  0
   39.8600   26.4470   41.8050 O   0  0  0  0  0  0  0  0  0  0  0  0
   40.3640   25.6010   41.7250 H   0  0  0  0  0  0  0  0  0  0  0  0
   38.5630   27.2450   43.9960 O   0  0  0  0  0  0  0  0  0  0  0  0
   39.1940   26.4610   44.0040 H   0  0  0  0  0  0  0  0  0  0  0  0
  1  2  1  0  0  0  0
  2  7  2  0  0  0  0
  2  3  1  0  0  0  0
  3  4  2  0  0  0  0
  4  5  1  0  0  0  0
  4  8  1  0  0  0  0
  5  9  1  0  0  0  0
  6 10  1  0  0  0  0
  6  5  2  0  0  0  0
  7  6  1  0  0  0  0
 11  7  1  0  0  0  0
 11 12  1  0  0  0  0
 12 17  1  0  0  0  0
 13 12  2  0  0  0  0
 13 18  1  0  0  0  0
 14 13  1  0  0  0  0
 15 16  1  0  0  0  0
 15 14  2  0  0  0  0
 16 11  2  0  0  0  0
 19 14  1  0  0  0  0
 20 15  1  0  0  0  0
 21 16  1  0  0  0  0
 22 21  1  0  0  0  0
 23 24  2  0  0  0  0
 23 28  1  0  0  0  0
 24 25  1  0  0  0  0
 25  3  1  0  0  0  0
 25 26  2  0  0  0  0
 27 26  1  0  0  0  0
 28 27  2  0  0  0  0
 29 23  1  0  0  0  0
 30 24  1  0  0  0  0
 31 36  1  0  0  0  0
 31 37  1  1  0  0  0
 32 27  1  6  0  0  0
 32 31  1  0  0  0  0
 33 32  1  0  0  0  0
 34 33  1  0  0  0  0
 34 35  1  0  0  0  0
 35 39  1  6  0  0  0
 35 36  1  0  0  0  0
 36 41  1  1  0  0  0
 37 38  1  0  0  0  0
 40 39  1  0  0  0  0
 41 42  1  0  0  0  0
M  END
>  <minimizedAffinity>
-7.19639015

$$$$

 OpenBabel03242522323D

 42 45  0  0  1  0  0  0  0  0999 V2000
   40.6470   30.7370   40.6920 F   0  0  0  0  0  0  0  0  0  0  0  0
   39.4220   31.2520   40.4430 C   0  0  0  0  0  0  0  0  0  0  0  0
   38.3120   30.6420   40.9110 C   0  0  0  0  0  0  0  0  0  0  0  0
   37.0960   31.2370   40.6110 C   0  0  0  0  0  0  0  0  0  0  0  0
   36.9970   32.3910   39.8740 C   0  0  0  0  0  0  0  0  0  0  0  0
   38.1700   32.9460   39.4380 C   0  0  0  0  0  0  0  0  0  0  0  0
   39.3910   32.4100   39.6990 C   0  0  0  0  0  0  0  0  0  0  0  0
   36.1930   30.7570   40.9800 H   0  0  0  0  0  0  0  0  0  0  0  0
   36.0340   32.8340   39.6540 H   0  0  0  0  0  0  0  0  0  0  0  0
   38.0910   33.8600   38.8540 H   0  0  0  0  0  0  0  0  0  0  0  0
   40.5610   33.0870   39.1850 C   0  0  0  0  0  0  0  0  0  0  0  0
   41.3500   33.8390   40.0360 C   0  0  0  0  0  0  0  0  0  0  0  0
   42.4470   34.4680   39.5340 C   0  0  0  0  0  0  0  0  0  0  0  0
   42.7810   34.3650   38.1820 C   0  0  0  0  0  0  0  0  0  0  0  0
   41.9510   33.5930   37.3650 C   0  0  0  0  0  0  0  0  0  0  0  0
   40.8420   32.9550   37.8660 C   0  0  0  0  0  0  0  0  0  0  0  0
   41.0590   33.8970   41.0810 H   0  0  0  0  0  0  0  0  0  0  0  0
   43.0360   35.0430   40.2230 H   0  0  0  0  0  0  0  0  0  0  0  0
   43.6590   34.8870   37.8560 H   0  0  0  0  0  0  0  0  0  0  0  0
   42.3150   33.5930   36.3470 H   0  0  0  0  0  0  0  0  0  0  0  0
   40.1970   32.2670   36.8710 O   0  0  0  0  0  0  0  0  0  0  0  0
   40.5260   31.4300   36.4470 H   0  0  0  0  0  0  0  0  0  0  0  0
   37.8900   27.9750   43.5530 C   0  0  0  0  0  0  0  0  0  0  0  0
   37.7210   29.1630   42.8400 C   0  0  0  0  0  0  0  0  0  0  0  0
   38.4540   29.4090   41.6960 C   0  0  0  0  0  0  0  0  0  0  0  0
   39.3250   28.4380   41.3290 N   0  0  0  0  0  0  0  0  0  0  0  0
   39.4750   27.3070   42.0230 C   0  0  0  0  0  0  0  0  0  0  0  0
   38.7550   27.0800   43.1340 N   0  0  0  0  0  0  0  0  0  0  0  0
   37.2760   27.8670   44.4340 H   0  0  0  0  0  0  0  0  0  0  0  0
   37.0220   29.9350   43.1410 H   0  0  0  0  0  0  0  0  0  0  0  0
   41.1150   25.6190   42.8060 C   0  0  2  0  0  3  0  0  0  0  0  0
   40.4390   26.2410   41.6070 C   0  0  2  0  0  3  0  0  0  0  0  0
   41.4670   26.7920   40.8300 O   0  0  0  0  0  0  0  0  0  0  0  0
   42.2600   27.5530   41.6920 C   0  0  0  0  0  2  0  0  0  0  0  0
   43.3090   26.5790   42.2320 C   0  0  2  0  0  3  0  0  0  0  0  0
   42.5650   25.2810   42.4910 C   0  0  1  0  0  3  0  0  0  0  0  0
   40.4670   24.4440   43.2130 O   0  0  0  0  0  0  0  0  0  0  0  0
   40.0530   23.9530   42.4520 H   0  0  0  0  0  0  0  0  0  0  0  0
   43.8150   27.1450   43.3850 O   0  0  0  0  0  0  0  0  0  0  0  0
   44.7440   27.4720   43.3020 H   0  0  0  0  0  0  0  0  0  0  0  0
   43.1160   24.5740   43.5430 O   0  0  0  0  0  0  0  0  0  0  0  0
   44.0740   24.8740   43.6210 H   0  0  0  0  0  0  0  0  0  0  0  0
  2  1  1  0  0  0  0
  2  3  1  0  0  0  0
  3 25  1  0  0  0  0
  4  3  2  0  0  0  0
  4  8  1  0  0  0  0
  5  4  1  0  0  0  0
  6  7  1  0  0  0  0
  6  5  2  0  0  0  0
  7  2  2  0  0  0  0
  9  5  1  0  0  0  0
 10  6  1  0  0  0  0
 11  7  1  0  0  0  0
 11 12  1  0  0  0  0
 12 17  1  0  0  0  0
 13 12  2  0  0  0  0
 13 18  1  0  0  0  0
 14 13  1  0  0  0  0
 15 16  1  0  0  0  0
 15 14  2  0  0  0  0
 16 11  2  0  0  0  0
 19 14  1  0  0  0  0
 20 15  1  0  0  0  0
 21 16  1  0  0  0  0
 22 21  1  0  0  0  0
 23 29  1  0  0  0  0
 24 30  1  0  0  0  0
 24 23  2  0  0  0  0
 25 24  1  0  0  0  0
 26 25  2  0  0  0  0
 26 27  1  0  0  0  0
 27 28  2  0  0  0  0
 28 23  1  0  0  0  0
 31 37  1  6  0  0  0
 32 27  1  1  0  0  0
 32 31  1  0  0  0  0
 33 32  1  0  0  0  0
 33 34  1  0  0  0  0
 34 35  1  0  0  0  0
 35 36  1  0  0  0  0
 35 39  1  1  0  0  0
 36 31  1  0  0  0  0
 36 41  1  1  0  0  0
 38 37  1  0  0  0  0
 40 39  1  0  0  0  0
 41 42  1  0  0  0  0
M  END
>  <minimizedAffinity>
-7.18034792

$$$$

 OpenBabel03242522323D

 42 45  0  0  1  0  0  0  0  0999 V2000
   36.9470   31.8430   37.9310 F   0  0  0  0  0  0  0  0  0  0  0  0
   37.6330   30.7490   38.3310 C   0  0  0  0  0  0  0  0  0  0  0  0
   38.7290   30.8720   39.1110 C   0  0  0  0  0  0  0  0  0  0  0  0
   39.3730   29.6990   39.4760 C   0  0  0  0  0  0  0  0  0  0  0  0
   38.9390   28.4600   39.0770 C   0  0  0  0  0  0  0  0  0  0  0  0
   37.8200   28.4230   38.2890 C   0  0  0  0  0  0  0  0  0  0  0  0
   37.1460   29.5360   37.8980 C   0  0  0  0  0  0  0  0  0  0  0  0
   40.2570   29.7830   40.1020 H   0  0  0  0  0  0  0  0  0  0  0  0
   39.4620   27.5610   39.3770 H   0  0  0  0  0  0  0  0  0  0  0  0
   37.4770   27.4410   37.9740 H   0  0  0  0  0  0  0  0  0  0  0  0
   35.9760   29.3720   37.0650 C   0  0  0  0  0  0  0  0  0  0  0  0
   34.7360   29.1870   37.6490 C   0  0  0  0  0  0  0  0  0  0  0  0
   33.6460   29.0340   36.8480 C   0  0  0  0  0  0  0  0  0  0  0  0
   33.7650   29.0610   35.4580 C   0  0  0  0  0  0  0  0  0  0  0  0
   35.0390   29.2510   34.9170 C   0  0  0  0  0  0  0  0  0  0  0  0
   36.1440   29.4050   35.7210 C   0  0  0  0  0  0  0  0  0  0  0  0
   34.6830   29.1710   38.7340 H   0  0  0  0  0  0  0  0  0  0  0  0
   32.7000   28.8920   37.3350 H   0  0  0  0  0  0  0  0  0  0  0  0
   32.8650   28.9340   34.8890 H   0  0  0  0  0  0  0  0  0  0  0  0
   34.9980   29.2520   33.8380 H   0  0  0  0  0  0  0  0  0  0  0  0
   37.2700   29.5750   34.9560 O   0  0  0  0  0  0  0  0  0  0  0  0
   37.4930   30.3930   34.4380 H   0  0  0  0  0  0  0  0  0  0  0  0
   38.8850   34.2820   40.7300 C   0  0  0  0  0  0  0  0  0  0  0  0
   38.4290   33.0130   40.3700 C   0  0  0  0  0  0  0  0  0  0  0  0
   39.1660   32.2140   39.5180 C   0  0  0  0  0  0  0  0  0  0  0  0
   40.3310   32.7400   39.0710 N   0  0  0  0  0  0  0  0  0  0  0  0
   40.7540   33.9560   39.4250 C   0  0  0  0  0  0  0  0  0  0  0  0
   40.0270   34.7240   40.2540 N   0  0  0  0  0  0  0  0  0  0  0  0
   38.2460   34.8360   41.3990 H   0  0  0  0  0  0  0  0  0  0  0  0
   37.4950   32.5990   40.7320 H   0  0  0  0  0  0  0  0  0  0  0  0
   42.6520   33.6480   37.8580 C   0  0  2  0  0  3  0  0  0  0  0  0
   42.0440   34.5270   38.9250 C   0  0  2  0  0  3  0  0  0  0  0  0
   42.9860   34.5800   39.9610 O   0  0  0  0  0  0  0  0  0  0  0  0
   43.3600   33.2620   40.2320 C   0  0  0  0  0  2  0  0  0  0  0  0
   44.5370   32.9810   39.2960 C   0  0  2  0  0  3  0  0  0  0  0  0
   44.1690   33.6330   37.9740 C   0  0  1  0  0  3  0  0  0  0  0  0
   42.3120   34.0890   36.5710 O   0  0  0  0  0  0  0  0  0  0  0  0
   42.1980   35.0770   36.5230 H   0  0  0  0  0  0  0  0  0  0  0  0
   44.6480   31.6090   39.2030 O   0  0  0  0  0  0  0  0  0  0  0  0
   45.4410   31.2350   39.6590 H   0  0  0  0  0  0  0  0  0  0  0  0
   44.7100   32.9540   36.8990 O   0  0  0  0  0  0  0  0  0  0  0  0
   45.5100   32.4520   37.2470 H   0  0  0  0  0  0  0  0  0  0  0  0
  1  2  1  0  0  0  0
  2  3  1  0  0  0  0
  3  4  2  0  0  0  0
  3 25  1  0  0  0  0
  4  8  1  0  0  0  0
  5  9  1  0  0  0  0
  5  4  1  0  0  0  0
  6  5  2  0  0  0  0
  7  6  1  0  0  0  0
  7  2  2  0  0  0  0
 10  6  1  0  0  0  0
 11 12  1  0  0  0  0
 11  7  1  0  0  0  0
 12 17  1  0  0  0  0
 13 18  1  0  0  0  0
 13 12  2  0  0  0  0
 14 13  1  0  0  0  0
 15 14  2  0  0  0  0
 15 16  1  0  0  0  0
 16 11  2  0  0  0  0
 19 14  1  0  0  0  0
 20 15  1  0  0  0  0
 21 16  1  0  0  0  0
 22 21  1  0  0  0  0
 23 29  1  0  0  0  0
 24 23  1  0  0  0  0
 24 30  1  0  0  0  0
 25 24  2  0  0  0  0
 26 27  2  0  0  0  0
 26 25  1  0  0  0  0
 27 28  1  0  0  0  0
 28 23  2  0  0  0  0
 31 37  1  6  0  0  0
 31 36  1  0  0  0  0
 31 32  1  0  0  0  0
 32 27  1  1  0  0  0
 32 33  1  0  0  0  0
 33 34  1  0  0  0  0
 35 39  1  6  0  0  0
 35 34  1  0  0  0  0
 36 41  1  6  0  0  0
 36 35  1  0  0  0  0
 38 37  1  0  0  0  0
 39 40  1  0  0  0  0
 41 42  1  0  0  0  0
M  END
>  <minimizedAffinity>
-7.14813042

$$$$

 OpenBabel03242522323D

 42 45  0  0  1  0  0  0  0  0999 V2000
   39.2710   27.7420   40.3250 F   0  0  0  0  0  0  0  0  0  0  0  0
   38.5570   27.9210   41.4590 C   0  0  0  0  0  0  0  0  0  0  0  0
   38.9560   28.8160   42.3880 C   0  0  0  0  0  0  0  0  0  0  0  0
   38.1660   28.9370   43.5220 C   0  0  0  0  0  0  0  0  0  0  0  0
   37.0290   28.1930   43.7150 C   0  0  0  0  0  0  0  0  0  0  0  0
   36.6950   27.3080   42.7260 C   0  0  0  0  0  0  0  0  0  0  0  0
   37.4280   27.1450   41.5930 C   0  0  0  0  0  0  0  0  0  0  0  0
   38.4750   29.6530   44.2790 H   0  0  0  0  0  0  0  0  0  0  0  0
   36.4320   28.3070   44.6120 H   0  0  0  0  0  0  0  0  0  0  0  0
   35.7940   26.7190   42.8800 H   0  0  0  0  0  0  0  0  0  0  0  0
   36.9750   26.1790   40.6170 C   0  0  0  0  0  0  0  0  0  0  0  0
   37.1250   24.8270   40.8670 C   0  0  0  0  0  0  0  0  0  0  0  0
   36.6920   23.9320   39.9380 C   0  0  0  0  0  0  0  0  0  0  0  0
   36.1060   24.3600   38.7450 C   0  0  0  0  0  0  0  0  0  0  0  0
   35.9780   25.7360   38.5410 C   0  0  0  0  0  0  0  0  0  0  0  0
   36.4130   26.6450   39.4760 C   0  0  0  0  0  0  0  0  0  0  0  0
   37.5870   24.5310   41.8050 H   0  0  0  0  0  0  0  0  0  0  0  0
   36.8250   22.8910   40.1650 H   0  0  0  0  0  0  0  0  0  0  0  0
   35.7890   23.6000   38.0590 H   0  0  0  0  0  0  0  0  0  0  0  0
   35.5110   25.9370   37.5870 H   0  0  0  0  0  0  0  0  0  0  0  0
   36.1760   27.9240   39.0440 O   0  0  0  0  0  0  0  0  0  0  0  0
   35.2820   28.3560   38.9940 H   0  0  0  0  0  0  0  0  0  0  0  0
   42.4730   30.1760   42.6140 C   0  0  0  0  0  0  0  0  0  0  0  0
   41.3350   29.4120   42.8780 C   0  0  0  0  0  0  0  0  0  0  0  0
   40.1780   29.5950   42.1480 C   0  0  0  0  0  0  0  0  0  0  0  0
   40.2280   30.5470   41.1860 N   0  0  0  0  0  0  0  0  0  0  0  0
   41.3250   31.2700   40.9450 C   0  0  0  0  0  0  0  0  0  0  0  0
   42.4450   31.0810   41.6630 N   0  0  0  0  0  0  0  0  0  0  0  0
   43.3320   29.9650   43.2330 H   0  0  0  0  0  0  0  0  0  0  0  0
   41.3030   28.6520   43.6510 H   0  0  0  0  0  0  0  0  0  0  0  0
   40.2970   32.0840   38.8400 C   0  0  2  0  0  3  0  0  0  0  0  0
   41.3690   32.3180   39.8780 C   0  0  2  0  0  3  0  0  0  0  0  0
   42.5880   32.2590   39.1900 O   0  0  0  0  0  0  0  0  0  0  0  0
   42.5620   31.0930   38.4230 C   0  0  0  0  0  2  0  0  0  0  0  0
   41.9320   31.5050   37.0910 C   0  0  2  0  0  3  0  0  0  0  0  0
   40.8020   32.4540   37.4530 C   0  0  1  0  0  3  0  0  0  0  0  0
   39.1470   32.8400   39.1070 O   0  0  0  0  0  0  0  0  0  0  0  0
   39.3540   33.7070   39.5520 H   0  0  0  0  0  0  0  0  0  0  0  0
   41.4850   30.3460   36.4900 O   0  0  0  0  0  0  0  0  0  0  0  0
   42.0090   30.0720   35.6980 H   0  0  0  0  0  0  0  0  0  0  0  0
   39.7620   32.3830   36.5460 O   0  0  0  0  0  0  0  0  0  0  0  0
   40.1530   32.0360   35.6860 H   0  0  0  0  0  0  0  0  0  0  0  0
  1  2  1  0  0  0  0
  2  7  2  0  0  0  0
  2  3  1  0  0  0  0
  3  4  2  0  0  0  0
  4  5  1  0  0  0  0
  4  8  1  0  0  0  0
  5  9  1  0  0  0  0
  6 10  1  0  0  0  0
  6  5  2  0  0  0  0
  7  6  1  0  0  0  0
 11 12  1  0  0  0  0
 11  7  1  0  0  0  0
 12 17  1  0  0  0  0
 13 18  1  0  0  0  0
 13 12  2  0  0  0  0
 14 13  1  0  0  0  0
 15 14  2  0  0  0  0
 15 16  1  0  0  0  0
 16 11  2  0  0  0  0
 19 14  1  0  0  0  0
 20 15  1  0  0  0  0
 21 16  1  0  0  0  0
 22 21  1  0  0  0  0
 23 24  1  0  0  0  0
 23 29  1  0  0  0  0
 24 30  1  0  0  0  0
 25  3  1  0  0  0  0
 25 24  2  0  0  0  0
 26 25  1  0  0  0  0
 27 26  2  0  0  0  0
 27 28  1  0  0  0  0
 28 23  2  0  0  0  0
 31 37  1  1  0  0  0
 31 32  1  0  0  0  0
 32 27  1  1  0  0  0
 33 32  1  0  0  0  0
 34 33  1  0  0  0  0
 35 39  1  1  0  0  0
 35 36  1  0  0  0  0
 35 34  1  0  0  0  0
 36 41  1  6  0  0  0
 36 31  1  0  0  0  0
 37 38  1  0  0  0  0
 40 39  1  0  0  0  0
 42 41  1  0  0  0  0
M  END
>  <minimizedAffinity>
-7.09259748

$$$$
