
 OpenBabel03242520223D

 47 50  0  0  1  0  0  0  0  0999 V2000
   39.1840   33.2730   40.7500 C   0  0  0  0  0  0  0  0  0  0  0  0
   39.5690   33.2930   41.9580 O   0  0  0  0  0  0  0  0  0  0  0  0
   39.1140   34.4080   39.9060 N   0  0  0  0  0  0  0  0  0  0  0  0
   38.6910   34.3870   38.9610 H   0  0  0  0  0  0  0  0  0  0  0  0
   38.7730   31.9850   40.1480 C   0  0  0  0  0  0  0  0  0  0  0  0
   38.9250   31.8020   38.7870 C   0  0  0  0  0  0  0  0  0  0  0  0
   38.5850   30.6560   38.0820 C   0  0  0  0  0  0  0  0  0  0  0  0
   38.0470   29.6300   38.8620 C   0  0  0  0  0  0  0  0  0  0  0  0
   37.9080   29.8430   40.2120 C   0  0  0  0  0  0  0  0  0  0  0  0
   38.2520   30.9740   40.8550 N   0  0  0  0  0  0  0  0  0  0  0  0
   39.3460   32.6230   38.2200 H   0  0  0  0  0  0  0  0  0  0  0  0
   38.7510   30.6320   37.0180 H   0  0  0  0  0  0  0  0  0  0  0  0
   37.7750   28.7320   38.3450 H   0  0  0  0  0  0  0  0  0  0  0  0
   36.3280   28.0440   40.0080 C   0  0  1  0  0  0  0  0  0  0  0  0
   37.3240   28.6780   40.9300 C   0  0  1  0  0  0  0  0  0  0  0  0
   38.2450   27.8670   41.5080 O   0  0  0  0  0  0  0  0  0  0  0  0
   38.4040   26.5930   41.1260 C   0  0  0  0  0  0  0  0  0  0  0  0
   37.3310   25.9110   40.3660 C   0  0  1  0  0  0  0  0  0  0  0  0
   36.0300   26.6620   40.5590 C   0  0  2  0  0  0  0  0  0  0  0  0
   35.1670   28.7890   39.9120 O   0  0  0  0  0  0  0  0  0  0  0  0
   34.8690   28.8850   38.9800 H   0  0  0  0  0  0  0  0  0  0  0  0
   37.6020   25.9540   38.9890 O   0  0  0  0  0  0  0  0  0  0  0  0
   38.4880   26.3550   38.8000 H   0  0  0  0  0  0  0  0  0  0  0  0
   34.9780   26.0970   39.8790 O   0  0  0  0  0  0  0  0  0  0  0  0
   34.6680   25.3250   40.4310 H   0  0  0  0  0  0  0  0  0  0  0  0
   39.6690   35.6440   40.4150 C   0  0  0  0  0  0  0  0  0  0  0  0
   39.8600   35.6210   41.4870 H   0  0  0  0  0  0  0  0  0  0  0  0
   38.9490   36.4670   40.2170 H   0  0  0  0  0  0  0  0  0  0  0  0
   40.9470   36.0510   39.6850 C   0  0  0  0  0  0  0  0  0  0  0  0
   40.8510   36.0220   38.5980 H   0  0  0  0  0  0  0  0  0  0  0  0
   41.1980   37.0760   40.0560 H   0  0  0  0  0  0  0  0  0  0  0  0
   43.8300   34.5890   41.6600 C   0  0  0  0  0  0  0  0  0  0  0  0
   42.7700   35.4540   41.2750 C   0  0  0  0  0  0  0  0  0  0  0  0
   42.0670   35.1820   40.1190 C   0  0  0  0  0  0  0  0  0  0  0  0
   42.4580   34.0660   39.4090 N   0  0  0  0  0  0  0  0  0  0  0  0
   43.4840   33.2720   39.8280 C   0  0  0  0  0  0  0  0  0  0  0  0
   44.1600   33.5350   40.9430 N   0  0  0  0  0  0  0  0  0  0  0  0
   42.5270   36.3030   41.8800 H   0  0  0  0  0  0  0  0  0  0  0  0
   43.7070   32.4280   39.2040 H   0  0  0  0  0  0  0  0  0  0  0  0
   44.5900   34.9020   42.9100 C   0  0  0  0  0  0  0  0  0  0  0  0
   46.0760   35.3240   42.5780 C   0  0  0  0  0  0  0  0  0  0  0  0
   45.0990   36.1610   43.2750 C   0  0  0  0  0  0  0  0  0  0  0  0
   44.5460   34.0500   43.6330 H   0  0  0  0  0  0  0  0  0  0  0  0
   46.2930   35.5820   41.5390 H   0  0  0  0  0  0  0  0  0  0  0  0
   46.8540   34.7500   43.0970 H   0  0  0  0  0  0  0  0  0  0  0  0
   44.7200   37.0800   42.7480 H   0  0  0  0  0  0  0  0  0  0  0  0
   45.2840   36.3870   44.3450 H   0  0  0  0  0  0  0  0  0  0  0  0
  1  2  2  0  0  0  0
  3 26  1  0  0  0  0
  3  1  1  0  0  0  0
  4  3  1  0  0  0  0
  5  1  1  0  0  0  0
  5 10  1  0  0  0  0
  6  5  2  0  0  0  0
  7  6  1  0  0  0  0
  7  8  2  0  0  0  0
  8  9  1  0  0  0  0
  9 10  2  0  0  0  0
 11  6  1  0  0  0  0
 12  7  1  0  0  0  0
 13  8  1  0  0  0  0
 14 20  1  1  0  0  0
 14 19  1  0  0  0  0
 14 15  1  0  0  0  0
 15  9  1  6  0  0  0
 15 16  1  0  0  0  0
 17 16  1  0  0  0  0
 18 22  1  6  0  0  0
 18 19  1  0  0  0  0
 18 17  1  0  0  0  0
 19 24  1  6  0  0  0
 21 20  1  0  0  0  0
 23 22  1  0  0  0  0
 24 25  1  0  0  0  0
 26 27  1  0  0  0  0
 28 26  1  0  0  0  0
 29 31  1  0  0  0  0
 29 34  1  0  0  0  0
 29 26  1  0  0  0  0
 30 29  1  0  0  0  0
 32 40  1  0  0  0  0
 33 32  1  0  0  0  0
 33 38  1  0  0  0  0
 34 33  2  0  0  0  0
 35 36  2  0  0  0  0
 35 34  1  0  0  0  0
 36 37  1  0  0  0  0
 37 32  2  0  0  0  0
 39 36  1  0  0  0  0
 40 42  1  0  0  0  0
 40 43  1  0  0  0  0
 41 40  1  0  0  0  0
 41 45  1  0  0  0  0
 41 42  1  0  0  0  0
 42 47  1  0  0  0  0
 44 41  1  0  0  0  0
 46 42  1  0  0  0  0
M  END
>  <minimizedAffinity>
-5.77541447

>  <minimizedRMSD>
1.05452037

$$$$
