
 OpenBabel03252507133D

 45 47  0  0  1  0  0  0  0  0999 V2000
   43.4380   31.9830   42.1990 C   0  0  2  0  0  0  0  0  0  0  0  0
   42.8730   30.6500   42.5340 C   0  0  0  0  0  0  0  0  0  0  0  0
   41.9160   30.2160   41.4750 C   0  0  0  0  0  0  0  0  0  0  0  0
   42.5120   29.9800   40.2510 O   0  0  0  0  0  0  0  0  0  0  0  0
   43.7030   30.6700   40.1350 C   0  0  0  0  0  0  0  0  0  0  0  0
   43.5210   32.0820   40.6830 C   0  0  1  0  0  0  0  0  0  0  0  0
   42.6840   32.7710   42.4430 H   0  0  0  0  0  0  0  0  0  0  0  0
   42.4350   30.5920   43.5510 H   0  0  0  0  0  0  0  0  0  0  0  0
   43.7050   29.8920   42.5470 H   0  0  0  0  0  0  0  0  0  0  0  0
   40.9480   30.7260   41.4570 H   0  0  0  0  0  0  0  0  0  0  0  0
   41.6140   29.1580   41.8110 H   0  0  0  0  0  0  0  0  0  0  0  0
   44.5270   30.1970   40.7200 H   0  0  0  0  0  0  0  0  0  0  0  0
   43.9800   30.7130   39.0670 H   0  0  0  0  0  0  0  0  0  0  0  0
   44.5410   32.5470   40.4930 H   0  0  0  0  0  0  0  0  0  0  0  0
   43.2140   33.9170   39.1150 C   0  0  2  0  0  3  0  0  0  0  0  0
   42.4960   32.8740   39.9850 C   0  0  2  0  0  3  0  0  0  0  0  0
   41.6750   33.6200   40.8190 O   0  0  0  0  0  0  0  0  0  0  0  0
   40.5650   34.0980   40.1400 C   0  0  0  0  0  2  0  0  0  0  0  0
   40.9510   35.0110   39.0060 C   0  0  2  0  0  3  0  0  0  0  0  0
   42.4380   35.1550   38.8640 C   0  0  2  0  0  3  0  0  0  0  0  0
   43.5170   33.2590   37.9010 O   0  0  0  0  0  0  0  0  0  0  0  0
   44.1120   33.8050   37.3420 H   0  0  0  0  0  0  0  0  0  0  0  0
   40.3420   36.2540   39.1480 O   0  0  0  0  0  0  0  0  0  0  0  0
   40.7680   36.9120   38.5400 H   0  0  0  0  0  0  0  0  0  0  0  0
   42.7660   35.6050   37.5780 O   0  0  0  0  0  0  0  0  0  0  0  0
   42.5020   34.9920   36.8670 H   0  0  0  0  0  0  0  0  0  0  0  0
   44.5980   32.3020   42.8080 O   0  0  0  0  0  0  0  0  0  0  0  0
   45.5360   34.2400   44.3020 O   0  0  0  0  0  0  0  0  0  0  0  0
   45.0050   33.8930   42.9620 P   0  0  2  0  0  0  0  0  0  0  0  0
   43.6010   34.8090   42.7620 O   0  0  0  0  0  0  0  0  0  0  0  0
   43.0710   34.7000   43.5960 H   0  0  0  0  0  0  0  0  0  0  0  0
   46.1210   34.3510   41.7330 O   0  0  0  0  0  0  0  0  0  0  0  0
   48.0800   33.1100   42.1680 C   0  0  0  0  0  0  0  0  0  0  0  0
   47.4840   34.3320   41.9550 C   0  0  0  0  0  0  0  0  0  0  0  0
   48.2900   35.4990   41.9720 C   0  0  0  0  0  0  0  0  0  0  0  0
   49.6160   35.3340   42.2010 N   0  0  0  0  0  0  0  0  0  0  0  0
   50.1500   34.1460   42.4020 C   0  0  0  0  0  0  0  0  0  0  0  0
   49.3700   33.0320   42.3840 N   0  0  0  0  0  0  0  0  0  0  0  0
   47.3180   31.0300   41.0370 C   0  0  0  0  0  0  0  0  0  0  0  0
   47.2090   31.5950   39.8890 O   0  0  0  0  0  0  0  0  0  0  0  0
   47.7490   31.7320   42.2510 N   0  0  0  0  0  0  0  0  0  0  0  0
   47.8040   36.4380   41.8030 H   0  0  0  0  0  0  0  0  0  0  0  0
   51.2050   33.9440   42.5910 H   0  0  0  0  0  0  0  0  0  0  0  0
   47.0570   29.9910   41.0010 H   0  0  0  0  0  0  0  0  0  0  0  0
   47.7620   31.1200   43.0730 H   0  0  0  0  0  0  0  0  0  0  0  0
  1  7  1  1  0  0  0
  1  2  1  0  0  0  0
  1 27  1  0  0  0  0
  2  9  1  0  0  0  0
  2  8  1  0  0  0  0
  3 11  1  0  0  0  0
  3  2  1  0  0  0  0
  4  3  1  0  0  0  0
  5  4  1  0  0  0  0
  5  6  1  0  0  0  0
  5 12  1  0  0  0  0
  6 14  1  6  0  0  0
  6  1  1  0  0  0  0
 10  3  1  0  0  0  0
 13  5  1  0  0  0  0
 15 21  1  6  0  0  0
 15 16  1  0  0  0  0
 16  6  1  0  0  0  0
 16 17  1  1  0  0  0
 18 17  1  0  0  0  0
 19 23  1  1  0  0  0
 19 18  1  0  0  0  0
 20 25  1  6  0  0  0
 20 19  1  0  0  0  0
 20 15  1  0  0  0  0
 22 21  1  0  0  0  0
 24 23  1  0  0  0  0
 26 25  1  0  0  0  0
 27 29  1  0  0  0  0
 29 28  2  1  0  0  0
 30 29  1  0  0  0  0
 30 31  1  0  0  0  0
 32 34  1  0  0  0  0
 32 29  1  0  0  0  0
 33 41  1  0  0  0  0
 33 38  1  0  0  0  0
 34 35  1  0  0  0  0
 34 33  2  0  0  0  0
 35 36  2  0  0  0  0
 36 37  1  0  0  0  0
 37 43  1  0  0  0  0
 38 37  2  0  0  0  0
 39 41  1  0  0  0  0
 40 39  2  0  0  0  0
 41 45  1  0  0  0  0
 42 35  1  0  0  0  0
 44 39  1  0  0  0  0
M  END
>  <minimizedAffinity>
-5.39682865

>  <minimizedRMSD>
4.03606653

$$$$
