
 OpenBabel03252507133D

 45 47  0  0  1  0  0  0  0  0999 V2000
   44.6940   33.0670   43.0170 C   0  0  2  0  0  0  0  0  0  0  0  0
   45.0430   34.2430   43.8560 C   0  0  0  0  0  0  0  0  0  0  0  0
   46.2270   33.9330   44.7100 C   0  0  0  0  0  0  0  0  0  0  0  0
   47.3900   33.7310   43.9910 O   0  0  0  0  0  0  0  0  0  0  0  0
   47.1160   33.3530   42.6920 C   0  0  0  0  0  0  0  0  0  0  0  0
   45.9840   32.3290   42.6960 C   0  0  1  0  0  0  0  0  0  0  0  0
   44.1490   32.3200   43.6450 H   0  0  0  0  0  0  0  0  0  0  0  0
   44.1910   34.6440   44.4430 H   0  0  0  0  0  0  0  0  0  0  0  0
   45.3430   35.0960   43.1860 H   0  0  0  0  0  0  0  0  0  0  0  0
   46.0540   33.2620   45.5570 H   0  0  0  0  0  0  0  0  0  0  0  0
   46.4360   34.9300   45.2430 H   0  0  0  0  0  0  0  0  0  0  0  0
   46.7780   34.2090   42.0620 H   0  0  0  0  0  0  0  0  0  0  0  0
   48.0270   32.9050   42.2570 H   0  0  0  0  0  0  0  0  0  0  0  0
   45.8880   32.0740   41.5920 H   0  0  0  0  0  0  0  0  0  0  0  0
   46.3790   29.9410   42.4420 C   0  0  2  0  0  3  0  0  0  0  0  0
   46.2840   31.1000   43.4470 C   0  0  2  0  0  3  0  0  0  0  0  0
   45.2930   30.7110   44.3360 O   0  0  0  0  0  0  0  0  0  0  0  0
   45.7510   29.7380   45.2110 C   0  0  0  0  0  2  0  0  0  0  0  0
   46.1770   28.4870   44.4860 C   0  0  2  0  0  3  0  0  0  0  0  0
   46.0360   28.6100   42.9970 C   0  0  2  0  0  3  0  0  0  0  0  0
   47.7080   29.9590   41.9620 O   0  0  0  0  0  0  0  0  0  0  0  0
   47.8180   29.3470   41.2020 H   0  0  0  0  0  0  0  0  0  0  0  0
   45.4810   27.3820   44.9640 O   0  0  0  0  0  0  0  0  0  0  0  0
   45.5940   26.6160   44.3430 H   0  0  0  0  0  0  0  0  0  0  0  0
   46.8410   27.6630   42.3480 O   0  0  0  0  0  0  0  0  0  0  0  0
   47.7960   27.7720   42.5220 H   0  0  0  0  0  0  0  0  0  0  0  0
   43.9510   33.3230   41.9220 O   0  0  0  0  0  0  0  0  0  0  0  0
   41.7240   32.7600   40.6620 O   0  0  0  0  0  0  0  0  0  0  0  0
   42.8700   32.1890   41.4100 P   0  0  2  0  0  0  0  0  0  0  0  0
   42.2150   31.4430   42.7750 O   0  0  0  0  0  0  0  0  0  0  0  0
   41.5810   32.0940   43.1770 H   0  0  0  0  0  0  0  0  0  0  0  0
   43.6610   30.9820   40.4700 O   0  0  0  0  0  0  0  0  0  0  0  0
   44.2860   31.8260   38.3570 C   0  0  0  0  0  0  0  0  0  0  0  0
   43.5340   30.9410   39.0950 C   0  0  0  0  0  0  0  0  0  0  0  0
   42.6760   30.0400   38.4170 C   0  0  0  0  0  0  0  0  0  0  0  0
   42.6500   30.1080   37.0620 N   0  0  0  0  0  0  0  0  0  0  0  0
   43.3850   30.9700   36.3910 C   0  0  0  0  0  0  0  0  0  0  0  0
   44.2060   31.8320   37.0490 N   0  0  0  0  0  0  0  0  0  0  0  0
   46.5730   32.5340   39.0330 C   0  0  0  0  0  0  0  0  0  0  0  0
   46.9420   31.3420   39.3360 O   0  0  0  0  0  0  0  0  0  0  0  0
   45.2350   32.8680   38.5330 N   0  0  0  0  0  0  0  0  0  0  0  0
   42.1020   29.3600   39.0120 H   0  0  0  0  0  0  0  0  0  0  0  0
   43.4110   31.0780   35.3050 H   0  0  0  0  0  0  0  0  0  0  0  0
   47.3550   33.2510   39.1890 H   0  0  0  0  0  0  0  0  0  0  0  0
   45.1210   33.8710   38.3610 H   0  0  0  0  0  0  0  0  0  0  0  0
  1  7  1  1  0  0  0
  1  2  1  0  0  0  0
  2  8  1  0  0  0  0
  2  3  1  0  0  0  0
  3 11  1  0  0  0  0
  3 10  1  0  0  0  0
  4  3  1  0  0  0  0
  5  6  1  0  0  0  0
  5  4  1  0  0  0  0
  6 14  1  6  0  0  0
  6  1  1  0  0  0  0
  6 16  1  0  0  0  0
  9  2  1  0  0  0  0
 12  5  1  0  0  0  0
 13  5  1  0  0  0  0
 15 21  1  1  0  0  0
 15 20  1  0  0  0  0
 15 16  1  0  0  0  0
 16 17  1  1  0  0  0
 17 18  1  0  0  0  0
 19 23  1  1  0  0  0
 19 18  1  0  0  0  0
 20 25  1  6  0  0  0
 20 19  1  0  0  0  0
 22 21  1  0  0  0  0
 24 23  1  0  0  0  0
 25 26  1  0  0  0  0
 27  1  1  0  0  0  0
 29 28  2  6  0  0  0
 29 27  1  0  0  0  0
 29 30  1  0  0  0  0
 30 31  1  0  0  0  0
 32 29  1  0  0  0  0
 33 41  1  0  0  0  0
 33 34  1  0  0  0  0
 34 32  1  0  0  0  0
 35 42  1  0  0  0  0
 35 34  2  0  0  0  0
 36 35  1  0  0  0  0
 37 38  1  0  0  0  0
 37 36  2  0  0  0  0
 38 33  2  0  0  0  0
 39 44  1  0  0  0  0
 39 40  2  0  0  0  0
 41 39  1  0  0  0  0
 43 37  1  0  0  0  0
 45 41  1  0  0  0  0
M  END
>  <minimizedAffinity>
-3.38236761

>  <minimizedRMSD>
7.24525595

$$$$
