
 OpenBabel03242519323D

 51 54  0  0  1  0  0  0  0  0999 V2000
   51.1300   29.9150   42.9490 C   0  0  0  0  0  0  0  0  0  0  0  0
   51.2530   29.4690   41.6920 N   0  0  0  0  0  0  0  0  0  0  0  0
   50.8220   30.4300   40.8340 C   0  0  0  0  0  0  0  0  0  0  0  0
   50.4290   31.4750   41.5900 N   0  0  0  0  0  0  0  0  0  0  0  0
   50.6100   31.1770   42.8780 N   0  0  0  0  0  0  0  0  0  0  0  0
   50.8010   30.3600   39.7570 H   0  0  0  0  0  0  0  0  0  0  0  0
   52.3960   28.6040   46.1440 C   0  0  0  0  0  0  0  0  0  0  0  0
   52.1770   27.2120   45.9530 C   0  0  0  0  0  0  0  0  0  0  0  0
   51.6130   26.7630   44.7530 C   0  0  0  0  0  0  0  0  0  0  0  0
   51.2990   27.7160   43.8160 N   0  0  0  0  0  0  0  0  0  0  0  0
   51.5340   29.0550   44.0570 C   0  0  0  0  0  0  0  0  0  0  0  0
   52.0690   29.4850   45.1930 N   0  0  0  0  0  0  0  0  0  0  0  0
   52.3970   26.4360   46.6330 H   0  0  0  0  0  0  0  0  0  0  0  0
   51.4260   25.7200   44.5570 H   0  0  0  0  0  0  0  0  0  0  0  0
   52.9830   28.9550   47.4420 C   0  0  0  0  0  0  0  0  0  0  0  0
   53.4640   27.8380   48.2160 C   0  0  0  0  0  0  0  0  0  0  0  0
   52.7100   27.5700   49.4510 C   0  0  0  0  0  0  0  0  0  0  0  0
   52.6550   28.8190   50.3400 C   0  0  0  0  0  0  0  0  0  0  0  0
   52.3690   30.0810   49.5930 C   0  0  0  0  0  0  0  0  0  0  0  0
   51.8890   29.7960   48.1800 C   0  0  0  0  0  0  0  0  0  0  0  0
   53.7670   29.7450   47.2470 H   0  0  0  0  0  0  0  0  0  0  0  0
   54.5360   28.0210   48.5280 H   0  0  0  0  0  0  0  0  0  0  0  0
   53.5180   26.8870   47.6280 H   0  0  0  0  0  0  0  0  0  0  0  0
   53.3070   26.8270   50.0540 H   0  0  0  0  0  0  0  0  0  0  0  0
   51.7150   27.1230   49.3550 H   0  0  0  0  0  0  0  0  0  0  0  0
   53.6930   28.9310   50.7680 H   0  0  0  0  0  0  0  0  0  0  0  0
   51.9930   28.6190   51.2010 H   0  0  0  0  0  0  0  0  0  0  0  0
   51.5100   30.5670   50.1000 H   0  0  0  0  0  0  0  0  0  0  0  0
   53.2000   30.8170   49.5990 H   0  0  0  0  0  0  0  0  0  0  0  0
   50.9830   29.1740   48.2570 H   0  0  0  0  0  0  0  0  0  0  0  0
   51.7460   30.7600   47.6500 H   0  0  0  0  0  0  0  0  0  0  0  0
   49.8710   32.7190   41.1290 C   0  0  0  0  0  0  0  0  0  0  0  0
   50.0780   32.9520   40.0930 H   0  0  0  0  0  0  0  0  0  0  0  0
   50.3520   33.5550   41.7220 H   0  0  0  0  0  0  0  0  0  0  0  0
   48.4300   32.7360   41.3750 C   0  0  0  0  0  3  0  0  0  0  0  0
   47.4520   31.8520   41.2110 C   0  0  0  0  0  3  0  0  0  0  0  0
   45.9800   32.0370   41.6270 C   0  0  0  0  0  0  0  0  0  0  0  0
   45.4040   31.2960   41.0770 H   0  0  0  0  0  0  0  0  0  0  0  0
   45.9540   31.8200   42.7080 H   0  0  0  0  0  0  0  0  0  0  0  0
   44.2250   33.6030   42.1880 C   0  0  1  0  0  3  0  0  0  0  0  0
   45.5350   33.4520   41.4340 C   0  0  2  0  0  3  0  0  0  0  0  0
   45.4830   33.8840   40.1330 O   0  0  0  0  0  0  0  0  0  0  0  0
   44.4530   33.3880   39.3740 C   0  0  0  0  0  2  0  0  0  0  0  0
   43.0810   33.6150   39.9680 C   0  0  1  0  0  3  0  0  0  0  0  0
   43.0610   33.0520   41.3710 C   0  0  2  0  0  3  0  0  0  0  0  0
   44.2850   32.7840   43.3290 O   0  0  0  0  0  0  0  0  0  0  0  0
   44.8600   33.1700   44.0180 H   0  0  0  0  0  0  0  0  0  0  0  0
   42.7580   34.9630   40.0270 O   0  0  0  0  0  0  0  0  0  0  0  0
   43.2260   35.4170   40.7700 H   0  0  0  0  0  0  0  0  0  0  0  0
   41.8950   33.4320   42.0020 O   0  0  0  0  0  0  0  0  0  0  0  0
   41.8400   33.1030   42.9190 H   0  0  0  0  0  0  0  0  0  0  0  0
  1 11  1  0  0  0  0
  2  1  1  0  0  0  0
  3  4  1  0  0  0  0
  3  2  2  0  0  0  0
  4  5  1  0  0  0  0
  5  1  2  0  0  0  0
  6  3  1  0  0  0  0
  7 15  1  0  0  0  0
  8  7  1  0  0  0  0
  8 13  1  0  0  0  0
  9  8  2  0  0  0  0
 10 11  2  0  0  0  0
 10  9  1  0  0  0  0
 11 12  1  0  0  0  0
 12  7  2  0  0  0  0
 14  9  1  0  0  0  0
 15 20  1  0  0  0  0
 15 16  1  0  0  0  0
 16 22  1  0  0  0  0
 16 17  1  0  0  0  0
 17 24  1  0  0  0  0
 17 18  1  0  0  0  0
 18 26  1  0  0  0  0
 18 27  1  0  0  0  0
 19 29  1  0  0  0  0
 19 28  1  0  0  0  0
 19 18  1  0  0  0  0
 20 30  1  0  0  0  0
 20 19  1  0  0  0  0
 21 15  1  0  0  0  0
 23 16  1  0  0  0  0
 25 17  1  0  0  0  0
 31 20  1  0  0  0  0
 32 35  1  0  0  0  0
 32  4  1  0  0  0  0
 32 34  1  0  0  0  0
 33 32  1  0  0  0  0
 36 35  2  0  0  0  0
 36 37  1  0  0  0  0
 37 39  1  0  0  0  0
 38 37  1  0  0  0  0
 40 46  1  1  0  0  0
 41 37  1  6  0  0  0
 41 40  1  0  0  0  0
 42 41  1  0  0  0  0
 43 44  1  0  0  0  0
 43 42  1  0  0  0  0
 44 48  1  1  0  0  0
 44 45  1  0  0  0  0
 45 50  1  1  0  0  0
 45 40  1  0  0  0  0
 46 47  1  0  0  0  0
 48 49  1  0  0  0  0
 50 51  1  0  0  0  0
M  END
>  <minimizedAffinity>
-3.56138992

>  <minimizedRMSD>
9.8819294

$$$$
