
 OpenBabel03252507383D

 41 45  0  0  1  0  0  0  0  0999 V2000
   45.5140   34.8200   43.4980 C   0  0  0  0  0  0  0  0  0  0  0  0
   46.2270   33.7430   44.0880 C   0  0  0  0  0  0  0  0  0  0  0  0
   46.0330   33.5220   45.4410 C   0  0  0  0  0  0  0  0  0  0  0  0
   45.1900   34.3290   46.1250 N   0  0  0  0  0  0  0  0  0  0  0  0
   44.5190   35.3520   45.5400 C   0  0  0  0  0  0  0  0  0  0  0  0
   44.6860   35.5870   44.2430 N   0  0  0  0  0  0  0  0  0  0  0  0
   46.8910   33.1040   43.5610 H   0  0  0  0  0  0  0  0  0  0  0  0
   43.8430   36.0020   46.0790 H   0  0  0  0  0  0  0  0  0  0  0  0
   46.9910   32.7090   47.5230 C   0  0  0  0  0  0  0  0  0  0  0  0
   46.6880   32.4600   46.1920 C   0  0  0  0  0  0  0  0  0  0  0  0
   47.0190   31.2420   45.6740 C   0  0  0  0  0  0  0  0  0  0  0  0
   47.6390   30.2480   46.4050 C   0  0  0  0  0  0  0  0  0  0  0  0
   48.0490   28.9990   46.1060 N   0  0  0  0  0  0  0  0  0  0  0  0
   48.6100   28.4620   47.2500 C   0  0  0  0  0  0  0  0  0  0  0  0
   48.5310   29.3870   48.2130 N   0  0  0  0  0  0  0  0  0  0  0  0
   47.9410   30.4830   47.7160 C   0  0  0  0  0  0  0  0  0  0  0  0
   47.6190   31.7120   48.2760 C   0  0  0  0  0  0  0  0  0  0  0  0
   46.7710   33.6400   48.0270 H   0  0  0  0  0  0  0  0  0  0  0  0
   46.7900   31.0290   44.6320 H   0  0  0  0  0  0  0  0  0  0  0  0
   47.9390   28.5620   45.1660 H   0  0  0  0  0  0  0  0  0  0  0  0
   49.0040   27.4500   47.2150 H   0  0  0  0  0  0  0  0  0  0  0  0
   47.8520   31.9230   49.3300 H   0  0  0  0  0  0  0  0  0  0  0  0
   45.7090   35.0430   42.1360 O   0  0  0  0  0  0  0  0  0  0  0  0
   44.6560   34.8540   41.2440 C   0  0  0  0  0  0  0  0  0  0  0  0
   45.0050   33.6700   40.7010 C   0  0  0  0  0  0  0  0  0  0  0  0
   43.5830   33.3720   39.4690 S   0  0  0  0  0  0  0  0  0  0  0  0
   42.8060   35.0120   40.0120 C   0  0  0  0  0  0  0  0  0  0  0  0
   43.5440   35.3360   40.7630 N   0  0  0  0  0  0  0  0  0  0  0  0
   45.6670   32.7030   40.5270 H   0  0  0  0  0  0  0  0  0  0  0  0
   41.1820   35.1700   38.1740 C   0  0  1  0  0  3  0  0  0  0  0  0
   41.5030   35.6880   39.5260 C   0  0  1  0  0  3  0  0  0  0  0  0
   40.5380   35.5720   40.4790 O   0  0  0  0  0  0  0  0  0  0  0  0
   39.8220   34.3910   40.4530 C   0  0  0  0  0  2  0  0  0  0  0  0
   39.0030   34.4010   39.1780 C   0  0  1  0  0  3  0  0  0  0  0  0
   40.0220   34.2590   38.0560 C   0  0  2  0  0  3  0  0  0  0  0  0
   40.9320   36.2540   37.3010 O   0  0  0  0  0  0  0  0  0  0  0  0
   40.3810   36.8790   37.8510 H   0  0  0  0  0  0  0  0  0  0  0  0
   38.0980   33.3600   39.1150 O   0  0  0  0  0  0  0  0  0  0  0  0
   37.3000   33.6540   39.6600 H   0  0  0  0  0  0  0  0  0  0  0  0
   40.4170   32.9110   38.0420 O   0  0  0  0  0  0  0  0  0  0  0  0
   39.6870   32.3250   37.7240 H   0  0  0  0  0  0  0  0  0  0  0  0
  1  2  2  0  0  0  0
  1  6  1  0  0  0  0
  2  3  1  0  0  0  0
  3  4  2  0  0  0  0
  3 10  1  0  0  0  0
  5  8  1  0  0  0  0
  5  4  1  0  0  0  0
  6  5  2  0  0  0  0
  7  2  1  0  0  0  0
  9 18  1  0  0  0  0
  9 17  1  0  0  0  0
 10  9  2  0  0  0  0
 11 10  1  0  0  0  0
 11 12  2  0  0  0  0
 12 16  1  0  0  0  0
 13 12  1  0  0  0  0
 13 14  1  0  0  0  0
 14 15  2  0  0  0  0
 16 15  1  0  0  0  0
 16 17  2  0  0  0  0
 17 22  1  0  0  0  0
 19 11  1  0  0  0  0
 20 13  1  0  0  0  0
 21 14  1  0  0  0  0
 23  1  1  0  0  0  0
 24 23  1  0  0  0  0
 25 24  2  0  0  0  0
 26 27  1  0  0  0  0
 26 25  1  0  0  0  0
 27 28  2  0  0  0  0
 28 24  1  0  0  0  0
 29 25  1  0  0  0  0
 30 36  1  6  0  0  0
 30 31  1  0  0  0  0
 31 27  1  1  0  0  0
 31 32  1  0  0  0  0
 33 32  1  0  0  0  0
 34 38  1  1  0  0  0
 34 33  1  0  0  0  0
 35 40  1  1  0  0  0
 35 30  1  0  0  0  0
 35 34  1  0  0  0  0
 36 37  1  0  0  0  0
 38 39  1  0  0  0  0
 41 40  1  0  0  0  0
M  END
>  <minimizedAffinity>
-7.21028996

>  <minimizedRMSD>
0.165265948

$$$$
