
 OpenBabel03252503413D

 24 25  0  0  1  0  0  0  0  0999 V2000
   44.6010   35.3800   44.7560 C   0  0  0  0  0  0  0  0  0  0  0  0
   44.7740   34.8640   43.4820 C   0  0  0  0  0  0  0  0  0  0  0  0
   45.4320   33.6490   43.3430 C   0  0  0  0  0  0  0  0  0  0  0  0
   45.8720   33.0250   44.4540 N   0  0  0  0  0  0  0  0  0  0  0  0
   45.6920   33.5480   45.6930 C   0  0  0  0  0  0  0  0  0  0  0  0
   45.0540   34.7320   45.8640 N   0  0  0  0  0  0  0  0  0  0  0  0
   44.0930   36.3240   44.9090 H   0  0  0  0  0  0  0  0  0  0  0  0
   45.5530   33.2700   42.3370 H   0  0  0  0  0  0  0  0  0  0  0  0
   45.1270   31.9420   47.5250 C   0  0  2  0  0  3  0  0  0  0  0  0
   46.1930   32.8250   46.8630 C   0  0  1  0  0  3  0  0  0  0  0  0
   47.2220   31.9260   46.5630 O   0  0  0  0  0  0  0  0  0  0  0  0
   47.9160   31.7300   47.7420 C   0  0  0  0  0  2  0  0  0  0  0  0
   47.1000   31.2150   48.8870 C   0  0  1  0  0  3  0  0  0  0  0  0
   45.6830   31.6850   48.9250 C   0  0  1  0  0  3  0  0  0  0  0  0
   45.0680   30.7310   46.8140 O   0  0  0  0  0  0  0  0  0  0  0  0
   44.1530   30.5820   46.4660 H   0  0  0  0  0  0  0  0  0  0  0  0
   47.1080   29.8220   48.8520 O   0  0  0  0  0  0  0  0  0  0  0  0
   48.0360   29.5070   48.9950 H   0  0  0  0  0  0  0  0  0  0  0  0
   45.6490   32.9140   49.5890 O   0  0  0  0  0  0  0  0  0  0  0  0
   46.5110   33.1510   49.9810 H   0  0  0  0  0  0  0  0  0  0  0  0
   44.2290   35.6750   42.3620 C   0  0  0  0  0  0  0  0  0  0  0  0
   43.1660   35.3860   42.2390 H   0  0  0  0  0  0  0  0  0  0  0  0
   44.8190   35.3830   41.4540 H   0  0  0  0  0  0  0  0  0  0  0  0
   44.3860   36.7280   42.5890 H   0  0  0  0  0  0  0  0  0  0  0  0
  1  7  1  0  0  0  0
  1  6  1  0  0  0  0
  2  1  2  0  0  0  0
  3  2  1  0  0  0  0
  3  4  2  0  0  0  0
  4  5  1  0  0  0  0
  5  6  2  0  0  0  0
  8  3  1  0  0  0  0
  9 15  1  6  0  0  0
  9 14  1  0  0  0  0
 10  5  1  6  0  0  0
 10  9  1  0  0  0  0
 11 10  1  0  0  0  0
 11 12  1  0  0  0  0
 12 13  1  0  0  0  0
 13 17  1  6  0  0  0
 13 14  1  0  0  0  0
 14 19  1  1  0  0  0
 16 15  1  0  0  0  0
 17 18  1  0  0  0  0
 19 20  1  0  0  0  0
 21 24  1  0  0  0  0
 21  2  1  0  0  0  0
 22 21  1  0  0  0  0
 23 21  1  0  0  0  0
M  END
>  <minimizedAffinity>
-5.19582558

>  <minimizedRMSD>
1.03550029

$$$$
