
 OpenBabel03242518033D

 40 42  0  0  1  0  0  0  0  0999 V2000
   37.2910   29.2420   42.4130 C   0  0  0  0  0  0  0  0  0  0  0  0
   36.6810   28.6660   41.7250 H   0  0  0  0  0  0  0  0  0  0  0  0
   36.5490   29.8160   43.0470 H   0  0  0  0  0  0  0  0  0  0  0  0
   37.6080   30.8580   40.5460 C   0  0  0  0  0  0  0  0  0  0  0  0
   38.0900   30.2420   41.7220 C   0  0  0  0  0  0  0  0  0  0  0  0
   39.3590   30.6480   42.1600 C   0  0  0  0  0  0  0  0  0  0  0  0
   40.0380   31.5810   41.4590 N   0  0  0  0  0  0  0  0  0  0  0  0
   39.5390   32.1440   40.3400 C   0  0  0  0  0  0  0  0  0  0  0  0
   38.3400   31.7820   39.8950 N   0  0  0  0  0  0  0  0  0  0  0  0
   36.6370   30.6090   40.1290 H   0  0  0  0  0  0  0  0  0  0  0  0
   39.7500   30.1930   43.0570 H   0  0  0  0  0  0  0  0  0  0  0  0
   41.1620   32.4200   38.5890 C   0  0  1  0  0  3  0  0  0  0  0  0
   40.3000   33.1700   39.5780 C   0  0  2  0  0  3  0  0  0  0  0  0
   40.9920   34.0470   40.3580 O   0  0  0  0  0  0  0  0  0  0  0  0
   42.1800   34.4950   39.8390 C   0  0  0  0  0  2  0  0  0  0  0  0
   42.2270   34.6290   38.3440 C   0  0  2  0  0  3  0  0  0  0  0  0
   41.7320   33.4180   37.6120 C   0  0  1  0  0  3  0  0  0  0  0  0
   42.1200   31.7300   39.2910 O   0  0  0  0  0  0  0  0  0  0  0  0
   42.6410   31.0990   38.7480 H   0  0  0  0  0  0  0  0  0  0  0  0
   43.5630   34.8280   37.9940 O   0  0  0  0  0  0  0  0  0  0  0  0
   43.6520   35.2690   37.1090 H   0  0  0  0  0  0  0  0  0  0  0  0
   42.6660   32.7870   36.8260 O   0  0  0  0  0  0  0  0  0  0  0  0
   43.5280   33.2330   36.9160 H   0  0  0  0  0  0  0  0  0  0  0  0
   38.2260   28.4360   43.2890 C   0  0  0  0  0  0  0  0  0  0  0  0
   39.2910   28.8070   43.2190 H   0  0  0  0  0  0  0  0  0  0  0  0
   37.9450   28.6360   44.3390 H   0  0  0  0  0  0  0  0  0  0  0  0
   39.4680   26.3150   43.1500 C   0  0  0  0  0  0  0  0  0  0  0  0
   38.2840   27.0030   42.9680 C   0  0  0  0  0  0  0  0  0  0  0  0
   37.1400   26.4130   42.5020 C   0  0  0  0  0  0  0  0  0  0  0  0
   37.1720   25.0710   42.1990 C   0  0  0  0  0  0  0  0  0  0  0  0
   38.3020   24.3130   42.3480 C   0  0  0  0  0  0  0  0  0  0  0  0
   39.4280   24.9790   42.8280 C   0  0  0  0  0  0  0  0  0  0  0  0
   36.1940   26.8560   42.3290 H   0  0  0  0  0  0  0  0  0  0  0  0
   36.3110   24.5130   41.8210 H   0  0  0  0  0  0  0  0  0  0  0  0
   38.3400   23.2540   42.1130 H   0  0  0  0  0  0  0  0  0  0  0  0
   40.3520   24.4120   42.9630 H   0  0  0  0  0  0  0  0  0  0  0  0
   40.9500   27.0350   43.7420 S   0  0  0  0  0  0  0  0  0  0  0  0
   41.6560   27.8500   42.6800 O   0  0  0  0  0  0  0  0  0  0  0  0
   41.9200   25.9210   44.0720 O   0  0  0  0  0  0  0  0  0  0  0  0
   40.7870   27.7270   44.9040 H   0  0  0  0  0  0  0  0  0  0  0  0
  1  3  1  0  0  0  0
  1 24  1  0  0  0  0
  2  1  1  0  0  0  0
  4  5  1  0  0  0  0
  5  6  2  0  0  0  0
  5  1  1  0  0  0  0
  6 11  1  0  0  0  0
  7  6  1  0  0  0  0
  8  7  2  0  0  0  0
  9  8  1  0  0  0  0
  9  4  2  0  0  0  0
 10  4  1  0  0  0  0
 12 18  1  1  0  0  0
 12 13  1  0  0  0  0
 13  8  1  1  0  0  0
 13 14  1  0  0  0  0
 15 14  1  0  0  0  0
 16 20  1  6  0  0  0
 16 15  1  0  0  0  0
 17 22  1  1  0  0  0
 17 16  1  0  0  0  0
 17 12  1  0  0  0  0
 19 18  1  0  0  0  0
 21 20  1  0  0  0  0
 22 23  1  0  0  0  0
 24 26  1  0  0  0  0
 25 24  1  0  0  0  0
 27 37  1  0  0  0  0
 28 27  1  0  0  0  0
 28 24  1  0  0  0  0
 29 28  2  0  0  0  0
 30 31  2  0  0  0  0
 30 29  1  0  0  0  0
 31 32  1  0  0  0  0
 32 36  1  0  0  0  0
 32 27  2  0  0  0  0
 33 29  1  0  0  0  0
 34 30  1  0  0  0  0
 35 31  1  0  0  0  0
 37 39  2  0  0  0  0
 37 40  1  0  0  0  0
 38 37  2  0  0  0  0
M  END
>  <minimizedAffinity>
-6.43398809

$$$$

 OpenBabel03242518033D

 40 42  0  0  1  0  0  0  0  0999 V2000
   36.3400   29.3930   38.8730 C   0  0  0  0  0  0  0  0  0  0  0  0
   36.5110   28.5960   38.1570 H   0  0  0  0  0  0  0  0  0  0  0  0
   35.4490   29.9600   38.4670 H   0  0  0  0  0  0  0  0  0  0  0  0
   38.0750   30.6720   40.1190 C   0  0  0  0  0  0  0  0  0  0  0  0
   37.4430   30.3410   38.9000 C   0  0  0  0  0  0  0  0  0  0  0  0
   37.9400   30.9750   37.7510 C   0  0  0  0  0  0  0  0  0  0  0  0
   38.9660   31.8450   37.8620 N   0  0  0  0  0  0  0  0  0  0  0  0
   39.5410   32.1320   39.0480 C   0  0  0  0  0  0  0  0  0  0  0  0
   39.0960   31.5500   40.1570 N   0  0  0  0  0  0  0  0  0  0  0  0
   37.7620   30.2320   41.0610 H   0  0  0  0  0  0  0  0  0  0  0  0
   37.4740   30.7390   36.8070 H   0  0  0  0  0  0  0  0  0  0  0  0
   41.2600   33.2180   37.7680 C   0  0  1  0  0  3  0  0  0  0  0  0
   40.6710   33.0930   39.1540 C   0  0  2  0  0  3  0  0  0  0  0  0
   41.5840   32.7800   40.1150 O   0  0  0  0  0  0  0  0  0  0  0  0
   42.8840   33.1120   39.8310 C   0  0  0  0  0  2  0  0  0  0  0  0
   43.0720   34.3480   38.9990 C   0  0  2  0  0  3  0  0  0  0  0  0
   42.2170   34.3830   37.7680 C   0  0  1  0  0  3  0  0  0  0  0  0
   41.8530   32.0210   37.4450 O   0  0  0  0  0  0  0  0  0  0  0  0
   42.1420   31.9540   36.5080 H   0  0  0  0  0  0  0  0  0  0  0  0
   44.4080   34.3680   38.5960 O   0  0  0  0  0  0  0  0  0  0  0  0
   44.7080   35.2840   38.3580 H   0  0  0  0  0  0  0  0  0  0  0  0
   42.9040   34.3960   36.5780 O   0  0  0  0  0  0  0  0  0  0  0  0
   43.8620   34.3370   36.7510 H   0  0  0  0  0  0  0  0  0  0  0  0
   36.0840   28.9480   40.2970 C   0  0  0  0  0  0  0  0  0  0  0  0
   36.6050   29.6160   41.0450 H   0  0  0  0  0  0  0  0  0  0  0  0
   35.0100   29.1090   40.5010 H   0  0  0  0  0  0  0  0  0  0  0  0
   37.1080   27.3190   41.8310 C   0  0  0  0  0  0  0  0  0  0  0  0
   36.5340   27.5830   40.6040 C   0  0  0  0  0  0  0  0  0  0  0  0
   36.3540   26.6280   39.6400 C   0  0  0  0  0  0  0  0  0  0  0  0
   36.7650   25.3420   39.9090 C   0  0  0  0  0  0  0  0  0  0  0  0
   37.3430   24.9910   41.0990 C   0  0  0  0  0  0  0  0  0  0  0  0
   37.4940   26.0150   42.0310 C   0  0  0  0  0  0  0  0  0  0  0  0
   35.9290   26.7350   38.6760 H   0  0  0  0  0  0  0  0  0  0  0  0
   36.6630   24.5120   39.2040 H   0  0  0  0  0  0  0  0  0  0  0  0
   37.6710   23.9800   41.3230 H   0  0  0  0  0  0  0  0  0  0  0  0
   37.9510   25.7790   42.9960 H   0  0  0  0  0  0  0  0  0  0  0  0
   37.3570   28.5140   43.0860 S   0  0  0  0  0  0  0  0  0  0  0  0
   38.8190   28.8590   43.2670 O   0  0  0  0  0  0  0  0  0  0  0  0
   36.9440   27.9080   44.4090 O   0  0  0  0  0  0  0  0  0  0  0  0
   36.5770   29.6220   42.9380 H   0  0  0  0  0  0  0  0  0  0  0  0
  1  5  1  0  0  0  0
  1 24  1  0  0  0  0
  2  1  1  0  0  0  0
  3  1  1  0  0  0  0
  4  9  1  0  0  0  0
  4 10  1  0  0  0  0
  5  4  2  0  0  0  0
  6  7  2  0  0  0  0
  6  5  1  0  0  0  0
  7  8  1  0  0  0  0
  8  9  2  0  0  0  0
 11  6  1  0  0  0  0
 12 18  1  1  0  0  0
 12 13  1  0  0  0  0
 13  8  1  6  0  0  0
 13 14  1  0  0  0  0
 15 14  1  0  0  0  0
 16 20  1  6  0  0  0
 16 15  1  0  0  0  0
 17 22  1  6  0  0  0
 17 12  1  0  0  0  0
 17 16  1  0  0  0  0
 19 18  1  0  0  0  0
 21 20  1  0  0  0  0
 22 23  1  0  0  0  0
 24 26  1  0  0  0  0
 24 28  1  0  0  0  0
 24 25  1  0  0  0  0
 27 32  1  0  0  0  0
 27 37  1  0  0  0  0
 28 27  2  0  0  0  0
 29 30  2  0  0  0  0
 29 28  1  0  0  0  0
 30 31  1  0  0  0  0
 31 35  1  0  0  0  0
 31 32  2  0  0  0  0
 32 36  1  0  0  0  0
 33 29  1  0  0  0  0
 34 30  1  0  0  0  0
 37 38  2  0  0  0  0
 37 39  2  0  0  0  0
 40 37  1  0  0  0  0
M  END
>  <minimizedAffinity>
-6.35802174

$$$$

 OpenBabel03242518033D

 40 42  0  0  1  0  0  0  0  0999 V2000
   37.6280   29.1680   42.7740 C   0  0  0  0  0  0  0  0  0  0  0  0
   36.6870   29.5470   43.1610 H   0  0  0  0  0  0  0  0  0  0  0  0
   38.2520   28.9540   43.6940 H   0  0  0  0  0  0  0  0  0  0  0  0
   37.8060   30.7190   40.8350 C   0  0  0  0  0  0  0  0  0  0  0  0
   38.3500   30.1820   42.0220 C   0  0  0  0  0  0  0  0  0  0  0  0
   39.6020   30.6810   42.4120 C   0  0  0  0  0  0  0  0  0  0  0  0
   40.2080   31.6210   41.6570 N   0  0  0  0  0  0  0  0  0  0  0  0
   39.6530   32.1060   40.5280 C   0  0  0  0  0  0  0  0  0  0  0  0
   38.4670   31.6560   40.1290 N   0  0  0  0  0  0  0  0  0  0  0  0
   36.8420   30.3960   40.4530 H   0  0  0  0  0  0  0  0  0  0  0  0
   40.0390   30.2880   43.3170 H   0  0  0  0  0  0  0  0  0  0  0  0
   41.1800   32.4010   38.6970 C   0  0  1  0  0  3  0  0  0  0  0  0
   40.3340   33.1420   39.7060 C   0  0  2  0  0  3  0  0  0  0  0  0
   41.0230   34.0670   40.4310 O   0  0  0  0  0  0  0  0  0  0  0  0
   42.1660   34.5490   39.8460 C   0  0  0  0  0  2  0  0  0  0  0  0
   42.1390   34.6450   38.3470 C   0  0  2  0  0  3  0  0  0  0  0  0
   41.6620   33.3950   37.6700 C   0  0  1  0  0  3  0  0  0  0  0  0
   42.1970   31.7700   39.3700 O   0  0  0  0  0  0  0  0  0  0  0  0
   42.7190   31.1460   38.8190 H   0  0  0  0  0  0  0  0  0  0  0  0
   43.4480   34.8880   37.9310 O   0  0  0  0  0  0  0  0  0  0  0  0
   43.4770   35.3090   37.0320 H   0  0  0  0  0  0  0  0  0  0  0  0
   42.5850   32.7820   36.8570 O   0  0  0  0  0  0  0  0  0  0  0  0
   43.4310   33.2660   36.8960 H   0  0  0  0  0  0  0  0  0  0  0  0
   37.5270   27.9370   41.9000 C   0  0  0  0  0  0  0  0  0  0  0  0
   36.4620   27.5660   41.8190 H   0  0  0  0  0  0  0  0  0  0  0  0
   37.7790   28.2460   40.8690 H   0  0  0  0  0  0  0  0  0  0  0  0
   38.0990   25.5450   41.8000 C   0  0  0  0  0  0  0  0  0  0  0  0
   38.3120   26.7860   42.3670 C   0  0  0  0  0  0  0  0  0  0  0  0
   39.2340   27.0090   43.3540 C   0  0  0  0  0  0  0  0  0  0  0  0
   39.9830   25.9460   43.8040 C   0  0  0  0  0  0  0  0  0  0  0  0
   39.8370   24.6820   43.2990 C   0  0  0  0  0  0  0  0  0  0  0  0
   38.8810   24.5290   42.2960 C   0  0  0  0  0  0  0  0  0  0  0  0
   39.4650   27.9170   43.8470 H   0  0  0  0  0  0  0  0  0  0  0  0
   40.7420   26.0250   44.5870 H   0  0  0  0  0  0  0  0  0  0  0  0
   40.4220   23.8350   43.6440 H   0  0  0  0  0  0  0  0  0  0  0  0
   38.7320   23.5370   41.8650 H   0  0  0  0  0  0  0  0  0  0  0  0
   36.9290   25.2200   40.5380 S   0  0  0  0  0  0  0  0  0  0  0  0
   36.2370   23.8880   40.7280 O   0  0  0  0  0  0  0  0  0  0  0  0
   37.6700   25.0790   39.2280 O   0  0  0  0  0  0  0  0  0  0  0  0
   36.0470   26.2410   40.3460 H   0  0  0  0  0  0  0  0  0  0  0  0
  1  2  1  0  0  0  0
  1  3  1  0  0  0  0
  4  5  1  0  0  0  0
  5  6  2  0  0  0  0
  5  1  1  0  0  0  0
  6 11  1  0  0  0  0
  7  6  1  0  0  0  0
  8  7  2  0  0  0  0
  9  8  1  0  0  0  0
  9  4  2  0  0  0  0
 10  4  1  0  0  0  0
 12 18  1  1  0  0  0
 12 13  1  0  0  0  0
 13 14  1  0  0  0  0
 13  8  1  1  0  0  0
 15 14  1  0  0  0  0
 16 20  1  6  0  0  0
 16 15  1  0  0  0  0
 17 22  1  1  0  0  0
 17 16  1  0  0  0  0
 17 12  1  0  0  0  0
 19 18  1  0  0  0  0
 21 20  1  0  0  0  0
 22 23  1  0  0  0  0
 24 28  1  0  0  0  0
 24  1  1  0  0  0  0
 25 24  1  0  0  0  0
 26 24  1  0  0  0  0
 27 32  2  0  0  0  0
 27 28  1  0  0  0  0
 28 29  2  0  0  0  0
 29 30  1  0  0  0  0
 29 33  1  0  0  0  0
 30 34  1  0  0  0  0
 31 35  1  0  0  0  0
 31 30  2  0  0  0  0
 32 31  1  0  0  0  0
 36 32  1  0  0  0  0
 37 38  2  0  0  0  0
 37 27  1  0  0  0  0
 39 37  2  0  0  0  0
 40 37  1  0  0  0  0
M  END
>  <minimizedAffinity>
-6.31685352

$$$$

 OpenBabel03242518033D

 40 42  0  0  1  0  0  0  0  0999 V2000
   36.2390   30.9040   41.0400 C   0  0  0  0  0  0  0  0  0  0  0  0
   35.5380   31.7320   41.0140 H   0  0  0  0  0  0  0  0  0  0  0  0
   36.3580   30.6610   42.1390 H   0  0  0  0  0  0  0  0  0  0  0  0
   38.7210   30.8100   41.2020 C   0  0  0  0  0  0  0  0  0  0  0  0
   37.5570   31.2960   40.5670 C   0  0  0  0  0  0  0  0  0  0  0  0
   37.7570   32.1620   39.4810 C   0  0  0  0  0  0  0  0  0  0  0  0
   39.0130   32.4790   39.1060 N   0  0  0  0  0  0  0  0  0  0  0  0
   40.0990   31.9920   39.7410 C   0  0  0  0  0  0  0  0  0  0  0  0
   39.9470   31.1690   40.7740 N   0  0  0  0  0  0  0  0  0  0  0  0
   38.6690   30.1340   42.0500 H   0  0  0  0  0  0  0  0  0  0  0  0
   36.8830   32.5470   38.9790 H   0  0  0  0  0  0  0  0  0  0  0  0
   41.3370   33.1910   38.0670 C   0  0  1  0  0  3  0  0  0  0  0  0
   41.4780   32.3510   39.3150 C   0  0  2  0  0  3  0  0  0  0  0  0
   42.3150   31.2860   39.1720 O   0  0  0  0  0  0  0  0  0  0  0  0
   43.2550   31.3980   38.1790 C   0  0  0  0  0  2  0  0  0  0  0  0
   43.7640   32.7870   37.9190 C   0  0  2  0  0  3  0  0  0  0  0  0
   42.6790   33.8090   37.7640 C   0  0  1  0  0  3  0  0  0  0  0  0
   40.8640   32.3860   37.0590 O   0  0  0  0  0  0  0  0  0  0  0  0
   40.6040   32.8700   36.2450 H   0  0  0  0  0  0  0  0  0  0  0  0
   44.4860   32.7390   36.7270 O   0  0  0  0  0  0  0  0  0  0  0  0
   45.1370   33.4860   36.6590 H   0  0  0  0  0  0  0  0  0  0  0  0
   42.6210   34.4170   36.5330 O   0  0  0  0  0  0  0  0  0  0  0  0
   43.2970   34.0340   35.9440 H   0  0  0  0  0  0  0  0  0  0  0  0
   35.8230   29.6720   40.2650 C   0  0  0  0  0  0  0  0  0  0  0  0
   34.7080   29.4950   40.3250 H   0  0  0  0  0  0  0  0  0  0  0  0
   35.9990   29.8860   39.1940 H   0  0  0  0  0  0  0  0  0  0  0  0
   37.1930   27.6760   39.8250 C   0  0  0  0  0  0  0  0  0  0  0  0
   36.4470   28.4220   40.7160 C   0  0  0  0  0  0  0  0  0  0  0  0
   36.2570   28.0560   42.0220 C   0  0  0  0  0  0  0  0  0  0  0  0
   36.8370   26.8900   42.4670 C   0  0  0  0  0  0  0  0  0  0  0  0
   37.5910   26.0890   41.6520 C   0  0  0  0  0  0  0  0  0  0  0  0
   37.7420   26.5240   40.3360 C   0  0  0  0  0  0  0  0  0  0  0  0
   35.7050   28.5580   42.7730 H   0  0  0  0  0  0  0  0  0  0  0  0
   36.7420   26.5160   43.4890 H   0  0  0  0  0  0  0  0  0  0  0  0
   38.0540   25.1670   41.9900 H   0  0  0  0  0  0  0  0  0  0  0  0
   38.3370   25.9160   39.6510 H   0  0  0  0  0  0  0  0  0  0  0  0
   37.4560   28.1090   38.1490 S   0  0  0  0  0  0  0  0  0  0  0  0
   37.7750   26.9050   37.2890 O   0  0  0  0  0  0  0  0  0  0  0  0
   38.6980   28.9700   38.0700 O   0  0  0  0  0  0  0  0  0  0  0  0
   36.4550   28.8710   37.6260 H   0  0  0  0  0  0  0  0  0  0  0  0
  1  3  1  0  0  0  0
  2  1  1  0  0  0  0
  4 10  1  0  0  0  0
  5  1  1  0  0  0  0
  5  4  2  0  0  0  0
  6  5  1  0  0  0  0
  7  6  2  0  0  0  0
  7  8  1  0  0  0  0
  8  9  2  0  0  0  0
  9  4  1  0  0  0  0
 11  6  1  0  0  0  0
 12 18  1  6  0  0  0
 12 13  1  0  0  0  0
 13  8  1  6  0  0  0
 14 13  1  0  0  0  0
 15 14  1  0  0  0  0
 16 20  1  6  0  0  0
 16 15  1  0  0  0  0
 17 22  1  6  0  0  0
 17 16  1  0  0  0  0
 17 12  1  0  0  0  0
 19 18  1  0  0  0  0
 21 20  1  0  0  0  0
 23 22  1  0  0  0  0
 24 25  1  0  0  0  0
 24 28  1  0  0  0  0
 24  1  1  0  0  0  0
 26 24  1  0  0  0  0
 27 32  2  0  0  0  0
 27 28  1  0  0  0  0
 28 29  2  0  0  0  0
 29 30  1  0  0  0  0
 29 33  1  0  0  0  0
 30 34  1  0  0  0  0
 31 35  1  0  0  0  0
 31 30  2  0  0  0  0
 32 31  1  0  0  0  0
 36 32  1  0  0  0  0
 37 27  1  0  0  0  0
 38 37  2  0  0  0  0
 39 37  2  0  0  0  0
 40 37  1  0  0  0  0
M  END
>  <minimizedAffinity>
-6.22987032

$$$$

 OpenBabel03242518033D

 40 42  0  0  1  0  0  0  0  0999 V2000
   36.2330   30.9850   41.0260 C   0  0  0  0  0  0  0  0  0  0  0  0
   35.5030   31.2540   40.2690 H   0  0  0  0  0  0  0  0  0  0  0  0
   35.8660   31.4870   41.9720 H   0  0  0  0  0  0  0  0  0  0  0  0
   37.6740   32.6250   39.8310 C   0  0  0  0  0  0  0  0  0  0  0  0
   37.5400   31.5580   40.7450 C   0  0  0  0  0  0  0  0  0  0  0  0
   38.7230   31.1000   41.3440 C   0  0  0  0  0  0  0  0  0  0  0  0
   39.8980   31.6840   41.0270 N   0  0  0  0  0  0  0  0  0  0  0  0
   39.9810   32.7020   40.1470 C   0  0  0  0  0  0  0  0  0  0  0  0
   38.8800   33.1610   39.5610 N   0  0  0  0  0  0  0  0  0  0  0  0
   36.8160   33.0480   39.3180 H   0  0  0  0  0  0  0  0  0  0  0  0
   38.6470   30.2850   42.0470 H   0  0  0  0  0  0  0  0  0  0  0  0
   41.2910   33.5290   38.3090 C   0  0  1  0  0  3  0  0  0  0  0  0
   41.2840   33.3350   39.8080 C   0  0  2  0  0  3  0  0  0  0  0  0
   42.3710   32.6660   40.2830 O   0  0  0  0  0  0  0  0  0  0  0  0
   43.4920   32.7160   39.4930 C   0  0  0  0  0  2  0  0  0  0  0  0
   43.6790   33.9850   38.7110 C   0  0  2  0  0  3  0  0  0  0  0  0
   42.4580   34.4160   37.9560 C   0  0  1  0  0  3  0  0  0  0  0  0
   41.3430   32.2900   37.7170 O   0  0  0  0  0  0  0  0  0  0  0  0
   41.2090   32.3020   36.7440 H   0  0  0  0  0  0  0  0  0  0  0  0
   44.6950   33.7460   37.7850 O   0  0  0  0  0  0  0  0  0  0  0  0
   45.1240   34.5880   37.4810 H   0  0  0  0  0  0  0  0  0  0  0  0
   42.5950   34.4470   36.5890 O   0  0  0  0  0  0  0  0  0  0  0  0
   43.4850   34.1340   36.3410 H   0  0  0  0  0  0  0  0  0  0  0  0
   36.4230   29.5000   41.2510 C   0  0  0  0  0  0  0  0  0  0  0  0
   37.4990   29.2450   41.4810 H   0  0  0  0  0  0  0  0  0  0  0  0
   35.8840   29.2390   42.1810 H   0  0  0  0  0  0  0  0  0  0  0  0
   36.6290   27.4080   39.9710 C   0  0  0  0  0  0  0  0  0  0  0  0
   36.0500   28.6540   40.1090 C   0  0  0  0  0  0  0  0  0  0  0  0
   35.1280   29.1520   39.2290 C   0  0  0  0  0  0  0  0  0  0  0  0
   34.7620   28.3740   38.1540 C   0  0  0  0  0  0  0  0  0  0  0  0
   35.2860   27.1270   37.9390 C   0  0  0  0  0  0  0  0  0  0  0  0
   36.2180   26.6860   38.8770 C   0  0  0  0  0  0  0  0  0  0  0  0
   34.6340   30.0880   39.2500 H   0  0  0  0  0  0  0  0  0  0  0  0
   34.0350   28.6840   37.3990 H   0  0  0  0  0  0  0  0  0  0  0  0
   35.0050   26.5040   37.0960 H   0  0  0  0  0  0  0  0  0  0  0  0
   36.6620   25.6960   38.7440 H   0  0  0  0  0  0  0  0  0  0  0  0
   37.8130   26.7390   41.0750 S   0  0  0  0  0  0  0  0  0  0  0  0
   38.5670   25.5750   40.4690 O   0  0  0  0  0  0  0  0  0  0  0  0
   37.0780   26.1420   42.2550 O   0  0  0  0  0  0  0  0  0  0  0  0
   38.6450   27.6770   41.6060 H   0  0  0  0  0  0  0  0  0  0  0  0
  1 24  1  0  0  0  0
  1  3  1  0  0  0  0
  2  1  1  0  0  0  0
  4  5  1  0  0  0  0
  5  1  1  0  0  0  0
  5  6  2  0  0  0  0
  6 11  1  0  0  0  0
  7  6  1  0  0  0  0
  8  7  2  0  0  0  0
  9  4  2  0  0  0  0
  9  8  1  0  0  0  0
 10  4  1  0  0  0  0
 12 18  1  6  0  0  0
 12 13  1  0  0  0  0
 13  8  1  6  0  0  0
 13 14  1  0  0  0  0
 15 14  1  0  0  0  0
 16 20  1  6  0  0  0
 16 15  1  0  0  0  0
 17 22  1  6  0  0  0
 17 12  1  0  0  0  0
 17 16  1  0  0  0  0
 19 18  1  0  0  0  0
 21 20  1  0  0  0  0
 23 22  1  0  0  0  0
 24 25  1  0  0  0  0
 24 26  1  0  0  0  0
 27 28  1  0  0  0  0
 27 37  1  0  0  0  0
 28 24  1  0  0  0  0
 29 33  1  0  0  0  0
 29 28  2  0  0  0  0
 30 29  1  0  0  0  0
 31 30  2  0  0  0  0
 31 32  1  0  0  0  0
 32 27  2  0  0  0  0
 34 30  1  0  0  0  0
 35 31  1  0  0  0  0
 36 32  1  0  0  0  0
 37 40  1  0  0  0  0
 37 39  2  0  0  0  0
 38 37  2  0  0  0  0
M  END
>  <minimizedAffinity>
-6.19524193

$$$$

 OpenBabel03242518033D

 40 42  0  0  1  0  0  0  0  0999 V2000
   37.7060   29.1690   42.7170 C   0  0  0  0  0  0  0  0  0  0  0  0
   37.4130   29.5120   43.7040 H   0  0  0  0  0  0  0  0  0  0  0  0
   38.4880   28.3730   42.9090 H   0  0  0  0  0  0  0  0  0  0  0  0
   39.7130   30.5620   42.2350 C   0  0  0  0  0  0  0  0  0  0  0  0
   38.3720   30.2150   41.9570 C   0  0  0  0  0  0  0  0  0  0  0  0
   37.7460   30.9340   40.9270 C   0  0  0  0  0  0  0  0  0  0  0  0
   38.4340   31.8920   40.2720 N   0  0  0  0  0  0  0  0  0  0  0  0
   39.7140   32.1910   40.5700 C   0  0  0  0  0  0  0  0  0  0  0  0
   40.3390   31.5310   41.5400 N   0  0  0  0  0  0  0  0  0  0  0  0
   40.2810   30.0620   43.0140 H   0  0  0  0  0  0  0  0  0  0  0  0
   36.7220   30.6870   40.6950 H   0  0  0  0  0  0  0  0  0  0  0  0
   41.1010   32.5800   38.6460 C   0  0  1  0  0  3  0  0  0  0  0  0
   40.4580   33.2510   39.8380 C   0  0  2  0  0  3  0  0  0  0  0  0
   41.3310   33.9570   40.6100 O   0  0  0  0  0  0  0  0  0  0  0  0
   42.4740   34.3790   39.9810 C   0  0  0  0  0  2  0  0  0  0  0  0
   42.3280   34.7130   38.5240 C   0  0  2  0  0  3  0  0  0  0  0  0
   41.6250   33.6550   37.7280 C   0  0  1  0  0  3  0  0  0  0  0  0
   42.0760   31.7290   39.1070 O   0  0  0  0  0  0  0  0  0  0  0  0
   42.4560   31.1400   38.4190 H   0  0  0  0  0  0  0  0  0  0  0  0
   43.6170   34.8550   38.0080 O   0  0  0  0  0  0  0  0  0  0  0  0
   43.6260   35.4050   37.1820 H   0  0  0  0  0  0  0  0  0  0  0  0
   42.3790   33.0690   36.7400 O   0  0  0  0  0  0  0  0  0  0  0  0
   43.2840   33.4310   36.7570 H   0  0  0  0  0  0  0  0  0  0  0  0
   36.5880   28.6210   41.8570 C   0  0  0  0  0  0  0  0  0  0  0  0
   35.5850   28.6990   42.3730 H   0  0  0  0  0  0  0  0  0  0  0  0
   36.4890   29.2920   40.9840 H   0  0  0  0  0  0  0  0  0  0  0  0
   36.6260   26.8390   40.1600 C   0  0  0  0  0  0  0  0  0  0  0  0
   36.7340   27.2070   41.4870 C   0  0  0  0  0  0  0  0  0  0  0  0
   36.9780   26.3120   42.4940 C   0  0  0  0  0  0  0  0  0  0  0  0
   37.1220   24.9830   42.1690 C   0  0  0  0  0  0  0  0  0  0  0  0
   37.0300   24.5300   40.8800 C   0  0  0  0  0  0  0  0  0  0  0  0
   36.7800   25.4960   39.9080 C   0  0  0  0  0  0  0  0  0  0  0  0
   37.0740   26.4990   43.5320 H   0  0  0  0  0  0  0  0  0  0  0  0
   37.3180   24.1960   42.9020 H   0  0  0  0  0  0  0  0  0  0  0  0
   37.1410   23.4840   40.6110 H   0  0  0  0  0  0  0  0  0  0  0  0
   36.6990   25.1790   38.8660 H   0  0  0  0  0  0  0  0  0  0  0  0
   36.3130   27.9520   38.8460 S   0  0  0  0  0  0  0  0  0  0  0  0
   34.8630   28.3850   38.7940 O   0  0  0  0  0  0  0  0  0  0  0  0
   36.5380   27.2220   37.5410 O   0  0  0  0  0  0  0  0  0  0  0  0
   37.1720   29.0100   38.8200 H   0  0  0  0  0  0  0  0  0  0  0  0
  1  3  1  0  0  0  0
  1  2  1  0  0  0  0
  4 10  1  0  0  0  0
  5  4  1  0  0  0  0
  5  1  1  0  0  0  0
  6  5  2  0  0  0  0
  7  8  2  0  0  0  0
  7  6  1  0  0  0  0
  8  9  1  0  0  0  0
  9  4  2  0  0  0  0
 11  6  1  0  0  0  0
 12 18  1  1  0  0  0
 12 13  1  0  0  0  0
 13  8  1  1  0  0  0
 13 14  1  0  0  0  0
 15 14  1  0  0  0  0
 16 20  1  6  0  0  0
 16 15  1  0  0  0  0
 17 22  1  6  0  0  0
 17 16  1  0  0  0  0
 17 12  1  0  0  0  0
 19 18  1  0  0  0  0
 21 20  1  0  0  0  0
 22 23  1  0  0  0  0
 24 25  1  0  0  0  0
 24  1  1  0  0  0  0
 26 24  1  0  0  0  0
 27 28  1  0  0  0  0
 28 24  1  0  0  0  0
 28 29  2  0  0  0  0
 29 33  1  0  0  0  0
 30 29  1  0  0  0  0
 30 34  1  0  0  0  0
 31 30  2  0  0  0  0
 32 27  2  0  0  0  0
 32 31  1  0  0  0  0
 35 31  1  0  0  0  0
 36 32  1  0  0  0  0
 37 27  1  0  0  0  0
 38 37  2  0  0  0  0
 39 37  2  0  0  0  0
 40 37  1  0  0  0  0
M  END
>  <minimizedAffinity>
-6.13260698

$$$$

 OpenBabel03242518033D

 40 42  0  0  1  0  0  0  0  0999 V2000
   36.3080   29.7610   37.5590 C   0  0  0  0  0  0  0  0  0  0  0  0
   36.5980   29.0180   36.8230 H   0  0  0  0  0  0  0  0  0  0  0  0
   35.6590   30.4940   36.9900 H   0  0  0  0  0  0  0  0  0  0  0  0
   37.2650   31.7430   38.7230 C   0  0  0  0  0  0  0  0  0  0  0  0
   37.4510   30.5220   38.0390 C   0  0  0  0  0  0  0  0  0  0  0  0
   38.7790   30.1080   37.8580 C   0  0  0  0  0  0  0  0  0  0  0  0
   39.7850   30.8730   38.3320 N   0  0  0  0  0  0  0  0  0  0  0  0
   39.5620   32.0340   38.9810 C   0  0  0  0  0  0  0  0  0  0  0  0
   38.3160   32.4570   39.1700 N   0  0  0  0  0  0  0  0  0  0  0  0
   36.2740   32.1450   38.9120 H   0  0  0  0  0  0  0  0  0  0  0  0
   38.9480   29.1770   37.3380 H   0  0  0  0  0  0  0  0  0  0  0  0
   41.0250   32.3240   40.8650 C   0  0  1  0  0  3  0  0  0  0  0  0
   40.6820   32.8660   39.4970 C   0  0  2  0  0  3  0  0  0  0  0  0
   40.4370   34.2060   39.4800 O   0  0  0  0  0  0  0  0  0  0  0  0
   41.0020   34.9260   40.5010 C   0  0  0  0  0  2  0  0  0  0  0  0
   42.3210   34.4150   41.0050 C   0  0  2  0  0  3  0  0  0  0  0  0
   42.3270   32.9470   41.3030 C   0  0  1  0  0  3  0  0  0  0  0  0
   39.9750   32.5950   41.7090 O   0  0  0  0  0  0  0  0  0  0  0  0
   40.0410   32.1580   42.5860 H   0  0  0  0  0  0  0  0  0  0  0  0
   42.5950   35.0970   42.1910 O   0  0  0  0  0  0  0  0  0  0  0  0
   43.5660   35.0970   42.4010 H   0  0  0  0  0  0  0  0  0  0  0  0
   42.5580   32.6170   42.6170 O   0  0  0  0  0  0  0  0  0  0  0  0
   42.6410   33.4290   43.1500 H   0  0  0  0  0  0  0  0  0  0  0  0
   35.5720   29.2280   38.7700 C   0  0  0  0  0  0  0  0  0  0  0  0
   35.6630   29.9240   39.6560 H   0  0  0  0  0  0  0  0  0  0  0  0
   34.4930   29.2450   38.5300 H   0  0  0  0  0  0  0  0  0  0  0  0
   36.6570   27.8250   40.4760 C   0  0  0  0  0  0  0  0  0  0  0  0
   36.0390   27.9190   39.2450 C   0  0  0  0  0  0  0  0  0  0  0  0
   35.8300   26.8400   38.4290 C   0  0  0  0  0  0  0  0  0  0  0  0
   36.2570   25.6030   38.8560 C   0  0  0  0  0  0  0  0  0  0  0  0
   36.8780   25.4180   40.0620 C   0  0  0  0  0  0  0  0  0  0  0  0
   37.0570   26.5610   40.8390 C   0  0  0  0  0  0  0  0  0  0  0  0
   35.3710   26.8140   37.4750 H   0  0  0  0  0  0  0  0  0  0  0  0
   36.1350   24.6840   38.2760 H   0  0  0  0  0  0  0  0  0  0  0  0
   37.2190   24.4490   40.4100 H   0  0  0  0  0  0  0  0  0  0  0  0
   37.5490   26.4600   41.8100 H   0  0  0  0  0  0  0  0  0  0  0  0
   36.9440   29.1820   41.5460 S   0  0  0  0  0  0  0  0  0  0  0  0
   38.3240   29.7750   41.3610 O   0  0  0  0  0  0  0  0  0  0  0  0
   36.9390   28.6730   42.9700 O   0  0  0  0  0  0  0  0  0  0  0  0
   35.9620   30.1250   41.4960 H   0  0  0  0  0  0  0  0  0  0  0  0
  1  5  1  0  0  0  0
  1 24  1  0  0  0  0
  2  1  1  0  0  0  0
  3  1  1  0  0  0  0
  4 10  1  0  0  0  0
  4  9  1  0  0  0  0
  5  4  2  0  0  0  0
  6  5  1  0  0  0  0
  6  7  2  0  0  0  0
  7  8  1  0  0  0  0
  8  9  2  0  0  0  0
 11  6  1  0  0  0  0
 12 17  1  0  0  0  0
 12 18  1  1  0  0  0
 13  8  1  1  0  0  0
 13 12  1  0  0  0  0
 14 13  1  0  0  0  0
 14 15  1  0  0  0  0
 15 16  1  0  0  0  0
 16 17  1  0  0  0  0
 16 20  1  1  0  0  0
 17 22  1  1  0  0  0
 18 19  1  0  0  0  0
 20 21  1  0  0  0  0
 22 23  1  0  0  0  0
 24 28  1  0  0  0  0
 24 25  1  0  0  0  0
 26 24  1  0  0  0  0
 27 32  1  0  0  0  0
 27 37  1  0  0  0  0
 28 27  2  0  0  0  0
 29 30  2  0  0  0  0
 29 28  1  0  0  0  0
 30 31  1  0  0  0  0
 31 35  1  0  0  0  0
 31 32  2  0  0  0  0
 32 36  1  0  0  0  0
 33 29  1  0  0  0  0
 34 30  1  0  0  0  0
 37 39  2  0  0  0  0
 38 37  2  0  0  0  0
 40 37  1  0  0  0  0
M  END
>  <minimizedAffinity>
-6.10870981

$$$$

 OpenBabel03242518033D

 40 42  0  0  1  0  0  0  0  0999 V2000
   36.2600   30.5980   41.0270 C   0  0  0  0  0  0  0  0  0  0  0  0
   35.3410   31.1380   40.8190 H   0  0  0  0  0  0  0  0  0  0  0  0
   36.2770   30.4820   42.1530 H   0  0  0  0  0  0  0  0  0  0  0  0
   38.7270   30.9250   41.0320 C   0  0  0  0  0  0  0  0  0  0  0  0
   37.4370   31.3790   40.6810 C   0  0  0  0  0  0  0  0  0  0  0  0
   37.3730   32.6030   39.9990 C   0  0  0  0  0  0  0  0  0  0  0  0
   38.5130   33.2680   39.7180 N   0  0  0  0  0  0  0  0  0  0  0  0
   39.7260   32.7980   40.0710 C   0  0  0  0  0  0  0  0  0  0  0  0
   39.8240   31.6420   40.7200 N   0  0  0  0  0  0  0  0  0  0  0  0
   38.8790   29.9900   41.5610 H   0  0  0  0  0  0  0  0  0  0  0  0
   36.3980   32.9710   39.7190 H   0  0  0  0  0  0  0  0  0  0  0  0
   41.1590   33.4560   38.2580 C   0  0  1  0  0  3  0  0  0  0  0  0
   40.9740   33.5440   39.7550 C   0  0  2  0  0  3  0  0  0  0  0  0
   42.0620   33.1430   40.4690 O   0  0  0  0  0  0  0  0  0  0  0  0
   43.2630   33.2120   39.8110 C   0  0  0  0  0  2  0  0  0  0  0  0
   43.3950   34.3280   38.8150 C   0  0  2  0  0  3  0  0  0  0  0  0
   42.2430   34.4260   37.8610 C   0  0  1  0  0  3  0  0  0  0  0  0
   41.4450   32.1520   37.9370 O   0  0  0  0  0  0  0  0  0  0  0  0
   41.4430   31.9640   36.9720 H   0  0  0  0  0  0  0  0  0  0  0  0
   44.5490   34.0760   38.0720 O   0  0  0  0  0  0  0  0  0  0  0  0
   44.9070   34.9020   37.6530 H   0  0  0  0  0  0  0  0  0  0  0  0
   42.5590   34.2250   36.5390 O   0  0  0  0  0  0  0  0  0  0  0  0
   43.5060   34.0070   36.4560 H   0  0  0  0  0  0  0  0  0  0  0  0
   36.3910   29.2500   40.3510 C   0  0  0  0  0  0  0  0  0  0  0  0
   37.4680   29.0000   40.1180 H   0  0  0  0  0  0  0  0  0  0  0  0
   36.0960   28.4830   41.0920 H   0  0  0  0  0  0  0  0  0  0  0  0
   36.3890   29.0540   37.8980 C   0  0  0  0  0  0  0  0  0  0  0  0
   35.6720   29.1290   39.0760 C   0  0  0  0  0  0  0  0  0  0  0  0
   34.3040   29.0930   39.1230 C   0  0  0  0  0  0  0  0  0  0  0  0
   33.6110   28.9770   37.9400 C   0  0  0  0  0  0  0  0  0  0  0  0
   34.2400   28.8960   36.7270 C   0  0  0  0  0  0  0  0  0  0  0  0
   35.6330   28.9390   36.7560 C   0  0  0  0  0  0  0  0  0  0  0  0
   33.6720   29.1460   39.9710 H   0  0  0  0  0  0  0  0  0  0  0  0
   32.5200   28.9400   37.8760 H   0  0  0  0  0  0  0  0  0  0  0  0
   33.7050   28.8040   35.7870 H   0  0  0  0  0  0  0  0  0  0  0  0
   36.1760   28.8780   35.8090 H   0  0  0  0  0  0  0  0  0  0  0  0
   38.1360   29.0990   37.7970 S   0  0  0  0  0  0  0  0  0  0  0  0
   38.6590   30.4950   37.5350 O   0  0  0  0  0  0  0  0  0  0  0  0
   38.5630   28.3010   36.5860 O   0  0  0  0  0  0  0  0  0  0  0  0
   38.7520   28.5040   38.8570 H   0  0  0  0  0  0  0  0  0  0  0  0
  1  3  1  0  0  0  0
  2  1  1  0  0  0  0
  4 10  1  0  0  0  0
  5  1  1  0  0  0  0
  5  4  2  0  0  0  0
  6  5  1  0  0  0  0
  7  6  2  0  0  0  0
  7  8  1  0  0  0  0
  8  9  2  0  0  0  0
  9  4  1  0  0  0  0
 11  6  1  0  0  0  0
 12 18  1  1  0  0  0
 12 13  1  0  0  0  0
 13  8  1  1  0  0  0
 13 14  1  0  0  0  0
 15 14  1  0  0  0  0
 16 20  1  6  0  0  0
 16 15  1  0  0  0  0
 17 22  1  6  0  0  0
 17 12  1  0  0  0  0
 17 16  1  0  0  0  0
 19 18  1  0  0  0  0
 21 20  1  0  0  0  0
 23 22  1  0  0  0  0
 24  1  1  0  0  0  0
 24 26  1  0  0  0  0
 25 24  1  0  0  0  0
 27 28  1  0  0  0  0
 28 29  2  0  0  0  0
 28 24  1  0  0  0  0
 29 33  1  0  0  0  0
 30 29  1  0  0  0  0
 31 32  1  0  0  0  0
 31 30  2  0  0  0  0
 32 27  2  0  0  0  0
 34 30  1  0  0  0  0
 35 31  1  0  0  0  0
 36 32  1  0  0  0  0
 37 27  1  0  0  0  0
 37 40  1  0  0  0  0
 38 37  2  0  0  0  0
 39 37  2  0  0  0  0
M  END
>  <minimizedAffinity>
-6.00458145

$$$$

 OpenBabel03242518033D

 40 42  0  0  1  0  0  0  0  0999 V2000
   38.2260   27.5550   43.4780 C   0  0  0  0  0  0  0  0  0  0  0  0
   38.1310   27.9330   44.4910 H   0  0  0  0  0  0  0  0  0  0  0  0
   38.9370   26.6780   43.5630 H   0  0  0  0  0  0  0  0  0  0  0  0
   38.3410   29.8160   42.4440 C   0  0  0  0  0  0  0  0  0  0  0  0
   38.8730   28.5170   42.6000 C   0  0  0  0  0  0  0  0  0  0  0  0
   40.0340   28.2290   41.8670 C   0  0  0  0  0  0  0  0  0  0  0  0
   40.5710   29.1770   41.0720 N   0  0  0  0  0  0  0  0  0  0  0  0
   40.0310   30.4070   40.9510 C   0  0  0  0  0  0  0  0  0  0  0  0
   38.9300   30.7140   41.6310 N   0  0  0  0  0  0  0  0  0  0  0  0
   37.4460   30.1330   42.9690 H   0  0  0  0  0  0  0  0  0  0  0  0
   40.4610   27.2430   41.9700 H   0  0  0  0  0  0  0  0  0  0  0  0
   39.8970   31.3690   38.7530 C   0  0  1  0  0  3  0  0  0  0  0  0
   40.6350   31.4410   40.0700 C   0  0  2  0  0  3  0  0  0  0  0  0
   41.9890   31.3520   39.9490 O   0  0  0  0  0  0  0  0  0  0  0  0
   42.5020   31.7140   38.7300 C   0  0  0  0  0  2  0  0  0  0  0  0
   41.7590   32.8010   38.0090 C   0  0  2  0  0  3  0  0  0  0  0  0
   40.2790   32.5760   37.9350 C   0  0  1  0  0  3  0  0  0  0  0  0
   40.2110   30.1750   38.1510 O   0  0  0  0  0  0  0  0  0  0  0  0
   39.6720   29.9700   37.3560 H   0  0  0  0  0  0  0  0  0  0  0  0
   42.2550   32.8380   36.7050 O   0  0  0  0  0  0  0  0  0  0  0  0
   42.0960   33.7190   36.2740 H   0  0  0  0  0  0  0  0  0  0  0  0
   39.7720   32.4320   36.6660 O   0  0  0  0  0  0  0  0  0  0  0  0
   40.4980   32.4640   36.0150 H   0  0  0  0  0  0  0  0  0  0  0  0
   36.9330   27.1290   42.8160 C   0  0  0  0  0  0  0  0  0  0  0  0
   36.1780   26.7590   43.5710 H   0  0  0  0  0  0  0  0  0  0  0  0
   36.4650   28.0400   42.3980 H   0  0  0  0  0  0  0  0  0  0  0  0
   36.8860   26.3210   40.4920 C   0  0  0  0  0  0  0  0  0  0  0  0
   37.0740   26.0470   41.8320 C   0  0  0  0  0  0  0  0  0  0  0  0
   37.3930   24.8020   42.3040 C   0  0  0  0  0  0  0  0  0  0  0  0
   37.5330   23.7750   41.3990 C   0  0  0  0  0  0  0  0  0  0  0  0
   37.3640   23.9570   40.0520 C   0  0  0  0  0  0  0  0  0  0  0  0
   37.0410   25.2500   39.6450 C   0  0  0  0  0  0  0  0  0  0  0  0
   37.5530   24.4980   43.3050 H   0  0  0  0  0  0  0  0  0  0  0  0
   37.7850   22.7490   41.6780 H   0  0  0  0  0  0  0  0  0  0  0  0
   37.4720   23.1550   39.3280 H   0  0  0  0  0  0  0  0  0  0  0  0
   36.8970   25.4400   38.5790 H   0  0  0  0  0  0  0  0  0  0  0  0
   36.4750   27.8980   39.8520 S   0  0  0  0  0  0  0  0  0  0  0  0
   35.4310   27.8190   38.7590 O   0  0  0  0  0  0  0  0  0  0  0  0
   37.6980   28.4670   39.1670 O   0  0  0  0  0  0  0  0  0  0  0  0
   36.1490   28.8030   40.8170 H   0  0  0  0  0  0  0  0  0  0  0  0
  1  3  1  0  0  0  0
  1  2  1  0  0  0  0
  4  5  1  0  0  0  0
  4 10  1  0  0  0  0
  5  1  1  0  0  0  0
  6 11  1  0  0  0  0
  6  5  2  0  0  0  0
  7  6  1  0  0  0  0
  8  7  2  0  0  0  0
  8  9  1  0  0  0  0
  9  4  2  0  0  0  0
 12 18  1  6  0  0  0
 12 13  1  0  0  0  0
 13  8  1  1  0  0  0
 14 13  1  0  0  0  0
 15 14  1  0  0  0  0
 16 20  1  6  0  0  0
 16 15  1  0  0  0  0
 17 22  1  6  0  0  0
 17 16  1  0  0  0  0
 17 12  1  0  0  0  0
 19 18  1  0  0  0  0
 21 20  1  0  0  0  0
 23 22  1  0  0  0  0
 24  1  1  0  0  0  0
 24 25  1  0  0  0  0
 26 24  1  0  0  0  0
 27 28  1  0  0  0  0
 28 29  2  0  0  0  0
 28 24  1  0  0  0  0
 29 33  1  0  0  0  0
 30 34  1  0  0  0  0
 30 29  1  0  0  0  0
 31 30  2  0  0  0  0
 32 31  1  0  0  0  0
 32 27  2  0  0  0  0
 35 31  1  0  0  0  0
 36 32  1  0  0  0  0
 37 27  1  0  0  0  0
 37 40  1  0  0  0  0
 38 37  2  0  0  0  0
 39 37  2  0  0  0  0
M  END
>  <minimizedAffinity>
-5.98962975

$$$$
