
 OpenBabel03242518433D

 22 23  0  0  1  0  0  0  0  0999 V2000
   36.4680   29.7430   41.0610 C   0  0  1  0  0  3  0  0  0  0  0  0
   37.8080   30.1490   41.6360 C   0  0  1  0  0  3  0  0  0  0  0  0
   38.7330   29.1520   41.6270 O   0  0  0  0  0  0  0  0  0  0  0  0
   38.5300   28.0960   40.7820 C   0  0  0  0  0  2  0  0  0  0  0  0
   37.1880   27.4550   40.8310 C   0  0  2  0  0  3  0  0  0  0  0  0
   36.2130   28.3420   41.5850 C   0  0  1  0  0  3  0  0  0  0  0  0
   37.7890   33.3530   39.8140 C   0  0  0  0  0  0  0  0  0  0  0  0
   39.1340   33.7990   39.9600 C   0  0  0  0  0  0  0  0  0  0  0  0
   40.0120   32.9820   40.6840 C   0  0  0  0  0  0  0  0  0  0  0  0
   39.5350   31.8150   41.2040 N   0  0  0  0  0  0  0  0  0  0  0  0
   38.2550   31.4350   41.0390 C   0  0  0  0  0  0  0  0  0  0  0  0
   37.3820   32.1960   40.3500 N   0  0  0  0  0  0  0  0  0  0  0  0
   39.4730   34.7160   39.5410 H   0  0  0  0  0  0  0  0  0  0  0  0
   41.0350   33.2350   40.8440 H   0  0  0  0  0  0  0  0  0  0  0  0
   36.9500   34.1610   39.1070 O   0  0  0  0  0  0  0  0  0  0  0  0
   36.1860   34.6920   39.5000 H   0  0  0  0  0  0  0  0  0  0  0  0
   35.4540   30.6000   41.4280 O   0  0  0  0  0  0  0  0  0  0  0  0
   35.1230   31.0660   40.6210 H   0  0  0  0  0  0  0  0  0  0  0  0
   37.1940   26.1750   41.3840 O   0  0  0  0  0  0  0  0  0  0  0  0
   36.2620   25.8460   41.2760 H   0  0  0  0  0  0  0  0  0  0  0  0
   36.5750   28.3390   42.9400 O   0  0  0  0  0  0  0  0  0  0  0  0
   36.8090   27.4150   43.2030 H   0  0  0  0  0  0  0  0  0  0  0  0
  1 17  1  1  0  0  0
  1  6  1  0  0  0  0
  1  2  1  0  0  0  0
  2 11  1  6  0  0  0
  3  2  1  0  0  0  0
  4  5  1  0  0  0  0
  4  3  1  0  0  0  0
  5 19  1  1  0  0  0
  5  6  1  0  0  0  0
  6 21  1  1  0  0  0
  7  8  2  0  0  0  0
  7 12  1  0  0  0  0
  8  9  1  0  0  0  0
  9 14  1  0  0  0  0
  9 10  2  0  0  0  0
 11 10  1  0  0  0  0
 12 11  2  0  0  0  0
 13  8  1  0  0  0  0
 15 16  1  0  0  0  0
 15  7  1  0  0  0  0
 18 17  1  0  0  0  0
 20 19  1  0  0  0  0
 21 22  1  0  0  0  0
M  END
>  <minimizedAffinity>
-5.49691677

$$$$

 OpenBabel03242518433D

 22 23  0  0  1  0  0  0  0  0999 V2000
   38.2270   31.8130   38.7910 C   0  0  1  0  0  3  0  0  0  0  0  0
   39.2610   32.4370   39.7040 C   0  0  1  0  0  3  0  0  0  0  0  0
   39.2000   31.9890   40.9880 O   0  0  0  0  0  0  0  0  0  0  0  0
   38.5560   30.8060   41.2240 C   0  0  0  0  0  2  0  0  0  0  0  0
   37.1960   30.6620   40.6400 C   0  0  2  0  0  3  0  0  0  0  0  0
   36.9510   31.7510   39.6110 C   0  0  1  0  0  3  0  0  0  0  0  0
   42.1780   33.2460   37.6030 C   0  0  0  0  0  0  0  0  0  0  0  0
   43.1000   32.2150   37.9430 C   0  0  0  0  0  0  0  0  0  0  0  0
   42.6900   31.2670   38.8900 C   0  0  0  0  0  0  0  0  0  0  0  0
   41.4420   31.3830   39.4280 N   0  0  0  0  0  0  0  0  0  0  0  0
   40.6050   32.3760   39.0740 C   0  0  0  0  0  0  0  0  0  0  0  0
   40.9660   33.3050   38.1670 N   0  0  0  0  0  0  0  0  0  0  0  0
   44.0670   32.1540   37.5040 H   0  0  0  0  0  0  0  0  0  0  0  0
   43.3120   30.4620   39.2060 H   0  0  0  0  0  0  0  0  0  0  0  0
   42.5950   34.1590   36.6800 O   0  0  0  0  0  0  0  0  0  0  0  0
   42.8110   35.1260   36.8750 H   0  0  0  0  0  0  0  0  0  0  0  0
   38.0360   32.5380   37.6360 O   0  0  0  0  0  0  0  0  0  0  0  0
   38.3460   31.9980   36.8670 H   0  0  0  0  0  0  0  0  0  0  0  0
   36.1720   30.6630   41.5870 O   0  0  0  0  0  0  0  0  0  0  0  0
   35.3440   30.4780   41.0690 H   0  0  0  0  0  0  0  0  0  0  0  0
   36.8390   32.9760   40.2870 O   0  0  0  0  0  0  0  0  0  0  0  0
   36.2900   32.8400   41.0980 H   0  0  0  0  0  0  0  0  0  0  0  0
  1 17  1  6  0  0  0
  1  6  1  0  0  0  0
  1  2  1  0  0  0  0
  2 11  1  6  0  0  0
  2  3  1  0  0  0  0
  3  4  1  0  0  0  0
  5  4  1  0  0  0  0
  5 19  1  1  0  0  0
  6 21  1  1  0  0  0
  6  5  1  0  0  0  0
  7  8  2  0  0  0  0
  7 12  1  0  0  0  0
  8  9  1  0  0  0  0
  9 14  1  0  0  0  0
  9 10  2  0  0  0  0
 11 10  1  0  0  0  0
 12 11  2  0  0  0  0
 13  8  1  0  0  0  0
 15 16  1  0  0  0  0
 15  7  1  0  0  0  0
 18 17  1  0  0  0  0
 20 19  1  0  0  0  0
 21 22  1  0  0  0  0
M  END
>  <minimizedAffinity>
-5.47930145

$$$$

 OpenBabel03242518433D

 22 23  0  0  1  0  0  0  0  0999 V2000
   37.1530   31.5220   40.9910 C   0  0  1  0  0  3  0  0  0  0  0  0
   38.1280   30.4380   40.5800 C   0  0  1  0  0  3  0  0  0  0  0  0
   39.3520   30.9110   40.2190 O   0  0  0  0  0  0  0  0  0  0  0  0
   39.7030   32.1650   40.6330 C   0  0  0  0  0  2  0  0  0  0  0  0
   38.7170   33.2490   40.3770 C   0  0  2  0  0  3  0  0  0  0  0  0
   37.3710   32.6540   40.0040 C   0  0  1  0  0  3  0  0  0  0  0  0
   37.0060   27.9650   43.0710 C   0  0  0  0  0  0  0  0  0  0  0  0
   38.2250   27.3340   43.4520 C   0  0  0  0  0  0  0  0  0  0  0  0
   39.4030   27.7800   42.8380 C   0  0  0  0  0  0  0  0  0  0  0  0
   39.3180   28.7840   41.9180 N   0  0  0  0  0  0  0  0  0  0  0  0
   38.1410   29.3500   41.5920 C   0  0  0  0  0  0  0  0  0  0  0  0
   36.9880   28.9460   42.1610 N   0  0  0  0  0  0  0  0  0  0  0  0
   38.2560   26.5530   44.1730 H   0  0  0  0  0  0  0  0  0  0  0  0
   40.3600   27.3670   43.0590 H   0  0  0  0  0  0  0  0  0  0  0  0
   35.8700   27.5180   43.6790 O   0  0  0  0  0  0  0  0  0  0  0  0
   35.1380   26.9900   43.2270 H   0  0  0  0  0  0  0  0  0  0  0  0
   35.8460   31.0920   40.9690 O   0  0  0  0  0  0  0  0  0  0  0  0
   35.4950   31.0890   41.8940 H   0  0  0  0  0  0  0  0  0  0  0  0
   39.1210   34.1610   39.4020 O   0  0  0  0  0  0  0  0  0  0  0  0
   38.4150   34.8610   39.3990 H   0  0  0  0  0  0  0  0  0  0  0  0
   37.4860   32.0720   38.7320 O   0  0  0  0  0  0  0  0  0  0  0  0
   38.0080   32.6800   38.1520 H   0  0  0  0  0  0  0  0  0  0  0  0
  1 17  1  6  0  0  0
  2  1  1  0  0  0  0
  2 11  1  1  0  0  0
  3  2  1  0  0  0  0
  3  4  1  0  0  0  0
  5 19  1  6  0  0  0
  5  4  1  0  0  0  0
  6 21  1  6  0  0  0
  6  5  1  0  0  0  0
  6  1  1  0  0  0  0
  7  8  1  0  0  0  0
  7 15  1  0  0  0  0
  8 13  1  0  0  0  0
  9 14  1  0  0  0  0
  9  8  2  0  0  0  0
 10  9  1  0  0  0  0
 11 10  2  0  0  0  0
 11 12  1  0  0  0  0
 12  7  2  0  0  0  0
 16 15  1  0  0  0  0
 17 18  1  0  0  0  0
 20 19  1  0  0  0  0
 22 21  1  0  0  0  0
M  END
>  <minimizedAffinity>
-5.44497633

$$$$

 OpenBabel03242518433D

 22 23  0  0  1  0  0  0  0  0999 V2000
   37.4200   29.3100   42.2470 C   0  0  1  0  0  3  0  0  0  0  0  0
   37.1860   27.9800   41.5620 C   0  0  1  0  0  3  0  0  0  0  0  0
   37.2250   28.0480   40.2040 O   0  0  0  0  0  0  0  0  0  0  0  0
   37.8440   29.1260   39.6340 C   0  0  0  0  0  2  0  0  0  0  0  0
   37.4370   30.4670   40.1330 C   0  0  2  0  0  3  0  0  0  0  0  0
   36.6510   30.3270   41.4240 C   0  0  1  0  0  3  0  0  0  0  0  0
   38.6770   24.7040   42.3560 C   0  0  0  0  0  0  0  0  0  0  0  0
   39.6650   25.0410   43.3250 C   0  0  0  0  0  0  0  0  0  0  0  0
   39.7900   26.3900   43.6790 C   0  0  0  0  0  0  0  0  0  0  0  0
   38.9670   27.3000   43.0810 N   0  0  0  0  0  0  0  0  0  0  0  0
   38.0470   26.9320   42.1710 C   0  0  0  0  0  0  0  0  0  0  0  0
   37.8980   25.6440   41.8050 N   0  0  0  0  0  0  0  0  0  0  0  0
   40.2920   24.3060   43.7720 H   0  0  0  0  0  0  0  0  0  0  0  0
   40.5010   26.7350   44.3940 H   0  0  0  0  0  0  0  0  0  0  0  0
   38.5700   23.3860   42.0250 O   0  0  0  0  0  0  0  0  0  0  0  0
   38.8360   22.9860   41.1360 H   0  0  0  0  0  0  0  0  0  0  0  0
   36.9950   29.3120   43.5570 O   0  0  0  0  0  0  0  0  0  0  0  0
   37.7830   29.4100   44.1470 H   0  0  0  0  0  0  0  0  0  0  0  0
   36.7090   31.2150   39.2090 O   0  0  0  0  0  0  0  0  0  0  0  0
   36.5820   32.1020   39.6420 H   0  0  0  0  0  0  0  0  0  0  0  0
   35.4070   29.7520   41.1200 O   0  0  0  0  0  0  0  0  0  0  0  0
   35.0580   30.1700   40.2950 H   0  0  0  0  0  0  0  0  0  0  0  0
  1 17  1  1  0  0  0
  2 11  1  1  0  0  0
  2  1  1  0  0  0  0
  3  2  1  0  0  0  0
  4  5  1  0  0  0  0
  4  3  1  0  0  0  0
  5 19  1  6  0  0  0
  5  6  1  0  0  0  0
  6 21  1  6  0  0  0
  6  1  1  0  0  0  0
  7  8  1  0  0  0  0
  8  9  2  0  0  0  0
  8 13  1  0  0  0  0
  9 14  1  0  0  0  0
 10  9  1  0  0  0  0
 11 10  2  0  0  0  0
 12 11  1  0  0  0  0
 12  7  2  0  0  0  0
 15  7  1  0  0  0  0
 16 15  1  0  0  0  0
 17 18  1  0  0  0  0
 19 20  1  0  0  0  0
 22 21  1  0  0  0  0
M  END
>  <minimizedAffinity>
-5.43228626

$$$$

 OpenBabel03242518433D

 22 23  0  0  1  0  0  0  0  0999 V2000
   37.1590   30.6290   39.7510 C   0  0  1  0  0  3  0  0  0  0  0  0
   37.9830   31.4500   40.7210 C   0  0  1  0  0  3  0  0  0  0  0  0
   38.2510   30.8080   41.8910 O   0  0  0  0  0  0  0  0  0  0  0  0
   38.1360   29.4460   41.9170 C   0  0  0  0  0  2  0  0  0  0  0  0
   36.8710   28.8760   41.3790 C   0  0  2  0  0  3  0  0  0  0  0  0
   36.1110   29.9350   40.6000 C   0  0  1  0  0  3  0  0  0  0  0  0
   40.3150   32.5010   38.0680 C   0  0  0  0  0  0  0  0  0  0  0  0
   41.3660   33.1160   38.8060 C   0  0  0  0  0  0  0  0  0  0  0  0
   41.2430   33.1500   40.2010 C   0  0  0  0  0  0  0  0  0  0  0  0
   40.1320   32.5990   40.7700 N   0  0  0  0  0  0  0  0  0  0  0  0
   39.1640   32.0290   40.0290 C   0  0  0  0  0  0  0  0  0  0  0  0
   39.2490   31.9780   38.6860 N   0  0  0  0  0  0  0  0  0  0  0  0
   42.2200   33.5370   38.3300 H   0  0  0  0  0  0  0  0  0  0  0  0
   41.9790   33.5890   40.8340 H   0  0  0  0  0  0  0  0  0  0  0  0
   40.4520   32.4770   36.7120 O   0  0  0  0  0  0  0  0  0  0  0  0
   39.8980   33.0150   36.0610 H   0  0  0  0  0  0  0  0  0  0  0  0
   36.5720   31.4000   38.7740 O   0  0  0  0  0  0  0  0  0  0  0  0
   36.9670   31.1620   37.8980 H   0  0  0  0  0  0  0  0  0  0  0  0
   36.0450   28.3170   42.3540 O   0  0  0  0  0  0  0  0  0  0  0  0
   35.2930   27.9090   41.8470 H   0  0  0  0  0  0  0  0  0  0  0  0
   35.6260   30.8860   41.5110 O   0  0  0  0  0  0  0  0  0  0  0  0
   35.2720   30.4130   42.3040 H   0  0  0  0  0  0  0  0  0  0  0  0
  1 17  1  6  0  0  0
  1  6  1  0  0  0  0
  1  2  1  0  0  0  0
  2 11  1  6  0  0  0
  2  3  1  0  0  0  0
  3  4  1  0  0  0  0
  5  4  1  0  0  0  0
  5 19  1  1  0  0  0
  6  5  1  0  0  0  0
  6 21  1  1  0  0  0
  7 12  2  0  0  0  0
  7  8  1  0  0  0  0
  8  9  2  0  0  0  0
  9 10  1  0  0  0  0
  9 14  1  0  0  0  0
 11 10  2  0  0  0  0
 12 11  1  0  0  0  0
 13  8  1  0  0  0  0
 15  7  1  0  0  0  0
 16 15  1  0  0  0  0
 18 17  1  0  0  0  0
 20 19  1  0  0  0  0
 21 22  1  0  0  0  0
M  END
>  <minimizedAffinity>
-5.36520863

$$$$

 OpenBabel03242518433D

 22 23  0  0  1  0  0  0  0  0999 V2000
   39.6540   31.7840   40.3690 C   0  0  1  0  0  3  0  0  0  0  0  0
   38.3870   30.9560   40.3120 C   0  0  1  0  0  3  0  0  0  0  0  0
   38.0820   30.5070   39.0650 O   0  0  0  0  0  0  0  0  0  0  0  0
   39.0810   30.4780   38.1310 C   0  0  0  0  0  2  0  0  0  0  0  0
   39.8760   31.7250   37.9700 C   0  0  2  0  0  3  0  0  0  0  0  0
   39.6150   32.6650   39.1340 C   0  0  1  0  0  3  0  0  0  0  0  0
   37.2720   28.4630   42.7870 C   0  0  0  0  0  0  0  0  0  0  0  0
   38.5030   28.0000   43.3350 C   0  0  0  0  0  0  0  0  0  0  0  0
   39.6850   28.5600   42.8350 C   0  0  0  0  0  0  0  0  0  0  0  0
   39.5940   29.5110   41.8600 N   0  0  0  0  0  0  0  0  0  0  0  0
   38.4060   29.9170   41.3740 C   0  0  0  0  0  0  0  0  0  0  0  0
   37.2490   29.3990   41.8300 N   0  0  0  0  0  0  0  0  0  0  0  0
   38.5380   27.2560   44.0950 H   0  0  0  0  0  0  0  0  0  0  0  0
   40.6510   28.2760   43.1840 H   0  0  0  0  0  0  0  0  0  0  0  0
   36.1330   27.9060   43.2850 O   0  0  0  0  0  0  0  0  0  0  0  0
   35.5240   27.2760   42.7820 H   0  0  0  0  0  0  0  0  0  0  0  0
   39.7370   32.5440   41.5140 O   0  0  0  0  0  0  0  0  0  0  0  0
   40.4950   32.2160   42.0600 H   0  0  0  0  0  0  0  0  0  0  0  0
   39.6500   32.3860   36.7630 O   0  0  0  0  0  0  0  0  0  0  0  0
   40.2990   33.1400   36.7600 H   0  0  0  0  0  0  0  0  0  0  0  0
   38.3030   33.1510   39.0190 O   0  0  0  0  0  0  0  0  0  0  0  0
   38.1300   33.3730   38.0710 H   0  0  0  0  0  0  0  0  0  0  0  0
  1 17  1  1  0  0  0
  2  1  1  0  0  0  0
  2 11  1  1  0  0  0
  3  2  1  0  0  0  0
  4  3  1  0  0  0  0
  5 19  1  6  0  0  0
  5  4  1  0  0  0  0
  5  6  1  0  0  0  0
  6 21  1  6  0  0  0
  6  1  1  0  0  0  0
  7 15  1  0  0  0  0
  7  8  1  0  0  0  0
  8 13  1  0  0  0  0
  9 14  1  0  0  0  0
  9  8  2  0  0  0  0
 10  9  1  0  0  0  0
 11 12  1  0  0  0  0
 11 10  2  0  0  0  0
 12  7  2  0  0  0  0
 16 15  1  0  0  0  0
 17 18  1  0  0  0  0
 20 19  1  0  0  0  0
 22 21  1  0  0  0  0
M  END
>  <minimizedAffinity>
-5.33934784

$$$$

 OpenBabel03242518433D

 22 23  0  0  1  0  0  0  0  0999 V2000
   38.4130   28.6390   41.6700 C   0  0  1  0  0  3  0  0  0  0  0  0
   37.5010   27.4320   41.7480 C   0  0  1  0  0  3  0  0  0  0  0  0
   36.2280   27.6800   41.3380 O   0  0  0  0  0  0  0  0  0  0  0  0
   36.0090   28.7780   40.5540 C   0  0  0  0  0  2  0  0  0  0  0  0
   36.5760   30.0650   41.0400 C   0  0  2  0  0  3  0  0  0  0  0  0
   37.5750   29.8080   42.1530 C   0  0  1  0  0  3  0  0  0  0  0  0
   38.4020   23.9530   40.9330 C   0  0  0  0  0  0  0  0  0  0  0  0
   39.3900   24.1180   39.9210 C   0  0  0  0  0  0  0  0  0  0  0  0
   39.7200   25.4270   39.5470 C   0  0  0  0  0  0  0  0  0  0  0  0
   39.0820   26.4620   40.1660 N   0  0  0  0  0  0  0  0  0  0  0  0
   38.1540   26.2540   41.1190 C   0  0  0  0  0  0  0  0  0  0  0  0
   37.8110   25.0090   41.5040 N   0  0  0  0  0  0  0  0  0  0  0  0
   39.8680   23.2890   39.4570 H   0  0  0  0  0  0  0  0  0  0  0  0
   40.4460   25.6470   38.7990 H   0  0  0  0  0  0  0  0  0  0  0  0
   38.0940   22.6720   41.2840 O   0  0  0  0  0  0  0  0  0  0  0  0
   37.2220   22.2060   41.0790 H   0  0  0  0  0  0  0  0  0  0  0  0
   39.5480   28.4940   42.4350 O   0  0  0  0  0  0  0  0  0  0  0  0
   40.3340   28.4560   41.8360 H   0  0  0  0  0  0  0  0  0  0  0  0
   35.6130   30.9800   41.4650 O   0  0  0  0  0  0  0  0  0  0  0  0
   36.1230   31.8070   41.6780 H   0  0  0  0  0  0  0  0  0  0  0  0
   36.8700   29.3670   43.2830 O   0  0  0  0  0  0  0  0  0  0  0  0
   36.0530   29.9160   43.3810 H   0  0  0  0  0  0  0  0  0  0  0  0
  1  2  1  0  0  0  0
  1  6  1  0  0  0  0
  1 17  1  1  0  0  0
  2 11  1  6  0  0  0
  3  2  1  0  0  0  0
  4  5  1  0  0  0  0
  4  3  1  0  0  0  0
  5 19  1  1  0  0  0
  5  6  1  0  0  0  0
  6 21  1  1  0  0  0
  7 15  1  0  0  0  0
  7 12  1  0  0  0  0
  8  7  2  0  0  0  0
  9  8  1  0  0  0  0
  9 10  2  0  0  0  0
 10 11  1  0  0  0  0
 11 12  2  0  0  0  0
 13  8  1  0  0  0  0
 14  9  1  0  0  0  0
 16 15  1  0  0  0  0
 18 17  1  0  0  0  0
 19 20  1  0  0  0  0
 21 22  1  0  0  0  0
M  END
>  <minimizedAffinity>
-5.19878244

$$$$

 OpenBabel03242518433D

 22 23  0  0  1  0  0  0  0  0999 V2000
   36.9630   29.3860   41.5000 C   0  0  1  0  0  3  0  0  0  0  0  0
   38.2320   29.8910   40.8470 C   0  0  1  0  0  3  0  0  0  0  0  0
   39.3050   29.0750   41.0300 O   0  0  0  0  0  0  0  0  0  0  0  0
   39.0700   27.7760   41.3850 C   0  0  0  0  0  2  0  0  0  0  0  0
   38.1470   27.5580   42.5310 C   0  0  2  0  0  3  0  0  0  0  0  0
   37.3940   28.8380   42.8480 C   0  0  1  0  0  3  0  0  0  0  0  0
   38.5530   31.4690   37.5320 C   0  0  0  0  0  0  0  0  0  0  0  0
   37.4180   30.9620   36.8370 C   0  0  0  0  0  0  0  0  0  0  0  0
   36.5710   30.0890   37.5310 C   0  0  0  0  0  0  0  0  0  0  0  0
   36.8780   29.7750   38.8230 N   0  0  0  0  0  0  0  0  0  0  0  0
   37.9630   30.2800   39.4380 C   0  0  0  0  0  0  0  0  0  0  0  0
   38.8000   31.1220   38.8010 N   0  0  0  0  0  0  0  0  0  0  0  0
   37.2080   31.2280   35.8280 H   0  0  0  0  0  0  0  0  0  0  0  0
   35.7000   29.6610   37.0930 H   0  0  0  0  0  0  0  0  0  0  0  0
   39.3660   32.3170   36.8400 O   0  0  0  0  0  0  0  0  0  0  0  0
   40.3010   32.1000   36.5250 H   0  0  0  0  0  0  0  0  0  0  0  0
   36.0160   30.3740   41.6490 O   0  0  0  0  0  0  0  0  0  0  0  0
   35.2390   30.1600   41.0750 H   0  0  0  0  0  0  0  0  0  0  0  0
   38.7760   27.0780   43.6790 O   0  0  0  0  0  0  0  0  0  0  0  0
   38.0380   26.9030   44.3220 H   0  0  0  0  0  0  0  0  0  0  0  0
   38.3040   29.7580   43.3910 O   0  0  0  0  0  0  0  0  0  0  0  0
   38.8920   29.2820   44.0290 H   0  0  0  0  0  0  0  0  0  0  0  0
  1 17  1  1  0  0  0
  1  6  1  0  0  0  0
  2 11  1  6  0  0  0
  2  3  1  0  0  0  0
  2  1  1  0  0  0  0
  3  4  1  0  0  0  0
  4  5  1  0  0  0  0
  5  6  1  0  0  0  0
  5 19  1  1  0  0  0
  6 21  1  6  0  0  0
  7 12  1  0  0  0  0
  8  9  1  0  0  0  0
  8  7  2  0  0  0  0
  9 10  2  0  0  0  0
 10 11  1  0  0  0  0
 12 11  2  0  0  0  0
 13  8  1  0  0  0  0
 14  9  1  0  0  0  0
 15  7  1  0  0  0  0
 16 15  1  0  0  0  0
 18 17  1  0  0  0  0
 19 20  1  0  0  0  0
 21 22  1  0  0  0  0
M  END
>  <minimizedAffinity>
-5.19263268

$$$$

 OpenBabel03242518433D

 22 23  0  0  1  0  0  0  0  0999 V2000
   37.6990   30.6440   40.5920 C   0  0  1  0  0  3  0  0  0  0  0  0
   37.8730   30.2310   42.0380 C   0  0  1  0  0  3  0  0  0  0  0  0
   37.0450   29.2220   42.4230 O   0  0  0  0  0  0  0  0  0  0  0  0
   36.4830   28.4460   41.4480 C   0  0  0  0  0  2  0  0  0  0  0  0
   35.8150   29.1640   40.3290 C   0  0  2  0  0  3  0  0  0  0  0  0
   36.2010   30.6320   40.3470 C   0  0  1  0  0  3  0  0  0  0  0  0
   41.3980   30.8830   42.8940 C   0  0  0  0  0  0  0  0  0  0  0  0
   41.9620   29.5760   42.8980 C   0  0  0  0  0  0  0  0  0  0  0  0
   41.1110   28.5030   42.6050 C   0  0  0  0  0  0  0  0  0  0  0  0
   39.7990   28.7670   42.3340 N   0  0  0  0  0  0  0  0  0  0  0  0
   39.3120   30.0220   42.3420 C   0  0  0  0  0  0  0  0  0  0  0  0
   40.1020   31.0780   42.6210 N   0  0  0  0  0  0  0  0  0  0  0  0
   42.9900   29.4050   43.1140 H   0  0  0  0  0  0  0  0  0  0  0  0
   41.4440   27.4910   42.5850 H   0  0  0  0  0  0  0  0  0  0  0  0
   42.2410   31.9150   43.1820 O   0  0  0  0  0  0  0  0  0  0  0  0
   42.2180   32.4670   44.0270 H   0  0  0  0  0  0  0  0  0  0  0  0
   38.2330   31.8850   40.3290 O   0  0  0  0  0  0  0  0  0  0  0  0
   38.9970   31.7800   39.7100 H   0  0  0  0  0  0  0  0  0  0  0  0
   34.4270   29.0360   40.3260 O   0  0  0  0  0  0  0  0  0  0  0  0
   34.1310   29.4880   39.4910 H   0  0  0  0  0  0  0  0  0  0  0  0
   35.5990   31.2300   41.4650 O   0  0  0  0  0  0  0  0  0  0  0  0
   34.6720   30.8950   41.5420 H   0  0  0  0  0  0  0  0  0  0  0  0
  1 17  1  1  0  0  0
  1  2  1  0  0  0  0
  2 11  1  6  0  0  0
  2  3  1  0  0  0  0
  4  3  1  0  0  0  0
  5 19  1  1  0  0  0
  5  6  1  0  0  0  0
  5  4  1  0  0  0  0
  6  1  1  0  0  0  0
  6 21  1  1  0  0  0
  7  8  1  0  0  0  0
  7 15  1  0  0  0  0
  8 13  1  0  0  0  0
  9  8  2  0  0  0  0
 10 11  2  0  0  0  0
 10  9  1  0  0  0  0
 11 12  1  0  0  0  0
 12  7  2  0  0  0  0
 14  9  1  0  0  0  0
 15 16  1  0  0  0  0
 18 17  1  0  0  0  0
 20 19  1  0  0  0  0
 21 22  1  0  0  0  0
M  END
>  <minimizedAffinity>
-5.13686943

$$$$
