
 OpenBabel03242517313D

 50 53  0  0  1  0  0  0  0  0999 V2000
   45.5370   30.0610   47.1410 C   0  0  0  0  0  0  0  0  0  0  0  0
   45.0130   30.0730   46.1630 H   0  0  0  0  0  0  0  0  0  0  0  0
   46.5910   29.7550   47.0950 H   0  0  0  0  0  0  0  0  0  0  0  0
   45.0130   34.6970   44.9660 C   0  0  0  0  0  0  0  0  0  0  0  0
   45.8880   34.5630   43.8530 C   0  0  0  0  0  0  0  0  0  0  0  0
   46.9460   33.6660   43.9460 C   0  0  0  0  0  0  0  0  0  0  0  0
   47.0740   32.9700   45.1020 N   0  0  0  0  0  0  0  0  0  0  0  0
   46.2590   33.0900   46.1440 C   0  0  0  0  0  0  0  0  0  0  0  0
   45.2540   33.9530   46.0360 N   0  0  0  0  0  0  0  0  0  0  0  0
   46.4730   32.3310   47.2890 N   0  0  0  0  0  0  0  0  0  0  0  0
   47.7260   32.4210   48.0060 C   0  0  0  0  0  0  0  0  0  0  0  0
   47.9660   31.2810   48.9450 C   0  0  0  0  0  0  0  0  0  0  0  0
   46.8180   30.7060   49.5610 N   0  0  0  0  0  0  0  0  0  0  0  0
   45.5990   31.4120   49.2440 C   0  0  0  0  0  0  0  0  0  0  0  0
   45.4030   31.4290   47.7660 C   0  0  2  0  0  0  0  0  0  0  0  0
   44.1870   35.4010   44.8880 H   0  0  0  0  0  0  0  0  0  0  0  0
   45.7560   35.1360   42.9430 H   0  0  0  0  0  0  0  0  0  0  0  0
   47.6480   33.5170   43.1350 H   0  0  0  0  0  0  0  0  0  0  0  0
   47.7850   33.3640   48.5950 H   0  0  0  0  0  0  0  0  0  0  0  0
   48.5330   32.4370   47.2330 H   0  0  0  0  0  0  0  0  0  0  0  0
   48.7240   31.6270   49.7020 H   0  0  0  0  0  0  0  0  0  0  0  0
   48.4780   30.4780   48.3740 H   0  0  0  0  0  0  0  0  0  0  0  0
   46.9540   30.6680   50.5830 H   0  0  0  0  0  0  0  0  0  0  0  0
   44.7860   31.0320   49.8510 H   0  0  0  0  0  0  0  0  0  0  0  0
   45.7340   32.4830   49.5750 H   0  0  0  0  0  0  0  0  0  0  0  0
   44.4100   31.8440   47.5180 H   0  0  0  0  0  0  0  0  0  0  0  0
   44.8090   29.1170   48.0680 C   0  0  0  0  0  3  0  0  0  0  0  0
   45.0410   27.8050   48.0010 C   0  0  0  0  0  3  0  0  0  0  0  0
   44.3830   26.7860   48.8540 C   0  0  0  0  0  0  0  0  0  0  0  0
   43.6360   27.3050   49.4820 H   0  0  0  0  0  0  0  0  0  0  0  0
   45.1070   26.2580   49.5100 H   0  0  0  0  0  0  0  0  0  0  0  0
   43.6300   25.8140   47.9620 C   0  0  2  0  0  0  0  0  0  0  0  0
   44.4140   24.7250   47.2990 C   0  0  0  0  0  0  0  0  0  0  0  0
   43.8160   25.8620   46.5050 C   0  0  1  0  0  0  0  0  0  0  0  0
   42.5750   25.5740   48.2820 H   0  0  0  0  0  0  0  0  0  0  0  0
   45.5010   24.7300   47.5100 H   0  0  0  0  0  0  0  0  0  0  0  0
   43.9700   23.7250   47.3000 H   0  0  0  0  0  0  0  0  0  0  0  0
   44.5680   26.5770   46.1240 H   0  0  0  0  0  0  0  0  0  0  0  0
   42.6620   26.6720   44.4600 C   0  0  1  0  0  3  0  0  0  0  0  0
   42.7080   25.6120   45.5400 C   0  0  2  0  0  3  0  0  0  0  0  0
   41.4430   25.6100   46.1110 O   0  0  0  0  0  0  0  0  0  0  0  0
   40.6160   24.9350   45.2270 C   0  0  0  0  0  2  0  0  0  0  0  0
   40.5870   25.4650   43.8390 C   0  0  1  0  0  3  0  0  0  0  0  0
   41.8730   26.0470   43.3320 C   0  0  2  0  0  3  0  0  0  0  0  0
   41.9580   27.7470   44.9840 O   0  0  0  0  0  0  0  0  0  0  0  0
   41.0280   27.4290   45.1230 H   0  0  0  0  0  0  0  0  0  0  0  0
   40.2890   24.3910   42.9820 O   0  0  0  0  0  0  0  0  0  0  0  0
   39.3770   24.4220   42.6210 H   0  0  0  0  0  0  0  0  0  0  0  0
   42.7000   25.0920   42.7510 O   0  0  0  0  0  0  0  0  0  0  0  0
   43.6100   25.0690   43.1360 H   0  0  0  0  0  0  0  0  0  0  0  0
  1 15  1  0  0  0  0
  1 27  1  0  0  0  0
  2  1  1  0  0  0  0
  3  1  1  0  0  0  0
  4  9  1  0  0  0  0
  5  6  1  0  0  0  0
  5  4  2  0  0  0  0
  6  7  2  0  0  0  0
  7  8  1  0  0  0  0
  8 10  1  0  0  0  0
  9  8  2  0  0  0  0
 10 15  1  0  0  0  0
 10 11  1  0  0  0  0
 11 19  1  0  0  0  0
 11 12  1  0  0  0  0
 12 13  1  0  0  0  0
 12 21  1  0  0  0  0
 13 23  1  0  0  0  0
 14 13  1  0  0  0  0
 14 25  1  0  0  0  0
 14 24  1  0  0  0  0
 15 26  1  6  0  0  0
 15 14  1  0  0  0  0
 16  4  1  0  0  0  0
 17  5  1  0  0  0  0
 18  6  1  0  0  0  0
 20 11  1  0  0  0  0
 22 12  1  0  0  0  0
 28 27  2  0  0  0  0
 28 29  1  0  0  0  0
 29 30  1  0  0  0  0
 29 31  1  0  0  0  0
 32 35  1  1  0  0  0
 32 29  1  0  0  0  0
 33 37  1  0  0  0  0
 33 36  1  0  0  0  0
 33 32  1  0  0  0  0
 34 38  1  6  0  0  0
 34 33  1  0  0  0  0
 34 32  1  0  0  0  0
 39 45  1  1  0  0  0
 39 40  1  0  0  0  0
 40 41  1  1  0  0  0
 40 34  1  0  0  0  0
 42 41  1  0  0  0  0
 43 47  1  6  0  0  0
 43 42  1  0  0  0  0
 44 49  1  1  0  0  0
 44 43  1  0  0  0  0
 44 39  1  0  0  0  0
 45 46  1  0  0  0  0
 48 47  1  0  0  0  0
 49 50  1  0  0  0  0
M  END
>  <minimizedAffinity>
-5.82826757

>  <minimizedRMSD>
1.56671202

$$$$
