
 OpenBabel03252503413D

 24 25  0  0  1  0  0  0  0  0999 V2000
   45.6230   32.9520   42.7270 C   0  0  0  0  0  0  0  0  0  0  0  0
   45.0220   33.7940   41.8050 C   0  0  0  0  0  0  0  0  0  0  0  0
   45.7020   34.0830   40.6300 C   0  0  0  0  0  0  0  0  0  0  0  0
   46.9170   33.5310   40.4370 N   0  0  0  0  0  0  0  0  0  0  0  0
   47.4880   32.7080   41.3530 C   0  0  0  0  0  0  0  0  0  0  0  0
   46.8510   32.4050   42.5110 N   0  0  0  0  0  0  0  0  0  0  0  0
   45.1270   32.7010   43.6570 H   0  0  0  0  0  0  0  0  0  0  0  0
   45.2100   34.7430   39.9290 H   0  0  0  0  0  0  0  0  0  0  0  0
   49.0120   31.7450   39.6200 C   0  0  2  0  0  3  0  0  0  0  0  0
   48.8090   32.1370   41.0890 C   0  0  1  0  0  3  0  0  0  0  0  0
   49.8600   33.0280   41.3370 O   0  0  0  0  0  0  0  0  0  0  0  0
   50.9810   32.2490   41.5530 C   0  0  0  0  0  2  0  0  0  0  0  0
   51.3430   31.3240   40.4330 C   0  0  1  0  0  3  0  0  0  0  0  0
   50.1900   30.7730   39.6580 C   0  0  1  0  0  3  0  0  0  0  0  0
   49.3800   32.9010   38.9100 O   0  0  0  0  0  0  0  0  0  0  0  0
   48.7350   33.0750   38.1780 H   0  0  0  0  0  0  0  0  0  0  0  0
   52.1910   31.9960   39.5550 O   0  0  0  0  0  0  0  0  0  0  0  0
   53.0310   32.2130   40.0300 H   0  0  0  0  0  0  0  0  0  0  0  0
   49.7300   29.6290   40.3160 O   0  0  0  0  0  0  0  0  0  0  0  0
   50.3090   29.3660   41.0570 H   0  0  0  0  0  0  0  0  0  0  0  0
   43.6800   34.3200   42.1690 C   0  0  0  0  0  0  0  0  0  0  0  0
   42.9360   33.5700   41.8350 H   0  0  0  0  0  0  0  0  0  0  0  0
   43.5560   35.2740   41.5920 H   0  0  0  0  0  0  0  0  0  0  0  0
   43.6660   34.5240   43.2380 H   0  0  0  0  0  0  0  0  0  0  0  0
  1  7  1  0  0  0  0
  2 21  1  0  0  0  0
  2  1  2  0  0  0  0
  3  2  1  0  0  0  0
  4  3  2  0  0  0  0
  4  5  1  0  0  0  0
  5  6  2  0  0  0  0
  6  1  1  0  0  0  0
  8  3  1  0  0  0  0
  9 15  1  6  0  0  0
  9 14  1  0  0  0  0
  9 10  1  0  0  0  0
 10 11  1  0  0  0  0
 10  5  1  6  0  0  0
 11 12  1  0  0  0  0
 13 17  1  6  0  0  0
 13 12  1  0  0  0  0
 14 19  1  1  0  0  0
 14 13  1  0  0  0  0
 16 15  1  0  0  0  0
 17 18  1  0  0  0  0
 19 20  1  0  0  0  0
 21 24  1  0  0  0  0
 22 21  1  0  0  0  0
 23 21  1  0  0  0  0
M  END
>  <minimizedAffinity>
-3.41317725

>  <minimizedRMSD>
7.34380436

$$$$
