
 OpenBabel03242520383D

 38 41  0  0  1  0  0  0  0  0999 V2000
   37.3240   26.8010   40.0310 C   0  0  0  0  0  0  0  0  0  0  0  0
   37.0120   27.0100   41.4240 C   0  0  0  0  0  0  0  0  0  0  0  0
   36.3910   28.1850   41.7560 C   0  0  0  0  0  0  0  0  0  0  0  0
   36.1030   29.0840   40.7830 N   0  0  0  0  0  0  0  0  0  0  0  0
   36.4080   28.8600   39.4820 C   0  0  0  0  0  0  0  0  0  0  0  0
   37.0170   27.7150   39.1260 N   0  0  0  0  0  0  0  0  0  0  0  0
   37.8120   25.8870   39.7250 H   0  0  0  0  0  0  0  0  0  0  0  0
   36.1360   28.3890   42.7950 H   0  0  0  0  0  0  0  0  0  0  0  0
   37.3630   26.0030   42.4530 C   0  0  1  0  0  0  0  0  0  0  0  0
   38.4530   25.0930   42.2840 C   0  0  0  0  0  0  0  0  0  0  0  0
   38.6820   26.2030   43.2260 C   0  0  1  0  0  0  0  0  0  0  0  0
   36.5040   25.8380   43.1630 H   0  0  0  0  0  0  0  0  0  0  0  0
   38.9840   25.0290   41.3140 H   0  0  0  0  0  0  0  0  0  0  0  0
   38.3270   24.0570   42.7220 H   0  0  0  0  0  0  0  0  0  0  0  0
   38.6620   25.9310   44.3150 H   0  0  0  0  0  0  0  0  0  0  0  0
   39.5570   27.3620   42.9320 C   0  0  0  0  0  0  0  0  0  0  0  0
   38.9720   28.5590   43.3080 F   0  0  0  0  0  0  0  0  0  0  0  0
   39.8850   27.4240   41.5750 F   0  0  0  0  0  0  0  0  0  0  0  0
   40.6980   27.2180   43.6790 F   0  0  0  0  0  0  0  0  0  0  0  0
   36.0450   29.9100   38.4820 C   0  0  2  0  0  0  0  0  0  0  0  0
   36.9520   29.9080   37.2630 C   0  0  0  0  0  0  0  0  0  0  0  0
   36.9730   31.0480   38.2260 C   0  0  2  0  0  0  0  0  0  0  0  0
   34.9630   30.1090   38.3760 H   0  0  0  0  0  0  0  0  0  0  0  0
   36.4390   30.0510   36.2900 H   0  0  0  0  0  0  0  0  0  0  0  0
   37.7840   29.1860   37.2130 H   0  0  0  0  0  0  0  0  0  0  0  0
   36.5120   31.9830   37.8540 H   0  0  0  0  0  0  0  0  0  0  0  0
   39.2200   32.1120   38.5870 C   0  0  1  0  0  3  0  0  0  0  0  0
   38.0840   31.2870   39.1900 C   0  0  1  0  0  3  0  0  0  0  0  0
   37.5290   32.0660   40.2330 O   0  0  0  0  0  0  0  0  0  0  0  0
   37.4020   33.4150   39.8410 C   0  0  0  0  0  2  0  0  0  0  0  0
   38.7710   34.0490   40.1180 C   0  0  2  0  0  3  0  0  0  0  0  0
   39.7810   32.9870   39.7140 C   0  0  1  0  0  3  0  0  0  0  0  0
   40.2830   31.3050   38.1930 O   0  0  0  0  0  0  0  0  0  0  0  0
   40.0580   30.3310   38.2790 H   0  0  0  0  0  0  0  0  0  0  0  0
   38.8130   34.3480   41.4690 O   0  0  0  0  0  0  0  0  0  0  0  0
   37.9080   34.5930   41.8250 H   0  0  0  0  0  0  0  0  0  0  0  0
   40.1320   32.1790   40.7880 O   0  0  0  0  0  0  0  0  0  0  0  0
   39.5850   32.3760   41.6000 H   0  0  0  0  0  0  0  0  0  0  0  0
  1  2  1  0  0  0  0
  2  3  2  0  0  0  0
  2  9  1  0  0  0  0
  3  8  1  0  0  0  0
  4  3  1  0  0  0  0
  5  4  2  0  0  0  0
  6  5  1  0  0  0  0
  6  1  2  0  0  0  0
  7  1  1  0  0  0  0
  9 12  1  1  0  0  0
  9 11  1  0  0  0  0
 10  9  1  0  0  0  0
 10 14  1  0  0  0  0
 10 11  1  0  0  0  0
 11 15  1  1  0  0  0
 13 10  1  0  0  0  0
 16 11  1  0  0  0  0
 16 17  1  0  0  0  0
 16 19  1  0  0  0  0
 18 16  1  0  0  0  0
 20 23  1  6  0  0  0
 20  5  1  0  0  0  0
 21 22  1  0  0  0  0
 21 20  1  0  0  0  0
 22 26  1  6  0  0  0
 22 20  1  0  0  0  0
 22 28  1  0  0  0  0
 24 21  1  0  0  0  0
 25 21  1  0  0  0  0
 27 33  1  1  0  0  0
 27 28  1  0  0  0  0
 27 32  1  0  0  0  0
 28 29  1  1  0  0  0
 30 31  1  0  0  0  0
 30 29  1  0  0  0  0
 31 35  1  1  0  0  0
 32 31  1  0  0  0  0
 32 37  1  1  0  0  0
 33 34  1  0  0  0  0
 35 36  1  0  0  0  0
 37 38  1  0  0  0  0
M  END
>  <minimizedAffinity>
-6.23248148

$$$$

 OpenBabel03242520383D

 38 41  0  0  1  0  0  0  0  0999 V2000
   38.0050   29.6400   39.5620 C   0  0  0  0  0  0  0  0  0  0  0  0
   37.3960   30.9170   39.8470 C   0  0  0  0  0  0  0  0  0  0  0  0
   36.5310   30.9760   40.9070 C   0  0  0  0  0  0  0  0  0  0  0  0
   36.2860   29.8560   41.6290 N   0  0  0  0  0  0  0  0  0  0  0  0
   36.8720   28.6680   41.3380 C   0  0  0  0  0  0  0  0  0  0  0  0
   37.7260   28.5810   40.3040 N   0  0  0  0  0  0  0  0  0  0  0  0
   38.6940   29.5510   38.7370 H   0  0  0  0  0  0  0  0  0  0  0  0
   36.0470   31.9180   41.1610 H   0  0  0  0  0  0  0  0  0  0  0  0
   37.6850   32.1120   39.0170 C   0  0  1  0  0  0  0  0  0  0  0  0
   37.5370   33.4410   39.5230 C   0  0  0  0  0  0  0  0  0  0  0  0
   38.9210   32.9550   39.3860 C   0  0  1  0  0  0  0  0  0  0  0  0
   37.6920   31.8470   37.9220 H   0  0  0  0  0  0  0  0  0  0  0  0
   37.0720   33.6150   40.5140 H   0  0  0  0  0  0  0  0  0  0  0  0
   37.1880   34.2320   38.7910 H   0  0  0  0  0  0  0  0  0  0  0  0
   39.5050   33.3790   38.5260 H   0  0  0  0  0  0  0  0  0  0  0  0
   39.7750   32.5730   40.5360 C   0  0  0  0  0  0  0  0  0  0  0  0
   40.4050   31.3580   40.3300 F   0  0  0  0  0  0  0  0  0  0  0  0
   39.0380   32.5080   41.7210 F   0  0  0  0  0  0  0  0  0  0  0  0
   40.7590   33.5220   40.6520 F   0  0  0  0  0  0  0  0  0  0  0  0
   36.5420   27.4900   42.1960 C   0  0  2  0  0  0  0  0  0  0  0  0
   36.9930   27.6600   43.6370 C   0  0  0  0  0  0  0  0  0  0  0  0
   37.6370   26.6450   42.7520 C   0  0  2  0  0  0  0  0  0  0  0  0
   35.5870   26.9870   41.9630 H   0  0  0  0  0  0  0  0  0  0  0  0
   36.2730   27.3090   44.4040 H   0  0  0  0  0  0  0  0  0  0  0  0
   37.5240   28.5820   43.9290 H   0  0  0  0  0  0  0  0  0  0  0  0
   37.3760   25.5930   42.9810 H   0  0  0  0  0  0  0  0  0  0  0  0
   39.9250   27.6270   43.0860 C   0  0  1  0  0  3  0  0  0  0  0  0
   39.0070   26.7970   42.1880 C   0  0  1  0  0  3  0  0  0  0  0  0
   39.5550   25.4940   42.1460 O   0  0  0  0  0  0  0  0  0  0  0  0
   39.9840   25.0860   43.4250 C   0  0  0  0  0  2  0  0  0  0  0  0
   41.3990   25.6570   43.5800 C   0  0  2  0  0  3  0  0  0  0  0  0
   41.3340   27.0370   42.9460 C   0  0  1  0  0  3  0  0  0  0  0  0
   40.0350   28.9370   42.6320 O   0  0  0  0  0  0  0  0  0  0  0  0
   39.4090   29.1170   41.8680 H   0  0  0  0  0  0  0  0  0  0  0  0
   42.2580   24.7980   42.9160 O   0  0  0  0  0  0  0  0  0  0  0  0
   41.9410   23.8470   42.9570 H   0  0  0  0  0  0  0  0  0  0  0  0
   41.6820   27.0010   41.6030 O   0  0  0  0  0  0  0  0  0  0  0  0
   41.8140   26.0670   41.2740 H   0  0  0  0  0  0  0  0  0  0  0  0
  1  2  2  0  0  0  0
  1  6  1  0  0  0  0
  2  3  1  0  0  0  0
  3  8  1  0  0  0  0
  3  4  2  0  0  0  0
  5  4  1  0  0  0  0
  5 20  1  0  0  0  0
  6  5  2  0  0  0  0
  7  1  1  0  0  0  0
  9 12  1  6  0  0  0
  9 11  1  0  0  0  0
  9 10  1  0  0  0  0
  9  2  1  0  0  0  0
 10 13  1  0  0  0  0
 11 15  1  6  0  0  0
 11 10  1  0  0  0  0
 11 16  1  0  0  0  0
 14 10  1  0  0  0  0
 16 19  1  0  0  0  0
 16 18  1  0  0  0  0
 17 16  1  0  0  0  0
 20 23  1  6  0  0  0
 20 22  1  0  0  0  0
 20 21  1  0  0  0  0
 21 25  1  0  0  0  0
 21 24  1  0  0  0  0
 22 26  1  1  0  0  0
 22 21  1  0  0  0  0
 27 33  1  6  0  0  0
 28 29  1  1  0  0  0
 28 22  1  0  0  0  0
 28 27  1  0  0  0  0
 29 30  1  0  0  0  0
 30 31  1  0  0  0  0
 31 35  1  6  0  0  0
 32 37  1  6  0  0  0
 32 27  1  0  0  0  0
 32 31  1  0  0  0  0
 34 33  1  0  0  0  0
 35 36  1  0  0  0  0
 38 37  1  0  0  0  0
M  END
>  <minimizedAffinity>
-6.20151663

$$$$

 OpenBabel03242520383D

 38 41  0  0  1  0  0  0  0  0999 V2000
   38.9440   26.1870   40.0680 C   0  0  0  0  0  0  0  0  0  0  0  0
   38.7170   24.8960   40.6700 C   0  0  0  0  0  0  0  0  0  0  0  0
   38.6170   24.8500   42.0350 C   0  0  0  0  0  0  0  0  0  0  0  0
   38.7350   25.9970   42.7490 N   0  0  0  0  0  0  0  0  0  0  0  0
   38.9490   27.1970   42.1560 C   0  0  0  0  0  0  0  0  0  0  0  0
   39.0490   27.2720   40.8180 N   0  0  0  0  0  0  0  0  0  0  0  0
   39.0260   26.2670   38.9940 H   0  0  0  0  0  0  0  0  0  0  0  0
   38.4460   23.8990   42.5360 H   0  0  0  0  0  0  0  0  0  0  0  0
   38.6110   23.6680   39.8460 C   0  0  1  0  0  0  0  0  0  0  0  0
   38.0890   22.4440   40.3710 C   0  0  0  0  0  0  0  0  0  0  0  0
   37.1970   23.1860   39.4630 C   0  0  1  0  0  0  0  0  0  0  0  0
   39.2710   23.7360   38.9360 H   0  0  0  0  0  0  0  0  0  0  0  0
   37.8740   22.3460   41.4540 H   0  0  0  0  0  0  0  0  0  0  0  0
   38.5460   21.4840   39.9830 H   0  0  0  0  0  0  0  0  0  0  0  0
   37.0840   22.7570   38.4320 H   0  0  0  0  0  0  0  0  0  0  0  0
   36.0000   23.9330   39.9160 C   0  0  0  0  0  0  0  0  0  0  0  0
   36.0090   25.2430   39.4680 F   0  0  0  0  0  0  0  0  0  0  0  0
   35.8920   23.9300   41.3090 F   0  0  0  0  0  0  0  0  0  0  0  0
   34.9010   23.3250   39.3640 F   0  0  0  0  0  0  0  0  0  0  0  0
   39.0600   28.4050   43.0290 C   0  0  2  0  0  0  0  0  0  0  0  0
   37.7420   28.7890   43.6790 C   0  0  0  0  0  0  0  0  0  0  0  0
   38.3640   29.6660   42.6450 C   0  0  2  0  0  0  0  0  0  0  0  0
   40.0100   28.5030   43.5830 H   0  0  0  0  0  0  0  0  0  0  0  0
   37.8110   29.1000   44.7420 H   0  0  0  0  0  0  0  0  0  0  0  0
   36.8390   28.1960   43.4580 H   0  0  0  0  0  0  0  0  0  0  0  0
   38.8050   30.6070   43.0310 H   0  0  0  0  0  0  0  0  0  0  0  0
   36.5320   30.5780   41.1870 C   0  0  1  0  0  3  0  0  0  0  0  0
   37.8420   29.7940   41.2550 C   0  0  1  0  0  3  0  0  0  0  0  0
   38.8040   30.5540   40.5490 O   0  0  0  0  0  0  0  0  0  0  0  0
   38.6900   31.9240   40.8590 C   0  0  0  0  0  2  0  0  0  0  0  0
   37.6020   32.4630   39.9210 C   0  0  2  0  0  3  0  0  0  0  0  0
   36.5530   31.3640   39.8700 C   0  0  1  0  0  3  0  0  0  0  0  0
   35.4340   29.7300   41.0850 O   0  0  0  0  0  0  0  0  0  0  0  0
   35.7010   28.7680   41.1840 H   0  0  0  0  0  0  0  0  0  0  0  0
   38.2010   32.6950   38.6960 O   0  0  0  0  0  0  0  0  0  0  0  0
   39.1590   32.9750   38.7950 H   0  0  0  0  0  0  0  0  0  0  0  0
   36.7810   30.4860   38.8190 O   0  0  0  0  0  0  0  0  0  0  0  0
   37.6430   30.6770   38.3520 H   0  0  0  0  0  0  0  0  0  0  0  0
  1  2  2  0  0  0  0
  1  6  1  0  0  0  0
  2  3  1  0  0  0  0
  3  8  1  0  0  0  0
  3  4  2  0  0  0  0
  5  4  1  0  0  0  0
  5 20  1  0  0  0  0
  6  5  2  0  0  0  0
  7  1  1  0  0  0  0
  9 12  1  6  0  0  0
  9 10  1  0  0  0  0
  9  2  1  0  0  0  0
 10 13  1  0  0  0  0
 11 15  1  6  0  0  0
 11  9  1  0  0  0  0
 11 16  1  0  0  0  0
 11 10  1  0  0  0  0
 14 10  1  0  0  0  0
 16 18  1  0  0  0  0
 17 16  1  0  0  0  0
 19 16  1  0  0  0  0
 20 23  1  1  0  0  0
 20 21  1  0  0  0  0
 21 24  1  0  0  0  0
 22 20  1  0  0  0  0
 22 26  1  1  0  0  0
 22 21  1  0  0  0  0
 25 21  1  0  0  0  0
 27 33  1  6  0  0  0
 27 28  1  0  0  0  0
 28 29  1  6  0  0  0
 28 22  1  0  0  0  0
 29 30  1  0  0  0  0
 31 35  1  6  0  0  0
 31 30  1  0  0  0  0
 32 37  1  6  0  0  0
 32 31  1  0  0  0  0
 32 27  1  0  0  0  0
 33 34  1  0  0  0  0
 35 36  1  0  0  0  0
 38 37  1  0  0  0  0
M  END
>  <minimizedAffinity>
-6.17996502

$$$$

 OpenBabel03242520383D

 38 41  0  0  1  0  0  0  0  0999 V2000
   39.1470   29.4690   40.5540 C   0  0  0  0  0  0  0  0  0  0  0  0
   38.4640   29.6290   41.8150 C   0  0  0  0  0  0  0  0  0  0  0  0
   39.2160   30.0280   42.8880 C   0  0  0  0  0  0  0  0  0  0  0  0
   40.5420   30.2510   42.7240 N   0  0  0  0  0  0  0  0  0  0  0  0
   41.1580   30.0930   41.5270 C   0  0  0  0  0  0  0  0  0  0  0  0
   40.4450   29.7020   40.4560 N   0  0  0  0  0  0  0  0  0  0  0  0
   38.5910   29.1570   39.6820 H   0  0  0  0  0  0  0  0  0  0  0  0
   38.7450   30.1620   43.8600 H   0  0  0  0  0  0  0  0  0  0  0  0
   37.0120   29.3570   41.9460 C   0  0  1  0  0  0  0  0  0  0  0  0
   36.2970   28.5710   40.9890 C   0  0  0  0  0  0  0  0  0  0  0  0
   36.5850   27.9130   42.2760 C   0  0  1  0  0  0  0  0  0  0  0  0
   36.5290   30.0900   42.6520 H   0  0  0  0  0  0  0  0  0  0  0  0
   36.7870   28.2540   40.0480 H   0  0  0  0  0  0  0  0  0  0  0  0
   35.2240   28.8660   40.7840 H   0  0  0  0  0  0  0  0  0  0  0  0
   35.7120   27.8030   42.9740 H   0  0  0  0  0  0  0  0  0  0  0  0
   37.6010   26.8480   42.4460 C   0  0  0  0  0  0  0  0  0  0  0  0
   37.0210   25.6080   42.6490 F   0  0  0  0  0  0  0  0  0  0  0  0
   38.4620   27.1270   43.5100 F   0  0  0  0  0  0  0  0  0  0  0  0
   38.3170   26.7710   41.2780 F   0  0  0  0  0  0  0  0  0  0  0  0
   42.6250   30.3680   41.4460 C   0  0  2  0  0  0  0  0  0  0  0  0
   42.9870   31.7820   41.8670 C   0  0  0  0  0  0  0  0  0  0  0  0
   43.1440   31.3470   40.4480 C   0  0  2  0  0  0  0  0  0  0  0  0
   43.2810   29.5190   41.7060 H   0  0  0  0  0  0  0  0  0  0  0  0
   43.8980   31.8710   42.4930 H   0  0  0  0  0  0  0  0  0  0  0  0
   42.1840   32.4770   42.1660 H   0  0  0  0  0  0  0  0  0  0  0  0
   44.1910   31.2000   40.1160 H   0  0  0  0  0  0  0  0  0  0  0  0
   41.5110   33.0920   39.6720 C   0  0  1  0  0  3  0  0  0  0  0  0
   42.2390   31.7870   39.3490 C   0  0  1  0  0  3  0  0  0  0  0  0
   43.0780   32.0570   38.2420 O   0  0  0  0  0  0  0  0  0  0  0  0
   43.7220   33.3030   38.3900 C   0  0  0  0  0  2  0  0  0  0  0  0
   42.7230   34.3410   37.8640 C   0  0  2  0  0  3  0  0  0  0  0  0
   41.3660   33.8580   38.3520 C   0  0  1  0  0  3  0  0  0  0  0  0
   40.2080   32.8570   40.0990 O   0  0  0  0  0  0  0  0  0  0  0  0
   40.0290   31.8760   40.2160 H   0  0  0  0  0  0  0  0  0  0  0  0
   42.8310   34.3440   36.4840 O   0  0  0  0  0  0  0  0  0  0  0  0
   43.7650   34.1410   36.1820 H   0  0  0  0  0  0  0  0  0  0  0  0
   40.7460   33.0420   37.4160 O   0  0  0  0  0  0  0  0  0  0  0  0
   41.3430   32.8390   36.6410 H   0  0  0  0  0  0  0  0  0  0  0  0
  1  2  1  0  0  0  0
  2  9  1  0  0  0  0
  2  3  2  0  0  0  0
  3  8  1  0  0  0  0
  4  3  1  0  0  0  0
  5  4  2  0  0  0  0
  6  1  2  0  0  0  0
  6  5  1  0  0  0  0
  7  1  1  0  0  0  0
  9 11  1  0  0  0  0
  9 12  1  1  0  0  0
 10  9  1  0  0  0  0
 10 11  1  0  0  0  0
 11 16  1  0  0  0  0
 11 15  1  1  0  0  0
 13 10  1  0  0  0  0
 14 10  1  0  0  0  0
 16 17  1  0  0  0  0
 16 18  1  0  0  0  0
 19 16  1  0  0  0  0
 20  5  1  0  0  0  0
 20 23  1  1  0  0  0
 20 21  1  0  0  0  0
 21 25  1  0  0  0  0
 21 24  1  0  0  0  0
 22 26  1  6  0  0  0
 22 20  1  0  0  0  0
 22 21  1  0  0  0  0
 27 33  1  6  0  0  0
 28 29  1  6  0  0  0
 28 27  1  0  0  0  0
 28 22  1  0  0  0  0
 29 30  1  0  0  0  0
 31 35  1  6  0  0  0
 31 32  1  0  0  0  0
 31 30  1  0  0  0  0
 32 37  1  6  0  0  0
 32 27  1  0  0  0  0
 33 34  1  0  0  0  0
 36 35  1  0  0  0  0
 38 37  1  0  0  0  0
M  END
>  <minimizedAffinity>
-5.93781567

$$$$

 OpenBabel03242520383D

 38 41  0  0  1  0  0  0  0  0999 V2000
   37.4660   27.4630   40.0760 C   0  0  0  0  0  0  0  0  0  0  0  0
   37.1090   27.2900   41.4630 C   0  0  0  0  0  0  0  0  0  0  0  0
   36.5480   28.3640   42.1040 C   0  0  0  0  0  0  0  0  0  0  0  0
   36.3570   29.5190   41.4230 N   0  0  0  0  0  0  0  0  0  0  0  0
   36.7030   29.6540   40.1190 C   0  0  0  0  0  0  0  0  0  0  0  0
   37.2540   28.6170   39.4640 N   0  0  0  0  0  0  0  0  0  0  0  0
   37.9080   26.6420   39.5330 H   0  0  0  0  0  0  0  0  0  0  0  0
   36.2630   28.2820   43.1510 H   0  0  0  0  0  0  0  0  0  0  0  0
   37.3530   26.0100   42.1690 C   0  0  1  0  0  0  0  0  0  0  0  0
   38.3280   25.0670   41.7150 C   0  0  0  0  0  0  0  0  0  0  0  0
   38.6960   25.8490   42.9090 C   0  0  1  0  0  0  0  0  0  0  0  0
   36.4900   25.7530   42.8450 H   0  0  0  0  0  0  0  0  0  0  0  0
   38.8350   25.2110   40.7410 H   0  0  0  0  0  0  0  0  0  0  0  0
   38.0880   23.9710   41.8650 H   0  0  0  0  0  0  0  0  0  0  0  0
   38.6590   25.2950   43.8850 H   0  0  0  0  0  0  0  0  0  0  0  0
   39.6960   26.9420   42.8980 C   0  0  0  0  0  0  0  0  0  0  0  0
   39.1950   28.1060   43.4540 F   0  0  0  0  0  0  0  0  0  0  0  0
   40.1440   27.2130   41.6030 F   0  0  0  0  0  0  0  0  0  0  0  0
   40.7510   26.5440   43.6800 F   0  0  0  0  0  0  0  0  0  0  0  0
   36.4470   30.9670   39.4530 C   0  0  2  0  0  0  0  0  0  0  0  0
   37.4120   31.2530   38.3150 C   0  0  0  0  0  0  0  0  0  0  0  0
   37.4480   32.0660   39.5660 C   0  0  2  0  0  0  0  0  0  0  0  0
   35.3850   31.2600   39.3760 H   0  0  0  0  0  0  0  0  0  0  0  0
   36.9560   31.7020   37.4090 H   0  0  0  0  0  0  0  0  0  0  0  0
   38.2040   30.5210   38.0850 H   0  0  0  0  0  0  0  0  0  0  0  0
   37.0580   33.0970   39.4650 H   0  0  0  0  0  0  0  0  0  0  0  0
   39.8250   31.3880   40.0200 C   0  0  1  0  0  3  0  0  0  0  0  0
   38.5220   31.9450   40.5920 C   0  0  1  0  0  3  0  0  0  0  0  0
   38.8000   33.2650   41.0170 O   0  0  0  0  0  0  0  0  0  0  0  0
   39.5980   33.9410   40.0720 C   0  0  0  0  0  2  0  0  0  0  0  0
   41.0430   33.5480   40.4050 C   0  0  2  0  0  3  0  0  0  0  0  0
   40.9700   32.0750   40.7730 C   0  0  1  0  0  3  0  0  0  0  0  0
   39.9670   30.0330   40.3020 O   0  0  0  0  0  0  0  0  0  0  0  0
   39.1420   29.6560   40.7320 H   0  0  0  0  0  0  0  0  0  0  0  0
   41.4490   34.3490   41.4580 O   0  0  0  0  0  0  0  0  0  0  0  0
   41.0220   35.2560   41.4240 H   0  0  0  0  0  0  0  0  0  0  0  0
   40.7910   31.8960   42.1380 O   0  0  0  0  0  0  0  0  0  0  0  0
   40.6420   32.7620   42.6130 H   0  0  0  0  0  0  0  0  0  0  0  0
  1  2  1  0  0  0  0
  2  3  2  0  0  0  0
  2  9  1  0  0  0  0
  3  8  1  0  0  0  0
  4  3  1  0  0  0  0
  5  4  2  0  0  0  0
  6  1  2  0  0  0  0
  6  5  1  0  0  0  0
  7  1  1  0  0  0  0
  9 12  1  1  0  0  0
  9 11  1  0  0  0  0
 10 14  1  0  0  0  0
 10  9  1  0  0  0  0
 10 11  1  0  0  0  0
 11 15  1  1  0  0  0
 13 10  1  0  0  0  0
 16 11  1  0  0  0  0
 16 17  1  0  0  0  0
 16 19  1  0  0  0  0
 18 16  1  0  0  0  0
 20 23  1  6  0  0  0
 20 22  1  0  0  0  0
 20  5  1  0  0  0  0
 21 20  1  0  0  0  0
 21 22  1  0  0  0  0
 22 26  1  6  0  0  0
 22 28  1  0  0  0  0
 24 21  1  0  0  0  0
 25 21  1  0  0  0  0
 27 33  1  1  0  0  0
 27 28  1  0  0  0  0
 27 32  1  0  0  0  0
 28 29  1  6  0  0  0
 30 31  1  0  0  0  0
 30 29  1  0  0  0  0
 31 32  1  0  0  0  0
 31 35  1  1  0  0  0
 32 37  1  1  0  0  0
 33 34  1  0  0  0  0
 36 35  1  0  0  0  0
 37 38  1  0  0  0  0
M  END
>  <minimizedAffinity>
-5.93525028

$$$$

 OpenBabel03242520383D

 38 41  0  0  1  0  0  0  0  0999 V2000
   37.9850   29.3750   40.1400 C   0  0  0  0  0  0  0  0  0  0  0  0
   38.8200   28.5890   41.0160 C   0  0  0  0  0  0  0  0  0  0  0  0
   39.6950   29.2680   41.8230 C   0  0  0  0  0  0  0  0  0  0  0  0
   39.7390   30.6210   41.7650 N   0  0  0  0  0  0  0  0  0  0  0  0
   38.9430   31.3340   40.9310 C   0  0  0  0  0  0  0  0  0  0  0  0
   38.0740   30.6950   40.1290 N   0  0  0  0  0  0  0  0  0  0  0  0
   37.2810   28.8800   39.4890 H   0  0  0  0  0  0  0  0  0  0  0  0
   40.3450   28.7190   42.5010 H   0  0  0  0  0  0  0  0  0  0  0  0
   38.7450   27.1090   41.0310 C   0  0  1  0  0  0  0  0  0  0  0  0
   39.1780   26.3380   42.1550 C   0  0  0  0  0  0  0  0  0  0  0  0
   37.7200   26.4570   41.9810 C   0  0  1  0  0  0  0  0  0  0  0  0
   38.6390   26.7020   39.9860 H   0  0  0  0  0  0  0  0  0  0  0  0
   39.7090   26.8250   42.9970 H   0  0  0  0  0  0  0  0  0  0  0  0
   39.6490   25.3320   41.9350 H   0  0  0  0  0  0  0  0  0  0  0  0
   37.1990   25.5410   41.5920 H   0  0  0  0  0  0  0  0  0  0  0  0
   36.8550   27.2950   42.8430 C   0  0  0  0  0  0  0  0  0  0  0  0
   35.9900   28.0800   42.1000 F   0  0  0  0  0  0  0  0  0  0  0  0
   37.6110   28.1200   43.6790 F   0  0  0  0  0  0  0  0  0  0  0  0
   36.0830   26.4500   43.6000 F   0  0  0  0  0  0  0  0  0  0  0  0
   39.0630   32.8240   40.9440 C   0  0  2  0  0  0  0  0  0  0  0  0
   38.4860   33.4760   39.6990 C   0  0  0  0  0  0  0  0  0  0  0  0
   39.9540   33.5070   39.9640 C   0  0  2  0  0  0  0  0  0  0  0  0
   38.9450   33.3000   41.9340 H   0  0  0  0  0  0  0  0  0  0  0  0
   37.9000   34.4010   39.8770 H   0  0  0  0  0  0  0  0  0  0  0  0
   38.0610   32.8390   38.9060 H   0  0  0  0  0  0  0  0  0  0  0  0
   40.3540   34.4940   40.2690 H   0  0  0  0  0  0  0  0  0  0  0  0
   41.1230   33.1570   37.7670 C   0  0  1  0  0  3  0  0  0  0  0  0
   40.9420   32.6850   39.2100 C   0  0  1  0  0  3  0  0  0  0  0  0
   42.1840   32.8820   39.8580 O   0  0  0  0  0  0  0  0  0  0  0  0
   42.7470   34.1240   39.5010 C   0  0  0  0  0  2  0  0  0  0  0  0
   43.4930   33.8670   38.1850 C   0  0  2  0  0  3  0  0  0  0  0  0
   42.5940   32.9220   37.4050 C   0  0  1  0  0  3  0  0  0  0  0  0
   40.4010   32.3680   36.8780 O   0  0  0  0  0  0  0  0  0  0  0  0
   39.8160   31.7100   37.3580 H   0  0  0  0  0  0  0  0  0  0  0  0
   44.7140   33.3040   38.5150 O   0  0  0  0  0  0  0  0  0  0  0  0
   45.0580   33.6450   39.3930 H   0  0  0  0  0  0  0  0  0  0  0  0
   42.9170   31.5930   37.6450 O   0  0  0  0  0  0  0  0  0  0  0  0
   43.6100   31.4990   38.3590 H   0  0  0  0  0  0  0  0  0  0  0  0
  1  2  1  0  0  0  0
  2  9  1  0  0  0  0
  2  3  2  0  0  0  0
  3  8  1  0  0  0  0
  4  3  1  0  0  0  0
  5 20  1  0  0  0  0
  5  4  2  0  0  0  0
  6  1  2  0  0  0  0
  6  5  1  0  0  0  0
  7  1  1  0  0  0  0
  9 12  1  6  0  0  0
  9 11  1  0  0  0  0
  9 10  1  0  0  0  0
 10 13  1  0  0  0  0
 11 15  1  6  0  0  0
 11 10  1  0  0  0  0
 11 16  1  0  0  0  0
 14 10  1  0  0  0  0
 16 19  1  0  0  0  0
 16 18  1  0  0  0  0
 17 16  1  0  0  0  0
 20 23  1  1  0  0  0
 21 24  1  0  0  0  0
 21 22  1  0  0  0  0
 21 20  1  0  0  0  0
 22 26  1  1  0  0  0
 22 20  1  0  0  0  0
 25 21  1  0  0  0  0
 27 33  1  6  0  0  0
 27 28  1  0  0  0  0
 28 29  1  1  0  0  0
 28 22  1  0  0  0  0
 30 29  1  0  0  0  0
 31 35  1  1  0  0  0
 31 30  1  0  0  0  0
 32 37  1  1  0  0  0
 32 27  1  0  0  0  0
 32 31  1  0  0  0  0
 33 34  1  0  0  0  0
 35 36  1  0  0  0  0
 37 38  1  0  0  0  0
M  END
>  <minimizedAffinity>
-5.89102507

$$$$

 OpenBabel03242520383D

 38 41  0  0  1  0  0  0  0  0999 V2000
   38.5670   26.6380   39.3080 C   0  0  0  0  0  0  0  0  0  0  0  0
   38.0240   26.1320   40.5450 C   0  0  0  0  0  0  0  0  0  0  0  0
   36.9120   26.7570   41.0440 C   0  0  0  0  0  0  0  0  0  0  0  0
   36.3790   27.8040   40.3680 N   0  0  0  0  0  0  0  0  0  0  0  0
   36.9110   28.2590   39.2070 C   0  0  0  0  0  0  0  0  0  0  0  0
   38.0010   27.6640   38.6940 N   0  0  0  0  0  0  0  0  0  0  0  0
   39.4420   26.1730   38.8800 H   0  0  0  0  0  0  0  0  0  0  0  0
   36.4660   26.4110   41.9750 H   0  0  0  0  0  0  0  0  0  0  0  0
   38.6530   24.9920   41.2550 C   0  0  1  0  0  0  0  0  0  0  0  0
   37.9670   24.2610   42.2740 C   0  0  0  0  0  0  0  0  0  0  0  0
   38.0980   23.5820   40.9730 C   0  0  1  0  0  0  0  0  0  0  0  0
   39.7730   25.0140   41.1350 H   0  0  0  0  0  0  0  0  0  0  0  0
   36.9880   24.6140   42.6550 H   0  0  0  0  0  0  0  0  0  0  0  0
   38.5930   23.8670   43.1320 H   0  0  0  0  0  0  0  0  0  0  0  0
   38.8540   22.7530   40.9290 H   0  0  0  0  0  0  0  0  0  0  0  0
   36.9720   23.3930   40.0280 C   0  0  0  0  0  0  0  0  0  0  0  0
   37.2320   23.9630   38.7940 F   0  0  0  0  0  0  0  0  0  0  0  0
   35.7840   23.9270   40.5340 F   0  0  0  0  0  0  0  0  0  0  0  0
   36.8250   22.0440   39.8260 F   0  0  0  0  0  0  0  0  0  0  0  0
   36.2480   29.4170   38.5340 C   0  0  2  0  0  0  0  0  0  0  0  0
   37.1600   30.1360   37.5550 C   0  0  0  0  0  0  0  0  0  0  0  0
   36.7150   30.8060   38.8110 C   0  0  2  0  0  0  0  0  0  0  0  0
   35.1750   29.2830   38.3080 H   0  0  0  0  0  0  0  0  0  0  0  0
   36.6840   30.4400   36.6000 H   0  0  0  0  0  0  0  0  0  0  0  0
   38.1980   29.7850   37.4300 H   0  0  0  0  0  0  0  0  0  0  0  0
   35.9670   31.6120   38.6730 H   0  0  0  0  0  0  0  0  0  0  0  0
   39.0610   31.2800   39.5750 C   0  0  1  0  0  3  0  0  0  0  0  0
   37.6090   31.0340   39.9810 C   0  0  1  0  0  3  0  0  0  0  0  0
   37.1520   32.2270   40.5900 O   0  0  0  0  0  0  0  0  0  0  0  0
   37.5870   33.3580   39.8700 C   0  0  0  0  0  2  0  0  0  0  0  0
   39.0000   33.6520   40.3910 C   0  0  2  0  0  3  0  0  0  0  0  0
   39.6390   32.2860   40.5780 C   0  0  1  0  0  3  0  0  0  0  0  0
   39.8340   30.1340   39.7250 O   0  0  0  0  0  0  0  0  0  0  0  0
   39.2730   29.3380   39.9680 H   0  0  0  0  0  0  0  0  0  0  0  0
   38.8560   34.3480   41.5790 O   0  0  0  0  0  0  0  0  0  0  0  0
   38.0380   34.9290   41.5750 H   0  0  0  0  0  0  0  0  0  0  0  0
   39.4510   31.8040   41.8660 O   0  0  0  0  0  0  0  0  0  0  0  0
   38.8480   32.3930   42.4030 H   0  0  0  0  0  0  0  0  0  0  0  0
  1  2  1  0  0  0  0
  2  3  2  0  0  0  0
  2  9  1  0  0  0  0
  3  8  1  0  0  0  0
  4  3  1  0  0  0  0
  5  4  2  0  0  0  0
  6  5  1  0  0  0  0
  6  1  2  0  0  0  0
  7  1  1  0  0  0  0
  9 12  1  1  0  0  0
  9 10  1  0  0  0  0
 10 13  1  0  0  0  0
 10 14  1  0  0  0  0
 11 15  1  6  0  0  0
 11  9  1  0  0  0  0
 11 10  1  0  0  0  0
 16 18  1  0  0  0  0
 16 11  1  0  0  0  0
 17 16  1  0  0  0  0
 19 16  1  0  0  0  0
 20 23  1  6  0  0  0
 20 22  1  0  0  0  0
 20  5  1  0  0  0  0
 21 20  1  0  0  0  0
 21 22  1  0  0  0  0
 22 26  1  6  0  0  0
 22 28  1  0  0  0  0
 24 21  1  0  0  0  0
 25 21  1  0  0  0  0
 27 33  1  1  0  0  0
 27 28  1  0  0  0  0
 27 32  1  0  0  0  0
 28 29  1  6  0  0  0
 30 31  1  0  0  0  0
 30 29  1  0  0  0  0
 31 32  1  0  0  0  0
 31 35  1  1  0  0  0
 32 37  1  1  0  0  0
 33 34  1  0  0  0  0
 36 35  1  0  0  0  0
 37 38  1  0  0  0  0
M  END
>  <minimizedAffinity>
-5.86481905

$$$$

 OpenBabel03242520383D

 38 41  0  0  1  0  0  0  0  0999 V2000
   38.8930   29.2890   42.9370 C   0  0  0  0  0  0  0  0  0  0  0  0
   38.9670   27.9020   43.3270 C   0  0  0  0  0  0  0  0  0  0  0  0
   40.2110   27.3320   43.3790 C   0  0  0  0  0  0  0  0  0  0  0  0
   41.2980   28.0780   43.0680 N   0  0  0  0  0  0  0  0  0  0  0  0
   41.1990   29.3800   42.7030 C   0  0  0  0  0  0  0  0  0  0  0  0
   39.9910   29.9670   42.6440 N   0  0  0  0  0  0  0  0  0  0  0  0
   37.9310   29.7770   42.8850 H   0  0  0  0  0  0  0  0  0  0  0  0
   40.3180   26.2880   43.6690 H   0  0  0  0  0  0  0  0  0  0  0  0
   37.7460   27.1230   43.6430 C   0  0  1  0  0  0  0  0  0  0  0  0
   36.4450   27.5500   43.2310 C   0  0  0  0  0  0  0  0  0  0  0  0
   37.0220   26.4250   42.4740 C   0  0  1  0  0  0  0  0  0  0  0  0
   37.9380   26.3990   44.4850 H   0  0  0  0  0  0  0  0  0  0  0  0
   36.3020   28.5500   42.7770 H   0  0  0  0  0  0  0  0  0  0  0  0
   35.5850   27.3200   43.9310 H   0  0  0  0  0  0  0  0  0  0  0  0
   36.5880   25.4150   42.6950 H   0  0  0  0  0  0  0  0  0  0  0  0
   37.5400   26.5460   41.0910 C   0  0  0  0  0  0  0  0  0  0  0  0
   38.8320   26.0610   40.9790 F   0  0  0  0  0  0  0  0  0  0  0  0
   37.5110   27.8710   40.6480 F   0  0  0  0  0  0  0  0  0  0  0  0
   36.7470   25.7700   40.2850 F   0  0  0  0  0  0  0  0  0  0  0  0
   42.4570   30.1210   42.3830 C   0  0  2  0  0  0  0  0  0  0  0  0
   42.4460   31.5540   42.8870 C   0  0  0  0  0  0  0  0  0  0  0  0
   42.4250   31.2620   41.4240 C   0  0  2  0  0  0  0  0  0  0  0  0
   43.3830   29.5200   42.4190 H   0  0  0  0  0  0  0  0  0  0  0  0
   43.3960   31.9050   43.3390 H   0  0  0  0  0  0  0  0  0  0  0  0
   41.5500   31.9350   43.4070 H   0  0  0  0  0  0  0  0  0  0  0  0
   43.3700   31.4800   40.8890 H   0  0  0  0  0  0  0  0  0  0  0  0
   40.6240   32.8410   40.6650 C   0  0  1  0  0  3  0  0  0  0  0  0
   41.2170   31.4360   40.5690 C   0  0  1  0  0  3  0  0  0  0  0  0
   41.6610   31.2770   39.2350 O   0  0  0  0  0  0  0  0  0  0  0  0
   42.3140   32.4400   38.7790 C   0  0  0  0  0  2  0  0  0  0  0  0
   41.1960   33.3630   38.2780 C   0  0  2  0  0  3  0  0  0  0  0  0
   40.0660   33.1840   39.2790 C   0  0  1  0  0  3  0  0  0  0  0  0
   39.5240   32.8740   41.5160 O   0  0  0  0  0  0  0  0  0  0  0  0
   39.3950   31.9960   41.9870 H   0  0  0  0  0  0  0  0  0  0  0  0
   40.8610   32.9390   37.0040 O   0  0  0  0  0  0  0  0  0  0  0  0
   41.6530   32.5650   36.5140 H   0  0  0  0  0  0  0  0  0  0  0  0
   39.1830   32.1880   38.8830 O   0  0  0  0  0  0  0  0  0  0  0  0
   39.5050   31.7040   38.0700 H   0  0  0  0  0  0  0  0  0  0  0  0
  1  2  1  0  0  0  0
  2  3  2  0  0  0  0
  2  9  1  0  0  0  0
  3  8  1  0  0  0  0
  4  3  1  0  0  0  0
  5  4  2  0  0  0  0
  6  5  1  0  0  0  0
  6  1  2  0  0  0  0
  7  1  1  0  0  0  0
  9 12  1  1  0  0  0
 10  9  1  0  0  0  0
 10 14  1  0  0  0  0
 11 15  1  1  0  0  0
 11 10  1  0  0  0  0
 11  9  1  0  0  0  0
 13 10  1  0  0  0  0
 16 11  1  0  0  0  0
 17 16  1  0  0  0  0
 18 16  1  0  0  0  0
 19 16  1  0  0  0  0
 20 23  1  1  0  0  0
 20  5  1  0  0  0  0
 20 21  1  0  0  0  0
 21 24  1  0  0  0  0
 21 25  1  0  0  0  0
 22 26  1  6  0  0  0
 22 20  1  0  0  0  0
 22 21  1  0  0  0  0
 27 33  1  1  0  0  0
 28 29  1  6  0  0  0
 28 27  1  0  0  0  0
 28 22  1  0  0  0  0
 30 29  1  0  0  0  0
 31 35  1  6  0  0  0
 31 30  1  0  0  0  0
 31 32  1  0  0  0  0
 32 37  1  6  0  0  0
 32 27  1  0  0  0  0
 33 34  1  0  0  0  0
 36 35  1  0  0  0  0
 38 37  1  0  0  0  0
M  END
>  <minimizedAffinity>
-5.86099577

$$$$

 OpenBabel03242520383D

 38 41  0  0  1  0  0  0  0  0999 V2000
   37.4630   27.1950   39.1820 C   0  0  0  0  0  0  0  0  0  0  0  0
   36.4410   28.0920   38.7000 C   0  0  0  0  0  0  0  0  0  0  0  0
   35.6320   28.6810   39.6360 C   0  0  0  0  0  0  0  0  0  0  0  0
   35.8220   28.4030   40.9490 N   0  0  0  0  0  0  0  0  0  0  0  0
   36.7910   27.5550   41.3740 C   0  0  0  0  0  0  0  0  0  0  0  0
   37.6000   26.9630   40.4780 N   0  0  0  0  0  0  0  0  0  0  0  0
   38.1230   26.7110   38.4780 H   0  0  0  0  0  0  0  0  0  0  0  0
   34.8460   29.3650   39.3210 H   0  0  0  0  0  0  0  0  0  0  0  0
   36.2630   28.3520   37.2520 C   0  0  1  0  0  0  0  0  0  0  0  0
   35.3810   29.3670   36.7650 C   0  0  0  0  0  0  0  0  0  0  0  0
   36.8200   29.6760   36.6910 C   0  0  1  0  0  0  0  0  0  0  0  0
   36.6190   27.4760   36.6400 H   0  0  0  0  0  0  0  0  0  0  0  0
   34.7030   29.9000   37.4610 H   0  0  0  0  0  0  0  0  0  0  0  0
   34.8430   29.1550   35.7920 H   0  0  0  0  0  0  0  0  0  0  0  0
   37.2770   29.6250   35.6670 H   0  0  0  0  0  0  0  0  0  0  0  0
   37.4990   30.6430   37.5840 C   0  0  0  0  0  0  0  0  0  0  0  0
   38.0800   31.6810   36.8760 F   0  0  0  0  0  0  0  0  0  0  0  0
   38.4790   30.0200   38.3630 F   0  0  0  0  0  0  0  0  0  0  0  0
   36.5430   31.1960   38.3980 F   0  0  0  0  0  0  0  0  0  0  0  0
   36.9250   27.3160   42.8430 C   0  0  2  0  0  0  0  0  0  0  0  0
   37.4420   28.5290   43.5970 C   0  0  0  0  0  0  0  0  0  0  0  0
   38.2760   27.2980   43.4730 C   0  0  2  0  0  0  0  0  0  0  0  0
   36.1530   26.6650   43.2890 H   0  0  0  0  0  0  0  0  0  0  0  0
   36.9440   28.7320   44.5670 H   0  0  0  0  0  0  0  0  0  0  0  0
   37.6900   29.4460   43.0360 H   0  0  0  0  0  0  0  0  0  0  0  0
   38.3750   26.7050   44.4040 H   0  0  0  0  0  0  0  0  0  0  0  0
   40.6980   27.8950   43.1780 C   0  0  1  0  0  3  0  0  0  0  0  0
   39.4710   27.2000   42.5890 C   0  0  1  0  0  3  0  0  0  0  0  0
   39.7840   25.8230   42.5130 O   0  0  0  0  0  0  0  0  0  0  0  0
   40.4480   25.3920   43.6800 C   0  0  0  0  0  2  0  0  0  0  0  0
   41.9280   25.7240   43.4500 C   0  0  2  0  0  3  0  0  0  0  0  0
   41.9210   27.0740   42.7510 C   0  0  1  0  0  3  0  0  0  0  0  0
   40.8920   29.1520   42.6160 O   0  0  0  0  0  0  0  0  0  0  0  0
   40.1320   29.4080   42.0120 H   0  0  0  0  0  0  0  0  0  0  0  0
   42.4530   24.7120   42.6650 O   0  0  0  0  0  0  0  0  0  0  0  0
   42.0140   23.8290   42.8510 H   0  0  0  0  0  0  0  0  0  0  0  0
   41.9170   26.9350   41.3690 O   0  0  0  0  0  0  0  0  0  0  0  0
   41.8180   25.9810   41.0880 H   0  0  0  0  0  0  0  0  0  0  0  0
  1  6  1  0  0  0  0
  2  1  2  0  0  0  0
  2  3  1  0  0  0  0
  3  4  2  0  0  0  0
  4  5  1  0  0  0  0
  5 20  1  0  0  0  0
  6  5  2  0  0  0  0
  7  1  1  0  0  0  0
  8  3  1  0  0  0  0
  9 12  1  6  0  0  0
  9  2  1  0  0  0  0
 10  9  1  0  0  0  0
 10 13  1  0  0  0  0
 11 15  1  6  0  0  0
 11 10  1  0  0  0  0
 11  9  1  0  0  0  0
 11 16  1  0  0  0  0
 14 10  1  0  0  0  0
 16 18  1  0  0  0  0
 16 19  1  0  0  0  0
 17 16  1  0  0  0  0
 20 23  1  1  0  0  0
 20 22  1  0  0  0  0
 20 21  1  0  0  0  0
 21 24  1  0  0  0  0
 22 21  1  0  0  0  0
 22 26  1  1  0  0  0
 25 21  1  0  0  0  0
 27 33  1  6  0  0  0
 28 29  1  1  0  0  0
 28 27  1  0  0  0  0
 28 22  1  0  0  0  0
 29 30  1  0  0  0  0
 31 35  1  6  0  0  0
 31 30  1  0  0  0  0
 32 37  1  6  0  0  0
 32 27  1  0  0  0  0
 32 31  1  0  0  0  0
 34 33  1  0  0  0  0
 35 36  1  0  0  0  0
 38 37  1  0  0  0  0
M  END
>  <minimizedAffinity>
-5.71031094

$$$$
