
 OpenBabel03252502133D

 40 43  0  0  1  0  0  0  0  0999 V2000
   47.9170   33.0700   40.9480 C   0  0  0  0  0  0  0  0  0  0  0  0
   48.6320   34.2710   40.9550 C   0  0  0  0  0  0  0  0  0  0  0  0
   48.6320   34.8770   39.7200 C   0  0  0  0  0  0  0  0  0  0  0  0
   48.0340   34.4360   38.5730 C   0  0  0  0  0  0  0  0  0  0  0  0
   47.3500   33.2330   38.6740 C   0  0  0  0  0  0  0  0  0  0  0  0
   47.3230   32.6040   39.8610 N   0  0  0  0  0  0  0  0  0  0  0  0
   49.1220   34.6730   41.8160 H   0  0  0  0  0  0  0  0  0  0  0  0
   49.1820   35.8450   39.6440 H   0  0  0  0  0  0  0  0  0  0  0  0
   48.0990   34.9990   37.6510 H   0  0  0  0  0  0  0  0  0  0  0  0
   45.6460   32.3440   45.5150 Cl  0  0  0  0  0  0  0  0  0  0  0  0
   46.8250   31.9870   44.2810 C   0  0  0  0  0  0  0  0  0  0  0  0
   46.8700   32.6940   43.1170 C   0  0  0  0  0  0  0  0  0  0  0  0
   47.8440   32.3200   42.2220 C   0  0  0  0  0  0  0  0  0  0  0  0
   48.7240   31.3210   42.4370 C   0  0  0  0  0  0  0  0  0  0  0  0
   48.6710   30.6100   43.6190 C   0  0  0  0  0  0  0  0  0  0  0  0
   47.7120   30.9570   44.5330 C   0  0  0  0  0  0  0  0  0  0  0  0
   49.4970   31.0180   41.7360 H   0  0  0  0  0  0  0  0  0  0  0  0
   49.3500   29.7920   43.8570 H   0  0  0  0  0  0  0  0  0  0  0  0
   47.6640   30.4050   45.4620 H   0  0  0  0  0  0  0  0  0  0  0  0
   43.8150   34.6500   42.0420 C   0  0  0  0  0  0  0  0  0  0  0  0
   44.7150   33.6010   42.2290 C   0  0  0  0  0  0  0  0  0  0  0  0
   45.9160   33.7630   42.9080 C   0  0  0  0  0  0  0  0  0  0  0  0
   46.1460   35.0160   43.3730 N   0  0  0  0  0  0  0  0  0  0  0  0
   45.2850   36.0290   43.1960 C   0  0  0  0  0  0  0  0  0  0  0  0
   44.1270   35.8550   42.5390 N   0  0  0  0  0  0  0  0  0  0  0  0
   42.8970   34.5070   41.5190 H   0  0  0  0  0  0  0  0  0  0  0  0
   44.4680   32.6270   41.8320 H   0  0  0  0  0  0  0  0  0  0  0  0
   45.6200   36.9660   43.6310 H   0  0  0  0  0  0  0  0  0  0  0  0
   45.1850   33.0200   37.4570 C   0  0  2  0  0  0  0  0  0  0  0  0
   46.6730   32.6970   37.4490 C   0  0  2  0  0  0  0  0  0  0  0  0
   46.8540   31.2990   37.3480 O   0  0  0  0  0  0  0  0  0  0  0  0
   46.5070   31.0120   36.0070 C   0  0  0  0  0  0  0  0  0  0  0  0
   45.0450   31.2810   35.7710 C   0  0  1  0  0  0  0  0  0  0  0  0
   44.4170   31.7750   37.0650 C   0  0  2  0  0  0  0  0  0  0  0  0
   44.8730   34.0440   36.5910 O   0  0  0  0  0  0  0  0  0  0  0  0
   45.0290   34.9500   36.9260 H   0  0  0  0  0  0  0  0  0  0  0  0
   44.8480   32.3010   34.8360 O   0  0  0  0  0  0  0  0  0  0  0  0
   43.9290   32.2540   34.4730 H   0  0  0  0  0  0  0  0  0  0  0  0
   43.0830   32.0500   36.8580 O   0  0  0  0  0  0  0  0  0  0  0  0
   42.6800   32.6090   37.5550 H   0  0  0  0  0  0  0  0  0  0  0  0
  1  2  1  0  0  0  0
  1 13  1  0  0  0  0
  2  7  1  0  0  0  0
  3  2  2  0  0  0  0
  4  5  2  0  0  0  0
  4  3  1  0  0  0  0
  5  6  1  0  0  0  0
  6  1  2  0  0  0  0
  8  3  1  0  0  0  0
  9  4  1  0  0  0  0
 11 16  1  0  0  0  0
 11 10  1  0  0  0  0
 12 11  2  0  0  0  0
 13 14  2  0  0  0  0
 13 12  1  0  0  0  0
 14 15  1  0  0  0  0
 15 18  1  0  0  0  0
 15 16  2  0  0  0  0
 16 19  1  0  0  0  0
 17 14  1  0  0  0  0
 20 21  2  0  0  0  0
 20 25  1  0  0  0  0
 21 22  1  0  0  0  0
 22 12  1  0  0  0  0
 22 23  2  0  0  0  0
 24 23  1  0  0  0  0
 24 28  1  0  0  0  0
 25 24  2  0  0  0  0
 26 20  1  0  0  0  0
 27 21  1  0  0  0  0
 29 35  1  6  0  0  0
 30 29  1  0  0  0  0
 30  5  1  1  0  0  0
 31 30  1  0  0  0  0
 32 31  1  0  0  0  0
 33 37  1  6  0  0  0
 33 32  1  0  0  0  0
 33 34  1  0  0  0  0
 34 39  1  6  0  0  0
 34 29  1  0  0  0  0
 35 36  1  0  0  0  0
 38 37  1  0  0  0  0
 39 40  1  0  0  0  0
M  END
>  <minimizedAffinity>
-5.8846941

>  <minimizedRMSD>
6.4535861

$$$$
