
 OpenBabel03252505363D

 36 38  0  0  1  0  0  0  0  0999 V2000
   47.1180   32.1660   44.9410 C   0  0  0  0  0  0  0  0  0  0  0  0
   46.6110   31.8010   43.6670 C   0  0  0  0  0  0  0  0  0  0  0  0
   46.8680   30.5200   43.2280 C   0  0  0  0  0  0  0  0  0  0  0  0
   47.5880   29.6870   44.0300 N   0  0  0  0  0  0  0  0  0  0  0  0
   48.0530   30.0800   45.2410 C   0  0  0  0  0  0  0  0  0  0  0  0
   47.8170   31.3130   45.6910 N   0  0  0  0  0  0  0  0  0  0  0  0
   48.8260   29.1980   46.0500 N   0  0  0  0  0  0  0  0  0  0  0  0
   46.9540   33.1540   45.3540 H   0  0  0  0  0  0  0  0  0  0  0  0
   48.7780   29.1280   47.0880 H   0  0  0  0  0  0  0  0  0  0  0  0
   49.5190   28.5420   45.5840 H   0  0  0  0  0  0  0  0  0  0  0  0
   46.4100   30.0110   41.9750 C   0  0  0  0  0  0  0  0  0  0  0  0
   47.3060   30.0080   40.9110 C   0  0  0  0  0  0  0  0  0  0  0  0
   46.9690   29.5190   39.6460 C   0  0  0  0  0  0  0  0  0  0  0  0
   45.7140   29.0220   39.4270 C   0  0  0  0  0  0  0  0  0  0  0  0
   44.8230   29.0230   40.4770 C   0  0  0  0  0  0  0  0  0  0  0  0
   45.1560   29.5090   41.7360 C   0  0  0  0  0  0  0  0  0  0  0  0
   48.3040   30.3950   41.0520 H   0  0  0  0  0  0  0  0  0  0  0  0
   47.7280   29.5530   38.8710 H   0  0  0  0  0  0  0  0  0  0  0  0
   45.4440   28.6420   38.4510 H   0  0  0  0  0  0  0  0  0  0  0  0
   43.8140   28.6340   40.3380 H   0  0  0  0  0  0  0  0  0  0  0  0
   44.1910   29.4930   42.8480 C   0  0  0  0  0  0  0  0  0  0  0  0
   43.1400   28.6510   42.4920 F   0  0  0  0  0  0  0  0  0  0  0  0
   43.7190   30.7710   43.0730 F   0  0  0  0  0  0  0  0  0  0  0  0
   44.7180   29.0610   44.0380 F   0  0  0  0  0  0  0  0  0  0  0  0
   46.9340   33.7880   42.3060 C   0  0  2  0  0  3  0  0  0  0  0  0
   45.8960   32.8620   42.9100 C   0  0  2  0  0  3  0  0  0  0  0  0
   45.0440   33.4770   43.7950 O   0  0  0  0  0  0  0  0  0  0  0  0
   44.5300   34.6850   43.4000 C   0  0  0  0  0  2  0  0  0  0  0  0
   45.7230   35.6510   43.3250 C   0  0  1  0  0  3  0  0  0  0  0  0
   46.4960   35.1920   42.1090 C   0  0  1  0  0  3  0  0  0  0  0  0
   47.4900   33.2110   41.1900 O   0  0  0  0  0  0  0  0  0  0  0  0
   48.4230   32.8740   41.3190 H   0  0  0  0  0  0  0  0  0  0  0  0
   45.3100   36.9690   43.2370 O   0  0  0  0  0  0  0  0  0  0  0  0
   44.5530   37.0570   43.8980 H   0  0  0  0  0  0  0  0  0  0  0  0
   47.6570   35.9760   41.9840 O   0  0  0  0  0  0  0  0  0  0  0  0
   48.4210   35.5450   42.4500 H   0  0  0  0  0  0  0  0  0  0  0  0
  1  8  1  0  0  0  0
  1  6  1  0  0  0  0
  2  1  2  0  0  0  0
  3  2  1  0  0  0  0
  3  4  2  0  0  0  0
  4  5  1  0  0  0  0
  5  6  2  0  0  0  0
  5  7  1  0  0  0  0
  7  9  1  0  0  0  0
 10  7  1  0  0  0  0
 11  3  1  0  0  0  0
 12 17  1  0  0  0  0
 12 11  2  0  0  0  0
 13 12  1  0  0  0  0
 14 13  2  0  0  0  0
 14 15  1  0  0  0  0
 15 16  2  0  0  0  0
 16 11  1  0  0  0  0
 16 21  1  0  0  0  0
 18 13  1  0  0  0  0
 19 14  1  0  0  0  0
 20 15  1  0  0  0  0
 21 23  1  0  0  0  0
 21 24  1  0  0  0  0
 22 21  1  0  0  0  0
 25 31  1  6  0  0  0
 25 26  1  0  0  0  0
 26  2  1  1  0  0  0
 26 27  1  0  0  0  0
 28 27  1  0  0  0  0
 29 33  1  6  0  0  0
 29 28  1  0  0  0  0
 30 35  1  1  0  0  0
 30 25  1  0  0  0  0
 30 29  1  0  0  0  0
 31 32  1  0  0  0  0
 33 34  1  0  0  0  0
 35 36  1  0  0  0  0
M  END
>  <minimizedAffinity>
-2.70611477

>  <minimizedRMSD>
4.81117916

$$$$
