
 OpenBabel03252503133D

 37 40  0  0  1  0  0  0  0  0999 V2000
   45.5270   34.0850   40.8610 C   0  0  0  0  0  0  0  0  0  0  0  0
   44.1950   34.2730   40.5630 C   0  0  0  0  0  0  0  0  0  0  0  0
   43.9390   33.4620   39.5210 N   0  0  0  0  0  0  0  0  0  0  0  0
   45.0910   32.7940   39.1920 C   0  0  0  0  0  0  0  0  0  0  0  0
   46.0730   33.1820   40.0250 N   0  0  0  0  0  0  0  0  0  0  0  0
   43.5140   34.9420   41.0750 H   0  0  0  0  0  0  0  0  0  0  0  0
   43.0520   33.3280   39.0210 H   0  0  0  0  0  0  0  0  0  0  0  0
   44.8570   32.2050   36.8000 C   0  0  1  0  0  3  0  0  0  0  0  0
   45.3590   31.7880   38.1290 C   0  0  1  0  0  3  0  0  0  0  0  0
   46.6760   31.4120   38.1980 O   0  0  0  0  0  0  0  0  0  0  0  0
   47.4520   31.6620   37.0930 C   0  0  0  0  0  2  0  0  0  0  0  0
   47.2150   33.0560   36.5780 C   0  0  2  0  0  3  0  0  0  0  0  0
   45.8090   33.0580   36.0010 C   0  0  1  0  0  3  0  0  0  0  0  0
   44.4080   31.0870   36.0600 O   0  0  0  0  0  0  0  0  0  0  0  0
   44.3540   30.2750   36.6120 H   0  0  0  0  0  0  0  0  0  0  0  0
   48.1130   33.2450   35.5060 O   0  0  0  0  0  0  0  0  0  0  0  0
   47.6490   33.7300   34.7550 H   0  0  0  0  0  0  0  0  0  0  0  0
   45.9170   32.4820   34.7360 O   0  0  0  0  0  0  0  0  0  0  0  0
   45.4390   32.9580   34.0350 H   0  0  0  0  0  0  0  0  0  0  0  0
   46.3010   34.7670   41.9550 C   0  0  0  0  0  0  0  0  0  0  0  0
   47.4630   35.2430   41.7970 O   0  0  0  0  0  0  0  0  0  0  0  0
   45.0840   36.0910   43.6080 C   0  0  0  0  0  0  0  0  0  0  0  0
   45.7330   34.9050   43.2490 C   0  0  0  0  0  0  0  0  0  0  0  0
   45.7660   33.9210   44.2390 C   0  0  0  0  0  0  0  0  0  0  0  0
   45.2130   34.1070   45.4440 N   0  0  0  0  0  0  0  0  0  0  0  0
   44.5920   35.2840   45.7410 C   0  0  0  0  0  0  0  0  0  0  0  0
   44.5310   36.2620   44.8280 N   0  0  0  0  0  0  0  0  0  0  0  0
   45.0220   36.9040   42.8820 H   0  0  0  0  0  0  0  0  0  0  0  0
   44.1550   35.4010   46.7260 H   0  0  0  0  0  0  0  0  0  0  0  0
   46.4030   32.7030   43.9570 C   0  0  0  0  0  0  0  0  0  0  0  0
   47.7020   32.2770   43.9890 C   0  0  0  0  0  0  0  0  0  0  0  0
   48.0500   31.0360   43.6620 C   0  0  0  0  0  0  0  0  0  0  0  0
   47.0530   30.1860   43.2870 C   0  0  0  0  0  0  0  0  0  0  0  0
   45.5450   31.2490   43.4190 S   0  0  0  0  0  0  0  0  0  0  0  0
   48.4380   33.0450   44.3080 H   0  0  0  0  0  0  0  0  0  0  0  0
   49.0530   30.6300   43.6640 H   0  0  0  0  0  0  0  0  0  0  0  0
   47.0410   29.1550   42.9780 H   0  0  0  0  0  0  0  0  0  0  0  0
  1 20  1  0  0  0  0
  2  1  2  0  0  0  0
  2  6  1  0  0  0  0
  3  2  1  0  0  0  0
  4  3  1  0  0  0  0
  4  5  2  0  0  0  0
  5  1  1  0  0  0  0
  7  3  1  0  0  0  0
  8 14  1  6  0  0  0
  8  9  1  0  0  0  0
  9 10  1  0  0  0  0
  9  4  1  1  0  0  0
 11 10  1  0  0  0  0
 12 16  1  6  0  0  0
 12 11  1  0  0  0  0
 13 18  1  6  0  0  0
 13 12  1  0  0  0  0
 13  8  1  0  0  0  0
 14 15  1  0  0  0  0
 17 16  1  0  0  0  0
 19 18  1  0  0  0  0
 20 23  1  0  0  0  0
 21 20  2  0  0  0  0
 22 27  1  0  0  0  0
 23 22  2  0  0  0  0
 23 24  1  0  0  0  0
 24 25  2  0  0  0  0
 25 26  1  0  0  0  0
 26 29  1  0  0  0  0
 27 26  2  0  0  0  0
 28 22  1  0  0  0  0
 30 31  2  0  0  0  0
 30 24  1  0  0  0  0
 31 35  1  0  0  0  0
 32 36  1  0  0  0  0
 32 31  1  0  0  0  0
 33 34  1  0  0  0  0
 33 32  2  0  0  0  0
 34 30  1  0  0  0  0
 37 33  1  0  0  0  0
M  END
>  <minimizedAffinity>
-5.39992809

>  <minimizedRMSD>
0.519979358

$$$$
