
 OpenBabel03242514453D

 24 25  0  0  1  0  0  0  0  0999 V2000
   45.6350   34.9030   43.9510 C   0  0  0  0  0  0  0  0  0  0  0  0
   46.7370   34.0330   43.7950 C   0  0  0  0  0  0  0  0  0  0  0  0
   47.0360   33.1670   44.8500 C   0  0  0  0  0  0  0  0  0  0  0  0
   46.2560   33.2150   45.9510 N   0  0  0  0  0  0  0  0  0  0  0  0
   45.2070   34.0640   46.0620 C   0  0  0  0  0  0  0  0  0  0  0  0
   44.9050   34.9030   45.0590 N   0  0  0  0  0  0  0  0  0  0  0  0
   47.8620   32.4690   44.8150 H   0  0  0  0  0  0  0  0  0  0  0  0
   44.6490   34.0180   46.9910 H   0  0  0  0  0  0  0  0  0  0  0  0
   49.0130   34.2960   42.8450 C   0  0  1  0  0  3  0  0  0  0  0  0
   47.5890   34.0030   42.5520 C   0  0  1  0  0  3  0  0  0  0  0  0
   47.3030   32.9420   41.7520 O   0  0  0  0  0  0  0  0  0  0  0  0
   48.2320   31.9690   41.5840 C   0  0  0  0  0  2  0  0  0  0  0  0
   49.5580   32.6280   41.1900 C   0  0  2  0  0  3  0  0  0  0  0  0
   50.0130   33.2480   42.5200 C   0  0  1  0  0  3  0  0  0  0  0  0
   49.4610   35.4770   42.2200 O   0  0  0  0  0  0  0  0  0  0  0  0
   48.7270   35.8820   41.6610 H   0  0  0  0  0  0  0  0  0  0  0  0
   49.3210   33.6400   40.2870 O   0  0  0  0  0  0  0  0  0  0  0  0
   49.7360   33.4650   39.3880 H   0  0  0  0  0  0  0  0  0  0  0  0
   51.2590   33.8000   42.2830 O   0  0  0  0  0  0  0  0  0  0  0  0
   51.8860   33.1850   41.8340 H   0  0  0  0  0  0  0  0  0  0  0  0
   45.3350   35.8230   42.8040 C   0  0  0  0  0  0  0  0  0  0  0  0
   45.0000   35.2450   41.9310 H   0  0  0  0  0  0  0  0  0  0  0  0
   44.4530   36.4430   43.1000 H   0  0  0  0  0  0  0  0  0  0  0  0
   46.1470   36.5390   42.6120 H   0  0  0  0  0  0  0  0  0  0  0  0
  1  6  1  0  0  0  0
  2  1  2  0  0  0  0
  2  3  1  0  0  0  0
  3  4  2  0  0  0  0
  4  5  1  0  0  0  0
  5  8  1  0  0  0  0
  6  5  2  0  0  0  0
  7  3  1  0  0  0  0
  9 15  1  6  0  0  0
 10  9  1  0  0  0  0
 10  2  1  1  0  0  0
 11 10  1  0  0  0  0
 12 11  1  0  0  0  0
 13 17  1  6  0  0  0
 13 12  1  0  0  0  0
 13 14  1  0  0  0  0
 14 19  1  6  0  0  0
 14  9  1  0  0  0  0
 16 15  1  0  0  0  0
 18 17  1  0  0  0  0
 20 19  1  0  0  0  0
 21 23  1  0  0  0  0
 21  1  1  0  0  0  0
 22 21  1  0  0  0  0
 24 21  1  0  0  0  0
M  END
>  <minimizedAffinity>
-5.12888145

>  <minimizedRMSD>
2.10447264

$$$$
