
 OpenBabel03242522313D

 42 45  0  0  1  0  0  0  0  0999 V2000
   45.7800   32.6320   41.3220 F   0  0  0  0  0  0  0  0  0  0  0  0
   46.7440   33.5640   41.1440 C   0  0  0  0  0  0  0  0  0  0  0  0
   47.1840   34.3040   42.1850 C   0  0  0  0  0  0  0  0  0  0  0  0
   48.1750   35.2370   41.9150 C   0  0  0  0  0  0  0  0  0  0  0  0
   48.7000   35.4180   40.6600 C   0  0  0  0  0  0  0  0  0  0  0  0
   48.1990   34.6270   39.6620 C   0  0  0  0  0  0  0  0  0  0  0  0
   47.2290   33.6970   39.8640 C   0  0  0  0  0  0  0  0  0  0  0  0
   48.5380   35.8410   42.7420 H   0  0  0  0  0  0  0  0  0  0  0  0
   49.4730   36.1550   40.4790 H   0  0  0  0  0  0  0  0  0  0  0  0
   48.6160   34.7720   38.6680 H   0  0  0  0  0  0  0  0  0  0  0  0
   46.7790   32.9190   38.7300 C   0  0  0  0  0  0  0  0  0  0  0  0
   46.2120   31.6750   38.9320 C   0  0  0  0  0  0  0  0  0  0  0  0
   45.7940   30.9580   37.8540 C   0  0  0  0  0  0  0  0  0  0  0  0
   45.9310   31.4590   36.5580 C   0  0  0  0  0  0  0  0  0  0  0  0
   46.5120   32.7210   36.4080 C   0  0  0  0  0  0  0  0  0  0  0  0
   46.9350   33.4500   37.4930 C   0  0  0  0  0  0  0  0  0  0  0  0
   46.1210   31.3170   39.9540 H   0  0  0  0  0  0  0  0  0  0  0  0
   45.3580   29.9950   38.0480 H   0  0  0  0  0  0  0  0  0  0  0  0
   45.5810   30.8400   35.7570 H   0  0  0  0  0  0  0  0  0  0  0  0
   46.5610   32.9940   35.3640 H   0  0  0  0  0  0  0  0  0  0  0  0
   47.4650   34.6470   37.0860 O   0  0  0  0  0  0  0  0  0  0  0  0
   46.9420   35.4160   36.7340 H   0  0  0  0  0  0  0  0  0  0  0  0
   45.0340   34.5980   45.2770 C   0  0  0  0  0  0  0  0  0  0  0  0
   45.5580   34.8450   44.0070 C   0  0  0  0  0  0  0  0  0  0  0  0
   46.5990   34.0840   43.5140 C   0  0  0  0  0  0  0  0  0  0  0  0
   47.0620   33.1090   44.3330 N   0  0  0  0  0  0  0  0  0  0  0  0
   46.5500   32.8860   45.5460 C   0  0  0  0  0  0  0  0  0  0  0  0
   45.5360   33.6330   46.0140 N   0  0  0  0  0  0  0  0  0  0  0  0
   44.2220   35.2410   45.5810 H   0  0  0  0  0  0  0  0  0  0  0  0
   45.1820   35.6280   43.3580 H   0  0  0  0  0  0  0  0  0  0  0  0
   45.9910   30.7950   46.7580 C   0  0  2  0  0  0  0  0  0  0  0  0
   47.0680   31.8050   46.4420 C   0  0  2  0  0  0  0  0  0  0  0  0
   47.4630   32.3430   47.6740 O   0  0  0  0  0  0  0  0  0  0  0  0
   46.2960   32.7130   48.3440 C   0  0  0  0  0  0  0  0  0  0  0  0
   45.8720   31.4660   49.1240 C   0  0  2  0  0  0  0  0  0  0  0  0
   46.1250   30.2970   48.1890 C   0  0  1  0  0  0  0  0  0  0  0  0
   46.0520   29.6890   45.8980 O   0  0  0  0  0  0  0  0  0  0  0  0
   46.9810   29.4840   45.6040 H   0  0  0  0  0  0  0  0  0  0  0  0
   44.5360   31.6270   49.4300 O   0  0  0  0  0  0  0  0  0  0  0  0
   44.3570   31.7970   50.3870 H   0  0  0  0  0  0  0  0  0  0  0  0
   45.2320   29.2640   48.4060 O   0  0  0  0  0  0  0  0  0  0  0  0
   44.9030   29.3610   49.3520 H   0  0  0  0  0  0  0  0  0  0  0  0
  2  1  1  0  0  0  0
  2  3  1  0  0  0  0
  3 25  1  0  0  0  0
  4  3  2  0  0  0  0
  4  8  1  0  0  0  0
  5  4  1  0  0  0  0
  6  7  1  0  0  0  0
  6  5  2  0  0  0  0
  7  2  2  0  0  0  0
  9  5  1  0  0  0  0
 10  6  1  0  0  0  0
 11 12  1  0  0  0  0
 11  7  1  0  0  0  0
 12 17  1  0  0  0  0
 13 18  1  0  0  0  0
 13 12  2  0  0  0  0
 14 13  1  0  0  0  0
 15 14  2  0  0  0  0
 15 16  1  0  0  0  0
 16 11  2  0  0  0  0
 19 14  1  0  0  0  0
 20 15  1  0  0  0  0
 21 16  1  0  0  0  0
 22 21  1  0  0  0  0
 23 29  1  0  0  0  0
 23 28  1  0  0  0  0
 24 23  2  0  0  0  0
 25 24  1  0  0  0  0
 25 26  2  0  0  0  0
 26 27  1  0  0  0  0
 27 28  2  0  0  0  0
 30 24  1  0  0  0  0
 31 37  1  6  0  0  0
 31 36  1  0  0  0  0
 32 27  1  6  0  0  0
 32 31  1  0  0  0  0
 32 33  1  0  0  0  0
 33 34  1  0  0  0  0
 34 35  1  0  0  0  0
 35 39  1  6  0  0  0
 36 41  1  1  0  0  0
 36 35  1  0  0  0  0
 38 37  1  0  0  0  0
 39 40  1  0  0  0  0
 41 42  1  0  0  0  0
M  END
>  <minimizedAffinity>
-7.92359114

>  <minimizedRMSD>
1.53256416

$$$$
