
 OpenBabel03252507383D

 41 45  0  0  1  0  0  0  0  0999 V2000
   41.8830   28.5980   41.2510 C   0  0  0  0  0  0  0  0  0  0  0  0
   40.7080   27.8470   40.9790 C   0  0  0  0  0  0  0  0  0  0  0  0
   40.3690   26.8550   41.8840 C   0  0  0  0  0  0  0  0  0  0  0  0
   41.1580   26.6510   42.9630 N   0  0  0  0  0  0  0  0  0  0  0  0
   42.2750   27.3810   43.2030 C   0  0  0  0  0  0  0  0  0  0  0  0
   42.6250   28.3400   42.3510 N   0  0  0  0  0  0  0  0  0  0  0  0
   40.0820   27.9980   40.1360 H   0  0  0  0  0  0  0  0  0  0  0  0
   42.9120   27.2250   44.0620 H   0  0  0  0  0  0  0  0  0  0  0  0
   39.2350   24.7590   42.3670 C   0  0  0  0  0  0  0  0  0  0  0  0
   39.1970   26.0000   41.7490 C   0  0  0  0  0  0  0  0  0  0  0  0
   38.0710   26.3420   41.0600 C   0  0  0  0  0  0  0  0  0  0  0  0
   36.9700   25.5150   40.9460 C   0  0  0  0  0  0  0  0  0  0  0  0
   35.7770   25.6430   40.3290 N   0  0  0  0  0  0  0  0  0  0  0  0
   35.0650   24.4800   40.5600 C   0  0  0  0  0  0  0  0  0  0  0  0
   35.8320   23.6770   41.3050 N   0  0  0  0  0  0  0  0  0  0  0  0
   36.9970   24.2910   41.5510 C   0  0  0  0  0  0  0  0  0  0  0  0
   38.1280   23.9110   42.2610 C   0  0  0  0  0  0  0  0  0  0  0  0
   40.0800   24.3950   42.9360 H   0  0  0  0  0  0  0  0  0  0  0  0
   38.0230   27.3110   40.5680 H   0  0  0  0  0  0  0  0  0  0  0  0
   35.4920   26.4870   39.7880 H   0  0  0  0  0  0  0  0  0  0  0  0
   34.0670   24.3860   40.1420 H   0  0  0  0  0  0  0  0  0  0  0  0
   38.1720   22.9300   42.7570 H   0  0  0  0  0  0  0  0  0  0  0  0
   42.2250   29.5960   40.3410 O   0  0  0  0  0  0  0  0  0  0  0  0
   42.0600   29.3770   38.9750 C   0  0  0  0  0  0  0  0  0  0  0  0
   42.4030   30.5870   38.4900 C   0  0  0  0  0  0  0  0  0  0  0  0
   42.1910   30.3280   36.6140 S   0  0  0  0  0  0  0  0  0  0  0  0
   41.6590   28.5410   36.9490 C   0  0  0  0  0  0  0  0  0  0  0  0
   41.7290   28.5210   38.0480 N   0  0  0  0  0  0  0  0  0  0  0  0
   42.7560   31.7170   38.5280 H   0  0  0  0  0  0  0  0  0  0  0  0
   40.6130   26.3320   36.7040 C   0  0  1  0  0  3  0  0  0  0  0  0
   41.2470   27.4370   35.9480 C   0  0  1  0  0  3  0  0  0  0  0  0
   40.5280   27.9830   34.9280 O   0  0  0  0  0  0  0  0  0  0  0  0
   39.1760   28.1330   35.1730 C   0  0  0  0  0  2  0  0  0  0  0  0
   38.5890   26.7380   35.2610 C   0  0  1  0  0  3  0  0  0  0  0  0
   39.1530   26.1550   36.5470 C   0  0  2  0  0  3  0  0  0  0  0  0
   41.2070   25.1030   36.3320 O   0  0  0  0  0  0  0  0  0  0  0  0
   41.3000   25.1780   35.3390 H   0  0  0  0  0  0  0  0  0  0  0  0
   37.2090   26.7440   35.3190 O   0  0  0  0  0  0  0  0  0  0  0  0
   36.8910   26.8450   34.3650 H   0  0  0  0  0  0  0  0  0  0  0  0
   38.4400   26.7510   37.6020 O   0  0  0  0  0  0  0  0  0  0  0  0
   37.5050   26.4310   37.6320 H   0  0  0  0  0  0  0  0  0  0  0  0
  1  6  1  0  0  0  0
  2  1  2  0  0  0  0
  2  3  1  0  0  0  0
  3  4  2  0  0  0  0
  4  5  1  0  0  0  0
  5  8  1  0  0  0  0
  6  5  2  0  0  0  0
  7  2  1  0  0  0  0
  9 18  1  0  0  0  0
 10  3  1  0  0  0  0
 10  9  2  0  0  0  0
 11 10  1  0  0  0  0
 12 11  2  0  0  0  0
 12 16  1  0  0  0  0
 13 14  1  0  0  0  0
 13 12  1  0  0  0  0
 14 15  2  0  0  0  0
 15 16  1  0  0  0  0
 16 17  2  0  0  0  0
 17  9  1  0  0  0  0
 17 22  1  0  0  0  0
 19 11  1  0  0  0  0
 20 13  1  0  0  0  0
 21 14  1  0  0  0  0
 23  1  1  0  0  0  0
 24 23  1  0  0  0  0
 25 29  1  0  0  0  0
 25 24  2  0  0  0  0
 26 27  1  0  0  0  0
 26 25  1  0  0  0  0
 27 28  2  0  0  0  0
 28 24  1  0  0  0  0
 30 36  1  6  0  0  0
 31 30  1  0  0  0  0
 31 27  1  1  0  0  0
 32 33  1  0  0  0  0
 32 31  1  0  0  0  0
 33 34  1  0  0  0  0
 34 38  1  1  0  0  0
 34 35  1  0  0  0  0
 35 30  1  0  0  0  0
 35 40  1  1  0  0  0
 37 36  1  0  0  0  0
 39 38  1  0  0  0  0
 40 41  1  0  0  0  0
M  END
>  <minimizedAffinity>
-2.34243298

>  <minimizedRMSD>
10.8918419

$$$$
