
 OpenBabel03252506193D

 26 27  0  0  1  0  0  0  0  0999 V2000
   44.8720   35.5450   43.7010 C   0  0  0  0  0  0  0  0  0  0  0  0
   44.0190   35.2390   42.5980 C   0  0  0  0  0  0  0  0  0  0  0  0
   44.0590   33.9180   42.1200 C   0  0  0  0  0  0  0  0  0  0  0  0
   44.8930   33.0140   42.7200 N   0  0  0  0  0  0  0  0  0  0  0  0
   45.6890   33.3610   43.7740 C   0  0  0  0  0  0  0  0  0  0  0  0
   45.6590   34.6270   44.2420 N   0  0  0  0  0  0  0  0  0  0  0  0
   43.4040   36.0210   42.2000 H   0  0  0  0  0  0  0  0  0  0  0  0
   43.4260   33.6690   41.2930 H   0  0  0  0  0  0  0  0  0  0  0  0
   45.8910   31.6940   45.5720 C   0  0  2  0  0  3  0  0  0  0  0  0
   46.5740   32.3650   44.3980 C   0  0  1  0  0  3  0  0  0  0  0  0
   46.9550   31.3400   43.5310 O   0  0  0  0  0  0  0  0  0  0  0  0
   48.0330   30.6820   44.1170 C   0  0  0  0  0  2  0  0  0  0  0  0
   47.6980   30.0470   45.4410 C   0  0  2  0  0  3  0  0  0  0  0  0
   46.9910   31.0090   46.3730 C   0  0  2  0  0  3  0  0  0  0  0  0
   44.9980   30.7020   45.1790 O   0  0  0  0  0  0  0  0  0  0  0  0
   44.1550   31.0540   44.7990 H   0  0  0  0  0  0  0  0  0  0  0  0
   48.9140   29.7160   46.0600 O   0  0  0  0  0  0  0  0  0  0  0  0
   49.1790   28.8400   45.6760 H   0  0  0  0  0  0  0  0  0  0  0  0
   46.3760   30.2910   47.4010 O   0  0  0  0  0  0  0  0  0  0  0  0
   46.3590   30.8210   48.2400 H   0  0  0  0  0  0  0  0  0  0  0  0
   44.8400   36.9080   44.2100 C   0  0  0  0  0  3  0  0  0  0  0  0
   45.3690   37.8750   43.4930 C   0  0  0  0  0  3  0  0  0  0  0  0
   45.3840   39.2900   43.9100 C   0  0  0  0  0  0  0  0  0  0  0  0
   44.4140   39.7430   43.5650 H   0  0  0  0  0  0  0  0  0  0  0  0
   46.1650   39.8540   43.3950 H   0  0  0  0  0  0  0  0  0  0  0  0
   45.3850   39.4120   45.0030 H   0  0  0  0  0  0  0  0  0  0  0  0
  1 21  1  0  0  0  0
  1  6  1  0  0  0  0
  2  1  2  0  0  0  0
  3  2  1  0  0  0  0
  3  4  2  0  0  0  0
  4  5  1  0  0  0  0
  5  6  2  0  0  0  0
  7  2  1  0  0  0  0
  8  3  1  0  0  0  0
  9 15  1  6  0  0  0
  9 14  1  0  0  0  0
 10  5  1  6  0  0  0
 10  9  1  0  0  0  0
 11 12  1  0  0  0  0
 11 10  1  0  0  0  0
 12 13  1  0  0  0  0
 13 17  1  1  0  0  0
 13 14  1  0  0  0  0
 14 19  1  1  0  0  0
 16 15  1  0  0  0  0
 18 17  1  0  0  0  0
 19 20  1  0  0  0  0
 22 23  1  0  0  0  0
 22 21  2  0  0  0  0
 23 26  1  0  0  0  0
 24 23  1  0  0  0  0
 25 23  1  0  0  0  0
M  END
>  <minimizedAffinity>
-3.7002008

>  <minimizedRMSD>
1.01854444

$$$$
