
 OpenBabel03242522073D

 47 50  0  0  1  0  0  0  0  0999 V2000
   44.4250   35.4950   45.6310 C   0  0  0  0  0  0  0  0  0  0  0  0
   44.9590   35.4580   44.3330 C   0  0  0  0  0  0  0  0  0  0  0  0
   45.8020   34.3910   44.0010 C   0  0  0  0  0  0  0  0  0  0  0  0
   46.0410   33.4620   44.9660 N   0  0  0  0  0  0  0  0  0  0  0  0
   45.5030   33.5390   46.2060 C   0  0  0  0  0  0  0  0  0  0  0  0
   44.6880   34.5680   46.5370 N   0  0  0  0  0  0  0  0  0  0  0  0
   43.7780   36.3310   45.8580 H   0  0  0  0  0  0  0  0  0  0  0  0
   44.7860   36.1750   43.5560 H   0  0  0  0  0  0  0  0  0  0  0  0
   46.4120   34.2270   42.7260 N   0  0  0  0  0  0  0  0  0  0  0  0
   45.6380   34.4080   41.5180 C   0  0  0  0  0  0  0  0  0  0  0  0
   46.2770   33.7110   40.3420 C   0  0  0  0  0  0  0  0  0  0  0  0
   47.6330   33.9920   40.1560 N   0  0  0  0  0  0  0  0  0  0  0  0
   48.4320   34.1530   41.3280 C   0  0  2  0  0  0  0  0  0  0  0  0
   47.7930   33.8800   42.6330 C   0  0  0  0  0  0  0  0  0  0  0  0
   44.5870   34.0780   41.6040 H   0  0  0  0  0  0  0  0  0  0  0  0
   45.6350   35.5000   41.2950 H   0  0  0  0  0  0  0  0  0  0  0  0
   45.6910   33.9920   39.4530 H   0  0  0  0  0  0  0  0  0  0  0  0
   46.1600   32.6080   40.5300 H   0  0  0  0  0  0  0  0  0  0  0  0
   47.7890   34.7010   39.4100 H   0  0  0  0  0  0  0  0  0  0  0  0
   49.3290   33.4850   41.2240 H   0  0  0  0  0  0  0  0  0  0  0  0
   48.3270   34.4220   43.4300 H   0  0  0  0  0  0  0  0  0  0  0  0
   47.9050   32.7840   42.8600 H   0  0  0  0  0  0  0  0  0  0  0  0
   48.9520   35.5680   41.3710 C   0  0  0  0  0  0  0  0  0  0  0  0
   50.1760   35.6210   42.0270 F   0  0  0  0  0  0  0  0  0  0  0  0
   48.0570   36.2870   42.1470 F   0  0  0  0  0  0  0  0  0  0  0  0
   49.1140   36.1270   40.1380 F   0  0  0  0  0  0  0  0  0  0  0  0
   45.8060   32.5080   47.1870 C   0  0  0  0  0  0  0  0  0  0  0  0
   44.8700   32.2000   48.1640 C   0  0  0  0  0  0  0  0  0  0  0  0
   45.2020   31.2040   49.0850 C   0  0  0  0  0  0  0  0  0  0  0  0
   46.4280   30.6110   48.9450 C   0  0  0  0  0  0  0  0  0  0  0  0
   47.3560   30.9100   47.9830 C   0  0  0  0  0  0  0  0  0  0  0  0
   47.0030   31.8870   47.0990 N   0  0  0  0  0  0  0  0  0  0  0  0
   43.9360   32.7480   48.1610 H   0  0  0  0  0  0  0  0  0  0  0  0
   44.4800   30.9570   49.8490 H   0  0  0  0  0  0  0  0  0  0  0  0
   46.6770   29.8390   49.6640 H   0  0  0  0  0  0  0  0  0  0  0  0
   49.6870   30.8300   48.8400 C   0  0  2  0  0  0  0  0  0  0  0  0
   48.6670   30.2050   47.9160 C   0  0  1  0  0  0  0  0  0  0  0  0
   48.4710   28.8900   48.3490 O   0  0  0  0  0  0  0  0  0  0  0  0
   49.6290   28.1730   48.0050 C   0  0  0  0  0  0  0  0  0  0  0  0
   50.8360   28.6790   48.7410 C   0  0  2  0  0  0  0  0  0  0  0  0
   50.4750   29.8450   49.6370 C   0  0  2  0  0  0  0  0  0  0  0  0
   48.9620   31.6240   49.7540 O   0  0  0  0  0  0  0  0  0  0  0  0
   48.6720   32.4660   49.3440 H   0  0  0  0  0  0  0  0  0  0  0  0
   51.8310   29.1280   47.8570 O   0  0  0  0  0  0  0  0  0  0  0  0
   51.7780   30.0940   47.6980 H   0  0  0  0  0  0  0  0  0  0  0  0
   49.8000   29.4570   50.7880 O   0  0  0  0  0  0  0  0  0  0  0  0
   49.3490   28.5780   50.6720 H   0  0  0  0  0  0  0  0  0  0  0  0
  1  7  1  0  0  0  0
  1  6  1  0  0  0  0
  2  1  2  0  0  0  0
  3  2  1  0  0  0  0
  3  4  2  0  0  0  0
  4  5  1  0  0  0  0
  5  6  2  0  0  0  0
  5 27  1  0  0  0  0
  8  2  1  0  0  0  0
  9  3  1  0  0  0  0
 10 15  1  0  0  0  0
 10  9  1  0  0  0  0
 11 18  1  0  0  0  0
 11 10  1  0  0  0  0
 12 11  1  0  0  0  0
 12 13  1  0  0  0  0
 13 20  1  6  0  0  0
 13 23  1  0  0  0  0
 13 14  1  0  0  0  0
 14  9  1  0  0  0  0
 14 22  1  0  0  0  0
 14 21  1  0  0  0  0
 16 10  1  0  0  0  0
 17 11  1  0  0  0  0
 19 12  1  0  0  0  0
 23 24  1  0  0  0  0
 23 25  1  0  0  0  0
 26 23  1  0  0  0  0
 27 28  1  0  0  0  0
 28 29  2  0  0  0  0
 29 34  1  0  0  0  0
 30 29  1  0  0  0  0
 30 35  1  0  0  0  0
 31 30  2  0  0  0  0
 32 27  2  0  0  0  0
 32 31  1  0  0  0  0
 33 28  1  0  0  0  0
 36 41  1  0  0  0  0
 36 42  1  1  0  0  0
 37 31  1  1  0  0  0
 37 38  1  0  0  0  0
 37 36  1  0  0  0  0
 39 38  1  0  0  0  0
 39 40  1  0  0  0  0
 40 44  1  6  0  0  0
 40 41  1  0  0  0  0
 41 46  1  1  0  0  0
 43 42  1  0  0  0  0
 45 44  1  0  0  0  0
 47 46  1  0  0  0  0
M  END
>  <minimizedAffinity>
-7.66032362

>  <minimizedRMSD>
1.31747532

$$$$
