
 OpenBabel03242519313D

 51 54  0  0  1  0  0  0  0  0999 V2000
   52.2230   29.0570   45.7850 C   0  0  0  0  0  0  0  0  0  0  0  0
   52.7630   27.8360   45.6800 N   0  0  0  0  0  0  0  0  0  0  0  0
   52.3560   27.2680   44.5150 C   0  0  0  0  0  0  0  0  0  0  0  0
   51.5540   28.1650   43.9070 N   0  0  0  0  0  0  0  0  0  0  0  0
   51.4630   29.2580   44.6670 N   0  0  0  0  0  0  0  0  0  0  0  0
   52.6280   26.2870   44.1550 H   0  0  0  0  0  0  0  0  0  0  0  0
   52.2000   30.6170   49.1170 C   0  0  0  0  0  0  0  0  0  0  0  0
   53.3040   31.5040   48.9900 C   0  0  0  0  0  0  0  0  0  0  0  0
   54.0160   31.5480   47.7860 C   0  0  0  0  0  0  0  0  0  0  0  0
   53.5950   30.7130   46.7810 N   0  0  0  0  0  0  0  0  0  0  0  0
   52.5160   29.8710   46.9610 C   0  0  0  0  0  0  0  0  0  0  0  0
   51.8370   29.8260   48.1010 N   0  0  0  0  0  0  0  0  0  0  0  0
   53.6730   32.1670   49.7230 H   0  0  0  0  0  0  0  0  0  0  0  0
   54.8600   32.2020   47.6370 H   0  0  0  0  0  0  0  0  0  0  0  0
   51.5380   30.6520   50.4260 C   0  0  0  0  0  0  0  0  0  0  0  0
   52.1400   31.5380   51.3900 C   0  0  0  0  0  0  0  0  0  0  0  0
   52.7670   30.8680   52.5400 C   0  0  0  0  0  0  0  0  0  0  0  0
   51.7660   29.9480   53.2490 C   0  0  0  0  0  0  0  0  0  0  0  0
   50.9310   29.1300   52.3190 C   0  0  0  0  0  0  0  0  0  0  0  0
   51.4790   29.1630   50.9020 C   0  0  0  0  0  0  0  0  0  0  0  0
   50.4430   30.8610   50.2360 H   0  0  0  0  0  0  0  0  0  0  0  0
   51.3560   32.2350   51.8130 H   0  0  0  0  0  0  0  0  0  0  0  0
   52.8930   32.2320   50.9390 H   0  0  0  0  0  0  0  0  0  0  0  0
   53.0030   31.6630   53.3050 H   0  0  0  0  0  0  0  0  0  0  0  0
   53.7150   30.3460   52.3720 H   0  0  0  0  0  0  0  0  0  0  0  0
   51.0550   30.6380   53.7920 H   0  0  0  0  0  0  0  0  0  0  0  0
   52.2930   29.3790   54.0360 H   0  0  0  0  0  0  0  0  0  0  0  0
   51.0280   28.0740   52.6450 H   0  0  0  0  0  0  0  0  0  0  0  0
   49.8470   29.3710   52.3400 H   0  0  0  0  0  0  0  0  0  0  0  0
   52.5120   28.7820   50.9390 H   0  0  0  0  0  0  0  0  0  0  0  0
   50.7970   28.5910   50.2420 H   0  0  0  0  0  0  0  0  0  0  0  0
   50.8620   28.0030   42.6560 C   0  0  0  0  0  0  0  0  0  0  0  0
   50.2280   27.1280   42.5980 H   0  0  0  0  0  0  0  0  0  0  0  0
   51.6390   27.8580   41.8450 H   0  0  0  0  0  0  0  0  0  0  0  0
   50.0910   29.2090   42.3580 C   0  0  0  0  0  3  0  0  0  0  0  0
   49.9000   29.9400   41.2650 C   0  0  0  0  0  3  0  0  0  0  0  0
   48.9540   31.1490   41.1330 C   0  0  0  0  0  0  0  0  0  0  0  0
   49.2840   31.7100   40.2620 H   0  0  0  0  0  0  0  0  0  0  0  0
   47.9540   30.7180   40.9590 H   0  0  0  0  0  0  0  0  0  0  0  0
   48.0160   33.1420   42.1320 C   0  0  1  0  0  3  0  0  0  0  0  0
   48.8980   31.9350   42.4050 C   0  0  2  0  0  3  0  0  0  0  0  0
   50.1110   32.2450   42.9630 O   0  0  0  0  0  0  0  0  0  0  0  0
   50.8410   33.2140   42.3220 C   0  0  0  0  0  2  0  0  0  0  0  0
   50.1010   34.5170   42.1260 C   0  0  1  0  0  3  0  0  0  0  0  0
   48.7990   34.2340   41.4120 C   0  0  2  0  0  3  0  0  0  0  0  0
   47.0170   32.7520   41.2240 O   0  0  0  0  0  0  0  0  0  0  0  0
   46.3330   32.2060   41.6550 H   0  0  0  0  0  0  0  0  0  0  0  0
   49.8160   35.1390   43.3340 O   0  0  0  0  0  0  0  0  0  0  0  0
   49.0590   34.7040   43.7980 H   0  0  0  0  0  0  0  0  0  0  0  0
   48.0190   35.3710   41.4090 O   0  0  0  0  0  0  0  0  0  0  0  0
   47.1570   35.2360   40.9690 H   0  0  0  0  0  0  0  0  0  0  0  0
  1 11  1  0  0  0  0
  2  1  1  0  0  0  0
  3  2  2  0  0  0  0
  4  3  1  0  0  0  0
  4  5  1  0  0  0  0
  5  1  2  0  0  0  0
  6  3  1  0  0  0  0
  7 15  1  0  0  0  0
  8  7  1  0  0  0  0
  8 13  1  0  0  0  0
  9  8  2  0  0  0  0
 10 11  2  0  0  0  0
 10  9  1  0  0  0  0
 11 12  1  0  0  0  0
 12  7  2  0  0  0  0
 14  9  1  0  0  0  0
 15 20  1  0  0  0  0
 15 16  1  0  0  0  0
 16 22  1  0  0  0  0
 16 17  1  0  0  0  0
 17 18  1  0  0  0  0
 17 24  1  0  0  0  0
 18 26  1  0  0  0  0
 18 27  1  0  0  0  0
 19 29  1  0  0  0  0
 19 28  1  0  0  0  0
 19 18  1  0  0  0  0
 20 30  1  0  0  0  0
 20 19  1  0  0  0  0
 21 15  1  0  0  0  0
 23 16  1  0  0  0  0
 25 17  1  0  0  0  0
 31 20  1  0  0  0  0
 32  4  1  0  0  0  0
 33 32  1  0  0  0  0
 34 32  1  0  0  0  0
 35 32  1  0  0  0  0
 36 35  2  0  0  0  0
 37 36  1  0  0  0  0
 38 37  1  0  0  0  0
 39 37  1  0  0  0  0
 40 46  1  6  0  0  0
 40 41  1  0  0  0  0
 41 37  1  6  0  0  0
 41 42  1  0  0  0  0
 43 42  1  0  0  0  0
 44 43  1  0  0  0  0
 44 48  1  1  0  0  0
 45 50  1  1  0  0  0
 45 44  1  0  0  0  0
 45 40  1  0  0  0  0
 46 47  1  0  0  0  0
 48 49  1  0  0  0  0
 51 50  1  0  0  0  0
M  END
>  <minimizedAffinity>
-4.26206112

>  <minimizedRMSD>
7.92158365

$$$$
