
 OpenBabel03242518263D

 48 52  0  0  1  0  0  0  0  0999 V2000
   47.0370   30.4530   45.0590 C   0  0  0  0  0  0  0  0  0  0  0  0
   46.5250   31.6930   45.2870 C   0  0  0  0  0  0  0  0  0  0  0  0
   46.7910   32.2860   46.5030 C   0  0  0  0  0  0  0  0  0  0  0  0
   47.5490   31.6410   47.4520 C   0  0  0  0  0  0  0  0  0  0  0  0
   48.0650   30.3750   47.2010 C   0  0  0  0  0  0  0  0  0  0  0  0
   47.8060   29.7620   45.9800 C   0  0  0  0  0  0  0  0  0  0  0  0
   48.7830   29.9740   48.3250 O   0  0  0  0  0  0  0  0  0  0  0  0
   48.4470   30.8620   49.3840 C   0  0  2  0  0  0  0  0  0  0  0  0
   47.9620   32.0120   48.7450 O   0  0  0  0  0  0  0  0  0  0  0  0
   46.8820   29.9060   44.1320 H   0  0  0  0  0  0  0  0  0  0  0  0
   46.4050   33.2700   46.7310 H   0  0  0  0  0  0  0  0  0  0  0  0
   48.2150   28.7940   45.8230 H   0  0  0  0  0  0  0  0  0  0  0  0
   47.6430   30.4430   50.0330 H   0  0  0  0  0  0  0  0  0  0  0  0
   44.8730   34.3360   43.3100 C   0  0  0  0  0  0  0  0  0  0  0  0
   44.1970   33.6100   42.3480 C   0  0  0  0  0  0  0  0  0  0  0  0
   44.3150   32.2220   42.3880 C   0  0  0  0  0  0  0  0  0  0  0  0
   45.0700   31.6200   43.3430 N   0  0  0  0  0  0  0  0  0  0  0  0
   45.7200   32.3690   44.2730 C   0  0  0  0  0  0  0  0  0  0  0  0
   45.6160   33.7170   44.2480 N   0  0  0  0  0  0  0  0  0  0  0  0
   44.8830   35.4110   43.4130 H   0  0  0  0  0  0  0  0  0  0  0  0
   43.7850   31.6800   41.6360 H   0  0  0  0  0  0  0  0  0  0  0  0
   43.4400   34.3340   41.4010 N   0  0  0  0  0  0  0  0  0  0  0  0
   43.3270   33.7970   40.0740 C   0  0  0  0  0  0  0  0  0  0  0  0
   42.5940   34.6680   39.1240 C   0  0  0  0  0  0  0  0  0  0  0  0
   41.3810   35.1990   39.6590 N   0  0  0  0  0  0  0  0  0  0  0  0
   41.3360   35.4990   41.0340 C   0  0  0  0  0  0  0  0  0  0  0  0
   42.7530   35.5750   41.6040 C   0  0  0  0  0  0  0  0  0  0  0  0
   42.9020   32.7610   40.1500 H   0  0  0  0  0  0  0  0  0  0  0  0
   44.3720   33.6590   39.6870 H   0  0  0  0  0  0  0  0  0  0  0  0
   43.2210   35.4910   38.7720 H   0  0  0  0  0  0  0  0  0  0  0  0
   42.3490   34.0550   38.2210 H   0  0  0  0  0  0  0  0  0  0  0  0
   41.1080   36.0420   39.1000 H   0  0  0  0  0  0  0  0  0  0  0  0
   40.8350   34.6730   41.5820 H   0  0  0  0  0  0  0  0  0  0  0  0
   40.7750   36.4100   41.2990 H   0  0  0  0  0  0  0  0  0  0  0  0
   42.6810   35.8900   42.6620 H   0  0  0  0  0  0  0  0  0  0  0  0
   43.2920   36.3710   41.0480 H   0  0  0  0  0  0  0  0  0  0  0  0
   50.0710   29.8810   50.9560 C   0  0  2  0  0  3  0  0  0  0  0  0
   49.7170   31.0980   50.1490 C   0  0  1  0  0  3  0  0  0  0  0  0
   50.6980   31.5020   49.2720 O   0  0  0  0  0  0  0  0  0  0  0  0
   51.9340   30.9390   49.4730 C   0  0  0  0  0  2  0  0  0  0  0  0
   52.3420   30.8040   50.9060 C   0  0  2  0  0  3  0  0  0  0  0  0
   51.2710   30.2880   51.8180 C   0  0  2  0  0  3  0  0  0  0  0  0
   50.3290   28.7560   50.2050 O   0  0  0  0  0  0  0  0  0  0  0  0
   49.6330   28.0590   50.2750 H   0  0  0  0  0  0  0  0  0  0  0  0
   52.8770   32.0070   51.3700 O   0  0  0  0  0  0  0  0  0  0  0  0
   52.2010   32.6980   51.4860 H   0  0  0  0  0  0  0  0  0  0  0  0
   51.6580   29.2190   52.6050 O   0  0  0  0  0  0  0  0  0  0  0  0
   51.4570   29.3910   53.5750 H   0  0  0  0  0  0  0  0  0  0  0  0
  1  2  2  0  0  0  0
  1  6  1  0  0  0  0
  2  3  1  0  0  0  0
  3 11  1  0  0  0  0
  3  4  2  0  0  0  0
  4  9  1  0  0  0  0
  5  4  1  0  0  0  0
  5  7  1  0  0  0  0
  6  5  2  0  0  0  0
  7  8  1  0  0  0  0
  8 13  1  1  0  0  0
  8 38  1  0  0  0  0
  9  8  1  0  0  0  0
 10  1  1  0  0  0  0
 12  6  1  0  0  0  0
 14 20  1  0  0  0  0
 14 19  1  0  0  0  0
 15 16  1  0  0  0  0
 15 14  2  0  0  0  0
 16 17  2  0  0  0  0
 17 18  1  0  0  0  0
 18  2  1  0  0  0  0
 19 18  2  0  0  0  0
 21 16  1  0  0  0  0
 22 27  1  0  0  0  0
 22 15  1  0  0  0  0
 23 28  1  0  0  0  0
 23 22  1  0  0  0  0
 24 25  1  0  0  0  0
 24 23  1  0  0  0  0
 25 26  1  0  0  0  0
 26 34  1  0  0  0  0
 26 33  1  0  0  0  0
 26 27  1  0  0  0  0
 27 35  1  0  0  0  0
 29 23  1  0  0  0  0
 30 24  1  0  0  0  0
 31 24  1  0  0  0  0
 32 25  1  0  0  0  0
 36 27  1  0  0  0  0
 37 43  1  6  0  0  0
 37 42  1  0  0  0  0
 38 39  1  6  0  0  0
 38 37  1  0  0  0  0
 39 40  1  0  0  0  0
 40 41  1  0  0  0  0
 41 45  1  1  0  0  0
 41 42  1  0  0  0  0
 42 47  1  6  0  0  0
 43 44  1  0  0  0  0
 45 46  1  0  0  0  0
 47 48  1  0  0  0  0
M  END
>  <minimizedAffinity>
-6.37656879

>  <minimizedRMSD>
1.4064554

$$$$
