
 OpenBabel03242515143D

 30 31  0  0  1  0  0  0  0  0999 V2000
   46.5120   33.1640   46.3310 C   0  0  0  0  0  0  0  0  0  0  0  0
   47.3330   32.5760   45.8270 H   0  0  0  0  0  0  0  0  0  0  0  0
   47.0030   33.7750   47.0950 H   0  0  0  0  0  0  0  0  0  0  0  0
   44.5860   35.6700   44.3090 C   0  0  0  0  0  0  0  0  0  0  0  0
   45.3100   35.6220   43.0910 C   0  0  0  0  0  0  0  0  0  0  0  0
   46.3950   34.7500   43.0420 C   0  0  0  0  0  0  0  0  0  0  0  0
   46.7000   33.9970   44.1490 N   0  0  0  0  0  0  0  0  0  0  0  0
   45.9700   34.0840   45.2890 C   0  0  0  0  0  0  0  0  0  0  0  0
   44.9200   34.9140   45.3690 N   0  0  0  0  0  0  0  0  0  0  0  0
   43.7300   36.3190   44.4350 H   0  0  0  0  0  0  0  0  0  0  0  0
   45.0020   36.2450   42.2760 H   0  0  0  0  0  0  0  0  0  0  0  0
   47.1290   34.7100   41.7900 C   0  0  0  0  0  0  0  0  0  0  0  0
   47.9710   33.5940   41.7680 F   0  0  0  0  0  0  0  0  0  0  0  0
   47.9790   35.8050   41.8000 F   0  0  0  0  0  0  0  0  0  0  0  0
   46.3270   34.6580   40.6860 F   0  0  0  0  0  0  0  0  0  0  0  0
   45.5000   32.1920   46.8190 C   0  0  0  0  0  0  0  0  0  0  0  0
   44.6870   32.6500   47.4110 H   0  0  0  0  0  0  0  0  0  0  0  0
   44.9840   31.7820   45.9070 H   0  0  0  0  0  0  0  0  0  0  0  0
   45.1650   29.9010   47.7830 C   0  0  2  0  0  3  0  0  0  0  0  0
   46.1190   31.0200   47.4990 C   0  0  1  0  0  3  0  0  0  0  0  0
   47.1910   30.5260   46.7610 O   0  0  0  0  0  0  0  0  0  0  0  0
   46.8170   29.6660   45.7570 C   0  0  0  0  0  2  0  0  0  0  0  0
   46.4620   28.3450   46.3910 C   0  0  1  0  0  3  0  0  0  0  0  0
   45.9810   28.6040   47.8130 C   0  0  2  0  0  3  0  0  0  0  0  0
   44.1860   29.7050   46.8430 O   0  0  0  0  0  0  0  0  0  0  0  0
   43.9740   30.4460   46.2560 H   0  0  0  0  0  0  0  0  0  0  0  0
   45.5050   27.6410   45.6640 O   0  0  0  0  0  0  0  0  0  0  0  0
   45.4100   28.0300   44.7440 H   0  0  0  0  0  0  0  0  0  0  0  0
   45.1870   27.5400   48.2390 O   0  0  0  0  0  0  0  0  0  0  0  0
   45.3570   27.2780   49.1790 H   0  0  0  0  0  0  0  0  0  0  0  0
  1 16  1  0  0  0  0
  1  3  1  0  0  0  0
  2  1  1  0  0  0  0
  4 10  1  0  0  0  0
  4  9  1  0  0  0  0
  5  4  2  0  0  0  0
  6  5  1  0  0  0  0
  6  7  2  0  0  0  0
  7  8  1  0  0  0  0
  8  9  2  0  0  0  0
  8  1  1  0  0  0  0
 11  5  1  0  0  0  0
 12 14  1  0  0  0  0
 12  6  1  0  0  0  0
 13 12  1  0  0  0  0
 15 12  1  0  0  0  0
 16 17  1  0  0  0  0
 18 16  1  0  0  0  0
 19 25  1  6  0  0  0
 19 24  1  0  0  0  0
 20 16  1  6  0  0  0
 20 19  1  0  0  0  0
 21 20  1  0  0  0  0
 22 23  1  0  0  0  0
 22 21  1  0  0  0  0
 23 27  1  6  0  0  0
 23 24  1  0  0  0  0
 24 29  1  6  0  0  0
 26 25  1  0  0  0  0
 28 27  1  0  0  0  0
 29 30  1  0  0  0  0
M  END
>  <minimizedAffinity>
-5.19612551

>  <minimizedRMSD>
1.58975744

$$$$
