
 OpenBabel03242518263D

 48 52  0  0  1  0  0  0  0  0999 V2000
   46.3280   30.6640   44.3160 C   0  0  0  0  0  0  0  0  0  0  0  0
   45.9510   31.9530   44.5410 C   0  0  0  0  0  0  0  0  0  0  0  0
   46.4160   32.5700   45.6830 C   0  0  0  0  0  0  0  0  0  0  0  0
   47.2340   31.9000   46.5640 C   0  0  0  0  0  0  0  0  0  0  0  0
   47.6090   30.5850   46.3170 C   0  0  0  0  0  0  0  0  0  0  0  0
   47.1490   29.9470   45.1700 C   0  0  0  0  0  0  0  0  0  0  0  0
   48.4280   30.1690   47.3640 O   0  0  0  0  0  0  0  0  0  0  0  0
   48.3010   31.1250   48.4090 C   0  0  2  0  0  0  0  0  0  0  0  0
   47.8350   32.2860   47.7760 O   0  0  0  0  0  0  0  0  0  0  0  0
   46.0130   30.0950   43.4450 H   0  0  0  0  0  0  0  0  0  0  0  0
   46.1440   33.5920   45.9060 H   0  0  0  0  0  0  0  0  0  0  0  0
   47.4550   28.9420   45.0140 H   0  0  0  0  0  0  0  0  0  0  0  0
   47.5550   30.8050   49.1720 H   0  0  0  0  0  0  0  0  0  0  0  0
   44.2710   34.6460   42.6590 C   0  0  0  0  0  0  0  0  0  0  0  0
   43.4340   33.9430   41.8140 C   0  0  0  0  0  0  0  0  0  0  0  0
   43.4560   32.5520   41.9000 C   0  0  0  0  0  0  0  0  0  0  0  0
   44.2730   31.9260   42.7850 N   0  0  0  0  0  0  0  0  0  0  0  0
   45.0830   32.6540   43.6000 C   0  0  0  0  0  0  0  0  0  0  0  0
   45.0740   34.0040   43.5290 N   0  0  0  0  0  0  0  0  0  0  0  0
   44.3710   35.7210   42.7150 H   0  0  0  0  0  0  0  0  0  0  0  0
   42.8010   32.0270   41.2380 H   0  0  0  0  0  0  0  0  0  0  0  0
   42.6250   34.6910   40.9320 N   0  0  0  0  0  0  0  0  0  0  0  0
   42.8020   34.4930   39.5200 C   0  0  0  0  0  0  0  0  0  0  0  0
   41.9770   35.3850   38.6710 C   0  0  0  0  0  0  0  0  0  0  0  0
   40.6160   35.4770   39.0960 N   0  0  0  0  0  0  0  0  0  0  0  0
   40.3440   35.4040   40.4740 C   0  0  0  0  0  0  0  0  0  0  0  0
   41.6200   35.6520   41.2790 C   0  0  0  0  0  0  0  0  0  0  0  0
   42.6550   33.4030   39.2990 H   0  0  0  0  0  0  0  0  0  0  0  0
   43.8830   34.6960   39.2960 H   0  0  0  0  0  0  0  0  0  0  0  0
   42.4040   36.3900   38.6160 H   0  0  0  0  0  0  0  0  0  0  0  0
   42.0010   34.9790   37.6290 H   0  0  0  0  0  0  0  0  0  0  0  0
   40.1980   36.3480   38.6930 H   0  0  0  0  0  0  0  0  0  0  0  0
   40.0180   34.3750   40.7390 H   0  0  0  0  0  0  0  0  0  0  0  0
   39.5400   36.0680   40.8320 H   0  0  0  0  0  0  0  0  0  0  0  0
   41.3530   35.6670   42.3520 H   0  0  0  0  0  0  0  0  0  0  0  0
   41.9920   36.6630   41.0070 H   0  0  0  0  0  0  0  0  0  0  0  0
   49.6140   31.1300   50.4940 C   0  0  2  0  0  3  0  0  0  0  0  0
   49.6740   31.2820   48.9990 C   0  0  1  0  0  3  0  0  0  0  0  0
   50.5310   30.4050   48.3750 O   0  0  0  0  0  0  0  0  0  0  0  0
   51.4100   29.7510   49.2040 C   0  0  0  0  0  2  0  0  0  0  0  0
   51.9980   30.5920   50.2920 C   0  0  2  0  0  3  0  0  0  0  0  0
   51.0180   31.4750   51.0030 C   0  0  2  0  0  3  0  0  0  0  0  0
   49.1950   29.8910   50.9230 O   0  0  0  0  0  0  0  0  0  0  0  0
   48.2940   29.8910   51.3300 H   0  0  0  0  0  0  0  0  0  0  0  0
   53.0860   31.3170   49.8060 O   0  0  0  0  0  0  0  0  0  0  0  0
   52.8200   32.0370   49.2090 H   0  0  0  0  0  0  0  0  0  0  0  0
   51.0490   31.3680   52.3810 O   0  0  0  0  0  0  0  0  0  0  0  0
   51.1450   32.2720   52.8130 H   0  0  0  0  0  0  0  0  0  0  0  0
  1  2  2  0  0  0  0
  1  6  1  0  0  0  0
  2  3  1  0  0  0  0
  3 11  1  0  0  0  0
  3  4  2  0  0  0  0
  4  9  1  0  0  0  0
  5  4  1  0  0  0  0
  5  7  1  0  0  0  0
  6  5  2  0  0  0  0
  7  8  1  0  0  0  0
  8 38  1  0  0  0  0
  8 13  1  1  0  0  0
  9  8  1  0  0  0  0
 10  1  1  0  0  0  0
 12  6  1  0  0  0  0
 14 20  1  0  0  0  0
 14 19  1  0  0  0  0
 15 16  1  0  0  0  0
 15 14  2  0  0  0  0
 16 17  2  0  0  0  0
 17 18  1  0  0  0  0
 18  2  1  0  0  0  0
 19 18  2  0  0  0  0
 21 16  1  0  0  0  0
 22 27  1  0  0  0  0
 22 15  1  0  0  0  0
 23 22  1  0  0  0  0
 24 25  1  0  0  0  0
 24 23  1  0  0  0  0
 25 26  1  0  0  0  0
 26 33  1  0  0  0  0
 26 34  1  0  0  0  0
 26 27  1  0  0  0  0
 27 35  1  0  0  0  0
 28 23  1  0  0  0  0
 29 23  1  0  0  0  0
 30 24  1  0  0  0  0
 31 24  1  0  0  0  0
 32 25  1  0  0  0  0
 36 27  1  0  0  0  0
 37 43  1  6  0  0  0
 37 42  1  0  0  0  0
 38 39  1  6  0  0  0
 38 37  1  0  0  0  0
 39 40  1  0  0  0  0
 40 41  1  0  0  0  0
 41 45  1  6  0  0  0
 41 42  1  0  0  0  0
 42 47  1  1  0  0  0
 43 44  1  0  0  0  0
 46 45  1  0  0  0  0
 47 48  1  0  0  0  0
M  END
>  <minimizedAffinity>
-6.11241865

>  <minimizedRMSD>
0.696691751

$$$$
