
 OpenBabel03242518263D

 48 52  0  0  1  0  0  0  0  0999 V2000
   46.6350   30.6870   44.6080 C   0  0  0  0  0  0  0  0  0  0  0  0
   46.1390   31.9320   44.8480 C   0  0  0  0  0  0  0  0  0  0  0  0
   46.4490   32.5270   46.0530 C   0  0  0  0  0  0  0  0  0  0  0  0
   47.2340   31.8800   46.9790 C   0  0  0  0  0  0  0  0  0  0  0  0
   47.7320   30.6090   46.7150 C   0  0  0  0  0  0  0  0  0  0  0  0
   47.4300   29.9940   45.5050 C   0  0  0  0  0  0  0  0  0  0  0  0
   48.4840   30.2070   47.8170 O   0  0  0  0  0  0  0  0  0  0  0  0
   48.1890   31.1000   48.8830 C   0  0  2  0  0  0  0  0  0  0  0  0
   47.6910   32.2510   48.2560 O   0  0  0  0  0  0  0  0  0  0  0  0
   46.4450   30.1390   43.6890 H   0  0  0  0  0  0  0  0  0  0  0  0
   46.0780   33.5140   46.2900 H   0  0  0  0  0  0  0  0  0  0  0  0
   47.8260   29.0230   45.3380 H   0  0  0  0  0  0  0  0  0  0  0  0
   47.4040   30.6890   49.5590 H   0  0  0  0  0  0  0  0  0  0  0  0
   44.4980   34.5800   42.8700 C   0  0  0  0  0  0  0  0  0  0  0  0
   43.7270   33.8550   41.9820 C   0  0  0  0  0  0  0  0  0  0  0  0
   43.7790   32.4660   42.0720 C   0  0  0  0  0  0  0  0  0  0  0  0
   44.5610   31.8610   43.0020 N   0  0  0  0  0  0  0  0  0  0  0  0
   45.3060   32.6100   43.8590 C   0  0  0  0  0  0  0  0  0  0  0  0
   45.2670   33.9600   43.7850 N   0  0  0  0  0  0  0  0  0  0  0  0
   44.5680   35.6570   42.9290 H   0  0  0  0  0  0  0  0  0  0  0  0
   43.1750   31.9240   41.3760 H   0  0  0  0  0  0  0  0  0  0  0  0
   42.9490   34.5810   41.0550 N   0  0  0  0  0  0  0  0  0  0  0  0
   43.1150   34.2900   39.6580 C   0  0  0  0  0  0  0  0  0  0  0  0
   42.3270   35.1630   38.7550 C   0  0  0  0  0  0  0  0  0  0  0  0
   40.9730   35.3390   39.1720 N   0  0  0  0  0  0  0  0  0  0  0  0
   40.7000   35.3630   40.5520 C   0  0  0  0  0  0  0  0  0  0  0  0
   41.9870   35.6050   41.3410 C   0  0  0  0  0  0  0  0  0  0  0  0
   42.9210   33.1950   39.5040 H   0  0  0  0  0  0  0  0  0  0  0  0
   44.2030   34.4320   39.4220 H   0  0  0  0  0  0  0  0  0  0  0  0
   42.7970   36.1430   38.6390 H   0  0  0  0  0  0  0  0  0  0  0  0
   42.3320   34.6930   37.7400 H   0  0  0  0  0  0  0  0  0  0  0  0
   40.5910   36.2010   38.7160 H   0  0  0  0  0  0  0  0  0  0  0  0
   40.3300   34.3670   40.8790 H   0  0  0  0  0  0  0  0  0  0  0  0
   39.9260   36.0820   40.8680 H   0  0  0  0  0  0  0  0  0  0  0  0
   41.7230   35.6980   42.4110 H   0  0  0  0  0  0  0  0  0  0  0  0
   42.4020   36.5800   41.0080 H   0  0  0  0  0  0  0  0  0  0  0  0
   49.6680   30.3010   50.6840 C   0  0  2  0  0  3  0  0  0  0  0  0
   49.4850   31.3310   49.6050 C   0  0  1  0  0  3  0  0  0  0  0  0
   50.5070   31.3740   48.6850 O   0  0  0  0  0  0  0  0  0  0  0  0
   51.6530   30.7090   49.0460 C   0  0  0  0  0  2  0  0  0  0  0  0
   52.0460   30.8590   50.4820 C   0  0  2  0  0  3  0  0  0  0  0  0
   50.9180   30.7270   51.4600 C   0  0  2  0  0  3  0  0  0  0  0  0
   49.7580   29.0060   50.2250 O   0  0  0  0  0  0  0  0  0  0  0  0
   48.9700   28.4490   50.4370 H   0  0  0  0  0  0  0  0  0  0  0  0
   52.7500   32.0510   50.6650 O   0  0  0  0  0  0  0  0  0  0  0  0
   52.1810   32.8370   50.5980 H   0  0  0  0  0  0  0  0  0  0  0  0
   51.1550   29.8310   52.4850 O   0  0  0  0  0  0  0  0  0  0  0  0
   50.9870   30.2540   53.3830 H   0  0  0  0  0  0  0  0  0  0  0  0
  1  2  2  0  0  0  0
  1  6  1  0  0  0  0
  2  3  1  0  0  0  0
  3 11  1  0  0  0  0
  3  4  2  0  0  0  0
  4  9  1  0  0  0  0
  5  4  1  0  0  0  0
  5  7  1  0  0  0  0
  6  5  2  0  0  0  0
  7  8  1  0  0  0  0
  8 13  1  1  0  0  0
  8 38  1  0  0  0  0
  9  8  1  0  0  0  0
 10  1  1  0  0  0  0
 12  6  1  0  0  0  0
 14 20  1  0  0  0  0
 14 19  1  0  0  0  0
 15 16  1  0  0  0  0
 15 14  2  0  0  0  0
 16 17  2  0  0  0  0
 17 18  1  0  0  0  0
 18  2  1  0  0  0  0
 19 18  2  0  0  0  0
 21 16  1  0  0  0  0
 22 27  1  0  0  0  0
 22 15  1  0  0  0  0
 23 22  1  0  0  0  0
 24 25  1  0  0  0  0
 24 23  1  0  0  0  0
 25 26  1  0  0  0  0
 26 34  1  0  0  0  0
 26 33  1  0  0  0  0
 26 27  1  0  0  0  0
 27 35  1  0  0  0  0
 28 23  1  0  0  0  0
 29 23  1  0  0  0  0
 30 24  1  0  0  0  0
 31 24  1  0  0  0  0
 32 25  1  0  0  0  0
 36 27  1  0  0  0  0
 37 43  1  6  0  0  0
 37 42  1  0  0  0  0
 38 39  1  6  0  0  0
 38 37  1  0  0  0  0
 39 40  1  0  0  0  0
 40 41  1  0  0  0  0
 41 45  1  6  0  0  0
 41 42  1  0  0  0  0
 42 47  1  1  0  0  0
 43 44  1  0  0  0  0
 46 45  1  0  0  0  0
 47 48  1  0  0  0  0
M  END
>  <minimizedAffinity>
-6.30075312

>  <minimizedRMSD>
0.686373532

$$$$
