
 OpenBabel03242519313D

 51 54  0  0  1  0  0  0  0  0999 V2000
   50.5050   31.0060   41.4540 C   0  0  0  0  0  0  0  0  0  0  0  0
   50.5460   30.7420   40.1420 N   0  0  0  0  0  0  0  0  0  0  0  0
   51.2200   29.5790   39.9420 C   0  0  0  0  0  0  0  0  0  0  0  0
   51.5940   29.1350   41.1590 N   0  0  0  0  0  0  0  0  0  0  0  0
   51.1670   29.9920   42.0890 N   0  0  0  0  0  0  0  0  0  0  0  0
   51.4140   29.1110   38.9890 H   0  0  0  0  0  0  0  0  0  0  0  0
   48.0180   33.4520   42.6210 C   0  0  0  0  0  0  0  0  0  0  0  0
   48.8460   34.5960   42.7920 C   0  0  0  0  0  0  0  0  0  0  0  0
   50.2130   34.5030   42.5040 C   0  0  0  0  0  0  0  0  0  0  0  0
   50.6790   33.2880   42.0680 N   0  0  0  0  0  0  0  0  0  0  0  0
   49.8280   32.2110   41.9220 C   0  0  0  0  0  0  0  0  0  0  0  0
   48.5310   32.2940   42.1920 N   0  0  0  0  0  0  0  0  0  0  0  0
   48.5480   35.5520   43.1220 H   0  0  0  0  0  0  0  0  0  0  0  0
   50.8850   35.3390   42.6160 H   0  0  0  0  0  0  0  0  0  0  0  0
   46.6070   33.6670   42.9610 C   0  0  0  0  0  0  0  0  0  0  0  0
   45.9460   34.6960   42.1980 C   0  0  0  0  0  0  0  0  0  0  0  0
   45.5580   35.8870   42.9710 C   0  0  0  0  0  0  0  0  0  0  0  0
   44.6830   35.5000   44.1690 C   0  0  0  0  0  0  0  0  0  0  0  0
   45.1710   34.2990   44.9130 C   0  0  0  0  0  0  0  0  0  0  0  0
   46.5860   33.9280   44.5040 C   0  0  0  0  0  0  0  0  0  0  0  0
   46.0970   32.6600   42.9060 H   0  0  0  0  0  0  0  0  0  0  0  0
   44.9960   34.2860   41.7430 H   0  0  0  0  0  0  0  0  0  0  0  0
   46.5390   35.0350   41.3120 H   0  0  0  0  0  0  0  0  0  0  0  0
   44.8760   36.5040   42.3170 H   0  0  0  0  0  0  0  0  0  0  0  0
   46.3510   36.5750   43.2820 H   0  0  0  0  0  0  0  0  0  0  0  0
   43.6810   35.2190   43.7320 H   0  0  0  0  0  0  0  0  0  0  0  0
   44.5010   36.3970   44.7880 H   0  0  0  0  0  0  0  0  0  0  0  0
   45.2420   34.5900   45.9810 H   0  0  0  0  0  0  0  0  0  0  0  0
   44.4920   33.4220   44.8660 H   0  0  0  0  0  0  0  0  0  0  0  0
   47.2280   34.8000   44.7060 H   0  0  0  0  0  0  0  0  0  0  0  0
   46.8800   33.0010   45.0380 H   0  0  0  0  0  0  0  0  0  0  0  0
   52.3560   27.9510   41.4550 C   0  0  0  0  0  0  0  0  0  0  0  0
   52.6040   27.3450   40.5930 H   0  0  0  0  0  0  0  0  0  0  0  0
   51.7200   27.2840   42.1120 H   0  0  0  0  0  0  0  0  0  0  0  0
   53.5690   28.3130   42.1860 C   0  0  0  0  0  3  0  0  0  0  0  0
   54.2670   27.7430   43.1610 C   0  0  0  0  0  3  0  0  0  0  0  0
   55.6000   28.2520   43.7430 C   0  0  0  0  0  0  0  0  0  0  0  0
   55.8300   27.6200   44.5980 H   0  0  0  0  0  0  0  0  0  0  0  0
   56.3430   28.1030   42.9430 H   0  0  0  0  0  0  0  0  0  0  0  0
   56.7900   30.3370   43.4460 C   0  0  1  0  0  3  0  0  0  0  0  0
   55.5370   29.7170   44.0430 C   0  0  2  0  0  3  0  0  0  0  0  0
   55.3230   30.0440   45.3570 O   0  0  0  0  0  0  0  0  0  0  0  0
   56.3840   29.8510   46.2070 C   0  0  0  0  0  2  0  0  0  0  0  0
   57.6540   30.5510   45.7800 C   0  0  1  0  0  3  0  0  0  0  0  0
   57.9880   30.1320   44.3660 C   0  0  2  0  0  3  0  0  0  0  0  0
   57.1070   29.6300   42.2730 O   0  0  0  0  0  0  0  0  0  0  0  0
   56.5040   29.8600   41.5410 H   0  0  0  0  0  0  0  0  0  0  0  0
   57.5220   31.9320   45.8110 O   0  0  0  0  0  0  0  0  0  0  0  0
   57.0010   32.2660   45.0390 H   0  0  0  0  0  0  0  0  0  0  0  0
   59.0180   30.9120   43.8860 O   0  0  0  0  0  0  0  0  0  0  0  0
   59.2630   30.6870   42.9670 H   0  0  0  0  0  0  0  0  0  0  0  0
  1 11  1  0  0  0  0
  1  5  2  0  0  0  0
  2  1  1  0  0  0  0
  3  2  2  0  0  0  0
  3  4  1  0  0  0  0
  4 32  1  0  0  0  0
  4  5  1  0  0  0  0
  6  3  1  0  0  0  0
  7  8  1  0  0  0  0
  7 15  1  0  0  0  0
  8 13  1  0  0  0  0
  9 14  1  0  0  0  0
  9  8  2  0  0  0  0
 10  9  1  0  0  0  0
 11 10  2  0  0  0  0
 11 12  1  0  0  0  0
 12  7  2  0  0  0  0
 15 20  1  0  0  0  0
 16 15  1  0  0  0  0
 16 17  1  0  0  0  0
 17 25  1  0  0  0  0
 17 18  1  0  0  0  0
 18 27  1  0  0  0  0
 18 19  1  0  0  0  0
 19 28  1  0  0  0  0
 20 30  1  0  0  0  0
 20 19  1  0  0  0  0
 20 31  1  0  0  0  0
 21 15  1  0  0  0  0
 22 16  1  0  0  0  0
 23 16  1  0  0  0  0
 24 17  1  0  0  0  0
 26 18  1  0  0  0  0
 29 19  1  0  0  0  0
 32 34  1  0  0  0  0
 32 35  1  0  0  0  0
 33 32  1  0  0  0  0
 35 36  2  0  0  0  0
 36 37  1  0  0  0  0
 37 38  1  0  0  0  0
 39 37  1  0  0  0  0
 40 46  1  6  0  0  0
 40 41  1  0  0  0  0
 40 45  1  0  0  0  0
 41 37  1  1  0  0  0
 41 42  1  0  0  0  0
 42 43  1  0  0  0  0
 44 48  1  6  0  0  0
 44 43  1  0  0  0  0
 45 50  1  6  0  0  0
 45 44  1  0  0  0  0
 47 46  1  0  0  0  0
 49 48  1  0  0  0  0
 51 50  1  0  0  0  0
M  END
>  <minimizedAffinity>
-4.36448193

>  <minimizedRMSD>
1.29866958

$$$$
