
 OpenBabel03242511473D

 47 49  0  0  1  0  0  0  0  0999 V2000
   44.5960   35.7080   44.6850 C   0  0  0  0  0  0  0  0  0  0  0  0
   44.2130   35.8960   43.3350 C   0  0  0  0  0  0  0  0  0  0  0  0
   44.4580   34.8510   42.4660 C   0  0  0  0  0  0  0  0  0  0  0  0
   45.0380   33.7230   42.9250 N   0  0  0  0  0  0  0  0  0  0  0  0
   45.3800   33.6010   44.2200 C   0  0  0  0  0  0  0  0  0  0  0  0
   45.1710   34.5600   45.0940 N   0  0  0  0  0  0  0  0  0  0  0  0
   44.4080   36.5220   45.3770 H   0  0  0  0  0  0  0  0  0  0  0  0
   43.7470   36.8250   43.0060 H   0  0  0  0  0  0  0  0  0  0  0  0
   46.0080   32.3350   44.6420 C   0  0  0  0  0  0  0  0  0  0  0  0
   45.1710   31.6090   44.8070 H   0  0  0  0  0  0  0  0  0  0  0  0
   46.6860   31.9110   43.8740 H   0  0  0  0  0  0  0  0  0  0  0  0
   46.7390   32.5610   45.9440 C   0  0  0  0  0  0  0  0  0  0  0  0
   46.7650   33.6600   46.1870 H   0  0  0  0  0  0  0  0  0  0  0  0
   47.8120   32.2780   45.7930 H   0  0  0  0  0  0  0  0  0  0  0  0
   46.1520   31.8280   47.0410 C   0  0  0  0  0  0  0  0  0  0  0  0
   45.3550   32.2900   48.0500 C   0  0  0  0  0  0  0  0  0  0  0  0
   44.8490   31.5130   49.0420 C   0  0  0  0  0  0  0  0  0  0  0  0
   45.1590   30.1680   49.0310 C   0  0  0  0  0  0  0  0  0  0  0  0
   45.9600   29.6900   48.0220 C   0  0  0  0  0  0  0  0  0  0  0  0
   46.4600   30.5040   47.0280 C   0  0  0  0  0  0  0  0  0  0  0  0
   45.1320   33.3640   48.0230 H   0  0  0  0  0  0  0  0  0  0  0  0
   44.2280   31.9880   49.7900 H   0  0  0  0  0  0  0  0  0  0  0  0
   44.7250   29.5920   49.8500 H   0  0  0  0  0  0  0  0  0  0  0  0
   46.1080   28.6060   48.1600 H   0  0  0  0  0  0  0  0  0  0  0  0
   48.6070   29.4660   46.6000 C   0  0  0  0  0  0  0  0  0  0  0  0
   49.3780   29.8020   47.5670 O   0  0  0  0  0  0  0  0  0  0  0  0
   47.2520   29.6870   46.1510 N   0  0  0  0  0  0  0  0  0  0  0  0
   49.4190   28.8820   46.1720 H   0  0  0  0  0  0  0  0  0  0  0  0
   47.0740   29.2050   45.2450 H   0  0  0  0  0  0  0  0  0  0  0  0
   44.0530   35.0580   41.0530 C   0  0  0  0  0  0  0  0  0  0  0  0
   44.6270   35.9140   40.6540 H   0  0  0  0  0  0  0  0  0  0  0  0
   44.3500   34.1750   40.4660 H   0  0  0  0  0  0  0  0  0  0  0  0
   42.5590   35.3320   40.9410 C   0  0  0  0  0  0  0  0  0  0  0  0
   42.3800   36.3490   41.3180 H   0  0  0  0  0  0  0  0  0  0  0  0
   41.9800   34.6020   41.5340 H   0  0  0  0  0  0  0  0  0  0  0  0
   42.6090   33.9660   38.8700 C   0  0  1  0  0  3  0  0  0  0  0  0
   42.0570   35.1600   39.5130 C   0  0  1  0  0  3  0  0  0  0  0  0
   40.7020   35.3310   39.5650 O   0  0  0  0  0  0  0  0  0  0  0  0
   39.9820   34.7180   38.5750 C   0  0  0  0  0  2  0  0  0  0  0  0
   40.1970   33.2280   38.7670 C   0  0  1  0  0  3  0  0  0  0  0  0
   41.6260   32.9990   38.2820 C   0  0  2  0  0  3  0  0  0  0  0  0
   43.5260   34.2820   37.8460 O   0  0  0  0  0  0  0  0  0  0  0  0
   43.7580   35.2460   37.8890 H   0  0  0  0  0  0  0  0  0  0  0  0
   40.0740   32.8560   40.1080 O   0  0  0  0  0  0  0  0  0  0  0  0
   39.7020   33.5840   40.6590 H   0  0  0  0  0  0  0  0  0  0  0  0
   42.0100   31.6700   38.5280 O   0  0  0  0  0  0  0  0  0  0  0  0
   41.4390   31.3090   39.2770 H   0  0  0  0  0  0  0  0  0  0  0  0
  1  6  1  0  0  0  0
  1  7  1  0  0  0  0
  2  1  2  0  0  0  0
  3  4  2  0  0  0  0
  3  2  1  0  0  0  0
  4  5  1  0  0  0  0
  5  9  1  0  0  0  0
  5  6  2  0  0  0  0
  8  2  1  0  0  0  0
  9 10  1  0  0  0  0
  9 12  1  0  0  0  0
 11  9  1  0  0  0  0
 12 13  1  0  0  0  0
 12 15  1  0  0  0  0
 14 12  1  0  0  0  0
 15 16  1  0  0  0  0
 16 17  2  0  0  0  0
 17 22  1  0  0  0  0
 18 17  1  0  0  0  0
 18 23  1  0  0  0  0
 19 24  1  0  0  0  0
 19 18  2  0  0  0  0
 20 15  2  0  0  0  0
 20 19  1  0  0  0  0
 21 16  1  0  0  0  0
 25 26  2  0  0  0  0
 27 25  1  0  0  0  0
 27 20  1  0  0  0  0
 28 25  1  0  0  0  0
 29 27  1  0  0  0  0
 30  3  1  0  0  0  0
 31 30  1  0  0  0  0
 32 30  1  0  0  0  0
 33 30  1  0  0  0  0
 33 34  1  0  0  0  0
 33 35  1  0  0  0  0
 36 42  1  6  0  0  0
 36 37  1  0  0  0  0
 37 38  1  0  0  0  0
 37 33  1  1  0  0  0
 39 40  1  0  0  0  0
 39 38  1  0  0  0  0
 40 44  1  1  0  0  0
 41 46  1  1  0  0  0
 41 40  1  0  0  0  0
 41 36  1  0  0  0  0
 42 43  1  0  0  0  0
 44 45  1  0  0  0  0
 46 47  1  0  0  0  0
M  END
>  <minimizedAffinity>
-6.20420074

>  <minimizedRMSD>
0.790095687

$$$$
