
 OpenBabel03252503133D

 37 40  0  0  1  0  0  0  0  0999 V2000
   49.8660   30.0700   43.3600 C   0  0  0  0  0  0  0  0  0  0  0  0
   48.7110   30.1330   44.1090 C   0  0  0  0  0  0  0  0  0  0  0  0
   47.7550   30.5630   43.2650 N   0  0  0  0  0  0  0  0  0  0  0  0
   48.3190   30.7590   42.0290 C   0  0  0  0  0  0  0  0  0  0  0  0
   49.6260   30.4520   42.0920 N   0  0  0  0  0  0  0  0  0  0  0  0
   48.6140   29.8820   45.1590 H   0  0  0  0  0  0  0  0  0  0  0  0
   46.7620   30.7320   43.4610 H   0  0  0  0  0  0  0  0  0  0  0  0
   46.6270   32.2080   40.9490 C   0  0  1  0  0  3  0  0  0  0  0  0
   47.7140   31.2230   40.7510 C   0  0  1  0  0  3  0  0  0  0  0  0
   48.7210   31.5850   39.8940 O   0  0  0  0  0  0  0  0  0  0  0  0
   48.7410   32.8920   39.4750 C   0  0  0  0  0  2  0  0  0  0  0  0
   48.5270   33.8280   40.6340 C   0  0  2  0  0  3  0  0  0  0  0  0
   47.0820   33.6400   41.0640 C   0  0  1  0  0  3  0  0  0  0  0  0
   45.6250   32.0530   39.9660 O   0  0  0  0  0  0  0  0  0  0  0  0
   45.7440   31.2300   39.4410 H   0  0  0  0  0  0  0  0  0  0  0  0
   48.6500   35.1370   40.1200 O   0  0  0  0  0  0  0  0  0  0  0  0
   47.9410   35.7290   40.5250 H   0  0  0  0  0  0  0  0  0  0  0  0
   46.3180   34.3880   40.1670 O   0  0  0  0  0  0  0  0  0  0  0  0
   45.6270   34.9300   40.5830 H   0  0  0  0  0  0  0  0  0  0  0  0
   51.2220   29.6420   43.8490 C   0  0  0  0  0  0  0  0  0  0  0  0
   52.2110   30.4270   43.9430 O   0  0  0  0  0  0  0  0  0  0  0  0
   51.2380   27.9000   45.5610 C   0  0  0  0  0  0  0  0  0  0  0  0
   51.4470   28.2940   44.2350 C   0  0  0  0  0  0  0  0  0  0  0  0
   51.8770   27.2840   43.3720 C   0  0  0  0  0  0  0  0  0  0  0  0
   52.0740   26.0270   43.7930 N   0  0  0  0  0  0  0  0  0  0  0  0
   51.8550   25.6970   45.0970 C   0  0  0  0  0  0  0  0  0  0  0  0
   51.4410   26.6280   45.9670 N   0  0  0  0  0  0  0  0  0  0  0  0
   50.9020   28.6390   46.2890 H   0  0  0  0  0  0  0  0  0  0  0  0
   52.0230   24.6710   45.4030 H   0  0  0  0  0  0  0  0  0  0  0  0
   52.1120   27.6010   42.0260 C   0  0  0  0  0  0  0  0  0  0  0  0
   53.1710   28.1350   41.3450 C   0  0  0  0  0  0  0  0  0  0  0  0
   53.1360   28.3440   40.0320 C   0  0  0  0  0  0  0  0  0  0  0  0
   51.9920   28.0030   39.3750 C   0  0  0  0  0  0  0  0  0  0  0  0
   50.9240   27.3500   40.7370 S   0  0  0  0  0  0  0  0  0  0  0  0
   54.0550   28.3790   41.9690 H   0  0  0  0  0  0  0  0  0  0  0  0
   53.9310   28.7610   39.4270 H   0  0  0  0  0  0  0  0  0  0  0  0
   51.6900   28.0580   38.3440 H   0  0  0  0  0  0  0  0  0  0  0  0
  1 20  1  0  0  0  0
  1  2  2  0  0  0  0
  2  6  1  0  0  0  0
  3  7  1  0  0  0  0
  3  2  1  0  0  0  0
  4  5  2  0  0  0  0
  4  3  1  0  0  0  0
  5  1  1  0  0  0  0
  8 14  1  6  0  0  0
  8 13  1  0  0  0  0
  9  8  1  0  0  0  0
  9  4  1  1  0  0  0
 10  9  1  0  0  0  0
 11 10  1  0  0  0  0
 11 12  1  0  0  0  0
 12 16  1  6  0  0  0
 12 13  1  0  0  0  0
 13 18  1  6  0  0  0
 15 14  1  0  0  0  0
 16 17  1  0  0  0  0
 18 19  1  0  0  0  0
 20 21  2  0  0  0  0
 20 23  1  0  0  0  0
 22 27  1  0  0  0  0
 22 28  1  0  0  0  0
 23 22  2  0  0  0  0
 24 25  2  0  0  0  0
 24 23  1  0  0  0  0
 25 26  1  0  0  0  0
 26 29  1  0  0  0  0
 26 27  2  0  0  0  0
 30 24  1  0  0  0  0
 31 35  1  0  0  0  0
 31 30  2  0  0  0  0
 32 31  1  0  0  0  0
 33 32  2  0  0  0  0
 33 34  1  0  0  0  0
 34 30  1  0  0  0  0
 36 32  1  0  0  0  0
 37 33  1  0  0  0  0
M  END
>  <minimizedAffinity>
-2.82091951

>  <minimizedRMSD>
7.44946957

$$$$
