
 OpenBabel03242523543D

 48 51  0  0  1  0  0  0  0  0999 V2000
   42.7760   34.2970   39.0710 C   0  0  1  0  0  0  0  0  0  0  0  0
   43.1860   35.0990   40.3000 C   0  0  1  0  0  0  0  0  0  0  0  0
   42.0200   35.6090   40.8990 O   0  0  0  0  0  0  0  0  0  0  0  0
   41.0540   35.9820   39.9620 C   0  0  0  0  0  0  0  0  0  0  0  0
   40.4500   34.7800   39.2620 C   0  0  2  0  0  0  0  0  0  0  0  0
   41.4940   33.6140   39.4190 C   0  0  1  0  0  0  0  0  0  0  0  0
   43.5870   33.5620   38.8600 H   0  0  0  0  0  0  0  0  0  0  0  0
   43.9000   35.9000   40.0590 H   0  0  0  0  0  0  0  0  0  0  0  0
   40.2460   36.4460   40.5410 H   0  0  0  0  0  0  0  0  0  0  0  0
   41.4210   36.7530   39.2670 H   0  0  0  0  0  0  0  0  0  0  0  0
   39.4880   34.4760   39.6970 H   0  0  0  0  0  0  0  0  0  0  0  0
   41.3610   33.5110   40.5430 H   0  0  0  0  0  0  0  0  0  0  0  0
   42.6020   35.1360   37.9620 O   0  0  0  0  0  0  0  0  0  0  0  0
   43.0560   34.7580   37.1730 H   0  0  0  0  0  0  0  0  0  0  0  0
   40.3830   35.0240   37.8980 O   0  0  0  0  0  0  0  0  0  0  0  0
   39.5530   34.7310   37.4860 H   0  0  0  0  0  0  0  0  0  0  0  0
   43.6440   34.1480   41.2220 O   0  0  0  0  0  0  0  0  0  0  0  0
   44.7850   34.2390   41.9130 C   0  0  0  0  0  0  0  0  0  0  0  0
   46.0180   34.4220   41.2680 C   0  0  0  0  0  0  0  0  0  0  0  0
   47.1590   34.5080   42.0480 C   0  0  0  0  0  0  0  0  0  0  0  0
   47.0530   34.4130   43.4250 N   0  0  0  0  0  0  0  0  0  0  0  0
   45.8510   34.2360   44.0110 C   0  0  0  0  0  0  0  0  0  0  0  0
   44.7200   34.1490   43.2650 N   0  0  0  0  0  0  0  0  0  0  0  0
   46.0870   34.4950   40.1970 H   0  0  0  0  0  0  0  0  0  0  0  0
   45.7980   34.1660   45.0780 H   0  0  0  0  0  0  0  0  0  0  0  0
   48.5100   34.7030   41.4290 C   0  0  0  0  0  0  0  0  0  0  0  0
   49.0950   36.1110   41.5110 C   0  0  0  0  0  0  0  0  0  0  0  0
   49.6670   34.9010   42.2380 C   0  0  0  0  0  0  0  0  0  0  0  0
   48.5290   34.3530   40.3610 H   0  0  0  0  0  0  0  0  0  0  0  0
   48.5330   36.7990   42.2010 H   0  0  0  0  0  0  0  0  0  0  0  0
   49.6420   36.5440   40.6780 H   0  0  0  0  0  0  0  0  0  0  0  0
   50.6560   34.5850   41.8420 H   0  0  0  0  0  0  0  0  0  0  0  0
   49.5800   34.8210   43.3290 H   0  0  0  0  0  0  0  0  0  0  0  0
   41.0990   32.6080   38.6180 O   0  0  0  0  0  0  0  0  0  0  0  0
   39.9300   31.9230   38.6360 C   0  0  0  0  0  0  0  0  0  0  0  0
   39.0910   31.9990   37.6390 O   0  0  0  0  0  0  0  0  0  0  0  0
   39.3730   29.5310   39.1680 C   0  0  1  0  0  3  0  0  0  0  0  0
   38.9620   30.9940   39.2890 C   0  0  1  0  0  3  0  0  0  0  0  0
   38.9350   31.1940   40.6750 O   0  0  0  0  0  0  0  0  0  0  0  0
   37.6930   30.8480   41.1530 C   0  0  0  0  0  2  0  0  0  0  0  0
   37.4370   29.4040   40.7590 C   0  0  1  0  0  3  0  0  0  0  0  0
   38.7100   28.7250   40.2650 C   0  0  2  0  0  3  0  0  0  0  0  0
   39.1730   29.0150   37.9110 O   0  0  0  0  0  0  0  0  0  0  0  0
   40.0450   28.8940   37.4220 H   0  0  0  0  0  0  0  0  0  0  0  0
   36.9610   28.6470   41.8260 O   0  0  0  0  0  0  0  0  0  0  0  0
   37.2430   27.7000   41.7750 H   0  0  0  0  0  0  0  0  0  0  0  0
   39.5580   28.5730   41.3570 O   0  0  0  0  0  0  0  0  0  0  0  0
   40.4700   28.8900   41.2060 H   0  0  0  0  0  0  0  0  0  0  0  0
  1  7  1  6  0  0  0
  1  6  1  0  0  0  0
  1  2  1  0  0  0  0
  2  8  1  6  0  0  0
  2  3  1  0  0  0  0
  2 17  1  0  0  0  0
  4  9  1  0  0  0  0
  4  3  1  0  0  0  0
  5  6  1  0  0  0  0
  5 11  1  1  0  0  0
  5  4  1  0  0  0  0
  6 12  1  1  0  0  0
 10  4  1  0  0  0  0
 13  1  1  0  0  0  0
 14 13  1  0  0  0  0
 15  5  1  0  0  0  0
 16 15  1  0  0  0  0
 17 18  1  0  0  0  0
 18 23  1  0  0  0  0
 19 18  2  0  0  0  0
 19 20  1  0  0  0  0
 20 21  2  0  0  0  0
 21 22  1  0  0  0  0
 22 25  1  0  0  0  0
 23 22  2  0  0  0  0
 24 19  1  0  0  0  0
 26 27  1  0  0  0  0
 26 20  1  0  0  0  0
 26 28  1  0  0  0  0
 27 30  1  0  0  0  0
 27 28  1  0  0  0  0
 28 33  1  0  0  0  0
 29 26  1  0  0  0  0
 31 27  1  0  0  0  0
 32 28  1  0  0  0  0
 34 35  1  0  0  0  0
 34  6  1  0  0  0  0
 36 35  2  0  0  0  0
 37 43  1  6  0  0  0
 37 38  1  0  0  0  0
 37 42  1  0  0  0  0
 38 35  1  6  0  0  0
 38 39  1  0  0  0  0
 39 40  1  0  0  0  0
 41 40  1  0  0  0  0
 41 45  1  1  0  0  0
 42 41  1  0  0  0  0
 42 47  1  1  0  0  0
 44 43  1  0  0  0  0
 46 45  1  0  0  0  0
 48 47  1  0  0  0  0
M  END
>  <minimizedAffinity>
-6.60025787

>  <minimizedRMSD>
2.36521435

$$$$
