
 OpenBabel03242523543D

 48 51  0  0  1  0  0  0  0  0999 V2000
   42.9110   34.1830   39.2040 C   0  0  1  0  0  0  0  0  0  0  0  0
   43.1210   35.1150   40.3910 C   0  0  1  0  0  0  0  0  0  0  0  0
   41.8660   35.6120   40.7860 O   0  0  0  0  0  0  0  0  0  0  0  0
   41.0150   35.8420   39.7020 C   0  0  0  0  0  0  0  0  0  0  0  0
   40.5620   34.5490   39.0530 C   0  0  2  0  0  0  0  0  0  0  0  0
   41.6260   33.4630   39.4530 C   0  0  1  0  0  0  0  0  0  0  0  0
   43.7750   33.4790   39.1700 H   0  0  0  0  0  0  0  0  0  0  0  0
   43.8250   35.9310   40.1650 H   0  0  0  0  0  0  0  0  0  0  0  0
   40.1190   36.3120   40.1260 H   0  0  0  0  0  0  0  0  0  0  0  0
   41.4360   36.5670   38.9870 H   0  0  0  0  0  0  0  0  0  0  0  0
   39.5660   34.2330   39.3910 H   0  0  0  0  0  0  0  0  0  0  0  0
   41.3530   33.4560   40.5560 H   0  0  0  0  0  0  0  0  0  0  0  0
   42.8480   34.9060   38.0060 O   0  0  0  0  0  0  0  0  0  0  0  0
   43.4170   34.4840   37.3200 H   0  0  0  0  0  0  0  0  0  0  0  0
   40.6630   34.6640   37.6740 O   0  0  0  0  0  0  0  0  0  0  0  0
   39.9080   34.2880   37.1910 H   0  0  0  0  0  0  0  0  0  0  0  0
   43.4960   34.2800   41.4520 O   0  0  0  0  0  0  0  0  0  0  0  0
   44.6780   34.3190   42.0770 C   0  0  0  0  0  0  0  0  0  0  0  0
   45.8760   34.4850   41.3650 C   0  0  0  0  0  0  0  0  0  0  0  0
   47.0630   34.5170   42.0780 C   0  0  0  0  0  0  0  0  0  0  0  0
   47.0350   34.3860   43.4560 N   0  0  0  0  0  0  0  0  0  0  0  0
   45.8630   34.2270   44.1080 C   0  0  0  0  0  0  0  0  0  0  0  0
   44.6890   34.1930   43.4270 N   0  0  0  0  0  0  0  0  0  0  0  0
   45.8850   34.5860   40.2940 H   0  0  0  0  0  0  0  0  0  0  0  0
   45.8700   34.1290   45.1730 H   0  0  0  0  0  0  0  0  0  0  0  0
   48.3810   34.6900   41.3860 C   0  0  0  0  0  0  0  0  0  0  0  0
   49.0360   36.0640   41.5130 C   0  0  0  0  0  0  0  0  0  0  0  0
   49.5940   34.7870   42.1290 C   0  0  0  0  0  0  0  0  0  0  0  0
   48.3170   34.4070   40.3000 H   0  0  0  0  0  0  0  0  0  0  0  0
   48.5510   36.7320   42.2770 H   0  0  0  0  0  0  0  0  0  0  0  0
   49.5510   36.5230   40.6730 H   0  0  0  0  0  0  0  0  0  0  0  0
   50.5410   34.4530   41.6520 H   0  0  0  0  0  0  0  0  0  0  0  0
   49.5700   34.6430   43.2160 H   0  0  0  0  0  0  0  0  0  0  0  0
   41.3850   32.3680   38.7110 O   0  0  0  0  0  0  0  0  0  0  0  0
   40.3840   31.4640   38.8400 C   0  0  0  0  0  0  0  0  0  0  0  0
   39.8210   30.9280   37.7910 O   0  0  0  0  0  0  0  0  0  0  0  0
   40.1490   29.4560   40.3350 C   0  0  1  0  0  3  0  0  0  0  0  0
   39.4560   30.6410   39.6710 C   0  0  1  0  0  3  0  0  0  0  0  0
   38.9810   31.3750   40.7650 O   0  0  0  0  0  0  0  0  0  0  0  0
   37.7400   30.9000   41.1180 C   0  0  0  0  0  2  0  0  0  0  0  0
   37.8860   29.4190   41.4200 C   0  0  1  0  0  3  0  0  0  0  0  0
   39.3520   29.0160   41.5440 C   0  0  2  0  0  3  0  0  0  0  0  0
   40.4320   28.4360   39.4610 O   0  0  0  0  0  0  0  0  0  0  0  0
   41.4170   28.3930   39.2550 H   0  0  0  0  0  0  0  0  0  0  0  0
   37.2640   29.0630   42.6130 O   0  0  0  0  0  0  0  0  0  0  0  0
   37.7190   28.3120   43.0700 H   0  0  0  0  0  0  0  0  0  0  0  0
   39.8490   29.5890   42.7090 O   0  0  0  0  0  0  0  0  0  0  0  0
   40.6900   30.0740   42.5920 H   0  0  0  0  0  0  0  0  0  0  0  0
  1  7  1  6  0  0  0
  1  6  1  0  0  0  0
  1  2  1  0  0  0  0
  2  8  1  6  0  0  0
  2  3  1  0  0  0  0
  2 17  1  0  0  0  0
  4  9  1  0  0  0  0
  4  3  1  0  0  0  0
  5 11  1  1  0  0  0
  5  6  1  0  0  0  0
  5  4  1  0  0  0  0
  6 12  1  1  0  0  0
 10  4  1  0  0  0  0
 13  1  1  0  0  0  0
 14 13  1  0  0  0  0
 15  5  1  0  0  0  0
 16 15  1  0  0  0  0
 17 18  1  0  0  0  0
 18 23  1  0  0  0  0
 19 18  2  0  0  0  0
 19 20  1  0  0  0  0
 20 21  2  0  0  0  0
 21 22  1  0  0  0  0
 22 25  1  0  0  0  0
 23 22  2  0  0  0  0
 24 19  1  0  0  0  0
 26 27  1  0  0  0  0
 26 20  1  0  0  0  0
 26 28  1  0  0  0  0
 27 28  1  0  0  0  0
 27 30  1  0  0  0  0
 28 33  1  0  0  0  0
 29 26  1  0  0  0  0
 31 27  1  0  0  0  0
 32 28  1  0  0  0  0
 34 35  1  0  0  0  0
 34  6  1  0  0  0  0
 36 35  2  0  0  0  0
 37 43  1  6  0  0  0
 37 42  1  0  0  0  0
 38 35  1  1  0  0  0
 38 37  1  0  0  0  0
 38 39  1  0  0  0  0
 39 40  1  0  0  0  0
 40 41  1  0  0  0  0
 41 42  1  0  0  0  0
 41 45  1  1  0  0  0
 42 47  1  1  0  0  0
 44 43  1  0  0  0  0
 45 46  1  0  0  0  0
 48 47  1  0  0  0  0
M  END
>  <minimizedAffinity>
-6.91424274

>  <minimizedRMSD>
1.98450649

$$$$
