
 OpenBabel03242523543D

 48 51  0  0  1  0  0  0  0  0999 V2000
   42.9120   34.3750   38.9590 C   0  0  1  0  0  0  0  0  0  0  0  0
   43.1070   35.1870   40.2340 C   0  0  1  0  0  0  0  0  0  0  0  0
   41.8410   35.5910   40.6950 O   0  0  0  0  0  0  0  0  0  0  0  0
   40.9640   35.8990   39.6530 C   0  0  0  0  0  0  0  0  0  0  0  0
   40.5480   34.6640   38.8770 C   0  0  2  0  0  0  0  0  0  0  0  0
   41.6590   33.5850   39.1470 C   0  0  1  0  0  0  0  0  0  0  0  0
   43.8010   33.7130   38.8400 H   0  0  0  0  0  0  0  0  0  0  0  0
   43.7760   36.0470   40.0850 H   0  0  0  0  0  0  0  0  0  0  0  0
   40.0580   36.2870   40.1350 H   0  0  0  0  0  0  0  0  0  0  0  0
   41.3460   36.7100   39.0110 H   0  0  0  0  0  0  0  0  0  0  0  0
   39.5700   34.2770   39.1930 H   0  0  0  0  0  0  0  0  0  0  0  0
   41.4040   33.4520   40.2470 H   0  0  0  0  0  0  0  0  0  0  0  0
   42.8020   35.2170   37.8440 O   0  0  0  0  0  0  0  0  0  0  0  0
   43.3740   34.8900   37.1110 H   0  0  0  0  0  0  0  0  0  0  0  0
   40.6220   34.9260   37.5160 O   0  0  0  0  0  0  0  0  0  0  0  0
   39.8740   34.5730   37.0060 H   0  0  0  0  0  0  0  0  0  0  0  0
   43.5300   34.2600   41.1970 O   0  0  0  0  0  0  0  0  0  0  0  0
   44.6740   34.3390   41.8850 C   0  0  0  0  0  0  0  0  0  0  0  0
   45.9110   34.4730   41.2360 C   0  0  0  0  0  0  0  0  0  0  0  0
   47.0550   34.5500   42.0120 C   0  0  0  0  0  0  0  0  0  0  0  0
   46.9470   34.4950   43.3920 N   0  0  0  0  0  0  0  0  0  0  0  0
   45.7410   34.3650   43.9830 C   0  0  0  0  0  0  0  0  0  0  0  0
   44.6080   34.2880   43.2390 N   0  0  0  0  0  0  0  0  0  0  0  0
   45.9810   34.5150   40.1620 H   0  0  0  0  0  0  0  0  0  0  0  0
   45.6870   34.3250   45.0510 H   0  0  0  0  0  0  0  0  0  0  0  0
   48.4100   34.6920   41.3880 C   0  0  0  0  0  0  0  0  0  0  0  0
   49.0570   36.0720   41.4850 C   0  0  0  0  0  0  0  0  0  0  0  0
   49.5780   34.8290   42.1940 C   0  0  0  0  0  0  0  0  0  0  0  0
   48.4080   34.3550   40.3160 H   0  0  0  0  0  0  0  0  0  0  0  0
   48.5300   36.7760   42.1860 H   0  0  0  0  0  0  0  0  0  0  0  0
   49.6190   36.4910   40.6530 H   0  0  0  0  0  0  0  0  0  0  0  0
   50.5510   34.4740   41.7880 H   0  0  0  0  0  0  0  0  0  0  0  0
   49.4930   34.7390   43.2840 H   0  0  0  0  0  0  0  0  0  0  0  0
   41.4450   32.5640   38.2980 O   0  0  0  0  0  0  0  0  0  0  0  0
   40.6950   31.4520   38.4850 C   0  0  0  0  0  0  0  0  0  0  0  0
   40.7380   30.4600   37.6370 O   0  0  0  0  0  0  0  0  0  0  0  0
   39.6410   31.0540   40.7320 C   0  0  1  0  0  3  0  0  0  0  0  0
   39.7040   30.6520   39.2640 C   0  0  1  0  0  3  0  0  0  0  0  0
   38.4010   30.9000   38.8180 O   0  0  0  0  0  0  0  0  0  0  0  0
   37.6290   29.7860   39.0480 C   0  0  0  0  0  2  0  0  0  0  0  0
   37.6970   29.4810   40.5350 C   0  0  1  0  0  3  0  0  0  0  0  0
   38.3070   30.6400   41.3150 C   0  0  2  0  0  3  0  0  0  0  0  0
   40.7190   30.6160   41.4610 O   0  0  0  0  0  0  0  0  0  0  0  0
   41.3430   31.3730   41.6850 H   0  0  0  0  0  0  0  0  0  0  0  0
   36.4380   29.2430   41.0790 O   0  0  0  0  0  0  0  0  0  0  0  0
   36.3730   29.5260   42.0250 H   0  0  0  0  0  0  0  0  0  0  0  0
   37.3980   31.6930   41.2860 O   0  0  0  0  0  0  0  0  0  0  0  0
   37.7840   32.5500   41.0180 H   0  0  0  0  0  0  0  0  0  0  0  0
  1  7  1  6  0  0  0
  1  6  1  0  0  0  0
  1  2  1  0  0  0  0
  2  8  1  6  0  0  0
  2  3  1  0  0  0  0
  2 17  1  0  0  0  0
  4  9  1  0  0  0  0
  4  3  1  0  0  0  0
  5  6  1  0  0  0  0
  5 11  1  1  0  0  0
  5  4  1  0  0  0  0
  6 12  1  1  0  0  0
 10  4  1  0  0  0  0
 13  1  1  0  0  0  0
 14 13  1  0  0  0  0
 15  5  1  0  0  0  0
 16 15  1  0  0  0  0
 17 18  1  0  0  0  0
 18 23  1  0  0  0  0
 19 18  2  0  0  0  0
 19 20  1  0  0  0  0
 20 21  2  0  0  0  0
 21 22  1  0  0  0  0
 22 25  1  0  0  0  0
 23 22  2  0  0  0  0
 24 19  1  0  0  0  0
 26 27  1  0  0  0  0
 26 20  1  0  0  0  0
 26 28  1  0  0  0  0
 27 30  1  0  0  0  0
 27 28  1  0  0  0  0
 28 33  1  0  0  0  0
 29 26  1  0  0  0  0
 31 27  1  0  0  0  0
 32 28  1  0  0  0  0
 34 35  1  0  0  0  0
 34  6  1  0  0  0  0
 36 35  2  0  0  0  0
 37 42  1  0  0  0  0
 37 43  1  1  0  0  0
 38 35  1  6  0  0  0
 38 37  1  0  0  0  0
 39 40  1  0  0  0  0
 39 38  1  0  0  0  0
 40 41  1  0  0  0  0
 41 45  1  1  0  0  0
 41 42  1  0  0  0  0
 42 47  1  6  0  0  0
 43 44  1  0  0  0  0
 45 46  1  0  0  0  0
 48 47  1  0  0  0  0
M  END
>  <minimizedAffinity>
-6.97826385

>  <minimizedRMSD>
1.84284341

$$$$
