
 OpenBabel03242523543D

 48 51  0  0  1  0  0  0  0  0999 V2000
   42.8240   34.2310   39.1350 C   0  0  1  0  0  0  0  0  0  0  0  0
   43.1490   35.0540   40.3760 C   0  0  1  0  0  0  0  0  0  0  0  0
   41.9390   35.5160   40.9240 O   0  0  0  0  0  0  0  0  0  0  0  0
   40.9960   35.8420   39.9470 C   0  0  0  0  0  0  0  0  0  0  0  0
   40.4740   34.6120   39.2300 C   0  0  2  0  0  0  0  0  0  0  0  0
   41.5600   33.4940   39.4340 C   0  0  1  0  0  0  0  0  0  0  0  0
   43.6750   33.5320   38.9610 H   0  0  0  0  0  0  0  0  0  0  0  0
   43.8370   35.8850   40.1590 H   0  0  0  0  0  0  0  0  0  0  0  0
   40.1460   36.2730   40.4900 H   0  0  0  0  0  0  0  0  0  0  0  0
   41.3580   36.6270   39.2630 H   0  0  0  0  0  0  0  0  0  0  0  0
   39.5100   34.2690   39.6270 H   0  0  0  0  0  0  0  0  0  0  0  0
   41.3870   33.3890   40.5530 H   0  0  0  0  0  0  0  0  0  0  0  0
   42.6600   35.0580   38.0160 O   0  0  0  0  0  0  0  0  0  0  0  0
   43.1610   34.6970   37.2470 H   0  0  0  0  0  0  0  0  0  0  0  0
   40.4520   34.8480   37.8630 O   0  0  0  0  0  0  0  0  0  0  0  0
   39.6530   34.5180   37.4190 H   0  0  0  0  0  0  0  0  0  0  0  0
   43.6100   34.1270   41.3200 O   0  0  0  0  0  0  0  0  0  0  0  0
   44.7670   34.2220   41.9850 C   0  0  0  0  0  0  0  0  0  0  0  0
   45.9840   34.4110   41.3120 C   0  0  0  0  0  0  0  0  0  0  0  0
   47.1420   34.5010   42.0640 C   0  0  0  0  0  0  0  0  0  0  0  0
   47.0690   34.4040   43.4440 N   0  0  0  0  0  0  0  0  0  0  0  0
   45.8810   34.2220   44.0580 C   0  0  0  0  0  0  0  0  0  0  0  0
   44.7330   34.1310   43.3370 N   0  0  0  0  0  0  0  0  0  0  0  0
   46.0280   34.4850   40.2390 H   0  0  0  0  0  0  0  0  0  0  0  0
   45.8530   34.1500   45.1250 H   0  0  0  0  0  0  0  0  0  0  0  0
   48.4780   34.7020   41.4140 C   0  0  0  0  0  0  0  0  0  0  0  0
   49.0750   36.1040   41.5160 C   0  0  0  0  0  0  0  0  0  0  0  0
   49.6570   34.8720   42.1970 C   0  0  0  0  0  0  0  0  0  0  0  0
   48.4660   34.3790   40.3380 H   0  0  0  0  0  0  0  0  0  0  0  0
   48.5370   36.7780   42.2370 H   0  0  0  0  0  0  0  0  0  0  0  0
   49.6040   36.5530   40.6790 H   0  0  0  0  0  0  0  0  0  0  0  0
   50.6340   34.5590   41.7670 H   0  0  0  0  0  0  0  0  0  0  0  0
   49.5990   34.7640   43.2880 H   0  0  0  0  0  0  0  0  0  0  0  0
   41.2430   32.4690   38.6240 O   0  0  0  0  0  0  0  0  0  0  0  0
   40.2700   31.5390   38.7790 C   0  0  0  0  0  0  0  0  0  0  0  0
   39.6920   30.9900   37.7450 O   0  0  0  0  0  0  0  0  0  0  0  0
   40.1320   29.5340   40.2890 C   0  0  1  0  0  3  0  0  0  0  0  0
   39.3880   30.6920   39.6340 C   0  0  1  0  0  3  0  0  0  0  0  0
   38.9120   31.4160   40.7340 O   0  0  0  0  0  0  0  0  0  0  0  0
   37.6960   30.9020   41.1160 C   0  0  0  0  0  2  0  0  0  0  0  0
   37.8960   29.4290   41.4230 C   0  0  1  0  0  3  0  0  0  0  0  0
   39.3770   29.0750   41.5170 C   0  0  2  0  0  3  0  0  0  0  0  0
   40.4310   28.5180   39.4150 O   0  0  0  0  0  0  0  0  0  0  0  0
   41.4110   28.5070   39.1870 H   0  0  0  0  0  0  0  0  0  0  0  0
   37.3120   29.0590   42.6300 O   0  0  0  0  0  0  0  0  0  0  0  0
   37.8010   28.3270   43.0810 H   0  0  0  0  0  0  0  0  0  0  0  0
   39.8800   29.6710   42.6680 O   0  0  0  0  0  0  0  0  0  0  0  0
   40.7000   30.1830   42.5300 H   0  0  0  0  0  0  0  0  0  0  0  0
  1  7  1  6  0  0  0
  1  6  1  0  0  0  0
  1  2  1  0  0  0  0
  2  8  1  6  0  0  0
  2  3  1  0  0  0  0
  2 17  1  0  0  0  0
  4  9  1  0  0  0  0
  4  3  1  0  0  0  0
  5  6  1  0  0  0  0
  5 11  1  1  0  0  0
  5  4  1  0  0  0  0
  6 12  1  1  0  0  0
 10  4  1  0  0  0  0
 13  1  1  0  0  0  0
 14 13  1  0  0  0  0
 15  5  1  0  0  0  0
 16 15  1  0  0  0  0
 17 18  1  0  0  0  0
 18 23  1  0  0  0  0
 19 18  2  0  0  0  0
 19 20  1  0  0  0  0
 20 21  2  0  0  0  0
 21 22  1  0  0  0  0
 22 25  1  0  0  0  0
 23 22  2  0  0  0  0
 24 19  1  0  0  0  0
 26 27  1  0  0  0  0
 26 20  1  0  0  0  0
 26 28  1  0  0  0  0
 27 28  1  0  0  0  0
 27 30  1  0  0  0  0
 28 33  1  0  0  0  0
 29 26  1  0  0  0  0
 31 27  1  0  0  0  0
 32 28  1  0  0  0  0
 34 35  1  0  0  0  0
 34  6  1  0  0  0  0
 36 35  2  0  0  0  0
 37 43  1  6  0  0  0
 37 42  1  0  0  0  0
 38 35  1  1  0  0  0
 38 37  1  0  0  0  0
 38 39  1  0  0  0  0
 39 40  1  0  0  0  0
 40 41  1  0  0  0  0
 41 42  1  0  0  0  0
 41 45  1  1  0  0  0
 42 47  1  1  0  0  0
 44 43  1  0  0  0  0
 45 46  1  0  0  0  0
 48 47  1  0  0  0  0
M  END
>  <minimizedAffinity>
-6.8357234

>  <minimizedRMSD>
2.31864452

$$$$
