
 OpenBabel03242523543D

 48 51  0  0  1  0  0  0  0  0999 V2000
   42.8300   34.5160   38.7440 C   0  0  1  0  0  0  0  0  0  0  0  0
   42.9770   35.1850   40.1050 C   0  0  1  0  0  0  0  0  0  0  0  0
   41.6890   35.4060   40.6260 O   0  0  0  0  0  0  0  0  0  0  0  0
   40.7620   35.7480   39.6390 C   0  0  0  0  0  0  0  0  0  0  0  0
   40.4490   34.5790   38.7250 C   0  0  2  0  0  0  0  0  0  0  0  0
   41.6640   33.5890   38.8510 C   0  0  1  0  0  0  0  0  0  0  0  0
   43.7760   33.9620   38.5360 H   0  0  0  0  0  0  0  0  0  0  0  0
   43.5560   36.1190   40.0530 H   0  0  0  0  0  0  0  0  0  0  0  0
   39.8350   35.9850   40.1740 H   0  0  0  0  0  0  0  0  0  0  0  0
   41.0490   36.6620   39.0950 H   0  0  0  0  0  0  0  0  0  0  0  0
   39.5200   34.0620   39.0030 H   0  0  0  0  0  0  0  0  0  0  0  0
   41.4490   33.3020   39.9290 H   0  0  0  0  0  0  0  0  0  0  0  0
   42.6140   35.4680   37.7390 O   0  0  0  0  0  0  0  0  0  0  0  0
   43.1980   35.2890   36.9660 H   0  0  0  0  0  0  0  0  0  0  0  0
   40.4650   35.0060   37.4050 O   0  0  0  0  0  0  0  0  0  0  0  0
   39.7420   34.6440   36.8650 H   0  0  0  0  0  0  0  0  0  0  0  0
   43.5090   34.1970   40.9440 O   0  0  0  0  0  0  0  0  0  0  0  0
   44.6150   34.3350   41.6830 C   0  0  0  0  0  0  0  0  0  0  0  0
   45.8850   34.4150   41.0920 C   0  0  0  0  0  0  0  0  0  0  0  0
   46.9860   34.5570   41.9190 C   0  0  0  0  0  0  0  0  0  0  0  0
   46.8060   34.6180   43.2910 N   0  0  0  0  0  0  0  0  0  0  0  0
   45.5690   34.5370   43.8250 C   0  0  0  0  0  0  0  0  0  0  0  0
   44.4770   34.3960   43.0310 N   0  0  0  0  0  0  0  0  0  0  0  0
   46.0120   34.3670   40.0240 H   0  0  0  0  0  0  0  0  0  0  0  0
   45.4590   34.5860   44.8880 H   0  0  0  0  0  0  0  0  0  0  0  0
   48.3730   34.6490   41.3580 C   0  0  0  0  0  0  0  0  0  0  0  0
   49.0450   36.0180   41.4360 C   0  0  0  0  0  0  0  0  0  0  0  0
   49.5040   34.7910   42.2150 C   0  0  0  0  0  0  0  0  0  0  0  0
   48.4160   34.2720   40.3000 H   0  0  0  0  0  0  0  0  0  0  0  0
   48.5000   36.7580   42.0840 H   0  0  0  0  0  0  0  0  0  0  0  0
   49.6560   36.3930   40.6190 H   0  0  0  0  0  0  0  0  0  0  0  0
   50.4870   34.4020   41.8710 H   0  0  0  0  0  0  0  0  0  0  0  0
   49.3630   34.7440   43.3020 H   0  0  0  0  0  0  0  0  0  0  0  0
   41.5300   32.6600   37.8870 O   0  0  0  0  0  0  0  0  0  0  0  0
   40.8740   31.4760   37.9410 C   0  0  0  0  0  0  0  0  0  0  0  0
   39.6540   31.3610   37.4900 O   0  0  0  0  0  0  0  0  0  0  0  0
   41.4620   29.1320   37.2510 C   0  0  1  0  0  3  0  0  0  0  0  0
   40.8050   30.0280   38.2950 C   0  0  1  0  0  3  0  0  0  0  0  0
   41.5520   29.7580   39.4490 O   0  0  0  0  0  0  0  0  0  0  0  0
   41.0040   28.6750   40.0930 C   0  0  0  0  0  2  0  0  0  0  0  0
   40.9940   27.5150   39.1130 C   0  0  1  0  0  3  0  0  0  0  0  0
   41.8500   27.8140   37.8860 C   0  0  2  0  0  3  0  0  0  0  0  0
   40.7130   28.9920   36.1090 O   0  0  0  0  0  0  0  0  0  0  0  0
   41.1120   29.5110   35.3440 H   0  0  0  0  0  0  0  0  0  0  0  0
   41.4900   26.3450   39.6800 O   0  0  0  0  0  0  0  0  0  0  0  0
   41.9440   25.7650   39.0190 H   0  0  0  0  0  0  0  0  0  0  0  0
   43.1800   27.8260   38.2930 O   0  0  0  0  0  0  0  0  0  0  0  0
   43.6830   28.6120   38.0040 H   0  0  0  0  0  0  0  0  0  0  0  0
  1  7  1  6  0  0  0
  1  6  1  0  0  0  0
  1  2  1  0  0  0  0
  2  8  1  6  0  0  0
  2  3  1  0  0  0  0
  2 17  1  0  0  0  0
  4  9  1  0  0  0  0
  4  3  1  0  0  0  0
  5  6  1  0  0  0  0
  5 11  1  1  0  0  0
  5  4  1  0  0  0  0
  6 12  1  1  0  0  0
 10  4  1  0  0  0  0
 13  1  1  0  0  0  0
 14 13  1  0  0  0  0
 15  5  1  0  0  0  0
 16 15  1  0  0  0  0
 17 18  1  0  0  0  0
 18 23  1  0  0  0  0
 19 18  2  0  0  0  0
 19 20  1  0  0  0  0
 20 21  2  0  0  0  0
 21 22  1  0  0  0  0
 22 25  1  0  0  0  0
 23 22  2  0  0  0  0
 24 19  1  0  0  0  0
 26 27  1  0  0  0  0
 26 20  1  0  0  0  0
 26 28  1  0  0  0  0
 27 30  1  0  0  0  0
 27 28  1  0  0  0  0
 28 33  1  0  0  0  0
 29 26  1  0  0  0  0
 31 27  1  0  0  0  0
 32 28  1  0  0  0  0
 34 35  1  0  0  0  0
 34  6  1  0  0  0  0
 36 35  2  0  0  0  0
 37 43  1  6  0  0  0
 37 42  1  0  0  0  0
 37 38  1  0  0  0  0
 38 35  1  6  0  0  0
 38 39  1  0  0  0  0
 39 40  1  0  0  0  0
 41 45  1  1  0  0  0
 41 40  1  0  0  0  0
 42 47  1  1  0  0  0
 42 41  1  0  0  0  0
 44 43  1  0  0  0  0
 46 45  1  0  0  0  0
 48 47  1  0  0  0  0
M  END
>  <minimizedAffinity>
-5.76605129

>  <minimizedRMSD>
0.107976206

$$$$
