
 OpenBabel03242523543D

 48 51  0  0  1  0  0  0  0  0999 V2000
   43.0180   33.9910   39.2430 C   0  0  1  0  0  0  0  0  0  0  0  0
   43.2340   34.9830   40.3800 C   0  0  1  0  0  0  0  0  0  0  0  0
   41.9840   35.5220   40.7350 O   0  0  0  0  0  0  0  0  0  0  0  0
   41.1470   35.7070   39.6330 C   0  0  0  0  0  0  0  0  0  0  0  0
   40.6760   34.3890   39.0500 C   0  0  2  0  0  0  0  0  0  0  0  0
   41.7190   33.3080   39.5180 C   0  0  1  0  0  0  0  0  0  0  0  0
   43.8700   33.2720   39.2550 H   0  0  0  0  0  0  0  0  0  0  0  0
   43.9530   35.7730   40.1160 H   0  0  0  0  0  0  0  0  0  0  0  0
   40.2550   36.2140   40.0230 H   0  0  0  0  0  0  0  0  0  0  0  0
   41.5860   36.3840   38.8830 H   0  0  0  0  0  0  0  0  0  0  0  0
   39.6720   34.1080   39.3950 H   0  0  0  0  0  0  0  0  0  0  0  0
   41.4350   33.3650   40.6180 H   0  0  0  0  0  0  0  0  0  0  0  0
   42.9770   34.6500   38.0070 O   0  0  0  0  0  0  0  0  0  0  0  0
   43.5450   34.1820   37.3510 H   0  0  0  0  0  0  0  0  0  0  0  0
   40.7910   34.4260   37.6680 O   0  0  0  0  0  0  0  0  0  0  0  0
   40.0340   34.0380   37.1990 H   0  0  0  0  0  0  0  0  0  0  0  0
   43.5850   34.2000   41.4880 O   0  0  0  0  0  0  0  0  0  0  0  0
   44.7680   34.2420   42.1110 C   0  0  0  0  0  0  0  0  0  0  0  0
   45.9620   34.4460   41.4010 C   0  0  0  0  0  0  0  0  0  0  0  0
   47.1490   34.4780   42.1120 C   0  0  0  0  0  0  0  0  0  0  0  0
   47.1270   34.3110   43.4870 N   0  0  0  0  0  0  0  0  0  0  0  0
   45.9600   34.1160   44.1360 C   0  0  0  0  0  0  0  0  0  0  0  0
   44.7840   34.0810   43.4570 N   0  0  0  0  0  0  0  0  0  0  0  0
   45.9660   34.5750   40.3330 H   0  0  0  0  0  0  0  0  0  0  0  0
   45.9710   33.9900   45.1990 H   0  0  0  0  0  0  0  0  0  0  0  0
   48.4630   34.6920   41.4220 C   0  0  0  0  0  0  0  0  0  0  0  0
   49.0650   36.0900   41.5330 C   0  0  0  0  0  0  0  0  0  0  0  0
   49.6680   34.8440   42.1680 C   0  0  0  0  0  0  0  0  0  0  0  0
   48.4140   34.3910   40.3400 H   0  0  0  0  0  0  0  0  0  0  0  0
   48.5530   36.7500   42.2860 H   0  0  0  0  0  0  0  0  0  0  0  0
   49.5660   36.5570   40.6880 H   0  0  0  0  0  0  0  0  0  0  0  0
   50.6290   34.5390   41.6990 H   0  0  0  0  0  0  0  0  0  0  0  0
   49.6460   34.7130   43.2570 H   0  0  0  0  0  0  0  0  0  0  0  0
   41.4640   32.1780   38.8340 O   0  0  0  0  0  0  0  0  0  0  0  0
   40.4420   31.3040   38.9970 C   0  0  0  0  0  0  0  0  0  0  0  0
   39.8780   30.7300   37.9690 O   0  0  0  0  0  0  0  0  0  0  0  0
   40.1530   29.4090   40.6230 C   0  0  1  0  0  3  0  0  0  0  0  0
   39.4870   30.5460   39.8570 C   0  0  1  0  0  3  0  0  0  0  0  0
   38.9850   31.3570   40.8820 O   0  0  0  0  0  0  0  0  0  0  0  0
   37.7320   30.9120   41.2320 C   0  0  0  0  0  2  0  0  0  0  0  0
   37.8620   29.4550   41.6420 C   0  0  1  0  0  3  0  0  0  0  0  0
   39.3200   29.0580   41.8360 C   0  0  2  0  0  3  0  0  0  0  0  0
   40.4560   28.3280   39.8310 O   0  0  0  0  0  0  0  0  0  0  0  0
   41.4460   28.2670   39.6560 H   0  0  0  0  0  0  0  0  0  0  0  0
   37.2040   29.1870   42.8390 O   0  0  0  0  0  0  0  0  0  0  0  0
   37.6420   28.4690   43.3610 H   0  0  0  0  0  0  0  0  0  0  0  0
   39.7880   29.7100   42.9720 O   0  0  0  0  0  0  0  0  0  0  0  0
   40.6330   30.1830   42.8440 H   0  0  0  0  0  0  0  0  0  0  0  0
  1  7  1  6  0  0  0
  1  6  1  0  0  0  0
  1  2  1  0  0  0  0
  2  8  1  6  0  0  0
  2  3  1  0  0  0  0
  2 17  1  0  0  0  0
  4  9  1  0  0  0  0
  4  3  1  0  0  0  0
  5 11  1  1  0  0  0
  5  6  1  0  0  0  0
  5  4  1  0  0  0  0
  6 12  1  1  0  0  0
 10  4  1  0  0  0  0
 13  1  1  0  0  0  0
 14 13  1  0  0  0  0
 15  5  1  0  0  0  0
 16 15  1  0  0  0  0
 17 18  1  0  0  0  0
 18 23  1  0  0  0  0
 19 18  2  0  0  0  0
 19 20  1  0  0  0  0
 20 21  2  0  0  0  0
 21 22  1  0  0  0  0
 22 25  1  0  0  0  0
 23 22  2  0  0  0  0
 24 19  1  0  0  0  0
 26 27  1  0  0  0  0
 26 20  1  0  0  0  0
 26 28  1  0  0  0  0
 27 28  1  0  0  0  0
 27 30  1  0  0  0  0
 28 33  1  0  0  0  0
 29 26  1  0  0  0  0
 31 27  1  0  0  0  0
 32 28  1  0  0  0  0
 34 35  1  0  0  0  0
 34  6  1  0  0  0  0
 36 35  2  0  0  0  0
 37 43  1  6  0  0  0
 37 42  1  0  0  0  0
 38 35  1  1  0  0  0
 38 37  1  0  0  0  0
 38 39  1  0  0  0  0
 39 40  1  0  0  0  0
 40 41  1  0  0  0  0
 41 42  1  0  0  0  0
 41 45  1  1  0  0  0
 42 47  1  1  0  0  0
 44 43  1  0  0  0  0
 45 46  1  0  0  0  0
 48 47  1  0  0  0  0
M  END
>  <minimizedAffinity>
-6.94684839

>  <minimizedRMSD>
1.87202215

$$$$
