
 OpenBabel03242523543D

 48 51  0  0  1  0  0  0  0  0999 V2000
   42.7930   34.2920   39.2430 C   0  0  1  0  0  0  0  0  0  0  0  0
   43.0550   35.1430   40.4800 C   0  0  1  0  0  0  0  0  0  0  0  0
   41.8160   35.5900   40.9740 O   0  0  0  0  0  0  0  0  0  0  0  0
   40.9060   35.8820   39.9560 C   0  0  0  0  0  0  0  0  0  0  0  0
   40.4340   34.6300   39.2410 C   0  0  2  0  0  0  0  0  0  0  0  0
   41.5320   33.5360   39.5070 C   0  0  1  0  0  0  0  0  0  0  0  0
   43.6630   33.6060   39.1140 H   0  0  0  0  0  0  0  0  0  0  0  0
   43.7350   35.9830   40.2760 H   0  0  0  0  0  0  0  0  0  0  0  0
   40.0280   36.3060   40.4590 H   0  0  0  0  0  0  0  0  0  0  0  0
   41.2790   36.6610   39.2730 H   0  0  0  0  0  0  0  0  0  0  0  0
   39.4620   34.2750   39.6080 H   0  0  0  0  0  0  0  0  0  0  0  0
   41.3180   33.4470   40.6200 H   0  0  0  0  0  0  0  0  0  0  0  0
   42.6570   35.0960   38.1040 O   0  0  0  0  0  0  0  0  0  0  0  0
   43.1940   34.7320   37.3610 H   0  0  0  0  0  0  0  0  0  0  0  0
   40.4600   34.8430   37.8710 O   0  0  0  0  0  0  0  0  0  0  0  0
   39.6850   34.4890   37.4020 H   0  0  0  0  0  0  0  0  0  0  0  0
   43.4960   34.2410   41.4580 O   0  0  0  0  0  0  0  0  0  0  0  0
   44.6790   34.3020   42.0780 C   0  0  0  0  0  0  0  0  0  0  0  0
   45.8730   34.4700   41.3590 C   0  0  0  0  0  0  0  0  0  0  0  0
   47.0620   34.5250   42.0660 C   0  0  0  0  0  0  0  0  0  0  0  0
   47.0410   34.4140   43.4460 N   0  0  0  0  0  0  0  0  0  0  0  0
   45.8740   34.2520   44.1050 C   0  0  0  0  0  0  0  0  0  0  0  0
   44.6970   34.1960   43.4300 N   0  0  0  0  0  0  0  0  0  0  0  0
   45.8760   34.5560   40.2860 H   0  0  0  0  0  0  0  0  0  0  0  0
   45.8860   34.1700   45.1720 H   0  0  0  0  0  0  0  0  0  0  0  0
   48.3760   34.7030   41.3660 C   0  0  0  0  0  0  0  0  0  0  0  0
   49.0380   36.0710   41.5080 C   0  0  0  0  0  0  0  0  0  0  0  0
   49.5940   34.7830   42.1010 C   0  0  0  0  0  0  0  0  0  0  0  0
   48.3020   34.4350   40.2770 H   0  0  0  0  0  0  0  0  0  0  0  0
   48.5630   36.7300   42.2860 H   0  0  0  0  0  0  0  0  0  0  0  0
   49.5480   36.5400   40.6710 H   0  0  0  0  0  0  0  0  0  0  0  0
   50.5360   34.4520   41.6120 H   0  0  0  0  0  0  0  0  0  0  0  0
   49.5790   34.6230   43.1860 H   0  0  0  0  0  0  0  0  0  0  0  0
   41.2650   32.4920   38.7030 O   0  0  0  0  0  0  0  0  0  0  0  0
   40.3030   31.5460   38.8380 C   0  0  0  0  0  0  0  0  0  0  0  0
   39.7700   30.9750   37.7930 O   0  0  0  0  0  0  0  0  0  0  0  0
   40.1420   29.5330   40.3350 C   0  0  1  0  0  3  0  0  0  0  0  0
   39.4080   30.6940   39.6740 C   0  0  1  0  0  3  0  0  0  0  0  0
   38.9140   31.4120   40.7700 O   0  0  0  0  0  0  0  0  0  0  0  0
   37.6920   30.8960   41.1290 C   0  0  0  0  0  2  0  0  0  0  0  0
   37.8880   29.4200   41.4310 C   0  0  1  0  0  3  0  0  0  0  0  0
   39.3670   29.0670   41.5480 C   0  0  2  0  0  3  0  0  0  0  0  0
   40.4560   28.5220   39.4600 O   0  0  0  0  0  0  0  0  0  0  0  0
   41.4390   28.5120   39.2480 H   0  0  0  0  0  0  0  0  0  0  0  0
   37.2840   29.0440   42.6270 O   0  0  0  0  0  0  0  0  0  0  0  0
   37.7670   28.3090   43.0820 H   0  0  0  0  0  0  0  0  0  0  0  0
   39.8520   29.6570   42.7100 O   0  0  0  0  0  0  0  0  0  0  0  0
   40.6740   30.1690   42.5890 H   0  0  0  0  0  0  0  0  0  0  0  0
  1  7  1  6  0  0  0
  1  6  1  0  0  0  0
  1  2  1  0  0  0  0
  2  8  1  6  0  0  0
  2  3  1  0  0  0  0
  2 17  1  0  0  0  0
  4  9  1  0  0  0  0
  4  3  1  0  0  0  0
  5  6  1  0  0  0  0
  5 11  1  1  0  0  0
  5  4  1  0  0  0  0
  6 12  1  1  0  0  0
 10  4  1  0  0  0  0
 13  1  1  0  0  0  0
 14 13  1  0  0  0  0
 15  5  1  0  0  0  0
 16 15  1  0  0  0  0
 17 18  1  0  0  0  0
 18 23  1  0  0  0  0
 19 20  1  0  0  0  0
 19 18  2  0  0  0  0
 20 21  2  0  0  0  0
 21 22  1  0  0  0  0
 22 25  1  0  0  0  0
 23 22  2  0  0  0  0
 24 19  1  0  0  0  0
 26 27  1  0  0  0  0
 26 20  1  0  0  0  0
 26 28  1  0  0  0  0
 27 28  1  0  0  0  0
 27 30  1  0  0  0  0
 28 33  1  0  0  0  0
 29 26  1  0  0  0  0
 31 27  1  0  0  0  0
 32 28  1  0  0  0  0
 34 35  1  0  0  0  0
 34  6  1  0  0  0  0
 36 35  2  0  0  0  0
 37 43  1  6  0  0  0
 37 42  1  0  0  0  0
 38 35  1  1  0  0  0
 38 37  1  0  0  0  0
 38 39  1  0  0  0  0
 39 40  1  0  0  0  0
 40 41  1  0  0  0  0
 41 42  1  0  0  0  0
 41 45  1  1  0  0  0
 42 47  1  1  0  0  0
 44 43  1  0  0  0  0
 45 46  1  0  0  0  0
 48 47  1  0  0  0  0
M  END
>  <minimizedAffinity>
-6.85881186

>  <minimizedRMSD>
1.89415252

$$$$
