
 OpenBabel03242523543D

 48 51  0  0  1  0  0  0  0  0999 V2000
   42.8170   34.5180   38.7120 C   0  0  1  0  0  0  0  0  0  0  0  0
   42.9880   35.1740   40.0770 C   0  0  1  0  0  0  0  0  0  0  0  0
   41.7100   35.4060   40.6150 O   0  0  0  0  0  0  0  0  0  0  0  0
   40.7750   35.7690   39.6420 C   0  0  0  0  0  0  0  0  0  0  0  0
   40.4360   34.6110   38.7220 C   0  0  2  0  0  0  0  0  0  0  0  0
   41.6400   33.6050   38.8250 C   0  0  1  0  0  0  0  0  0  0  0  0
   43.7530   33.9550   38.4880 H   0  0  0  0  0  0  0  0  0  0  0  0
   43.5780   36.1010   40.0250 H   0  0  0  0  0  0  0  0  0  0  0  0
   39.8580   36.0130   40.1910 H   0  0  0  0  0  0  0  0  0  0  0  0
   41.0670   36.6840   39.1020 H   0  0  0  0  0  0  0  0  0  0  0  0
   39.5050   34.1040   39.0080 H   0  0  0  0  0  0  0  0  0  0  0  0
   41.4350   33.3120   39.9040 H   0  0  0  0  0  0  0  0  0  0  0  0
   42.6010   35.4820   37.7180 O   0  0  0  0  0  0  0  0  0  0  0  0
   43.1730   35.3020   36.9360 H   0  0  0  0  0  0  0  0  0  0  0  0
   40.4420   35.0490   37.4060 O   0  0  0  0  0  0  0  0  0  0  0  0
   39.7090   34.7010   36.8720 H   0  0  0  0  0  0  0  0  0  0  0  0
   43.5180   34.1730   40.9010 O   0  0  0  0  0  0  0  0  0  0  0  0
   44.6160   34.3020   41.6540 C   0  0  0  0  0  0  0  0  0  0  0  0
   45.8920   34.3940   41.0770 C   0  0  0  0  0  0  0  0  0  0  0  0
   46.9840   34.5270   41.9180 C   0  0  0  0  0  0  0  0  0  0  0  0
   46.7890   34.5660   43.2880 N   0  0  0  0  0  0  0  0  0  0  0  0
   45.5480   34.4730   43.8080 C   0  0  0  0  0  0  0  0  0  0  0  0
   44.4640   34.3430   43.0010 N   0  0  0  0  0  0  0  0  0  0  0  0
   46.0300   34.3640   40.0100 H   0  0  0  0  0  0  0  0  0  0  0  0
   45.4260   34.5060   44.8710 H   0  0  0  0  0  0  0  0  0  0  0  0
   48.3770   34.6310   41.3730 C   0  0  0  0  0  0  0  0  0  0  0  0
   49.0310   36.0080   41.4480 C   0  0  0  0  0  0  0  0  0  0  0  0
   49.4950   34.7930   42.2420 C   0  0  0  0  0  0  0  0  0  0  0  0
   48.4370   34.2470   40.3180 H   0  0  0  0  0  0  0  0  0  0  0  0
   48.4700   36.7470   42.0840 H   0  0  0  0  0  0  0  0  0  0  0  0
   49.6480   36.3850   40.6360 H   0  0  0  0  0  0  0  0  0  0  0  0
   50.4860   34.4130   41.9130 H   0  0  0  0  0  0  0  0  0  0  0  0
   49.3420   34.7520   43.3270 H   0  0  0  0  0  0  0  0  0  0  0  0
   41.4830   32.6860   37.8560 O   0  0  0  0  0  0  0  0  0  0  0  0
   40.7350   31.5570   37.8760 C   0  0  0  0  0  0  0  0  0  0  0  0
   39.4910   31.5670   37.4790 O   0  0  0  0  0  0  0  0  0  0  0  0
   41.1660   29.2170   37.0660 C   0  0  1  0  0  3  0  0  0  0  0  0
   40.5630   30.1000   38.1520 C   0  0  1  0  0  3  0  0  0  0  0  0
   41.2780   29.7200   39.2940 O   0  0  0  0  0  0  0  0  0  0  0  0
   40.6510   28.6440   39.8780 C   0  0  0  0  0  2  0  0  0  0  0  0
   40.5700   27.5410   38.8370 C   0  0  1  0  0  3  0  0  0  0  0  0
   41.4560   27.8430   37.6330 C   0  0  2  0  0  3  0  0  0  0  0  0
   40.4190   29.1900   35.9150 O   0  0  0  0  0  0  0  0  0  0  0  0
   40.8590   29.7190   35.1790 H   0  0  0  0  0  0  0  0  0  0  0  0
   40.9780   26.3110   39.3440 O   0  0  0  0  0  0  0  0  0  0  0  0
   41.3980   25.7370   38.6560 H   0  0  0  0  0  0  0  0  0  0  0  0
   42.7800   27.7410   38.0470 O   0  0  0  0  0  0  0  0  0  0  0  0
   43.3380   28.5050   37.8020 H   0  0  0  0  0  0  0  0  0  0  0  0
  1  7  1  6  0  0  0
  1  6  1  0  0  0  0
  1  2  1  0  0  0  0
  2  8  1  6  0  0  0
  2  3  1  0  0  0  0
  2 17  1  0  0  0  0
  4  9  1  0  0  0  0
  4  3  1  0  0  0  0
  5  6  1  0  0  0  0
  5 11  1  1  0  0  0
  5  4  1  0  0  0  0
  6 12  1  1  0  0  0
 10  4  1  0  0  0  0
 13  1  1  0  0  0  0
 14 13  1  0  0  0  0
 15  5  1  0  0  0  0
 16 15  1  0  0  0  0
 17 18  1  0  0  0  0
 18 23  1  0  0  0  0
 19 18  2  0  0  0  0
 19 20  1  0  0  0  0
 20 21  2  0  0  0  0
 21 22  1  0  0  0  0
 22 25  1  0  0  0  0
 23 22  2  0  0  0  0
 24 19  1  0  0  0  0
 26 27  1  0  0  0  0
 26 20  1  0  0  0  0
 26 28  1  0  0  0  0
 27 30  1  0  0  0  0
 27 28  1  0  0  0  0
 28 33  1  0  0  0  0
 29 26  1  0  0  0  0
 31 27  1  0  0  0  0
 32 28  1  0  0  0  0
 34 35  1  0  0  0  0
 34  6  1  0  0  0  0
 36 35  2  0  0  0  0
 37 43  1  6  0  0  0
 37 42  1  0  0  0  0
 37 38  1  0  0  0  0
 38 35  1  6  0  0  0
 38 39  1  0  0  0  0
 39 40  1  0  0  0  0
 41 45  1  1  0  0  0
 41 40  1  0  0  0  0
 42 47  1  1  0  0  0
 42 41  1  0  0  0  0
 44 43  1  0  0  0  0
 46 45  1  0  0  0  0
 48 47  1  0  0  0  0
M  END
>  <minimizedAffinity>
-5.7978158

>  <minimizedRMSD>
0.337905228

$$$$
