
 OpenBabel03242514323D

 29 31  0  0  1  0  0  0  0  0999 V2000
   48.5690   34.7380   40.8940 O   0  0  0  0  0  0  0  0  0  0  0  0
   49.7590   35.2860   43.1030 O   0  0  0  0  0  0  0  0  0  0  0  0
   49.3100   34.1380   42.2710 P   0  0  2  0  0  0  0  0  0  0  0  0
   50.6870   33.2770   41.8180 O   0  0  0  0  0  0  0  0  0  0  0  0
   51.1880   33.8000   41.1440 H   0  0  0  0  0  0  0  0  0  0  0  0
   48.2220   33.1330   43.1320 O   0  0  0  0  0  0  0  0  0  0  0  0
   46.4100   34.7120   43.1630 C   0  0  0  0  0  0  0  0  0  0  0  0
   47.1260   33.6940   43.8040 C   0  0  0  0  0  0  0  0  0  0  0  0
   46.7140   33.2910   45.0710 C   0  0  0  0  0  0  0  0  0  0  0  0
   45.6360   33.9050   45.6280 N   0  0  0  0  0  0  0  0  0  0  0  0
   44.9730   34.8800   44.9840 C   0  0  0  0  0  0  0  0  0  0  0  0
   45.3590   35.2760   43.7640 N   0  0  0  0  0  0  0  0  0  0  0  0
   46.6800   35.0640   42.1850 H   0  0  0  0  0  0  0  0  0  0  0  0
   47.2680   32.5070   45.5610 H   0  0  0  0  0  0  0  0  0  0  0  0
   44.1250   35.3510   45.4420 H   0  0  0  0  0  0  0  0  0  0  0  0
   48.2300   34.0060   39.8010 C   0  0  2  0  0  3  0  0  0  0  0  0
   46.9490   33.9310   39.6880 O   0  0  0  0  0  0  0  0  0  0  0  0
   48.3350   33.9110   37.3310 C   0  0  1  0  0  3  0  0  0  0  0  0
   47.8660   33.2050   38.6080 C   0  0  1  0  0  0  0  0  0  0  0  0
   48.4260   31.9540   38.7110 O   0  0  0  0  0  0  0  0  0  0  0  0
   47.9320   31.0540   37.7780 C   0  0  0  0  0  2  0  0  0  0  0  0
   47.6750   31.7340   36.4480 C   0  0  1  0  0  3  0  0  0  0  0  0
   48.7320   32.8340   36.3460 C   0  0  1  0  0  3  0  0  0  0  0  0
   47.3170   34.6570   36.7430 O   0  0  0  0  0  0  0  0  0  0  0  0
   46.4570   34.5190   37.1870 H   0  0  0  0  0  0  0  0  0  0  0  0
   47.6970   30.8790   35.3750 O   0  0  0  0  0  0  0  0  0  0  0  0
   46.7720   30.5830   35.1920 H   0  0  0  0  0  0  0  0  0  0  0  0
   48.6960   33.3050   35.0310 O   0  0  0  0  0  0  0  0  0  0  0  0
   48.8970   34.2620   35.0500 H   0  0  0  0  0  0  0  0  0  0  0  0
  1  3  1  0  0  0  0
  3  2  2  1  0  0  0
  3  6  1  0  0  0  0
  4  3  1  0  0  0  0
  5  4  1  0  0  0  0
  6  8  1  0  0  0  0
  7 12  2  0  0  0  0
  7  8  1  0  0  0  0
  8  9  2  0  0  0  0
  9 14  1  0  0  0  0
  9 10  1  0  0  0  0
 11 15  1  0  0  0  0
 11 10  2  0  0  0  0
 12 11  1  0  0  0  0
 13  7  1  0  0  0  0
 16  1  1  1  0  0  0
 17 16  1  0  0  0  0
 18 24  1  6  0  0  0
 18 19  1  0  0  0  0
 19 20  1  1  0  0  0
 19 17  1  0  0  0  0
 19 16  1  0  0  0  0
 21 20  1  0  0  0  0
 22 26  1  6  0  0  0
 22 21  1  0  0  0  0
 23 28  1  6  0  0  0
 23 22  1  0  0  0  0
 23 18  1  0  0  0  0
 24 25  1  0  0  0  0
 27 26  1  0  0  0  0
 28 29  1  0  0  0  0
M  END
>  <minimizedAffinity>
-5.25518942

>  <minimizedRMSD>
0.709101319

$$$$
