
 OpenBabel03242514323D

 29 31  0  0  1  0  0  0  0  0999 V2000
   48.3180   34.9730   40.5880 O   0  0  0  0  0  0  0  0  0  0  0  0
   49.5720   35.3510   42.7980 O   0  0  0  0  0  0  0  0  0  0  0  0
   48.9620   34.2770   41.9680 P   0  0  2  0  0  0  0  0  0  0  0  0
   50.2010   33.2250   41.5200 O   0  0  0  0  0  0  0  0  0  0  0  0
   50.7730   33.6680   40.8460 H   0  0  0  0  0  0  0  0  0  0  0  0
   47.7410   33.4430   42.8310 O   0  0  0  0  0  0  0  0  0  0  0  0
   46.1510   35.2440   42.7600 C   0  0  0  0  0  0  0  0  0  0  0  0
   46.7010   34.1550   43.4470 C   0  0  0  0  0  0  0  0  0  0  0  0
   46.1890   33.8360   44.7020 C   0  0  0  0  0  0  0  0  0  0  0  0
   45.1790   34.5970   45.2020 N   0  0  0  0  0  0  0  0  0  0  0  0
   44.6750   35.6350   44.5150 C   0  0  0  0  0  0  0  0  0  0  0  0
   45.1590   35.9520   43.3070 N   0  0  0  0  0  0  0  0  0  0  0  0
   46.5040   35.5370   41.7900 H   0  0  0  0  0  0  0  0  0  0  0  0
   46.6160   32.9980   45.2270 H   0  0  0  0  0  0  0  0  0  0  0  0
   43.8790   36.2220   44.9290 H   0  0  0  0  0  0  0  0  0  0  0  0
   48.0460   34.3170   39.4300 C   0  0  2  0  0  3  0  0  0  0  0  0
   46.8830   33.7690   39.4830 O   0  0  0  0  0  0  0  0  0  0  0  0
   49.0630   33.1970   37.4720 C   0  0  1  0  0  3  0  0  0  0  0  0
   47.7570   33.6010   38.1640 C   0  0  1  0  0  0  0  0  0  0  0  0
   46.9810   32.4980   38.4320 O   0  0  0  0  0  0  0  0  0  0  0  0
   46.4460   31.9160   37.2930 C   0  0  0  0  0  2  0  0  0  0  0  0
   47.4270   31.9720   36.1390 C   0  0  1  0  0  3  0  0  0  0  0  0
   48.8110   31.8760   36.7800 C   0  0  1  0  0  3  0  0  0  0  0  0
   49.4390   34.1120   36.4930 O   0  0  0  0  0  0  0  0  0  0  0  0
   48.7570   34.7960   36.3470 H   0  0  0  0  0  0  0  0  0  0  0  0
   47.2170   31.0070   35.1850 O   0  0  0  0  0  0  0  0  0  0  0  0
   46.6450   31.3880   34.4760 H   0  0  0  0  0  0  0  0  0  0  0  0
   49.7220   31.6590   35.7430 O   0  0  0  0  0  0  0  0  0  0  0  0
   50.5560   32.1110   35.9770 H   0  0  0  0  0  0  0  0  0  0  0  0
  1  3  1  0  0  0  0
  3  2  2  1  0  0  0
  3  6  1  0  0  0  0
  4  3  1  0  0  0  0
  5  4  1  0  0  0  0
  6  8  1  0  0  0  0
  7 12  2  0  0  0  0
  7  8  1  0  0  0  0
  8  9  2  0  0  0  0
  9 10  1  0  0  0  0
  9 14  1  0  0  0  0
 11 15  1  0  0  0  0
 11 10  2  0  0  0  0
 12 11  1  0  0  0  0
 13  7  1  0  0  0  0
 16 17  1  0  0  0  0
 16  1  1  1  0  0  0
 18 24  1  6  0  0  0
 18 19  1  0  0  0  0
 19 20  1  1  0  0  0
 19 16  1  0  0  0  0
 19 17  1  0  0  0  0
 21 20  1  0  0  0  0
 22 26  1  6  0  0  0
 22 23  1  0  0  0  0
 22 21  1  0  0  0  0
 23 28  1  6  0  0  0
 23 18  1  0  0  0  0
 25 24  1  0  0  0  0
 27 26  1  0  0  0  0
 28 29  1  0  0  0  0
M  END
>  <minimizedAffinity>
-4.86797857

>  <minimizedRMSD>
0.124222942

$$$$
