
 OpenBabel03242514323D

 29 30  0  0  1  0  0  0  0  0999 V2000
   48.3810   35.1130   40.6950 O   0  0  0  0  0  0  0  0  0  0  0  0
   49.6480   35.2790   42.9240 O   0  0  0  0  0  0  0  0  0  0  0  0
   48.9950   34.2930   42.0200 P   0  0  2  0  0  0  0  0  0  0  0  0
   50.1900   33.2250   41.4960 O   0  0  0  0  0  0  0  0  0  0  0  0
   50.7800   33.6920   40.8540 H   0  0  0  0  0  0  0  0  0  0  0  0
   47.7390   33.4510   42.8240 O   0  0  0  0  0  0  0  0  0  0  0  0
   46.1510   35.2540   42.7670 C   0  0  0  0  0  0  0  0  0  0  0  0
   46.7000   34.1600   43.4450 C   0  0  0  0  0  0  0  0  0  0  0  0
   46.1890   33.8310   44.6980 C   0  0  0  0  0  0  0  0  0  0  0  0
   45.1800   34.5890   45.2050 N   0  0  0  0  0  0  0  0  0  0  0  0
   44.6760   35.6330   44.5260 C   0  0  0  0  0  0  0  0  0  0  0  0
   45.1600   35.9590   43.3210 N   0  0  0  0  0  0  0  0  0  0  0  0
   46.5030   35.5540   41.7990 H   0  0  0  0  0  0  0  0  0  0  0  0
   46.6150   32.9880   45.2170 H   0  0  0  0  0  0  0  0  0  0  0  0
   43.8810   36.2180   44.9460 H   0  0  0  0  0  0  0  0  0  0  0  0
   48.1440   34.5660   39.4740 C   0  0  0  0  0  0  0  0  0  0  0  0
   47.1050   33.8070   39.5140 O   0  0  0  0  0  0  0  0  0  0  0  0
   48.9530   32.9160   37.8180 C   0  0  1  0  0  3  0  0  0  0  0  0
   47.8900   33.9730   38.1390 C   0  0  1  0  0  3  0  0  0  0  0  0
   46.6310   33.4230   38.1180 O   0  0  0  0  0  0  0  0  0  0  0  0
   46.2060   33.0770   36.8440 C   0  0  0  0  0  2  0  0  0  0  0  0
   47.3540   32.5360   36.0160 C   0  0  1  0  0  3  0  0  0  0  0  0
   48.2750   31.8310   37.0120 C   0  0  1  0  0  3  0  0  0  0  0  0
   49.9830   33.4330   37.0360 O   0  0  0  0  0  0  0  0  0  0  0  0
   49.8000   34.3480   36.7440 H   0  0  0  0  0  0  0  0  0  0  0  0
   46.9590   31.7140   34.9890 O   0  0  0  0  0  0  0  0  0  0  0  0
   46.8670   32.2600   34.1700 H   0  0  0  0  0  0  0  0  0  0  0  0
   49.1980   31.1000   36.2590 O   0  0  0  0  0  0  0  0  0  0  0  0
   50.0480   31.1020   36.7420 H   0  0  0  0  0  0  0  0  0  0  0  0
  1  3  1  0  0  0  0
  3  6  1  0  0  0  0
  3  2  2  1  0  0  0
  4  3  1  0  0  0  0
  5  4  1  0  0  0  0
  6  8  1  0  0  0  0
  7 12  2  0  0  0  0
  7  8  1  0  0  0  0
  8  9  2  0  0  0  0
  9 10  1  0  0  0  0
  9 14  1  0  0  0  0
 11 15  1  0  0  0  0
 11 10  2  0  0  0  0
 12 11  1  0  0  0  0
 13  7  1  0  0  0  0
 16 17  2  0  0  0  0
 16  1  1  0  0  0  0
 18 24  1  6  0  0  0
 18 19  1  0  0  0  0
 19 16  1  1  0  0  0
 20 19  1  0  0  0  0
 21 20  1  0  0  0  0
 22 26  1  6  0  0  0
 22 21  1  0  0  0  0
 22 23  1  0  0  0  0
 23 28  1  6  0  0  0
 23 18  1  0  0  0  0
 25 24  1  0  0  0  0
 27 26  1  0  0  0  0
 28 29  1  0  0  0  0
M  END
>  <minimizedAffinity>
-5.29598379

>  <minimizedRMSD>
0.62336868

$$$$
