
 OpenBabel03242514323D

 29 30  0  0  1  0  0  0  0  0999 V2000
   48.3790   35.1140   40.6930 O   0  0  0  0  0  0  0  0  0  0  0  0
   49.6460   35.2820   42.9210 O   0  0  0  0  0  0  0  0  0  0  0  0
   48.9940   34.2950   42.0180 P   0  0  2  0  0  0  0  0  0  0  0  0
   50.1890   33.2270   41.4950 O   0  0  0  0  0  0  0  0  0  0  0  0
   50.7790   33.6940   40.8520 H   0  0  0  0  0  0  0  0  0  0  0  0
   47.7380   33.4520   42.8230 O   0  0  0  0  0  0  0  0  0  0  0  0
   46.1500   35.2560   42.7670 C   0  0  0  0  0  0  0  0  0  0  0  0
   46.6990   34.1610   43.4440 C   0  0  0  0  0  0  0  0  0  0  0  0
   46.1880   33.8320   44.6970 C   0  0  0  0  0  0  0  0  0  0  0  0
   45.1790   34.5900   45.2050 N   0  0  0  0  0  0  0  0  0  0  0  0
   44.6760   35.6340   44.5260 C   0  0  0  0  0  0  0  0  0  0  0  0
   45.1590   35.9610   43.3210 N   0  0  0  0  0  0  0  0  0  0  0  0
   46.5030   35.5560   41.7990 H   0  0  0  0  0  0  0  0  0  0  0  0
   46.6140   32.9890   45.2150 H   0  0  0  0  0  0  0  0  0  0  0  0
   43.8800   36.2190   44.9460 H   0  0  0  0  0  0  0  0  0  0  0  0
   48.1430   34.5660   39.4720 C   0  0  0  0  0  0  0  0  0  0  0  0
   47.1080   33.8010   39.5130 O   0  0  0  0  0  0  0  0  0  0  0  0
   48.9530   32.9140   37.8180 C   0  0  1  0  0  3  0  0  0  0  0  0
   47.8900   33.9720   38.1370 C   0  0  1  0  0  3  0  0  0  0  0  0
   46.6300   33.4240   38.1160 O   0  0  0  0  0  0  0  0  0  0  0  0
   46.2070   33.0770   36.8410 C   0  0  0  0  0  2  0  0  0  0  0  0
   47.3550   32.5350   36.0140 C   0  0  1  0  0  3  0  0  0  0  0  0
   48.2740   31.8290   37.0110 C   0  0  1  0  0  3  0  0  0  0  0  0
   49.9840   33.4300   37.0370 O   0  0  0  0  0  0  0  0  0  0  0  0
   49.8010   34.3450   36.7440 H   0  0  0  0  0  0  0  0  0  0  0  0
   46.9600   31.7140   34.9870 O   0  0  0  0  0  0  0  0  0  0  0  0
   46.8700   32.2590   34.1680 H   0  0  0  0  0  0  0  0  0  0  0  0
   49.1970   31.0980   36.2600 O   0  0  0  0  0  0  0  0  0  0  0  0
   50.0460   31.1000   36.7440 H   0  0  0  0  0  0  0  0  0  0  0  0
  1  3  1  0  0  0  0
  3  6  1  0  0  0  0
  3  2  2  1  0  0  0
  4  3  1  0  0  0  0
  5  4  1  0  0  0  0
  6  8  1  0  0  0  0
  7 12  2  0  0  0  0
  7  8  1  0  0  0  0
  8  9  2  0  0  0  0
  9 10  1  0  0  0  0
  9 14  1  0  0  0  0
 11 15  1  0  0  0  0
 11 10  2  0  0  0  0
 12 11  1  0  0  0  0
 13  7  1  0  0  0  0
 16 17  2  0  0  0  0
 16  1  1  0  0  0  0
 18 24  1  6  0  0  0
 18 19  1  0  0  0  0
 19 16  1  1  0  0  0
 20 19  1  0  0  0  0
 21 20  1  0  0  0  0
 22 26  1  6  0  0  0
 22 21  1  0  0  0  0
 22 23  1  0  0  0  0
 23 28  1  6  0  0  0
 23 18  1  0  0  0  0
 25 24  1  0  0  0  0
 27 26  1  0  0  0  0
 28 29  1  0  0  0  0
M  END
>  <minimizedAffinity>
-5.2956624

>  <minimizedRMSD>
0.440289378

$$$$
