
 OpenBabel03242514343D

 29 31  0  0  1  0  0  0  0  0999 V2000
   39.1530   31.3760   40.8710 O   0  0  0  0  0  0  0  0  0  0  0  0
   37.2980   30.9400   39.1490 O   0  0  0  0  0  0  0  0  0  0  0  0
   37.5150   31.4470   40.5310 P   0  0  2  0  0  0  0  0  0  0  0  0
   37.0210   33.0580   40.5580 O   0  0  0  0  0  0  0  0  0  0  0  0
   37.6790   33.6060   40.0620 H   0  0  0  0  0  0  0  0  0  0  0  0
   36.6360   30.5240   41.6750 O   0  0  0  0  0  0  0  0  0  0  0  0
   36.6200   28.1650   41.2110 C   0  0  0  0  0  0  0  0  0  0  0  0
   37.0580   29.2280   42.0090 C   0  0  0  0  0  0  0  0  0  0  0  0
   37.8890   28.9470   43.0910 C   0  0  0  0  0  0  0  0  0  0  0  0
   38.2360   27.6520   43.3220 N   0  0  0  0  0  0  0  0  0  0  0  0
   37.7960   26.6560   42.5350 C   0  0  0  0  0  0  0  0  0  0  0  0
   36.9970   26.9140   41.4920 N   0  0  0  0  0  0  0  0  0  0  0  0
   35.9790   28.3210   40.3650 H   0  0  0  0  0  0  0  0  0  0  0  0
   38.2240   29.7680   43.7030 H   0  0  0  0  0  0  0  0  0  0  0  0
   38.0820   25.6420   42.7360 H   0  0  0  0  0  0  0  0  0  0  0  0
   40.1510   31.4710   39.9540 C   0  0  2  0  0  3  0  0  0  0  0  0
   40.2110   30.4020   39.2390 O   0  0  0  0  0  0  0  0  0  0  0  0
   41.0250   32.8120   38.0680 C   0  0  1  0  0  3  0  0  0  0  0  0
   41.2420   31.5810   38.9560 C   0  0  1  0  0  0  0  0  0  0  0  0
   42.4490   31.6530   39.6080 O   0  0  0  0  0  0  0  0  0  0  0  0
   43.5380   31.4990   38.7640 C   0  0  0  0  0  2  0  0  0  0  0  0
   43.2850   32.1590   37.4220 C   0  0  1  0  0  3  0  0  0  0  0  0
   42.3910   33.3610   37.7260 C   0  0  1  0  0  3  0  0  0  0  0  0
   40.3970   32.4850   36.8680 O   0  0  0  0  0  0  0  0  0  0  0  0
   40.2960   31.5200   36.7570 H   0  0  0  0  0  0  0  0  0  0  0  0
   44.4320   32.5080   36.7520 O   0  0  0  0  0  0  0  0  0  0  0  0
   44.6700   31.7710   36.1370 H   0  0  0  0  0  0  0  0  0  0  0  0
   42.3560   34.1390   36.5660 O   0  0  0  0  0  0  0  0  0  0  0  0
   41.4690   34.5440   36.5040 H   0  0  0  0  0  0  0  0  0  0  0  0
  3  2  2  6  0  0  0
  3  4  1  0  0  0  0
  3  1  1  0  0  0  0
  3  6  1  0  0  0  0
  5  4  1  0  0  0  0
  6  8  1  0  0  0  0
  7 12  2  0  0  0  0
  7  8  1  0  0  0  0
  8  9  2  0  0  0  0
  9 10  1  0  0  0  0
  9 14  1  0  0  0  0
 11 15  1  0  0  0  0
 11 10  2  0  0  0  0
 12 11  1  0  0  0  0
 13  7  1  0  0  0  0
 16  1  1  1  0  0  0
 17 16  1  0  0  0  0
 18 24  1  6  0  0  0
 18 19  1  0  0  0  0
 19 17  1  6  0  0  0
 19 20  1  0  0  0  0
 19 16  1  0  0  0  0
 21 20  1  0  0  0  0
 22 26  1  1  0  0  0
 22 23  1  0  0  0  0
 22 21  1  0  0  0  0
 23 28  1  6  0  0  0
 23 18  1  0  0  0  0
 25 24  1  0  0  0  0
 27 26  1  0  0  0  0
 29 28  1  0  0  0  0
M  END
>  <minimizedAffinity>
-6.03662586

$$$$

 OpenBabel03242514343D

 29 31  0  0  1  0  0  0  0  0999 V2000
   36.0000   28.3340   41.3250 O   0  0  0  0  0  0  0  0  0  0  0  0
   36.1130   27.2880   43.6690 O   0  0  0  0  0  0  0  0  0  0  0  0
   36.9480   28.0010   42.6650 P   0  0  2  0  0  0  0  0  0  0  0  0
   37.4380   29.4570   43.3620 O   0  0  0  0  0  0  0  0  0  0  0  0
   36.6610   30.0670   43.4130 H   0  0  0  0  0  0  0  0  0  0  0  0
   38.3050   27.0620   42.2060 O   0  0  0  0  0  0  0  0  0  0  0  0
   38.2910   25.8970   40.1030 C   0  0  0  0  0  0  0  0  0  0  0  0
   38.1270   25.8670   41.4930 C   0  0  0  0  0  0  0  0  0  0  0  0
   37.7950   24.6570   42.0960 C   0  0  0  0  0  0  0  0  0  0  0  0
   37.6470   23.5590   41.3070 N   0  0  0  0  0  0  0  0  0  0  0  0
   37.8120   23.6240   39.9750 C   0  0  0  0  0  0  0  0  0  0  0  0
   38.1300   24.7830   39.3840 N   0  0  0  0  0  0  0  0  0  0  0  0
   38.5460   26.8010   39.5840 H   0  0  0  0  0  0  0  0  0  0  0  0
   37.6700   24.6380   43.1660 H   0  0  0  0  0  0  0  0  0  0  0  0
   37.6890   22.7460   39.3720 H   0  0  0  0  0  0  0  0  0  0  0  0
   36.3250   29.1950   40.3260 C   0  0  1  0  0  3  0  0  0  0  0  0
   35.2780   29.8150   39.9050 O   0  0  0  0  0  0  0  0  0  0  0  0
   37.4950   31.3100   39.7960 C   0  0  1  0  0  3  0  0  0  0  0  0
   36.6870   30.1330   39.2360 C   0  0  1  0  0  0  0  0  0  0  0  0
   37.4020   29.4590   38.2760 O   0  0  0  0  0  0  0  0  0  0  0  0
   37.5620   30.1810   37.1040 C   0  0  0  0  0  2  0  0  0  0  0  0
   37.7600   31.6560   37.3950 C   0  0  1  0  0  3  0  0  0  0  0  0
   38.4950   31.7080   38.7350 C   0  0  1  0  0  3  0  0  0  0  0  0
   36.6920   32.4200   40.0470 O   0  0  0  0  0  0  0  0  0  0  0  0
   35.7770   32.2910   39.7300 H   0  0  0  0  0  0  0  0  0  0  0  0
   38.4220   32.3340   36.4010 O   0  0  0  0  0  0  0  0  0  0  0  0
   37.7510   32.7330   35.7950 H   0  0  0  0  0  0  0  0  0  0  0  0
   38.9270   33.0260   38.9060 O   0  0  0  0  0  0  0  0  0  0  0  0
   38.8890   33.2320   39.8610 H   0  0  0  0  0  0  0  0  0  0  0  0
  1  3  1  0  0  0  0
  3  4  1  0  0  0  0
  3  2  2  1  0  0  0
  4  5  1  0  0  0  0
  6  3  1  0  0  0  0
  7  8  1  0  0  0  0
  8  9  2  0  0  0  0
  8  6  1  0  0  0  0
  9 14  1  0  0  0  0
 10  9  1  0  0  0  0
 11 10  2  0  0  0  0
 12 11  1  0  0  0  0
 12  7  2  0  0  0  0
 13  7  1  0  0  0  0
 15 11  1  0  0  0  0
 16  1  1  1  0  0  0
 17 16  1  0  0  0  0
 18 24  1  6  0  0  0
 19 20  1  6  0  0  0
 19 18  1  0  0  0  0
 19 17  1  0  0  0  0
 19 16  1  0  0  0  0
 21 22  1  0  0  0  0
 21 20  1  0  0  0  0
 22 26  1  6  0  0  0
 22 23  1  0  0  0  0
 23 28  1  1  0  0  0
 23 18  1  0  0  0  0
 25 24  1  0  0  0  0
 27 26  1  0  0  0  0
 28 29  1  0  0  0  0
M  END
>  <minimizedAffinity>
-5.58793068

$$$$

 OpenBabel03242514343D

 29 31  0  0  1  0  0  0  0  0999 V2000
   36.5010   28.6820   40.7680 O   0  0  0  0  0  0  0  0  0  0  0  0
   37.9340   30.3800   42.0550 O   0  0  0  0  0  0  0  0  0  0  0  0
   36.9320   30.2890   40.9600 P   0  0  2  0  0  0  0  0  0  0  0  0
   35.5750   31.1620   41.4470 O   0  0  0  0  0  0  0  0  0  0  0  0
   35.1070   30.6610   42.1600 H   0  0  0  0  0  0  0  0  0  0  0  0
   37.5580   30.9100   39.4910 O   0  0  0  0  0  0  0  0  0  0  0  0
   39.7550   31.7280   38.9610 C   0  0  0  0  0  0  0  0  0  0  0  0
   38.4880   31.9590   39.5100 C   0  0  0  0  0  0  0  0  0  0  0  0
   38.2160   33.2160   40.0440 C   0  0  0  0  0  0  0  0  0  0  0  0
   39.1940   34.1610   40.0090 N   0  0  0  0  0  0  0  0  0  0  0  0
   40.3990   33.9040   39.4740 C   0  0  0  0  0  0  0  0  0  0  0  0
   40.6720   32.6990   38.9570 N   0  0  0  0  0  0  0  0  0  0  0  0
   40.0220   30.7800   38.5350 H   0  0  0  0  0  0  0  0  0  0  0  0
   37.2390   33.3900   40.4660 H   0  0  0  0  0  0  0  0  0  0  0  0
   41.1560   34.6640   39.4570 H   0  0  0  0  0  0  0  0  0  0  0  0
   37.0960   27.6290   41.3880 C   0  0  2  0  0  3  0  0  0  0  0  0
   36.5740   27.4360   42.5490 O   0  0  0  0  0  0  0  0  0  0  0  0
   37.2800   25.1620   41.4330 C   0  0  1  0  0  3  0  0  0  0  0  0
   37.7490   26.4800   42.0610 C   0  0  1  0  0  0  0  0  0  0  0  0
   39.1130   26.6130   41.9630 O   0  0  0  0  0  0  0  0  0  0  0  0
   39.8090   25.7320   42.7760 C   0  0  0  0  0  2  0  0  0  0  0  0
   39.1140   24.3860   42.8420 C   0  0  1  0  0  3  0  0  0  0  0  0
   38.4510   24.2070   41.4760 C   0  0  1  0  0  3  0  0  0  0  0  0
   36.2420   24.5810   42.1560 O   0  0  0  0  0  0  0  0  0  0  0  0
   36.0620   25.0590   42.9900 H   0  0  0  0  0  0  0  0  0  0  0  0
   39.9500   23.3450   43.1650 O   0  0  0  0  0  0  0  0  0  0  0  0
   39.9110   23.2060   44.1430 H   0  0  0  0  0  0  0  0  0  0  0  0
   38.0290   22.8760   41.4050 O   0  0  0  0  0  0  0  0  0  0  0  0
   37.2010   22.8520   40.8870 H   0  0  0  0  0  0  0  0  0  0  0  0
  1  3  1  0  0  0  0
  3  4  1  0  0  0  0
  3  2  2  1  0  0  0
  4  5  1  0  0  0  0
  6  8  1  0  0  0  0
  6  3  1  0  0  0  0
  7  8  1  0  0  0  0
  8  9  2  0  0  0  0
  9 14  1  0  0  0  0
 10  9  1  0  0  0  0
 11 10  2  0  0  0  0
 12  7  2  0  0  0  0
 12 11  1  0  0  0  0
 13  7  1  0  0  0  0
 15 11  1  0  0  0  0
 16  1  1  1  0  0  0
 16 19  1  0  0  0  0
 16 17  1  0  0  0  0
 18 23  1  0  0  0  0
 18 19  1  0  0  0  0
 18 24  1  1  0  0  0
 19 20  1  1  0  0  0
 19 17  1  0  0  0  0
 20 21  1  0  0  0  0
 21 22  1  0  0  0  0
 22 26  1  6  0  0  0
 23 28  1  1  0  0  0
 23 22  1  0  0  0  0
 24 25  1  0  0  0  0
 26 27  1  0  0  0  0
 29 28  1  0  0  0  0
M  END
>  <minimizedAffinity>
-5.53083897

$$$$

 OpenBabel03242514343D

 29 31  0  0  1  0  0  0  0  0999 V2000
   37.4440   28.2470   41.1550 O   0  0  0  0  0  0  0  0  0  0  0  0
   36.0640   27.5400   43.2020 O   0  0  0  0  0  0  0  0  0  0  0  0
   37.4570   27.8540   42.7830 P   0  0  2  0  0  0  0  0  0  0  0  0
   37.9560   29.2010   43.6650 O   0  0  0  0  0  0  0  0  0  0  0  0
   37.4830   30.0010   43.3280 H   0  0  0  0  0  0  0  0  0  0  0  0
   38.5030   26.5260   43.0590 O   0  0  0  0  0  0  0  0  0  0  0  0
   39.5740   25.4270   41.2080 C   0  0  0  0  0  0  0  0  0  0  0  0
   38.5390   25.4570   42.1520 C   0  0  0  0  0  0  0  0  0  0  0  0
   37.6020   24.4270   42.1410 C   0  0  0  0  0  0  0  0  0  0  0  0
   37.7350   23.4390   41.2150 N   0  0  0  0  0  0  0  0  0  0  0  0
   38.7400   23.4430   40.3250 C   0  0  0  0  0  0  0  0  0  0  0  0
   39.6480   24.4280   40.3240 N   0  0  0  0  0  0  0  0  0  0  0  0
   40.3240   26.1920   41.1680 H   0  0  0  0  0  0  0  0  0  0  0  0
   36.8080   24.4540   42.8690 H   0  0  0  0  0  0  0  0  0  0  0  0
   38.8250   22.6540   39.6020 H   0  0  0  0  0  0  0  0  0  0  0  0
   37.8770   29.4220   40.6270 C   0  0  1  0  0  3  0  0  0  0  0  0
   37.1640   29.7480   39.6060 O   0  0  0  0  0  0  0  0  0  0  0  0
   37.9770   31.8690   40.9780 C   0  0  1  0  0  3  0  0  0  0  0  0
   38.3540   30.7040   40.0560 C   0  0  1  0  0  0  0  0  0  0  0  0
   39.7150   30.6420   39.8750 O   0  0  0  0  0  0  0  0  0  0  0  0
   40.2150   31.6860   39.1120 C   0  0  0  0  0  2  0  0  0  0  0  0
   39.4810   32.9790   39.4110 C   0  0  1  0  0  3  0  0  0  0  0  0
   39.0890   32.8890   40.8860 C   0  0  1  0  0  3  0  0  0  0  0  0
   36.8020   32.4970   40.5720 O   0  0  0  0  0  0  0  0  0  0  0  0
   36.4790   32.1530   39.7160 H   0  0  0  0  0  0  0  0  0  0  0  0
   40.2090   34.1080   39.1240 O   0  0  0  0  0  0  0  0  0  0  0  0
   39.9780   34.4050   38.2100 H   0  0  0  0  0  0  0  0  0  0  0  0
   38.6500   34.1610   41.2640 O   0  0  0  0  0  0  0  0  0  0  0  0
   37.9370   34.0480   41.9220 H   0  0  0  0  0  0  0  0  0  0  0  0
  1  3  1  0  0  0  0
  3  6  1  0  0  0  0
  3  2  2  1  0  0  0
  3  4  1  0  0  0  0
  5  4  1  0  0  0  0
  7  8  1  0  0  0  0
  8  6  1  0  0  0  0
  9  8  2  0  0  0  0
  9 14  1  0  0  0  0
 10  9  1  0  0  0  0
 11 10  2  0  0  0  0
 12 11  1  0  0  0  0
 12  7  2  0  0  0  0
 13  7  1  0  0  0  0
 15 11  1  0  0  0  0
 16  1  1  1  0  0  0
 17 16  1  0  0  0  0
 18 24  1  6  0  0  0
 19 17  1  6  0  0  0
 19 16  1  0  0  0  0
 19 18  1  0  0  0  0
 20 19  1  0  0  0  0
 21 22  1  0  0  0  0
 21 20  1  0  0  0  0
 22 26  1  1  0  0  0
 22 23  1  0  0  0  0
 23 18  1  0  0  0  0
 23 28  1  6  0  0  0
 25 24  1  0  0  0  0
 27 26  1  0  0  0  0
 28 29  1  0  0  0  0
M  END
>  <minimizedAffinity>
-5.51784039

$$$$

 OpenBabel03242514343D

 29 31  0  0  1  0  0  0  0  0999 V2000
   37.5110   29.4570   39.3000 O   0  0  0  0  0  0  0  0  0  0  0  0
   35.1910   29.9180   40.3000 O   0  0  0  0  0  0  0  0  0  0  0  0
   36.6030   30.3810   40.3620 P   0  0  2  0  0  0  0  0  0  0  0  0
   36.6280   31.9860   39.8480 O   0  0  0  0  0  0  0  0  0  0  0  0
   36.4740   32.0150   38.8710 H   0  0  0  0  0  0  0  0  0  0  0  0
   37.2340   30.2430   41.9490 O   0  0  0  0  0  0  0  0  0  0  0  0
   39.1340   29.0330   42.7900 C   0  0  0  0  0  0  0  0  0  0  0  0
   37.7950   29.0320   42.3810 C   0  0  0  0  0  0  0  0  0  0  0  0
   37.0900   27.8320   42.4240 C   0  0  0  0  0  0  0  0  0  0  0  0
   37.7340   26.7160   42.8610 N   0  0  0  0  0  0  0  0  0  0  0  0
   39.0210   26.7550   43.2460 C   0  0  0  0  0  0  0  0  0  0  0  0
   39.7090   27.9030   43.2090 N   0  0  0  0  0  0  0  0  0  0  0  0
   39.7260   29.9280   42.7790 H   0  0  0  0  0  0  0  0  0  0  0  0
   36.0590   27.8350   42.1080 H   0  0  0  0  0  0  0  0  0  0  0  0
   39.5100   25.8630   43.5870 H   0  0  0  0  0  0  0  0  0  0  0  0
   38.5980   29.8930   38.6110 C   0  0  2  0  0  3  0  0  0  0  0  0
   38.5340   29.5180   37.3820 O   0  0  0  0  0  0  0  0  0  0  0  0
   39.7600   31.9000   37.7480 C   0  0  1  0  0  3  0  0  0  0  0  0
   39.7870   30.3710   37.8660 C   0  0  1  0  0  0  0  0  0  0  0  0
   40.9260   29.9490   38.5080 O   0  0  0  0  0  0  0  0  0  0  0  0
   42.0770   30.1230   37.7550 C   0  0  0  0  0  2  0  0  0  0  0  0
   42.0120   31.4070   36.9500 C   0  0  1  0  0  3  0  0  0  0  0  0
   41.1930   32.3770   37.8030 C   0  0  1  0  0  3  0  0  0  0  0  0
   39.2290   32.3190   36.5310 O   0  0  0  0  0  0  0  0  0  0  0  0
   39.0610   31.5700   35.9250 H   0  0  0  0  0  0  0  0  0  0  0  0
   43.2440   31.9110   36.6110 O   0  0  0  0  0  0  0  0  0  0  0  0
   43.4800   31.5770   35.7110 H   0  0  0  0  0  0  0  0  0  0  0  0
   41.3360   33.6400   37.2230 O   0  0  0  0  0  0  0  0  0  0  0  0
   40.4940   34.1230   37.3460 H   0  0  0  0  0  0  0  0  0  0  0  0
  1  3  1  0  0  0  0
  3  2  2  6  0  0  0
  3  6  1  0  0  0  0
  4  3  1  0  0  0  0
  5  4  1  0  0  0  0
  6  8  1  0  0  0  0
  7 12  1  0  0  0  0
  8  9  1  0  0  0  0
  8  7  2  0  0  0  0
  9 10  2  0  0  0  0
 10 11  1  0  0  0  0
 11 15  1  0  0  0  0
 12 11  2  0  0  0  0
 13  7  1  0  0  0  0
 14  9  1  0  0  0  0
 16  1  1  1  0  0  0
 17 16  1  0  0  0  0
 18 24  1  6  0  0  0
 18 23  1  0  0  0  0
 18 19  1  0  0  0  0
 19 17  1  6  0  0  0
 19 20  1  0  0  0  0
 19 16  1  0  0  0  0
 21 20  1  0  0  0  0
 22 26  1  1  0  0  0
 22 21  1  0  0  0  0
 22 23  1  0  0  0  0
 23 28  1  6  0  0  0
 25 24  1  0  0  0  0
 27 26  1  0  0  0  0
 28 29  1  0  0  0  0
M  END
>  <minimizedAffinity>
-5.50968122

$$$$

 OpenBabel03242514343D

 29 31  0  0  1  0  0  0  0  0999 V2000
   36.7390   29.5340   39.3300 O   0  0  0  0  0  0  0  0  0  0  0  0
   34.2340   29.2990   39.8490 O   0  0  0  0  0  0  0  0  0  0  0  0
   35.5570   29.4510   40.5140 P   0  0  2  0  0  0  0  0  0  0  0  0
   35.5290   30.9090   41.3600 O   0  0  0  0  0  0  0  0  0  0  0  0
   35.5670   31.6580   40.7140 H   0  0  0  0  0  0  0  0  0  0  0  0
   35.8750   28.1420   41.5720 O   0  0  0  0  0  0  0  0  0  0  0  0
   37.7960   26.7000   41.6720 C   0  0  0  0  0  0  0  0  0  0  0  0
   37.1800   27.9060   42.0280 C   0  0  0  0  0  0  0  0  0  0  0  0
   37.8930   28.8080   42.8150 C   0  0  0  0  0  0  0  0  0  0  0  0
   39.1540   28.4750   43.2010 N   0  0  0  0  0  0  0  0  0  0  0  0
   39.7140   27.3080   42.8400 C   0  0  0  0  0  0  0  0  0  0  0  0
   39.0390   26.4330   42.0840 N   0  0  0  0  0  0  0  0  0  0  0  0
   37.2970   25.9680   41.0680 H   0  0  0  0  0  0  0  0  0  0  0  0
   37.4150   29.7340   43.0870 H   0  0  0  0  0  0  0  0  0  0  0  0
   40.7100   27.0660   43.1570 H   0  0  0  0  0  0  0  0  0  0  0  0
   37.6110   30.5620   39.1610 C   0  0  2  0  0  3  0  0  0  0  0  0
   36.9860   31.6310   38.8080 O   0  0  0  0  0  0  0  0  0  0  0  0
   38.9780   32.2550   40.3390 C   0  0  1  0  0  3  0  0  0  0  0  0
   38.5680   31.6800   38.9780 C   0  0  1  0  0  0  0  0  0  0  0  0
   39.6650   31.2290   38.2850 O   0  0  0  0  0  0  0  0  0  0  0  0
   40.4910   32.2510   37.8420 C   0  0  0  0  0  2  0  0  0  0  0  0
   40.5620   33.3730   38.8590 C   0  0  1  0  0  3  0  0  0  0  0  0
   40.4200   32.6940   40.2210 C   0  0  1  0  0  3  0  0  0  0  0  0
   38.2280   33.3790   40.6770 O   0  0  0  0  0  0  0  0  0  0  0  0
   37.6440   33.6640   39.9470 H   0  0  0  0  0  0  0  0  0  0  0  0
   41.7010   34.1350   38.7630 O   0  0  0  0  0  0  0  0  0  0  0  0
   41.5070   34.9170   38.1900 H   0  0  0  0  0  0  0  0  0  0  0  0
   40.7440   33.6530   41.1840 O   0  0  0  0  0  0  0  0  0  0  0  0
   40.1870   33.4880   41.9700 H   0  0  0  0  0  0  0  0  0  0  0  0
  1  3  1  0  0  0  0
  3  2  2  6  0  0  0
  3  4  1  0  0  0  0
  3  6  1  0  0  0  0
  5  4  1  0  0  0  0
  6  8  1  0  0  0  0
  7  8  2  0  0  0  0
  7 12  1  0  0  0  0
  8  9  1  0  0  0  0
  9 14  1  0  0  0  0
  9 10  2  0  0  0  0
 11 15  1  0  0  0  0
 11 10  1  0  0  0  0
 12 11  2  0  0  0  0
 13  7  1  0  0  0  0
 16  1  1  6  0  0  0
 17 19  1  0  0  0  0
 17 16  1  0  0  0  0
 18 24  1  6  0  0  0
 19 20  1  6  0  0  0
 19 16  1  0  0  0  0
 19 18  1  0  0  0  0
 21 20  1  0  0  0  0
 21 22  1  0  0  0  0
 22 26  1  1  0  0  0
 22 23  1  0  0  0  0
 23 18  1  0  0  0  0
 23 28  1  1  0  0  0
 25 24  1  0  0  0  0
 27 26  1  0  0  0  0
 28 29  1  0  0  0  0
M  END
>  <minimizedAffinity>
-5.44475079

$$$$

 OpenBabel03242514343D

 29 31  0  0  1  0  0  0  0  0999 V2000
   37.3780   25.5590   42.6260 O   0  0  0  0  0  0  0  0  0  0  0  0
   39.0680   25.4130   40.6960 O   0  0  0  0  0  0  0  0  0  0  0  0
   38.6120   24.6820   41.9090 P   0  0  2  0  0  0  0  0  0  0  0  0
   38.0000   23.1960   41.3990 O   0  0  0  0  0  0  0  0  0  0  0  0
   37.1340   23.3430   40.9430 H   0  0  0  0  0  0  0  0  0  0  0  0
   39.8970   24.4590   43.0200 O   0  0  0  0  0  0  0  0  0  0  0  0
   40.5370   26.7140   43.5540 C   0  0  0  0  0  0  0  0  0  0  0  0
   40.9030   25.4290   43.1360 C   0  0  0  0  0  0  0  0  0  0  0  0
   42.2450   25.1800   42.8580 C   0  0  0  0  0  0  0  0  0  0  0  0
   43.1370   26.1970   43.0060 N   0  0  0  0  0  0  0  0  0  0  0  0
   42.7490   27.4180   43.4090 C   0  0  0  0  0  0  0  0  0  0  0  0
   41.4620   27.6700   43.6790 N   0  0  0  0  0  0  0  0  0  0  0  0
   39.5190   26.9650   43.7830 H   0  0  0  0  0  0  0  0  0  0  0  0
   42.5230   24.1900   42.5370 H   0  0  0  0  0  0  0  0  0  0  0  0
   43.4700   28.2050   43.5180 H   0  0  0  0  0  0  0  0  0  0  0  0
   37.0930   26.8630   42.3740 C   0  0  2  0  0  3  0  0  0  0  0  0
   36.3360   27.3460   43.2970 O   0  0  0  0  0  0  0  0  0  0  0  0
   38.0580   29.1340   42.1930 C   0  0  1  0  0  3  0  0  0  0  0  0
   36.7840   28.2860   42.0930 C   0  0  1  0  0  0  0  0  0  0  0  0
   36.2220   28.3910   40.8440 O   0  0  0  0  0  0  0  0  0  0  0  0
   35.6660   29.6360   40.5960 C   0  0  0  0  0  2  0  0  0  0  0  0
   36.4990   30.7390   41.2200 C   0  0  1  0  0  3  0  0  0  0  0  0
   37.9420   30.2350   41.1640 C   0  0  1  0  0  3  0  0  0  0  0  0
   38.1820   29.7420   43.4400 O   0  0  0  0  0  0  0  0  0  0  0  0
   37.3900   29.6060   43.9960 H   0  0  0  0  0  0  0  0  0  0  0  0
   36.3410   31.9620   40.6150 O   0  0  0  0  0  0  0  0  0  0  0  0
   35.6460   32.4650   41.1050 H   0  0  0  0  0  0  0  0  0  0  0  0
   38.7600   31.3230   41.4820 O   0  0  0  0  0  0  0  0  0  0  0  0
   39.5340   30.9820   41.9720 H   0  0  0  0  0  0  0  0  0  0  0  0
  3  2  2  6  0  0  0
  3  1  1  0  0  0  0
  3  6  1  0  0  0  0
  4  3  1  0  0  0  0
  5  4  1  0  0  0  0
  6  8  1  0  0  0  0
  7 12  1  0  0  0  0
  7 13  1  0  0  0  0
  8  7  2  0  0  0  0
  9 10  2  0  0  0  0
  9  8  1  0  0  0  0
 10 11  1  0  0  0  0
 11 15  1  0  0  0  0
 11 12  2  0  0  0  0
 14  9  1  0  0  0  0
 16  1  1  6  0  0  0
 16 17  1  0  0  0  0
 18 24  1  1  0  0  0
 19 20  1  6  0  0  0
 19 18  1  0  0  0  0
 19 16  1  0  0  0  0
 19 17  1  0  0  0  0
 21 20  1  0  0  0  0
 21 22  1  0  0  0  0
 22 26  1  6  0  0  0
 23 22  1  0  0  0  0
 23 28  1  1  0  0  0
 23 18  1  0  0  0  0
 24 25  1  0  0  0  0
 26 27  1  0  0  0  0
 28 29  1  0  0  0  0
M  END
>  <minimizedAffinity>
-5.42622995

$$$$

 OpenBabel03242514343D

 29 31  0  0  1  0  0  0  0  0999 V2000
   36.1680   28.5690   40.5750 O   0  0  0  0  0  0  0  0  0  0  0  0
   37.9780   30.3250   41.0680 O   0  0  0  0  0  0  0  0  0  0  0  0
   36.6220   30.1780   40.4730 P   0  0  2  0  0  0  0  0  0  0  0  0
   35.5630   31.1040   41.4030 O   0  0  0  0  0  0  0  0  0  0  0  0
   35.4240   30.6570   42.2750 H   0  0  0  0  0  0  0  0  0  0  0  0
   36.6010   30.6920   38.8390 O   0  0  0  0  0  0  0  0  0  0  0  0
   35.8890   29.3200   36.9980 C   0  0  0  0  0  0  0  0  0  0  0  0
   36.9250   29.7920   37.8130 C   0  0  0  0  0  0  0  0  0  0  0  0
   38.2200   29.3440   37.5650 C   0  0  0  0  0  0  0  0  0  0  0  0
   38.4190   28.4700   36.5420 N   0  0  0  0  0  0  0  0  0  0  0  0
   37.4000   28.0380   35.7800 C   0  0  0  0  0  0  0  0  0  0  0  0
   36.1510   28.4610   36.0090 N   0  0  0  0  0  0  0  0  0  0  0  0
   34.8720   29.6290   37.1420 H   0  0  0  0  0  0  0  0  0  0  0  0
   39.0140   29.7100   38.1950 H   0  0  0  0  0  0  0  0  0  0  0  0
   37.5800   27.3480   34.9790 H   0  0  0  0  0  0  0  0  0  0  0  0
   36.8590   27.5980   41.2280 C   0  0  2  0  0  3  0  0  0  0  0  0
   36.5700   27.6030   42.4820 O   0  0  0  0  0  0  0  0  0  0  0  0
   37.1830   25.1540   41.4340 C   0  0  1  0  0  3  0  0  0  0  0  0
   37.6170   26.5370   41.9330 C   0  0  1  0  0  0  0  0  0  0  0  0
   38.9630   26.7300   41.7330 O   0  0  0  0  0  0  0  0  0  0  0  0
   39.7570   25.9490   42.5580 C   0  0  0  0  0  2  0  0  0  0  0  0
   39.1430   24.5780   42.7670 C   0  0  1  0  0  3  0  0  0  0  0  0
   38.4040   24.2650   41.4650 C   0  0  1  0  0  3  0  0  0  0  0  0
   36.2270   24.5760   42.2660 O   0  0  0  0  0  0  0  0  0  0  0  0
   36.0750   25.1050   43.0740 H   0  0  0  0  0  0  0  0  0  0  0  0
   40.0550   23.6080   43.1050 O   0  0  0  0  0  0  0  0  0  0  0  0
   40.0870   23.5400   44.0900 H   0  0  0  0  0  0  0  0  0  0  0  0
   38.0530   22.9130   41.5180 O   0  0  0  0  0  0  0  0  0  0  0  0
   37.1960   22.8080   41.0600 H   0  0  0  0  0  0  0  0  0  0  0  0
  3  1  1  0  0  0  0
  3  2  2  1  0  0  0
  3  4  1  0  0  0  0
  4  5  1  0  0  0  0
  6  3  1  0  0  0  0
  7 13  1  0  0  0  0
  7  8  1  0  0  0  0
  8  6  1  0  0  0  0
  9  8  2  0  0  0  0
  9 14  1  0  0  0  0
 10  9  1  0  0  0  0
 11 12  1  0  0  0  0
 11 10  2  0  0  0  0
 12  7  2  0  0  0  0
 15 11  1  0  0  0  0
 16  1  1  1  0  0  0
 16 19  1  0  0  0  0
 16 17  1  0  0  0  0
 18 23  1  0  0  0  0
 18 19  1  0  0  0  0
 18 24  1  1  0  0  0
 19 20  1  1  0  0  0
 19 17  1  0  0  0  0
 20 21  1  0  0  0  0
 21 22  1  0  0  0  0
 22 26  1  6  0  0  0
 23 28  1  1  0  0  0
 23 22  1  0  0  0  0
 24 25  1  0  0  0  0
 26 27  1  0  0  0  0
 29 28  1  0  0  0  0
M  END
>  <minimizedAffinity>
-5.36871672

$$$$

 OpenBabel03242514343D

 29 31  0  0  1  0  0  0  0  0999 V2000
   37.6110   27.0470   40.9340 O   0  0  0  0  0  0  0  0  0  0  0  0
   36.6720   25.3370   42.6050 O   0  0  0  0  0  0  0  0  0  0  0  0
   37.3060   26.6820   42.5400 P   0  0  2  0  0  0  0  0  0  0  0  0
   36.1920   27.7910   43.1490 O   0  0  0  0  0  0  0  0  0  0  0  0
   35.4600   27.9070   42.4940 H   0  0  0  0  0  0  0  0  0  0  0  0
   38.7620   26.7270   43.4400 O   0  0  0  0  0  0  0  0  0  0  0  0
   41.0680   27.1300   42.8940 C   0  0  0  0  0  0  0  0  0  0  0  0
   39.7760   27.6320   43.0940 C   0  0  0  0  0  0  0  0  0  0  0  0
   39.5650   28.9990   42.9390 C   0  0  0  0  0  0  0  0  0  0  0  0
   40.6230   29.7850   42.6000 N   0  0  0  0  0  0  0  0  0  0  0  0
   41.8490   29.2690   42.4160 C   0  0  0  0  0  0  0  0  0  0  0  0
   42.0660   27.9550   42.5630 N   0  0  0  0  0  0  0  0  0  0  0  0
   41.2910   26.0860   42.9990 H   0  0  0  0  0  0  0  0  0  0  0  0
   38.5690   29.3810   43.0940 H   0  0  0  0  0  0  0  0  0  0  0  0
   42.6700   29.9070   42.1500 H   0  0  0  0  0  0  0  0  0  0  0  0
   37.3640   28.2440   40.3400 C   0  0  2  0  0  3  0  0  0  0  0  0
   36.0980   28.4170   40.1830 O   0  0  0  0  0  0  0  0  0  0  0  0
   37.0680   30.6670   40.7400 C   0  0  1  0  0  3  0  0  0  0  0  0
   37.1010   29.5500   39.6900 C   0  0  1  0  0  0  0  0  0  0  0  0
   38.0710   29.7920   38.7480 O   0  0  0  0  0  0  0  0  0  0  0  0
   37.7710   30.8580   37.9140 C   0  0  0  0  0  2  0  0  0  0  0  0
   37.0670   31.9640   38.6750 C   0  0  1  0  0  3  0  0  0  0  0  0
   37.6390   31.9070   40.0910 C   0  0  1  0  0  3  0  0  0  0  0  0
   35.7680   30.9680   41.1390 O   0  0  0  0  0  0  0  0  0  0  0  0
   35.1000   30.4890   40.6090 H   0  0  0  0  0  0  0  0  0  0  0  0
   37.2010   33.2050   38.0990 O   0  0  0  0  0  0  0  0  0  0  0  0
   36.4200   33.3630   37.5150 H   0  0  0  0  0  0  0  0  0  0  0  0
   37.2160   33.0680   40.7430 O   0  0  0  0  0  0  0  0  0  0  0  0
   37.0690   32.8470   41.6840 H   0  0  0  0  0  0  0  0  0  0  0  0
  1  3  1  0  0  0  0
  3  2  2  1  0  0  0
  3  4  1  0  0  0  0
  3  6  1  0  0  0  0
  5  4  1  0  0  0  0
  7 13  1  0  0  0  0
  7  8  1  0  0  0  0
  8  6  1  0  0  0  0
  9 14  1  0  0  0  0
  9  8  2  0  0  0  0
 10  9  1  0  0  0  0
 11 12  1  0  0  0  0
 11 10  2  0  0  0  0
 12  7  2  0  0  0  0
 15 11  1  0  0  0  0
 16  1  1  6  0  0  0
 17 16  1  0  0  0  0
 18 24  1  6  0  0  0
 19 20  1  6  0  0  0
 19 17  1  0  0  0  0
 19 16  1  0  0  0  0
 19 18  1  0  0  0  0
 21 22  1  0  0  0  0
 21 20  1  0  0  0  0
 22 26  1  6  0  0  0
 22 23  1  0  0  0  0
 23 18  1  0  0  0  0
 23 28  1  1  0  0  0
 25 24  1  0  0  0  0
 27 26  1  0  0  0  0
 28 29  1  0  0  0  0
M  END
>  <minimizedAffinity>
-5.29843664

$$$$
