
 OpenBabel03242514323D

 29 31  0  0  1  0  0  0  0  0999 V2000
   48.4510   34.9020   40.6050 O   0  0  0  0  0  0  0  0  0  0  0  0
   49.6290   35.3910   42.8350 O   0  0  0  0  0  0  0  0  0  0  0  0
   49.0710   34.2720   42.0280 P   0  0  2  0  0  0  0  0  0  0  0  0
   50.3480   33.2360   41.6550 O   0  0  0  0  0  0  0  0  0  0  0  0
   50.9290   33.6690   40.9820 H   0  0  0  0  0  0  0  0  0  0  0  0
   47.8450   33.4390   42.8860 O   0  0  0  0  0  0  0  0  0  0  0  0
   46.2460   35.2290   42.7380 C   0  0  0  0  0  0  0  0  0  0  0  0
   46.7760   34.1480   43.4530 C   0  0  0  0  0  0  0  0  0  0  0  0
   46.2160   33.8330   44.6890 C   0  0  0  0  0  0  0  0  0  0  0  0
   45.1800   34.5890   45.1430 N   0  0  0  0  0  0  0  0  0  0  0  0
   44.6980   35.6200   44.4290 C   0  0  0  0  0  0  0  0  0  0  0  0
   45.2280   35.9330   43.2400 N   0  0  0  0  0  0  0  0  0  0  0  0
   46.6370   35.5180   41.7810 H   0  0  0  0  0  0  0  0  0  0  0  0
   46.6260   33.0000   45.2360 H   0  0  0  0  0  0  0  0  0  0  0  0
   43.8810   36.2030   44.8070 H   0  0  0  0  0  0  0  0  0  0  0  0
   48.1340   34.1790   39.4990 C   0  0  1  0  0  3  0  0  0  0  0  0
   46.8600   34.0180   39.4140 O   0  0  0  0  0  0  0  0  0  0  0  0
   46.2820   33.1530   38.2200 C   0  0  2  0  0  0  0  0  0  0  0  0
   47.7950   33.3900   38.2900 C   0  0  1  0  0  3  0  0  0  0  0  0
   48.2400   34.0540   37.1730 O   0  0  0  0  0  0  0  0  0  0  0  0
   48.2010   33.2790   36.0240 C   0  0  0  0  0  2  0  0  0  0  0  0
   46.9830   32.3780   36.0140 C   0  0  1  0  0  3  0  0  0  0  0  0
   45.8980   33.1590   36.7570 C   0  0  1  0  0  3  0  0  0  0  0  0
   45.9250   31.9110   38.7380 O   0  0  0  0  0  0  0  0  0  0  0  0
   46.7050   31.3660   38.9620 H   0  0  0  0  0  0  0  0  0  0  0  0
   46.5890   31.9910   34.7580 O   0  0  0  0  0  0  0  0  0  0  0  0
   47.0060   31.1190   34.5550 H   0  0  0  0  0  0  0  0  0  0  0  0
   44.6950   32.4820   36.5410 O   0  0  0  0  0  0  0  0  0  0  0  0
   44.1500   32.5740   37.3470 H   0  0  0  0  0  0  0  0  0  0  0  0
  1  3  1  0  0  0  0
  3  2  2  1  0  0  0
  3  6  1  0  0  0  0
  4  3  1  0  0  0  0
  5  4  1  0  0  0  0
  6  8  1  0  0  0  0
  7 12  2  0  0  0  0
  7  8  1  0  0  0  0
  8  9  2  0  0  0  0
  9 10  1  0  0  0  0
  9 14  1  0  0  0  0
 11 15  1  0  0  0  0
 11 10  2  0  0  0  0
 12 11  1  0  0  0  0
 13  7  1  0  0  0  0
 16  1  1  6  0  0  0
 17 16  1  0  0  0  0
 18 19  1  0  0  0  0
 18 24  1  1  0  0  0
 18 17  1  0  0  0  0
 19 20  1  6  0  0  0
 19 16  1  0  0  0  0
 21 20  1  0  0  0  0
 22 26  1  6  0  0  0
 22 21  1  0  0  0  0
 22 23  1  0  0  0  0
 23 28  1  1  0  0  0
 23 18  1  0  0  0  0
 24 25  1  0  0  0  0
 27 26  1  0  0  0  0
 28 29  1  0  0  0  0
M  END
>  <minimizedAffinity>
-5.02611303

>  <minimizedRMSD>
0.288814247

$$$$
