
 OpenBabel03242514323D

 29 31  0  0  1  0  0  0  0  0999 V2000
   48.3290   34.9200   40.4040 O   0  0  0  0  0  0  0  0  0  0  0  0
   49.4290   35.5190   42.6470 O   0  0  0  0  0  0  0  0  0  0  0  0
   48.9320   34.3570   41.8620 P   0  0  2  0  0  0  0  0  0  0  0  0
   50.2540   33.3570   41.5550 O   0  0  0  0  0  0  0  0  0  0  0  0
   50.8380   33.7890   40.8830 H   0  0  0  0  0  0  0  0  0  0  0  0
   47.7140   33.5070   42.7140 O   0  0  0  0  0  0  0  0  0  0  0  0
   46.1160   35.3030   42.6920 C   0  0  0  0  0  0  0  0  0  0  0  0
   46.6830   34.2090   43.3570 C   0  0  0  0  0  0  0  0  0  0  0  0
   46.1970   33.8740   44.6180 C   0  0  0  0  0  0  0  0  0  0  0  0
   45.1930   34.6250   45.1460 N   0  0  0  0  0  0  0  0  0  0  0  0
   44.6720   35.6690   44.4790 C   0  0  0  0  0  0  0  0  0  0  0  0
   45.1320   36.0010   43.2660 N   0  0  0  0  0  0  0  0  0  0  0  0
   46.4490   35.6080   41.7190 H   0  0  0  0  0  0  0  0  0  0  0  0
   46.6360   33.0320   45.1260 H   0  0  0  0  0  0  0  0  0  0  0  0
   43.8820   36.2480   44.9150 H   0  0  0  0  0  0  0  0  0  0  0  0
   48.0540   34.1510   39.3180 C   0  0  1  0  0  3  0  0  0  0  0  0
   48.4650   32.9450   39.5040 O   0  0  0  0  0  0  0  0  0  0  0  0
   46.2380   33.1100   38.0000 C   0  0  1  0  0  3  0  0  0  0  0  0
   47.7510   33.3170   38.1300 C   0  0  1  0  0  0  0  0  0  0  0  0
   48.2630   33.9210   37.0080 O   0  0  0  0  0  0  0  0  0  0  0  0
   48.2580   33.0980   35.8920 C   0  0  0  0  0  2  0  0  0  0  0  0
   47.0200   32.2250   35.8650 C   0  0  1  0  0  3  0  0  0  0  0  0
   45.9210   33.0610   36.5220 C   0  0  1  0  0  3  0  0  0  0  0  0
   45.8280   31.9000   38.5540 O   0  0  0  0  0  0  0  0  0  0  0  0
   46.5840   31.3500   38.8370 H   0  0  0  0  0  0  0  0  0  0  0  0
   46.6740   31.7900   34.6090 O   0  0  0  0  0  0  0  0  0  0  0  0
   47.0790   30.9020   34.4640 H   0  0  0  0  0  0  0  0  0  0  0  0
   44.7140   32.3990   36.2800 O   0  0  0  0  0  0  0  0  0  0  0  0
   44.1350   32.5390   37.0540 H   0  0  0  0  0  0  0  0  0  0  0  0
  1  3  1  0  0  0  0
  3  2  2  1  0  0  0
  3  6  1  0  0  0  0
  4  3  1  0  0  0  0
  5  4  1  0  0  0  0
  6  8  1  0  0  0  0
  7 12  2  0  0  0  0
  7  8  1  0  0  0  0
  8  9  2  0  0  0  0
  9 14  1  0  0  0  0
  9 10  1  0  0  0  0
 11 15  1  0  0  0  0
 11 10  2  0  0  0  0
 12 11  1  0  0  0  0
 13  7  1  0  0  0  0
 16 17  1  0  0  0  0
 16  1  1  1  0  0  0
 18 19  1  0  0  0  0
 18 24  1  1  0  0  0
 19 20  1  6  0  0  0
 19 16  1  0  0  0  0
 19 17  1  0  0  0  0
 21 20  1  0  0  0  0
 22 26  1  6  0  0  0
 22 21  1  0  0  0  0
 22 23  1  0  0  0  0
 23 28  1  1  0  0  0
 23 18  1  0  0  0  0
 24 25  1  0  0  0  0
 27 26  1  0  0  0  0
 28 29  1  0  0  0  0
M  END
>  <minimizedAffinity>
-5.05994892

>  <minimizedRMSD>
0.780286252

$$$$
