
 OpenBabel03242514323D

 29 31  0  0  1  0  0  0  0  0999 V2000
   48.5670   34.7380   40.8940 O   0  0  0  0  0  0  0  0  0  0  0  0
   49.7600   35.2860   43.1020 O   0  0  0  0  0  0  0  0  0  0  0  0
   49.3100   34.1370   42.2700 P   0  0  2  0  0  0  0  0  0  0  0  0
   50.6860   33.2760   41.8160 O   0  0  0  0  0  0  0  0  0  0  0  0
   51.1860   33.7990   41.1420 H   0  0  0  0  0  0  0  0  0  0  0  0
   48.2230   33.1330   43.1330 O   0  0  0  0  0  0  0  0  0  0  0  0
   46.4110   34.7130   43.1630 C   0  0  0  0  0  0  0  0  0  0  0  0
   47.1260   33.6940   43.8040 C   0  0  0  0  0  0  0  0  0  0  0  0
   46.7140   33.2920   45.0720 C   0  0  0  0  0  0  0  0  0  0  0  0
   45.6350   33.9060   45.6280 N   0  0  0  0  0  0  0  0  0  0  0  0
   44.9720   34.8800   44.9820 C   0  0  0  0  0  0  0  0  0  0  0  0
   45.3590   35.2760   43.7630 N   0  0  0  0  0  0  0  0  0  0  0  0
   46.6820   35.0640   42.1850 H   0  0  0  0  0  0  0  0  0  0  0  0
   47.2670   32.5080   45.5620 H   0  0  0  0  0  0  0  0  0  0  0  0
   44.1240   35.3520   45.4400 H   0  0  0  0  0  0  0  0  0  0  0  0
   48.2280   34.0050   39.8010 C   0  0  2  0  0  3  0  0  0  0  0  0
   46.9480   33.9300   39.6870 O   0  0  0  0  0  0  0  0  0  0  0  0
   48.3350   33.9110   37.3310 C   0  0  1  0  0  3  0  0  0  0  0  0
   47.8650   33.2040   38.6070 C   0  0  1  0  0  0  0  0  0  0  0  0
   48.4250   31.9530   38.7110 O   0  0  0  0  0  0  0  0  0  0  0  0
   47.9330   31.0540   37.7780 C   0  0  0  0  0  2  0  0  0  0  0  0
   47.6760   31.7330   36.4480 C   0  0  1  0  0  3  0  0  0  0  0  0
   48.7320   32.8340   36.3470 C   0  0  1  0  0  3  0  0  0  0  0  0
   47.3150   34.6560   36.7430 O   0  0  0  0  0  0  0  0  0  0  0  0
   46.4560   34.5190   37.1870 H   0  0  0  0  0  0  0  0  0  0  0  0
   47.6980   30.8780   35.3740 O   0  0  0  0  0  0  0  0  0  0  0  0
   46.7730   30.5830   35.1910 H   0  0  0  0  0  0  0  0  0  0  0  0
   48.6960   33.3060   35.0310 O   0  0  0  0  0  0  0  0  0  0  0  0
   48.8970   34.2620   35.0500 H   0  0  0  0  0  0  0  0  0  0  0  0
  1  3  1  0  0  0  0
  3  2  2  1  0  0  0
  3  6  1  0  0  0  0
  4  3  1  0  0  0  0
  5  4  1  0  0  0  0
  6  8  1  0  0  0  0
  7 12  2  0  0  0  0
  7  8  1  0  0  0  0
  8  9  2  0  0  0  0
  9 14  1  0  0  0  0
  9 10  1  0  0  0  0
 11 15  1  0  0  0  0
 11 10  2  0  0  0  0
 12 11  1  0  0  0  0
 13  7  1  0  0  0  0
 16  1  1  1  0  0  0
 17 16  1  0  0  0  0
 18 24  1  6  0  0  0
 18 19  1  0  0  0  0
 19 20  1  1  0  0  0
 19 17  1  0  0  0  0
 19 16  1  0  0  0  0
 21 20  1  0  0  0  0
 22 26  1  6  0  0  0
 22 21  1  0  0  0  0
 23 28  1  6  0  0  0
 23 22  1  0  0  0  0
 23 18  1  0  0  0  0
 24 25  1  0  0  0  0
 27 26  1  0  0  0  0
 28 29  1  0  0  0  0
M  END
>  <minimizedAffinity>
-5.2562685

>  <minimizedRMSD>
0.737667203

$$$$
