
 OpenBabel03252500543D

 29 30  0  0  0  0  0  0  0  0999 V2000
   48.3570   34.0460   42.4920 C   0  0  0  0  0  0  0  0  0  0  0  0
   48.1850   33.0190   41.5840 C   0  0  0  0  0  0  0  0  0  0  0  0
   47.0180   32.2450   41.7020 C   0  0  0  0  0  0  0  0  0  0  0  0
   46.1510   32.5520   42.6830 N   0  0  0  0  0  0  0  0  0  0  0  0
   46.3480   33.5570   43.5510 C   0  0  0  0  0  0  0  0  0  0  0  0
   47.4530   34.3000   43.4480 N   0  0  0  0  0  0  0  0  0  0  0  0
   46.9040   31.4470   40.9810 H   0  0  0  0  0  0  0  0  0  0  0  0
   45.5890   33.7360   44.3190 H   0  0  0  0  0  0  0  0  0  0  0  0
   49.5460   34.9000   42.4400 C   0  0  0  0  0  0  0  0  0  0  0  0
   50.4370   34.3550   42.0610 H   0  0  0  0  0  0  0  0  0  0  0  0
   49.7850   35.2310   43.4720 H   0  0  0  0  0  0  0  0  0  0  0  0
   49.2340   36.1390   41.6310 C   0  0  0  0  0  0  0  0  0  0  0  0
   49.5390   37.0670   42.1850 H   0  0  0  0  0  0  0  0  0  0  0  0
   49.8730   36.0830   40.7060 H   0  0  0  0  0  0  0  0  0  0  0  0
   48.1850   36.1980   41.2950 H   0  0  0  0  0  0  0  0  0  0  0  0
   49.1760   32.8400   40.6370 O   0  0  0  0  0  0  0  0  0  0  0  0
   51.6770   32.0590   40.8670 O   0  0  0  0  0  0  0  0  0  0  0  0
   50.2710   31.5630   40.5410 P   0  0  1  0  0  0  0  0  0  0  0  0
   49.8390   30.4210   41.7390 O   0  0  0  0  0  0  0  0  0  0  0  0
   50.3590   29.5840   41.6630 H   0  0  0  0  0  0  0  0  0  0  0  0
   50.2480   30.7750   39.0450 O   0  0  0  0  0  0  0  0  0  0  0  0
   51.4300   30.2700   38.5210 C   0  0  0  0  0  0  0  0  0  0  0  0
   51.8860   31.0310   37.4390 C   0  0  0  0  0  0  0  0  0  0  0  0
   51.5670   31.9270   36.8830 H   0  0  0  0  0  0  0  0  0  0  0  0
   53.0710   30.4670   36.9680 C   0  0  0  0  0  0  0  0  0  0  0  0
   53.7860   30.6620   36.1910 H   0  0  0  0  0  0  0  0  0  0  0  0
   53.2810   29.3930   37.7810 N   0  0  0  0  0  0  0  0  0  0  0  0
   54.0020   28.6270   37.8820 H   0  0  0  0  0  0  0  0  0  0  0  0
   52.3180   29.2880   38.6830 N   0  0  0  0  0  0  0  0  0  0  0  0
  1  6  1  0  0  0  0
  2  3  1  0  0  0  0
  2  1  2  0  0  0  0
  3  4  2  0  0  0  0
  4  5  1  0  0  0  0
  5  8  1  0  0  0  0
  6  5  2  0  0  0  0
  7  3  1  0  0  0  0
  9  1  1  0  0  0  0
  9 11  1  0  0  0  0
 10  9  1  0  0  0  0
 12 13  1  0  0  0  0
 12  9  1  0  0  0  0
 14 12  1  0  0  0  0
 15 12  1  0  0  0  0
 16  2  1  0  0  0  0
 18 16  1  0  0  0  0
 18 17  2  1  0  0  0
 18 19  1  0  0  0  0
 20 19  1  0  0  0  0
 21 18  1  0  0  0  0
 22 29  2  0  0  0  0
 22 21  1  0  0  0  0
 23 22  1  0  0  0  0
 24 23  1  0  0  0  0
 25 23  2  0  0  0  0
 25 27  1  0  0  0  0
 26 25  1  0  0  0  0
 27 28  1  0  0  0  0
 27 29  1  0  0  0  0
M  END
>  <minimizedAffinity>
-3.23084807

>  <minimizedRMSD>
8.95393944

$$$$
