
 OpenBabel03242512093D

 32 34  0  0  1  0  0  0  0  0999 V2000
   48.0790   34.4270   41.1090 C   0  0  1  0  0  0  0  0  0  0  0  0
   48.8030   35.7080   41.6800 C   0  0  0  0  0  0  0  0  0  0  0  0
   49.0220   34.3580   42.2220 C   0  0  2  0  0  0  0  0  0  0  0  0
   48.4260   34.1810   40.1000 H   0  0  0  0  0  0  0  0  0  0  0  0
   49.5530   36.1700   41.0040 H   0  0  0  0  0  0  0  0  0  0  0  0
   48.1610   36.4230   42.2300 H   0  0  0  0  0  0  0  0  0  0  0  0
   48.5360   33.9250   43.1100 H   0  0  0  0  0  0  0  0  0  0  0  0
   46.6120   34.4630   41.3680 C   0  0  0  0  0  0  0  0  0  0  0  0
   45.8650   34.2510   40.4180 O   0  0  0  0  0  0  0  0  0  0  0  0
   45.4050   35.8890   42.9510 C   0  0  0  0  0  0  0  0  0  0  0  0
   46.0210   34.7220   42.6440 C   0  0  0  0  0  0  0  0  0  0  0  0
   46.0720   33.7210   43.6490 C   0  0  0  0  0  0  0  0  0  0  0  0
   45.5170   33.9430   44.8660 N   0  0  0  0  0  0  0  0  0  0  0  0
   44.9070   35.1350   45.1260 C   0  0  0  0  0  0  0  0  0  0  0  0
   44.8560   36.0710   44.1960 N   0  0  0  0  0  0  0  0  0  0  0  0
   45.3740   36.6370   42.1790 H   0  0  0  0  0  0  0  0  0  0  0  0
   46.5190   32.7710   43.5330 H   0  0  0  0  0  0  0  0  0  0  0  0
   44.4500   35.3640   46.0740 H   0  0  0  0  0  0  0  0  0  0  0  0
   50.3150   33.8830   42.0220 O   0  0  0  0  0  0  0  0  0  0  0  0
   48.9810   31.8960   42.9920 O   0  0  0  0  0  0  0  0  0  0  0  0
   50.2390   32.1930   42.1940 P   0  0  2  0  0  0  0  0  0  0  0  0
   51.5830   31.5240   42.9060 O   0  0  0  0  0  0  0  0  0  0  0  0
   52.3830   32.0800   42.8170 H   0  0  0  0  0  0  0  0  0  0  0  0
   49.9380   31.5220   40.6320 O   0  0  0  0  0  0  0  0  0  0  0  0
   50.9230   31.5710   39.6410 C   0  0  0  0  0  0  0  0  0  0  0  0
   51.0600   31.5930   38.2650 C   0  0  0  0  0  0  0  0  0  0  0  0
   50.1170   31.5630   37.7350 H   0  0  0  0  0  0  0  0  0  0  0  0
   52.4340   31.6490   38.0050 C   0  0  0  0  0  0  0  0  0  0  0  0
   52.7110   31.6710   36.9680 H   0  0  0  0  0  0  0  0  0  0  0  0
   53.0640   31.6590   39.1950 N   0  0  0  0  0  0  0  0  0  0  0  0
   54.1050   31.6990   39.1370 H   0  0  0  0  0  0  0  0  0  0  0  0
   52.1750   31.6130   40.1700 N   0  0  0  0  0  0  0  0  0  0  0  0
  1  4  1  6  0  0  0
  1  8  1  0  0  0  0
  1  2  1  0  0  0  0
  1  3  1  0  0  0  0
  2  3  1  0  0  0  0
  2  6  1  0  0  0  0
  3  7  1  1  0  0  0
  5  2  1  0  0  0  0
  8 11  1  0  0  0  0
  9  8  2  0  0  0  0
 10 15  1  0  0  0  0
 11 10  2  0  0  0  0
 11 12  1  0  0  0  0
 12 13  2  0  0  0  0
 13 14  1  0  0  0  0
 14 18  1  0  0  0  0
 15 14  2  0  0  0  0
 16 10  1  0  0  0  0
 17 12  1  0  0  0  0
 19 21  1  0  0  0  0
 19  3  1  0  0  0  0
 21 22  1  0  0  0  0
 21 20  2  1  0  0  0
 23 22  1  0  0  0  0
 24 21  1  0  0  0  0
 25 32  2  0  0  0  0
 25 24  1  0  0  0  0
 26 25  1  0  0  0  0
 27 26  1  0  0  0  0
 28 26  2  0  0  0  0
 28 30  1  0  0  0  0
 29 28  1  0  0  0  0
 30 32  1  0  0  0  0
 31 30  1  0  0  0  0
M  END
>  <minimizedAffinity>
-5.15466976

>  <minimizedRMSD>
0.609403908

$$$$
