
 OpenBabel03252506153D

 38 40  0  0  0  0  0  0  0  0999 V2000
   45.4630   33.1430   41.3420 F   0  0  0  0  0  0  0  0  0  0  0  0
   46.5520   33.8550   41.1680 C   0  0  0  0  0  0  0  0  0  0  0  0
   46.9120   34.7660   42.1530 C   0  0  0  0  0  0  0  0  0  0  0  0
   48.0590   35.5800   42.0720 C   0  0  0  0  0  0  0  0  0  0  0  0
   48.8830   35.4680   40.9420 C   0  0  0  0  0  0  0  0  0  0  0  0
   48.4890   34.5540   39.9930 C   0  0  0  0  0  0  0  0  0  0  0  0
   47.3930   33.7690   40.0580 C   0  0  0  0  0  0  0  0  0  0  0  0
   48.2730   36.2720   42.8860 H   0  0  0  0  0  0  0  0  0  0  0  0
   49.7480   36.1120   40.9260 H   0  0  0  0  0  0  0  0  0  0  0  0
   49.2230   34.5700   39.1820 H   0  0  0  0  0  0  0  0  0  0  0  0
   45.5000   34.1100   45.4700 C   0  0  0  0  0  0  0  0  0  0  0  0
   44.5770   35.1770   45.6120 C   0  0  0  0  0  0  0  0  0  0  0  0
   44.4500   36.1180   44.5520 C   0  0  0  0  0  0  0  0  0  0  0  0
   45.2400   35.9290   43.4510 N   0  0  0  0  0  0  0  0  0  0  0  0
   46.0890   34.9210   43.3580 C   0  0  0  0  0  0  0  0  0  0  0  0
   46.2200   34.0180   44.3560 N   0  0  0  0  0  0  0  0  0  0  0  0
   43.9580   35.3290   46.4710 H   0  0  0  0  0  0  0  0  0  0  0  0
   43.7560   36.9420   44.6270 H   0  0  0  0  0  0  0  0  0  0  0  0
   45.6020   33.1990   46.5340 N   0  0  0  0  0  0  0  0  0  0  0  0
   46.6010   33.2700   46.8900 H   0  0  0  0  0  0  0  0  0  0  0  0
   44.7900   32.6140   46.8330 H   0  0  0  0  0  0  0  0  0  0  0  0
   47.1030   32.8960   39.0500 O   0  0  0  0  0  0  0  0  0  0  0  0
   47.7270   34.5490   37.0810 O   0  0  0  0  0  0  0  0  0  0  0  0
   47.0650   33.2200   37.4080 P   0  0  2  0  0  0  0  0  0  0  0  0
   45.4560   33.2470   36.8620 O   0  0  0  0  0  0  0  0  0  0  0  0
   44.3680   32.8050   37.5970 C   0  0  0  0  0  0  0  0  0  0  0  0
   43.7360   33.6950   38.4710 C   0  0  0  0  0  0  0  0  0  0  0  0
   43.8940   34.7400   38.7450 H   0  0  0  0  0  0  0  0  0  0  0  0
   42.7080   32.9480   39.0370 C   0  0  0  0  0  0  0  0  0  0  0  0
   41.9390   33.1840   39.7690 H   0  0  0  0  0  0  0  0  0  0  0  0
   42.7280   31.6990   38.5350 N   0  0  0  0  0  0  0  0  0  0  0  0
   42.2030   30.8110   38.6270 H   0  0  0  0  0  0  0  0  0  0  0  0
   43.7270   31.6260   37.6730 N   0  0  0  0  0  0  0  0  0  0  0  0
   47.8210   32.0170   36.4840 O   0  0  0  0  0  0  0  0  0  0  0  0
   47.2730   30.7490   36.7840 C   0  0  0  0  0  0  0  0  0  0  0  0
   46.2610   30.5770   35.8260 F   0  0  0  0  0  0  0  0  0  0  0  0
   48.2080   29.7610   36.5850 F   0  0  0  0  0  0  0  0  0  0  0  0
   46.8130   30.6450   38.0610 F   0  0  0  0  0  0  0  0  0  0  0  0
  2  1  1  0  0  0  0
  2  3  1  0  0  0  0
  3 15  1  0  0  0  0
  4  3  2  0  0  0  0
  4  8  1  0  0  0  0
  5  4  1  0  0  0  0
  6  7  1  0  0  0  0
  6  5  2  0  0  0  0
  7  2  2  0  0  0  0
  9  5  1  0  0  0  0
 10  6  1  0  0  0  0
 11 12  1  0  0  0  0
 11 19  1  0  0  0  0
 12 17  1  0  0  0  0
 13 18  1  0  0  0  0
 13 12  2  0  0  0  0
 14 13  1  0  0  0  0
 15 14  2  0  0  0  0
 15 16  1  0  0  0  0
 16 11  2  0  0  0  0
 19 21  1  0  0  0  0
 19 20  1  0  0  0  0
 22  7  1  0  0  0  0
 24 23  2  6  0  0  0
 24 22  1  0  0  0  0
 25 24  1  0  0  0  0
 25 26  1  0  0  0  0
 26 33  2  0  0  0  0
 26 27  1  0  0  0  0
 27 28  1  0  0  0  0
 27 29  2  0  0  0  0
 29 30  1  0  0  0  0
 31 32  1  0  0  0  0
 31 29  1  0  0  0  0
 33 31  1  0  0  0  0
 34 35  1  0  0  0  0
 34 24  1  0  0  0  0
 35 38  1  0  0  0  0
 36 35  1  0  0  0  0
 37 35  1  0  0  0  0
M  END
>  <minimizedAffinity>
-5.42407036

>  <minimizedRMSD>
0.730130911

$$$$
