
 OpenBabel03252509083D

 40 43  0  0  0  0  0  0  0  0999 V2000
   46.8470   31.6000   39.4460 C   0  0  0  0  0  0  0  0  0  0  0  0
   46.6660   32.9460   39.3450 C   0  0  0  0  0  0  0  0  0  0  0  0
   47.4720   33.6920   38.5020 C   0  0  0  0  0  0  0  0  0  0  0  0
   48.4550   33.0770   37.7640 C   0  0  0  0  0  0  0  0  0  0  0  0
   48.6720   31.7010   37.8370 C   0  0  0  0  0  0  0  0  0  0  0  0
   47.8440   30.9700   38.6970 C   0  0  0  0  0  0  0  0  0  0  0  0
   47.3710   34.7450   38.3890 H   0  0  0  0  0  0  0  0  0  0  0  0
   49.1360   33.5490   37.0810 H   0  0  0  0  0  0  0  0  0  0  0  0
   49.4100   31.1580   37.2970 H   0  0  0  0  0  0  0  0  0  0  0  0
   47.9850   29.8890   38.7810 H   0  0  0  0  0  0  0  0  0  0  0  0
   45.3880   35.9880   43.3180 Cl  0  0  0  0  0  0  0  0  0  0  0  0
   45.0430   35.0770   41.8660 C   0  0  0  0  0  0  0  0  0  0  0  0
   46.0240   34.4050   41.2120 C   0  0  0  0  0  0  0  0  0  0  0  0
   45.6470   33.6970   40.0810 C   0  0  0  0  0  0  0  0  0  0  0  0
   44.3480   33.6750   39.6370 C   0  0  0  0  0  0  0  0  0  0  0  0
   43.3830   34.3530   40.3050 C   0  0  0  0  0  0  0  0  0  0  0  0
   43.7410   35.0610   41.4340 C   0  0  0  0  0  0  0  0  0  0  0  0
   44.1040   33.1030   38.7400 H   0  0  0  0  0  0  0  0  0  0  0  0
   42.3730   34.3080   39.9210 H   0  0  0  0  0  0  0  0  0  0  0  0
   42.9510   35.5960   41.9520 H   0  0  0  0  0  0  0  0  0  0  0  0
   49.5340   35.5340   42.0040 C   0  0  0  0  0  0  0  0  0  0  0  0
   48.2290   35.5030   41.5010 C   0  0  0  0  0  0  0  0  0  0  0  0
   47.3740   34.4470   41.7260 C   0  0  0  0  0  0  0  0  0  0  0  0
   47.9040   33.4450   42.4770 N   0  0  0  0  0  0  0  0  0  0  0  0
   49.1480   33.4650   42.9620 C   0  0  0  0  0  0  0  0  0  0  0  0
   49.9550   34.5050   42.7250 N   0  0  0  0  0  0  0  0  0  0  0  0
   50.0880   36.4260   41.7460 H   0  0  0  0  0  0  0  0  0  0  0  0
   47.8410   36.3220   40.9050 H   0  0  0  0  0  0  0  0  0  0  0  0
   49.4730   32.6150   43.5480 H   0  0  0  0  0  0  0  0  0  0  0  0
   45.8560   30.6550   40.4270 S   0  0  0  0  0  0  0  0  0  0  0  0
   44.5270   30.3450   39.7740 O   0  0  0  0  0  0  0  0  0  0  0  0
   46.5710   29.2530   40.4320 O   0  0  0  0  0  0  0  0  0  0  0  0
   45.5310   30.9710   42.0850 C   0  0  0  0  0  0  0  0  0  0  0  0
   46.3460   30.3850   43.0880 C   0  0  0  0  0  0  0  0  0  0  0  0
   47.2270   29.7210   42.9580 H   0  0  0  0  0  0  0  0  0  0  0  0
   45.9780   30.6930   44.3750 C   0  0  0  0  0  0  0  0  0  0  0  0
   46.4020   30.3990   45.3070 H   0  0  0  0  0  0  0  0  0  0  0  0
   44.9240   31.4780   44.1650 N   0  0  0  0  0  0  0  0  0  0  0  0
   44.3000   31.9650   44.8780 H   0  0  0  0  0  0  0  0  0  0  0  0
   44.6960   31.6190   42.9160 N   0  0  0  0  0  0  0  0  0  0  0  0
  1 30  1  0  0  0  0
  2  1  1  0  0  0  0
  2 14  1  0  0  0  0
  3  2  2  0  0  0  0
  4  5  2  0  0  0  0
  4  3  1  0  0  0  0
  5  6  1  0  0  0  0
  6 10  1  0  0  0  0
  6  1  2  0  0  0  0
  7  3  1  0  0  0  0
  8  4  1  0  0  0  0
  9  5  1  0  0  0  0
 12 11  1  0  0  0  0
 13 23  1  0  0  0  0
 13 12  2  0  0  0  0
 14 13  1  0  0  0  0
 15 14  2  0  0  0  0
 15 16  1  0  0  0  0
 16 17  2  0  0  0  0
 17 12  1  0  0  0  0
 17 20  1  0  0  0  0
 18 15  1  0  0  0  0
 19 16  1  0  0  0  0
 21 26  1  0  0  0  0
 22 23  1  0  0  0  0
 22 21  2  0  0  0  0
 23 24  2  0  0  0  0
 24 25  1  0  0  0  0
 25 29  1  0  0  0  0
 26 25  2  0  0  0  0
 27 21  1  0  0  0  0
 28 22  1  0  0  0  0
 30 32  2  0  0  0  0
 30 33  1  0  0  0  0
 31 30  2  0  0  0  0
 33 40  2  0  0  0  0
 33 34  1  0  0  0  0
 34 36  2  0  0  0  0
 35 34  1  0  0  0  0
 36 37  1  0  0  0  0
 38 36  1  0  0  0  0
 38 39  1  0  0  0  0
 40 38  1  0  0  0  0
M  END
>  <minimizedAffinity>
-4.95917892

>  <minimizedRMSD>
1.08946598

$$$$
