
 OpenBabel03242522423D

 46 49  0  0  0  0  0  0  0  0999 V2000
   46.7260   32.5190   44.4560 C   0  0  0  0  0  0  0  0  0  0  0  0
   47.7730   32.7000   44.7690 H   0  0  0  0  0  0  0  0  0  0  0  0
   46.6040   31.9220   43.5320 H   0  0  0  0  0  0  0  0  0  0  0  0
   46.4110   34.3800   42.9020 C   0  0  0  0  0  0  0  0  0  0  0  0
   46.1020   33.8060   44.1330 C   0  0  0  0  0  0  0  0  0  0  0  0
   45.2690   34.3350   45.0440 C   0  0  0  0  0  0  0  0  0  0  0  0
   44.6630   35.5350   44.7570 C   0  0  0  0  0  0  0  0  0  0  0  0
   44.8840   36.1930   43.5780 C   0  0  0  0  0  0  0  0  0  0  0  0
   45.7580   35.5950   42.6730 C   0  0  0  0  0  0  0  0  0  0  0  0
   44.9460   33.9940   45.9870 H   0  0  0  0  0  0  0  0  0  0  0  0
   43.9670   36.0860   45.3970 H   0  0  0  0  0  0  0  0  0  0  0  0
   44.4340   37.1470   43.2870 H   0  0  0  0  0  0  0  0  0  0  0  0
   45.9560   36.0870   41.7290 H   0  0  0  0  0  0  0  0  0  0  0  0
   47.4410   33.7260   41.7060 S   0  0  0  0  0  0  0  0  0  0  0  0
   47.6120   34.8010   40.5580 O   0  0  0  0  0  0  0  0  0  0  0  0
   46.7750   32.6010   40.9960 O   0  0  0  0  0  0  0  0  0  0  0  0
   49.1200   33.5480   42.0320 C   0  0  0  0  0  0  0  0  0  0  0  0
   49.7710   32.4120   41.5060 C   0  0  0  0  0  0  0  0  0  0  0  0
   49.4080   31.5750   40.9140 H   0  0  0  0  0  0  0  0  0  0  0  0
   51.1070   32.4280   41.8370 C   0  0  0  0  0  0  0  0  0  0  0  0
   51.8970   31.7430   41.6140 H   0  0  0  0  0  0  0  0  0  0  0  0
   51.2350   33.5640   42.5520 N   0  0  0  0  0  0  0  0  0  0  0  0
   52.1060   33.9430   42.9880 H   0  0  0  0  0  0  0  0  0  0  0  0
   50.0940   34.2160   42.6690 N   0  0  0  0  0  0  0  0  0  0  0  0
   46.0420   31.6770   45.4890 C   0  0  0  0  0  0  0  0  0  0  0  0
   45.7610   30.6570   45.1380 H   0  0  0  0  0  0  0  0  0  0  0  0
   45.0480   32.0550   45.7970 H   0  0  0  0  0  0  0  0  0  0  0  0
   47.1630   32.4810   47.5510 C   0  0  0  0  0  0  0  0  0  0  0  0
   46.9720   31.4660   46.5910 C   0  0  0  0  0  0  0  0  0  0  0  0
   47.6910   30.2910   46.7610 C   0  0  0  0  0  0  0  0  0  0  0  0
   48.5270   30.1680   47.8200 N   0  0  0  0  0  0  0  0  0  0  0  0
   48.6710   31.1540   48.7000 C   0  0  0  0  0  0  0  0  0  0  0  0
   47.9990   32.3220   48.5880 N   0  0  0  0  0  0  0  0  0  0  0  0
   46.7160   33.4560   47.6070 H   0  0  0  0  0  0  0  0  0  0  0  0
   47.5750   29.4940   46.0510 H   0  0  0  0  0  0  0  0  0  0  0  0
   49.6000   30.9390   49.8670 C   0  0  0  0  0  0  0  0  0  0  0  0
   49.7990   29.8510   49.9830 H   0  0  0  0  0  0  0  0  0  0  0  0
   49.0750   31.3180   50.7730 H   0  0  0  0  0  0  0  0  0  0  0  0
   50.8660   31.6370   49.7360 C   0  0  0  0  0  0  0  0  0  0  0  0
   52.0200   31.1160   49.1780 C   0  0  0  0  0  0  0  0  0  0  0  0
   53.0090   32.0600   49.2290 C   0  0  0  0  0  0  0  0  0  0  0  0
   52.4190   33.1370   49.8220 N   0  0  0  0  0  0  0  0  0  0  0  0
   51.1470   32.8890   50.1240 N   0  0  0  0  0  0  0  0  0  0  0  0
   52.1850   30.1350   48.7540 H   0  0  0  0  0  0  0  0  0  0  0  0
   54.0530   32.0860   48.9120 H   0  0  0  0  0  0  0  0  0  0  0  0
   52.8820   34.0690   50.0300 H   0  0  0  0  0  0  0  0  0  0  0  0
  1  2  1  0  0  0  0
  1 25  1  0  0  0  0
  3  1  1  0  0  0  0
  4  5  1  0  0  0  0
  5  1  1  0  0  0  0
  5  6  2  0  0  0  0
  6 10  1  0  0  0  0
  7  6  1  0  0  0  0
  7 11  1  0  0  0  0
  8  7  2  0  0  0  0
  9  4  2  0  0  0  0
  9  8  1  0  0  0  0
 12  8  1  0  0  0  0
 13  9  1  0  0  0  0
 14 17  1  0  0  0  0
 14  4  1  0  0  0  0
 15 14  2  0  0  0  0
 16 14  2  0  0  0  0
 17 24  2  0  0  0  0
 18 20  2  0  0  0  0
 18 17  1  0  0  0  0
 19 18  1  0  0  0  0
 20 22  1  0  0  0  0
 21 20  1  0  0  0  0
 22 24  1  0  0  0  0
 22 23  1  0  0  0  0
 25 27  1  0  0  0  0
 25 29  1  0  0  0  0
 26 25  1  0  0  0  0
 28 34  1  0  0  0  0
 28 33  1  0  0  0  0
 29 30  1  0  0  0  0
 29 28  2  0  0  0  0
 30 31  2  0  0  0  0
 31 32  1  0  0  0  0
 32 36  1  0  0  0  0
 33 32  2  0  0  0  0
 35 30  1  0  0  0  0
 36 37  1  0  0  0  0
 36 38  1  0  0  0  0
 39 36  1  0  0  0  0
 39 43  2  0  0  0  0
 40 41  2  0  0  0  0
 40 39  1  0  0  0  0
 41 42  1  0  0  0  0
 42 46  1  0  0  0  0
 42 43  1  0  0  0  0
 44 40  1  0  0  0  0
 45 41  1  0  0  0  0
M  END
>  <minimizedAffinity>
-6.62860441

>  <minimizedRMSD>
0.803157449

$$$$
