
 OpenBabel03242512093D

 32 34  0  0  1  0  0  0  0  0999 V2000
   48.0730   34.4210   41.1100 C   0  0  1  0  0  0  0  0  0  0  0  0
   48.7960   35.7030   41.6770 C   0  0  0  0  0  0  0  0  0  0  0  0
   49.0190   34.3550   42.2200 C   0  0  2  0  0  0  0  0  0  0  0  0
   48.4180   34.1740   40.1000 H   0  0  0  0  0  0  0  0  0  0  0  0
   49.5440   36.1670   40.9990 H   0  0  0  0  0  0  0  0  0  0  0  0
   48.1540   36.4190   42.2270 H   0  0  0  0  0  0  0  0  0  0  0  0
   48.5350   33.9230   43.1100 H   0  0  0  0  0  0  0  0  0  0  0  0
   46.6070   34.4550   41.3720 C   0  0  0  0  0  0  0  0  0  0  0  0
   45.8580   34.2410   40.4240 O   0  0  0  0  0  0  0  0  0  0  0  0
   45.4010   35.8810   42.9560 C   0  0  0  0  0  0  0  0  0  0  0  0
   46.0180   34.7150   42.6490 C   0  0  0  0  0  0  0  0  0  0  0  0
   46.0720   33.7140   43.6550 C   0  0  0  0  0  0  0  0  0  0  0  0
   45.5200   33.9360   44.8720 N   0  0  0  0  0  0  0  0  0  0  0  0
   44.9080   35.1270   45.1330 C   0  0  0  0  0  0  0  0  0  0  0  0
   44.8540   36.0630   44.2020 N   0  0  0  0  0  0  0  0  0  0  0  0
   45.3680   36.6280   42.1840 H   0  0  0  0  0  0  0  0  0  0  0  0
   46.5210   32.7640   43.5380 H   0  0  0  0  0  0  0  0  0  0  0  0
   44.4540   35.3560   46.0820 H   0  0  0  0  0  0  0  0  0  0  0  0
   50.3120   33.8820   42.0190 O   0  0  0  0  0  0  0  0  0  0  0  0
   48.9800   31.8930   42.9880 O   0  0  0  0  0  0  0  0  0  0  0  0
   50.2390   32.1920   42.1910 P   0  0  2  0  0  0  0  0  0  0  0  0
   51.5830   31.5250   42.9050 O   0  0  0  0  0  0  0  0  0  0  0  0
   52.3820   32.0820   42.8160 H   0  0  0  0  0  0  0  0  0  0  0  0
   49.9400   31.5190   40.6290 O   0  0  0  0  0  0  0  0  0  0  0  0
   50.9260   31.5700   39.6390 C   0  0  0  0  0  0  0  0  0  0  0  0
   51.0640   31.5930   38.2620 C   0  0  0  0  0  0  0  0  0  0  0  0
   50.1210   31.5640   37.7320 H   0  0  0  0  0  0  0  0  0  0  0  0
   52.4380   31.6490   38.0040 C   0  0  0  0  0  0  0  0  0  0  0  0
   52.7150   31.6730   36.9670 H   0  0  0  0  0  0  0  0  0  0  0  0
   53.0670   31.6570   39.1940 N   0  0  0  0  0  0  0  0  0  0  0  0
   54.1080   31.6970   39.1360 H   0  0  0  0  0  0  0  0  0  0  0  0
   52.1760   31.6100   40.1690 N   0  0  0  0  0  0  0  0  0  0  0  0
  1  4  1  6  0  0  0
  1  8  1  0  0  0  0
  1  2  1  0  0  0  0
  1  3  1  0  0  0  0
  2  3  1  0  0  0  0
  2  6  1  0  0  0  0
  3  7  1  1  0  0  0
  5  2  1  0  0  0  0
  8 11  1  0  0  0  0
  9  8  2  0  0  0  0
 10 15  1  0  0  0  0
 11 10  2  0  0  0  0
 11 12  1  0  0  0  0
 12 13  2  0  0  0  0
 13 14  1  0  0  0  0
 14 18  1  0  0  0  0
 15 14  2  0  0  0  0
 16 10  1  0  0  0  0
 17 12  1  0  0  0  0
 19 21  1  0  0  0  0
 19  3  1  0  0  0  0
 21 22  1  0  0  0  0
 21 20  2  1  0  0  0
 23 22  1  0  0  0  0
 24 21  1  0  0  0  0
 25 32  2  0  0  0  0
 25 24  1  0  0  0  0
 26 25  1  0  0  0  0
 27 26  1  0  0  0  0
 28 26  2  0  0  0  0
 28 30  1  0  0  0  0
 29 28  1  0  0  0  0
 30 32  1  0  0  0  0
 31 30  1  0  0  0  0
M  END
>  <minimizedAffinity>
-5.15261173

>  <minimizedRMSD>
0.625522673

$$$$
