
 OpenBabel03252500543D

 29 30  0  0  0  0  0  0  0  0999 V2000
   46.5570   34.2790   42.2520 C   0  0  0  0  0  0  0  0  0  0  0  0
   45.3240   34.7020   42.7080 C   0  0  0  0  0  0  0  0  0  0  0  0
   45.0320   34.4880   44.0670 C   0  0  0  0  0  0  0  0  0  0  0  0
   45.9650   33.8900   44.8280 N   0  0  0  0  0  0  0  0  0  0  0  0
   47.1550   33.4890   44.3540 C   0  0  0  0  0  0  0  0  0  0  0  0
   47.4440   33.6880   43.0650 N   0  0  0  0  0  0  0  0  0  0  0  0
   44.0620   34.8270   44.4020 H   0  0  0  0  0  0  0  0  0  0  0  0
   47.8550   33.0090   45.0460 H   0  0  0  0  0  0  0  0  0  0  0  0
   46.9410   34.4630   40.8510 C   0  0  0  0  0  0  0  0  0  0  0  0
   46.2090   35.0890   40.2950 H   0  0  0  0  0  0  0  0  0  0  0  0
   46.9550   33.4690   40.3580 H   0  0  0  0  0  0  0  0  0  0  0  0
   48.3460   35.0160   40.7880 C   0  0  0  0  0  0  0  0  0  0  0  0
   48.9810   34.4190   40.0800 H   0  0  0  0  0  0  0  0  0  0  0  0
   48.2600   36.0540   40.3580 H   0  0  0  0  0  0  0  0  0  0  0  0
   48.8300   35.1160   41.7750 H   0  0  0  0  0  0  0  0  0  0  0  0
   44.4820   35.3000   41.7900 O   0  0  0  0  0  0  0  0  0  0  0  0
   42.7510   33.3330   41.5580 O   0  0  0  0  0  0  0  0  0  0  0  0
   42.9050   34.8450   41.4100 P   0  0  1  0  0  0  0  0  0  0  0  0
   41.8660   35.5800   42.5530 O   0  0  0  0  0  0  0  0  0  0  0  0
   40.9120   35.4620   42.3220 H   0  0  0  0  0  0  0  0  0  0  0  0
   42.4160   35.3470   39.8710 O   0  0  0  0  0  0  0  0  0  0  0  0
   41.1230   35.0780   39.4440 C   0  0  0  0  0  0  0  0  0  0  0  0
   41.0650   34.8740   38.0610 C   0  0  0  0  0  0  0  0  0  0  0  0
   41.7630   34.8670   37.2100 H   0  0  0  0  0  0  0  0  0  0  0  0
   39.7420   34.6110   37.7070 C   0  0  0  0  0  0  0  0  0  0  0  0
   39.1890   34.3960   36.8100 H   0  0  0  0  0  0  0  0  0  0  0  0
   39.0590   34.6680   38.8860 N   0  0  0  0  0  0  0  0  0  0  0  0
   38.0590   34.5520   39.2070 H   0  0  0  0  0  0  0  0  0  0  0  0
   39.8750   34.9410   39.8910 N   0  0  0  0  0  0  0  0  0  0  0  0
  1  2  2  0  0  0  0
  1  6  1  0  0  0  0
  2  3  1  0  0  0  0
  3  7  1  0  0  0  0
  3  4  2  0  0  0  0
  5  4  1  0  0  0  0
  5  8  1  0  0  0  0
  6  5  2  0  0  0  0
  9  1  1  0  0  0  0
 10  9  1  0  0  0  0
 11  9  1  0  0  0  0
 12  9  1  0  0  0  0
 12 15  1  0  0  0  0
 13 12  1  0  0  0  0
 14 12  1  0  0  0  0
 16  2  1  0  0  0  0
 18 17  2  1  0  0  0
 18 16  1  0  0  0  0
 18 19  1  0  0  0  0
 20 19  1  0  0  0  0
 21 18  1  0  0  0  0
 22 21  1  0  0  0  0
 22 29  2  0  0  0  0
 23 22  1  0  0  0  0
 24 23  1  0  0  0  0
 25 23  2  0  0  0  0
 25 27  1  0  0  0  0
 26 25  1  0  0  0  0
 27 28  1  0  0  0  0
 27 29  1  0  0  0  0
M  END
>  <minimizedAffinity>
-4.90243959

>  <minimizedRMSD>
2.1331284

$$$$
