
 OpenBabel03252500443D

 33 35  0  0  1  0  0  0  0  0999 V2000
   47.6300   35.2840   41.8490 C   0  0  1  0  0  0  0  0  0  0  0  0
   49.1110   35.6390   41.7310 C   0  0  0  0  0  0  0  0  0  0  0  0
   48.3680   35.0160   40.5700 C   0  0  1  0  0  0  0  0  0  0  0  0
   47.0150   36.2080   41.9270 H   0  0  0  0  0  0  0  0  0  0  0  0
   49.4330   36.6790   41.6810 H   0  0  0  0  0  0  0  0  0  0  0  0
   49.8160   34.9680   42.2660 H   0  0  0  0  0  0  0  0  0  0  0  0
   48.1890   35.7340   39.7390 H   0  0  0  0  0  0  0  0  0  0  0  0
   47.3050   34.0890   42.6520 C   0  0  0  0  0  0  0  0  0  0  0  0
   48.1960   33.5130   42.9750 H   0  0  0  0  0  0  0  0  0  0  0  0
   46.7600   33.3760   41.9660 H   0  0  0  0  0  0  0  0  0  0  0  0
   46.3880   34.3320   43.7740 C   0  0  0  0  0  0  0  0  0  0  0  0
   45.5280   35.3760   43.5710 C   0  0  0  0  0  0  0  0  0  0  0  0
   44.6050   35.7360   44.5610 C   0  0  0  0  0  0  0  0  0  0  0  0
   44.6420   34.9750   45.7090 N   0  0  0  0  0  0  0  0  0  0  0  0
   45.4960   33.9490   45.8920 C   0  0  0  0  0  0  0  0  0  0  0  0
   46.3540   33.6420   44.9290 N   0  0  0  0  0  0  0  0  0  0  0  0
   45.3350   36.0690   42.7650 H   0  0  0  0  0  0  0  0  0  0  0  0
   43.8640   36.5190   44.5720 H   0  0  0  0  0  0  0  0  0  0  0  0
   45.4250   33.4280   46.8370 H   0  0  0  0  0  0  0  0  0  0  0  0
   48.6550   33.7060   40.2820 O   0  0  0  0  0  0  0  0  0  0  0  0
   48.2030   34.5470   37.7890 O   0  0  0  0  0  0  0  0  0  0  0  0
   48.3790   33.3160   38.6620 P   0  0  1  0  0  0  0  0  0  0  0  0
   49.7560   32.4850   38.0790 O   0  0  0  0  0  0  0  0  0  0  0  0
   50.5710   32.7850   38.5500 H   0  0  0  0  0  0  0  0  0  0  0  0
   47.0480   32.2900   38.5660 O   0  0  0  0  0  0  0  0  0  0  0  0
   46.0610   32.2870   39.5420 C   0  0  0  0  0  0  0  0  0  0  0  0
   45.5730   31.4970   40.5610 C   0  0  0  0  0  0  0  0  0  0  0  0
   46.0900   30.5570   40.6880 H   0  0  0  0  0  0  0  0  0  0  0  0
   44.5130   32.2090   41.1230 C   0  0  0  0  0  0  0  0  0  0  0  0
   44.0070   31.7190   41.9550 H   0  0  0  0  0  0  0  0  0  0  0  0
   44.3830   33.3800   40.4550 N   0  0  0  0  0  0  0  0  0  0  0  0
   43.6340   34.0470   40.7420 H   0  0  0  0  0  0  0  0  0  0  0  0
   45.3240   33.4150   39.5040 N   0  0  0  0  0  0  0  0  0  0  0  0
  1  4  1  1  0  0  0
  1  8  1  0  0  0  0
  2  1  1  0  0  0  0
  2  6  1  0  0  0  0
  3  7  1  6  0  0  0
  3  2  1  0  0  0  0
  3  1  1  0  0  0  0
  5  2  1  0  0  0  0
  8  9  1  0  0  0  0
  8 11  1  0  0  0  0
 10  8  1  0  0  0  0
 11 16  1  0  0  0  0
 12 11  2  0  0  0  0
 12 13  1  0  0  0  0
 13 18  1  0  0  0  0
 13 14  2  0  0  0  0
 14 15  1  0  0  0  0
 15 19  1  0  0  0  0
 16 15  2  0  0  0  0
 17 12  1  0  0  0  0
 20  3  1  0  0  0  0
 22 21  2  6  0  0  0
 22 20  1  0  0  0  0
 23 24  1  0  0  0  0
 23 22  1  0  0  0  0
 25 22  1  0  0  0  0
 25 26  1  0  0  0  0
 26 27  1  0  0  0  0
 27 28  1  0  0  0  0
 27 29  2  0  0  0  0
 29 30  1  0  0  0  0
 31 32  1  0  0  0  0
 31 29  1  0  0  0  0
 33 26  2  0  0  0  0
 33 31  1  0  0  0  0
M  END
>  <minimizedAffinity>
-4.61059189

>  <minimizedRMSD>
2.2363708

$$$$
