
 OpenBabel03252500553D

 29 30  0  0  0  0  0  0  0  0999 V2000
   38.4270   27.2720   43.0180 C   0  0  0  0  0  0  0  0  0  0  0  0
   38.5540   28.6250   42.7690 C   0  0  0  0  0  0  0  0  0  0  0  0
   39.8550   29.1560   42.7490 C   0  0  0  0  0  0  0  0  0  0  0  0
   40.8840   28.3200   42.9720 N   0  0  0  0  0  0  0  0  0  0  0  0
   40.7270   27.0080   43.2110 C   0  0  0  0  0  0  0  0  0  0  0  0
   39.4950   26.4920   43.2320 N   0  0  0  0  0  0  0  0  0  0  0  0
   39.9310   30.2160   42.5530 H   0  0  0  0  0  0  0  0  0  0  0  0
   41.6220   26.4000   43.3820 H   0  0  0  0  0  0  0  0  0  0  0  0
   37.1070   26.6390   43.0560 C   0  0  0  0  0  0  0  0  0  0  0  0
   36.2910   27.3560   42.8200 H   0  0  0  0  0  0  0  0  0  0  0  0
   36.9240   26.2710   44.0880 H   0  0  0  0  0  0  0  0  0  0  0  0
   37.1050   25.4350   42.1430 C   0  0  0  0  0  0  0  0  0  0  0  0
   36.7010   24.5300   42.6720 H   0  0  0  0  0  0  0  0  0  0  0  0
   36.3910   25.6720   41.3050 H   0  0  0  0  0  0  0  0  0  0  0  0
   38.0850   25.2250   41.6800 H   0  0  0  0  0  0  0  0  0  0  0  0
   37.3900   29.3420   42.5620 O   0  0  0  0  0  0  0  0  0  0  0  0
   36.1170   28.7210   40.3460 O   0  0  0  0  0  0  0  0  0  0  0  0
   36.7780   29.8800   41.0880 P   0  0  1  0  0  0  0  0  0  0  0  0
   35.5610   31.0340   41.4240 O   0  0  0  0  0  0  0  0  0  0  0  0
   35.2400   31.4880   40.6070 H   0  0  0  0  0  0  0  0  0  0  0  0
   37.9410   30.6260   40.1130 O   0  0  0  0  0  0  0  0  0  0  0  0
   37.8910   32.0000   39.9200 C   0  0  0  0  0  0  0  0  0  0  0  0
   38.8190   32.6710   40.7230 C   0  0  0  0  0  0  0  0  0  0  0  0
   39.5840   32.4130   41.4730 H   0  0  0  0  0  0  0  0  0  0  0  0
   38.7100   34.0390   40.4770 C   0  0  0  0  0  0  0  0  0  0  0  0
   39.1760   34.9450   40.8190 H   0  0  0  0  0  0  0  0  0  0  0  0
   37.7270   34.1370   39.5380 N   0  0  0  0  0  0  0  0  0  0  0  0
   37.2430   34.9080   39.0010 H   0  0  0  0  0  0  0  0  0  0  0  0
   37.2560   32.9410   39.2220 N   0  0  0  0  0  0  0  0  0  0  0  0
  1  9  1  0  0  0  0
  1  6  1  0  0  0  0
  2  1  2  0  0  0  0
  3  2  1  0  0  0  0
  3  4  2  0  0  0  0
  4  5  1  0  0  0  0
  5  6  2  0  0  0  0
  5  8  1  0  0  0  0
  7  3  1  0  0  0  0
  9 11  1  0  0  0  0
 10  9  1  0  0  0  0
 12 13  1  0  0  0  0
 12  9  1  0  0  0  0
 14 12  1  0  0  0  0
 15 12  1  0  0  0  0
 16  2  1  0  0  0  0
 18 17  2  6  0  0  0
 18 19  1  0  0  0  0
 18 16  1  0  0  0  0
 20 19  1  0  0  0  0
 21 18  1  0  0  0  0
 22 21  1  0  0  0  0
 22 23  1  0  0  0  0
 23 24  1  0  0  0  0
 25 23  2  0  0  0  0
 25 26  1  0  0  0  0
 27 25  1  0  0  0  0
 28 27  1  0  0  0  0
 29 27  1  0  0  0  0
 29 22  2  0  0  0  0
M  END
>  <minimizedAffinity>
-5.12549639

$$$$

 OpenBabel03252500553D

 29 30  0  0  0  0  0  0  0  0999 V2000
   38.0800   27.4960   42.4310 C   0  0  0  0  0  0  0  0  0  0  0  0
   37.0190   27.3430   41.5600 C   0  0  0  0  0  0  0  0  0  0  0  0
   37.0510   26.2360   40.6940 C   0  0  0  0  0  0  0  0  0  0  0  0
   38.1060   25.4050   40.7690 N   0  0  0  0  0  0  0  0  0  0  0  0
   39.1220   25.5810   41.6280 C   0  0  0  0  0  0  0  0  0  0  0  0
   39.1020   26.6290   42.4560 N   0  0  0  0  0  0  0  0  0  0  0  0
   36.2110   26.1360   40.0210 H   0  0  0  0  0  0  0  0  0  0  0  0
   39.9410   24.8540   41.6200 H   0  0  0  0  0  0  0  0  0  0  0  0
   38.1240   28.6210   43.3670 C   0  0  0  0  0  0  0  0  0  0  0  0
   38.4690   28.3110   44.3780 H   0  0  0  0  0  0  0  0  0  0  0  0
   37.0950   29.0190   43.4860 H   0  0  0  0  0  0  0  0  0  0  0  0
   38.9690   29.7270   42.7780 C   0  0  0  0  0  0  0  0  0  0  0  0
   38.4300   30.7110   42.8230 H   0  0  0  0  0  0  0  0  0  0  0  0
   39.8780   29.8180   43.4360 H   0  0  0  0  0  0  0  0  0  0  0  0
   39.3310   29.5140   41.7570 H   0  0  0  0  0  0  0  0  0  0  0  0
   36.0150   28.2920   41.6140 O   0  0  0  0  0  0  0  0  0  0  0  0
   34.3700   29.2320   39.7900 O   0  0  0  0  0  0  0  0  0  0  0  0
   35.7010   29.5040   40.4880 P   0  0  1  0  0  0  0  0  0  0  0  0
   35.5410   30.9760   41.3440 O   0  0  0  0  0  0  0  0  0  0  0  0
   35.4790   31.7560   40.7390 H   0  0  0  0  0  0  0  0  0  0  0  0
   36.9400   29.6990   39.3530 O   0  0  0  0  0  0  0  0  0  0  0  0
   37.4870   30.9580   39.1500 C   0  0  0  0  0  0  0  0  0  0  0  0
   38.8830   30.9100   39.0650 C   0  0  0  0  0  0  0  0  0  0  0  0
   39.6760   30.1460   39.1150 H   0  0  0  0  0  0  0  0  0  0  0  0
   39.3600   32.2040   38.8620 C   0  0  0  0  0  0  0  0  0  0  0  0
   40.3110   32.6870   38.7350 H   0  0  0  0  0  0  0  0  0  0  0  0
   38.2370   32.9770   38.8320 N   0  0  0  0  0  0  0  0  0  0  0  0
   38.0050   34.0020   38.7110 H   0  0  0  0  0  0  0  0  0  0  0  0
   37.1510   32.2390   39.0020 N   0  0  0  0  0  0  0  0  0  0  0  0
  1  6  1  0  0  0  0
  1  9  1  0  0  0  0
  2 16  1  0  0  0  0
  2  1  2  0  0  0  0
  3  4  2  0  0  0  0
  3  2  1  0  0  0  0
  4  5  1  0  0  0  0
  5  6  2  0  0  0  0
  7  3  1  0  0  0  0
  8  5  1  0  0  0  0
  9 11  1  0  0  0  0
  9 10  1  0  0  0  0
 12 13  1  0  0  0  0
 12  9  1  0  0  0  0
 12 14  1  0  0  0  0
 15 12  1  0  0  0  0
 18 17  2  6  0  0  0
 18 19  1  0  0  0  0
 18 16  1  0  0  0  0
 20 19  1  0  0  0  0
 21 18  1  0  0  0  0
 22 21  1  0  0  0  0
 23 24  1  0  0  0  0
 23 22  1  0  0  0  0
 25 23  2  0  0  0  0
 26 25  1  0  0  0  0
 27 25  1  0  0  0  0
 27 29  1  0  0  0  0
 28 27  1  0  0  0  0
 29 22  2  0  0  0  0
M  END
>  <minimizedAffinity>
-4.80757761

$$$$

 OpenBabel03252500553D

 29 30  0  0  0  0  0  0  0  0999 V2000
   38.1050   26.4350   42.2040 C   0  0  0  0  0  0  0  0  0  0  0  0
   37.5830   26.9300   41.0250 C   0  0  0  0  0  0  0  0  0  0  0  0
   36.9170   26.0220   40.1850 C   0  0  0  0  0  0  0  0  0  0  0  0
   36.8310   24.7390   40.5800 N   0  0  0  0  0  0  0  0  0  0  0  0
   37.3500   24.2890   41.7330 C   0  0  0  0  0  0  0  0  0  0  0  0
   37.9850   25.1430   42.5400 N   0  0  0  0  0  0  0  0  0  0  0  0
   36.5160   26.4310   39.2680 H   0  0  0  0  0  0  0  0  0  0  0  0
   37.2340   23.2270   41.9750 H   0  0  0  0  0  0  0  0  0  0  0  0
   38.8140   27.3140   43.1370 C   0  0  0  0  0  0  0  0  0  0  0  0
   38.1480   27.6960   43.9400 H   0  0  0  0  0  0  0  0  0  0  0  0
   39.1820   28.1980   42.5750 H   0  0  0  0  0  0  0  0  0  0  0  0
   40.0250   26.5900   43.6800 C   0  0  0  0  0  0  0  0  0  0  0  0
   40.9460   27.2260   43.5880 H   0  0  0  0  0  0  0  0  0  0  0  0
   39.8380   26.4390   44.7800 H   0  0  0  0  0  0  0  0  0  0  0  0
   40.1810   25.5910   43.2400 H   0  0  0  0  0  0  0  0  0  0  0  0
   37.7610   28.2770   40.7720 O   0  0  0  0  0  0  0  0  0  0  0  0
   35.2130   28.9210   40.6820 O   0  0  0  0  0  0  0  0  0  0  0  0
   36.6080   29.4980   40.9080 P   0  0  1  0  0  0  0  0  0  0  0  0
   36.6660   30.0860   42.5130 O   0  0  0  0  0  0  0  0  0  0  0  0
   36.1040   30.8910   42.6370 H   0  0  0  0  0  0  0  0  0  0  0  0
   36.8900   30.8030   39.8690 O   0  0  0  0  0  0  0  0  0  0  0  0
   37.6240   31.8900   40.3220 C   0  0  0  0  0  0  0  0  0  0  0  0
   37.3330   33.0510   39.5980 C   0  0  0  0  0  0  0  0  0  0  0  0
   36.6790   33.3460   38.7620 H   0  0  0  0  0  0  0  0  0  0  0  0
   38.1040   34.0950   40.1070 C   0  0  0  0  0  0  0  0  0  0  0  0
   38.2470   35.1420   39.9110 H   0  0  0  0  0  0  0  0  0  0  0  0
   38.8250   33.5250   41.1130 N   0  0  0  0  0  0  0  0  0  0  0  0
   39.5480   33.8340   41.8200 H   0  0  0  0  0  0  0  0  0  0  0  0
   38.5370   32.2380   41.2290 N   0  0  0  0  0  0  0  0  0  0  0  0
  1  6  1  0  0  0  0
  1  9  1  0  0  0  0
  2  1  2  0  0  0  0
  3  4  2  0  0  0  0
  3  2  1  0  0  0  0
  4  5  1  0  0  0  0
  5  8  1  0  0  0  0
  5  6  2  0  0  0  0
  7  3  1  0  0  0  0
  9 12  1  0  0  0  0
  9 10  1  0  0  0  0
 11  9  1  0  0  0  0
 12 14  1  0  0  0  0
 13 12  1  0  0  0  0
 15 12  1  0  0  0  0
 16 18  1  0  0  0  0
 16  2  1  0  0  0  0
 18 17  2  6  0  0  0
 18 19  1  0  0  0  0
 19 20  1  0  0  0  0
 21 22  1  0  0  0  0
 21 18  1  0  0  0  0
 22 29  2  0  0  0  0
 23 25  2  0  0  0  0
 23 22  1  0  0  0  0
 24 23  1  0  0  0  0
 25 27  1  0  0  0  0
 26 25  1  0  0  0  0
 27 29  1  0  0  0  0
 27 28  1  0  0  0  0
M  END
>  <minimizedAffinity>
-4.77411699

$$$$

 OpenBabel03252500553D

 29 30  0  0  0  0  0  0  0  0999 V2000
   36.9450   28.5330   41.2080 C   0  0  0  0  0  0  0  0  0  0  0  0
   37.5630   29.4070   42.0820 C   0  0  0  0  0  0  0  0  0  0  0  0
   38.0380   28.8770   43.2940 C   0  0  0  0  0  0  0  0  0  0  0  0
   37.8620   27.5630   43.5230 N   0  0  0  0  0  0  0  0  0  0  0  0
   37.2560   26.7400   42.6530 C   0  0  0  0  0  0  0  0  0  0  0  0
   36.8010   27.2320   41.4980 N   0  0  0  0  0  0  0  0  0  0  0  0
   38.5180   29.5780   43.9620 H   0  0  0  0  0  0  0  0  0  0  0  0
   37.1550   25.6830   42.9210 H   0  0  0  0  0  0  0  0  0  0  0  0
   36.4210   29.0030   39.9240 C   0  0  0  0  0  0  0  0  0  0  0  0
   36.7300   28.3470   39.0810 H   0  0  0  0  0  0  0  0  0  0  0  0
   36.8420   30.0100   39.7210 H   0  0  0  0  0  0  0  0  0  0  0  0
   34.9210   29.1550   40.0230 C   0  0  0  0  0  0  0  0  0  0  0  0
   34.5940   30.1610   39.6480 H   0  0  0  0  0  0  0  0  0  0  0  0
   34.4760   28.3850   39.3310 H   0  0  0  0  0  0  0  0  0  0  0  0
   34.5180   28.9510   41.0300 H   0  0  0  0  0  0  0  0  0  0  0  0
   37.6600   30.7290   41.6900 O   0  0  0  0  0  0  0  0  0  0  0  0
   38.7160   33.0000   40.8870 O   0  0  0  0  0  0  0  0  0  0  0  0
   39.0610   31.5590   41.2590 P   0  0  1  0  0  0  0  0  0  0  0  0
   40.0740   31.6130   42.6350 O   0  0  0  0  0  0  0  0  0  0  0  0
   40.9700   31.9760   42.4270 H   0  0  0  0  0  0  0  0  0  0  0  0
   39.9250   30.8120   40.0110 O   0  0  0  0  0  0  0  0  0  0  0  0
   40.0240   31.4410   38.7780 C   0  0  0  0  0  0  0  0  0  0  0  0
   41.3030   31.9680   38.5660 C   0  0  0  0  0  0  0  0  0  0  0  0
   42.2600   32.0240   39.1090 H   0  0  0  0  0  0  0  0  0  0  0  0
   41.3280   32.5810   37.3140 C   0  0  0  0  0  0  0  0  0  0  0  0
   42.0380   33.1100   36.7060 H   0  0  0  0  0  0  0  0  0  0  0  0
   40.0700   32.4000   36.8240 N   0  0  0  0  0  0  0  0  0  0  0  0
   39.5370   32.6480   35.9440 H   0  0  0  0  0  0  0  0  0  0  0  0
   39.3180   31.7330   37.6860 N   0  0  0  0  0  0  0  0  0  0  0  0
  1  6  2  0  0  0  0
  1  2  1  0  0  0  0
  2  3  2  0  0  0  0
  3  4  1  0  0  0  0
  3  7  1  0  0  0  0
  5  8  1  0  0  0  0
  5  4  2  0  0  0  0
  6  5  1  0  0  0  0
  9 12  1  0  0  0  0
  9  1  1  0  0  0  0
 10  9  1  0  0  0  0
 11  9  1  0  0  0  0
 12 15  1  0  0  0  0
 13 12  1  0  0  0  0
 14 12  1  0  0  0  0
 16  2  1  0  0  0  0
 18 17  2  6  0  0  0
 18 16  1  0  0  0  0
 18 19  1  0  0  0  0
 20 19  1  0  0  0  0
 21 18  1  0  0  0  0
 22 21  1  0  0  0  0
 23 22  1  0  0  0  0
 23 24  1  0  0  0  0
 25 23  2  0  0  0  0
 26 25  1  0  0  0  0
 27 25  1  0  0  0  0
 27 29  1  0  0  0  0
 28 27  1  0  0  0  0
 29 22  2  0  0  0  0
M  END
>  <minimizedAffinity>
-4.73970127

$$$$

 OpenBabel03252500553D

 29 30  0  0  0  0  0  0  0  0999 V2000
   37.0780   30.2050   40.0470 C   0  0  0  0  0  0  0  0  0  0  0  0
   38.1090   29.9510   40.9310 C   0  0  0  0  0  0  0  0  0  0  0  0
   38.8620   31.0520   41.3750 C   0  0  0  0  0  0  0  0  0  0  0  0
   38.5340   32.2710   40.9130 N   0  0  0  0  0  0  0  0  0  0  0  0
   37.5250   32.4860   40.0530 C   0  0  0  0  0  0  0  0  0  0  0  0
   36.8020   31.4470   39.6260 N   0  0  0  0  0  0  0  0  0  0  0  0
   39.6630   30.8300   42.0650 H   0  0  0  0  0  0  0  0  0  0  0  0
   37.3280   33.5130   39.7290 H   0  0  0  0  0  0  0  0  0  0  0  0
   36.2440   29.1160   39.5360 C   0  0  0  0  0  0  0  0  0  0  0  0
   36.7670   28.1350   39.5750 H   0  0  0  0  0  0  0  0  0  0  0  0
   36.0170   29.3180   38.4690 H   0  0  0  0  0  0  0  0  0  0  0  0
   34.9290   29.1030   40.2800 C   0  0  0  0  0  0  0  0  0  0  0  0
   34.0630   29.0670   39.5660 H   0  0  0  0  0  0  0  0  0  0  0  0
   34.9070   28.1450   40.8720 H   0  0  0  0  0  0  0  0  0  0  0  0
   34.8180   29.9300   41.0030 H   0  0  0  0  0  0  0  0  0  0  0  0
   38.3120   28.6360   41.3040 O   0  0  0  0  0  0  0  0  0  0  0  0
   39.1140   27.5230   43.5480 O   0  0  0  0  0  0  0  0  0  0  0  0
   37.8670   27.9120   42.7580 P   0  0  1  0  0  0  0  0  0  0  0  0
   37.0200   29.0790   43.6780 O   0  0  0  0  0  0  0  0  0  0  0  0
   36.6170   28.6920   44.4940 H   0  0  0  0  0  0  0  0  0  0  0  0
   36.8480   26.5760   42.5560 O   0  0  0  0  0  0  0  0  0  0  0  0
   37.3850   25.3660   42.1400 C   0  0  0  0  0  0  0  0  0  0  0  0
   36.8910   24.9820   40.8890 C   0  0  0  0  0  0  0  0  0  0  0  0
   36.1900   25.3750   40.1350 H   0  0  0  0  0  0  0  0  0  0  0  0
   37.4700   23.7630   40.5380 C   0  0  0  0  0  0  0  0  0  0  0  0
   37.4290   23.0740   39.7160 H   0  0  0  0  0  0  0  0  0  0  0  0
   38.2870   23.4630   41.5880 N   0  0  0  0  0  0  0  0  0  0  0  0
   38.9500   22.6840   41.8560 H   0  0  0  0  0  0  0  0  0  0  0  0
   38.2280   24.4050   42.5160 N   0  0  0  0  0  0  0  0  0  0  0  0
  1  2  1  0  0  0  0
  2 16  1  0  0  0  0
  2  3  2  0  0  0  0
  3  7  1  0  0  0  0
  4  3  1  0  0  0  0
  5  4  2  0  0  0  0
  6  1  2  0  0  0  0
  6  5  1  0  0  0  0
  8  5  1  0  0  0  0
  9 10  1  0  0  0  0
  9  1  1  0  0  0  0
  9 12  1  0  0  0  0
 11  9  1  0  0  0  0
 12 14  1  0  0  0  0
 12 15  1  0  0  0  0
 13 12  1  0  0  0  0
 16 18  1  0  0  0  0
 18 17  2  1  0  0  0
 18 19  1  0  0  0  0
 19 20  1  0  0  0  0
 21 18  1  0  0  0  0
 22 29  2  0  0  0  0
 22 21  1  0  0  0  0
 23 22  1  0  0  0  0
 24 23  1  0  0  0  0
 25 23  2  0  0  0  0
 25 27  1  0  0  0  0
 26 25  1  0  0  0  0
 27 28  1  0  0  0  0
 27 29  1  0  0  0  0
M  END
>  <minimizedAffinity>
-4.72726297

$$$$

 OpenBabel03252500553D

 29 30  0  0  0  0  0  0  0  0999 V2000
   39.3030   25.4720   41.3130 C   0  0  0  0  0  0  0  0  0  0  0  0
   38.1990   25.8420   42.0550 C   0  0  0  0  0  0  0  0  0  0  0  0
   37.1220   24.9390   42.1020 C   0  0  0  0  0  0  0  0  0  0  0  0
   37.2360   23.7830   41.4250 N   0  0  0  0  0  0  0  0  0  0  0  0
   38.3250   23.4520   40.7110 C   0  0  0  0  0  0  0  0  0  0  0  0
   39.3540   24.3020   40.6610 N   0  0  0  0  0  0  0  0  0  0  0  0
   36.2690   25.2480   42.6880 H   0  0  0  0  0  0  0  0  0  0  0  0
   38.3320   22.4890   40.1910 H   0  0  0  0  0  0  0  0  0  0  0  0
   40.4680   26.3540   41.2120 C   0  0  0  0  0  0  0  0  0  0  0  0
   40.9400   26.5380   42.2020 H   0  0  0  0  0  0  0  0  0  0  0  0
   40.1290   27.3400   40.8290 H   0  0  0  0  0  0  0  0  0  0  0  0
   41.4370   25.7870   40.2010 C   0  0  0  0  0  0  0  0  0  0  0  0
   41.7460   26.5700   39.4590 H   0  0  0  0  0  0  0  0  0  0  0  0
   42.3610   25.4950   40.7750 H   0  0  0  0  0  0  0  0  0  0  0  0
   41.0710   24.8770   39.6960 H   0  0  0  0  0  0  0  0  0  0  0  0
   38.2460   27.0690   42.6900 O   0  0  0  0  0  0  0  0  0  0  0  0
   36.1540   28.1190   41.4900 O   0  0  0  0  0  0  0  0  0  0  0  0
   37.4330   28.4750   42.2440 P   0  0  1  0  0  0  0  0  0  0  0  0
   36.9740   29.2840   43.6800 O   0  0  0  0  0  0  0  0  0  0  0  0
   36.6010   30.1820   43.5010 H   0  0  0  0  0  0  0  0  0  0  0  0
   38.3850   29.5380   41.3350 O   0  0  0  0  0  0  0  0  0  0  0  0
   37.8650   30.7700   40.9610 C   0  0  0  0  0  0  0  0  0  0  0  0
   38.8430   31.7710   40.9750 C   0  0  0  0  0  0  0  0  0  0  0  0
   39.9170   31.8560   41.2020 H   0  0  0  0  0  0  0  0  0  0  0  0
   38.2510   32.9730   40.5900 C   0  0  0  0  0  0  0  0  0  0  0  0
   38.5520   33.9940   40.4460 H   0  0  0  0  0  0  0  0  0  0  0  0
   36.9470   32.6500   40.3610 N   0  0  0  0  0  0  0  0  0  0  0  0
   36.0660   33.1500   40.0560 H   0  0  0  0  0  0  0  0  0  0  0  0
   36.7340   31.3610   40.5810 N   0  0  0  0  0  0  0  0  0  0  0  0
  1  2  1  0  0  0  0
  2  3  2  0  0  0  0
  2 16  1  0  0  0  0
  3  7  1  0  0  0  0
  4  3  1  0  0  0  0
  5  4  2  0  0  0  0
  6  5  1  0  0  0  0
  6  1  2  0  0  0  0
  8  5  1  0  0  0  0
  9  1  1  0  0  0  0
  9 10  1  0  0  0  0
 11  9  1  0  0  0  0
 12 14  1  0  0  0  0
 12  9  1  0  0  0  0
 13 12  1  0  0  0  0
 15 12  1  0  0  0  0
 18 17  2  6  0  0  0
 18 16  1  0  0  0  0
 18 19  1  0  0  0  0
 20 19  1  0  0  0  0
 21 18  1  0  0  0  0
 22 23  1  0  0  0  0
 22 21  1  0  0  0  0
 23 24  1  0  0  0  0
 25 23  2  0  0  0  0
 26 25  1  0  0  0  0
 27 29  1  0  0  0  0
 27 25  1  0  0  0  0
 28 27  1  0  0  0  0
 29 22  2  0  0  0  0
M  END
>  <minimizedAffinity>
-4.55775261

$$$$

 OpenBabel03252500553D

 29 30  0  0  0  0  0  0  0  0999 V2000
   38.8040   27.6700   41.1050 C   0  0  0  0  0  0  0  0  0  0  0  0
   37.8990   28.5350   41.6890 C   0  0  0  0  0  0  0  0  0  0  0  0
   36.9720   27.9850   42.5900 C   0  0  0  0  0  0  0  0  0  0  0  0
   37.0240   26.6620   42.8250 N   0  0  0  0  0  0  0  0  0  0  0  0
   37.9170   25.8470   42.2410 C   0  0  0  0  0  0  0  0  0  0  0  0
   38.8030   26.3580   41.3830 N   0  0  0  0  0  0  0  0  0  0  0  0
   36.2740   28.6810   43.0350 H   0  0  0  0  0  0  0  0  0  0  0  0
   37.8870   24.7810   42.4900 H   0  0  0  0  0  0  0  0  0  0  0  0
   39.8040   28.1600   40.1550 C   0  0  0  0  0  0  0  0  0  0  0  0
   40.8190   27.7590   40.3710 H   0  0  0  0  0  0  0  0  0  0  0  0
   39.8670   29.2640   40.2500 H   0  0  0  0  0  0  0  0  0  0  0  0
   39.3460   27.8550   38.7470 C   0  0  0  0  0  0  0  0  0  0  0  0
   39.4070   28.7690   38.0990 H   0  0  0  0  0  0  0  0  0  0  0  0
   40.0760   27.1060   38.3300 H   0  0  0  0  0  0  0  0  0  0  0  0
   38.3460   27.3920   38.6950 H   0  0  0  0  0  0  0  0  0  0  0  0
   37.9830   29.8690   41.3350 O   0  0  0  0  0  0  0  0  0  0  0  0
   36.3790   29.8580   39.2510 O   0  0  0  0  0  0  0  0  0  0  0  0
   36.8980   30.7390   40.3850 P   0  0  1  0  0  0  0  0  0  0  0  0
   35.5610   31.1470   41.3710 O   0  0  0  0  0  0  0  0  0  0  0  0
   34.9370   31.7660   40.9180 H   0  0  0  0  0  0  0  0  0  0  0  0
   37.5470   32.1770   39.7750 O   0  0  0  0  0  0  0  0  0  0  0  0
   38.3140   32.1430   38.6190 C   0  0  0  0  0  0  0  0  0  0  0  0
   39.6730   32.3340   38.8930 C   0  0  0  0  0  0  0  0  0  0  0  0
   40.3090   32.5050   39.7760 H   0  0  0  0  0  0  0  0  0  0  0  0
   40.3780   32.2880   37.6910 C   0  0  0  0  0  0  0  0  0  0  0  0
   41.3990   32.3730   37.3670 H   0  0  0  0  0  0  0  0  0  0  0  0
   39.4200   32.0710   36.7450 N   0  0  0  0  0  0  0  0  0  0  0  0
   39.3800   31.9530   35.6950 H   0  0  0  0  0  0  0  0  0  0  0  0
   38.2200   31.9890   37.2990 N   0  0  0  0  0  0  0  0  0  0  0  0
  1  6  2  0  0  0  0
  1  2  1  0  0  0  0
  2  3  2  0  0  0  0
  3  4  1  0  0  0  0
  3  7  1  0  0  0  0
  5  8  1  0  0  0  0
  5  4  2  0  0  0  0
  6  5  1  0  0  0  0
  9 11  1  0  0  0  0
  9 10  1  0  0  0  0
  9  1  1  0  0  0  0
 12  9  1  0  0  0  0
 13 12  1  0  0  0  0
 14 12  1  0  0  0  0
 15 12  1  0  0  0  0
 16  2  1  0  0  0  0
 18 17  2  6  0  0  0
 18 16  1  0  0  0  0
 18 19  1  0  0  0  0
 20 19  1  0  0  0  0
 21 18  1  0  0  0  0
 22 23  1  0  0  0  0
 22 21  1  0  0  0  0
 23 24  1  0  0  0  0
 25 23  2  0  0  0  0
 26 25  1  0  0  0  0
 27 29  1  0  0  0  0
 27 25  1  0  0  0  0
 28 27  1  0  0  0  0
 29 22  2  0  0  0  0
M  END
>  <minimizedAffinity>
-4.48431778

$$$$

 OpenBabel03252500553D

 29 30  0  0  0  0  0  0  0  0999 V2000
   36.7420   30.7920   39.5280 C   0  0  0  0  0  0  0  0  0  0  0  0
   36.4410   29.5200   39.9730 C   0  0  0  0  0  0  0  0  0  0  0  0
   36.3090   28.5120   39.0020 C   0  0  0  0  0  0  0  0  0  0  0  0
   36.4830   28.8500   37.7120 N   0  0  0  0  0  0  0  0  0  0  0  0
   36.7760   30.0970   37.3110 C   0  0  0  0  0  0  0  0  0  0  0  0
   36.9040   31.0620   38.2250 N   0  0  0  0  0  0  0  0  0  0  0  0
   36.0730   27.5250   39.3730 H   0  0  0  0  0  0  0  0  0  0  0  0
   36.9010   30.2830   36.2390 H   0  0  0  0  0  0  0  0  0  0  0  0
   36.8970   31.9000   40.4740 C   0  0  0  0  0  0  0  0  0  0  0  0
   37.4100   31.5830   41.4080 H   0  0  0  0  0  0  0  0  0  0  0  0
   35.8870   32.2560   40.7650 H   0  0  0  0  0  0  0  0  0  0  0  0
   37.5980   33.0480   39.7860 C   0  0  0  0  0  0  0  0  0  0  0  0
   37.0390   34.0100   39.9420 H   0  0  0  0  0  0  0  0  0  0  0  0
   38.5970   33.1620   40.2940 H   0  0  0  0  0  0  0  0  0  0  0  0
   37.7990   32.8700   38.7160 H   0  0  0  0  0  0  0  0  0  0  0  0
   36.2940   29.3460   41.3370 O   0  0  0  0  0  0  0  0  0  0  0  0
   38.1060   29.3220   43.2430 O   0  0  0  0  0  0  0  0  0  0  0  0
   37.2620   28.4140   42.3520 P   0  0  1  0  0  0  0  0  0  0  0  0
   36.2250   27.5140   43.3720 O   0  0  0  0  0  0  0  0  0  0  0  0
   36.7170   26.8480   43.9130 H   0  0  0  0  0  0  0  0  0  0  0  0
   38.2440   27.3170   41.5180 O   0  0  0  0  0  0  0  0  0  0  0  0
   38.3220   26.0020   41.9540 C   0  0  0  0  0  0  0  0  0  0  0  0
   39.5990   25.6870   42.4290 C   0  0  0  0  0  0  0  0  0  0  0  0
   40.5690   26.1940   42.5530 H   0  0  0  0  0  0  0  0  0  0  0  0
   39.6020   24.3570   42.8460 C   0  0  0  0  0  0  0  0  0  0  0  0
   40.3010   23.6610   43.2710 H   0  0  0  0  0  0  0  0  0  0  0  0
   38.3300   23.9260   42.6090 N   0  0  0  0  0  0  0  0  0  0  0  0
   37.7810   23.0300   42.7290 H   0  0  0  0  0  0  0  0  0  0  0  0
   37.5930   24.8940   42.0880 N   0  0  0  0  0  0  0  0  0  0  0  0
  1  2  1  0  0  0  0
  1  9  1  0  0  0  0
  2 16  1  0  0  0  0
  3  7  1  0  0  0  0
  3  2  2  0  0  0  0
  4  3  1  0  0  0  0
  5  4  2  0  0  0  0
  5  6  1  0  0  0  0
  6  1  2  0  0  0  0
  8  5  1  0  0  0  0
  9 11  1  0  0  0  0
  9 10  1  0  0  0  0
 12 13  1  0  0  0  0
 12 14  1  0  0  0  0
 12  9  1  0  0  0  0
 15 12  1  0  0  0  0
 16 18  1  0  0  0  0
 18 17  2  1  0  0  0
 18 19  1  0  0  0  0
 19 20  1  0  0  0  0
 21 22  1  0  0  0  0
 21 18  1  0  0  0  0
 22 29  2  0  0  0  0
 22 23  1  0  0  0  0
 23 24  1  0  0  0  0
 23 25  2  0  0  0  0
 25 26  1  0  0  0  0
 27 28  1  0  0  0  0
 27 25  1  0  0  0  0
 29 27  1  0  0  0  0
M  END
>  <minimizedAffinity>
-4.45168638

$$$$

 OpenBabel03252500553D

 29 30  0  0  0  0  0  0  0  0999 V2000
   36.2410   29.2370   41.0180 C   0  0  0  0  0  0  0  0  0  0  0  0
   37.0910   30.2680   41.3690 C   0  0  0  0  0  0  0  0  0  0  0  0
   38.1940   29.9460   42.1780 C   0  0  0  0  0  0  0  0  0  0  0  0
   38.3490   28.6650   42.5570 N   0  0  0  0  0  0  0  0  0  0  0  0
   37.5040   27.6840   42.1980 C   0  0  0  0  0  0  0  0  0  0  0  0
   36.4530   27.9790   41.4290 N   0  0  0  0  0  0  0  0  0  0  0  0
   38.8450   30.7680   42.4410 H   0  0  0  0  0  0  0  0  0  0  0  0
   37.7080   26.6680   42.5520 H   0  0  0  0  0  0  0  0  0  0  0  0
   35.0680   29.4860   40.1770 C   0  0  0  0  0  0  0  0  0  0  0  0
   34.9160   30.5700   39.9820 H   0  0  0  0  0  0  0  0  0  0  0  0
   34.1670   29.1260   40.7160 H   0  0  0  0  0  0  0  0  0  0  0  0
   35.1850   28.6770   38.9060 C   0  0  0  0  0  0  0  0  0  0  0  0
   34.2430   28.0990   38.7100 H   0  0  0  0  0  0  0  0  0  0  0  0
   35.2970   29.4190   38.0660 H   0  0  0  0  0  0  0  0  0  0  0  0
   36.0720   28.0210   38.8760 H   0  0  0  0  0  0  0  0  0  0  0  0
   36.7830   31.5290   40.8940 O   0  0  0  0  0  0  0  0  0  0  0  0
   37.0170   33.6580   39.3680 O   0  0  0  0  0  0  0  0  0  0  0  0
   37.8250   32.6060   40.1240 P   0  0  1  0  0  0  0  0  0  0  0  0
   38.7170   33.4180   41.3360 O   0  0  0  0  0  0  0  0  0  0  0  0
   39.4390   33.9780   40.9580 H   0  0  0  0  0  0  0  0  0  0  0  0
   38.9290   31.8460   39.0920 O   0  0  0  0  0  0  0  0  0  0  0  0
   38.4610   31.0090   38.0890 C   0  0  0  0  0  0  0  0  0  0  0  0
   39.0060   29.7240   38.1890 C   0  0  0  0  0  0  0  0  0  0  0  0
   39.7090   29.1870   38.8470 H   0  0  0  0  0  0  0  0  0  0  0  0
   38.4940   28.9440   37.1540 C   0  0  0  0  0  0  0  0  0  0  0  0
   38.5900   27.9330   36.8020 H   0  0  0  0  0  0  0  0  0  0  0  0
   37.6640   29.7850   36.4750 N   0  0  0  0  0  0  0  0  0  0  0  0
   37.0310   29.7330   35.6290 H   0  0  0  0  0  0  0  0  0  0  0  0
   37.6540   30.9870   37.0290 N   0  0  0  0  0  0  0  0  0  0  0  0
  1  2  2  0  0  0  0
  1  6  1  0  0  0  0
  2  3  1  0  0  0  0
  3  7  1  0  0  0  0
  3  4  2  0  0  0  0
  5  8  1  0  0  0  0
  5  4  1  0  0  0  0
  6  5  2  0  0  0  0
  9 11  1  0  0  0  0
  9  1  1  0  0  0  0
 10  9  1  0  0  0  0
 12  9  1  0  0  0  0
 13 12  1  0  0  0  0
 14 12  1  0  0  0  0
 15 12  1  0  0  0  0
 16  2  1  0  0  0  0
 18 17  2  6  0  0  0
 18 16  1  0  0  0  0
 18 19  1  0  0  0  0
 20 19  1  0  0  0  0
 21 18  1  0  0  0  0
 22 23  1  0  0  0  0
 22 21  1  0  0  0  0
 23 24  1  0  0  0  0
 25 23  2  0  0  0  0
 26 25  1  0  0  0  0
 27 29  1  0  0  0  0
 27 25  1  0  0  0  0
 28 27  1  0  0  0  0
 29 22  2  0  0  0  0
M  END
>  <minimizedAffinity>
-4.44674158

$$$$
