
 OpenBabel03252504223D

 31 34  0  0  0  0  0  0  0  0999 V2000
   46.9270   33.3990   39.2420 C   0  0  0  0  0  0  0  0  0  0  0  0
   48.2810   33.1260   39.4030 C   0  0  0  0  0  0  0  0  0  0  0  0
   48.8590   33.3460   40.6770 C   0  0  0  0  0  0  0  0  0  0  0  0
   48.0300   33.8140   41.6550 N   0  0  0  0  0  0  0  0  0  0  0  0
   46.7150   34.0650   41.4470 C   0  0  0  0  0  0  0  0  0  0  0  0
   46.1780   33.8560   40.2460 N   0  0  0  0  0  0  0  0  0  0  0  0
   45.9530   34.5530   42.5450 N   0  0  0  0  0  0  0  0  0  0  0  0
   45.0620   35.5760   42.4950 C   0  0  0  0  0  0  0  0  0  0  0  0
   44.5450   35.7420   43.7470 N   0  0  0  0  0  0  0  0  0  0  0  0
   45.1260   34.8260   44.5290 C   0  0  0  0  0  0  0  0  0  0  0  0
   45.0200   34.5050   45.8580 C   0  0  0  0  0  0  0  0  0  0  0  0
   45.7240   33.5250   46.4150 N   0  0  0  0  0  0  0  0  0  0  0  0
   46.5980   32.7740   45.7080 C   0  0  0  0  0  0  0  0  0  0  0  0
   46.6920   33.1030   44.3980 N   0  0  0  0  0  0  0  0  0  0  0  0
   46.0170   34.0670   43.7910 C   0  0  0  0  0  0  0  0  0  0  0  0
   48.9660   32.7550   38.6510 H   0  0  0  0  0  0  0  0  0  0  0  0
   49.8940   33.1510   40.8510 H   0  0  0  0  0  0  0  0  0  0  0  0
   44.7680   36.1910   41.6440 H   0  0  0  0  0  0  0  0  0  0  0  0
   47.1740   31.9760   46.1550 H   0  0  0  0  0  0  0  0  0  0  0  0
   44.1560   35.1920   46.7360 N   0  0  0  0  0  0  0  0  0  0  0  0
   43.3540   34.8020   47.3000 H   0  0  0  0  0  0  0  0  0  0  0  0
   44.3980   36.2200   46.7900 H   0  0  0  0  0  0  0  0  0  0  0  0
   46.2800   33.0950   37.5770 S   0  0  0  0  0  0  0  0  0  0  0  0
   47.6350   32.5590   36.5430 C   0  0  0  0  0  0  0  0  0  0  0  0
   47.8420   31.1970   36.2980 C   0  0  0  0  0  0  0  0  0  0  0  0
   47.3160   30.2900   36.6250 H   0  0  0  0  0  0  0  0  0  0  0  0
   48.9590   31.0670   35.4660 C   0  0  0  0  0  0  0  0  0  0  0  0
   49.4720   30.2280   35.0320 H   0  0  0  0  0  0  0  0  0  0  0  0
   49.3810   32.3470   35.2420 N   0  0  0  0  0  0  0  0  0  0  0  0
   50.2030   32.6780   34.6580 H   0  0  0  0  0  0  0  0  0  0  0  0
   48.6110   33.2340   35.8690 N   0  0  0  0  0  0  0  0  0  0  0  0
  1  2  2  0  0  0  0
  1  6  1  0  0  0  0
  2  3  1  0  0  0  0
  3 17  1  0  0  0  0
  3  4  2  0  0  0  0
  5  4  1  0  0  0  0
  5  7  1  0  0  0  0
  6  5  2  0  0  0  0
  7 15  1  0  0  0  0
  8  7  1  0  0  0  0
  8  9  2  0  0  0  0
  9 10  1  0  0  0  0
 10 11  1  0  0  0  0
 11 12  2  0  0  0  0
 11 20  1  0  0  0  0
 13 19  1  0  0  0  0
 13 12  1  0  0  0  0
 14 13  2  0  0  0  0
 15 14  1  0  0  0  0
 15 10  2  0  0  0  0
 16  2  1  0  0  0  0
 18  8  1  0  0  0  0
 20 22  1  0  0  0  0
 20 21  1  0  0  0  0
 23  1  1  0  0  0  0
 24 23  1  0  0  0  0
 25 24  1  0  0  0  0
 25 26  1  0  0  0  0
 27 25  2  0  0  0  0
 28 27  1  0  0  0  0
 29 27  1  0  0  0  0
 29 31  1  0  0  0  0
 30 29  1  0  0  0  0
 31 24  2  0  0  0  0
M  END
>  <minimizedAffinity>
-5.9711113

>  <minimizedRMSD>
1.23246861

$$$$
