
 OpenBabel03242522443D

 46 49  0  0  0  0  0  0  0  0999 V2000
   36.8770   27.1980   39.2690 C   0  0  0  0  0  0  0  0  0  0  0  0
   37.6520   27.2790   38.4830 H   0  0  0  0  0  0  0  0  0  0  0  0
   37.2030   27.4810   40.2870 H   0  0  0  0  0  0  0  0  0  0  0  0
   37.0140   25.0720   40.4680 C   0  0  0  0  0  0  0  0  0  0  0  0
   36.4850   25.7900   39.4000 C   0  0  0  0  0  0  0  0  0  0  0  0
   35.6350   25.2980   38.4840 C   0  0  0  0  0  0  0  0  0  0  0  0
   35.2450   23.9850   38.5930 C   0  0  0  0  0  0  0  0  0  0  0  0
   35.6940   23.1790   39.6030 C   0  0  0  0  0  0  0  0  0  0  0  0
   36.5730   23.7460   40.5230 C   0  0  0  0  0  0  0  0  0  0  0  0
   35.1590   25.7390   37.6540 H   0  0  0  0  0  0  0  0  0  0  0  0
   34.5640   23.4460   37.9260 H   0  0  0  0  0  0  0  0  0  0  0  0
   35.4230   22.1290   39.7500 H   0  0  0  0  0  0  0  0  0  0  0  0
   36.9490   23.1380   41.3360 H   0  0  0  0  0  0  0  0  0  0  0  0
   38.0740   25.6690   41.6690 S   0  0  0  0  0  0  0  0  0  0  0  0
   39.3490   26.2690   40.9500 O   0  0  0  0  0  0  0  0  0  0  0  0
   38.6500   24.5520   42.4650 O   0  0  0  0  0  0  0  0  0  0  0  0
   37.6670   27.1020   42.5290 C   0  0  0  0  0  0  0  0  0  0  0  0
   38.6370   28.1240   42.5910 C   0  0  0  0  0  0  0  0  0  0  0  0
   39.6480   28.1920   42.1970 H   0  0  0  0  0  0  0  0  0  0  0  0
   38.1520   29.2040   43.2940 C   0  0  0  0  0  0  0  0  0  0  0  0
   38.5980   30.1440   43.5380 H   0  0  0  0  0  0  0  0  0  0  0  0
   36.9080   28.8150   43.6390 N   0  0  0  0  0  0  0  0  0  0  0  0
   36.2030   29.3600   44.1860 H   0  0  0  0  0  0  0  0  0  0  0  0
   36.6200   27.6040   43.2010 N   0  0  0  0  0  0  0  0  0  0  0  0
   35.7810   28.1800   38.9850 C   0  0  0  0  0  0  0  0  0  0  0  0
   34.9080   28.1060   39.6740 H   0  0  0  0  0  0  0  0  0  0  0  0
   35.2740   28.0260   38.0140 H   0  0  0  0  0  0  0  0  0  0  0  0
   36.1820   30.1550   40.4320 C   0  0  0  0  0  0  0  0  0  0  0  0
   36.3150   29.5220   39.1780 C   0  0  0  0  0  0  0  0  0  0  0  0
   36.9720   30.2270   38.1800 C   0  0  0  0  0  0  0  0  0  0  0  0
   37.4510   31.4670   38.4430 N   0  0  0  0  0  0  0  0  0  0  0  0
   37.3020   32.0210   39.6430 C   0  0  0  0  0  0  0  0  0  0  0  0
   36.6710   31.3840   40.6550 N   0  0  0  0  0  0  0  0  0  0  0  0
   35.7130   29.7970   41.3280 H   0  0  0  0  0  0  0  0  0  0  0  0
   37.0930   29.7810   37.2110 H   0  0  0  0  0  0  0  0  0  0  0  0
   37.8810   33.3930   39.8720 C   0  0  0  0  0  0  0  0  0  0  0  0
   37.3920   33.8570   40.7560 H   0  0  0  0  0  0  0  0  0  0  0  0
   37.6520   33.9960   38.9630 H   0  0  0  0  0  0  0  0  0  0  0  0
   39.3190   33.3880   40.0770 C   0  0  0  0  0  0  0  0  0  0  0  0
   40.0040   32.5670   40.9550 C   0  0  0  0  0  0  0  0  0  0  0  0
   41.3410   32.8460   40.8790 C   0  0  0  0  0  0  0  0  0  0  0  0
   41.4280   33.8370   39.9470 N   0  0  0  0  0  0  0  0  0  0  0  0
   40.2300   34.1610   39.4690 N   0  0  0  0  0  0  0  0  0  0  0  0
   39.6130   31.8110   41.6220 H   0  0  0  0  0  0  0  0  0  0  0  0
   42.2300   32.4540   41.3770 H   0  0  0  0  0  0  0  0  0  0  0  0
   42.3180   34.3120   39.6190 H   0  0  0  0  0  0  0  0  0  0  0  0
  1  5  1  0  0  0  0
  1  3  1  0  0  0  0
  2  1  1  0  0  0  0
  4  9  1  0  0  0  0
  4 14  1  0  0  0  0
  5  4  2  0  0  0  0
  6  7  2  0  0  0  0
  6  5  1  0  0  0  0
  7  8  1  0  0  0  0
  8 12  1  0  0  0  0
  8  9  2  0  0  0  0
  9 13  1  0  0  0  0
 10  6  1  0  0  0  0
 11  7  1  0  0  0  0
 14 16  2  0  0  0  0
 14 17  1  0  0  0  0
 15 14  2  0  0  0  0
 17 18  1  0  0  0  0
 17 24  2  0  0  0  0
 18 20  2  0  0  0  0
 19 18  1  0  0  0  0
 20 21  1  0  0  0  0
 20 22  1  0  0  0  0
 22 23  1  0  0  0  0
 24 22  1  0  0  0  0
 25 29  1  0  0  0  0
 25  1  1  0  0  0  0
 25 26  1  0  0  0  0
 27 25  1  0  0  0  0
 28 33  1  0  0  0  0
 28 34  1  0  0  0  0
 29 28  2  0  0  0  0
 30 31  2  0  0  0  0
 30 29  1  0  0  0  0
 31 32  1  0  0  0  0
 32 36  1  0  0  0  0
 32 33  2  0  0  0  0
 35 30  1  0  0  0  0
 36 39  1  0  0  0  0
 36 37  1  0  0  0  0
 38 36  1  0  0  0  0
 39 40  1  0  0  0  0
 40 44  1  0  0  0  0
 41 40  2  0  0  0  0
 41 45  1  0  0  0  0
 42 41  1  0  0  0  0
 43 42  1  0  0  0  0
 43 39  2  0  0  0  0
 46 42  1  0  0  0  0
M  END
>  <minimizedAffinity>
-6.13479328

$$$$

 OpenBabel03242522443D

 46 49  0  0  0  0  0  0  0  0999 V2000
   37.7610   27.4040   42.3430 C   0  0  0  0  0  0  0  0  0  0  0  0
   37.2180   27.4200   43.3080 H   0  0  0  0  0  0  0  0  0  0  0  0
   37.6000   28.2850   41.6940 H   0  0  0  0  0  0  0  0  0  0  0  0
   36.9990   26.5120   40.1980 C   0  0  0  0  0  0  0  0  0  0  0  0
   37.2660   26.2780   41.5440 C   0  0  0  0  0  0  0  0  0  0  0  0
   37.1160   25.0970   42.1670 C   0  0  0  0  0  0  0  0  0  0  0  0
   36.6650   24.0250   41.4350 C   0  0  0  0  0  0  0  0  0  0  0  0
   36.3730   24.1310   40.1030 C   0  0  0  0  0  0  0  0  0  0  0  0
   36.5480   25.3800   39.5120 C   0  0  0  0  0  0  0  0  0  0  0  0
   37.2990   24.7940   43.1590 H   0  0  0  0  0  0  0  0  0  0  0  0
   36.4910   23.0080   41.8020 H   0  0  0  0  0  0  0  0  0  0  0  0
   36.0130   23.3190   39.4620 H   0  0  0  0  0  0  0  0  0  0  0  0
   36.3280   25.5010   38.4590 H   0  0  0  0  0  0  0  0  0  0  0  0
   37.2050   27.9890   39.3640 S   0  0  0  0  0  0  0  0  0  0  0  0
   36.1790   28.0250   38.1600 O   0  0  0  0  0  0  0  0  0  0  0  0
   38.5190   28.0220   38.6670 O   0  0  0  0  0  0  0  0  0  0  0  0
   36.6770   29.4580   40.0870 C   0  0  0  0  0  0  0  0  0  0  0  0
   37.3190   30.6490   39.6890 C   0  0  0  0  0  0  0  0  0  0  0  0
   38.1300   30.8400   38.9900 H   0  0  0  0  0  0  0  0  0  0  0  0
   36.7720   31.7310   40.3410 C   0  0  0  0  0  0  0  0  0  0  0  0
   36.9990   32.7730   40.2910 H   0  0  0  0  0  0  0  0  0  0  0  0
   35.8170   31.1740   41.1140 N   0  0  0  0  0  0  0  0  0  0  0  0
   35.1670   31.6660   41.7700 H   0  0  0  0  0  0  0  0  0  0  0  0
   35.7570   29.8640   40.9740 N   0  0  0  0  0  0  0  0  0  0  0  0
   39.2350   27.4490   42.6060 C   0  0  0  0  0  0  0  0  0  0  0  0
   39.8290   26.7090   42.0210 H   0  0  0  0  0  0  0  0  0  0  0  0
   39.5220   27.1560   43.6340 H   0  0  0  0  0  0  0  0  0  0  0  0
   40.7330   28.8470   41.2060 C   0  0  0  0  0  0  0  0  0  0  0  0
   39.7290   28.7560   42.1930 C   0  0  0  0  0  0  0  0  0  0  0  0
   39.2500   29.9480   42.7190 C   0  0  0  0  0  0  0  0  0  0  0  0
   39.7530   31.1250   42.2720 N   0  0  0  0  0  0  0  0  0  0  0  0
   40.6990   31.1570   41.3380 C   0  0  0  0  0  0  0  0  0  0  0  0
   41.2060   30.0300   40.7890 N   0  0  0  0  0  0  0  0  0  0  0  0
   41.2390   28.0610   40.6770 H   0  0  0  0  0  0  0  0  0  0  0  0
   38.4870   29.9220   43.4730 H   0  0  0  0  0  0  0  0  0  0  0  0
   41.1940   32.5020   40.8720 C   0  0  0  0  0  0  0  0  0  0  0  0
   42.2210   32.6710   41.2620 H   0  0  0  0  0  0  0  0  0  0  0  0
   40.5050   33.2650   41.2990 H   0  0  0  0  0  0  0  0  0  0  0  0
   41.2100   32.6440   39.4270 C   0  0  0  0  0  0  0  0  0  0  0  0
   42.3440   32.7550   38.6410 C   0  0  0  0  0  0  0  0  0  0  0  0
   41.9700   32.8740   37.3310 C   0  0  0  0  0  0  0  0  0  0  0  0
   40.6090   32.8310   37.3610 N   0  0  0  0  0  0  0  0  0  0  0  0
   40.1540   32.6940   38.6030 N   0  0  0  0  0  0  0  0  0  0  0  0
   43.3820   32.7560   38.9440 H   0  0  0  0  0  0  0  0  0  0  0  0
   42.5160   32.9830   36.3910 H   0  0  0  0  0  0  0  0  0  0  0  0
   39.9610   32.8940   36.5220 H   0  0  0  0  0  0  0  0  0  0  0  0
  1 25  1  0  0  0  0
  1  2  1  0  0  0  0
  3  1  1  0  0  0  0
  4  5  1  0  0  0  0
  5  6  2  0  0  0  0
  5  1  1  0  0  0  0
  6 10  1  0  0  0  0
  7 11  1  0  0  0  0
  7  6  1  0  0  0  0
  8  7  2  0  0  0  0
  9  8  1  0  0  0  0
  9  4  2  0  0  0  0
 12  8  1  0  0  0  0
 13  9  1  0  0  0  0
 14 17  1  0  0  0  0
 14  4  1  0  0  0  0
 15 14  2  0  0  0  0
 16 14  2  0  0  0  0
 17 24  2  0  0  0  0
 18 17  1  0  0  0  0
 18 20  2  0  0  0  0
 19 18  1  0  0  0  0
 20 22  1  0  0  0  0
 21 20  1  0  0  0  0
 22 23  1  0  0  0  0
 24 22  1  0  0  0  0
 25 27  1  0  0  0  0
 26 25  1  0  0  0  0
 28 29  1  0  0  0  0
 29 25  1  0  0  0  0
 29 30  2  0  0  0  0
 30 35  1  0  0  0  0
 31 30  1  0  0  0  0
 32 31  2  0  0  0  0
 33 28  2  0  0  0  0
 33 32  1  0  0  0  0
 34 28  1  0  0  0  0
 36 37  1  0  0  0  0
 36 38  1  0  0  0  0
 36 32  1  0  0  0  0
 39 36  1  0  0  0  0
 40 44  1  0  0  0  0
 40 39  1  0  0  0  0
 41 42  1  0  0  0  0
 41 40  2  0  0  0  0
 42 43  1  0  0  0  0
 43 39  2  0  0  0  0
 45 41  1  0  0  0  0
 46 42  1  0  0  0  0
M  END
>  <minimizedAffinity>
-6.00357962

$$$$

 OpenBabel03242522443D

 46 49  0  0  0  0  0  0  0  0999 V2000
   36.5040   27.7670   41.9440 C   0  0  0  0  0  0  0  0  0  0  0  0
   35.4910   27.6730   42.3790 H   0  0  0  0  0  0  0  0  0  0  0  0
   36.5710   28.3790   41.0260 H   0  0  0  0  0  0  0  0  0  0  0  0
   37.1850   26.2400   40.1610 C   0  0  0  0  0  0  0  0  0  0  0  0
   36.9580   26.4380   41.5190 C   0  0  0  0  0  0  0  0  0  0  0  0
   37.1330   25.5100   42.4750 C   0  0  0  0  0  0  0  0  0  0  0  0
   37.5690   24.2610   42.1020 C   0  0  0  0  0  0  0  0  0  0  0  0
   37.8310   23.9480   40.7960 C   0  0  0  0  0  0  0  0  0  0  0  0
   37.6320   24.9510   39.8510 C   0  0  0  0  0  0  0  0  0  0  0  0
   37.0140   25.5430   43.5210 H   0  0  0  0  0  0  0  0  0  0  0  0
   37.7540   23.4070   42.7620 H   0  0  0  0  0  0  0  0  0  0  0  0
   38.1820   22.9770   40.4320 H   0  0  0  0  0  0  0  0  0  0  0  0
   37.8290   24.7390   38.8080 H   0  0  0  0  0  0  0  0  0  0  0  0
   37.0040   27.4010   38.9200 S   0  0  0  0  0  0  0  0  0  0  0  0
   37.2670   26.6890   37.5320 O   0  0  0  0  0  0  0  0  0  0  0  0
   38.0980   28.4080   38.9770 O   0  0  0  0  0  0  0  0  0  0  0  0
   35.4360   27.9860   38.5230 C   0  0  0  0  0  0  0  0  0  0  0  0
   34.8240   27.4740   37.3590 C   0  0  0  0  0  0  0  0  0  0  0  0
   35.1620   26.7570   36.6150 H   0  0  0  0  0  0  0  0  0  0  0  0
   33.5730   28.0250   37.1930 C   0  0  0  0  0  0  0  0  0  0  0  0
   32.8320   27.8760   36.4380 H   0  0  0  0  0  0  0  0  0  0  0  0
   33.4560   28.8510   38.2520 N   0  0  0  0  0  0  0  0  0  0  0  0
   32.6410   29.4600   38.4930 H   0  0  0  0  0  0  0  0  0  0  0  0
   34.5260   28.8340   39.0240 N   0  0  0  0  0  0  0  0  0  0  0  0
   37.3860   28.5070   42.9030 C   0  0  0  0  0  0  0  0  0  0  0  0
   38.2890   27.9410   43.2270 H   0  0  0  0  0  0  0  0  0  0  0  0
   36.9200   28.7060   43.8870 H   0  0  0  0  0  0  0  0  0  0  0  0
   37.0390   30.4440   41.3920 C   0  0  0  0  0  0  0  0  0  0  0  0
   37.8940   29.6940   42.2270 C   0  0  0  0  0  0  0  0  0  0  0  0
   39.1970   30.1470   42.3690 C   0  0  0  0  0  0  0  0  0  0  0  0
   39.5890   31.2690   41.7160 N   0  0  0  0  0  0  0  0  0  0  0  0
   38.7440   31.9420   40.9410 C   0  0  0  0  0  0  0  0  0  0  0  0
   37.4630   31.5500   40.7630 N   0  0  0  0  0  0  0  0  0  0  0  0
   36.0090   30.2720   41.1440 H   0  0  0  0  0  0  0  0  0  0  0  0
   39.8800   29.6040   42.9950 H   0  0  0  0  0  0  0  0  0  0  0  0
   39.2420   33.1940   40.2650 C   0  0  0  0  0  0  0  0  0  0  0  0
   39.9450   33.7250   40.9430 H   0  0  0  0  0  0  0  0  0  0  0  0
   38.3520   33.8360   40.0780 H   0  0  0  0  0  0  0  0  0  0  0  0
   39.9080   32.9430   38.9990 C   0  0  0  0  0  0  0  0  0  0  0  0
   41.1920   33.3430   38.6710 C   0  0  0  0  0  0  0  0  0  0  0  0
   41.4780   32.9310   37.3990 C   0  0  0  0  0  0  0  0  0  0  0  0
   40.3490   32.2870   36.9890 N   0  0  0  0  0  0  0  0  0  0  0  0
   39.4160   32.2920   37.9360 N   0  0  0  0  0  0  0  0  0  0  0  0
   41.9050   33.8930   39.2710 H   0  0  0  0  0  0  0  0  0  0  0  0
   42.3490   33.0240   36.7470 H   0  0  0  0  0  0  0  0  0  0  0  0
   40.1980   31.8280   36.0440 H   0  0  0  0  0  0  0  0  0  0  0  0
  1  2  1  0  0  0  0
  1 25  1  0  0  0  0
  3  1  1  0  0  0  0
  4  5  1  0  0  0  0
  5  1  1  0  0  0  0
  5  6  2  0  0  0  0
  6 10  1  0  0  0  0
  7  6  1  0  0  0  0
  7 11  1  0  0  0  0
  8  7  2  0  0  0  0
  9  4  2  0  0  0  0
  9  8  1  0  0  0  0
 12  8  1  0  0  0  0
 13  9  1  0  0  0  0
 14 16  2  0  0  0  0
 14  4  1  0  0  0  0
 15 14  2  0  0  0  0
 17 14  1  0  0  0  0
 17 24  2  0  0  0  0
 18 17  1  0  0  0  0
 19 18  1  0  0  0  0
 20 18  2  0  0  0  0
 20 22  1  0  0  0  0
 21 20  1  0  0  0  0
 22 23  1  0  0  0  0
 22 24  1  0  0  0  0
 25 26  1  0  0  0  0
 25 27  1  0  0  0  0
 28 29  1  0  0  0  0
 29 30  2  0  0  0  0
 29 25  1  0  0  0  0
 30 35  1  0  0  0  0
 31 30  1  0  0  0  0
 32 31  2  0  0  0  0
 33 32  1  0  0  0  0
 33 28  2  0  0  0  0
 34 28  1  0  0  0  0
 36 32  1  0  0  0  0
 36 37  1  0  0  0  0
 38 36  1  0  0  0  0
 39 36  1  0  0  0  0
 40 39  1  0  0  0  0
 40 44  1  0  0  0  0
 41 40  2  0  0  0  0
 42 41  1  0  0  0  0
 42 43  1  0  0  0  0
 43 39  2  0  0  0  0
 45 41  1  0  0  0  0
 46 42  1  0  0  0  0
M  END
>  <minimizedAffinity>
-5.97359753

$$$$

 OpenBabel03242522443D

 46 49  0  0  0  0  0  0  0  0999 V2000
   39.9080   31.5960   41.5140 C   0  0  0  0  0  0  0  0  0  0  0  0
   38.8040   31.5220   41.4740 H   0  0  0  0  0  0  0  0  0  0  0  0
   40.3050   32.5040   42.0050 H   0  0  0  0  0  0  0  0  0  0  0  0
   39.5230   32.0150   39.1370 C   0  0  0  0  0  0  0  0  0  0  0  0
   40.4240   31.6810   40.1430 C   0  0  0  0  0  0  0  0  0  0  0  0
   41.7320   31.4390   39.9590 C   0  0  0  0  0  0  0  0  0  0  0  0
   42.2400   31.5240   38.6850 C   0  0  0  0  0  0  0  0  0  0  0  0
   41.4530   31.8490   37.6140 C   0  0  0  0  0  0  0  0  0  0  0  0
   40.1050   32.0890   37.8670 C   0  0  0  0  0  0  0  0  0  0  0  0
   42.5070   31.1980   40.6310 H   0  0  0  0  0  0  0  0  0  0  0  0
   43.2770   31.3530   38.3800 H   0  0  0  0  0  0  0  0  0  0  0  0
   41.7920   31.9360   36.5760 H   0  0  0  0  0  0  0  0  0  0  0  0
   39.4520   32.3500   37.0440 H   0  0  0  0  0  0  0  0  0  0  0  0
   37.8600   32.3580   39.3340 S   0  0  0  0  0  0  0  0  0  0  0  0
   37.1820   32.3640   37.9040 O   0  0  0  0  0  0  0  0  0  0  0  0
   37.6620   33.7610   39.7890 O   0  0  0  0  0  0  0  0  0  0  0  0
   36.8200   31.1710   40.0160 C   0  0  0  0  0  0  0  0  0  0  0  0
   36.5230   30.0350   39.2340 C   0  0  0  0  0  0  0  0  0  0  0  0
   36.8240   29.7450   38.2300 H   0  0  0  0  0  0  0  0  0  0  0  0
   35.7000   29.1770   39.9260 C   0  0  0  0  0  0  0  0  0  0  0  0
   35.2770   28.2330   39.6560 H   0  0  0  0  0  0  0  0  0  0  0  0
   35.5160   29.8070   41.1040 N   0  0  0  0  0  0  0  0  0  0  0  0
   34.9460   29.4780   41.9160 H   0  0  0  0  0  0  0  0  0  0  0  0
   36.1590   30.9580   41.1640 N   0  0  0  0  0  0  0  0  0  0  0  0
   40.4470   30.4910   42.3710 C   0  0  0  0  0  0  0  0  0  0  0  0
   40.6030   30.7720   43.4380 H   0  0  0  0  0  0  0  0  0  0  0  0
   41.4720   30.1690   42.1050 H   0  0  0  0  0  0  0  0  0  0  0  0
   39.5710   28.3510   41.4720 C   0  0  0  0  0  0  0  0  0  0  0  0
   39.4650   29.4150   42.3920 C   0  0  0  0  0  0  0  0  0  0  0  0
   38.4120   29.3680   43.2950 C   0  0  0  0  0  0  0  0  0  0  0  0
   37.5480   28.3250   43.2590 N   0  0  0  0  0  0  0  0  0  0  0  0
   37.6910   27.3440   42.3720 C   0  0  0  0  0  0  0  0  0  0  0  0
   38.6960   27.3340   41.4670 N   0  0  0  0  0  0  0  0  0  0  0  0
   40.2960   28.1930   40.6970 H   0  0  0  0  0  0  0  0  0  0  0  0
   38.2950   30.1590   44.0110 H   0  0  0  0  0  0  0  0  0  0  0  0
   36.7070   26.2040   42.4050 C   0  0  0  0  0  0  0  0  0  0  0  0
   35.8080   26.4760   41.8100 H   0  0  0  0  0  0  0  0  0  0  0  0
   36.4160   26.0590   43.4700 H   0  0  0  0  0  0  0  0  0  0  0  0
   37.2480   24.9560   41.8960 C   0  0  0  0  0  0  0  0  0  0  0  0
   36.8100   24.2890   40.7660 C   0  0  0  0  0  0  0  0  0  0  0  0
   37.5530   23.1530   40.6000 C   0  0  0  0  0  0  0  0  0  0  0  0
   38.4290   23.1650   41.6430 N   0  0  0  0  0  0  0  0  0  0  0  0
   38.2510   24.2340   42.4150 N   0  0  0  0  0  0  0  0  0  0  0  0
   36.0170   24.5610   40.0830 H   0  0  0  0  0  0  0  0  0  0  0  0
   37.5560   22.3470   39.8630 H   0  0  0  0  0  0  0  0  0  0  0  0
   39.1710   22.4340   41.8460 H   0  0  0  0  0  0  0  0  0  0  0  0
  1  3  1  0  0  0  0
  1 25  1  0  0  0  0
  2  1  1  0  0  0  0
  4 14  1  0  0  0  0
  4  5  1  0  0  0  0
  5  1  1  0  0  0  0
  6  5  2  0  0  0  0
  6 10  1  0  0  0  0
  7  6  1  0  0  0  0
  8  9  1  0  0  0  0
  8  7  2  0  0  0  0
  9  4  2  0  0  0  0
 11  7  1  0  0  0  0
 12  8  1  0  0  0  0
 13  9  1  0  0  0  0
 14 16  2  0  0  0  0
 14 17  1  0  0  0  0
 15 14  2  0  0  0  0
 17 24  2  0  0  0  0
 18 20  2  0  0  0  0
 18 17  1  0  0  0  0
 19 18  1  0  0  0  0
 20 22  1  0  0  0  0
 21 20  1  0  0  0  0
 22 24  1  0  0  0  0
 22 23  1  0  0  0  0
 25 29  1  0  0  0  0
 25 26  1  0  0  0  0
 27 25  1  0  0  0  0
 28 29  1  0  0  0  0
 29 30  2  0  0  0  0
 30 35  1  0  0  0  0
 31 30  1  0  0  0  0
 32 36  1  0  0  0  0
 32 31  2  0  0  0  0
 33 28  2  0  0  0  0
 33 32  1  0  0  0  0
 34 28  1  0  0  0  0
 36 38  1  0  0  0  0
 37 36  1  0  0  0  0
 39 36  1  0  0  0  0
 39 43  2  0  0  0  0
 40 39  1  0  0  0  0
 41 40  2  0  0  0  0
 41 42  1  0  0  0  0
 42 46  1  0  0  0  0
 42 43  1  0  0  0  0
 44 40  1  0  0  0  0
 45 41  1  0  0  0  0
M  END
>  <minimizedAffinity>
-5.96742058

$$$$

 OpenBabel03242522443D

 46 49  0  0  0  0  0  0  0  0999 V2000
   36.2130   26.7320   39.4420 C   0  0  0  0  0  0  0  0  0  0  0  0
   36.2900   27.2280   40.4280 H   0  0  0  0  0  0  0  0  0  0  0  0
   35.4630   25.9220   39.3760 H   0  0  0  0  0  0  0  0  0  0  0  0
   38.2140   25.5700   40.2300 C   0  0  0  0  0  0  0  0  0  0  0  0
   37.4850   26.0630   39.1510 C   0  0  0  0  0  0  0  0  0  0  0  0
   37.8520   25.9650   37.8630 C   0  0  0  0  0  0  0  0  0  0  0  0
   39.0350   25.3320   37.5660 C   0  0  0  0  0  0  0  0  0  0  0  0
   39.8350   24.8020   38.5400 C   0  0  0  0  0  0  0  0  0  0  0  0
   39.4030   24.9350   39.8570 C   0  0  0  0  0  0  0  0  0  0  0  0
   37.3860   26.2770   36.9710 H   0  0  0  0  0  0  0  0  0  0  0  0
   39.4640   25.1780   36.5700 H   0  0  0  0  0  0  0  0  0  0  0  0
   40.7860   24.2840   38.3740 H   0  0  0  0  0  0  0  0  0  0  0  0
   40.0100   24.5260   40.6550 H   0  0  0  0  0  0  0  0  0  0  0  0
   37.7680   25.6490   41.8780 S   0  0  0  0  0  0  0  0  0  0  0  0
   39.0050   25.1840   42.7480 O   0  0  0  0  0  0  0  0  0  0  0  0
   36.7450   24.6170   42.1970 O   0  0  0  0  0  0  0  0  0  0  0  0
   37.5840   27.1800   42.6390 C   0  0  0  0  0  0  0  0  0  0  0  0
   38.5820   28.1500   42.4050 C   0  0  0  0  0  0  0  0  0  0  0  0
   39.4990   28.1240   41.8220 H   0  0  0  0  0  0  0  0  0  0  0  0
   38.2790   29.3190   43.0660 C   0  0  0  0  0  0  0  0  0  0  0  0
   38.7940   30.2530   43.1180 H   0  0  0  0  0  0  0  0  0  0  0  0
   37.1120   29.0340   43.6800 N   0  0  0  0  0  0  0  0  0  0  0  0
   36.5450   29.6680   44.2880 H   0  0  0  0  0  0  0  0  0  0  0  0
   36.7050   27.8020   43.4380 N   0  0  0  0  0  0  0  0  0  0  0  0
   35.7230   27.7220   38.4290 C   0  0  0  0  0  0  0  0  0  0  0  0
   34.6140   27.7730   38.3350 H   0  0  0  0  0  0  0  0  0  0  0  0
   35.9930   27.4740   37.3840 H   0  0  0  0  0  0  0  0  0  0  0  0
   36.8800   29.8710   37.9800 C   0  0  0  0  0  0  0  0  0  0  0  0
   36.1380   29.0510   38.8570 C   0  0  0  0  0  0  0  0  0  0  0  0
   35.8280   29.5770   40.1040 C   0  0  0  0  0  0  0  0  0  0  0  0
   36.2400   30.8280   40.4220 N   0  0  0  0  0  0  0  0  0  0  0  0
   36.9370   31.5620   39.5580 C   0  0  0  0  0  0  0  0  0  0  0  0
   37.2700   31.1050   38.3300 N   0  0  0  0  0  0  0  0  0  0  0  0
   37.2250   29.6630   36.9850 H   0  0  0  0  0  0  0  0  0  0  0  0
   35.2660   28.9850   40.8000 H   0  0  0  0  0  0  0  0  0  0  0  0
   37.3410   32.9540   39.9710 C   0  0  0  0  0  0  0  0  0  0  0  0
   36.6990   33.2890   40.8150 H   0  0  0  0  0  0  0  0  0  0  0  0
   37.1700   33.6140   39.0900 H   0  0  0  0  0  0  0  0  0  0  0  0
   38.7340   33.0600   40.3670 C   0  0  0  0  0  0  0  0  0  0  0  0
   39.6480   33.9700   39.8650 C   0  0  0  0  0  0  0  0  0  0  0  0
   40.8580   33.7710   40.4720 C   0  0  0  0  0  0  0  0  0  0  0  0
   40.6400   32.7370   41.3320 N   0  0  0  0  0  0  0  0  0  0  0  0
   39.3800   32.3120   41.2730 N   0  0  0  0  0  0  0  0  0  0  0  0
   39.5000   34.7370   39.1170 H   0  0  0  0  0  0  0  0  0  0  0  0
   41.8380   34.2450   40.3880 H   0  0  0  0  0  0  0  0  0  0  0  0
   41.3570   32.3000   41.9820 H   0  0  0  0  0  0  0  0  0  0  0  0
  1  2  1  0  0  0  0
  3  1  1  0  0  0  0
  4 14  1  0  0  0  0
  5  1  1  0  0  0  0
  5  4  2  0  0  0  0
  6  5  1  0  0  0  0
  7  6  2  0  0  0  0
  7  8  1  0  0  0  0
  8  9  2  0  0  0  0
  9  4  1  0  0  0  0
  9 13  1  0  0  0  0
 10  6  1  0  0  0  0
 11  7  1  0  0  0  0
 12  8  1  0  0  0  0
 14 16  2  0  0  0  0
 14 17  1  0  0  0  0
 14 15  2  0  0  0  0
 17 24  2  0  0  0  0
 18 17  1  0  0  0  0
 18 20  2  0  0  0  0
 19 18  1  0  0  0  0
 20 21  1  0  0  0  0
 20 22  1  0  0  0  0
 22 23  1  0  0  0  0
 24 22  1  0  0  0  0
 25 29  1  0  0  0  0
 25  1  1  0  0  0  0
 26 25  1  0  0  0  0
 27 25  1  0  0  0  0
 28 33  2  0  0  0  0
 28 29  1  0  0  0  0
 29 30  2  0  0  0  0
 30 31  1  0  0  0  0
 30 35  1  0  0  0  0
 32 36  1  0  0  0  0
 32 31  2  0  0  0  0
 33 32  1  0  0  0  0
 34 28  1  0  0  0  0
 36 39  1  0  0  0  0
 36 37  1  0  0  0  0
 38 36  1  0  0  0  0
 39 43  2  0  0  0  0
 40 39  1  0  0  0  0
 40 41  2  0  0  0  0
 41 42  1  0  0  0  0
 42 46  1  0  0  0  0
 43 42  1  0  0  0  0
 44 40  1  0  0  0  0
 45 41  1  0  0  0  0
M  END
>  <minimizedAffinity>
-5.88812733

$$$$

 OpenBabel03242522443D

 46 49  0  0  0  0  0  0  0  0999 V2000
   41.0650   30.8990   41.6760 C   0  0  0  0  0  0  0  0  0  0  0  0
   41.6070   29.9530   41.8700 H   0  0  0  0  0  0  0  0  0  0  0  0
   40.5540   30.9600   40.6970 H   0  0  0  0  0  0  0  0  0  0  0  0
   41.9640   32.8840   40.5680 C   0  0  0  0  0  0  0  0  0  0  0  0
   42.0370   31.9970   41.6380 C   0  0  0  0  0  0  0  0  0  0  0  0
   42.9210   32.0750   42.6460 C   0  0  0  0  0  0  0  0  0  0  0  0
   43.8330   33.1030   42.6380 C   0  0  0  0  0  0  0  0  0  0  0  0
   43.8580   34.0390   41.6410 C   0  0  0  0  0  0  0  0  0  0  0  0
   42.9160   33.9070   40.6240 C   0  0  0  0  0  0  0  0  0  0  0  0
   43.0630   31.4850   43.5080 H   0  0  0  0  0  0  0  0  0  0  0  0
   44.6120   33.2940   43.3840 H   0  0  0  0  0  0  0  0  0  0  0  0
   44.5530   34.8820   41.5750 H   0  0  0  0  0  0  0  0  0  0  0  0
   42.9050   34.6310   39.8190 H   0  0  0  0  0  0  0  0  0  0  0  0
   40.8370   32.8360   39.2840 S   0  0  0  0  0  0  0  0  0  0  0  0
   40.8540   31.3810   38.6630 O   0  0  0  0  0  0  0  0  0  0  0  0
   41.2990   33.6760   38.1460 O   0  0  0  0  0  0  0  0  0  0  0  0
   39.1520   32.8610   39.6270 C   0  0  0  0  0  0  0  0  0  0  0  0
   38.3310   31.9470   38.9330 C   0  0  0  0  0  0  0  0  0  0  0  0
   38.5540   31.1990   38.1770 H   0  0  0  0  0  0  0  0  0  0  0  0
   37.0210   32.0800   39.3330 C   0  0  0  0  0  0  0  0  0  0  0  0
   36.1350   31.5640   39.0310 H   0  0  0  0  0  0  0  0  0  0  0  0
   37.0760   33.0640   40.2540 N   0  0  0  0  0  0  0  0  0  0  0  0
   36.2810   33.4640   40.8010 H   0  0  0  0  0  0  0  0  0  0  0  0
   38.3020   33.5190   40.4290 N   0  0  0  0  0  0  0  0  0  0  0  0
   39.9350   31.0290   42.6510 C   0  0  0  0  0  0  0  0  0  0  0  0
   39.2270   31.8600   42.4250 H   0  0  0  0  0  0  0  0  0  0  0  0
   40.2490   31.3170   43.6730 H   0  0  0  0  0  0  0  0  0  0  0  0
   39.7230   28.5720   42.9220 C   0  0  0  0  0  0  0  0  0  0  0  0
   39.1380   29.8110   42.5860 C   0  0  0  0  0  0  0  0  0  0  0  0
   37.8010   29.8000   42.2160 C   0  0  0  0  0  0  0  0  0  0  0  0
   37.1240   28.6260   42.1940 N   0  0  0  0  0  0  0  0  0  0  0  0
   37.7210   27.4830   42.5200 C   0  0  0  0  0  0  0  0  0  0  0  0
   39.0210   27.4300   42.8890 N   0  0  0  0  0  0  0  0  0  0  0  0
   40.7290   28.3560   43.2280 H   0  0  0  0  0  0  0  0  0  0  0  0
   37.3190   30.7220   41.9520 H   0  0  0  0  0  0  0  0  0  0  0  0
   36.9010   26.2190   42.4960 C   0  0  0  0  0  0  0  0  0  0  0  0
   35.8420   26.4710   42.2690 H   0  0  0  0  0  0  0  0  0  0  0  0
   36.9650   25.7730   43.5150 H   0  0  0  0  0  0  0  0  0  0  0  0
   37.3700   25.2420   41.5290 C   0  0  0  0  0  0  0  0  0  0  0  0
   37.9160   24.0070   41.8320 C   0  0  0  0  0  0  0  0  0  0  0  0
   38.2420   23.3650   40.6700 C   0  0  0  0  0  0  0  0  0  0  0  0
   37.8810   24.2370   39.6870 N   0  0  0  0  0  0  0  0  0  0  0  0
   37.3620   25.3520   40.1940 N   0  0  0  0  0  0  0  0  0  0  0  0
   38.0870   23.5610   42.8030 H   0  0  0  0  0  0  0  0  0  0  0  0
   38.6860   22.3950   40.4360 H   0  0  0  0  0  0  0  0  0  0  0  0
   37.9830   24.0800   38.6420 H   0  0  0  0  0  0  0  0  0  0  0  0
  1  2  1  0  0  0  0
  1 25  1  0  0  0  0
  3  1  1  0  0  0  0
  4  9  2  0  0  0  0
  4  5  1  0  0  0  0
  5  1  1  0  0  0  0
  5  6  2  0  0  0  0
  6 10  1  0  0  0  0
  7  6  1  0  0  0  0
  7 11  1  0  0  0  0
  8  7  2  0  0  0  0
  9  8  1  0  0  0  0
 12  8  1  0  0  0  0
 13  9  1  0  0  0  0
 14 17  1  0  0  0  0
 14  4  1  0  0  0  0
 15 14  2  0  0  0  0
 16 14  2  0  0  0  0
 17 24  2  0  0  0  0
 18 20  2  0  0  0  0
 18 17  1  0  0  0  0
 19 18  1  0  0  0  0
 20 22  1  0  0  0  0
 21 20  1  0  0  0  0
 22 24  1  0  0  0  0
 22 23  1  0  0  0  0
 25 27  1  0  0  0  0
 26 25  1  0  0  0  0
 28 34  1  0  0  0  0
 29 25  1  0  0  0  0
 29 28  2  0  0  0  0
 30 29  1  0  0  0  0
 31 30  2  0  0  0  0
 31 32  1  0  0  0  0
 32 33  2  0  0  0  0
 33 28  1  0  0  0  0
 35 30  1  0  0  0  0
 36 32  1  0  0  0  0
 36 38  1  0  0  0  0
 37 36  1  0  0  0  0
 39 40  1  0  0  0  0
 39 36  1  0  0  0  0
 40 44  1  0  0  0  0
 41 40  2  0  0  0  0
 42 43  1  0  0  0  0
 42 41  1  0  0  0  0
 43 39  2  0  0  0  0
 45 41  1  0  0  0  0
 46 42  1  0  0  0  0
M  END
>  <minimizedAffinity>
-5.86737967

$$$$

 OpenBabel03242522443D

 46 49  0  0  0  0  0  0  0  0999 V2000
   36.3930   29.5070   41.1620 C   0  0  0  0  0  0  0  0  0  0  0  0
   37.3920   29.4990   41.6370 H   0  0  0  0  0  0  0  0  0  0  0  0
   35.5390   29.3700   41.8520 H   0  0  0  0  0  0  0  0  0  0  0  0
   36.7470   27.1300   40.7110 C   0  0  0  0  0  0  0  0  0  0  0  0
   36.2970   28.3630   40.2480 C   0  0  0  0  0  0  0  0  0  0  0  0
   35.7720   28.5860   39.0320 C   0  0  0  0  0  0  0  0  0  0  0  0
   35.6620   27.5270   38.1630 C   0  0  0  0  0  0  0  0  0  0  0  0
   36.0670   26.2660   38.5060 C   0  0  0  0  0  0  0  0  0  0  0  0
   36.6020   26.0970   39.7800 C   0  0  0  0  0  0  0  0  0  0  0  0
   35.3860   29.4550   38.5780 H   0  0  0  0  0  0  0  0  0  0  0  0
   35.2610   27.5540   37.1450 H   0  0  0  0  0  0  0  0  0  0  0  0
   36.0050   25.3800   37.8650 H   0  0  0  0  0  0  0  0  0  0  0  0
   36.9320   25.1120   40.0870 H   0  0  0  0  0  0  0  0  0  0  0  0
   37.3930   26.8010   42.2590 S   0  0  0  0  0  0  0  0  0  0  0  0
   37.6240   25.2400   42.3770 O   0  0  0  0  0  0  0  0  0  0  0  0
   36.3790   27.0560   43.3180 O   0  0  0  0  0  0  0  0  0  0  0  0
   39.0150   27.2460   42.6190 C   0  0  0  0  0  0  0  0  0  0  0  0
   39.7520   27.8970   41.6080 C   0  0  0  0  0  0  0  0  0  0  0  0
   39.4980   28.1810   40.5900 H   0  0  0  0  0  0  0  0  0  0  0  0
   41.0170   28.2020   42.0580 C   0  0  0  0  0  0  0  0  0  0  0  0
   41.8380   28.6880   41.5780 H   0  0  0  0  0  0  0  0  0  0  0  0
   41.0170   27.7320   43.3220 N   0  0  0  0  0  0  0  0  0  0  0  0
   41.8030   27.7700   44.0110 H   0  0  0  0  0  0  0  0  0  0  0  0
   39.8660   27.1790   43.6530 N   0  0  0  0  0  0  0  0  0  0  0  0
   36.1350   30.8620   40.5770 C   0  0  0  0  0  0  0  0  0  0  0  0
   35.5060   31.5250   41.2150 H   0  0  0  0  0  0  0  0  0  0  0  0
   35.5250   30.8490   39.6530 H   0  0  0  0  0  0  0  0  0  0  0  0
   38.4640   31.2530   41.3380 C   0  0  0  0  0  0  0  0  0  0  0  0
   37.4130   31.5490   40.4440 C   0  0  0  0  0  0  0  0  0  0  0  0
   37.6670   32.4920   39.4590 C   0  0  0  0  0  0  0  0  0  0  0  0
   38.8880   33.0770   39.3940 N   0  0  0  0  0  0  0  0  0  0  0  0
   39.8470   32.7630   40.2600 C   0  0  0  0  0  0  0  0  0  0  0  0
   39.6600   31.8520   41.2420 N   0  0  0  0  0  0  0  0  0  0  0  0
   38.4800   30.5670   42.1640 H   0  0  0  0  0  0  0  0  0  0  0  0
   36.8930   32.7460   38.7600 H   0  0  0  0  0  0  0  0  0  0  0  0
   41.1880   33.4360   40.1140 C   0  0  0  0  0  0  0  0  0  0  0  0
   41.8780   33.0560   40.8980 H   0  0  0  0  0  0  0  0  0  0  0  0
   41.0200   34.5260   40.2650 H   0  0  0  0  0  0  0  0  0  0  0  0
   41.7980   33.2340   38.8120 C   0  0  0  0  0  0  0  0  0  0  0  0
   42.2550   32.0260   38.3150 C   0  0  0  0  0  0  0  0  0  0  0  0
   42.7670   32.2220   37.0620 C   0  0  0  0  0  0  0  0  0  0  0  0
   42.6030   33.5550   36.8330 N   0  0  0  0  0  0  0  0  0  0  0  0
   42.0280   34.1590   37.8690 N   0  0  0  0  0  0  0  0  0  0  0  0
   42.2430   31.0510   38.7840 H   0  0  0  0  0  0  0  0  0  0  0  0
   43.2230   31.5680   36.3150 H   0  0  0  0  0  0  0  0  0  0  0  0
   42.8840   34.0790   35.9540 H   0  0  0  0  0  0  0  0  0  0  0  0
  1  2  1  0  0  0  0
  1  3  1  0  0  0  0
  4 14  1  0  0  0  0
  5  4  1  0  0  0  0
  5  1  1  0  0  0  0
  6  5  2  0  0  0  0
  7  8  2  0  0  0  0
  7  6  1  0  0  0  0
  8  9  1  0  0  0  0
  9 13  1  0  0  0  0
  9  4  2  0  0  0  0
 10  6  1  0  0  0  0
 11  7  1  0  0  0  0
 12  8  1  0  0  0  0
 14 15  2  0  0  0  0
 14 17  1  0  0  0  0
 14 16  2  0  0  0  0
 17 24  2  0  0  0  0
 18 20  2  0  0  0  0
 18 17  1  0  0  0  0
 19 18  1  0  0  0  0
 20 22  1  0  0  0  0
 21 20  1  0  0  0  0
 22 24  1  0  0  0  0
 22 23  1  0  0  0  0
 25  1  1  0  0  0  0
 25 26  1  0  0  0  0
 27 25  1  0  0  0  0
 28 34  1  0  0  0  0
 29 25  1  0  0  0  0
 29 28  2  0  0  0  0
 30 29  1  0  0  0  0
 31 30  2  0  0  0  0
 31 32  1  0  0  0  0
 32 33  2  0  0  0  0
 33 28  1  0  0  0  0
 35 30  1  0  0  0  0
 36 32  1  0  0  0  0
 36 38  1  0  0  0  0
 36 37  1  0  0  0  0
 39 36  1  0  0  0  0
 40 44  1  0  0  0  0
 40 39  1  0  0  0  0
 41 40  2  0  0  0  0
 42 41  1  0  0  0  0
 42 43  1  0  0  0  0
 43 39  2  0  0  0  0
 45 41  1  0  0  0  0
 46 42  1  0  0  0  0
M  END
>  <minimizedAffinity>
-5.74425936

$$$$

 OpenBabel03242522443D

 46 49  0  0  0  0  0  0  0  0999 V2000
   36.9280   28.8760   41.4620 C   0  0  0  0  0  0  0  0  0  0  0  0
   35.9600   29.1980   41.8910 H   0  0  0  0  0  0  0  0  0  0  0  0
   37.1610   29.2820   40.4590 H   0  0  0  0  0  0  0  0  0  0  0  0
   36.5690   26.9620   39.9840 C   0  0  0  0  0  0  0  0  0  0  0  0
   36.8900   27.4240   41.2570 C   0  0  0  0  0  0  0  0  0  0  0  0
   37.1790   26.6430   42.3110 C   0  0  0  0  0  0  0  0  0  0  0  0
   37.1620   25.2800   42.1400 C   0  0  0  0  0  0  0  0  0  0  0  0
   36.8650   24.7070   40.9330 C   0  0  0  0  0  0  0  0  0  0  0  0
   36.5750   25.5670   39.8770 C   0  0  0  0  0  0  0  0  0  0  0  0
   37.4510   26.8700   43.3040 H   0  0  0  0  0  0  0  0  0  0  0  0
   37.3720   24.5210   42.9010 H   0  0  0  0  0  0  0  0  0  0  0  0
   36.8360   23.6320   40.7280 H   0  0  0  0  0  0  0  0  0  0  0  0
   36.3360   25.1490   38.9070 H   0  0  0  0  0  0  0  0  0  0  0  0
   36.2250   27.9200   38.6120 S   0  0  0  0  0  0  0  0  0  0  0  0
   35.0510   28.9140   38.9830 O   0  0  0  0  0  0  0  0  0  0  0  0
   35.6180   27.0960   37.5320 O   0  0  0  0  0  0  0  0  0  0  0  0
   37.3370   29.1380   38.1220 C   0  0  0  0  0  0  0  0  0  0  0  0
   36.8130   30.2810   37.4820 C   0  0  0  0  0  0  0  0  0  0  0  0
   35.7980   30.5610   37.2090 H   0  0  0  0  0  0  0  0  0  0  0  0
   37.8230   31.1630   37.1730 C   0  0  0  0  0  0  0  0  0  0  0  0
   37.8030   32.1180   36.6940 H   0  0  0  0  0  0  0  0  0  0  0  0
   38.9280   30.5400   37.6290 N   0  0  0  0  0  0  0  0  0  0  0  0
   39.9140   30.8860   37.5850 H   0  0  0  0  0  0  0  0  0  0  0  0
   38.6560   29.3710   38.1780 N   0  0  0  0  0  0  0  0  0  0  0  0
   38.0440   29.4100   42.3050 C   0  0  0  0  0  0  0  0  0  0  0  0
   38.8940   28.7020   42.4450 H   0  0  0  0  0  0  0  0  0  0  0  0
   37.7690   29.5900   43.3620 H   0  0  0  0  0  0  0  0  0  0  0  0
   37.7620   31.4690   40.9500 C   0  0  0  0  0  0  0  0  0  0  0  0
   38.6120   30.5680   41.6260 C   0  0  0  0  0  0  0  0  0  0  0  0
   39.9700   30.8490   41.6150 C   0  0  0  0  0  0  0  0  0  0  0  0
   40.4180   31.9550   40.9710 N   0  0  0  0  0  0  0  0  0  0  0  0
   39.5760   32.7750   40.3490 C   0  0  0  0  0  0  0  0  0  0  0  0
   38.2420   32.5540   40.3240 N   0  0  0  0  0  0  0  0  0  0  0  0
   36.6960   31.4400   40.8330 H   0  0  0  0  0  0  0  0  0  0  0  0
   40.6500   30.1870   42.1170 H   0  0  0  0  0  0  0  0  0  0  0  0
   40.1410   33.9980   39.6740 C   0  0  0  0  0  0  0  0  0  0  0  0
   40.5930   34.6660   40.4400 H   0  0  0  0  0  0  0  0  0  0  0  0
   39.2880   34.5210   39.1850 H   0  0  0  0  0  0  0  0  0  0  0  0
   41.1410   33.6940   38.6650 C   0  0  0  0  0  0  0  0  0  0  0  0
   42.4440   34.1590   38.6560 C   0  0  0  0  0  0  0  0  0  0  0  0
   43.0880   33.6660   37.5560 C   0  0  0  0  0  0  0  0  0  0  0  0
   42.1480   32.9090   36.9230 N   0  0  0  0  0  0  0  0  0  0  0  0
   40.9910   32.9220   37.5800 N   0  0  0  0  0  0  0  0  0  0  0  0
   42.9370   34.8080   39.3680 H   0  0  0  0  0  0  0  0  0  0  0  0
   44.0990   33.7690   37.1560 H   0  0  0  0  0  0  0  0  0  0  0  0
   42.2850   32.3630   36.0230 H   0  0  0  0  0  0  0  0  0  0  0  0
  1  2  1  0  0  0  0
  1 25  1  0  0  0  0
  3  1  1  0  0  0  0
  4  5  1  0  0  0  0
  5  1  1  0  0  0  0
  5  6  2  0  0  0  0
  6 10  1  0  0  0  0
  7  6  1  0  0  0  0
  7 11  1  0  0  0  0
  8  7  2  0  0  0  0
  9  4  2  0  0  0  0
  9  8  1  0  0  0  0
 12  8  1  0  0  0  0
 13  9  1  0  0  0  0
 14 15  2  0  0  0  0
 14  4  1  0  0  0  0
 16 14  2  0  0  0  0
 17 24  2  0  0  0  0
 17 14  1  0  0  0  0
 18 17  1  0  0  0  0
 19 18  1  0  0  0  0
 20 18  2  0  0  0  0
 20 22  1  0  0  0  0
 21 20  1  0  0  0  0
 22 24  1  0  0  0  0
 23 22  1  0  0  0  0
 25 26  1  0  0  0  0
 25 27  1  0  0  0  0
 28 29  1  0  0  0  0
 29 25  1  0  0  0  0
 30 29  2  0  0  0  0
 30 35  1  0  0  0  0
 31 30  1  0  0  0  0
 32 31  2  0  0  0  0
 33 32  1  0  0  0  0
 33 28  2  0  0  0  0
 34 28  1  0  0  0  0
 36 32  1  0  0  0  0
 36 37  1  0  0  0  0
 38 36  1  0  0  0  0
 39 36  1  0  0  0  0
 40 39  1  0  0  0  0
 40 44  1  0  0  0  0
 41 40  2  0  0  0  0
 42 41  1  0  0  0  0
 42 43  1  0  0  0  0
 43 39  2  0  0  0  0
 45 41  1  0  0  0  0
 46 42  1  0  0  0  0
M  END
>  <minimizedAffinity>
-5.72870255

$$$$

 OpenBabel03242522443D

 46 49  0  0  0  0  0  0  0  0999 V2000
   36.5290   27.0850   38.7280 C   0  0  0  0  0  0  0  0  0  0  0  0
   36.4500   26.5270   37.7750 H   0  0  0  0  0  0  0  0  0  0  0  0
   37.4190   27.7350   38.8240 H   0  0  0  0  0  0  0  0  0  0  0  0
   36.3370   24.7980   39.5690 C   0  0  0  0  0  0  0  0  0  0  0  0
   36.6720   26.1240   39.8260 C   0  0  0  0  0  0  0  0  0  0  0  0
   37.1260   26.5910   41.0010 C   0  0  0  0  0  0  0  0  0  0  0  0
   37.2790   25.7060   42.0420 C   0  0  0  0  0  0  0  0  0  0  0  0
   36.9870   24.3760   41.9080 C   0  0  0  0  0  0  0  0  0  0  0  0
   36.5200   23.9510   40.6670 C   0  0  0  0  0  0  0  0  0  0  0  0
   37.4260   27.5520   41.3100 H   0  0  0  0  0  0  0  0  0  0  0  0
   37.6340   25.9370   43.0510 H   0  0  0  0  0  0  0  0  0  0  0  0
   37.0880   23.6190   42.6930 H   0  0  0  0  0  0  0  0  0  0  0  0
   36.2790   22.9050   40.5240 H   0  0  0  0  0  0  0  0  0  0  0  0
   35.7840   24.1600   38.0830 S   0  0  0  0  0  0  0  0  0  0  0  0
   35.5780   22.6010   38.2580 O   0  0  0  0  0  0  0  0  0  0  0  0
   36.8540   24.2280   37.0500 O   0  0  0  0  0  0  0  0  0  0  0  0
   34.1810   24.4910   37.5560 C   0  0  0  0  0  0  0  0  0  0  0  0
   33.1800   23.5520   37.8810 C   0  0  0  0  0  0  0  0  0  0  0  0
   33.2170   22.6050   38.4140 H   0  0  0  0  0  0  0  0  0  0  0  0
   31.9570   23.9710   37.4080 C   0  0  0  0  0  0  0  0  0  0  0  0
   30.9880   23.5250   37.4660 H   0  0  0  0  0  0  0  0  0  0  0  0
   32.2420   25.1460   36.8110 N   0  0  0  0  0  0  0  0  0  0  0  0
   31.5750   25.7880   36.3250 H   0  0  0  0  0  0  0  0  0  0  0  0
   33.5230   25.4530   36.8930 N   0  0  0  0  0  0  0  0  0  0  0  0
   35.3940   28.0580   38.8250 C   0  0  0  0  0  0  0  0  0  0  0  0
   34.6730   27.8420   39.6470 H   0  0  0  0  0  0  0  0  0  0  0  0
   34.7080   28.0430   37.9570 H   0  0  0  0  0  0  0  0  0  0  0  0
   36.6600   30.0790   38.1400 C   0  0  0  0  0  0  0  0  0  0  0  0
   35.9480   29.3710   39.1310 C   0  0  0  0  0  0  0  0  0  0  0  0
   35.8020   29.9860   40.3660 C   0  0  0  0  0  0  0  0  0  0  0  0
   36.3360   31.2160   40.5670 N   0  0  0  0  0  0  0  0  0  0  0  0
   36.9980   31.8430   39.5990 C   0  0  0  0  0  0  0  0  0  0  0  0
   37.1740   31.2960   38.3750 N   0  0  0  0  0  0  0  0  0  0  0  0
   36.8890   29.7910   37.1310 H   0  0  0  0  0  0  0  0  0  0  0  0
   35.2680   29.4800   41.1470 H   0  0  0  0  0  0  0  0  0  0  0  0
   37.5440   33.2180   39.8860 C   0  0  0  0  0  0  0  0  0  0  0  0
   36.9300   33.7010   40.6770 H   0  0  0  0  0  0  0  0  0  0  0  0
   37.4580   33.8030   38.9420 H   0  0  0  0  0  0  0  0  0  0  0  0
   38.9340   33.2140   40.3050 C   0  0  0  0  0  0  0  0  0  0  0  0
   39.9260   34.0490   39.8190 C   0  0  0  0  0  0  0  0  0  0  0  0
   41.1050   33.7550   40.4450 C   0  0  0  0  0  0  0  0  0  0  0  0
   40.7920   32.7420   41.3010 N   0  0  0  0  0  0  0  0  0  0  0  0
   39.5050   32.4180   41.2210 N   0  0  0  0  0  0  0  0  0  0  0  0
   39.8510   34.8250   39.0690 H   0  0  0  0  0  0  0  0  0  0  0  0
   42.1210   34.1500   40.3780 H   0  0  0  0  0  0  0  0  0  0  0  0
   41.4620   32.2510   41.9620 H   0  0  0  0  0  0  0  0  0  0  0  0
  1  3  1  0  0  0  0
  1 25  1  0  0  0  0
  1  5  1  0  0  0  0
  2  1  1  0  0  0  0
  4  5  2  0  0  0  0
  4  9  1  0  0  0  0
  5  6  1  0  0  0  0
  6 10  1  0  0  0  0
  6  7  2  0  0  0  0
  7 11  1  0  0  0  0
  8  7  1  0  0  0  0
  8 12  1  0  0  0  0
  9  8  2  0  0  0  0
 13  9  1  0  0  0  0
 14 15  2  0  0  0  0
 14  4  1  0  0  0  0
 16 14  2  0  0  0  0
 17 18  1  0  0  0  0
 17 14  1  0  0  0  0
 18 19  1  0  0  0  0
 20 21  1  0  0  0  0
 20 18  2  0  0  0  0
 22 24  1  0  0  0  0
 22 20  1  0  0  0  0
 23 22  1  0  0  0  0
 24 17  2  0  0  0  0
 25 29  1  0  0  0  0
 25 26  1  0  0  0  0
 27 25  1  0  0  0  0
 28 33  2  0  0  0  0
 28 29  1  0  0  0  0
 29 30  2  0  0  0  0
 30 31  1  0  0  0  0
 30 35  1  0  0  0  0
 32 36  1  0  0  0  0
 32 31  2  0  0  0  0
 33 32  1  0  0  0  0
 34 28  1  0  0  0  0
 36 39  1  0  0  0  0
 36 37  1  0  0  0  0
 38 36  1  0  0  0  0
 39 43  2  0  0  0  0
 40 39  1  0  0  0  0
 40 41  2  0  0  0  0
 41 42  1  0  0  0  0
 42 46  1  0  0  0  0
 43 42  1  0  0  0  0
 44 40  1  0  0  0  0
 45 41  1  0  0  0  0
M  END
>  <minimizedAffinity>
-5.71244287

$$$$
