
 OpenBabel03242518483D

 44 47  0  0  1  0  0  0  0  0999 V2000
   39.3620   30.8300   39.7650 C   0  0  2  0  0  0  0  0  0  0  0  0
   39.1000   32.1290   39.0940 C   0  0  1  0  0  0  0  0  0  0  0  0
   38.0190   32.9360   39.8120 C   0  0  0  0  0  0  0  0  0  0  0  0
   36.9300   32.0630   39.8830 O   0  0  0  0  0  0  0  0  0  0  0  0
   37.1370   31.0710   40.8160 C   0  0  0  0  0  0  0  0  0  0  0  0
   38.5780   30.7720   41.0870 C   0  0  1  0  0  0  0  0  0  0  0  0
   38.9630   30.0080   39.1420 H   0  0  0  0  0  0  0  0  0  0  0  0
   38.7250   31.9720   38.0430 H   0  0  0  0  0  0  0  0  0  0  0  0
   37.7480   33.8330   39.2630 H   0  0  0  0  0  0  0  0  0  0  0  0
   38.3600   33.2470   40.8200 H   0  0  0  0  0  0  0  0  0  0  0  0
   36.6030   30.1350   40.5680 H   0  0  0  0  0  0  0  0  0  0  0  0
   36.6850   31.4450   41.7790 H   0  0  0  0  0  0  0  0  0  0  0  0
   39.0860   31.5410   41.7120 H   0  0  0  0  0  0  0  0  0  0  0  0
   41.9820   33.9100   37.7140 C   0  0  0  0  0  0  0  0  0  0  0  0
   42.4440   34.7230   38.7930 C   0  0  0  0  0  0  0  0  0  0  0  0
   41.6980   34.6110   40.0060 C   0  0  0  0  0  0  0  0  0  0  0  0
   40.6390   33.7710   40.0550 N   0  0  0  0  0  0  0  0  0  0  0  0
   40.2600   33.0330   38.9920 C   0  0  0  0  0  0  0  0  0  0  0  0
   40.9330   33.1010   37.8180 N   0  0  0  0  0  0  0  0  0  0  0  0
   43.2970   35.3690   38.6780 H   0  0  0  0  0  0  0  0  0  0  0  0
   42.0270   35.2100   40.8220 H   0  0  0  0  0  0  0  0  0  0  0  0
   42.6930   34.0220   36.5720 O   0  0  0  0  0  0  0  0  0  0  0  0
   43.6330   33.7550   36.3710 H   0  0  0  0  0  0  0  0  0  0  0  0
   40.7150   30.6110   40.0590 O   0  0  0  0  0  0  0  0  0  0  0  0
   41.0070   29.7380   39.7220 H   0  0  0  0  0  0  0  0  0  0  0  0
   38.7950   29.5250   41.6260 O   0  0  0  0  0  0  0  0  0  0  0  0
   38.7790   27.0840   40.4800 F   0  0  0  0  0  0  0  0  0  0  0  0
   38.1180   27.4020   41.6110 C   0  0  0  0  0  0  0  0  0  0  0  0
   38.0800   28.6170   42.2650 C   0  0  0  0  0  0  0  0  0  0  0  0
   37.3260   28.6480   43.4250 C   0  0  0  0  0  0  0  0  0  0  0  0
   36.6280   27.5950   43.9690 C   0  0  0  0  0  0  0  0  0  0  0  0
   36.6970   26.4090   43.2780 C   0  0  0  0  0  0  0  0  0  0  0  0
   37.4380   26.2910   42.0950 C   0  0  0  0  0  0  0  0  0  0  0  0
   37.3440   29.6490   43.8920 H   0  0  0  0  0  0  0  0  0  0  0  0
   36.0740   27.7090   44.8660 H   0  0  0  0  0  0  0  0  0  0  0  0
   36.1390   25.5960   43.7270 H   0  0  0  0  0  0  0  0  0  0  0  0
   37.4210   24.9740   41.4710 C   0  0  0  0  0  0  0  0  0  0  0  0
   36.6140   24.4100   40.5100 C   0  0  0  0  0  0  0  0  0  0  0  0
   35.7910   24.9020   40.0230 H   0  0  0  0  0  0  0  0  0  0  0  0
   36.9770   23.1120   40.2250 C   0  0  0  0  0  0  0  0  0  0  0  0
   36.5270   22.4270   39.5190 H   0  0  0  0  0  0  0  0  0  0  0  0
   38.0240   22.9150   41.0450 N   0  0  0  0  0  0  0  0  0  0  0  0
   38.5970   22.0430   41.1380 H   0  0  0  0  0  0  0  0  0  0  0  0
   38.2820   23.9910   41.7650 N   0  0  0  0  0  0  0  0  0  0  0  0
  1  7  1  6  0  0  0
  1 24  1  0  0  0  0
  1  6  1  0  0  0  0
  2  8  1  6  0  0  0
  2  1  1  0  0  0  0
  2  3  1  0  0  0  0
  3  4  1  0  0  0  0
  3 10  1  0  0  0  0
  4  5  1  0  0  0  0
  5  6  1  0  0  0  0
  5 12  1  0  0  0  0
  6 26  1  0  0  0  0
  6 13  1  1  0  0  0
  9  3  1  0  0  0  0
 11  5  1  0  0  0  0
 14 19  2  0  0  0  0
 14 15  1  0  0  0  0
 15 16  2  0  0  0  0
 16 17  1  0  0  0  0
 16 21  1  0  0  0  0
 18  2  1  0  0  0  0
 18 17  2  0  0  0  0
 19 18  1  0  0  0  0
 20 15  1  0  0  0  0
 22 14  1  0  0  0  0
 23 22  1  0  0  0  0
 25 24  1  0  0  0  0
 26 29  1  0  0  0  0
 27 28  1  0  0  0  0
 28 33  2  0  0  0  0
 28 29  1  0  0  0  0
 29 30  2  0  0  0  0
 30 34  1  0  0  0  0
 30 31  1  0  0  0  0
 31 35  1  0  0  0  0
 32 36  1  0  0  0  0
 32 31  2  0  0  0  0
 33 32  1  0  0  0  0
 37 44  2  0  0  0  0
 37 33  1  0  0  0  0
 38 37  1  0  0  0  0
 39 38  1  0  0  0  0
 40 38  2  0  0  0  0
 40 42  1  0  0  0  0
 41 40  1  0  0  0  0
 42 43  1  0  0  0  0
 42 44  1  0  0  0  0
M  END
>  <minimizedAffinity>
-6.91448689

$$$$

 OpenBabel03242518483D

 44 47  0  0  1  0  0  0  0  0999 V2000
   39.2410   31.0620   39.3630 C   0  0  2  0  0  0  0  0  0  0  0  0
   39.2410   32.5140   39.0520 C   0  0  1  0  0  0  0  0  0  0  0  0
   38.4410   33.3180   40.0770 C   0  0  0  0  0  0  0  0  0  0  0  0
   37.1850   32.7030   40.0890 O   0  0  0  0  0  0  0  0  0  0  0  0
   37.2250   31.4850   40.7300 C   0  0  0  0  0  0  0  0  0  0  0  0
   38.5710   30.8330   40.7290 C   0  0  1  0  0  0  0  0  0  0  0  0
   38.6110   30.5290   38.6260 H   0  0  0  0  0  0  0  0  0  0  0  0
   38.7580   32.7140   38.0540 H   0  0  0  0  0  0  0  0  0  0  0  0
   38.3470   34.3610   39.7920 H   0  0  0  0  0  0  0  0  0  0  0  0
   38.9230   33.2820   41.0740 H   0  0  0  0  0  0  0  0  0  0  0  0
   36.4670   30.7770   40.3460 H   0  0  0  0  0  0  0  0  0  0  0  0
   36.9500   31.6860   41.8060 H   0  0  0  0  0  0  0  0  0  0  0  0
   39.2940   31.2910   41.4410 H   0  0  0  0  0  0  0  0  0  0  0  0
   42.3020   34.0350   37.7490 C   0  0  0  0  0  0  0  0  0  0  0  0
   43.0680   34.3410   38.9140 C   0  0  0  0  0  0  0  0  0  0  0  0
   42.4570   33.9890   40.1570 C   0  0  0  0  0  0  0  0  0  0  0  0
   41.2360   33.4090   40.1510 N   0  0  0  0  0  0  0  0  0  0  0  0
   40.5690   33.1500   39.0080 C   0  0  0  0  0  0  0  0  0  0  0  0
   41.1040   33.4630   37.8020 N   0  0  0  0  0  0  0  0  0  0  0  0
   44.0360   34.8040   38.8380 H   0  0  0  0  0  0  0  0  0  0  0  0
   43.0130   34.2100   41.0370 H   0  0  0  0  0  0  0  0  0  0  0  0
   42.8860   34.3700   36.5780 O   0  0  0  0  0  0  0  0  0  0  0  0
   43.7030   34.0010   36.1390 H   0  0  0  0  0  0  0  0  0  0  0  0
   40.5220   30.4960   39.4140 O   0  0  0  0  0  0  0  0  0  0  0  0
   40.5730   29.6980   38.8470 H   0  0  0  0  0  0  0  0  0  0  0  0
   38.5300   29.4720   40.9300 O   0  0  0  0  0  0  0  0  0  0  0  0
   40.8810   28.2410   41.4090 F   0  0  0  0  0  0  0  0  0  0  0  0
   39.7620   28.0610   42.1380 C   0  0  0  0  0  0  0  0  0  0  0  0
   38.5270   28.6550   41.9670 C   0  0  0  0  0  0  0  0  0  0  0  0
   37.5570   28.2920   42.8860 C   0  0  0  0  0  0  0  0  0  0  0  0
   37.7160   27.4110   43.9300 C   0  0  0  0  0  0  0  0  0  0  0  0
   38.9630   26.8470   44.0550 C   0  0  0  0  0  0  0  0  0  0  0  0
   40.0020   27.1600   43.1680 C   0  0  0  0  0  0  0  0  0  0  0  0
   36.6000   28.8050   42.6860 H   0  0  0  0  0  0  0  0  0  0  0  0
   36.9150   27.1900   44.5880 H   0  0  0  0  0  0  0  0  0  0  0  0
   39.0610   26.1570   44.8850 H   0  0  0  0  0  0  0  0  0  0  0  0
   41.2690   26.4870   43.4220 C   0  0  0  0  0  0  0  0  0  0  0  0
   42.4270   26.8880   44.0490 C   0  0  0  0  0  0  0  0  0  0  0  0
   42.5900   27.8550   44.4920 H   0  0  0  0  0  0  0  0  0  0  0  0
   43.3840   25.8980   44.0530 C   0  0  0  0  0  0  0  0  0  0  0  0
   44.3820   25.9290   44.4700 H   0  0  0  0  0  0  0  0  0  0  0  0
   42.7670   24.8930   43.4090 N   0  0  0  0  0  0  0  0  0  0  0  0
   43.1580   23.9440   43.1990 H   0  0  0  0  0  0  0  0  0  0  0  0
   41.5450   25.2310   43.0440 N   0  0  0  0  0  0  0  0  0  0  0  0
  1  7  1  6  0  0  0
  1 24  1  0  0  0  0
  1  6  1  0  0  0  0
  2  8  1  6  0  0  0
  2  1  1  0  0  0  0
  2  3  1  0  0  0  0
  3  4  1  0  0  0  0
  3 10  1  0  0  0  0
  4  5  1  0  0  0  0
  5 12  1  0  0  0  0
  6  5  1  0  0  0  0
  6 26  1  0  0  0  0
  6 13  1  1  0  0  0
  9  3  1  0  0  0  0
 11  5  1  0  0  0  0
 14 19  2  0  0  0  0
 14 15  1  0  0  0  0
 15 16  2  0  0  0  0
 16 21  1  0  0  0  0
 17 16  1  0  0  0  0
 18  2  1  0  0  0  0
 18 17  2  0  0  0  0
 19 18  1  0  0  0  0
 20 15  1  0  0  0  0
 22 14  1  0  0  0  0
 23 22  1  0  0  0  0
 25 24  1  0  0  0  0
 26 29  1  0  0  0  0
 27 28  1  0  0  0  0
 28 33  1  0  0  0  0
 29 28  2  0  0  0  0
 29 30  1  0  0  0  0
 30 31  2  0  0  0  0
 31 32  1  0  0  0  0
 31 35  1  0  0  0  0
 32 36  1  0  0  0  0
 33 37  1  0  0  0  0
 33 32  2  0  0  0  0
 34 30  1  0  0  0  0
 37 38  1  0  0  0  0
 38 40  2  0  0  0  0
 38 39  1  0  0  0  0
 40 41  1  0  0  0  0
 42 40  1  0  0  0  0
 43 42  1  0  0  0  0
 44 42  1  0  0  0  0
 44 37  2  0  0  0  0
M  END
>  <minimizedAffinity>
-6.89007378

$$$$

 OpenBabel03242518483D

 44 47  0  0  1  0  0  0  0  0999 V2000
   38.4750   29.3020   41.5070 C   0  0  2  0  0  0  0  0  0  0  0  0
   37.7170   28.3130   42.3140 C   0  0  1  0  0  0  0  0  0  0  0  0
   36.4450   27.8490   41.6040 C   0  0  0  0  0  0  0  0  0  0  0  0
   35.7660   29.0350   41.3090 O   0  0  0  0  0  0  0  0  0  0  0  0
   36.3710   29.7200   40.2780 C   0  0  0  0  0  0  0  0  0  0  0  0
   37.8290   29.4270   40.1160 C   0  0  1  0  0  0  0  0  0  0  0  0
   38.3860   30.3010   41.9710 H   0  0  0  0  0  0  0  0  0  0  0  0
   37.3810   28.7620   43.2910 H   0  0  0  0  0  0  0  0  0  0  0  0
   35.8340   27.2130   42.2370 H   0  0  0  0  0  0  0  0  0  0  0  0
   36.6890   27.2780   40.6860 H   0  0  0  0  0  0  0  0  0  0  0  0
   36.2160   30.8130   40.3450 H   0  0  0  0  0  0  0  0  0  0  0  0
   35.8540   29.3860   39.3320 H   0  0  0  0  0  0  0  0  0  0  0  0
   38.0400   28.4370   39.6530 H   0  0  0  0  0  0  0  0  0  0  0  0
   38.6800   24.7850   42.4170 C   0  0  0  0  0  0  0  0  0  0  0  0
   39.8130   24.7540   43.2860 C   0  0  0  0  0  0  0  0  0  0  0  0
   40.2080   26.0180   43.8200 C   0  0  0  0  0  0  0  0  0  0  0  0
   39.5100   27.1260   43.4820 N   0  0  0  0  0  0  0  0  0  0  0  0
   38.4480   27.0790   42.6520 C   0  0  0  0  0  0  0  0  0  0  0  0
   38.0300   25.9050   42.1180 N   0  0  0  0  0  0  0  0  0  0  0  0
   40.3180   23.8300   43.5080 H   0  0  0  0  0  0  0  0  0  0  0  0
   41.0510   26.0150   44.4690 H   0  0  0  0  0  0  0  0  0  0  0  0
   38.3120   23.5860   41.9160 O   0  0  0  0  0  0  0  0  0  0  0  0
   37.9370   22.7850   42.3770 H   0  0  0  0  0  0  0  0  0  0  0  0
   39.8230   28.9640   41.3230 O   0  0  0  0  0  0  0  0  0  0  0  0
   40.4060   29.7140   41.5690 H   0  0  0  0  0  0  0  0  0  0  0  0
   38.5210   30.4060   39.4410 O   0  0  0  0  0  0  0  0  0  0  0  0
   40.8860   31.1470   38.3760 F   0  0  0  0  0  0  0  0  0  0  0  0
   40.0780   31.9610   39.0850 C   0  0  0  0  0  0  0  0  0  0  0  0
   38.8560   31.6660   39.6540 C   0  0  0  0  0  0  0  0  0  0  0  0
   38.2360   32.7130   40.3140 C   0  0  0  0  0  0  0  0  0  0  0  0
   38.7240   33.9910   40.4480 C   0  0  0  0  0  0  0  0  0  0  0  0
   39.9450   34.2320   39.8650 C   0  0  0  0  0  0  0  0  0  0  0  0
   40.6400   33.2280   39.1770 C   0  0  0  0  0  0  0  0  0  0  0  0
   37.2650   32.4020   40.7420 H   0  0  0  0  0  0  0  0  0  0  0  0
   38.1790   34.7340   40.9740 H   0  0  0  0  0  0  0  0  0  0  0  0
   40.3060   35.2460   39.9850 H   0  0  0  0  0  0  0  0  0  0  0  0
   41.9210   33.6270   38.6100 C   0  0  0  0  0  0  0  0  0  0  0  0
   43.1930   33.6840   39.1330 C   0  0  0  0  0  0  0  0  0  0  0  0
   43.4640   33.4170   40.1390 H   0  0  0  0  0  0  0  0  0  0  0  0
   44.1130   34.1310   38.2110 C   0  0  0  0  0  0  0  0  0  0  0  0
   45.1770   34.2770   38.3380 H   0  0  0  0  0  0  0  0  0  0  0  0
   43.3550   34.3410   37.1200 N   0  0  0  0  0  0  0  0  0  0  0  0
   43.6770   34.6880   36.1860 H   0  0  0  0  0  0  0  0  0  0  0  0
   42.0890   34.0500   37.3490 N   0  0  0  0  0  0  0  0  0  0  0  0
  1  7  1  1  0  0  0
  1  2  1  0  0  0  0
  2 18  1  0  0  0  0
  2  8  1  1  0  0  0
  3  9  1  0  0  0  0
  3  2  1  0  0  0  0
  4  3  1  0  0  0  0
  5 11  1  0  0  0  0
  5  4  1  0  0  0  0
  6 13  1  6  0  0  0
  6  5  1  0  0  0  0
  6  1  1  0  0  0  0
 10  3  1  0  0  0  0
 12  5  1  0  0  0  0
 14 15  1  0  0  0  0
 15 20  1  0  0  0  0
 15 16  2  0  0  0  0
 16 21  1  0  0  0  0
 17 16  1  0  0  0  0
 18 17  2  0  0  0  0
 19 14  2  0  0  0  0
 19 18  1  0  0  0  0
 22 23  1  0  0  0  0
 22 14  1  0  0  0  0
 24  1  1  0  0  0  0
 24 25  1  0  0  0  0
 26 29  1  0  0  0  0
 26  6  1  0  0  0  0
 27 28  1  0  0  0  0
 28 33  2  0  0  0  0
 28 29  1  0  0  0  0
 29 30  2  0  0  0  0
 30 31  1  0  0  0  0
 30 34  1  0  0  0  0
 31 35  1  0  0  0  0
 32 36  1  0  0  0  0
 32 31  2  0  0  0  0
 33 32  1  0  0  0  0
 37 38  1  0  0  0  0
 37 33  1  0  0  0  0
 38 39  1  0  0  0  0
 40 41  1  0  0  0  0
 40 38  2  0  0  0  0
 42 44  1  0  0  0  0
 42 40  1  0  0  0  0
 43 42  1  0  0  0  0
 44 37  2  0  0  0  0
M  END
>  <minimizedAffinity>
-6.62283182

$$$$

 OpenBabel03242518483D

 44 47  0  0  1  0  0  0  0  0999 V2000
   38.2040   30.3840   40.1340 C   0  0  2  0  0  0  0  0  0  0  0  0
   38.7080   31.2190   39.0140 C   0  0  1  0  0  0  0  0  0  0  0  0
   37.5780   31.6990   38.1040 C   0  0  0  0  0  0  0  0  0  0  0  0
   36.9170   30.5250   37.7310 O   0  0  0  0  0  0  0  0  0  0  0  0
   36.1750   30.0100   38.7710 C   0  0  0  0  0  0  0  0  0  0  0  0
   36.6650   30.4010   40.1290 C   0  0  1  0  0  0  0  0  0  0  0  0
   38.4930   29.3300   39.9640 H   0  0  0  0  0  0  0  0  0  0  0  0
   39.4090   30.6310   38.3560 H   0  0  0  0  0  0  0  0  0  0  0  0
   37.9530   32.2150   37.2260 H   0  0  0  0  0  0  0  0  0  0  0  0
   36.9030   32.3950   38.6420 H   0  0  0  0  0  0  0  0  0  0  0  0
   36.0680   28.9110   38.7150 H   0  0  0  0  0  0  0  0  0  0  0  0
   35.1350   30.4330   38.6550 H   0  0  0  0  0  0  0  0  0  0  0  0
   36.4270   31.4520   40.4090 H   0  0  0  0  0  0  0  0  0  0  0  0
   41.4530   33.5360   39.7090 C   0  0  0  0  0  0  0  0  0  0  0  0
   40.8050   34.7230   40.1660 C   0  0  0  0  0  0  0  0  0  0  0  0
   39.3780   34.6620   40.2130 C   0  0  0  0  0  0  0  0  0  0  0  0
   38.7540   33.5230   39.8360 N   0  0  0  0  0  0  0  0  0  0  0  0
   39.4340   32.4380   39.4120 C   0  0  0  0  0  0  0  0  0  0  0  0
   40.7870   32.4430   39.3490 N   0  0  0  0  0  0  0  0  0  0  0  0
   41.3720   35.5930   40.4500 H   0  0  0  0  0  0  0  0  0  0  0  0
   38.8780   35.5380   40.5510 H   0  0  0  0  0  0  0  0  0  0  0  0
   42.8010   33.6020   39.6670 O   0  0  0  0  0  0  0  0  0  0  0  0
   43.4630   33.6790   40.4090 H   0  0  0  0  0  0  0  0  0  0  0  0
   38.6330   30.8150   41.3960 O   0  0  0  0  0  0  0  0  0  0  0  0
   39.0300   30.0730   41.9000 H   0  0  0  0  0  0  0  0  0  0  0  0
   36.2540   29.5550   41.1340 O   0  0  0  0  0  0  0  0  0  0  0  0
   36.4000   27.0580   40.1260 F   0  0  0  0  0  0  0  0  0  0  0  0
   36.8470   27.4170   41.3460 C   0  0  0  0  0  0  0  0  0  0  0  0
   36.8180   28.6670   41.9310 C   0  0  0  0  0  0  0  0  0  0  0  0
   37.3690   28.7450   43.1990 C   0  0  0  0  0  0  0  0  0  0  0  0
   37.9290   27.7080   43.9070 C   0  0  0  0  0  0  0  0  0  0  0  0
   37.9310   26.4850   43.2800 C   0  0  0  0  0  0  0  0  0  0  0  0
   37.3940   26.3180   41.9960 C   0  0  0  0  0  0  0  0  0  0  0  0
   37.3100   29.7720   43.6020 H   0  0  0  0  0  0  0  0  0  0  0  0
   38.3290   27.8590   44.8770 H   0  0  0  0  0  0  0  0  0  0  0  0
   38.3770   25.6860   43.8590 H   0  0  0  0  0  0  0  0  0  0  0  0
   37.4650   24.9670   41.4560 C   0  0  0  0  0  0  0  0  0  0  0  0
   36.6060   24.2310   40.6730 C   0  0  0  0  0  0  0  0  0  0  0  0
   35.6560   24.5740   40.3010 H   0  0  0  0  0  0  0  0  0  0  0  0
   37.0980   22.9730   40.4030 C   0  0  0  0  0  0  0  0  0  0  0  0
   36.6450   22.1840   39.8190 H   0  0  0  0  0  0  0  0  0  0  0  0
   38.2770   22.9770   41.0490 N   0  0  0  0  0  0  0  0  0  0  0  0
   38.9740   22.1960   41.0950 H   0  0  0  0  0  0  0  0  0  0  0  0
   38.4910   24.1280   41.6580 N   0  0  0  0  0  0  0  0  0  0  0  0
  1  7  1  6  0  0  0
  1 24  1  0  0  0  0
  2  8  1  6  0  0  0
  2 18  1  0  0  0  0
  2  1  1  0  0  0  0
  3 10  1  0  0  0  0
  3  2  1  0  0  0  0
  4  3  1  0  0  0  0
  4  5  1  0  0  0  0
  5  6  1  0  0  0  0
  6  1  1  0  0  0  0
  6 13  1  1  0  0  0
  6 26  1  0  0  0  0
  9  3  1  0  0  0  0
 11  5  1  0  0  0  0
 12  5  1  0  0  0  0
 14 15  1  0  0  0  0
 15 16  2  0  0  0  0
 15 20  1  0  0  0  0
 16 21  1  0  0  0  0
 17 16  1  0  0  0  0
 18 17  2  0  0  0  0
 19 18  1  0  0  0  0
 19 14  2  0  0  0  0
 22 14  1  0  0  0  0
 22 23  1  0  0  0  0
 24 25  1  0  0  0  0
 26 29  1  0  0  0  0
 27 28  1  0  0  0  0
 28 29  2  0  0  0  0
 28 33  1  0  0  0  0
 29 30  1  0  0  0  0
 30 34  1  0  0  0  0
 30 31  2  0  0  0  0
 31 35  1  0  0  0  0
 32 36  1  0  0  0  0
 32 31  1  0  0  0  0
 33 32  2  0  0  0  0
 37 44  2  0  0  0  0
 37 33  1  0  0  0  0
 38 37  1  0  0  0  0
 39 38  1  0  0  0  0
 40 38  2  0  0  0  0
 40 42  1  0  0  0  0
 41 40  1  0  0  0  0
 42 43  1  0  0  0  0
 42 44  1  0  0  0  0
M  END
>  <minimizedAffinity>
-6.45752335

$$$$

 OpenBabel03242518483D

 44 47  0  0  1  0  0  0  0  0999 V2000
   39.3430   31.3990   39.3430 C   0  0  2  0  0  0  0  0  0  0  0  0
   39.6080   32.8550   39.2310 C   0  0  1  0  0  0  0  0  0  0  0  0
   38.7100   33.6740   40.1580 C   0  0  0  0  0  0  0  0  0  0  0  0
   37.4140   33.2690   39.8240 O   0  0  0  0  0  0  0  0  0  0  0  0
   37.1430   32.0040   40.2950 C   0  0  0  0  0  0  0  0  0  0  0  0
   38.3530   31.1480   40.4950 C   0  0  1  0  0  0  0  0  0  0  0  0
   38.8330   31.0470   38.4270 H   0  0  0  0  0  0  0  0  0  0  0  0
   39.3980   33.2250   38.1880 H   0  0  0  0  0  0  0  0  0  0  0  0
   38.8250   34.7410   39.9980 H   0  0  0  0  0  0  0  0  0  0  0  0
   38.9420   33.4650   41.2210 H   0  0  0  0  0  0  0  0  0  0  0  0
   36.4050   31.4660   39.6700 H   0  0  0  0  0  0  0  0  0  0  0  0
   36.6580   32.1410   41.3050 H   0  0  0  0  0  0  0  0  0  0  0  0
   38.9490   31.4140   41.3970 H   0  0  0  0  0  0  0  0  0  0  0  0
   42.5640   33.8320   41.1530 C   0  0  0  0  0  0  0  0  0  0  0  0
   43.5680   34.0640   40.1640 C   0  0  0  0  0  0  0  0  0  0  0  0
   43.1520   33.8590   38.8120 C   0  0  0  0  0  0  0  0  0  0  0  0
   41.8800   33.4740   38.5630 N   0  0  0  0  0  0  0  0  0  0  0  0
   40.9850   33.2730   39.5520 C   0  0  0  0  0  0  0  0  0  0  0  0
   41.3260   33.4530   40.8510 N   0  0  0  0  0  0  0  0  0  0  0  0
   44.5610   34.3700   40.4400 H   0  0  0  0  0  0  0  0  0  0  0  0
   43.8870   34.0270   38.0610 H   0  0  0  0  0  0  0  0  0  0  0  0
   42.9650   34.0270   42.4280 O   0  0  0  0  0  0  0  0  0  0  0  0
   43.2330   34.8670   42.8950 H   0  0  0  0  0  0  0  0  0  0  0  0
   40.4910   30.6340   39.5910 O   0  0  0  0  0  0  0  0  0  0  0  0
   40.5620   29.8960   38.9490 H   0  0  0  0  0  0  0  0  0  0  0  0
   38.0850   29.7980   40.5040 O   0  0  0  0  0  0  0  0  0  0  0  0
   38.0720   27.2540   39.6120 F   0  0  0  0  0  0  0  0  0  0  0  0
   37.7330   27.6270   40.8620 C   0  0  0  0  0  0  0  0  0  0  0  0
   37.7200   28.8990   41.3990 C   0  0  0  0  0  0  0  0  0  0  0  0
   37.3420   28.9820   42.7280 C   0  0  0  0  0  0  0  0  0  0  0  0
   36.9850   27.9300   43.5380 C   0  0  0  0  0  0  0  0  0  0  0  0
   37.0130   26.6860   42.9550 C   0  0  0  0  0  0  0  0  0  0  0  0
   37.3850   26.5130   41.6150 C   0  0  0  0  0  0  0  0  0  0  0  0
   37.3560   30.0270   43.0870 H   0  0  0  0  0  0  0  0  0  0  0  0
   36.7070   28.0870   44.5500 H   0  0  0  0  0  0  0  0  0  0  0  0
   36.7280   25.8760   43.6150 H   0  0  0  0  0  0  0  0  0  0  0  0
   37.3680   25.1380   41.1310 C   0  0  0  0  0  0  0  0  0  0  0  0
   38.2240   24.0760   41.3150 C   0  0  0  0  0  0  0  0  0  0  0  0
   39.1250   24.0990   41.9030 H   0  0  0  0  0  0  0  0  0  0  0  0
   37.7990   22.9470   40.6520 C   0  0  0  0  0  0  0  0  0  0  0  0
   38.2660   21.9720   40.6160 H   0  0  0  0  0  0  0  0  0  0  0  0
   36.6640   23.3630   40.0640 N   0  0  0  0  0  0  0  0  0  0  0  0
   36.0240   22.7980   39.4580 H   0  0  0  0  0  0  0  0  0  0  0  0
   36.4140   24.6290   40.3400 N   0  0  0  0  0  0  0  0  0  0  0  0
  1  7  1  6  0  0  0
  1 24  1  0  0  0  0
  1  6  1  0  0  0  0
  2  8  1  6  0  0  0
  2  1  1  0  0  0  0
  2 18  1  0  0  0  0
  2  3  1  0  0  0  0
  3 10  1  0  0  0  0
  4  3  1  0  0  0  0
  4  5  1  0  0  0  0
  5  6  1  0  0  0  0
  5 12  1  0  0  0  0
  6 26  1  0  0  0  0
  6 13  1  1  0  0  0
  9  3  1  0  0  0  0
 11  5  1  0  0  0  0
 14 22  1  0  0  0  0
 15 20  1  0  0  0  0
 15 14  2  0  0  0  0
 16 15  1  0  0  0  0
 17 16  2  0  0  0  0
 17 18  1  0  0  0  0
 18 19  2  0  0  0  0
 19 14  1  0  0  0  0
 21 16  1  0  0  0  0
 22 23  1  0  0  0  0
 25 24  1  0  0  0  0
 26 29  1  0  0  0  0
 27 28  1  0  0  0  0
 28 29  2  0  0  0  0
 28 33  1  0  0  0  0
 29 30  1  0  0  0  0
 30 34  1  0  0  0  0
 30 31  2  0  0  0  0
 31 35  1  0  0  0  0
 32 31  1  0  0  0  0
 32 36  1  0  0  0  0
 33 32  2  0  0  0  0
 37 38  1  0  0  0  0
 37 33  1  0  0  0  0
 38 39  1  0  0  0  0
 40 38  2  0  0  0  0
 41 40  1  0  0  0  0
 42 44  1  0  0  0  0
 42 40  1  0  0  0  0
 43 42  1  0  0  0  0
 44 37  2  0  0  0  0
M  END
>  <minimizedAffinity>
-6.4138689

$$$$

 OpenBabel03242518483D

 44 47  0  0  1  0  0  0  0  0999 V2000
   41.4570   32.9400   37.8310 C   0  0  2  0  0  0  0  0  0  0  0  0
   42.9310   32.9830   38.0030 C   0  0  1  0  0  0  0  0  0  0  0  0
   43.3560   32.5530   39.4070 C   0  0  0  0  0  0  0  0  0  0  0  0
   42.6250   33.3890   40.2570 O   0  0  0  0  0  0  0  0  0  0  0  0
   41.2960   33.0300   40.2970 C   0  0  0  0  0  0  0  0  0  0  0  0
   40.8170   32.3060   39.0790 C   0  0  1  0  0  0  0  0  0  0  0  0
   41.0630   33.9720   37.7830 H   0  0  0  0  0  0  0  0  0  0  0  0
   43.3230   34.0300   37.8660 H   0  0  0  0  0  0  0  0  0  0  0  0
   44.4210   32.6900   39.5700 H   0  0  0  0  0  0  0  0  0  0  0  0
   43.1220   31.4850   39.5830 H   0  0  0  0  0  0  0  0  0  0  0  0
   40.6300   33.8880   40.5070 H   0  0  0  0  0  0  0  0  0  0  0  0
   41.1860   32.3250   41.1710 H   0  0  0  0  0  0  0  0  0  0  0  0
   41.1560   31.2470   39.0220 H   0  0  0  0  0  0  0  0  0  0  0  0
   43.7640   30.2880   35.6750 C   0  0  0  0  0  0  0  0  0  0  0  0
   45.1390   30.5070   35.3570 C   0  0  0  0  0  0  0  0  0  0  0  0
   45.7400   31.6350   35.9950 C   0  0  0  0  0  0  0  0  0  0  0  0
   44.9970   32.3950   36.8300 N   0  0  0  0  0  0  0  0  0  0  0  0
   43.7000   32.1270   37.0830 C   0  0  0  0  0  0  0  0  0  0  0  0
   43.0800   31.0690   36.5040 N   0  0  0  0  0  0  0  0  0  0  0  0
   45.6640   29.8560   34.6800 H   0  0  0  0  0  0  0  0  0  0  0  0
   46.7650   31.8150   35.7700 H   0  0  0  0  0  0  0  0  0  0  0  0
   43.2020   29.2200   35.0670 O   0  0  0  0  0  0  0  0  0  0  0  0
   43.3850   28.2460   35.1820 H   0  0  0  0  0  0  0  0  0  0  0  0
   41.0410   32.2020   36.7150 O   0  0  0  0  0  0  0  0  0  0  0  0
   40.4230   32.7260   36.1620 H   0  0  0  0  0  0  0  0  0  0  0  0
   39.4530   32.3610   38.8990 O   0  0  0  0  0  0  0  0  0  0  0  0
   39.0540   30.8190   41.0750 F   0  0  0  0  0  0  0  0  0  0  0  0
   38.3310   30.7410   39.9400 C   0  0  0  0  0  0  0  0  0  0  0  0
   38.4640   31.4940   38.7900 C   0  0  0  0  0  0  0  0  0  0  0  0
   37.5630   31.2040   37.7800 C   0  0  0  0  0  0  0  0  0  0  0  0
   36.5710   30.2530   37.8230 C   0  0  0  0  0  0  0  0  0  0  0  0
   36.4830   29.5310   38.9880 C   0  0  0  0  0  0  0  0  0  0  0  0
   37.3550   29.7600   40.0610 C   0  0  0  0  0  0  0  0  0  0  0  0
   37.7300   31.8450   36.8950 H   0  0  0  0  0  0  0  0  0  0  0  0
   35.9230   30.0990   36.9980 H   0  0  0  0  0  0  0  0  0  0  0  0
   35.6940   28.7890   38.9970 H   0  0  0  0  0  0  0  0  0  0  0  0
   37.1440   28.9200   41.2330 C   0  0  0  0  0  0  0  0  0  0  0  0
   37.0710   27.5550   41.3990 C   0  0  0  0  0  0  0  0  0  0  0  0
   37.1680   26.8280   40.6130 H   0  0  0  0  0  0  0  0  0  0  0  0
   36.8540   27.2040   42.7130 C   0  0  0  0  0  0  0  0  0  0  0  0
   36.7540   26.2140   43.1370 H   0  0  0  0  0  0  0  0  0  0  0  0
   36.7990   28.3980   43.3290 N   0  0  0  0  0  0  0  0  0  0  0  0
   36.6460   28.5740   44.3500 H   0  0  0  0  0  0  0  0  0  0  0  0
   36.9660   29.3900   42.4750 N   0  0  0  0  0  0  0  0  0  0  0  0
  1  7  1  6  0  0  0
  1  2  1  0  0  0  0
  1  6  1  0  0  0  0
  2  8  1  6  0  0  0
  2  3  1  0  0  0  0
  3  9  1  0  0  0  0
  3 10  1  0  0  0  0
  3  4  1  0  0  0  0
  4  5  1  0  0  0  0
  5 11  1  0  0  0  0
  5 12  1  0  0  0  0
  6 13  1  1  0  0  0
  6  5  1  0  0  0  0
 14 19  1  0  0  0  0
 15 14  2  0  0  0  0
 15 16  1  0  0  0  0
 16 17  2  0  0  0  0
 17 18  1  0  0  0  0
 18  2  1  0  0  0  0
 19 18  2  0  0  0  0
 20 15  1  0  0  0  0
 21 16  1  0  0  0  0
 22 23  1  0  0  0  0
 22 14  1  0  0  0  0
 24  1  1  0  0  0  0
 25 24  1  0  0  0  0
 26  6  1  0  0  0  0
 28 33  1  0  0  0  0
 28 27  1  0  0  0  0
 29 26  1  0  0  0  0
 29 28  2  0  0  0  0
 30 31  2  0  0  0  0
 30 29  1  0  0  0  0
 31 32  1  0  0  0  0
 32 36  1  0  0  0  0
 32 33  2  0  0  0  0
 33 37  1  0  0  0  0
 34 30  1  0  0  0  0
 35 31  1  0  0  0  0
 37 38  1  0  0  0  0
 37 44  2  0  0  0  0
 38 40  2  0  0  0  0
 39 38  1  0  0  0  0
 40 41  1  0  0  0  0
 40 42  1  0  0  0  0
 42 43  1  0  0  0  0
 44 42  1  0  0  0  0
M  END
>  <minimizedAffinity>
-6.33332777

$$$$

 OpenBabel03242518483D

 44 47  0  0  1  0  0  0  0  0999 V2000
   38.8620   27.5900   41.7970 C   0  0  2  0  0  0  0  0  0  0  0  0
   38.1400   26.4570   42.4290 C   0  0  1  0  0  0  0  0  0  0  0  0
   36.8890   26.9210   43.1750 C   0  0  0  0  0  0  0  0  0  0  0  0
   37.3590   27.9030   44.0530 O   0  0  0  0  0  0  0  0  0  0  0  0
   37.6770   29.0660   43.3880 C   0  0  0  0  0  0  0  0  0  0  0  0
   38.0270   28.8740   41.9460 C   0  0  1  0  0  0  0  0  0  0  0  0
   39.8030   27.7780   42.3470 H   0  0  0  0  0  0  0  0  0  0  0  0
   38.7860   25.9430   43.1950 H   0  0  0  0  0  0  0  0  0  0  0  0
   36.4220   26.1130   43.7290 H   0  0  0  0  0  0  0  0  0  0  0  0
   36.1350   27.3290   42.4720 H   0  0  0  0  0  0  0  0  0  0  0  0
   38.4760   29.6400   43.8920 H   0  0  0  0  0  0  0  0  0  0  0  0
   36.7530   29.7130   43.4250 H   0  0  0  0  0  0  0  0  0  0  0  0
   37.1480   28.6770   41.2920 H   0  0  0  0  0  0  0  0  0  0  0  0
   37.7480   23.1970   40.8170 C   0  0  0  0  0  0  0  0  0  0  0  0
   36.8140   23.4340   39.7630 C   0  0  0  0  0  0  0  0  0  0  0  0
   36.3400   24.7780   39.6570 C   0  0  0  0  0  0  0  0  0  0  0  0
   36.7910   25.7070   40.5290 N   0  0  0  0  0  0  0  0  0  0  0  0
   37.6760   25.4090   41.5030 C   0  0  0  0  0  0  0  0  0  0  0  0
   38.1570   24.1500   41.6480 N   0  0  0  0  0  0  0  0  0  0  0  0
   36.5020   22.6400   39.1070 H   0  0  0  0  0  0  0  0  0  0  0  0
   35.6430   24.9740   38.8780 H   0  0  0  0  0  0  0  0  0  0  0  0
   38.1910   21.9250   40.9110 O   0  0  0  0  0  0  0  0  0  0  0  0
   38.7600   21.3950   40.2850 H   0  0  0  0  0  0  0  0  0  0  0  0
   39.1190   27.4030   40.4320 O   0  0  0  0  0  0  0  0  0  0  0  0
   40.0680   27.5560   40.2330 H   0  0  0  0  0  0  0  0  0  0  0  0
   38.7740   29.9000   41.4140 O   0  0  0  0  0  0  0  0  0  0  0  0
   40.9380   31.0570   40.2960 F   0  0  0  0  0  0  0  0  0  0  0  0
   39.6910   31.5670   40.2520 C   0  0  0  0  0  0  0  0  0  0  0  0
   38.5340   31.0370   40.7870 C   0  0  0  0  0  0  0  0  0  0  0  0
   37.3830   31.7760   40.5690 C   0  0  0  0  0  0  0  0  0  0  0  0
   37.2970   32.9640   39.8820 C   0  0  0  0  0  0  0  0  0  0  0  0
   38.4780   33.4470   39.3710 C   0  0  0  0  0  0  0  0  0  0  0  0
   39.6880   32.7630   39.5450 C   0  0  0  0  0  0  0  0  0  0  0  0
   36.5010   31.2910   41.0250 H   0  0  0  0  0  0  0  0  0  0  0  0
   36.3700   33.4630   39.7640 H   0  0  0  0  0  0  0  0  0  0  0  0
   38.3830   34.3830   38.8340 H   0  0  0  0  0  0  0  0  0  0  0  0
   40.8580   33.3930   38.9490 C   0  0  0  0  0  0  0  0  0  0  0  0
   41.4840   33.2340   37.7330 C   0  0  0  0  0  0  0  0  0  0  0  0
   41.1740   32.5530   36.9600 H   0  0  0  0  0  0  0  0  0  0  0  0
   42.5790   34.0590   37.6010 C   0  0  0  0  0  0  0  0  0  0  0  0
   43.2560   34.1500   36.7630 H   0  0  0  0  0  0  0  0  0  0  0  0
   42.5920   34.7160   38.7740 N   0  0  0  0  0  0  0  0  0  0  0  0
   43.2770   35.4470   39.0800 H   0  0  0  0  0  0  0  0  0  0  0  0
   41.5980   34.3330   39.5530 N   0  0  0  0  0  0  0  0  0  0  0  0
  1  6  1  0  0  0  0
  1  7  1  1  0  0  0
  1  2  1  0  0  0  0
  2  3  1  0  0  0  0
  2  8  1  1  0  0  0
  3  9  1  0  0  0  0
  3  4  1  0  0  0  0
  5 12  1  0  0  0  0
  5 11  1  0  0  0  0
  5  4  1  0  0  0  0
  6 13  1  6  0  0  0
  6  5  1  0  0  0  0
 10  3  1  0  0  0  0
 14 22  1  0  0  0  0
 14 19  1  0  0  0  0
 15 14  2  0  0  0  0
 16 15  1  0  0  0  0
 16 17  2  0  0  0  0
 17 18  1  0  0  0  0
 18 19  2  0  0  0  0
 18  2  1  0  0  0  0
 20 15  1  0  0  0  0
 21 16  1  0  0  0  0
 23 22  1  0  0  0  0
 24  1  1  0  0  0  0
 25 24  1  0  0  0  0
 26  6  1  0  0  0  0
 28 27  1  0  0  0  0
 28 29  1  0  0  0  0
 29 26  1  0  0  0  0
 30 29  2  0  0  0  0
 30 34  1  0  0  0  0
 31 30  1  0  0  0  0
 32 33  1  0  0  0  0
 32 31  2  0  0  0  0
 33 28  2  0  0  0  0
 35 31  1  0  0  0  0
 36 32  1  0  0  0  0
 37 33  1  0  0  0  0
 37 44  2  0  0  0  0
 38 37  1  0  0  0  0
 39 38  1  0  0  0  0
 40 38  2  0  0  0  0
 40 42  1  0  0  0  0
 41 40  1  0  0  0  0
 42 43  1  0  0  0  0
 42 44  1  0  0  0  0
M  END
>  <minimizedAffinity>
-6.31399584

$$$$

 OpenBabel03242518483D

 44 47  0  0  1  0  0  0  0  0999 V2000
   39.8620   32.6560   39.0220 C   0  0  2  0  0  0  0  0  0  0  0  0
   40.4370   33.9750   39.3900 C   0  0  1  0  0  0  0  0  0  0  0  0
   39.6060   34.6840   40.4580 C   0  0  0  0  0  0  0  0  0  0  0  0
   38.3150   34.7170   39.9220 O   0  0  0  0  0  0  0  0  0  0  0  0
   37.7220   33.4740   39.9530 C   0  0  0  0  0  0  0  0  0  0  0  0
   38.6880   32.3320   39.9630 C   0  0  1  0  0  0  0  0  0  0  0  0
   39.4260   32.7160   38.0080 H   0  0  0  0  0  0  0  0  0  0  0  0
   40.4590   34.6680   38.5020 H   0  0  0  0  0  0  0  0  0  0  0  0
   39.9610   35.6930   40.6480 H   0  0  0  0  0  0  0  0  0  0  0  0
   39.6350   34.1300   41.4170 H   0  0  0  0  0  0  0  0  0  0  0  0
   36.9860   33.3330   39.1400 H   0  0  0  0  0  0  0  0  0  0  0  0
   37.1390   33.4280   40.9180 H   0  0  0  0  0  0  0  0  0  0  0  0
   39.1910   32.1760   40.9440 H   0  0  0  0  0  0  0  0  0  0  0  0
   43.2220   33.7240   41.7490 C   0  0  0  0  0  0  0  0  0  0  0  0
   44.3870   33.8750   40.9370 C   0  0  0  0  0  0  0  0  0  0  0  0
   44.1400   34.0650   39.5430 C   0  0  0  0  0  0  0  0  0  0  0  0
   42.8640   34.0890   39.0960 N   0  0  0  0  0  0  0  0  0  0  0  0
   41.8100   33.9380   39.9240 C   0  0  0  0  0  0  0  0  0  0  0  0
   41.9880   33.7560   41.2550 N   0  0  0  0  0  0  0  0  0  0  0  0
   45.3730   33.8440   41.3670 H   0  0  0  0  0  0  0  0  0  0  0  0
   44.9960   34.1780   38.9220 H   0  0  0  0  0  0  0  0  0  0  0  0
   43.4640   33.5450   43.0650 O   0  0  0  0  0  0  0  0  0  0  0  0
   43.8530   34.1710   43.7380 H   0  0  0  0  0  0  0  0  0  0  0  0
   40.7790   31.5990   39.1020 O   0  0  0  0  0  0  0  0  0  0  0  0
   40.7860   31.0820   38.2680 H   0  0  0  0  0  0  0  0  0  0  0  0
   38.1480   31.1430   39.5310 O   0  0  0  0  0  0  0  0  0  0  0  0
   39.6810   29.4980   41.0200 F   0  0  0  0  0  0  0  0  0  0  0  0
   38.3590   29.3320   40.8130 C   0  0  0  0  0  0  0  0  0  0  0  0
   37.5040   30.1270   40.0770 C   0  0  0  0  0  0  0  0  0  0  0  0
   36.1810   29.7200   40.0540 C   0  0  0  0  0  0  0  0  0  0  0  0
   35.6590   28.6170   40.6880 C   0  0  0  0  0  0  0  0  0  0  0  0
   36.5530   27.8590   41.4060 C   0  0  0  0  0  0  0  0  0  0  0  0
   37.9100   28.2000   41.4820 C   0  0  0  0  0  0  0  0  0  0  0  0
   35.5590   30.4020   39.4470 H   0  0  0  0  0  0  0  0  0  0  0  0
   34.6280   28.3790   40.6160 H   0  0  0  0  0  0  0  0  0  0  0  0
   36.1160   26.9960   41.8960 H   0  0  0  0  0  0  0  0  0  0  0  0
   38.7390   27.3060   42.2790 C   0  0  0  0  0  0  0  0  0  0  0  0
   39.1750   27.3560   43.5840 C   0  0  0  0  0  0  0  0  0  0  0  0
   38.9470   28.1390   44.2850 H   0  0  0  0  0  0  0  0  0  0  0  0
   39.9550   26.2690   43.9120 C   0  0  0  0  0  0  0  0  0  0  0  0
   40.4300   26.0430   44.8570 H   0  0  0  0  0  0  0  0  0  0  0  0
   39.9740   25.5670   42.7650 N   0  0  0  0  0  0  0  0  0  0  0  0
   40.4660   24.6590   42.5900 H   0  0  0  0  0  0  0  0  0  0  0  0
   39.2720   26.1650   41.8210 N   0  0  0  0  0  0  0  0  0  0  0  0
  1  7  1  6  0  0  0
  1 24  1  0  0  0  0
  1  2  1  0  0  0  0
  1  6  1  0  0  0  0
  2  8  1  6  0  0  0
  2 18  1  0  0  0  0
  2  3  1  0  0  0  0
  3  9  1  0  0  0  0
  3 10  1  0  0  0  0
  4  5  1  0  0  0  0
  4  3  1  0  0  0  0
  5  6  1  0  0  0  0
  5 12  1  0  0  0  0
  6 13  1  1  0  0  0
 11  5  1  0  0  0  0
 14 22  1  0  0  0  0
 15 20  1  0  0  0  0
 15 14  2  0  0  0  0
 16 15  1  0  0  0  0
 17 16  2  0  0  0  0
 17 18  1  0  0  0  0
 18 19  2  0  0  0  0
 19 14  1  0  0  0  0
 21 16  1  0  0  0  0
 22 23  1  0  0  0  0
 25 24  1  0  0  0  0
 26  6  1  0  0  0  0
 26 29  1  0  0  0  0
 28 27  1  0  0  0  0
 28 33  1  0  0  0  0
 29 28  2  0  0  0  0
 30 29  1  0  0  0  0
 30 31  2  0  0  0  0
 31 32  1  0  0  0  0
 32 33  2  0  0  0  0
 32 36  1  0  0  0  0
 33 37  1  0  0  0  0
 34 30  1  0  0  0  0
 35 31  1  0  0  0  0
 37 38  1  0  0  0  0
 38 40  2  0  0  0  0
 38 39  1  0  0  0  0
 40 41  1  0  0  0  0
 42 40  1  0  0  0  0
 43 42  1  0  0  0  0
 44 37  2  0  0  0  0
 44 42  1  0  0  0  0
M  END
>  <minimizedAffinity>
-6.14539194

$$$$

 OpenBabel03242518483D

 44 47  0  0  1  0  0  0  0  0999 V2000
   37.6410   29.0530   41.8600 C   0  0  2  0  0  0  0  0  0  0  0  0
   36.6960   27.9780   41.4650 C   0  0  1  0  0  0  0  0  0  0  0  0
   35.8270   28.3880   40.2770 C   0  0  0  0  0  0  0  0  0  0  0  0
   35.2380   29.5890   40.6820 O   0  0  0  0  0  0  0  0  0  0  0  0
   36.1460   30.6250   40.6730 C   0  0  0  0  0  0  0  0  0  0  0  0
   37.5710   30.1960   40.8310 C   0  0  1  0  0  0  0  0  0  0  0  0
   37.3160   29.4930   42.8210 H   0  0  0  0  0  0  0  0  0  0  0  0
   35.9830   27.7390   42.3040 H   0  0  0  0  0  0  0  0  0  0  0  0
   35.0610   27.6490   40.0580 H   0  0  0  0  0  0  0  0  0  0  0  0
   36.4390   28.5200   39.3630 H   0  0  0  0  0  0  0  0  0  0  0  0
   35.9070   31.4070   41.4170 H   0  0  0  0  0  0  0  0  0  0  0  0
   36.0540   31.1160   39.6610 H   0  0  0  0  0  0  0  0  0  0  0  0
   38.0060   29.7350   39.9170 H   0  0  0  0  0  0  0  0  0  0  0  0
   38.0540   24.5870   41.6690 C   0  0  0  0  0  0  0  0  0  0  0  0
   38.4970   24.3040   40.3410 C   0  0  0  0  0  0  0  0  0  0  0  0
   38.2920   25.3520   39.3920 C   0  0  0  0  0  0  0  0  0  0  0  0
   37.7140   26.5050   39.7970 N   0  0  0  0  0  0  0  0  0  0  0  0
   37.3200   26.7020   41.0710 C   0  0  0  0  0  0  0  0  0  0  0  0
   37.4910   25.7410   42.0120 N   0  0  0  0  0  0  0  0  0  0  0  0
   38.9500   23.3590   40.0950 H   0  0  0  0  0  0  0  0  0  0  0  0
   38.6150   25.1590   38.3970 H   0  0  0  0  0  0  0  0  0  0  0  0
   38.2510   23.5920   42.5600 O   0  0  0  0  0  0  0  0  0  0  0  0
   39.1000   23.2130   42.9220 H   0  0  0  0  0  0  0  0  0  0  0  0
   38.9750   28.6300   41.9390 O   0  0  0  0  0  0  0  0  0  0  0  0
   39.3690   28.8830   42.8000 H   0  0  0  0  0  0  0  0  0  0  0  0
   38.4050   31.1920   41.2840 O   0  0  0  0  0  0  0  0  0  0  0  0
   41.0750   31.5630   41.3490 F   0  0  0  0  0  0  0  0  0  0  0  0
   40.1860   32.4840   40.9270 C   0  0  0  0  0  0  0  0  0  0  0  0
   38.8120   32.3720   40.8550 C   0  0  0  0  0  0  0  0  0  0  0  0
   38.1480   33.4820   40.3600 C   0  0  0  0  0  0  0  0  0  0  0  0
   38.7280   34.6580   39.9450 C   0  0  0  0  0  0  0  0  0  0  0  0
   40.0980   34.7170   40.0400 C   0  0  0  0  0  0  0  0  0  0  0  0
   40.8470   33.6390   40.5290 C   0  0  0  0  0  0  0  0  0  0  0  0
   37.0550   33.3200   40.3310 H   0  0  0  0  0  0  0  0  0  0  0  0
   38.1400   35.4600   39.5780 H   0  0  0  0  0  0  0  0  0  0  0  0
   40.5290   35.6530   39.7060 H   0  0  0  0  0  0  0  0  0  0  0  0
   42.2890   33.8430   40.5720 C   0  0  0  0  0  0  0  0  0  0  0  0
   43.1180   34.4320   41.4990 C   0  0  0  0  0  0  0  0  0  0  0  0
   42.7990   34.8740   42.4260 H   0  0  0  0  0  0  0  0  0  0  0  0
   44.4390   34.3960   41.1100 C   0  0  0  0  0  0  0  0  0  0  0  0
   45.3050   34.7790   41.6330 H   0  0  0  0  0  0  0  0  0  0  0  0
   44.3760   33.7700   39.9220 N   0  0  0  0  0  0  0  0  0  0  0  0
   45.1770   33.5400   39.2870 H   0  0  0  0  0  0  0  0  0  0  0  0
   43.1350   33.4500   39.6100 N   0  0  0  0  0  0  0  0  0  0  0  0
  1 24  1  0  0  0  0
  1  7  1  1  0  0  0
  2  1  1  0  0  0  0
  2  8  1  1  0  0  0
  3  4  1  0  0  0  0
  3  2  1  0  0  0  0
  5  4  1  0  0  0  0
  5  6  1  0  0  0  0
  5 11  1  0  0  0  0
  6 13  1  6  0  0  0
  6 26  1  0  0  0  0
  6  1  1  0  0  0  0
  9  3  1  0  0  0  0
 10  3  1  0  0  0  0
 12  5  1  0  0  0  0
 14 19  1  0  0  0  0
 14 22  1  0  0  0  0
 15 14  2  0  0  0  0
 16 17  2  0  0  0  0
 16 15  1  0  0  0  0
 17 18  1  0  0  0  0
 18  2  1  0  0  0  0
 18 19  2  0  0  0  0
 20 15  1  0  0  0  0
 21 16  1  0  0  0  0
 22 23  1  0  0  0  0
 24 25  1  0  0  0  0
 28 27  1  0  0  0  0
 29 28  1  0  0  0  0
 29 26  1  0  0  0  0
 30 29  2  0  0  0  0
 31 32  2  0  0  0  0
 31 30  1  0  0  0  0
 32 33  1  0  0  0  0
 33 37  1  0  0  0  0
 33 28  2  0  0  0  0
 34 30  1  0  0  0  0
 35 31  1  0  0  0  0
 36 32  1  0  0  0  0
 37 38  1  0  0  0  0
 38 39  1  0  0  0  0
 40 38  2  0  0  0  0
 40 41  1  0  0  0  0
 42 40  1  0  0  0  0
 43 42  1  0  0  0  0
 44 42  1  0  0  0  0
 44 37  2  0  0  0  0
M  END
>  <minimizedAffinity>
-6.135221

$$$$
