
 OpenBabel03242519183D

 42 45  0  0  1  0  0  0  0  0999 V2000
   48.0000   32.2620   39.1200 C   0  0  0  0  0  0  0  0  0  0  0  0
   47.8960   31.1450   39.1400 H   0  0  0  0  0  0  0  0  0  0  0  0
   47.0580   32.6170   38.6580 H   0  0  0  0  0  0  0  0  0  0  0  0
   45.5130   31.9250   40.7070 Cl  0  0  0  0  0  0  0  0  0  0  0  0
   46.9610   32.6330   41.3700 C   0  0  0  0  0  0  0  0  0  0  0  0
   48.0510   32.7300   40.5270 C   0  0  0  0  0  0  0  0  0  0  0  0
   49.1950   33.2740   41.0300 C   0  0  0  0  0  0  0  0  0  0  0  0
   49.2810   33.7200   42.3380 C   0  0  0  0  0  0  0  0  0  0  0  0
   48.1580   33.6110   43.1770 C   0  0  0  0  0  0  0  0  0  0  0  0
   46.9920   33.0540   42.6570 C   0  0  0  0  0  0  0  0  0  0  0  0
   50.1300   33.4290   40.5330 H   0  0  0  0  0  0  0  0  0  0  0  0
   50.1420   34.1610   42.8180 H   0  0  0  0  0  0  0  0  0  0  0  0
   48.1890   33.9510   44.2090 H   0  0  0  0  0  0  0  0  0  0  0  0
   45.8450   32.9160   43.4260 O   0  0  0  0  0  0  0  0  0  0  0  0
   45.3050   33.9690   44.1500 C   0  0  0  0  0  0  0  0  0  0  0  0
   45.2100   34.4990   45.4180 C   0  0  0  0  0  0  0  0  0  0  0  0
   45.7200   33.9350   46.1620 H   0  0  0  0  0  0  0  0  0  0  0  0
   44.4480   35.6440   45.3200 C   0  0  0  0  0  0  0  0  0  0  0  0
   44.2610   36.2090   46.2240 H   0  0  0  0  0  0  0  0  0  0  0  0
   44.0900   35.8020   44.0150 N   0  0  0  0  0  0  0  0  0  0  0  0
   43.5050   36.6180   43.7330 H   0  0  0  0  0  0  0  0  0  0  0  0
   44.6060   34.7910   43.3130 N   0  0  0  0  0  0  0  0  0  0  0  0
   49.1790   32.6610   38.3090 C   0  0  0  0  0  0  0  0  0  0  0  0
   48.8330   33.1190   37.3590 H   0  0  0  0  0  0  0  0  0  0  0  0
   49.7860   33.4280   38.8130 H   0  0  0  0  0  0  0  0  0  0  0  0
   49.9750   31.4830   37.9680 C   0  0  0  0  0  0  0  0  0  0  0  0
   49.7250   30.7280   36.8420 C   0  0  0  0  0  0  0  0  0  0  0  0
   50.4770   29.5970   36.5250 C   0  0  0  0  0  0  0  0  0  0  0  0
   51.4760   29.2810   37.3940 N   0  0  0  0  0  0  0  0  0  0  0  0
   51.7030   30.0200   38.4750 C   0  0  0  0  0  0  0  0  0  0  0  0
   50.9620   31.1020   38.7530 N   0  0  0  0  0  0  0  0  0  0  0  0
   48.9140   31.0310   36.1870 H   0  0  0  0  0  0  0  0  0  0  0  0
   50.2620   29.0200   35.6340 H   0  0  0  0  0  0  0  0  0  0  0  0
   52.7800   29.6590   39.4530 C   0  0  2  0  0  0  0  0  0  0  0  0
   53.4850   30.7220   40.1890 C   0  0  0  0  0  0  0  0  0  0  0  0
   54.1890   29.9830   39.0490 C   0  0  2  0  0  0  0  0  0  0  0  0
   52.6260   28.6290   39.8570 H   0  0  0  0  0  0  0  0  0  0  0  0
   53.8450   30.4850   41.2170 H   0  0  0  0  0  0  0  0  0  0  0  0
   53.1500   31.7610   40.0170 H   0  0  0  0  0  0  0  0  0  0  0  0
   54.9630   29.2390   39.3320 H   0  0  0  0  0  0  0  0  0  0  0  0
   54.5630   30.9460   37.6110 S   0  0  0  0  0  0  0  0  0  0  0  0
   53.3710   31.3060   36.9540 H   0  0  0  0  0  0  0  0  0  0  0  0
  1  2  1  0  0  0  0
  1  6  1  0  0  0  0
  3  1  1  0  0  0  0
  4  5  1  0  0  0  0
  5 10  1  0  0  0  0
  6  7  1  0  0  0  0
  6  5  2  0  0  0  0
  7  8  2  0  0  0  0
  8 12  1  0  0  0  0
  8  9  1  0  0  0  0
  9 13  1  0  0  0  0
 10  9  2  0  0  0  0
 10 14  1  0  0  0  0
 11  7  1  0  0  0  0
 14 15  1  0  0  0  0
 15 16  1  0  0  0  0
 16 17  1  0  0  0  0
 18 16  2  0  0  0  0
 18 19  1  0  0  0  0
 20 18  1  0  0  0  0
 21 20  1  0  0  0  0
 22 20  1  0  0  0  0
 22 15  2  0  0  0  0
 23 25  1  0  0  0  0
 23  1  1  0  0  0  0
 24 23  1  0  0  0  0
 26 23  1  0  0  0  0
 26 31  1  0  0  0  0
 27 26  2  0  0  0  0
 28 27  1  0  0  0  0
 28 29  2  0  0  0  0
 29 30  1  0  0  0  0
 30 31  2  0  0  0  0
 30 34  1  0  0  0  0
 32 27  1  0  0  0  0
 33 28  1  0  0  0  0
 34 37  1  1  0  0  0
 34 35  1  0  0  0  0
 35 38  1  0  0  0  0
 36 40  1  1  0  0  0
 36 34  1  0  0  0  0
 36 35  1  0  0  0  0
 39 35  1  0  0  0  0
 41 36  1  0  0  0  0
 42 41  1  0  0  0  0
M  END
>  <minimizedAffinity>
-4.15671635

>  <minimizedRMSD>
4.18606853

$$$$
