
 OpenBabel03242518283D

 20 21  0  0  0  0  0  0  0  0999 V2000
   47.5620   34.7400   42.0170 C   0  0  0  0  0  0  0  0  0  0  0  0
   48.3250   35.6630   41.6470 O   0  0  0  0  0  0  0  0  0  0  0  0
   46.6350   34.7510   43.0930 C   0  0  0  0  0  0  0  0  0  0  0  0
   45.6810   35.7640   42.9850 C   0  0  0  0  0  0  0  0  0  0  0  0
   44.7250   35.8420   44.0150 C   0  0  0  0  0  0  0  0  0  0  0  0
   44.7850   34.9390   45.0370 N   0  0  0  0  0  0  0  0  0  0  0  0
   45.7410   33.9770   45.0790 C   0  0  0  0  0  0  0  0  0  0  0  0
   46.6610   33.8910   44.1010 N   0  0  0  0  0  0  0  0  0  0  0  0
   45.6040   36.4920   42.1960 H   0  0  0  0  0  0  0  0  0  0  0  0
   43.9490   36.5880   44.0240 H   0  0  0  0  0  0  0  0  0  0  0  0
   45.6630   33.3340   45.9470 H   0  0  0  0  0  0  0  0  0  0  0  0
   47.6260   33.5440   41.2850 O   0  0  0  0  0  0  0  0  0  0  0  0
   47.3050   33.5730   39.9110 C   0  0  0  0  0  0  0  0  0  0  0  0
   48.1300   33.7460   38.8200 C   0  0  0  0  0  0  0  0  0  0  0  0
   49.2020   33.8890   38.9180 H   0  0  0  0  0  0  0  0  0  0  0  0
   47.3030   33.6900   37.7160 C   0  0  0  0  0  0  0  0  0  0  0  0
   47.6820   33.7970   36.6970 H   0  0  0  0  0  0  0  0  0  0  0  0
   46.0230   33.4900   38.1370 N   0  0  0  0  0  0  0  0  0  0  0  0
   45.2740   33.4240   37.4140 H   0  0  0  0  0  0  0  0  0  0  0  0
   46.0210   33.4180   39.4700 N   0  0  0  0  0  0  0  0  0  0  0  0
  1  3  1  0  0  0  0
  2  1  2  0  0  0  0
  3  8  1  0  0  0  0
  4  3  2  0  0  0  0
  4  5  1  0  0  0  0
  5 10  1  0  0  0  0
  5  6  2  0  0  0  0
  6  7  1  0  0  0  0
  7 11  1  0  0  0  0
  8  7  2  0  0  0  0
  9  4  1  0  0  0  0
 12  1  1  0  0  0  0
 13 12  1  0  0  0  0
 14 15  1  0  0  0  0
 14 13  1  0  0  0  0
 16 18  1  0  0  0  0
 16 14  2  0  0  0  0
 17 16  1  0  0  0  0
 18 20  1  0  0  0  0
 19 18  1  0  0  0  0
 20 13  2  0  0  0  0
M  END
>  <minimizedAffinity>
-3.93773341

>  <minimizedRMSD>
0.901085973

$$$$
