
 OpenBabel03252504223D

 31 34  0  0  0  0  0  0  0  0999 V2000
   46.9280   33.3990   39.2420 C   0  0  0  0  0  0  0  0  0  0  0  0
   48.2820   33.1270   39.4030 C   0  0  0  0  0  0  0  0  0  0  0  0
   48.8600   33.3470   40.6770 C   0  0  0  0  0  0  0  0  0  0  0  0
   48.0310   33.8150   41.6560 N   0  0  0  0  0  0  0  0  0  0  0  0
   46.7150   34.0660   41.4470 C   0  0  0  0  0  0  0  0  0  0  0  0
   46.1780   33.8570   40.2460 N   0  0  0  0  0  0  0  0  0  0  0  0
   45.9540   34.5540   42.5450 N   0  0  0  0  0  0  0  0  0  0  0  0
   45.0620   35.5760   42.4950 C   0  0  0  0  0  0  0  0  0  0  0  0
   44.5450   35.7420   43.7470 N   0  0  0  0  0  0  0  0  0  0  0  0
   45.1260   34.8270   44.5290 C   0  0  0  0  0  0  0  0  0  0  0  0
   45.0200   34.5060   45.8580 C   0  0  0  0  0  0  0  0  0  0  0  0
   45.7240   33.5260   46.4150 N   0  0  0  0  0  0  0  0  0  0  0  0
   46.5990   32.7750   45.7080 C   0  0  0  0  0  0  0  0  0  0  0  0
   46.6920   33.1040   44.3980 N   0  0  0  0  0  0  0  0  0  0  0  0
   46.0170   34.0670   43.7910 C   0  0  0  0  0  0  0  0  0  0  0  0
   48.9670   32.7560   38.6510 H   0  0  0  0  0  0  0  0  0  0  0  0
   49.8950   33.1520   40.8510 H   0  0  0  0  0  0  0  0  0  0  0  0
   44.7680   36.1910   41.6440 H   0  0  0  0  0  0  0  0  0  0  0  0
   47.1740   31.9770   46.1560 H   0  0  0  0  0  0  0  0  0  0  0  0
   44.1560   35.1920   46.7360 N   0  0  0  0  0  0  0  0  0  0  0  0
   43.3540   34.8030   47.3000 H   0  0  0  0  0  0  0  0  0  0  0  0
   44.3970   36.2200   46.7900 H   0  0  0  0  0  0  0  0  0  0  0  0
   46.2810   33.0950   37.5770 S   0  0  0  0  0  0  0  0  0  0  0  0
   47.6350   32.5590   36.5430 C   0  0  0  0  0  0  0  0  0  0  0  0
   47.8440   31.1970   36.3010 C   0  0  0  0  0  0  0  0  0  0  0  0
   47.3190   30.2900   36.6290 H   0  0  0  0  0  0  0  0  0  0  0  0
   48.9610   31.0660   35.4690 C   0  0  0  0  0  0  0  0  0  0  0  0
   49.4750   30.2270   35.0360 H   0  0  0  0  0  0  0  0  0  0  0  0
   49.3820   32.3460   35.2430 N   0  0  0  0  0  0  0  0  0  0  0  0
   50.2040   32.6780   34.6580 H   0  0  0  0  0  0  0  0  0  0  0  0
   48.6100   33.2330   35.8690 N   0  0  0  0  0  0  0  0  0  0  0  0
  1  2  2  0  0  0  0
  1  6  1  0  0  0  0
  2  3  1  0  0  0  0
  3 17  1  0  0  0  0
  3  4  2  0  0  0  0
  5  4  1  0  0  0  0
  5  7  1  0  0  0  0
  6  5  2  0  0  0  0
  7 15  1  0  0  0  0
  8  7  1  0  0  0  0
  8  9  2  0  0  0  0
  9 10  1  0  0  0  0
 10 11  1  0  0  0  0
 11 12  2  0  0  0  0
 11 20  1  0  0  0  0
 13 19  1  0  0  0  0
 13 12  1  0  0  0  0
 14 13  2  0  0  0  0
 15 14  1  0  0  0  0
 15 10  2  0  0  0  0
 16  2  1  0  0  0  0
 18  8  1  0  0  0  0
 20 22  1  0  0  0  0
 20 21  1  0  0  0  0
 23  1  1  0  0  0  0
 24 23  1  0  0  0  0
 25 24  1  0  0  0  0
 25 26  1  0  0  0  0
 27 25  2  0  0  0  0
 28 27  1  0  0  0  0
 29 27  1  0  0  0  0
 29 31  1  0  0  0  0
 30 29  1  0  0  0  0
 31 24  2  0  0  0  0
M  END
>  <minimizedAffinity>
-5.9709506

>  <minimizedRMSD>
1.31851161

$$$$
