
 OpenBabel03242518283D

 20 21  0  0  0  0  0  0  0  0999 V2000
   48.7400   33.4990   42.5900 C   0  0  0  0  0  0  0  0  0  0  0  0
   49.0340   34.6220   43.0620 O   0  0  0  0  0  0  0  0  0  0  0  0
   48.9870   33.0090   41.2800 C   0  0  0  0  0  0  0  0  0  0  0  0
   50.1060   32.1780   41.2070 C   0  0  0  0  0  0  0  0  0  0  0  0
   50.4200   31.6520   39.9390 C   0  0  0  0  0  0  0  0  0  0  0  0
   49.6250   31.9780   38.8780 N   0  0  0  0  0  0  0  0  0  0  0  0
   48.5500   32.7930   39.0200 C   0  0  0  0  0  0  0  0  0  0  0  0
   48.2400   33.3040   40.2260 N   0  0  0  0  0  0  0  0  0  0  0  0
   50.7540   31.9000   42.0210 H   0  0  0  0  0  0  0  0  0  0  0  0
   51.2620   31.0010   39.7800 H   0  0  0  0  0  0  0  0  0  0  0  0
   48.0160   32.9630   38.0940 H   0  0  0  0  0  0  0  0  0  0  0  0
   48.0840   32.6090   43.4540 O   0  0  0  0  0  0  0  0  0  0  0  0
   46.9710   33.0740   44.1880 C   0  0  0  0  0  0  0  0  0  0  0  0
   46.7960   33.1640   45.5530 C   0  0  0  0  0  0  0  0  0  0  0  0
   47.5630   32.8600   46.2590 H   0  0  0  0  0  0  0  0  0  0  0  0
   45.5300   33.6840   45.7320 C   0  0  0  0  0  0  0  0  0  0  0  0
   45.1090   33.8690   46.7220 H   0  0  0  0  0  0  0  0  0  0  0  0
   44.9670   33.8970   44.5090 N   0  0  0  0  0  0  0  0  0  0  0  0
   44.0020   34.2900   44.4770 H   0  0  0  0  0  0  0  0  0  0  0  0
   45.8410   33.5270   43.5700 N   0  0  0  0  0  0  0  0  0  0  0  0
  1  2  2  0  0  0  0
  1 12  1  0  0  0  0
  3  1  1  0  0  0  0
  4  3  1  0  0  0  0
  4  9  1  0  0  0  0
  5  4  2  0  0  0  0
  6  7  2  0  0  0  0
  6  5  1  0  0  0  0
  7  8  1  0  0  0  0
  8  3  2  0  0  0  0
 10  5  1  0  0  0  0
 11  7  1  0  0  0  0
 12 13  1  0  0  0  0
 13 14  1  0  0  0  0
 14 16  2  0  0  0  0
 14 15  1  0  0  0  0
 16 17  1  0  0  0  0
 18 16  1  0  0  0  0
 19 18  1  0  0  0  0
 20 13  2  0  0  0  0
 20 18  1  0  0  0  0
M  END
>  <minimizedAffinity>
-3.18331909

>  <minimizedRMSD>
6.07115459

$$$$
