
 OpenBabel03242514193D

 48 50  0  0  0  0  0  0  0  0999 V2000
   46.1570   34.5680   43.6100 C   0  0  0  0  0  0  0  0  0  0  0  0
   46.1550   33.8000   44.7500 C   0  0  0  0  0  0  0  0  0  0  0  0
   45.3260   34.1900   45.7610 C   0  0  0  0  0  0  0  0  0  0  0  0
   44.5530   35.2880   45.6120 N   0  0  0  0  0  0  0  0  0  0  0  0
   44.5530   36.0270   44.5160 C   0  0  0  0  0  0  0  0  0  0  0  0
   45.3570   35.6560   43.5290 N   0  0  0  0  0  0  0  0  0  0  0  0
   45.1800   33.7300   46.7290 H   0  0  0  0  0  0  0  0  0  0  0  0
   43.9520   36.9160   44.3440 H   0  0  0  0  0  0  0  0  0  0  0  0
   46.9980   34.1110   42.4960 C   0  0  0  0  0  0  0  0  0  0  0  0
   48.3850   34.6800   42.5880 C   0  0  0  0  0  0  0  0  0  0  0  0
   48.6980   35.5730   41.4710 C   0  0  0  0  0  0  0  0  0  0  0  0
   48.5100   34.8860   40.1330 C   0  0  0  0  0  0  0  0  0  0  0  0
   47.2570   34.1020   40.0450 C   0  0  0  0  0  0  0  0  0  0  0  0
   46.3280   34.3970   41.2010 C   0  0  0  0  0  0  0  0  0  0  0  0
   47.1760   33.0260   42.6180 H   0  0  0  0  0  0  0  0  0  0  0  0
   49.1640   33.8990   42.6530 H   0  0  0  0  0  0  0  0  0  0  0  0
   48.4590   35.2440   43.5420 H   0  0  0  0  0  0  0  0  0  0  0  0
   47.9410   36.4110   41.4800 H   0  0  0  0  0  0  0  0  0  0  0  0
   49.6930   36.0160   41.4740 H   0  0  0  0  0  0  0  0  0  0  0  0
   48.6170   35.6180   39.2900 H   0  0  0  0  0  0  0  0  0  0  0  0
   49.3870   34.1860   40.0110 H   0  0  0  0  0  0  0  0  0  0  0  0
   46.6850   34.2170   39.0960 H   0  0  0  0  0  0  0  0  0  0  0  0
   47.4670   32.9990   40.1140 H   0  0  0  0  0  0  0  0  0  0  0  0
   45.4300   33.7500   41.1260 H   0  0  0  0  0  0  0  0  0  0  0  0
   46.0540   35.4830   41.1390 H   0  0  0  0  0  0  0  0  0  0  0  0
   46.8340   32.6990   45.0790 O   0  0  0  0  0  0  0  0  0  0  0  0
   47.2430   32.1440   46.2540 C   0  0  0  0  0  0  0  0  0  0  0  0
   48.3490   32.3480   46.3580 H   0  0  0  0  0  0  0  0  0  0  0  0
   46.8050   32.4980   47.1920 H   0  0  0  0  0  0  0  0  0  0  0  0
   47.1330   30.6320   46.3030 C   0  0  0  0  0  0  0  0  0  0  0  0
   48.0810   30.2130   45.8800 H   0  0  0  0  0  0  0  0  0  0  0  0
   47.1380   30.3260   47.3870 H   0  0  0  0  0  0  0  0  0  0  0  0
   45.9840   30.1390   45.5850 N   0  0  0  0  0  0  0  0  0  0  0  0
   46.2710   29.2700   45.0750 H   0  0  0  0  0  0  0  0  0  0  0  0
   44.8370   29.5680   46.7710 S   0  0  0  0  0  0  0  0  0  0  0  0
   43.5880   29.0630   46.1190 O   0  0  0  0  0  0  0  0  0  0  0  0
   43.0700   29.5450   45.4490 H   0  0  0  0  0  0  0  0  0  0  0  0
   44.5310   30.7140   47.6800 O   0  0  0  0  0  0  0  0  0  0  0  0
   45.0170   30.8530   48.5300 H   0  0  0  0  0  0  0  0  0  0  0  0
   45.5130   28.3470   47.6980 O   0  0  0  0  0  0  0  0  0  0  0  0
   44.9160   27.0930   47.6260 C   0  0  0  0  0  0  0  0  0  0  0  0
   44.7070   26.0290   46.7550 C   0  0  0  0  0  0  0  0  0  0  0  0
   45.1510   26.1990   45.7810 H   0  0  0  0  0  0  0  0  0  0  0  0
   43.9750   25.0770   47.4600 C   0  0  0  0  0  0  0  0  0  0  0  0
   43.7350   24.1820   46.9020 H   0  0  0  0  0  0  0  0  0  0  0  0
   43.7570   25.5580   48.6990 N   0  0  0  0  0  0  0  0  0  0  0  0
   43.2190   24.9800   49.3800 H   0  0  0  0  0  0  0  0  0  0  0  0
   44.3180   26.7650   48.8070 N   0  0  0  0  0  0  0  0  0  0  0  0
  1  2  1  0  0  0  0
  2 26  1  0  0  0  0
  2  3  2  0  0  0  0
  3  7  1  0  0  0  0
  4  3  1  0  0  0  0
  5  4  2  0  0  0  0
  6  1  2  0  0  0  0
  6  5  1  0  0  0  0
  8  5  1  0  0  0  0
  9 10  1  0  0  0  0
  9 15  1  0  0  0  0
  9  1  1  0  0  0  0
 10 16  1  0  0  0  0
 10 17  1  0  0  0  0
 11 19  1  0  0  0  0
 11 18  1  0  0  0  0
 11 10  1  0  0  0  0
 12 11  1  0  0  0  0
 13 23  1  0  0  0  0
 13 12  1  0  0  0  0
 13 14  1  0  0  0  0
 14  9  1  0  0  0  0
 20 12  1  0  0  0  0
 21 12  1  0  0  0  0
 22 13  1  0  0  0  0
 24 14  1  0  0  0  0
 25 14  1  0  0  0  0
 26 27  1  0  0  0  0
 27 30  1  0  0  0  0
 27 28  1  0  0  0  0
 27 29  1  0  0  0  0
 30 32  1  0  0  0  0
 31 30  1  0  0  0  0
 33 30  1  0  0  0  0
 33 35  1  0  0  0  0
 34 33  1  0  0  0  0
 35 38  1  0  0  0  0
 35 40  1  0  0  0  0
 36 35  1  0  0  0  0
 37 36  1  0  0  0  0
 38 39  1  0  0  0  0
 41 40  1  0  0  0  0
 41 48  2  0  0  0  0
 42 44  2  0  0  0  0
 42 41  1  0  0  0  0
 43 42  1  0  0  0  0
 44 46  1  0  0  0  0
 45 44  1  0  0  0  0
 46 48  1  0  0  0  0
 46 47  1  0  0  0  0
M  END
>  <minimizedAffinity>
-5.90057945

>  <minimizedRMSD>
1.38765657

$$$$
