
 OpenBabel03252509083D

 40 43  0  0  0  0  0  0  0  0999 V2000
   47.5620   31.7800   38.9190 C   0  0  0  0  0  0  0  0  0  0  0  0
   47.1560   33.0800   38.9480 C   0  0  0  0  0  0  0  0  0  0  0  0
   47.8210   34.0320   38.1940 C   0  0  0  0  0  0  0  0  0  0  0  0
   48.8930   33.6680   37.4130 C   0  0  0  0  0  0  0  0  0  0  0  0
   49.3400   32.3480   37.3540 C   0  0  0  0  0  0  0  0  0  0  0  0
   48.6500   31.4060   38.1260 C   0  0  0  0  0  0  0  0  0  0  0  0
   47.5440   35.0590   38.1840 H   0  0  0  0  0  0  0  0  0  0  0  0
   49.4830   34.3130   36.7910 H   0  0  0  0  0  0  0  0  0  0  0  0
   50.1580   31.9930   36.7740 H   0  0  0  0  0  0  0  0  0  0  0  0
   48.9730   30.3610   38.1050 H   0  0  0  0  0  0  0  0  0  0  0  0
   45.3880   35.4030   43.2090 Cl  0  0  0  0  0  0  0  0  0  0  0  0
   45.2000   34.6230   41.6540 C   0  0  0  0  0  0  0  0  0  0  0  0
   46.2790   34.1940   40.9520 C   0  0  0  0  0  0  0  0  0  0  0  0
   46.0260   33.5720   39.7400 C   0  0  0  0  0  0  0  0  0  0  0  0
   44.7500   33.3960   39.2660 C   0  0  0  0  0  0  0  0  0  0  0  0
   43.6850   33.8330   39.9830 C   0  0  0  0  0  0  0  0  0  0  0  0
   43.9200   34.4530   41.1920 C   0  0  0  0  0  0  0  0  0  0  0  0
   44.6050   32.9010   38.3040 H   0  0  0  0  0  0  0  0  0  0  0  0
   42.6980   33.6740   39.5720 H   0  0  0  0  0  0  0  0  0  0  0  0
   43.0520   34.7930   41.7480 H   0  0  0  0  0  0  0  0  0  0  0  0
   49.5770   35.7500   41.9160 C   0  0  0  0  0  0  0  0  0  0  0  0
   48.2970   35.5720   41.3810 C   0  0  0  0  0  0  0  0  0  0  0  0
   47.6020   34.3880   41.5000 C   0  0  0  0  0  0  0  0  0  0  0  0
   48.2650   33.4150   42.1800 N   0  0  0  0  0  0  0  0  0  0  0  0
   49.4870   33.5740   42.6950 C   0  0  0  0  0  0  0  0  0  0  0  0
   50.1360   34.7360   42.5620 N   0  0  0  0  0  0  0  0  0  0  0  0
   49.9980   36.7310   41.7430 H   0  0  0  0  0  0  0  0  0  0  0  0
   47.8000   36.3730   40.8440 H   0  0  0  0  0  0  0  0  0  0  0  0
   49.9250   32.7350   43.2190 H   0  0  0  0  0  0  0  0  0  0  0  0
   46.7490   30.5890   39.7880 S   0  0  0  0  0  0  0  0  0  0  0  0
   45.4680   30.1560   39.1090 O   0  0  0  0  0  0  0  0  0  0  0  0
   47.6670   29.3210   39.6260 O   0  0  0  0  0  0  0  0  0  0  0  0
   46.4160   30.6600   41.4730 C   0  0  0  0  0  0  0  0  0  0  0  0
   47.3400   30.1060   42.3970 C   0  0  0  0  0  0  0  0  0  0  0  0
   48.3130   29.6140   42.1880 H   0  0  0  0  0  0  0  0  0  0  0  0
   46.9580   30.2030   43.7130 C   0  0  0  0  0  0  0  0  0  0  0  0
   47.4460   29.8800   44.6040 H   0  0  0  0  0  0  0  0  0  0  0  0
   45.7860   30.8240   43.6010 N   0  0  0  0  0  0  0  0  0  0  0  0
   45.1080   31.1180   44.3680 H   0  0  0  0  0  0  0  0  0  0  0  0
   45.5070   31.0640   42.3770 N   0  0  0  0  0  0  0  0  0  0  0  0
  1  2  1  0  0  0  0
  1 30  1  0  0  0  0
  2 14  1  0  0  0  0
  3  2  2  0  0  0  0
  4  3  1  0  0  0  0
  5  4  2  0  0  0  0
  5  6  1  0  0  0  0
  6  1  2  0  0  0  0
  7  3  1  0  0  0  0
  8  4  1  0  0  0  0
  9  5  1  0  0  0  0
 10  6  1  0  0  0  0
 12 11  1  0  0  0  0
 13 23  1  0  0  0  0
 13 12  2  0  0  0  0
 14 13  1  0  0  0  0
 15 14  2  0  0  0  0
 15 16  1  0  0  0  0
 16 17  2  0  0  0  0
 17 12  1  0  0  0  0
 17 20  1  0  0  0  0
 18 15  1  0  0  0  0
 19 16  1  0  0  0  0
 21 26  1  0  0  0  0
 22 23  1  0  0  0  0
 22 21  2  0  0  0  0
 23 24  2  0  0  0  0
 24 25  1  0  0  0  0
 25 29  1  0  0  0  0
 26 25  2  0  0  0  0
 27 21  1  0  0  0  0
 28 22  1  0  0  0  0
 30 33  1  0  0  0  0
 31 30  2  0  0  0  0
 32 30  2  0  0  0  0
 33 40  2  0  0  0  0
 33 34  1  0  0  0  0
 34 36  2  0  0  0  0
 35 34  1  0  0  0  0
 36 37  1  0  0  0  0
 38 36  1  0  0  0  0
 38 39  1  0  0  0  0
 40 38  1  0  0  0  0
M  END
>  <minimizedAffinity>
-4.64391136

>  <minimizedRMSD>
1.03141391

$$$$
