
 OpenBabel03242519243D

 39 42  0  0  0  0  0  0  0  0999 V2000
   47.9140   33.7910   42.8900 C   0  0  0  0  0  0  0  0  0  0  0  0
   48.5840   35.0050   42.6590 C   0  0  0  0  0  0  0  0  0  0  0  0
   49.9540   35.0080   42.3400 C   0  0  0  0  0  0  0  0  0  0  0  0
   50.5570   33.7780   42.2760 N   0  0  0  0  0  0  0  0  0  0  0  0
   49.8710   32.6160   42.5080 C   0  0  0  0  0  0  0  0  0  0  0  0
   48.5760   32.6330   42.8080 N   0  0  0  0  0  0  0  0  0  0  0  0
   48.1800   36.0050   42.6900 H   0  0  0  0  0  0  0  0  0  0  0  0
   50.5160   35.9040   42.1540 H   0  0  0  0  0  0  0  0  0  0  0  0
   46.4820   33.9120   43.2200 C   0  0  0  0  0  0  0  0  0  0  0  0
   45.7800   34.9270   42.4340 C   0  0  0  0  0  0  0  0  0  0  0  0
   45.3250   36.1090   43.2040 C   0  0  0  0  0  0  0  0  0  0  0  0
   44.5230   35.7470   44.4500 C   0  0  0  0  0  0  0  0  0  0  0  0
   44.9820   34.4890   45.1310 C   0  0  0  0  0  0  0  0  0  0  0  0
   46.4120   34.1700   44.7360 C   0  0  0  0  0  0  0  0  0  0  0  0
   46.0030   32.8920   43.1220 H   0  0  0  0  0  0  0  0  0  0  0  0
   46.4120   35.2810   41.6120 H   0  0  0  0  0  0  0  0  0  0  0  0
   44.8830   34.4690   41.9440 H   0  0  0  0  0  0  0  0  0  0  0  0
   44.5650   36.6300   42.5490 H   0  0  0  0  0  0  0  0  0  0  0  0
   46.0600   36.8750   43.4370 H   0  0  0  0  0  0  0  0  0  0  0  0
   43.4340   35.6860   44.2550 H   0  0  0  0  0  0  0  0  0  0  0  0
   44.6550   36.5720   45.1870 H   0  0  0  0  0  0  0  0  0  0  0  0
   44.9340   34.5290   46.2290 H   0  0  0  0  0  0  0  0  0  0  0  0
   44.3560   33.6520   44.7100 H   0  0  0  0  0  0  0  0  0  0  0  0
   46.7470   33.2500   45.2210 H   0  0  0  0  0  0  0  0  0  0  0  0
   47.0640   35.0060   45.0180 H   0  0  0  0  0  0  0  0  0  0  0  0
   50.6680   31.3960   42.4050 C   0  0  0  0  0  0  0  0  0  0  0  0
   51.5220   31.2970   41.3510 N   0  0  0  0  0  0  0  0  0  0  0  0
   52.1680   30.1180   41.4200 C   0  0  0  0  0  0  0  0  0  0  0  0
   51.7020   29.4770   42.5410 N   0  0  0  0  0  0  0  0  0  0  0  0
   50.7930   30.2610   43.1310 N   0  0  0  0  0  0  0  0  0  0  0  0
   52.9160   29.6900   40.7640 H   0  0  0  0  0  0  0  0  0  0  0  0
   52.0440   28.2080   43.0860 C   0  0  0  0  0  0  0  0  0  0  0  0
   52.0930   27.0980   42.2690 C   0  0  0  0  0  0  0  0  0  0  0  0
   51.9110   26.9810   41.2070 H   0  0  0  0  0  0  0  0  0  0  0  0
   52.4510   26.0260   43.0900 C   0  0  0  0  0  0  0  0  0  0  0  0
   52.5860   24.9930   42.7890 H   0  0  0  0  0  0  0  0  0  0  0  0
   52.6060   26.5080   44.3580 N   0  0  0  0  0  0  0  0  0  0  0  0
   52.8730   25.9130   45.1750 H   0  0  0  0  0  0  0  0  0  0  0  0
   52.3620   27.8070   44.3500 N   0  0  0  0  0  0  0  0  0  0  0  0
  1  9  1  0  0  0  0
  2  7  1  0  0  0  0
  2  1  2  0  0  0  0
  3  2  1  0  0  0  0
  4  3  2  0  0  0  0
  4  5  1  0  0  0  0
  5  6  2  0  0  0  0
  6  1  1  0  0  0  0
  8  3  1  0  0  0  0
  9 14  1  0  0  0  0
 10 11  1  0  0  0  0
 10  9  1  0  0  0  0
 11 19  1  0  0  0  0
 11 12  1  0  0  0  0
 12 13  1  0  0  0  0
 12 21  1  0  0  0  0
 13 22  1  0  0  0  0
 14 25  1  0  0  0  0
 14 13  1  0  0  0  0
 14 24  1  0  0  0  0
 15  9  1  0  0  0  0
 16 10  1  0  0  0  0
 17 10  1  0  0  0  0
 18 11  1  0  0  0  0
 20 12  1  0  0  0  0
 23 13  1  0  0  0  0
 26  5  1  0  0  0  0
 26 30  2  0  0  0  0
 27 28  2  0  0  0  0
 27 26  1  0  0  0  0
 28 29  1  0  0  0  0
 29 32  1  0  0  0  0
 29 30  1  0  0  0  0
 31 28  1  0  0  0  0
 32 39  2  0  0  0  0
 33 32  1  0  0  0  0
 33 35  2  0  0  0  0
 34 33  1  0  0  0  0
 35 37  1  0  0  0  0
 36 35  1  0  0  0  0
 37 38  1  0  0  0  0
 39 37  1  0  0  0  0
M  END
>  <minimizedAffinity>
-4.39916849

>  <minimizedRMSD>
0.487228572

$$$$
