
 OpenBabel03242517553D

 42 44  0  0  0  0  0  0  0  0999 V2000
   46.5020   31.3330   45.3670 O   0  0  0  0  0  0  0  0  0  0  0  0
   45.4570   30.1680   47.2740 C   0  0  0  0  0  0  0  0  0  0  0  0
   46.0550   31.2300   46.6840 C   0  0  0  0  0  0  0  0  0  0  0  0
   46.2700   32.3620   47.4450 C   0  0  0  0  0  0  0  0  0  0  0  0
   45.9050   32.4570   48.7680 C   0  0  0  0  0  0  0  0  0  0  0  0
   45.2970   31.3680   49.3530 C   0  0  0  0  0  0  0  0  0  0  0  0
   45.0770   30.2260   48.5990 C   0  0  0  0  0  0  0  0  0  0  0  0
   46.7410   33.2520   47.0500 H   0  0  0  0  0  0  0  0  0  0  0  0
   46.0760   33.3470   49.3570 H   0  0  0  0  0  0  0  0  0  0  0  0
   44.9840   31.3710   50.3890 H   0  0  0  0  0  0  0  0  0  0  0  0
   44.6010   29.3620   49.0470 H   0  0  0  0  0  0  0  0  0  0  0  0
   45.1090   28.8100   46.2320 S   0  0  0  0  0  0  0  0  0  0  0  0
   44.1680   29.1020   45.1390 O   0  0  0  0  0  0  0  0  0  0  0  0
   44.3710   27.7900   47.1340 O   0  0  0  0  0  0  0  0  0  0  0  0
   46.5420   27.9100   45.8030 C   0  0  0  0  0  0  0  0  0  0  0  0
   47.0740   27.7490   44.5420 C   0  0  0  0  0  0  0  0  0  0  0  0
   46.7080   28.1390   43.6180 H   0  0  0  0  0  0  0  0  0  0  0  0
   48.2070   26.9620   44.6840 C   0  0  0  0  0  0  0  0  0  0  0  0
   48.9050   26.6080   43.9340 H   0  0  0  0  0  0  0  0  0  0  0  0
   48.3300   26.6720   46.0110 N   0  0  0  0  0  0  0  0  0  0  0  0
   49.0620   26.0990   46.5240 H   0  0  0  0  0  0  0  0  0  0  0  0
   47.3180   27.2510   46.6770 N   0  0  0  0  0  0  0  0  0  0  0  0
   45.3010   34.2440   43.7670 C   0  0  0  0  0  0  0  0  0  0  0  0
   46.4620   34.7480   43.1500 C   0  0  0  0  0  0  0  0  0  0  0  0
   47.6490   34.0770   43.2930 C   0  0  0  0  0  0  0  0  0  0  0  0
   47.6060   32.9610   44.0320 N   0  0  0  0  0  0  0  0  0  0  0  0
   46.5210   32.4830   44.6120 C   0  0  0  0  0  0  0  0  0  0  0  0
   45.3630   33.1260   44.4800 N   0  0  0  0  0  0  0  0  0  0  0  0
   44.3650   34.7690   43.6570 H   0  0  0  0  0  0  0  0  0  0  0  0
   46.3250   35.6550   42.5890 H   0  0  0  0  0  0  0  0  0  0  0  0
   48.9110   34.4980   42.6730 C   0  0  0  0  0  0  0  0  0  0  0  0
   49.6450   34.7270   43.4570 H   0  0  0  0  0  0  0  0  0  0  0  0
   49.3110   33.6210   42.1150 H   0  0  0  0  0  0  0  0  0  0  0  0
   48.7380   35.6550   41.7380 C   0  0  0  0  0  0  0  0  0  0  0  0
   47.9890   36.3880   42.0390 H   0  0  0  0  0  0  0  0  0  0  0  0
   49.7210   36.2260   41.8020 H   0  0  0  0  0  0  0  0  0  0  0  0
   48.6150   35.2650   40.3310 C   0  0  0  0  0  0  0  0  0  0  0  0
   48.0440   34.3540   39.5530 C   0  0  0  0  0  0  0  0  0  0  0  0
   48.2230   34.1900   38.0570 C   0  0  0  0  0  0  0  0  0  0  0  0
   48.8750   35.0020   37.7310 H   0  0  0  0  0  0  0  0  0  0  0  0
   47.2150   34.3780   37.6270 H   0  0  0  0  0  0  0  0  0  0  0  0
   48.6030   33.1830   37.8300 H   0  0  0  0  0  0  0  0  0  0  0  0
  1  3  1  0  0  0  0
  2  7  1  0  0  0  0
  3  2  2  0  0  0  0
  3  4  1  0  0  0  0
  4  5  2  0  0  0  0
  5  6  1  0  0  0  0
  5  9  1  0  0  0  0
  6 10  1  0  0  0  0
  7 11  1  0  0  0  0
  7  6  2  0  0  0  0
  8  4  1  0  0  0  0
 12 14  2  0  0  0  0
 12  2  1  0  0  0  0
 13 12  2  0  0  0  0
 15 12  1  0  0  0  0
 15 22  2  0  0  0  0
 16 18  2  0  0  0  0
 16 15  1  0  0  0  0
 17 16  1  0  0  0  0
 18 20  1  0  0  0  0
 19 18  1  0  0  0  0
 20 21  1  0  0  0  0
 20 22  1  0  0  0  0
 23 28  1  0  0  0  0
 24 25  1  0  0  0  0
 24 23  2  0  0  0  0
 25 26  2  0  0  0  0
 26 27  1  0  0  0  0
 27  1  1  0  0  0  0
 28 27  2  0  0  0  0
 29 23  1  0  0  0  0
 30 24  1  0  0  0  0
 31 25  1  0  0  0  0
 31 32  1  0  0  0  0
 33 31  1  0  0  0  0
 34 36  1  0  0  0  0
 34 35  1  0  0  0  0
 34 31  1  0  0  0  0
 37 34  1  0  0  0  0
 38 37  2  0  0  0  0
 39 38  1  0  0  0  0
 40 39  1  0  0  0  0
 41 39  1  0  0  0  0
 42 39  1  0  0  0  0
M  END
>  <minimizedAffinity>
-5.5176158

>  <minimizedRMSD>
1.11131644

$$$$
