
 OpenBabel03242519183D

 42 45  0  0  1  0  0  0  0  0999 V2000
   46.5590   34.9090   42.1830 C   0  0  0  0  0  0  0  0  0  0  0  0
   45.9590   34.1710   41.5880 H   0  0  0  0  0  0  0  0  0  0  0  0
   46.2500   35.8970   41.7880 H   0  0  0  0  0  0  0  0  0  0  0  0
   44.9350   37.1630   43.2330 Cl  0  0  0  0  0  0  0  0  0  0  0  0
   45.3650   35.7820   44.2060 C   0  0  0  0  0  0  0  0  0  0  0  0
   46.1210   34.8000   43.5960 C   0  0  0  0  0  0  0  0  0  0  0  0
   46.4610   33.7090   44.3400 C   0  0  0  0  0  0  0  0  0  0  0  0
   46.0690   33.5720   45.6610 C   0  0  0  0  0  0  0  0  0  0  0  0
   45.3000   34.5840   46.2590 C   0  0  0  0  0  0  0  0  0  0  0  0
   44.9570   35.6960   45.4940 C   0  0  0  0  0  0  0  0  0  0  0  0
   47.0360   32.8570   44.0430 H   0  0  0  0  0  0  0  0  0  0  0  0
   46.2900   32.7450   46.3210 H   0  0  0  0  0  0  0  0  0  0  0  0
   44.9750   34.5100   47.2940 H   0  0  0  0  0  0  0  0  0  0  0  0
   44.1990   36.7360   46.0190 O   0  0  0  0  0  0  0  0  0  0  0  0
   44.6870   38.0310   46.1220 C   0  0  0  0  0  0  0  0  0  0  0  0
   45.2830   38.9170   46.9940 C   0  0  0  0  0  0  0  0  0  0  0  0
   45.4580   38.5170   47.9630 H   0  0  0  0  0  0  0  0  0  0  0  0
   45.4700   40.0960   46.3050 C   0  0  0  0  0  0  0  0  0  0  0  0
   45.9300   40.9230   46.8260 H   0  0  0  0  0  0  0  0  0  0  0  0
   44.9940   39.9250   45.0390 N   0  0  0  0  0  0  0  0  0  0  0  0
   45.0440   40.7100   44.3540 H   0  0  0  0  0  0  0  0  0  0  0  0
   44.5230   38.6800   44.9310 N   0  0  0  0  0  0  0  0  0  0  0  0
   48.0130   34.6800   41.9830 C   0  0  0  0  0  0  0  0  0  0  0  0
   48.4450   35.5370   41.4260 H   0  0  0  0  0  0  0  0  0  0  0  0
   48.5580   34.6310   42.9370 H   0  0  0  0  0  0  0  0  0  0  0  0
   48.2250   33.4780   41.1790 C   0  0  0  0  0  0  0  0  0  0  0  0
   48.3150   33.5200   39.8040 C   0  0  0  0  0  0  0  0  0  0  0  0
   48.5050   32.3700   39.0370 C   0  0  0  0  0  0  0  0  0  0  0  0
   48.5980   31.2010   39.7270 N   0  0  0  0  0  0  0  0  0  0  0  0
   48.5090   31.1780   41.0530 C   0  0  0  0  0  0  0  0  0  0  0  0
   48.3260   32.3010   41.7630 N   0  0  0  0  0  0  0  0  0  0  0  0
   48.2320   34.4840   39.3100 H   0  0  0  0  0  0  0  0  0  0  0  0
   48.5720   32.4290   37.9570 H   0  0  0  0  0  0  0  0  0  0  0  0
   48.5780   29.8900   41.8170 C   0  0  2  0  0  0  0  0  0  0  0  0
   48.9150   29.9080   43.2500 C   0  0  0  0  0  0  0  0  0  0  0  0
   49.9450   29.4260   42.2260 C   0  0  2  0  0  0  0  0  0  0  0  0
   47.9310   29.1100   41.3460 H   0  0  0  0  0  0  0  0  0  0  0  0
   48.4650   29.1190   43.8950 H   0  0  0  0  0  0  0  0  0  0  0  0
   49.0620   30.8970   43.7210 H   0  0  0  0  0  0  0  0  0  0  0  0
   50.1280   28.3330   42.1700 H   0  0  0  0  0  0  0  0  0  0  0  0
   51.3850   30.4390   42.0340 S   0  0  0  0  0  0  0  0  0  0  0  0
   51.0300   31.6670   41.4470 H   0  0  0  0  0  0  0  0  0  0  0  0
  1  6  1  0  0  0  0
  2  1  1  0  0  0  0
  3  1  1  0  0  0  0
  4  5  1  0  0  0  0
  5 10  1  0  0  0  0
  6  5  2  0  0  0  0
  6  7  1  0  0  0  0
  7  8  2  0  0  0  0
  8  9  1  0  0  0  0
  8 12  1  0  0  0  0
  9 13  1  0  0  0  0
 10 14  1  0  0  0  0
 10  9  2  0  0  0  0
 11  7  1  0  0  0  0
 14 15  1  0  0  0  0
 15 16  1  0  0  0  0
 16 17  1  0  0  0  0
 18 19  1  0  0  0  0
 18 16  2  0  0  0  0
 20 18  1  0  0  0  0
 21 20  1  0  0  0  0
 22 20  1  0  0  0  0
 22 15  2  0  0  0  0
 23  1  1  0  0  0  0
 23 25  1  0  0  0  0
 24 23  1  0  0  0  0
 26 31  1  0  0  0  0
 26 23  1  0  0  0  0
 27 26  2  0  0  0  0
 28 29  2  0  0  0  0
 28 27  1  0  0  0  0
 29 30  1  0  0  0  0
 30 31  2  0  0  0  0
 30 34  1  0  0  0  0
 32 27  1  0  0  0  0
 33 28  1  0  0  0  0
 34 37  1  6  0  0  0
 34 36  1  0  0  0  0
 34 35  1  0  0  0  0
 35 39  1  0  0  0  0
 35 38  1  0  0  0  0
 36 40  1  6  0  0  0
 36 35  1  0  0  0  0
 41 36  1  0  0  0  0
 42 41  1  0  0  0  0
M  END
>  <minimizedAffinity>
2.66031075

>  <minimizedRMSD>
1.46861112

$$$$
