
 OpenBabel03252508443D

 38 40  0  0  0  0  0  0  0  0999 V2000
   43.3340   34.7480   40.4160 C   0  0  0  0  0  0  0  0  0  0  0  0
   44.2350   33.7250   40.1350 C   0  0  0  0  0  0  0  0  0  0  0  0
   45.3700   33.6240   40.9090 C   0  0  0  0  0  0  0  0  0  0  0  0
   45.6010   34.5090   41.9230 C   0  0  0  0  0  0  0  0  0  0  0  0
   44.7290   35.5270   42.2220 C   0  0  0  0  0  0  0  0  0  0  0  0
   43.5990   35.5960   41.4230 C   0  0  0  0  0  0  0  0  0  0  0  0
   46.1030   32.8550   40.7400 H   0  0  0  0  0  0  0  0  0  0  0  0
   46.5020   34.4150   42.5230 H   0  0  0  0  0  0  0  0  0  0  0  0
   44.9230   36.2200   43.0290 H   0  0  0  0  0  0  0  0  0  0  0  0
   42.8980   36.4000   41.6500 H   0  0  0  0  0  0  0  0  0  0  0  0
   39.8520   34.3340   39.0060 C   0  0  0  0  0  0  0  0  0  0  0  0
   40.9490   34.2150   39.8790 C   0  0  0  0  0  0  0  0  0  0  0  0
   42.1480   34.8160   39.5760 C   0  0  0  0  0  0  0  0  0  0  0  0
   42.2150   35.5160   38.4130 N   0  0  0  0  0  0  0  0  0  0  0  0
   41.1630   35.6340   37.5700 C   0  0  0  0  0  0  0  0  0  0  0  0
   39.9940   35.0460   37.8670 N   0  0  0  0  0  0  0  0  0  0  0  0
   39.0010   33.8120   39.3830 H   0  0  0  0  0  0  0  0  0  0  0  0
   40.9350   33.6700   40.8080 H   0  0  0  0  0  0  0  0  0  0  0  0
   41.2130   36.1880   36.6470 H   0  0  0  0  0  0  0  0  0  0  0  0
   43.9710   32.7730   39.0300 C   0  0  0  0  0  0  0  0  0  0  0  0
   43.3980   31.9170   39.4870 H   0  0  0  0  0  0  0  0  0  0  0  0
   43.2750   33.1900   38.2610 H   0  0  0  0  0  0  0  0  0  0  0  0
   45.1310   32.2030   38.4380 N   0  0  0  0  0  0  0  0  0  0  0  0
   45.9220   32.0300   39.0880 H   0  0  0  0  0  0  0  0  0  0  0  0
   45.7870   33.1810   37.1770 S   0  0  0  0  0  0  0  0  0  0  0  0
   44.8200   34.2360   36.7590 O   0  0  0  0  0  0  0  0  0  0  0  0
   44.3960   34.9440   37.3050 H   0  0  0  0  0  0  0  0  0  0  0  0
   46.2150   32.3580   36.0150 O   0  0  0  0  0  0  0  0  0  0  0  0
   45.7740   32.2750   35.1400 H   0  0  0  0  0  0  0  0  0  0  0  0
   47.1550   33.9180   37.8540 O   0  0  0  0  0  0  0  0  0  0  0  0
   48.3620   33.2780   37.8780 C   0  0  0  0  0  0  0  0  0  0  0  0
   48.7650   32.5260   38.9730 C   0  0  0  0  0  0  0  0  0  0  0  0
   48.2360   32.3390   39.9070 H   0  0  0  0  0  0  0  0  0  0  0  0
   50.0180   32.0100   38.6950 C   0  0  0  0  0  0  0  0  0  0  0  0
   50.6610   31.3760   39.2990 H   0  0  0  0  0  0  0  0  0  0  0  0
   50.2880   32.4780   37.4670 N   0  0  0  0  0  0  0  0  0  0  0  0
   51.1820   32.2710   36.9460 H   0  0  0  0  0  0  0  0  0  0  0  0
   49.3330   33.2240   36.9640 N   0  0  0  0  0  0  0  0  0  0  0  0
  1  6  1  0  0  0  0
  2  1  2  0  0  0  0
  2  3  1  0  0  0  0
  3  4  2  0  0  0  0
  4  5  1  0  0  0  0
  4  8  1  0  0  0  0
  5  9  1  0  0  0  0
  6 10  1  0  0  0  0
  6  5  2  0  0  0  0
  7  3  1  0  0  0  0
 11 17  1  0  0  0  0
 11 12  1  0  0  0  0
 12 18  1  0  0  0  0
 13 12  2  0  0  0  0
 13  1  1  0  0  0  0
 14 13  1  0  0  0  0
 15 16  1  0  0  0  0
 15 14  2  0  0  0  0
 16 11  2  0  0  0  0
 19 15  1  0  0  0  0
 20 21  1  0  0  0  0
 20  2  1  0  0  0  0
 22 20  1  0  0  0  0
 23 20  1  0  0  0  0
 23 24  1  0  0  0  0
 25 30  1  0  0  0  0
 25 23  1  0  0  0  0
 26 25  1  0  0  0  0
 26 27  1  0  0  0  0
 28 25  1  0  0  0  0
 29 28  1  0  0  0  0
 30 31  1  0  0  0  0
 31 32  1  0  0  0  0
 32 33  1  0  0  0  0
 34 32  2  0  0  0  0
 34 35  1  0  0  0  0
 36 34  1  0  0  0  0
 37 36  1  0  0  0  0
 38 36  1  0  0  0  0
 38 31  2  0  0  0  0
M  END
>  <minimizedAffinity>
-4.96876001

>  <minimizedRMSD>
7.00833511

$$$$
