
 OpenBabel03252500453D

 33 35  0  0  1  0  0  0  0  0999 V2000
   36.9780   26.9270   42.6890 C   0  0  1  0  0  0  0  0  0  0  0  0
   37.7270   27.8840   43.6150 C   0  0  0  0  0  0  0  0  0  0  0  0
   36.8230   28.4110   42.5230 C   0  0  1  0  0  0  0  0  0  0  0  0
   36.2000   26.3700   43.2550 H   0  0  0  0  0  0  0  0  0  0  0  0
   37.4400   27.9860   44.6610 H   0  0  0  0  0  0  0  0  0  0  0  0
   38.8170   27.9880   43.4290 H   0  0  0  0  0  0  0  0  0  0  0  0
   35.8830   28.8550   42.9190 H   0  0  0  0  0  0  0  0  0  0  0  0
   37.7840   26.2570   41.6490 C   0  0  0  0  0  0  0  0  0  0  0  0
   38.5800   25.6000   42.0560 H   0  0  0  0  0  0  0  0  0  0  0  0
   38.3570   27.0690   41.1110 H   0  0  0  0  0  0  0  0  0  0  0  0
   37.0020   25.5730   40.6110 C   0  0  0  0  0  0  0  0  0  0  0  0
   36.5720   24.3250   40.9730 C   0  0  0  0  0  0  0  0  0  0  0  0
   35.8290   23.5450   40.0790 C   0  0  0  0  0  0  0  0  0  0  0  0
   35.5800   24.1250   38.8530 N   0  0  0  0  0  0  0  0  0  0  0  0
   36.0110   25.3560   38.5140 C   0  0  0  0  0  0  0  0  0  0  0  0
   36.7130   26.0600   39.3910 N   0  0  0  0  0  0  0  0  0  0  0  0
   36.6480   23.7120   41.8600 H   0  0  0  0  0  0  0  0  0  0  0  0
   35.4160   22.5560   40.1930 H   0  0  0  0  0  0  0  0  0  0  0  0
   35.7490   25.7000   37.5230 H   0  0  0  0  0  0  0  0  0  0  0  0
   37.4330   28.9810   41.4350 O   0  0  0  0  0  0  0  0  0  0  0  0
   35.2810   29.0050   39.8560 O   0  0  0  0  0  0  0  0  0  0  0  0
   36.3650   29.8700   40.4750 P   0  0  1  0  0  0  0  0  0  0  0  0
   35.5780   31.0090   41.4810 O   0  0  0  0  0  0  0  0  0  0  0  0
   35.4970   30.6640   42.4030 H   0  0  0  0  0  0  0  0  0  0  0  0
   37.2440   30.7000   39.3030 O   0  0  0  0  0  0  0  0  0  0  0  0
   38.0040   31.8170   39.6200 C   0  0  0  0  0  0  0  0  0  0  0  0
   39.3160   32.2400   39.6470 C   0  0  0  0  0  0  0  0  0  0  0  0
   40.0330   31.4980   39.3260 H   0  0  0  0  0  0  0  0  0  0  0  0
   39.2840   33.5570   40.1050 C   0  0  0  0  0  0  0  0  0  0  0  0
   40.2540   34.0500   40.1860 H   0  0  0  0  0  0  0  0  0  0  0  0
   37.9950   33.8970   40.3390 N   0  0  0  0  0  0  0  0  0  0  0  0
   37.7790   34.8560   40.6890 H   0  0  0  0  0  0  0  0  0  0  0  0
   37.2320   32.8380   40.0430 N   0  0  0  0  0  0  0  0  0  0  0  0
  1  4  1  1  0  0  0
  1  2  1  0  0  0  0
  2  5  1  0  0  0  0
  3  1  1  0  0  0  0
  3  7  1  1  0  0  0
  3  2  1  0  0  0  0
  6  2  1  0  0  0  0
  8  9  1  0  0  0  0
  8  1  1  0  0  0  0
 10  8  1  0  0  0  0
 11 12  1  0  0  0  0
 11  8  1  0  0  0  0
 12 17  1  0  0  0  0
 13 18  1  0  0  0  0
 13 12  2  0  0  0  0
 14 13  1  0  0  0  0
 15 14  2  0  0  0  0
 15 16  1  0  0  0  0
 16 11  2  0  0  0  0
 19 15  1  0  0  0  0
 20  3  1  0  0  0  0
 22 21  2  6  0  0  0
 22 20  1  0  0  0  0
 22 23  1  0  0  0  0
 23 24  1  0  0  0  0
 25 26  1  0  0  0  0
 25 22  1  0  0  0  0
 26 27  1  0  0  0  0
 26 33  2  0  0  0  0
 27 29  2  0  0  0  0
 28 27  1  0  0  0  0
 29 30  1  0  0  0  0
 29 31  1  0  0  0  0
 31 32  1  0  0  0  0
 33 31  1  0  0  0  0
M  END
>  <minimizedAffinity>
-5.16138124

$$$$

 OpenBabel03252500453D

 33 35  0  0  1  0  0  0  0  0999 V2000
   35.8480   29.8550   39.7870 C   0  0  1  0  0  0  0  0  0  0  0  0
   35.3740   28.4440   39.4420 C   0  0  0  0  0  0  0  0  0  0  0  0
   36.0410   28.7350   40.7680 C   0  0  1  0  0  0  0  0  0  0  0  0
   34.9780   30.5350   39.9180 H   0  0  0  0  0  0  0  0  0  0  0  0
   34.3100   28.2070   39.4030 H   0  0  0  0  0  0  0  0  0  0  0  0
   35.9920   27.8890   38.7040 H   0  0  0  0  0  0  0  0  0  0  0  0
   35.3300   28.7030   41.6240 H   0  0  0  0  0  0  0  0  0  0  0  0
   37.0750   30.3160   39.1090 C   0  0  0  0  0  0  0  0  0  0  0  0
   36.9600   30.4380   38.0120 H   0  0  0  0  0  0  0  0  0  0  0  0
   37.8330   29.4840   39.2070 H   0  0  0  0  0  0  0  0  0  0  0  0
   37.7070   31.4960   39.7150 C   0  0  0  0  0  0  0  0  0  0  0  0
   37.1580   32.6840   39.3180 C   0  0  0  0  0  0  0  0  0  0  0  0
   37.6670   33.8960   39.8010 C   0  0  0  0  0  0  0  0  0  0  0  0
   38.7270   33.7860   40.6760 N   0  0  0  0  0  0  0  0  0  0  0  0
   39.2540   32.6060   41.0570 C   0  0  0  0  0  0  0  0  0  0  0  0
   38.7420   31.4820   40.5750 N   0  0  0  0  0  0  0  0  0  0  0  0
   36.3440   32.9790   38.6710 H   0  0  0  0  0  0  0  0  0  0  0  0
   37.3640   34.9110   39.5990 H   0  0  0  0  0  0  0  0  0  0  0  0
   40.0830   32.6520   41.7500 H   0  0  0  0  0  0  0  0  0  0  0  0
   37.3190   28.2680   40.9340 O   0  0  0  0  0  0  0  0  0  0  0  0
   39.1300   27.7430   42.8240 O   0  0  0  0  0  0  0  0  0  0  0  0
   37.6420   27.7920   42.5230 P   0  0  1  0  0  0  0  0  0  0  0  0
   36.9600   28.9590   43.5700 O   0  0  0  0  0  0  0  0  0  0  0  0
   36.9510   29.8500   43.1440 H   0  0  0  0  0  0  0  0  0  0  0  0
   36.8990   26.3080   42.8090 O   0  0  0  0  0  0  0  0  0  0  0  0
   37.1290   25.2110   41.9920 C   0  0  0  0  0  0  0  0  0  0  0  0
   36.6950   24.6560   40.8060 C   0  0  0  0  0  0  0  0  0  0  0  0
   35.9200   25.2190   40.3050 H   0  0  0  0  0  0  0  0  0  0  0  0
   37.4380   23.4880   40.6350 C   0  0  0  0  0  0  0  0  0  0  0  0
   37.2170   22.9190   39.7320 H   0  0  0  0  0  0  0  0  0  0  0  0
   38.2820   23.3620   41.6860 N   0  0  0  0  0  0  0  0  0  0  0  0
   38.9210   22.5380   41.7260 H   0  0  0  0  0  0  0  0  0  0  0  0
   38.0860   24.4080   42.4980 N   0  0  0  0  0  0  0  0  0  0  0  0
  1  4  1  1  0  0  0
  1  3  1  0  0  0  0
  2  1  1  0  0  0  0
  2  3  1  0  0  0  0
  3 20  1  0  0  0  0
  3  7  1  1  0  0  0
  5  2  1  0  0  0  0
  6  2  1  0  0  0  0
  8 10  1  0  0  0  0
  8 11  1  0  0  0  0
  8  1  1  0  0  0  0
  9  8  1  0  0  0  0
 11 16  1  0  0  0  0
 12 11  2  0  0  0  0
 12 13  1  0  0  0  0
 13 14  2  0  0  0  0
 14 15  1  0  0  0  0
 15 19  1  0  0  0  0
 16 15  2  0  0  0  0
 17 12  1  0  0  0  0
 18 13  1  0  0  0  0
 20 22  1  0  0  0  0
 22 25  1  0  0  0  0
 22 21  2  1  0  0  0
 22 23  1  0  0  0  0
 24 23  1  0  0  0  0
 26 33  2  0  0  0  0
 26 25  1  0  0  0  0
 27 26  1  0  0  0  0
 28 27  1  0  0  0  0
 29 27  2  0  0  0  0
 29 31  1  0  0  0  0
 30 29  1  0  0  0  0
 31 32  1  0  0  0  0
 31 33  1  0  0  0  0
M  END
>  <minimizedAffinity>
-5.08942127

$$$$

 OpenBabel03252500453D

 33 35  0  0  1  0  0  0  0  0999 V2000
   35.4460   28.4570   39.3420 C   0  0  1  0  0  0  0  0  0  0  0  0
   34.4110   28.8320   38.2830 C   0  0  0  0  0  0  0  0  0  0  0  0
   35.8840   29.0810   38.0490 C   0  0  1  0  0  0  0  0  0  0  0  0
   35.5080   27.3510   39.4480 H   0  0  0  0  0  0  0  0  0  0  0  0
   33.8870   28.0610   37.7160 H   0  0  0  0  0  0  0  0  0  0  0  0
   33.7980   29.7340   38.4980 H   0  0  0  0  0  0  0  0  0  0  0  0
   36.3220   28.3910   37.2930 H   0  0  0  0  0  0  0  0  0  0  0  0
   35.5210   29.3370   40.5240 C   0  0  0  0  0  0  0  0  0  0  0  0
   34.5400   29.5230   41.0050 H   0  0  0  0  0  0  0  0  0  0  0  0
   35.8340   30.3560   40.1490 H   0  0  0  0  0  0  0  0  0  0  0  0
   36.5380   28.9530   41.5130 C   0  0  0  0  0  0  0  0  0  0  0  0
   36.5480   27.6180   41.8080 C   0  0  0  0  0  0  0  0  0  0  0  0
   37.4520   27.1060   42.7470 C   0  0  0  0  0  0  0  0  0  0  0  0
   38.2970   28.0330   43.3200 N   0  0  0  0  0  0  0  0  0  0  0  0
   38.2740   29.3450   43.0160 C   0  0  0  0  0  0  0  0  0  0  0  0
   37.4000   29.7870   42.1220 N   0  0  0  0  0  0  0  0  0  0  0  0
   35.9950   26.7510   41.4730 H   0  0  0  0  0  0  0  0  0  0  0  0
   37.5980   26.0980   43.0980 H   0  0  0  0  0  0  0  0  0  0  0  0
   38.9880   29.9700   43.5340 H   0  0  0  0  0  0  0  0  0  0  0  0
   36.3080   30.3840   38.1010 O   0  0  0  0  0  0  0  0  0  0  0  0
   38.5280   29.3510   37.0370 O   0  0  0  0  0  0  0  0  0  0  0  0
   37.9570   30.5500   37.7750 P   0  0  1  0  0  0  0  0  0  0  0  0
   38.1560   31.9050   36.7510 O   0  0  0  0  0  0  0  0  0  0  0  0
   37.3610   32.0320   36.1790 H   0  0  0  0  0  0  0  0  0  0  0  0
   38.7730   30.8390   39.2190 O   0  0  0  0  0  0  0  0  0  0  0  0
   38.8420   32.1090   39.7730 C   0  0  0  0  0  0  0  0  0  0  0  0
   39.7590   32.9870   40.3140 C   0  0  0  0  0  0  0  0  0  0  0  0
   40.7730   32.6160   40.3420 H   0  0  0  0  0  0  0  0  0  0  0  0
   39.0350   34.1260   40.6660 C   0  0  0  0  0  0  0  0  0  0  0  0
   39.6170   34.9320   41.1150 H   0  0  0  0  0  0  0  0  0  0  0  0
   37.7370   33.9240   40.3420 N   0  0  0  0  0  0  0  0  0  0  0  0
   37.0420   34.6790   40.5360 H   0  0  0  0  0  0  0  0  0  0  0  0
   37.6330   32.7030   39.8040 N   0  0  0  0  0  0  0  0  0  0  0  0
  1  4  1  1  0  0  0
  1  8  1  0  0  0  0
  2  6  1  0  0  0  0
  2  1  1  0  0  0  0
  3  7  1  6  0  0  0
  3 20  1  0  0  0  0
  3  2  1  0  0  0  0
  3  1  1  0  0  0  0
  5  2  1  0  0  0  0
  8  9  1  0  0  0  0
  8 11  1  0  0  0  0
 10  8  1  0  0  0  0
 11 12  2  0  0  0  0
 11 16  1  0  0  0  0
 12 13  1  0  0  0  0
 13 18  1  0  0  0  0
 13 14  2  0  0  0  0
 15 14  1  0  0  0  0
 15 19  1  0  0  0  0
 16 15  2  0  0  0  0
 17 12  1  0  0  0  0
 22 21  2  6  0  0  0
 22 20  1  0  0  0  0
 22 25  1  0  0  0  0
 23 22  1  0  0  0  0
 24 23  1  0  0  0  0
 25 26  1  0  0  0  0
 26 33  2  0  0  0  0
 26 27  1  0  0  0  0
 27 28  1  0  0  0  0
 27 29  2  0  0  0  0
 29 30  1  0  0  0  0
 31 32  1  0  0  0  0
 31 29  1  0  0  0  0
 33 31  1  0  0  0  0
M  END
>  <minimizedAffinity>
-5.01562405

$$$$

 OpenBabel03252500453D

 33 35  0  0  1  0  0  0  0  0999 V2000
   36.3990   28.0240   40.9770 C   0  0  1  0  0  0  0  0  0  0  0  0
   35.3320   29.0600   40.6290 C   0  0  0  0  0  0  0  0  0  0  0  0
   36.8030   29.3920   40.5090 C   0  0  1  0  0  0  0  0  0  0  0  0
   36.3840   27.1910   40.2390 H   0  0  0  0  0  0  0  0  0  0  0  0
   34.7190   28.9520   39.7340 H   0  0  0  0  0  0  0  0  0  0  0  0
   34.8040   29.5230   41.4900 H   0  0  0  0  0  0  0  0  0  0  0  0
   37.1410   29.4700   39.4510 H   0  0  0  0  0  0  0  0  0  0  0  0
   36.6130   27.7610   42.4130 C   0  0  0  0  0  0  0  0  0  0  0  0
   35.6900   27.4690   42.9550 H   0  0  0  0  0  0  0  0  0  0  0  0
   36.9000   28.7470   42.8840 H   0  0  0  0  0  0  0  0  0  0  0  0
   37.7220   26.8450   42.7130 C   0  0  0  0  0  0  0  0  0  0  0  0
   37.5670   25.5940   42.1810 C   0  0  0  0  0  0  0  0  0  0  0  0
   38.5370   24.6070   42.3970 C   0  0  0  0  0  0  0  0  0  0  0  0
   39.6160   24.9960   43.1610 N   0  0  0  0  0  0  0  0  0  0  0  0
   39.7530   26.2340   43.6760 C   0  0  0  0  0  0  0  0  0  0  0  0
   38.8100   27.1370   43.4480 N   0  0  0  0  0  0  0  0  0  0  0  0
   36.8250   25.1060   41.5640 H   0  0  0  0  0  0  0  0  0  0  0  0
   38.5780   23.5840   42.0600 H   0  0  0  0  0  0  0  0  0  0  0  0
   40.6460   26.4150   44.2580 H   0  0  0  0  0  0  0  0  0  0  0  0
   37.3260   30.2410   41.4500 O   0  0  0  0  0  0  0  0  0  0  0  0
   39.2270   32.1140   41.3900 O   0  0  0  0  0  0  0  0  0  0  0  0
   38.9380   30.6430   41.1470 P   0  0  1  0  0  0  0  0  0  0  0  0
   39.9150   29.7570   42.2360 O   0  0  0  0  0  0  0  0  0  0  0  0
   39.4320   29.5860   43.0800 H   0  0  0  0  0  0  0  0  0  0  0  0
   39.3290   30.1840   39.5740 O   0  0  0  0  0  0  0  0  0  0  0  0
   39.9850   31.0470   38.7070 C   0  0  0  0  0  0  0  0  0  0  0  0
   41.2170   31.6380   38.5240 C   0  0  0  0  0  0  0  0  0  0  0  0
   41.9540   31.3830   39.2720 H   0  0  0  0  0  0  0  0  0  0  0  0
   41.1000   32.4150   37.3700 C   0  0  0  0  0  0  0  0  0  0  0  0
   41.9980   32.9590   37.0770 H   0  0  0  0  0  0  0  0  0  0  0  0
   39.8400   32.2820   36.8930 N   0  0  0  0  0  0  0  0  0  0  0  0
   39.5700   32.7970   36.0260 H   0  0  0  0  0  0  0  0  0  0  0  0
   39.1770   31.4540   37.7080 N   0  0  0  0  0  0  0  0  0  0  0  0
  1  4  1  6  0  0  0
  1  8  1  0  0  0  0
  2  1  1  0  0  0  0
  2  6  1  0  0  0  0
  3  7  1  6  0  0  0
  3  2  1  0  0  0  0
  3  1  1  0  0  0  0
  3 20  1  0  0  0  0
  5  2  1  0  0  0  0
  8 11  1  0  0  0  0
  8 10  1  0  0  0  0
  8  9  1  0  0  0  0
 11 16  1  0  0  0  0
 12 13  1  0  0  0  0
 12 11  2  0  0  0  0
 13 14  2  0  0  0  0
 14 15  1  0  0  0  0
 15 19  1  0  0  0  0
 16 15  2  0  0  0  0
 17 12  1  0  0  0  0
 18 13  1  0  0  0  0
 22 21  2  1  0  0  0
 22 20  1  0  0  0  0
 22 23  1  0  0  0  0
 23 24  1  0  0  0  0
 25 22  1  0  0  0  0
 26 25  1  0  0  0  0
 27 26  1  0  0  0  0
 27 28  1  0  0  0  0
 29 27  2  0  0  0  0
 30 29  1  0  0  0  0
 31 29  1  0  0  0  0
 31 33  1  0  0  0  0
 32 31  1  0  0  0  0
 33 26  2  0  0  0  0
M  END
>  <minimizedAffinity>
-4.95267725

$$$$

 OpenBabel03252500453D

 33 35  0  0  1  0  0  0  0  0999 V2000
   38.2030   27.1450   42.1060 C   0  0  1  0  0  0  0  0  0  0  0  0
   37.1110   26.1270   42.4280 C   0  0  0  0  0  0  0  0  0  0  0  0
   36.8700   27.2290   41.4210 C   0  0  1  0  0  0  0  0  0  0  0  0
   39.0460   26.6530   41.5730 H   0  0  0  0  0  0  0  0  0  0  0  0
   37.1990   25.0910   42.0980 H   0  0  0  0  0  0  0  0  0  0  0  0
   36.6030   26.2510   43.4080 H   0  0  0  0  0  0  0  0  0  0  0  0
   36.8300   26.8540   40.3740 H   0  0  0  0  0  0  0  0  0  0  0  0
   38.4540   28.1810   43.1260 C   0  0  0  0  0  0  0  0  0  0  0  0
   38.7930   27.7750   44.1010 H   0  0  0  0  0  0  0  0  0  0  0  0
   37.4530   28.6490   43.3650 H   0  0  0  0  0  0  0  0  0  0  0  0
   39.3090   29.2890   42.6810 C   0  0  0  0  0  0  0  0  0  0  0  0
   40.6470   29.0060   42.7180 C   0  0  0  0  0  0  0  0  0  0  0  0
   41.5860   29.9720   42.3380 C   0  0  0  0  0  0  0  0  0  0  0  0
   41.0620   31.1830   41.9390 N   0  0  0  0  0  0  0  0  0  0  0  0
   39.7400   31.4440   41.9080 C   0  0  0  0  0  0  0  0  0  0  0  0
   38.8850   30.5010   42.2780 N   0  0  0  0  0  0  0  0  0  0  0  0
   41.2450   28.1440   42.9800 H   0  0  0  0  0  0  0  0  0  0  0  0
   42.6630   29.9240   42.3060 H   0  0  0  0  0  0  0  0  0  0  0  0
   39.4540   32.4320   41.5750 H   0  0  0  0  0  0  0  0  0  0  0  0
   36.0370   28.2480   41.8060 O   0  0  0  0  0  0  0  0  0  0  0  0
   34.5250   29.2270   39.8360 O   0  0  0  0  0  0  0  0  0  0  0  0
   35.8250   29.4110   40.6000 P   0  0  1  0  0  0  0  0  0  0  0  0
   35.7450   30.9440   41.3550 O   0  0  0  0  0  0  0  0  0  0  0  0
   35.3650   30.8670   42.2640 H   0  0  0  0  0  0  0  0  0  0  0  0
   37.1590   29.3830   39.5730 O   0  0  0  0  0  0  0  0  0  0  0  0
   37.3270   30.3310   38.5740 C   0  0  0  0  0  0  0  0  0  0  0  0
   37.4630   30.4230   37.2040 C   0  0  0  0  0  0  0  0  0  0  0  0
   37.4400   29.4740   36.6860 H   0  0  0  0  0  0  0  0  0  0  0  0
   37.5940   31.7830   36.9230 C   0  0  0  0  0  0  0  0  0  0  0  0
   37.7130   32.0350   35.8690 H   0  0  0  0  0  0  0  0  0  0  0  0
   37.5360   32.4670   38.0890 N   0  0  0  0  0  0  0  0  0  0  0  0
   37.6170   33.5080   38.0710 H   0  0  0  0  0  0  0  0  0  0  0  0
   37.3740   31.5800   39.0780 N   0  0  0  0  0  0  0  0  0  0  0  0
  1  4  1  6  0  0  0
  1  2  1  0  0  0  0
  1  8  1  0  0  0  0
  2  6  1  0  0  0  0
  3  7  1  6  0  0  0
  3 20  1  0  0  0  0
  3  1  1  0  0  0  0
  3  2  1  0  0  0  0
  5  2  1  0  0  0  0
  8 10  1  0  0  0  0
  8  9  1  0  0  0  0
 11 12  1  0  0  0  0
 11  8  1  0  0  0  0
 12 17  1  0  0  0  0
 13 12  2  0  0  0  0
 14 13  1  0  0  0  0
 15 14  2  0  0  0  0
 15 16  1  0  0  0  0
 16 11  2  0  0  0  0
 18 13  1  0  0  0  0
 19 15  1  0  0  0  0
 22 21  2  6  0  0  0
 22 23  1  0  0  0  0
 22 20  1  0  0  0  0
 23 24  1  0  0  0  0
 25 22  1  0  0  0  0
 26 33  2  0  0  0  0
 26 25  1  0  0  0  0
 27 26  1  0  0  0  0
 28 27  1  0  0  0  0
 29 27  2  0  0  0  0
 29 31  1  0  0  0  0
 30 29  1  0  0  0  0
 31 33  1  0  0  0  0
 32 31  1  0  0  0  0
M  END
>  <minimizedAffinity>
-4.93322897

$$$$

 OpenBabel03252500453D

 33 35  0  0  1  0  0  0  0  0999 V2000
   35.8750   28.4590   39.5240 C   0  0  1  0  0  0  0  0  0  0  0  0
   34.8040   29.0170   38.5880 C   0  0  0  0  0  0  0  0  0  0  0  0
   36.1000   29.7630   38.8160 C   0  0  1  0  0  0  0  0  0  0  0  0
   36.3210   27.5350   39.0950 H   0  0  0  0  0  0  0  0  0  0  0  0
   34.6050   28.5450   37.6250 H   0  0  0  0  0  0  0  0  0  0  0  0
   33.9070   29.4500   39.0780 H   0  0  0  0  0  0  0  0  0  0  0  0
   36.7750   29.7330   37.9320 H   0  0  0  0  0  0  0  0  0  0  0  0
   35.6000   28.5660   40.9700 C   0  0  0  0  0  0  0  0  0  0  0  0
   34.7370   27.9560   41.3070 H   0  0  0  0  0  0  0  0  0  0  0  0
   35.2650   29.6290   41.1580 H   0  0  0  0  0  0  0  0  0  0  0  0
   36.7700   28.3640   41.8360 C   0  0  0  0  0  0  0  0  0  0  0  0
   37.0880   27.0490   42.0390 C   0  0  0  0  0  0  0  0  0  0  0  0
   38.1710   26.7010   42.8560 C   0  0  0  0  0  0  0  0  0  0  0  0
   38.8570   27.7590   43.4120 N   0  0  0  0  0  0  0  0  0  0  0  0
   38.5290   29.0490   43.2000 C   0  0  0  0  0  0  0  0  0  0  0  0
   37.4960   29.3340   42.4200 N   0  0  0  0  0  0  0  0  0  0  0  0
   36.6980   26.1010   41.6980 H   0  0  0  0  0  0  0  0  0  0  0  0
   38.5590   25.7320   43.1240 H   0  0  0  0  0  0  0  0  0  0  0  0
   39.1470   29.7880   43.6920 H   0  0  0  0  0  0  0  0  0  0  0  0
   36.0330   30.9020   39.5760 O   0  0  0  0  0  0  0  0  0  0  0  0
   37.5350   32.1770   37.7750 O   0  0  0  0  0  0  0  0  0  0  0  0
   37.2990   31.9750   39.2620 P   0  0  1  0  0  0  0  0  0  0  0  0
   36.8700   33.4990   39.9090 O   0  0  0  0  0  0  0  0  0  0  0  0
   35.8900   33.6220   39.8940 H   0  0  0  0  0  0  0  0  0  0  0  0
   38.6860   31.4270   40.0440 O   0  0  0  0  0  0  0  0  0  0  0  0
   39.8180   32.2230   40.1590 C   0  0  0  0  0  0  0  0  0  0  0  0
   41.1490   32.2390   39.8000 C   0  0  0  0  0  0  0  0  0  0  0  0
   41.4750   31.3720   39.2440 H   0  0  0  0  0  0  0  0  0  0  0  0
   41.6650   33.4350   40.3010 C   0  0  0  0  0  0  0  0  0  0  0  0
   42.7230   33.6090   40.1020 H   0  0  0  0  0  0  0  0  0  0  0  0
   40.6690   34.0980   40.9320 N   0  0  0  0  0  0  0  0  0  0  0  0
   40.8750   35.0220   41.3720 H   0  0  0  0  0  0  0  0  0  0  0  0
   39.5590   33.3570   40.8400 N   0  0  0  0  0  0  0  0  0  0  0  0
  1  4  1  6  0  0  0
  1  8  1  0  0  0  0
  2  3  1  0  0  0  0
  2  6  1  0  0  0  0
  2  1  1  0  0  0  0
  3  7  1  6  0  0  0
  3  1  1  0  0  0  0
  3 20  1  0  0  0  0
  5  2  1  0  0  0  0
  8 10  1  0  0  0  0
  8  9  1  0  0  0  0
  8 11  1  0  0  0  0
 11 12  2  0  0  0  0
 11 16  1  0  0  0  0
 12 13  1  0  0  0  0
 13 18  1  0  0  0  0
 13 14  2  0  0  0  0
 15 14  1  0  0  0  0
 15 19  1  0  0  0  0
 16 15  2  0  0  0  0
 17 12  1  0  0  0  0
 22 21  2  6  0  0  0
 22 20  1  0  0  0  0
 22 23  1  0  0  0  0
 22 25  1  0  0  0  0
 24 23  1  0  0  0  0
 25 26  1  0  0  0  0
 26 33  2  0  0  0  0
 27 26  1  0  0  0  0
 27 29  2  0  0  0  0
 28 27  1  0  0  0  0
 29 31  1  0  0  0  0
 30 29  1  0  0  0  0
 31 32  1  0  0  0  0
 33 31  1  0  0  0  0
M  END
>  <minimizedAffinity>
-4.93060684

$$$$

 OpenBabel03252500453D

 33 35  0  0  1  0  0  0  0  0999 V2000
   40.4920   28.9500   40.4050 C   0  0  1  0  0  0  0  0  0  0  0  0
   41.4760   28.8480   39.2410 C   0  0  0  0  0  0  0  0  0  0  0  0
   40.6140   30.0780   39.4220 C   0  0  1  0  0  0  0  0  0  0  0  0
   41.0410   29.0230   41.3700 H   0  0  0  0  0  0  0  0  0  0  0  0
   42.5510   28.9020   39.4130 H   0  0  0  0  0  0  0  0  0  0  0  0
   41.1800   28.1710   38.4110 H   0  0  0  0  0  0  0  0  0  0  0  0
   41.1950   30.9650   39.7600 H   0  0  0  0  0  0  0  0  0  0  0  0
   39.2590   28.1460   40.2930 C   0  0  0  0  0  0  0  0  0  0  0  0
   39.4210   27.1410   39.8530 H   0  0  0  0  0  0  0  0  0  0  0  0
   38.6010   28.6670   39.5360 H   0  0  0  0  0  0  0  0  0  0  0  0
   38.4600   28.0710   41.5230 C   0  0  0  0  0  0  0  0  0  0  0  0
   37.6970   26.9390   41.6200 C   0  0  0  0  0  0  0  0  0  0  0  0
   36.8700   26.7350   42.7300 C   0  0  0  0  0  0  0  0  0  0  0  0
   36.8930   27.7360   43.6780 N   0  0  0  0  0  0  0  0  0  0  0  0
   37.6520   28.8450   43.5660 C   0  0  0  0  0  0  0  0  0  0  0  0
   38.4200   28.9980   42.4970 N   0  0  0  0  0  0  0  0  0  0  0  0
   37.5480   26.0560   41.0130 H   0  0  0  0  0  0  0  0  0  0  0  0
   36.2110   25.9160   42.9690 H   0  0  0  0  0  0  0  0  0  0  0  0
   37.5830   29.5570   44.3770 H   0  0  0  0  0  0  0  0  0  0  0  0
   39.5790   30.2450   38.5380 O   0  0  0  0  0  0  0  0  0  0  0  0
   39.8660   32.7870   39.2980 O   0  0  0  0  0  0  0  0  0  0  0  0
   39.1570   31.8660   38.3210 P   0  0  1  0  0  0  0  0  0  0  0  0
   39.6500   32.3320   36.7510 O   0  0  0  0  0  0  0  0  0  0  0  0
   40.4460   31.8200   36.4670 H   0  0  0  0  0  0  0  0  0  0  0  0
   37.4830   32.0140   38.4280 O   0  0  0  0  0  0  0  0  0  0  0  0
   36.7290   31.1690   39.2300 C   0  0  0  0  0  0  0  0  0  0  0  0
   36.0360   29.9780   39.1670 C   0  0  0  0  0  0  0  0  0  0  0  0
   36.0510   29.5020   38.1970 H   0  0  0  0  0  0  0  0  0  0  0  0
   35.5160   29.7710   40.4440 C   0  0  0  0  0  0  0  0  0  0  0  0
   34.9320   28.8580   40.5710 H   0  0  0  0  0  0  0  0  0  0  0  0
   35.8930   30.8050   41.2320 N   0  0  0  0  0  0  0  0  0  0  0  0
   35.5910   30.8170   42.2310 H   0  0  0  0  0  0  0  0  0  0  0  0
   36.6240   31.6430   40.4870 N   0  0  0  0  0  0  0  0  0  0  0  0
  1  4  1  1  0  0  0
  2  5  1  0  0  0  0
  2  3  1  0  0  0  0
  2  1  1  0  0  0  0
  3  7  1  1  0  0  0
  3  1  1  0  0  0  0
  6  2  1  0  0  0  0
  8  1  1  0  0  0  0
  8 11  1  0  0  0  0
  9  8  1  0  0  0  0
 10  8  1  0  0  0  0
 11 12  2  0  0  0  0
 11 16  1  0  0  0  0
 12 13  1  0  0  0  0
 13 18  1  0  0  0  0
 13 14  2  0  0  0  0
 15 14  1  0  0  0  0
 15 19  1  0  0  0  0
 16 15  2  0  0  0  0
 17 12  1  0  0  0  0
 20  3  1  0  0  0  0
 22 25  1  0  0  0  0
 22 20  1  0  0  0  0
 22 21  2  1  0  0  0
 23 22  1  0  0  0  0
 24 23  1  0  0  0  0
 25 26  1  0  0  0  0
 26 33  2  0  0  0  0
 27 26  1  0  0  0  0
 27 29  2  0  0  0  0
 28 27  1  0  0  0  0
 29 30  1  0  0  0  0
 29 31  1  0  0  0  0
 31 32  1  0  0  0  0
 33 31  1  0  0  0  0
M  END
>  <minimizedAffinity>
-4.91045475

$$$$

 OpenBabel03252500453D

 33 35  0  0  1  0  0  0  0  0999 V2000
   36.0270   28.4730   39.6220 C   0  0  1  0  0  0  0  0  0  0  0  0
   34.9460   29.1250   38.7610 C   0  0  0  0  0  0  0  0  0  0  0  0
   36.2880   29.7940   38.9580 C   0  0  1  0  0  0  0  0  0  0  0  0
   36.4040   27.5470   39.1340 H   0  0  0  0  0  0  0  0  0  0  0  0
   34.6780   28.7070   37.7900 H   0  0  0  0  0  0  0  0  0  0  0  0
   34.0960   29.5820   39.3110 H   0  0  0  0  0  0  0  0  0  0  0  0
   36.9210   29.7670   38.0420 H   0  0  0  0  0  0  0  0  0  0  0  0
   35.8240   28.5310   41.0820 C   0  0  0  0  0  0  0  0  0  0  0  0
   34.9820   27.9050   41.4410 H   0  0  0  0  0  0  0  0  0  0  0  0
   35.4940   29.5850   41.3220 H   0  0  0  0  0  0  0  0  0  0  0  0
   37.0360   28.3070   41.8820 C   0  0  0  0  0  0  0  0  0  0  0  0
   37.2640   26.9930   42.1870 C   0  0  0  0  0  0  0  0  0  0  0  0
   38.3740   26.6270   42.9580 C   0  0  0  0  0  0  0  0  0  0  0  0
   39.1820   27.6680   43.3630 N   0  0  0  0  0  0  0  0  0  0  0  0
   38.9420   28.9570   43.0510 C   0  0  0  0  0  0  0  0  0  0  0  0
   37.8790   29.2590   42.3200 N   0  0  0  0  0  0  0  0  0  0  0  0
   36.7750   26.0550   41.9650 H   0  0  0  0  0  0  0  0  0  0  0  0
   38.7030   25.6560   43.2900 H   0  0  0  0  0  0  0  0  0  0  0  0
   39.6520   29.6810   43.4280 H   0  0  0  0  0  0  0  0  0  0  0  0
   36.3170   30.9000   39.7670 O   0  0  0  0  0  0  0  0  0  0  0  0
   37.1770   32.3910   37.7260 O   0  0  0  0  0  0  0  0  0  0  0  0
   37.3680   32.0970   39.2040 P   0  0  1  0  0  0  0  0  0  0  0  0
   37.0200   33.5430   40.0480 O   0  0  0  0  0  0  0  0  0  0  0  0
   36.0660   33.5780   40.3040 H   0  0  0  0  0  0  0  0  0  0  0  0
   38.9520   31.6390   39.5470 O   0  0  0  0  0  0  0  0  0  0  0  0
   39.9810   31.8460   38.6400 C   0  0  0  0  0  0  0  0  0  0  0  0
   40.8920   32.8110   38.2660 C   0  0  0  0  0  0  0  0  0  0  0  0
   40.8300   33.7310   38.8300 H   0  0  0  0  0  0  0  0  0  0  0  0
   41.6340   32.2530   37.2250 C   0  0  0  0  0  0  0  0  0  0  0  0
   42.4120   32.8930   36.8070 H   0  0  0  0  0  0  0  0  0  0  0  0
   41.1750   31.0010   36.9970 N   0  0  0  0  0  0  0  0  0  0  0  0
   41.6170   30.4270   36.2450 H   0  0  0  0  0  0  0  0  0  0  0  0
   40.1770   30.7670   37.8580 N   0  0  0  0  0  0  0  0  0  0  0  0
  1  4  1  6  0  0  0
  1  8  1  0  0  0  0
  2  3  1  0  0  0  0
  2  6  1  0  0  0  0
  2  1  1  0  0  0  0
  3  7  1  6  0  0  0
  3  1  1  0  0  0  0
  3 20  1  0  0  0  0
  5  2  1  0  0  0  0
  8 10  1  0  0  0  0
  8  9  1  0  0  0  0
  8 11  1  0  0  0  0
 11 12  2  0  0  0  0
 11 16  1  0  0  0  0
 12 13  1  0  0  0  0
 13 18  1  0  0  0  0
 13 14  2  0  0  0  0
 15 14  1  0  0  0  0
 15 19  1  0  0  0  0
 16 15  2  0  0  0  0
 17 12  1  0  0  0  0
 22 21  2  6  0  0  0
 22 25  1  0  0  0  0
 22 20  1  0  0  0  0
 22 23  1  0  0  0  0
 23 24  1  0  0  0  0
 26 25  1  0  0  0  0
 27 26  1  0  0  0  0
 27 28  1  0  0  0  0
 29 27  2  0  0  0  0
 30 29  1  0  0  0  0
 31 29  1  0  0  0  0
 31 33  1  0  0  0  0
 32 31  1  0  0  0  0
 33 26  2  0  0  0  0
M  END
>  <minimizedAffinity>
-4.84514236

$$$$

 OpenBabel03252500453D

 33 35  0  0  1  0  0  0  0  0999 V2000
   39.7300   30.5010   42.5530 C   0  0  1  0  0  0  0  0  0  0  0  0
   41.1230   31.1270   42.5190 C   0  0  0  0  0  0  0  0  0  0  0  0
   39.9800   31.7360   41.7370 C   0  0  1  0  0  0  0  0  0  0  0  0
   39.2800   30.6120   43.5650 H   0  0  0  0  0  0  0  0  0  0  0  0
   41.5250   31.6410   43.3920 H   0  0  0  0  0  0  0  0  0  0  0  0
   41.8840   30.5880   41.9160 H   0  0  0  0  0  0  0  0  0  0  0  0
   39.6220   32.6950   42.1740 H   0  0  0  0  0  0  0  0  0  0  0  0
   39.5520   29.2580   41.7770 C   0  0  0  0  0  0  0  0  0  0  0  0
   40.4970   28.7070   41.5950 H   0  0  0  0  0  0  0  0  0  0  0  0
   39.2180   29.5670   40.7430 H   0  0  0  0  0  0  0  0  0  0  0  0
   38.4990   28.3650   42.2790 C   0  0  0  0  0  0  0  0  0  0  0  0
   38.3870   27.1930   41.5810 C   0  0  0  0  0  0  0  0  0  0  0  0
   37.4150   26.2490   41.9340 C   0  0  0  0  0  0  0  0  0  0  0  0
   36.6160   26.5930   43.0030 N   0  0  0  0  0  0  0  0  0  0  0  0
   36.7420   27.7520   43.6800 C   0  0  0  0  0  0  0  0  0  0  0  0
   37.6740   28.6180   43.3110 N   0  0  0  0  0  0  0  0  0  0  0  0
   38.9050   26.7410   40.7470 H   0  0  0  0  0  0  0  0  0  0  0  0
   37.1870   25.2880   41.5020 H   0  0  0  0  0  0  0  0  0  0  0  0
   36.0550   27.9040   44.5010 H   0  0  0  0  0  0  0  0  0  0  0  0
   40.0110   31.5840   40.3750 O   0  0  0  0  0  0  0  0  0  0  0  0
   39.6000   34.1600   39.8080 O   0  0  0  0  0  0  0  0  0  0  0  0
   39.0940   32.7490   39.5640 P   0  0  1  0  0  0  0  0  0  0  0  0
   39.2330   32.4530   37.8860 O   0  0  0  0  0  0  0  0  0  0  0  0
   40.1070   32.0450   37.6730 H   0  0  0  0  0  0  0  0  0  0  0  0
   37.4790   32.5810   40.0110 O   0  0  0  0  0  0  0  0  0  0  0  0
   36.8440   31.3480   39.9900 C   0  0  0  0  0  0  0  0  0  0  0  0
   36.6510   30.2630   39.1600 C   0  0  0  0  0  0  0  0  0  0  0  0
   37.1280   30.3470   38.1940 H   0  0  0  0  0  0  0  0  0  0  0  0
   35.8590   29.3680   39.8790 C   0  0  0  0  0  0  0  0  0  0  0  0
   35.6090   28.4420   39.3600 H   0  0  0  0  0  0  0  0  0  0  0  0
   35.5970   29.9080   41.0910 N   0  0  0  0  0  0  0  0  0  0  0  0
   35.0120   29.3720   41.7690 H   0  0  0  0  0  0  0  0  0  0  0  0
   36.1960   31.1030   41.1460 N   0  0  0  0  0  0  0  0  0  0  0  0
  1  4  1  1  0  0  0
  2  1  1  0  0  0  0
  2  5  1  0  0  0  0
  3  7  1  1  0  0  0
  3  2  1  0  0  0  0
  3  1  1  0  0  0  0
  6  2  1  0  0  0  0
  8 11  1  0  0  0  0
  8  1  1  0  0  0  0
  9  8  1  0  0  0  0
 10  8  1  0  0  0  0
 11 16  1  0  0  0  0
 12 13  1  0  0  0  0
 12 11  2  0  0  0  0
 13 14  2  0  0  0  0
 14 15  1  0  0  0  0
 15 19  1  0  0  0  0
 16 15  2  0  0  0  0
 17 12  1  0  0  0  0
 18 13  1  0  0  0  0
 20  3  1  0  0  0  0
 22 21  2  1  0  0  0
 22 25  1  0  0  0  0
 22 20  1  0  0  0  0
 23 22  1  0  0  0  0
 24 23  1  0  0  0  0
 26 25  1  0  0  0  0
 26 33  2  0  0  0  0
 27 29  2  0  0  0  0
 27 26  1  0  0  0  0
 28 27  1  0  0  0  0
 29 31  1  0  0  0  0
 30 29  1  0  0  0  0
 31 33  1  0  0  0  0
 31 32  1  0  0  0  0
M  END
>  <minimizedAffinity>
-4.83507729

$$$$
