
 OpenBabel03252500543D

 29 30  0  0  0  0  0  0  0  0999 V2000
   47.5760   34.4530   42.1060 C   0  0  0  0  0  0  0  0  0  0  0  0
   46.7440   34.3040   41.0140 C   0  0  0  0  0  0  0  0  0  0  0  0
   45.3710   34.1470   41.2670 C   0  0  0  0  0  0  0  0  0  0  0  0
   44.9580   34.1520   42.5460 N   0  0  0  0  0  0  0  0  0  0  0  0
   45.7920   34.3000   43.5880 C   0  0  0  0  0  0  0  0  0  0  0  0
   47.1000   34.4500   43.3590 N   0  0  0  0  0  0  0  0  0  0  0  0
   44.7390   34.0310   40.3970 H   0  0  0  0  0  0  0  0  0  0  0  0
   45.3690   34.2930   44.5980 H   0  0  0  0  0  0  0  0  0  0  0  0
   49.0200   34.6220   41.9310 C   0  0  0  0  0  0  0  0  0  0  0  0
   49.4160   33.9990   41.1000 H   0  0  0  0  0  0  0  0  0  0  0  0
   49.5280   34.2830   42.8590 H   0  0  0  0  0  0  0  0  0  0  0  0
   49.3330   36.0900   41.7580 C   0  0  0  0  0  0  0  0  0  0  0  0
   50.1590   36.4090   42.4480 H   0  0  0  0  0  0  0  0  0  0  0  0
   49.7180   36.2110   40.7060 H   0  0  0  0  0  0  0  0  0  0  0  0
   48.4520   36.7480   41.8550 H   0  0  0  0  0  0  0  0  0  0  0  0
   47.3350   34.3200   39.7630 O   0  0  0  0  0  0  0  0  0  0  0  0
   49.0370   32.5770   38.7730 O   0  0  0  0  0  0  0  0  0  0  0  0
   47.5730   33.0080   38.7350 P   0  0  1  0  0  0  0  0  0  0  0  0
   46.6390   31.7060   39.3340 O   0  0  0  0  0  0  0  0  0  0  0  0
   46.6280   30.9360   38.7130 H   0  0  0  0  0  0  0  0  0  0  0  0
   47.0810   33.3070   37.1440 O   0  0  0  0  0  0  0  0  0  0  0  0
   45.9530   32.6690   36.6470 C   0  0  0  0  0  0  0  0  0  0  0  0
   46.1540   32.1990   35.3440 C   0  0  0  0  0  0  0  0  0  0  0  0
   46.9640   32.1950   34.5970 H   0  0  0  0  0  0  0  0  0  0  0  0
   44.9850   31.5730   34.9130 C   0  0  0  0  0  0  0  0  0  0  0  0
   44.6360   31.0700   34.0310 H   0  0  0  0  0  0  0  0  0  0  0  0
   44.1310   31.6900   35.9680 N   0  0  0  0  0  0  0  0  0  0  0  0
   43.1380   31.4070   36.1960 H   0  0  0  0  0  0  0  0  0  0  0  0
   44.7060   32.3310   36.9740 N   0  0  0  0  0  0  0  0  0  0  0  0
  1  6  1  0  0  0  0
  2  3  1  0  0  0  0
  2  1  2  0  0  0  0
  3  4  2  0  0  0  0
  4  5  1  0  0  0  0
  5  8  1  0  0  0  0
  6  5  2  0  0  0  0
  7  3  1  0  0  0  0
  9  1  1  0  0  0  0
  9 11  1  0  0  0  0
 10  9  1  0  0  0  0
 12 15  1  0  0  0  0
 12  9  1  0  0  0  0
 12 13  1  0  0  0  0
 14 12  1  0  0  0  0
 16  2  1  0  0  0  0
 18 17  2  1  0  0  0
 18 19  1  0  0  0  0
 18 16  1  0  0  0  0
 20 19  1  0  0  0  0
 21 18  1  0  0  0  0
 22 29  2  0  0  0  0
 22 21  1  0  0  0  0
 23 22  1  0  0  0  0
 24 23  1  0  0  0  0
 25 23  2  0  0  0  0
 25 27  1  0  0  0  0
 26 25  1  0  0  0  0
 27 28  1  0  0  0  0
 27 29  1  0  0  0  0
M  END
>  <minimizedAffinity>
-3.82978725

>  <minimizedRMSD>
5.64080429

$$$$
