
 OpenBabel03252506143D

 35 37  0  0  0  0  0  0  0  0999 V2000
   39.2280   30.2380   37.6490 F   0  0  0  0  0  0  0  0  0  0  0  0
   38.6860   31.1830   38.4130 C   0  0  0  0  0  0  0  0  0  0  0  0
   39.4870   32.1980   38.9090 C   0  0  0  0  0  0  0  0  0  0  0  0
   39.0000   33.2210   39.7080 C   0  0  0  0  0  0  0  0  0  0  0  0
   37.6450   33.2510   40.0420 C   0  0  0  0  0  0  0  0  0  0  0  0
   36.8760   32.2210   39.5280 C   0  0  0  0  0  0  0  0  0  0  0  0
   37.3370   31.2120   38.7460 C   0  0  0  0  0  0  0  0  0  0  0  0
   39.7010   33.9910   40.0620 H   0  0  0  0  0  0  0  0  0  0  0  0
   37.3160   34.0630   40.6620 H   0  0  0  0  0  0  0  0  0  0  0  0
   35.8500   32.3630   39.8510 H   0  0  0  0  0  0  0  0  0  0  0  0
   42.7310   33.2770   37.5620 C   0  0  0  0  0  0  0  0  0  0  0  0
   43.5820   32.2360   37.9960 C   0  0  0  0  0  0  0  0  0  0  0  0
   43.0370   31.1680   38.7500 C   0  0  0  0  0  0  0  0  0  0  0  0
   41.6960   31.2200   39.0110 N   0  0  0  0  0  0  0  0  0  0  0  0
   40.9210   32.2180   38.5850 C   0  0  0  0  0  0  0  0  0  0  0  0
   41.4370   33.2290   37.8720 N   0  0  0  0  0  0  0  0  0  0  0  0
   44.6340   32.2230   37.7750 H   0  0  0  0  0  0  0  0  0  0  0  0
   43.6620   30.3560   39.0980 H   0  0  0  0  0  0  0  0  0  0  0  0
   43.2930   34.3350   36.8090 N   0  0  0  0  0  0  0  0  0  0  0  0
   42.6340   34.9910   36.3310 H   0  0  0  0  0  0  0  0  0  0  0  0
   44.3280   34.4480   36.7420 H   0  0  0  0  0  0  0  0  0  0  0  0
   36.4860   30.2400   38.2910 O   0  0  0  0  0  0  0  0  0  0  0  0
   35.2630   27.8870   38.3170 O   0  0  0  0  0  0  0  0  0  0  0  0
   35.9120   28.9210   39.1840 P   0  0  2  0  0  0  0  0  0  0  0  0
   34.7950   29.5260   40.3340 O   0  0  0  0  0  0  0  0  0  0  0  0
   33.9270   29.1460   40.1200 H   0  0  0  0  0  0  0  0  0  0  0  0
   37.1210   28.1800   40.1090 O   0  0  0  0  0  0  0  0  0  0  0  0
   37.1110   28.2870   41.4940 C   0  0  0  0  0  0  0  0  0  0  0  0
   36.9690   27.2950   42.4390 C   0  0  0  0  0  0  0  0  0  0  0  0
   36.8420   26.2550   42.1820 H   0  0  0  0  0  0  0  0  0  0  0  0
   37.0250   27.9090   43.6750 C   0  0  0  0  0  0  0  0  0  0  0  0
   36.9450   27.4070   44.6280 H   0  0  0  0  0  0  0  0  0  0  0  0
   37.1970   29.2410   43.4620 N   0  0  0  0  0  0  0  0  0  0  0  0
   37.2810   30.0040   44.1970 H   0  0  0  0  0  0  0  0  0  0  0  0
   37.2480   29.4660   42.1510 N   0  0  0  0  0  0  0  0  0  0  0  0
  1  2  1  0  0  0  0
  2  7  2  0  0  0  0
  2  3  1  0  0  0  0
  3  4  2  0  0  0  0
  4  5  1  0  0  0  0
  4  8  1  0  0  0  0
  5  9  1  0  0  0  0
  6 10  1  0  0  0  0
  6  5  2  0  0  0  0
  7  6  1  0  0  0  0
 11 16  2  0  0  0  0
 11 12  1  0  0  0  0
 12 13  2  0  0  0  0
 13 14  1  0  0  0  0
 13 18  1  0  0  0  0
 15  3  1  0  0  0  0
 15 14  2  0  0  0  0
 16 15  1  0  0  0  0
 17 12  1  0  0  0  0
 19 11  1  0  0  0  0
 20 19  1  0  0  0  0
 21 19  1  0  0  0  0
 22  7  1  0  0  0  0
 22 24  1  0  0  0  0
 24 23  2  6  0  0  0
 24 27  1  0  0  0  0
 24 25  1  0  0  0  0
 26 25  1  0  0  0  0
 27 28  1  0  0  0  0
 28 35  2  0  0  0  0
 28 29  1  0  0  0  0
 29 31  2  0  0  0  0
 30 29  1  0  0  0  0
 31 32  1  0  0  0  0
 33 31  1  0  0  0  0
 33 34  1  0  0  0  0
 35 33  1  0  0  0  0
M  END
>  <minimizedAffinity>
-6.15347624

$$$$

 OpenBabel03252506143D

 35 37  0  0  0  0  0  0  0  0999 V2000
   39.5210   27.1100   40.3510 F   0  0  0  0  0  0  0  0  0  0  0  0
   38.8050   27.4470   41.4210 C   0  0  0  0  0  0  0  0  0  0  0  0
   37.7190   26.6690   41.7850 C   0  0  0  0  0  0  0  0  0  0  0  0
   36.9250   26.9490   42.8860 C   0  0  0  0  0  0  0  0  0  0  0  0
   37.2140   28.0610   43.6800 C   0  0  0  0  0  0  0  0  0  0  0  0
   38.3060   28.8140   43.2860 C   0  0  0  0  0  0  0  0  0  0  0  0
   39.0920   28.5540   42.2110 C   0  0  0  0  0  0  0  0  0  0  0  0
   36.0800   26.2810   43.1090 H   0  0  0  0  0  0  0  0  0  0  0  0
   36.5700   28.2360   44.5220 H   0  0  0  0  0  0  0  0  0  0  0  0
   38.4270   29.6360   43.9840 H   0  0  0  0  0  0  0  0  0  0  0  0
   37.6320   23.2030   40.5680 C   0  0  0  0  0  0  0  0  0  0  0  0
   36.7160   23.2980   39.4950 C   0  0  0  0  0  0  0  0  0  0  0  0
   36.1330   24.5540   39.1960 C   0  0  0  0  0  0  0  0  0  0  0  0
   36.5040   25.6090   39.9830 N   0  0  0  0  0  0  0  0  0  0  0  0
   37.3720   25.4830   40.9870 C   0  0  0  0  0  0  0  0  0  0  0  0
   37.9240   24.2950   41.2710 N   0  0  0  0  0  0  0  0  0  0  0  0
   36.4450   22.4500   38.8940 H   0  0  0  0  0  0  0  0  0  0  0  0
   35.4290   24.6610   38.3820 H   0  0  0  0  0  0  0  0  0  0  0  0
   38.2050   21.9410   40.8520 N   0  0  0  0  0  0  0  0  0  0  0  0
   39.0170   21.9150   41.5100 H   0  0  0  0  0  0  0  0  0  0  0  0
   37.8230   21.0730   40.4160 H   0  0  0  0  0  0  0  0  0  0  0  0
   40.1510   29.3690   41.9090 O   0  0  0  0  0  0  0  0  0  0  0  0
   41.4050   31.0480   40.2840 O   0  0  0  0  0  0  0  0  0  0  0  0
   40.0940   30.7620   40.9480 P   0  0  2  0  0  0  0  0  0  0  0  0
   39.6390   32.0670   41.9610 O   0  0  0  0  0  0  0  0  0  0  0  0
   40.3830   32.6900   41.9800 H   0  0  0  0  0  0  0  0  0  0  0  0
   38.8840   30.6940   39.7660 O   0  0  0  0  0  0  0  0  0  0  0  0
   37.5550   30.5250   40.1300 C   0  0  0  0  0  0  0  0  0  0  0  0
   36.6370   29.6130   39.6570 C   0  0  0  0  0  0  0  0  0  0  0  0
   36.8730   28.8830   38.8980 H   0  0  0  0  0  0  0  0  0  0  0  0
   35.4540   29.8490   40.3320 C   0  0  0  0  0  0  0  0  0  0  0  0
   34.5340   29.3030   40.1920 H   0  0  0  0  0  0  0  0  0  0  0  0
   35.6730   30.8820   41.1890 N   0  0  0  0  0  0  0  0  0  0  0  0
   34.9750   31.3200   41.8610 H   0  0  0  0  0  0  0  0  0  0  0  0
   36.9350   31.2870   41.0660 N   0  0  0  0  0  0  0  0  0  0  0  0
  1  2  1  0  0  0  0
  2  3  2  0  0  0  0
  2  7  1  0  0  0  0
  3  4  1  0  0  0  0
  4  8  1  0  0  0  0
  4  5  2  0  0  0  0
  5  9  1  0  0  0  0
  6  5  1  0  0  0  0
  6 10  1  0  0  0  0
  7  6  2  0  0  0  0
 11 19  1  0  0  0  0
 11 16  1  0  0  0  0
 12 11  2  0  0  0  0
 13 12  1  0  0  0  0
 13 14  2  0  0  0  0
 14 15  1  0  0  0  0
 15 16  2  0  0  0  0
 15  3  1  0  0  0  0
 17 12  1  0  0  0  0
 18 13  1  0  0  0  0
 19 20  1  0  0  0  0
 21 19  1  0  0  0  0
 22  7  1  0  0  0  0
 24 23  2  6  0  0  0
 24 22  1  0  0  0  0
 24 25  1  0  0  0  0
 25 26  1  0  0  0  0
 27 28  1  0  0  0  0
 27 24  1  0  0  0  0
 28 35  2  0  0  0  0
 29 28  1  0  0  0  0
 29 31  2  0  0  0  0
 30 29  1  0  0  0  0
 31 33  1  0  0  0  0
 32 31  1  0  0  0  0
 33 34  1  0  0  0  0
 35 33  1  0  0  0  0
M  END
>  <minimizedAffinity>
-5.95043564

$$$$

 OpenBabel03252506143D

 35 37  0  0  0  0  0  0  0  0999 V2000
   39.2530   28.1790   39.5300 F   0  0  0  0  0  0  0  0  0  0  0  0
   38.0240   28.5620   39.8660 C   0  0  0  0  0  0  0  0  0  0  0  0
   37.4100   27.9890   40.9680 C   0  0  0  0  0  0  0  0  0  0  0  0
   36.1350   28.3340   41.3850 C   0  0  0  0  0  0  0  0  0  0  0  0
   35.4150   29.3000   40.6790 C   0  0  0  0  0  0  0  0  0  0  0  0
   36.0590   29.8500   39.5850 C   0  0  0  0  0  0  0  0  0  0  0  0
   37.3070   29.5230   39.1620 C   0  0  0  0  0  0  0  0  0  0  0  0
   35.7170   27.8330   42.2710 H   0  0  0  0  0  0  0  0  0  0  0  0
   34.4310   29.5340   41.0410 H   0  0  0  0  0  0  0  0  0  0  0  0
   35.4030   30.5860   39.1320 H   0  0  0  0  0  0  0  0  0  0  0  0
   38.6880   24.7310   42.0860 C   0  0  0  0  0  0  0  0  0  0  0  0
   39.4560   25.0960   43.2150 C   0  0  0  0  0  0  0  0  0  0  0  0
   39.5300   26.4600   43.5860 C   0  0  0  0  0  0  0  0  0  0  0  0
   38.8400   27.3490   42.8100 N   0  0  0  0  0  0  0  0  0  0  0  0
   38.1240   26.9690   41.7500 C   0  0  0  0  0  0  0  0  0  0  0  0
   38.0540   25.6780   41.3980 N   0  0  0  0  0  0  0  0  0  0  0  0
   39.9880   24.3730   43.8060 H   0  0  0  0  0  0  0  0  0  0  0  0
   40.1090   26.7730   44.4450 H   0  0  0  0  0  0  0  0  0  0  0  0
   38.6250   23.3620   41.7300 N   0  0  0  0  0  0  0  0  0  0  0  0
   37.9090   23.0800   41.0220 H   0  0  0  0  0  0  0  0  0  0  0  0
   39.2740   22.6700   42.1630 H   0  0  0  0  0  0  0  0  0  0  0  0
   37.8510   30.1300   38.0610 O   0  0  0  0  0  0  0  0  0  0  0  0
   37.8500   32.6660   38.8380 O   0  0  0  0  0  0  0  0  0  0  0  0
   38.5950   31.6500   38.0280 P   0  0  2  0  0  0  0  0  0  0  0  0
   38.6860   32.1420   36.3890 O   0  0  0  0  0  0  0  0  0  0  0  0
   38.1400   32.9390   36.2960 H   0  0  0  0  0  0  0  0  0  0  0  0
   40.2040   31.6040   38.5530 O   0  0  0  0  0  0  0  0  0  0  0  0
   41.0870   32.6170   38.2010 C   0  0  0  0  0  0  0  0  0  0  0  0
   41.6830   33.5640   39.0030 C   0  0  0  0  0  0  0  0  0  0  0  0
   41.5130   33.6220   40.0680 H   0  0  0  0  0  0  0  0  0  0  0  0
   42.4740   34.3450   38.1820 C   0  0  0  0  0  0  0  0  0  0  0  0
   43.0780   35.1800   38.5040 H   0  0  0  0  0  0  0  0  0  0  0  0
   42.3460   33.8650   36.9160 N   0  0  0  0  0  0  0  0  0  0  0  0
   42.8190   34.2320   36.0380 H   0  0  0  0  0  0  0  0  0  0  0  0
   41.5120   32.8270   36.9300 N   0  0  0  0  0  0  0  0  0  0  0  0
  1  2  1  0  0  0  0
  2  3  1  0  0  0  0
  3  4  2  0  0  0  0
  3 15  1  0  0  0  0
  4  8  1  0  0  0  0
  5  9  1  0  0  0  0
  5  4  1  0  0  0  0
  6  5  2  0  0  0  0
  7  6  1  0  0  0  0
  7  2  2  0  0  0  0
 10  6  1  0  0  0  0
 11 12  1  0  0  0  0
 12 13  2  0  0  0  0
 12 17  1  0  0  0  0
 13 18  1  0  0  0  0
 14 13  1  0  0  0  0
 15 14  2  0  0  0  0
 16 15  1  0  0  0  0
 16 11  2  0  0  0  0
 19 11  1  0  0  0  0
 19 21  1  0  0  0  0
 20 19  1  0  0  0  0
 22  7  1  0  0  0  0
 24 22  1  0  0  0  0
 24 27  1  0  0  0  0
 24 23  2  1  0  0  0
 25 24  1  0  0  0  0
 26 25  1  0  0  0  0
 28 27  1  0  0  0  0
 28 29  1  0  0  0  0
 29 30  1  0  0  0  0
 31 32  1  0  0  0  0
 31 29  2  0  0  0  0
 33 35  1  0  0  0  0
 33 31  1  0  0  0  0
 34 33  1  0  0  0  0
 35 28  2  0  0  0  0
M  END
>  <minimizedAffinity>
-5.94984674

$$$$

 OpenBabel03252506143D

 35 37  0  0  0  0  0  0  0  0999 V2000
   37.8720   27.6470   39.4930 F   0  0  0  0  0  0  0  0  0  0  0  0
   37.6030   27.6830   40.7960 C   0  0  0  0  0  0  0  0  0  0  0  0
   37.1800   26.5290   41.4350 C   0  0  0  0  0  0  0  0  0  0  0  0
   36.8840   26.4810   42.7870 C   0  0  0  0  0  0  0  0  0  0  0  0
   37.0100   27.6350   43.5630 C   0  0  0  0  0  0  0  0  0  0  0  0
   37.4350   28.7680   42.8910 C   0  0  0  0  0  0  0  0  0  0  0  0
   37.7280   28.8320   41.5670 C   0  0  0  0  0  0  0  0  0  0  0  0
   36.5530   25.5250   43.2210 H   0  0  0  0  0  0  0  0  0  0  0  0
   36.7690   27.5480   44.6060 H   0  0  0  0  0  0  0  0  0  0  0  0
   37.5000   29.5860   43.6010 H   0  0  0  0  0  0  0  0  0  0  0  0
   37.5660   23.0300   40.3810 C   0  0  0  0  0  0  0  0  0  0  0  0
   36.7490   22.9850   39.2290 C   0  0  0  0  0  0  0  0  0  0  0  0
   36.0690   24.1580   38.8200 C   0  0  0  0  0  0  0  0  0  0  0  0
   36.2540   25.2760   39.5850 N   0  0  0  0  0  0  0  0  0  0  0  0
   37.0340   25.2830   40.6670 C   0  0  0  0  0  0  0  0  0  0  0  0
   37.6770   24.1730   41.0550 N   0  0  0  0  0  0  0  0  0  0  0  0
   36.6230   22.0900   38.6480 H   0  0  0  0  0  0  0  0  0  0  0  0
   35.4360   24.1570   37.9430 H   0  0  0  0  0  0  0  0  0  0  0  0
   38.2380   21.8480   40.7750 N   0  0  0  0  0  0  0  0  0  0  0  0
   38.9840   21.9360   41.5030 H   0  0  0  0  0  0  0  0  0  0  0  0
   37.9900   20.9290   40.3490 H   0  0  0  0  0  0  0  0  0  0  0  0
   38.1410   30.0090   41.0020 O   0  0  0  0  0  0  0  0  0  0  0  0
   37.7360   32.6130   40.7000 O   0  0  0  0  0  0  0  0  0  0  0  0
   37.1370   31.2610   40.4620 P   0  0  2  0  0  0  0  0  0  0  0  0
   35.6430   31.1140   41.2880 O   0  0  0  0  0  0  0  0  0  0  0  0
   35.5370   31.9100   41.8340 H   0  0  0  0  0  0  0  0  0  0  0  0
   36.7370   31.1200   38.8230 O   0  0  0  0  0  0  0  0  0  0  0  0
   36.0530   30.0030   38.3600 C   0  0  0  0  0  0  0  0  0  0  0  0
   36.1720   29.3540   37.1520 C   0  0  0  0  0  0  0  0  0  0  0  0
   36.8600   29.6690   36.3820 H   0  0  0  0  0  0  0  0  0  0  0  0
   35.2760   28.3020   37.1710 C   0  0  0  0  0  0  0  0  0  0  0  0
   35.1220   27.5950   36.3700 H   0  0  0  0  0  0  0  0  0  0  0  0
   34.6400   28.3310   38.3730 N   0  0  0  0  0  0  0  0  0  0  0  0
   33.8890   27.6650   38.7200 H   0  0  0  0  0  0  0  0  0  0  0  0
   35.1080   29.3540   39.0850 N   0  0  0  0  0  0  0  0  0  0  0  0
  1  2  1  0  0  0  0
  2  3  2  0  0  0  0
  2  7  1  0  0  0  0
  3  4  1  0  0  0  0
  4  8  1  0  0  0  0
  4  5  2  0  0  0  0
  5  9  1  0  0  0  0
  6  5  1  0  0  0  0
  6 10  1  0  0  0  0
  7  6  2  0  0  0  0
 11 19  1  0  0  0  0
 11 16  1  0  0  0  0
 12 11  2  0  0  0  0
 13 12  1  0  0  0  0
 13 14  2  0  0  0  0
 14 15  1  0  0  0  0
 15 16  2  0  0  0  0
 15  3  1  0  0  0  0
 17 12  1  0  0  0  0
 18 13  1  0  0  0  0
 19 20  1  0  0  0  0
 21 19  1  0  0  0  0
 22  7  1  0  0  0  0
 24 23  2  1  0  0  0
 24 22  1  0  0  0  0
 24 25  1  0  0  0  0
 25 26  1  0  0  0  0
 27 24  1  0  0  0  0
 28 27  1  0  0  0  0
 28 35  2  0  0  0  0
 29 31  2  0  0  0  0
 29 28  1  0  0  0  0
 30 29  1  0  0  0  0
 31 33  1  0  0  0  0
 32 31  1  0  0  0  0
 33 34  1  0  0  0  0
 33 35  1  0  0  0  0
M  END
>  <minimizedAffinity>
-5.92125511

$$$$

 OpenBabel03252506143D

 35 37  0  0  0  0  0  0  0  0999 V2000
   40.5600   30.1980   40.5200 F   0  0  0  0  0  0  0  0  0  0  0  0
   39.3630   30.6010   40.1000 C   0  0  0  0  0  0  0  0  0  0  0  0
   39.2300   31.8570   39.5310 C   0  0  0  0  0  0  0  0  0  0  0  0
   38.0220   32.3500   39.0660 C   0  0  0  0  0  0  0  0  0  0  0  0
   36.8720   31.5640   39.1650 C   0  0  0  0  0  0  0  0  0  0  0  0
   37.0430   30.3160   39.7390 C   0  0  0  0  0  0  0  0  0  0  0  0
   38.2190   29.8190   40.2000 C   0  0  0  0  0  0  0  0  0  0  0  0
   37.9990   33.3580   38.6260 H   0  0  0  0  0  0  0  0  0  0  0  0
   35.9590   31.9900   38.7900 H   0  0  0  0  0  0  0  0  0  0  0  0
   36.0850   29.8080   39.7490 H   0  0  0  0  0  0  0  0  0  0  0  0
   41.9490   33.8200   38.0290 C   0  0  0  0  0  0  0  0  0  0  0  0
   42.5980   34.3350   39.1740 C   0  0  0  0  0  0  0  0  0  0  0  0
   42.0980   34.0040   40.4570 C   0  0  0  0  0  0  0  0  0  0  0  0
   40.9980   33.1930   40.4990 N   0  0  0  0  0  0  0  0  0  0  0  0
   40.4100   32.7250   39.3980 C   0  0  0  0  0  0  0  0  0  0  0  0
   40.8830   33.0370   38.1830 N   0  0  0  0  0  0  0  0  0  0  0  0
   43.4620   34.9710   39.1080 H   0  0  0  0  0  0  0  0  0  0  0  0
   42.5710   34.3820   41.3530 H   0  0  0  0  0  0  0  0  0  0  0  0
   42.4630   34.1600   36.7540 N   0  0  0  0  0  0  0  0  0  0  0  0
   42.1040   33.6270   35.9300 H   0  0  0  0  0  0  0  0  0  0  0  0
   43.1730   34.9180   36.6530 H   0  0  0  0  0  0  0  0  0  0  0  0
   38.2760   28.5680   40.7530 O   0  0  0  0  0  0  0  0  0  0  0  0
   37.7910   29.3740   43.2330 O   0  0  0  0  0  0  0  0  0  0  0  0
   38.2320   28.2060   42.4070 P   0  0  2  0  0  0  0  0  0  0  0  0
   39.8060   27.7070   42.8660 O   0  0  0  0  0  0  0  0  0  0  0  0
   40.1390   28.3570   43.5050 H   0  0  0  0  0  0  0  0  0  0  0  0
   37.2410   26.8800   42.7610 O   0  0  0  0  0  0  0  0  0  0  0  0
   37.5790   25.6100   42.3110 C   0  0  0  0  0  0  0  0  0  0  0  0
   36.8450   24.7440   41.5300 C   0  0  0  0  0  0  0  0  0  0  0  0
   35.8590   24.9800   41.1610 H   0  0  0  0  0  0  0  0  0  0  0  0
   37.6150   23.6090   41.3590 C   0  0  0  0  0  0  0  0  0  0  0  0
   37.3260   22.7360   40.7940 H   0  0  0  0  0  0  0  0  0  0  0  0
   38.7840   23.8040   42.0280 N   0  0  0  0  0  0  0  0  0  0  0  0
   39.6020   23.1300   42.1030 H   0  0  0  0  0  0  0  0  0  0  0  0
   38.7590   25.0060   42.5990 N   0  0  0  0  0  0  0  0  0  0  0  0
  2  7  1  0  0  0  0
  2  1  1  0  0  0  0
  3  2  2  0  0  0  0
  4  5  2  0  0  0  0
  4  3  1  0  0  0  0
  5  6  1  0  0  0  0
  6 10  1  0  0  0  0
  6  7  2  0  0  0  0
  7 22  1  0  0  0  0
  8  4  1  0  0  0  0
  9  5  1  0  0  0  0
 11 16  2  0  0  0  0
 11 12  1  0  0  0  0
 12 13  2  0  0  0  0
 13 14  1  0  0  0  0
 13 18  1  0  0  0  0
 15  3  1  0  0  0  0
 15 14  2  0  0  0  0
 16 15  1  0  0  0  0
 17 12  1  0  0  0  0
 19 11  1  0  0  0  0
 20 19  1  0  0  0  0
 21 19  1  0  0  0  0
 22 24  1  0  0  0  0
 24 27  1  0  0  0  0
 24 25  1  0  0  0  0
 24 23  2  1  0  0  0
 25 26  1  0  0  0  0
 28 35  2  0  0  0  0
 28 27  1  0  0  0  0
 29 28  1  0  0  0  0
 30 29  1  0  0  0  0
 31 29  2  0  0  0  0
 31 33  1  0  0  0  0
 32 31  1  0  0  0  0
 33 34  1  0  0  0  0
 33 35  1  0  0  0  0
M  END
>  <minimizedAffinity>
-5.870121

$$$$

 OpenBabel03252506143D

 35 37  0  0  0  0  0  0  0  0999 V2000
   39.6550   30.5600   39.3360 F   0  0  0  0  0  0  0  0  0  0  0  0
   39.1050   31.7580   39.5150 C   0  0  0  0  0  0  0  0  0  0  0  0
   39.8630   32.7790   40.0630 C   0  0  0  0  0  0  0  0  0  0  0  0
   39.3670   34.0550   40.2790 C   0  0  0  0  0  0  0  0  0  0  0  0
   38.0450   34.3480   39.9390 C   0  0  0  0  0  0  0  0  0  0  0  0
   37.3180   33.3040   39.3940 C   0  0  0  0  0  0  0  0  0  0  0  0
   37.7890   32.0500   39.1770 C   0  0  0  0  0  0  0  0  0  0  0  0
   40.0340   34.8120   40.7180 H   0  0  0  0  0  0  0  0  0  0  0  0
   37.7070   35.3510   40.1250 H   0  0  0  0  0  0  0  0  0  0  0  0
   36.3190   33.6610   39.1680 H   0  0  0  0  0  0  0  0  0  0  0  0
   42.8570   32.1390   42.0960 C   0  0  0  0  0  0  0  0  0  0  0  0
   43.8630   32.0600   41.1070 C   0  0  0  0  0  0  0  0  0  0  0  0
   43.5080   32.2260   39.7460 C   0  0  0  0  0  0  0  0  0  0  0  0
   42.1870   32.4570   39.4780 N   0  0  0  0  0  0  0  0  0  0  0  0
   41.2630   32.5270   40.4360 C   0  0  0  0  0  0  0  0  0  0  0  0
   41.5990   32.3690   41.7250 N   0  0  0  0  0  0  0  0  0  0  0  0
   44.8940   31.8770   41.3490 H   0  0  0  0  0  0  0  0  0  0  0  0
   44.2550   32.1710   38.9650 H   0  0  0  0  0  0  0  0  0  0  0  0
   43.2300   31.9710   43.4500 N   0  0  0  0  0  0  0  0  0  0  0  0
   42.5260   32.2220   44.1810 H   0  0  0  0  0  0  0  0  0  0  0  0
   44.1760   31.6080   43.6990 H   0  0  0  0  0  0  0  0  0  0  0  0
   36.9800   31.0870   38.6320 O   0  0  0  0  0  0  0  0  0  0  0  0
   35.0770   29.2410   38.6410 O   0  0  0  0  0  0  0  0  0  0  0  0
   36.1100   29.9150   39.4900 P   0  0  2  0  0  0  0  0  0  0  0  0
   35.3710   30.6960   40.8240 O   0  0  0  0  0  0  0  0  0  0  0  0
   34.4110   30.6300   40.7010 H   0  0  0  0  0  0  0  0  0  0  0  0
   37.1070   28.7340   40.1810 O   0  0  0  0  0  0  0  0  0  0  0  0
   37.1120   28.5360   41.5550 C   0  0  0  0  0  0  0  0  0  0  0  0
   36.7810   27.4060   42.2690 C   0  0  0  0  0  0  0  0  0  0  0  0
   36.4590   26.4890   41.8000 H   0  0  0  0  0  0  0  0  0  0  0  0
   36.9470   27.7130   43.6060 C   0  0  0  0  0  0  0  0  0  0  0  0
   36.7690   27.0390   44.4300 H   0  0  0  0  0  0  0  0  0  0  0  0
   37.3700   29.0040   43.6790 N   0  0  0  0  0  0  0  0  0  0  0  0
   37.5950   29.5590   44.5560 H   0  0  0  0  0  0  0  0  0  0  0  0
   37.4680   29.4960   42.4450 N   0  0  0  0  0  0  0  0  0  0  0  0
  1  2  1  0  0  0  0
  2  3  1  0  0  0  0
  3  4  2  0  0  0  0
  3 15  1  0  0  0  0
  4  8  1  0  0  0  0
  5  9  1  0  0  0  0
  5  4  1  0  0  0  0
  6  5  2  0  0  0  0
  7  6  1  0  0  0  0
  7  2  2  0  0  0  0
 10  6  1  0  0  0  0
 11 19  1  0  0  0  0
 12 17  1  0  0  0  0
 12 11  2  0  0  0  0
 13 12  1  0  0  0  0
 14 13  2  0  0  0  0
 14 15  1  0  0  0  0
 15 16  2  0  0  0  0
 16 11  1  0  0  0  0
 18 13  1  0  0  0  0
 19 21  1  0  0  0  0
 19 20  1  0  0  0  0
 22  7  1  0  0  0  0
 22 24  1  0  0  0  0
 24 23  2  6  0  0  0
 24 27  1  0  0  0  0
 24 25  1  0  0  0  0
 26 25  1  0  0  0  0
 27 28  1  0  0  0  0
 28 29  1  0  0  0  0
 28 35  2  0  0  0  0
 29 31  2  0  0  0  0
 30 29  1  0  0  0  0
 31 33  1  0  0  0  0
 31 32  1  0  0  0  0
 33 34  1  0  0  0  0
 35 33  1  0  0  0  0
M  END
>  <minimizedAffinity>
-5.80062771

$$$$

 OpenBabel03252506143D

 35 37  0  0  0  0  0  0  0  0999 V2000
   37.0940   27.1920   40.4580 F   0  0  0  0  0  0  0  0  0  0  0  0
   36.7380   25.9740   40.0580 C   0  0  0  0  0  0  0  0  0  0  0  0
   36.1690   25.8080   38.8060 C   0  0  0  0  0  0  0  0  0  0  0  0
   35.7750   24.5750   38.3130 C   0  0  0  0  0  0  0  0  0  0  0  0
   35.9480   23.4320   39.0960 C   0  0  0  0  0  0  0  0  0  0  0  0
   36.5180   23.6350   40.3400 C   0  0  0  0  0  0  0  0  0  0  0  0
   36.9090   24.8360   40.8370 C   0  0  0  0  0  0  0  0  0  0  0  0
   35.3310   24.5270   37.3070 H   0  0  0  0  0  0  0  0  0  0  0  0
   35.6270   22.4990   38.6700 H   0  0  0  0  0  0  0  0  0  0  0  0
   36.6050   22.6760   40.8400 H   0  0  0  0  0  0  0  0  0  0  0  0
   36.7030   28.3150   36.1720 C   0  0  0  0  0  0  0  0  0  0  0  0
   35.5760   29.1510   36.3390 C   0  0  0  0  0  0  0  0  0  0  0  0
   34.6380   28.8490   37.3560 C   0  0  0  0  0  0  0  0  0  0  0  0
   34.8930   27.7450   38.1220 N   0  0  0  0  0  0  0  0  0  0  0  0
   35.9680   26.9780   37.9370 C   0  0  0  0  0  0  0  0  0  0  0  0
   36.8560   27.2640   36.9750 N   0  0  0  0  0  0  0  0  0  0  0  0
   35.4030   30.0120   35.7210 H   0  0  0  0  0  0  0  0  0  0  0  0
   33.7640   29.4690   37.5100 H   0  0  0  0  0  0  0  0  0  0  0  0
   37.6300   28.6320   35.1510 N   0  0  0  0  0  0  0  0  0  0  0  0
   38.5490   28.1320   35.1590 H   0  0  0  0  0  0  0  0  0  0  0  0
   37.3960   29.3400   34.4220 H   0  0  0  0  0  0  0  0  0  0  0  0
   37.4640   24.9250   42.0870 O   0  0  0  0  0  0  0  0  0  0  0  0
   39.9520   25.1690   41.2010 O   0  0  0  0  0  0  0  0  0  0  0  0
   39.1170   25.0410   42.4370 P   0  0  2  0  0  0  0  0  0  0  0  0
   39.5560   23.6360   43.3140 O   0  0  0  0  0  0  0  0  0  0  0  0
   40.1940   23.1460   42.7710 H   0  0  0  0  0  0  0  0  0  0  0  0
   39.4770   26.3270   43.4780 O   0  0  0  0  0  0  0  0  0  0  0  0
   38.8880   27.5700   43.2890 C   0  0  0  0  0  0  0  0  0  0  0  0
   39.4180   28.7000   42.7070 C   0  0  0  0  0  0  0  0  0  0  0  0
   40.4210   28.7390   42.3090 H   0  0  0  0  0  0  0  0  0  0  0  0
   38.4400   29.6740   42.7590 C   0  0  0  0  0  0  0  0  0  0  0  0
   38.5390   30.6820   42.3840 H   0  0  0  0  0  0  0  0  0  0  0  0
   37.3500   29.1270   43.3600 N   0  0  0  0  0  0  0  0  0  0  0  0
   36.4200   29.6000   43.5600 H   0  0  0  0  0  0  0  0  0  0  0  0
   37.6220   27.8630   43.6780 N   0  0  0  0  0  0  0  0  0  0  0  0
  2  1  1  0  0  0  0
  2  7  1  0  0  0  0
  3  2  2  0  0  0  0
  4  3  1  0  0  0  0
  4  5  2  0  0  0  0
  5  6  1  0  0  0  0
  6  7  2  0  0  0  0
  6 10  1  0  0  0  0
  7 22  1  0  0  0  0
  8  4  1  0  0  0  0
  9  5  1  0  0  0  0
 11 12  2  0  0  0  0
 11 16  1  0  0  0  0
 12 13  1  0  0  0  0
 13 18  1  0  0  0  0
 13 14  2  0  0  0  0
 15 14  1  0  0  0  0
 15  3  1  0  0  0  0
 16 15  2  0  0  0  0
 17 12  1  0  0  0  0
 19 20  1  0  0  0  0
 19 11  1  0  0  0  0
 21 19  1  0  0  0  0
 22 24  1  0  0  0  0
 24 23  2  6  0  0  0
 24 25  1  0  0  0  0
 24 27  1  0  0  0  0
 26 25  1  0  0  0  0
 28 27  1  0  0  0  0
 28 35  2  0  0  0  0
 29 31  2  0  0  0  0
 29 28  1  0  0  0  0
 30 29  1  0  0  0  0
 31 33  1  0  0  0  0
 32 31  1  0  0  0  0
 33 34  1  0  0  0  0
 33 35  1  0  0  0  0
M  END
>  <minimizedAffinity>
-5.76678705

$$$$

 OpenBabel03252506143D

 35 37  0  0  0  0  0  0  0  0999 V2000
   39.6090   27.7850   40.3390 F   0  0  0  0  0  0  0  0  0  0  0  0
   38.6910   27.7640   41.3030 C   0  0  0  0  0  0  0  0  0  0  0  0
   39.0910   27.6040   42.6190 C   0  0  0  0  0  0  0  0  0  0  0  0
   38.1990   27.5760   43.6800 C   0  0  0  0  0  0  0  0  0  0  0  0
   36.8320   27.7130   43.4350 C   0  0  0  0  0  0  0  0  0  0  0  0
   36.4700   27.8710   42.1090 C   0  0  0  0  0  0  0  0  0  0  0  0
   37.3300   27.9000   41.0590 C   0  0  0  0  0  0  0  0  0  0  0  0
   38.5960   27.4440   44.6980 H   0  0  0  0  0  0  0  0  0  0  0  0
   36.1810   27.6850   44.2900 H   0  0  0  0  0  0  0  0  0  0  0  0
   35.3910   27.9740   42.0560 H   0  0  0  0  0  0  0  0  0  0  0  0
   42.3560   26.0750   43.3260 C   0  0  0  0  0  0  0  0  0  0  0  0
   43.1710   27.2130   43.5180 C   0  0  0  0  0  0  0  0  0  0  0  0
   42.5930   28.5020   43.4040 C   0  0  0  0  0  0  0  0  0  0  0  0
   41.2590   28.5550   43.1090 N   0  0  0  0  0  0  0  0  0  0  0  0
   40.5200   27.4590   42.9340 C   0  0  0  0  0  0  0  0  0  0  0  0
   41.0660   26.2400   43.0420 N   0  0  0  0  0  0  0  0  0  0  0  0
   44.2170   27.1390   43.7500 H   0  0  0  0  0  0  0  0  0  0  0  0
   43.1890   29.3930   43.5450 H   0  0  0  0  0  0  0  0  0  0  0  0
   42.9500   24.7950   43.4440 N   0  0  0  0  0  0  0  0  0  0  0  0
   42.3120   23.9690   43.4940 H   0  0  0  0  0  0  0  0  0  0  0  0
   43.9880   24.6930   43.4790 H   0  0  0  0  0  0  0  0  0  0  0  0
   36.8630   28.0610   39.7820 O   0  0  0  0  0  0  0  0  0  0  0  0
   35.2030   29.4410   38.2400 O   0  0  0  0  0  0  0  0  0  0  0  0
   36.4630   29.5320   39.0450 P   0  0  2  0  0  0  0  0  0  0  0  0
   37.7810   29.9820   38.0460 O   0  0  0  0  0  0  0  0  0  0  0  0
   37.4600   29.9850   37.1300 H   0  0  0  0  0  0  0  0  0  0  0  0
   36.3130   30.8020   40.1550 O   0  0  0  0  0  0  0  0  0  0  0  0
   37.2110   31.8600   40.1370 C   0  0  0  0  0  0  0  0  0  0  0  0
   38.3230   32.0660   40.9240 C   0  0  0  0  0  0  0  0  0  0  0  0
   38.6340   31.3760   41.6920 H   0  0  0  0  0  0  0  0  0  0  0  0
   38.8830   33.2640   40.5210 C   0  0  0  0  0  0  0  0  0  0  0  0
   39.7700   33.7130   40.9400 H   0  0  0  0  0  0  0  0  0  0  0  0
   38.1130   33.7550   39.5120 N   0  0  0  0  0  0  0  0  0  0  0  0
   38.2590   34.6590   38.9730 H   0  0  0  0  0  0  0  0  0  0  0  0
   37.1100   32.9100   39.2840 N   0  0  0  0  0  0  0  0  0  0  0  0
  1  2  1  0  0  0  0
  2  3  1  0  0  0  0
  3 15  1  0  0  0  0
  3  4  2  0  0  0  0
  4  8  1  0  0  0  0
  5  4  1  0  0  0  0
  5  9  1  0  0  0  0
  6  5  2  0  0  0  0
  7  2  2  0  0  0  0
  7  6  1  0  0  0  0
 10  6  1  0  0  0  0
 11 19  1  0  0  0  0
 11 12  1  0  0  0  0
 12 17  1  0  0  0  0
 13 12  2  0  0  0  0
 13 18  1  0  0  0  0
 14 13  1  0  0  0  0
 15 16  1  0  0  0  0
 15 14  2  0  0  0  0
 16 11  2  0  0  0  0
 19 21  1  0  0  0  0
 19 20  1  0  0  0  0
 22  7  1  0  0  0  0
 24 23  2  6  0  0  0
 24 22  1  0  0  0  0
 24 27  1  0  0  0  0
 25 24  1  0  0  0  0
 26 25  1  0  0  0  0
 28 27  1  0  0  0  0
 28 29  1  0  0  0  0
 29 30  1  0  0  0  0
 31 29  2  0  0  0  0
 31 32  1  0  0  0  0
 33 31  1  0  0  0  0
 34 33  1  0  0  0  0
 35 33  1  0  0  0  0
 35 28  2  0  0  0  0
M  END
>  <minimizedAffinity>
-5.74572802

$$$$

 OpenBabel03252506143D

 35 37  0  0  0  0  0  0  0  0999 V2000
   39.5380   28.6000   39.7330 F   0  0  0  0  0  0  0  0  0  0  0  0
   38.2460   28.7690   40.0020 C   0  0  0  0  0  0  0  0  0  0  0  0
   37.7050   28.1840   41.1350 C   0  0  0  0  0  0  0  0  0  0  0  0
   36.3720   28.3140   41.4890 C   0  0  0  0  0  0  0  0  0  0  0  0
   35.5140   29.0640   40.6820 C   0  0  0  0  0  0  0  0  0  0  0  0
   36.0890   29.6340   39.5590 C   0  0  0  0  0  0  0  0  0  0  0  0
   37.3920   29.5150   39.1980 C   0  0  0  0  0  0  0  0  0  0  0  0
   36.0190   27.8190   42.4050 H   0  0  0  0  0  0  0  0  0  0  0  0
   34.4900   29.1370   40.9970 H   0  0  0  0  0  0  0  0  0  0  0  0
   35.3260   30.1920   39.0270 H   0  0  0  0  0  0  0  0  0  0  0  0
   39.2310   25.2980   42.8230 C   0  0  0  0  0  0  0  0  0  0  0  0
   40.1660   25.9270   43.6770 C   0  0  0  0  0  0  0  0  0  0  0  0
   40.2680   27.3390   43.6670 C   0  0  0  0  0  0  0  0  0  0  0  0
   39.4370   28.0110   42.8150 N   0  0  0  0  0  0  0  0  0  0  0  0
   38.5640   27.3860   42.0230 C   0  0  0  0  0  0  0  0  0  0  0  0
   38.4680   26.0490   42.0310 N   0  0  0  0  0  0  0  0  0  0  0  0
   40.8070   25.3700   44.3360 H   0  0  0  0  0  0  0  0  0  0  0  0
   40.9740   27.8510   44.3080 H   0  0  0  0  0  0  0  0  0  0  0  0
   39.1420   23.8860   42.8470 N   0  0  0  0  0  0  0  0  0  0  0  0
   38.3260   23.4450   42.3650 H   0  0  0  0  0  0  0  0  0  0  0  0
   39.8710   23.3160   43.3290 H   0  0  0  0  0  0  0  0  0  0  0  0
   37.8580   30.1210   38.0620 O   0  0  0  0  0  0  0  0  0  0  0  0
   37.6460   32.6480   38.8380 O   0  0  0  0  0  0  0  0  0  0  0  0
   38.3990   31.7210   37.9350 P   0  0  2  0  0  0  0  0  0  0  0  0
   38.2160   32.1970   36.3000 O   0  0  0  0  0  0  0  0  0  0  0  0
   37.5680   32.9200   36.2810 H   0  0  0  0  0  0  0  0  0  0  0  0
   40.0560   31.8790   38.2460 O   0  0  0  0  0  0  0  0  0  0  0  0
   40.5010   32.6800   39.2900 C   0  0  0  0  0  0  0  0  0  0  0  0
   40.8840   34.0020   39.2650 C   0  0  0  0  0  0  0  0  0  0  0  0
   40.8770   34.5980   38.3640 H   0  0  0  0  0  0  0  0  0  0  0  0
   41.2450   34.3400   40.5550 C   0  0  0  0  0  0  0  0  0  0  0  0
   41.5940   35.3110   40.8740 H   0  0  0  0  0  0  0  0  0  0  0  0
   41.0770   33.2340   41.3280 N   0  0  0  0  0  0  0  0  0  0  0  0
   41.2610   33.1440   42.3710 H   0  0  0  0  0  0  0  0  0  0  0  0
   40.6300   32.2380   40.5660 N   0  0  0  0  0  0  0  0  0  0  0  0
  1  2  1  0  0  0  0
  2  3  1  0  0  0  0
  3  4  2  0  0  0  0
  3 15  1  0  0  0  0
  4  8  1  0  0  0  0
  5  9  1  0  0  0  0
  5  4  1  0  0  0  0
  6  5  2  0  0  0  0
  7  6  1  0  0  0  0
  7  2  2  0  0  0  0
 10  6  1  0  0  0  0
 11 19  1  0  0  0  0
 11 12  1  0  0  0  0
 12 17  1  0  0  0  0
 13 12  2  0  0  0  0
 13 18  1  0  0  0  0
 14 13  1  0  0  0  0
 15 16  1  0  0  0  0
 15 14  2  0  0  0  0
 16 11  2  0  0  0  0
 19 21  1  0  0  0  0
 20 19  1  0  0  0  0
 22  7  1  0  0  0  0
 24 22  1  0  0  0  0
 24 27  1  0  0  0  0
 24 23  2  1  0  0  0
 25 24  1  0  0  0  0
 26 25  1  0  0  0  0
 27 28  1  0  0  0  0
 28 35  2  0  0  0  0
 29 28  1  0  0  0  0
 29 31  2  0  0  0  0
 30 29  1  0  0  0  0
 31 32  1  0  0  0  0
 31 33  1  0  0  0  0
 33 34  1  0  0  0  0
 35 33  1  0  0  0  0
M  END
>  <minimizedAffinity>
-5.73087692

$$$$
