
 OpenBabel03252509313D

 26 27  0  0  0  0  0  0  0  0999 V2000
   46.6520   33.7640   44.7000 O   0  0  0  0  0  0  0  0  0  0  0  0
   45.9380   32.5790   44.8680 C   0  0  0  0  0  0  0  0  0  0  0  0
   44.8510   32.7050   44.7170 H   0  0  0  0  0  0  0  0  0  0  0  0
   46.3120   31.8910   44.0740 H   0  0  0  0  0  0  0  0  0  0  0  0
   47.2300   32.0360   48.3220 C   0  0  0  0  0  0  0  0  0  0  0  0
   46.9890   32.6570   47.0730 C   0  0  0  0  0  0  0  0  0  0  0  0
   46.2050   31.9670   46.1620 C   0  0  0  0  0  0  0  0  0  0  0  0
   45.7110   30.7370   46.5130 N   0  0  0  0  0  0  0  0  0  0  0  0
   45.9650   30.1740   47.7210 C   0  0  0  0  0  0  0  0  0  0  0  0
   46.7190   30.8230   48.6140 N   0  0  0  0  0  0  0  0  0  0  0  0
   47.8340   32.5060   49.0920 H   0  0  0  0  0  0  0  0  0  0  0  0
   47.4270   33.6310   46.8970 H   0  0  0  0  0  0  0  0  0  0  0  0
   45.4920   29.2040   47.8170 H   0  0  0  0  0  0  0  0  0  0  0  0
   45.1720   35.7370   43.8450 O   0  0  0  0  0  0  0  0  0  0  0  0
   45.9720   34.5600   43.3600 P   0  0  2  0  0  0  0  0  0  0  0  0
   45.0400   33.4300   42.5410 O   0  0  0  0  0  0  0  0  0  0  0  0
   45.3260   32.5030   42.6720 H   0  0  0  0  0  0  0  0  0  0  0  0
   47.2330   35.1330   42.4110 O   0  0  0  0  0  0  0  0  0  0  0  0
   47.6850   34.4180   41.3070 C   0  0  0  0  0  0  0  0  0  0  0  0
   48.0330   34.5560   39.9670 C   0  0  0  0  0  0  0  0  0  0  0  0
   47.9240   35.5860   39.6290 H   0  0  0  0  0  0  0  0  0  0  0  0
   48.4070   33.3010   39.5190 C   0  0  0  0  0  0  0  0  0  0  0  0
   48.7060   33.2630   38.4790 H   0  0  0  0  0  0  0  0  0  0  0  0
   48.2890   32.4320   40.5550 N   0  0  0  0  0  0  0  0  0  0  0  0
   48.5310   31.4400   40.3950 H   0  0  0  0  0  0  0  0  0  0  0  0
   47.8560   33.1030   41.6250 N   0  0  0  0  0  0  0  0  0  0  0  0
  1  2  1  0  0  0  0
  2  7  1  0  0  0  0
  3  2  1  0  0  0  0
  4  2  1  0  0  0  0
  5 10  1  0  0  0  0
  5 11  1  0  0  0  0
  6  5  2  0  0  0  0
  7  8  2  0  0  0  0
  7  6  1  0  0  0  0
  8  9  1  0  0  0  0
  9 13  1  0  0  0  0
  9 10  2  0  0  0  0
 12  6  1  0  0  0  0
 15 14  2  1  0  0  0
 15  1  1  0  0  0  0
 16 17  1  0  0  0  0
 16 15  1  0  0  0  0
 18 15  1  0  0  0  0
 19 26  2  0  0  0  0
 19 18  1  0  0  0  0
 20 19  1  0  0  0  0
 21 20  1  0  0  0  0
 22 20  2  0  0  0  0
 22 24  1  0  0  0  0
 23 22  1  0  0  0  0
 24 26  1  0  0  0  0
 25 24  1  0  0  0  0
M  END
>  <minimizedAffinity>
-3.83169723

>  <minimizedRMSD>
4.55981255

$$$$
