
 OpenBabel03252500543D

 29 30  0  0  0  0  0  0  0  0999 V2000
   47.3810   33.7180   41.6540 C   0  0  0  0  0  0  0  0  0  0  0  0
   46.5090   34.2130   42.6040 C   0  0  0  0  0  0  0  0  0  0  0  0
   46.6220   33.7030   43.9090 C   0  0  0  0  0  0  0  0  0  0  0  0
   47.5640   32.7730   44.1460 N   0  0  0  0  0  0  0  0  0  0  0  0
   48.3980   32.3120   43.2000 C   0  0  0  0  0  0  0  0  0  0  0  0
   48.3000   32.7900   41.9560 N   0  0  0  0  0  0  0  0  0  0  0  0
   45.9300   34.1040   44.6360 H   0  0  0  0  0  0  0  0  0  0  0  0
   49.1360   31.5540   43.4820 H   0  0  0  0  0  0  0  0  0  0  0  0
   47.3310   34.1950   40.2700 C   0  0  0  0  0  0  0  0  0  0  0  0
   46.3670   34.6960   40.0350 H   0  0  0  0  0  0  0  0  0  0  0  0
   47.4120   33.3190   39.5940 H   0  0  0  0  0  0  0  0  0  0  0  0
   48.5260   35.0810   40.0050 C   0  0  0  0  0  0  0  0  0  0  0  0
   49.0550   34.7700   39.0640 H   0  0  0  0  0  0  0  0  0  0  0  0
   48.1220   36.1170   39.8270 H   0  0  0  0  0  0  0  0  0  0  0  0
   49.2260   35.1510   40.8550 H   0  0  0  0  0  0  0  0  0  0  0  0
   45.5990   35.1680   42.1900 O   0  0  0  0  0  0  0  0  0  0  0  0
   43.5480   33.5250   42.0900 O   0  0  0  0  0  0  0  0  0  0  0  0
   43.9250   35.0040   42.1010 P   0  0  1  0  0  0  0  0  0  0  0  0
   43.2630   35.6920   43.5210 O   0  0  0  0  0  0  0  0  0  0  0  0
   42.2760   35.7470   43.4850 H   0  0  0  0  0  0  0  0  0  0  0  0
   43.2450   35.8040   40.7750 O   0  0  0  0  0  0  0  0  0  0  0  0
   42.0720   35.3190   40.2130 C   0  0  0  0  0  0  0  0  0  0  0  0
   40.9390   35.8490   40.8400 C   0  0  0  0  0  0  0  0  0  0  0  0
   40.7150   36.5480   41.6610 H   0  0  0  0  0  0  0  0  0  0  0  0
   39.8040   35.3190   40.2270 C   0  0  0  0  0  0  0  0  0  0  0  0
   38.7380   35.4000   40.3280 H   0  0  0  0  0  0  0  0  0  0  0  0
   40.2970   34.4950   39.2590 N   0  0  0  0  0  0  0  0  0  0  0  0
   39.9070   33.8570   38.5130 H   0  0  0  0  0  0  0  0  0  0  0  0
   41.6210   34.5040   39.2610 N   0  0  0  0  0  0  0  0  0  0  0  0
  1  6  2  0  0  0  0
  1  2  1  0  0  0  0
  2  3  2  0  0  0  0
  3  4  1  0  0  0  0
  3  7  1  0  0  0  0
  5  8  1  0  0  0  0
  5  4  2  0  0  0  0
  6  5  1  0  0  0  0
  9  1  1  0  0  0  0
 10  9  1  0  0  0  0
 11  9  1  0  0  0  0
 12  9  1  0  0  0  0
 12 15  1  0  0  0  0
 13 12  1  0  0  0  0
 14 12  1  0  0  0  0
 16  2  1  0  0  0  0
 18 17  2  6  0  0  0
 18 16  1  0  0  0  0
 18 19  1  0  0  0  0
 20 19  1  0  0  0  0
 21 18  1  0  0  0  0
 22 21  1  0  0  0  0
 22 23  1  0  0  0  0
 23 24  1  0  0  0  0
 25 26  1  0  0  0  0
 25 23  2  0  0  0  0
 27 29  1  0  0  0  0
 27 25  1  0  0  0  0
 28 27  1  0  0  0  0
 29 22  2  0  0  0  0
M  END
>  <minimizedAffinity>
-4.49075937

>  <minimizedRMSD>
2.09273815

$$$$
