
 OpenBabel03252500543D

 29 30  0  0  0  0  0  0  0  0999 V2000
   47.3420   34.7890   41.8230 C   0  0  0  0  0  0  0  0  0  0  0  0
   46.9190   34.1240   40.6880 C   0  0  0  0  0  0  0  0  0  0  0  0
   45.5320   34.0190   40.4830 C   0  0  0  0  0  0  0  0  0  0  0  0
   44.7130   34.5670   41.3980 N   0  0  0  0  0  0  0  0  0  0  0  0
   45.1560   35.2070   42.4920 C   0  0  0  0  0  0  0  0  0  0  0  0
   46.4710   35.3140   42.6970 N   0  0  0  0  0  0  0  0  0  0  0  0
   45.2240   33.4950   39.5890 H   0  0  0  0  0  0  0  0  0  0  0  0
   44.4170   35.6230   43.1850 H   0  0  0  0  0  0  0  0  0  0  0  0
   48.7690   34.9430   42.1120 C   0  0  0  0  0  0  0  0  0  0  0  0
   49.3650   34.0760   41.7540 H   0  0  0  0  0  0  0  0  0  0  0  0
   48.9000   34.9910   43.2140 H   0  0  0  0  0  0  0  0  0  0  0  0
   49.2530   36.2570   41.5440 C   0  0  0  0  0  0  0  0  0  0  0  0
   49.8220   36.8420   42.3150 H   0  0  0  0  0  0  0  0  0  0  0  0
   49.9800   36.0000   40.7230 H   0  0  0  0  0  0  0  0  0  0  0  0
   48.4550   36.8660   41.0870 H   0  0  0  0  0  0  0  0  0  0  0  0
   47.8960   33.6190   39.8510 O   0  0  0  0  0  0  0  0  0  0  0  0
   49.7880   31.7980   39.9940 O   0  0  0  0  0  0  0  0  0  0  0  0
   48.3170   32.0020   39.6400 P   0  0  1  0  0  0  0  0  0  0  0  0
   47.3910   31.0790   40.7430 O   0  0  0  0  0  0  0  0  0  0  0  0
   47.4900   30.1070   40.5930 H   0  0  0  0  0  0  0  0  0  0  0  0
   47.9920   31.4240   38.0830 O   0  0  0  0  0  0  0  0  0  0  0  0
   48.9900   30.7670   37.3770 C   0  0  0  0  0  0  0  0  0  0  0  0
   49.5990   31.6070   36.4370 C   0  0  0  0  0  0  0  0  0  0  0  0
   49.5070   32.6500   36.0990 H   0  0  0  0  0  0  0  0  0  0  0  0
   50.5850   30.8820   35.7700 C   0  0  0  0  0  0  0  0  0  0  0  0
   51.3080   31.0570   34.9930 H   0  0  0  0  0  0  0  0  0  0  0  0
   50.5320   29.6420   36.3310 N   0  0  0  0  0  0  0  0  0  0  0  0
   51.0330   28.7180   36.2190 H   0  0  0  0  0  0  0  0  0  0  0  0
   49.5980   29.5860   37.2670 N   0  0  0  0  0  0  0  0  0  0  0  0
  1  9  1  0  0  0  0
  1  6  1  0  0  0  0
  2  1  2  0  0  0  0
  3  2  1  0  0  0  0
  3  4  2  0  0  0  0
  4  5  1  0  0  0  0
  5  6  2  0  0  0  0
  5  8  1  0  0  0  0
  7  3  1  0  0  0  0
  9 11  1  0  0  0  0
 10  9  1  0  0  0  0
 12  9  1  0  0  0  0
 12 13  1  0  0  0  0
 14 12  1  0  0  0  0
 15 12  1  0  0  0  0
 16  2  1  0  0  0  0
 18 16  1  0  0  0  0
 18 17  2  1  0  0  0
 18 19  1  0  0  0  0
 20 19  1  0  0  0  0
 21 18  1  0  0  0  0
 22 21  1  0  0  0  0
 23 22  1  0  0  0  0
 24 23  1  0  0  0  0
 25 27  1  0  0  0  0
 25 23  2  0  0  0  0
 26 25  1  0  0  0  0
 27 29  1  0  0  0  0
 28 27  1  0  0  0  0
 29 22  2  0  0  0  0
M  END
>  <minimizedAffinity>
-3.35245442

>  <minimizedRMSD>
7.85372066

$$$$
