
 OpenBabel03252509073D

 40 43  0  0  0  0  0  0  0  0999 V2000
   47.0350   31.6810   38.9930 C   0  0  0  0  0  0  0  0  0  0  0  0
   46.8440   33.0270   39.0740 C   0  0  0  0  0  0  0  0  0  0  0  0
   47.6780   33.8880   38.3820 C   0  0  0  0  0  0  0  0  0  0  0  0
   48.7000   33.3880   37.6110 C   0  0  0  0  0  0  0  0  0  0  0  0
   48.9290   32.0160   37.5000 C   0  0  0  0  0  0  0  0  0  0  0  0
   48.0720   31.1680   38.2100 C   0  0  0  0  0  0  0  0  0  0  0  0
   47.5700   34.9460   38.4130 H   0  0  0  0  0  0  0  0  0  0  0  0
   49.4060   33.9540   37.0330 H   0  0  0  0  0  0  0  0  0  0  0  0
   49.6960   31.5580   36.9240 H   0  0  0  0  0  0  0  0  0  0  0  0
   48.2210   30.0860   38.1480 H   0  0  0  0  0  0  0  0  0  0  0  0
   45.3830   35.6040   43.3050 Cl  0  0  0  0  0  0  0  0  0  0  0  0
   45.0970   34.8320   41.7620 C   0  0  0  0  0  0  0  0  0  0  0  0
   46.1140   34.2650   41.0640 C   0  0  0  0  0  0  0  0  0  0  0  0
   45.7840   33.6620   39.8600 C   0  0  0  0  0  0  0  0  0  0  0  0
   44.4940   33.6370   39.3910 C   0  0  0  0  0  0  0  0  0  0  0  0
   43.4930   34.2080   40.1030 C   0  0  0  0  0  0  0  0  0  0  0  0
   43.8040   34.8120   41.3040 C   0  0  0  0  0  0  0  0  0  0  0  0
   44.2870   33.1500   38.4360 H   0  0  0  0  0  0  0  0  0  0  0  0
   42.4920   34.1640   39.6960 H   0  0  0  0  0  0  0  0  0  0  0  0
   42.9860   35.2620   41.8560 H   0  0  0  0  0  0  0  0  0  0  0  0
   49.5440   35.4570   42.0860 C   0  0  0  0  0  0  0  0  0  0  0  0
   48.2490   35.4290   41.5560 C   0  0  0  0  0  0  0  0  0  0  0  0
   47.4530   34.3060   41.6070 C   0  0  0  0  0  0  0  0  0  0  0  0
   48.0300   33.2350   42.2150 N   0  0  0  0  0  0  0  0  0  0  0  0
   49.2640   33.2520   42.7240 C   0  0  0  0  0  0  0  0  0  0  0  0
   50.0140   34.3570   42.6590 N   0  0  0  0  0  0  0  0  0  0  0  0
   50.0490   36.4060   41.9720 H   0  0  0  0  0  0  0  0  0  0  0  0
   47.8220   36.3040   41.0780 H   0  0  0  0  0  0  0  0  0  0  0  0
   49.6300   32.3450   43.1870 H   0  0  0  0  0  0  0  0  0  0  0  0
   46.0120   30.6020   39.7860 S   0  0  0  0  0  0  0  0  0  0  0  0
   44.8770   30.1330   38.9030 O   0  0  0  0  0  0  0  0  0  0  0  0
   46.8890   29.3040   39.9350 O   0  0  0  0  0  0  0  0  0  0  0  0
   45.3500   30.8510   41.3530 C   0  0  0  0  0  0  0  0  0  0  0  0
   43.9430   30.8360   41.5330 C   0  0  0  0  0  0  0  0  0  0  0  0
   43.1510   30.6660   40.7730 H   0  0  0  0  0  0  0  0  0  0  0  0
   43.5310   31.0650   42.8240 C   0  0  0  0  0  0  0  0  0  0  0  0
   42.5520   31.1110   43.2420 H   0  0  0  0  0  0  0  0  0  0  0  0
   44.6960   31.2230   43.4470 N   0  0  0  0  0  0  0  0  0  0  0  0
   44.8820   31.4230   44.4760 H   0  0  0  0  0  0  0  0  0  0  0  0
   45.6730   31.1020   42.6330 N   0  0  0  0  0  0  0  0  0  0  0  0
  1  2  1  0  0  0  0
  1 30  1  0  0  0  0
  2 14  1  0  0  0  0
  3  7  1  0  0  0  0
  3  2  2  0  0  0  0
  4  3  1  0  0  0  0
  5  4  2  0  0  0  0
  5  6  1  0  0  0  0
  6  1  2  0  0  0  0
  8  4  1  0  0  0  0
  9  5  1  0  0  0  0
 10  6  1  0  0  0  0
 12 11  1  0  0  0  0
 13 23  1  0  0  0  0
 13 12  2  0  0  0  0
 14 13  1  0  0  0  0
 15 14  2  0  0  0  0
 15 16  1  0  0  0  0
 16 17  2  0  0  0  0
 17 12  1  0  0  0  0
 17 20  1  0  0  0  0
 18 15  1  0  0  0  0
 19 16  1  0  0  0  0
 21 26  1  0  0  0  0
 22 23  1  0  0  0  0
 22 21  2  0  0  0  0
 23 24  2  0  0  0  0
 24 25  1  0  0  0  0
 25 29  1  0  0  0  0
 26 25  2  0  0  0  0
 27 21  1  0  0  0  0
 28 22  1  0  0  0  0
 30 32  2  0  0  0  0
 30 33  1  0  0  0  0
 31 30  2  0  0  0  0
 33 34  1  0  0  0  0
 33 40  2  0  0  0  0
 34 36  2  0  0  0  0
 35 34  1  0  0  0  0
 36 37  1  0  0  0  0
 36 38  1  0  0  0  0
 38 39  1  0  0  0  0
 40 38  1  0  0  0  0
M  END
>  <minimizedAffinity>
-4.80123377

>  <minimizedRMSD>
0.917506695

$$$$
