
 OpenBabel03252509313D

 26 27  0  0  0  0  0  0  0  0999 V2000
   46.2720   33.6590   45.6850 O   0  0  0  0  0  0  0  0  0  0  0  0
   46.1400   32.2730   45.6050 C   0  0  0  0  0  0  0  0  0  0  0  0
   45.4000   31.9540   44.8500 H   0  0  0  0  0  0  0  0  0  0  0  0
   47.1390   31.8980   45.2780 H   0  0  0  0  0  0  0  0  0  0  0  0
   45.6240   31.8800   49.2750 C   0  0  0  0  0  0  0  0  0  0  0  0
   45.9270   32.4810   48.0300 C   0  0  0  0  0  0  0  0  0  0  0  0
   45.8340   31.6840   46.9000 C   0  0  0  0  0  0  0  0  0  0  0  0
   45.4580   30.3740   47.0460 N   0  0  0  0  0  0  0  0  0  0  0  0
   45.1750   29.8320   48.2570 C   0  0  0  0  0  0  0  0  0  0  0  0
   45.2590   30.5850   49.3600 N   0  0  0  0  0  0  0  0  0  0  0  0
   45.6720   32.4320   50.2090 H   0  0  0  0  0  0  0  0  0  0  0  0
   46.2150   33.5250   48.0270 H   0  0  0  0  0  0  0  0  0  0  0  0
   44.8980   28.7890   48.1740 H   0  0  0  0  0  0  0  0  0  0  0  0
   44.5290   35.4200   44.8640 O   0  0  0  0  0  0  0  0  0  0  0  0
   45.4140   34.3090   44.3690 P   0  0  2  0  0  0  0  0  0  0  0  0
   44.5530   33.0480   43.6740 O   0  0  0  0  0  0  0  0  0  0  0  0
   44.9460   32.1640   43.8220 H   0  0  0  0  0  0  0  0  0  0  0  0
   46.5350   34.9620   43.3010 O   0  0  0  0  0  0  0  0  0  0  0  0
   46.9000   34.2870   42.1420 C   0  0  0  0  0  0  0  0  0  0  0  0
   46.9290   34.4050   40.7540 C   0  0  0  0  0  0  0  0  0  0  0  0
   46.5240   35.3640   40.4270 H   0  0  0  0  0  0  0  0  0  0  0  0
   47.4750   33.2330   40.2640 C   0  0  0  0  0  0  0  0  0  0  0  0
   47.5580   33.1900   39.1860 H   0  0  0  0  0  0  0  0  0  0  0  0
   47.7680   32.4310   41.3190 N   0  0  0  0  0  0  0  0  0  0  0  0
   48.1880   31.5050   41.1320 H   0  0  0  0  0  0  0  0  0  0  0  0
   47.4230   33.0640   42.4440 N   0  0  0  0  0  0  0  0  0  0  0  0
  2  1  1  0  0  0  0
  2  7  1  0  0  0  0
  3  2  1  0  0  0  0
  4  2  1  0  0  0  0
  5 10  1  0  0  0  0
  5 11  1  0  0  0  0
  6  5  2  0  0  0  0
  7  8  2  0  0  0  0
  7  6  1  0  0  0  0
  8  9  1  0  0  0  0
  9 10  2  0  0  0  0
 12  6  1  0  0  0  0
 13  9  1  0  0  0  0
 15 14  2  1  0  0  0
 15  1  1  0  0  0  0
 16 17  1  0  0  0  0
 16 15  1  0  0  0  0
 18 15  1  0  0  0  0
 19 26  2  0  0  0  0
 19 18  1  0  0  0  0
 20 19  1  0  0  0  0
 21 20  1  0  0  0  0
 22 20  2  0  0  0  0
 22 24  1  0  0  0  0
 23 22  1  0  0  0  0
 24 26  1  0  0  0  0
 25 24  1  0  0  0  0
M  END
>  <minimizedAffinity>
-4.34443188

>  <minimizedRMSD>
5.14733791

$$$$
