
 OpenBabel03242518453D

 44 47  0  0  1  0  0  0  0  0999 V2000
   47.4370   32.8440   44.4090 C   0  0  2  0  0  0  0  0  0  0  0  0
   47.3030   33.2080   42.9760 C   0  0  1  0  0  0  0  0  0  0  0  0
   47.1560   31.9760   42.0840 C   0  0  0  0  0  0  0  0  0  0  0  0
   48.2650   31.1870   42.4040 O   0  0  0  0  0  0  0  0  0  0  0  0
   48.1240   30.5960   43.6400 C   0  0  0  0  0  0  0  0  0  0  0  0
   47.2130   31.3300   44.5730 C   0  0  1  0  0  0  0  0  0  0  0  0
   48.4760   33.0310   44.7400 H   0  0  0  0  0  0  0  0  0  0  0  0
   48.2200   33.7510   42.6100 H   0  0  0  0  0  0  0  0  0  0  0  0
   47.1690   32.2340   41.0290 H   0  0  0  0  0  0  0  0  0  0  0  0
   46.2040   31.4480   42.2900 H   0  0  0  0  0  0  0  0  0  0  0  0
   49.0950   30.4110   44.1360 H   0  0  0  0  0  0  0  0  0  0  0  0
   47.6670   29.5820   43.4540 H   0  0  0  0  0  0  0  0  0  0  0  0
   46.1330   31.2110   44.3330 H   0  0  0  0  0  0  0  0  0  0  0  0
   45.0750   36.1080   42.8680 C   0  0  0  0  0  0  0  0  0  0  0  0
   43.9880   35.6870   42.0430 C   0  0  0  0  0  0  0  0  0  0  0  0
   44.0840   34.3550   41.5380 C   0  0  0  0  0  0  0  0  0  0  0  0
   45.1600   33.6020   41.8620 N   0  0  0  0  0  0  0  0  0  0  0  0
   46.1510   34.0680   42.6480 C   0  0  0  0  0  0  0  0  0  0  0  0
   46.1090   35.3240   43.1550 N   0  0  0  0  0  0  0  0  0  0  0  0
   43.1640   36.3460   41.8300 H   0  0  0  0  0  0  0  0  0  0  0  0
   43.2840   34.0230   40.9200 H   0  0  0  0  0  0  0  0  0  0  0  0
   44.9760   37.3680   43.3420 O   0  0  0  0  0  0  0  0  0  0  0  0
   44.3290   37.7620   43.9920 H   0  0  0  0  0  0  0  0  0  0  0  0
   46.5270   33.5040   45.2470 O   0  0  0  0  0  0  0  0  0  0  0  0
   46.9920   33.9290   45.9980 H   0  0  0  0  0  0  0  0  0  0  0  0
   47.4240   31.0360   45.9010 O   0  0  0  0  0  0  0  0  0  0  0  0
   46.2580   28.6050   45.8710 F   0  0  0  0  0  0  0  0  0  0  0  0
   46.1110   29.5110   46.8580 C   0  0  0  0  0  0  0  0  0  0  0  0
   46.6750   30.7670   46.9550 C   0  0  0  0  0  0  0  0  0  0  0  0
   46.3600   31.4770   48.1010 C   0  0  0  0  0  0  0  0  0  0  0  0
   45.5500   31.0480   49.1260 C   0  0  0  0  0  0  0  0  0  0  0  0
   45.0130   29.7910   48.9790 C   0  0  0  0  0  0  0  0  0  0  0  0
   45.2810   29.0050   47.8510 C   0  0  0  0  0  0  0  0  0  0  0  0
   46.8460   32.4690   48.1070 H   0  0  0  0  0  0  0  0  0  0  0  0
   45.3620   31.6610   49.9700 H   0  0  0  0  0  0  0  0  0  0  0  0
   44.3790   29.4770   49.8000 H   0  0  0  0  0  0  0  0  0  0  0  0
   44.6440   27.6950   47.8310 C   0  0  0  0  0  0  0  0  0  0  0  0
   43.9460   27.0130   46.8600 C   0  0  0  0  0  0  0  0  0  0  0  0
   43.7460   27.3780   45.8680 H   0  0  0  0  0  0  0  0  0  0  0  0
   43.5190   25.7800   47.2980 C   0  0  0  0  0  0  0  0  0  0  0  0
   42.9530   25.0330   46.7570 H   0  0  0  0  0  0  0  0  0  0  0  0
   43.9790   25.7430   48.5600 N   0  0  0  0  0  0  0  0  0  0  0  0
   43.8660   24.9630   49.2510 H   0  0  0  0  0  0  0  0  0  0  0  0
   44.6290   26.8490   48.8700 N   0  0  0  0  0  0  0  0  0  0  0  0
  1  6  1  0  0  0  0
  1  7  1  1  0  0  0
  1 24  1  0  0  0  0
  2  8  1  6  0  0  0
  2  1  1  0  0  0  0
  3 10  1  0  0  0  0
  3  4  1  0  0  0  0
  3  2  1  0  0  0  0
  4  5  1  0  0  0  0
  5 11  1  0  0  0  0
  5  6  1  0  0  0  0
  6 13  1  6  0  0  0
  6 26  1  0  0  0  0
  9  3  1  0  0  0  0
 12  5  1  0  0  0  0
 14 19  1  0  0  0  0
 14 22  1  0  0  0  0
 15 14  2  0  0  0  0
 16 17  2  0  0  0  0
 16 15  1  0  0  0  0
 17 18  1  0  0  0  0
 18  2  1  0  0  0  0
 18 19  2  0  0  0  0
 20 15  1  0  0  0  0
 21 16  1  0  0  0  0
 22 23  1  0  0  0  0
 24 25  1  0  0  0  0
 26 29  1  0  0  0  0
 27 28  1  0  0  0  0
 28 29  2  0  0  0  0
 28 33  1  0  0  0  0
 29 30  1  0  0  0  0
 30 34  1  0  0  0  0
 30 31  2  0  0  0  0
 31 35  1  0  0  0  0
 32 31  1  0  0  0  0
 32 36  1  0  0  0  0
 33 32  2  0  0  0  0
 37 33  1  0  0  0  0
 37 44  2  0  0  0  0
 38 40  2  0  0  0  0
 38 37  1  0  0  0  0
 39 38  1  0  0  0  0
 40 42  1  0  0  0  0
 41 40  1  0  0  0  0
 42 44  1  0  0  0  0
 42 43  1  0  0  0  0
M  END
>  <minimizedAffinity>
-5.71832752

>  <minimizedRMSD>
0.734710038

$$$$
