
 OpenBabel03242512103D

 32 34  0  0  1  0  0  0  0  0999 V2000
   40.3240   31.4040   41.7700 C   0  0  1  0  0  0  0  0  0  0  0  0
   41.6220   31.9680   41.0740 C   0  0  0  0  0  0  0  0  0  0  0  0
   40.4560   31.4850   40.3180 C   0  0  2  0  0  0  0  0  0  0  0  0
   39.7740   32.1880   42.3000 H   0  0  0  0  0  0  0  0  0  0  0  0
   41.7960   33.0570   41.2040 H   0  0  0  0  0  0  0  0  0  0  0  0
   42.5280   31.3350   41.1510 H   0  0  0  0  0  0  0  0  0  0  0  0
   40.3400   30.4880   39.8660 H   0  0  0  0  0  0  0  0  0  0  0  0
   40.5920   30.1200   42.4790 C   0  0  0  0  0  0  0  0  0  0  0  0
   41.7170   29.9540   42.9400 O   0  0  0  0  0  0  0  0  0  0  0  0
   39.9050   27.7700   42.4310 C   0  0  0  0  0  0  0  0  0  0  0  0
   39.6310   29.0780   42.6580 C   0  0  0  0  0  0  0  0  0  0  0  0
   38.3210   29.4090   43.0940 C   0  0  0  0  0  0  0  0  0  0  0  0
   37.3920   28.4380   43.2730 N   0  0  0  0  0  0  0  0  0  0  0  0
   37.7170   27.1360   43.0320 C   0  0  0  0  0  0  0  0  0  0  0  0
   38.9340   26.8200   42.6260 N   0  0  0  0  0  0  0  0  0  0  0  0
   40.9010   27.5350   42.1020 H   0  0  0  0  0  0  0  0  0  0  0  0
   37.9850   30.3880   43.3070 H   0  0  0  0  0  0  0  0  0  0  0  0
   37.0190   26.3250   43.1580 H   0  0  0  0  0  0  0  0  0  0  0  0
   39.8030   32.4870   39.6050 O   0  0  0  0  0  0  0  0  0  0  0  0
   39.3880   30.2510   38.3830 O   0  0  0  0  0  0  0  0  0  0  0  0
   39.1250   31.7400   38.2370 P   0  0  2  0  0  0  0  0  0  0  0  0
   39.7050   32.3210   36.7920 O   0  0  0  0  0  0  0  0  0  0  0  0
   40.0700   33.2250   36.8600 H   0  0  0  0  0  0  0  0  0  0  0  0
   37.4100   31.8980   38.3500 O   0  0  0  0  0  0  0  0  0  0  0  0
   36.6810   31.0730   39.2130 C   0  0  0  0  0  0  0  0  0  0  0  0
   36.0300   29.8520   39.2340 C   0  0  0  0  0  0  0  0  0  0  0  0
   36.0730   29.3240   38.2910 H   0  0  0  0  0  0  0  0  0  0  0  0
   35.5110   29.7030   40.5240 C   0  0  0  0  0  0  0  0  0  0  0  0
   34.9690   28.7950   40.7060 H   0  0  0  0  0  0  0  0  0  0  0  0
   35.8540   30.8030   41.2200 N   0  0  0  0  0  0  0  0  0  0  0  0
   35.5220   30.8130   42.2100 H   0  0  0  0  0  0  0  0  0  0  0  0
   36.5490   31.6200   40.4490 N   0  0  0  0  0  0  0  0  0  0  0  0
  1  4  1  1  0  0  0
  1  8  1  0  0  0  0
  2  6  1  0  0  0  0
  2  5  1  0  0  0  0
  2  1  1  0  0  0  0
  3  7  1  6  0  0  0
  3  2  1  0  0  0  0
  3  1  1  0  0  0  0
  8 11  1  0  0  0  0
  8  9  2  0  0  0  0
 10 15  2  0  0  0  0
 10 11  1  0  0  0  0
 11 12  2  0  0  0  0
 12 13  1  0  0  0  0
 12 17  1  0  0  0  0
 14 18  1  0  0  0  0
 14 13  2  0  0  0  0
 15 14  1  0  0  0  0
 16 10  1  0  0  0  0
 19  3  1  0  0  0  0
 21 24  1  0  0  0  0
 21 20  2  1  0  0  0
 21 19  1  0  0  0  0
 22 23  1  0  0  0  0
 22 21  1  0  0  0  0
 24 25  1  0  0  0  0
 25 26  1  0  0  0  0
 25 32  2  0  0  0  0
 26 28  2  0  0  0  0
 27 26  1  0  0  0  0
 28 29  1  0  0  0  0
 28 30  1  0  0  0  0
 30 31  1  0  0  0  0
 32 30  1  0  0  0  0
M  END
>  <minimizedAffinity>
-5.18320704

$$$$

 OpenBabel03242512103D

 32 34  0  0  1  0  0  0  0  0999 V2000
   37.9570   28.9690   43.2980 C   0  0  1  0  0  0  0  0  0  0  0  0
   39.3970   28.3970   43.0000 C   0  0  0  0  0  0  0  0  0  0  0  0
   38.8840   29.6300   42.3850 C   0  0  2  0  0  0  0  0  0  0  0  0
   37.8710   29.3340   44.3270 H   0  0  0  0  0  0  0  0  0  0  0  0
   40.1130   28.4470   43.8470 H   0  0  0  0  0  0  0  0  0  0  0  0
   39.4340   27.4620   42.4070 H   0  0  0  0  0  0  0  0  0  0  0  0
   38.4350   29.7220   41.3840 H   0  0  0  0  0  0  0  0  0  0  0  0
   36.8890   28.0750   42.7690 C   0  0  0  0  0  0  0  0  0  0  0  0
   36.3260   27.3320   43.5670 O   0  0  0  0  0  0  0  0  0  0  0  0
   36.8860   27.0720   40.5350 C   0  0  0  0  0  0  0  0  0  0  0  0
   36.4760   28.0290   41.4010 C   0  0  0  0  0  0  0  0  0  0  0  0
   35.5930   29.0270   40.9080 C   0  0  0  0  0  0  0  0  0  0  0  0
   35.1860   29.0040   39.6160 N   0  0  0  0  0  0  0  0  0  0  0  0
   35.6270   28.0170   38.7830 C   0  0  0  0  0  0  0  0  0  0  0  0
   36.4480   27.0870   39.2340 N   0  0  0  0  0  0  0  0  0  0  0  0
   37.5540   26.3240   40.9220 H   0  0  0  0  0  0  0  0  0  0  0  0
   35.2000   29.8220   41.4820 H   0  0  0  0  0  0  0  0  0  0  0  0
   35.3350   27.9510   37.7490 H   0  0  0  0  0  0  0  0  0  0  0  0
   39.5700   30.7750   42.7820 O   0  0  0  0  0  0  0  0  0  0  0  0
   41.3920   31.9040   41.3420 O   0  0  0  0  0  0  0  0  0  0  0  0
   39.8920   31.6590   41.3660 P   0  0  2  0  0  0  0  0  0  0  0  0
   39.0420   33.0820   41.2470 O   0  0  0  0  0  0  0  0  0  0  0  0
   38.2220   33.0850   41.7790 H   0  0  0  0  0  0  0  0  0  0  0  0
   39.5950   30.6190   40.0200 O   0  0  0  0  0  0  0  0  0  0  0  0
   38.9630   31.1100   38.8740 C   0  0  0  0  0  0  0  0  0  0  0  0
   37.7090   31.2020   38.2970 C   0  0  0  0  0  0  0  0  0  0  0  0
   36.9240   30.7590   38.8960 H   0  0  0  0  0  0  0  0  0  0  0  0
   37.8820   31.8660   37.0790 C   0  0  0  0  0  0  0  0  0  0  0  0
   36.9910   32.0180   36.5000 H   0  0  0  0  0  0  0  0  0  0  0  0
   39.1940   32.1460   36.9610 N   0  0  0  0  0  0  0  0  0  0  0  0
   39.4550   32.6460   36.0830 H   0  0  0  0  0  0  0  0  0  0  0  0
   39.8410   31.7010   38.0230 N   0  0  0  0  0  0  0  0  0  0  0  0
  1  4  1  1  0  0  0
  2  1  1  0  0  0  0
  2  5  1  0  0  0  0
  3  7  1  6  0  0  0
  3 19  1  0  0  0  0
  3  2  1  0  0  0  0
  3  1  1  0  0  0  0
  6  2  1  0  0  0  0
  8  1  1  0  0  0  0
  8  9  2  0  0  0  0
 10 16  1  0  0  0  0
 10 11  1  0  0  0  0
 11  8  1  0  0  0  0
 12 11  2  0  0  0  0
 12 17  1  0  0  0  0
 13 12  1  0  0  0  0
 14 15  1  0  0  0  0
 14 13  2  0  0  0  0
 15 10  2  0  0  0  0
 18 14  1  0  0  0  0
 21 20  2  6  0  0  0
 21 19  1  0  0  0  0
 22 21  1  0  0  0  0
 22 23  1  0  0  0  0
 24 21  1  0  0  0  0
 25 24  1  0  0  0  0
 26 25  1  0  0  0  0
 26 27  1  0  0  0  0
 28 26  2  0  0  0  0
 29 28  1  0  0  0  0
 30 28  1  0  0  0  0
 30 32  1  0  0  0  0
 31 30  1  0  0  0  0
 32 25  2  0  0  0  0
M  END
>  <minimizedAffinity>
-5.06390524

$$$$

 OpenBabel03242512103D

 32 34  0  0  1  0  0  0  0  0999 V2000
   38.7030   27.1840   43.4790 C   0  0  1  0  0  0  0  0  0  0  0  0
   39.7010   28.2650   42.9120 C   0  0  0  0  0  0  0  0  0  0  0  0
   38.3000   28.1670   42.4770 C   0  0  2  0  0  0  0  0  0  0  0  0
   38.4620   27.3660   44.5320 H   0  0  0  0  0  0  0  0  0  0  0  0
   40.0120   29.0500   43.6350 H   0  0  0  0  0  0  0  0  0  0  0  0
   40.5090   27.8850   42.2570 H   0  0  0  0  0  0  0  0  0  0  0  0
   37.9330   27.6620   41.5710 H   0  0  0  0  0  0  0  0  0  0  0  0
   39.0910   25.8060   43.0660 C   0  0  0  0  0  0  0  0  0  0  0  0
   40.0080   25.2690   43.6800 O   0  0  0  0  0  0  0  0  0  0  0  0
   37.1820   24.6480   42.0610 C   0  0  0  0  0  0  0  0  0  0  0  0
   38.4670   25.0710   42.0100 C   0  0  0  0  0  0  0  0  0  0  0  0
   39.2160   24.7610   40.8440 C   0  0  0  0  0  0  0  0  0  0  0  0
   38.6460   24.0670   39.8280 N   0  0  0  0  0  0  0  0  0  0  0  0
   37.3470   23.6640   39.9270 C   0  0  0  0  0  0  0  0  0  0  0  0
   36.6450   23.9480   41.0090 N   0  0  0  0  0  0  0  0  0  0  0  0
   36.6280   24.8900   42.9500 H   0  0  0  0  0  0  0  0  0  0  0  0
   40.2230   25.0370   40.6820 H   0  0  0  0  0  0  0  0  0  0  0  0
   36.8460   23.1100   39.1510 H   0  0  0  0  0  0  0  0  0  0  0  0
   37.5280   29.2670   42.8390 O   0  0  0  0  0  0  0  0  0  0  0  0
   38.3270   31.1400   41.2510 O   0  0  0  0  0  0  0  0  0  0  0  0
   37.2080   30.1240   41.4060 P   0  0  2  0  0  0  0  0  0  0  0  0
   35.7150   30.8540   41.3730 O   0  0  0  0  0  0  0  0  0  0  0  0
   35.0690   30.4350   41.9750 H   0  0  0  0  0  0  0  0  0  0  0  0
   37.4190   29.0320   40.0860 O   0  0  0  0  0  0  0  0  0  0  0  0
   37.2930   29.4840   38.7690 C   0  0  0  0  0  0  0  0  0  0  0  0
   36.3310   29.9070   37.8680 C   0  0  0  0  0  0  0  0  0  0  0  0
   35.3280   29.9020   38.2730 H   0  0  0  0  0  0  0  0  0  0  0  0
   37.0080   30.2120   36.6820 C   0  0  0  0  0  0  0  0  0  0  0  0
   36.3950   30.5590   35.8720 H   0  0  0  0  0  0  0  0  0  0  0  0
   38.3150   29.9720   36.8970 N   0  0  0  0  0  0  0  0  0  0  0  0
   38.9330   30.1640   36.0780 H   0  0  0  0  0  0  0  0  0  0  0  0
   38.4920   29.5410   38.1330 N   0  0  0  0  0  0  0  0  0  0  0  0
  1  4  1  1  0  0  0
  2  1  1  0  0  0  0
  2  5  1  0  0  0  0
  3  7  1  6  0  0  0
  3 19  1  0  0  0  0
  3  2  1  0  0  0  0
  3  1  1  0  0  0  0
  6  2  1  0  0  0  0
  8  1  1  0  0  0  0
  8  9  2  0  0  0  0
 10 16  1  0  0  0  0
 11 10  1  0  0  0  0
 11  8  1  0  0  0  0
 12 11  2  0  0  0  0
 13 14  2  0  0  0  0
 13 12  1  0  0  0  0
 14 15  1  0  0  0  0
 15 10  2  0  0  0  0
 17 12  1  0  0  0  0
 18 14  1  0  0  0  0
 21 20  2  6  0  0  0
 21 19  1  0  0  0  0
 22 21  1  0  0  0  0
 22 23  1  0  0  0  0
 24 21  1  0  0  0  0
 25 24  1  0  0  0  0
 26 27  1  0  0  0  0
 26 25  1  0  0  0  0
 28 30  1  0  0  0  0
 28 26  2  0  0  0  0
 29 28  1  0  0  0  0
 30 32  1  0  0  0  0
 31 30  1  0  0  0  0
 32 25  2  0  0  0  0
M  END
>  <minimizedAffinity>
-5.04468775

$$$$

 OpenBabel03242512103D

 32 34  0  0  1  0  0  0  0  0999 V2000
   36.0930   29.7590   39.2400 C   0  0  1  0  0  0  0  0  0  0  0  0
   36.6040   28.2730   39.1030 C   0  0  0  0  0  0  0  0  0  0  0  0
   36.7180   29.0450   40.3500 C   0  0  2  0  0  0  0  0  0  0  0  0
   35.0000   29.8180   39.1920 H   0  0  0  0  0  0  0  0  0  0  0  0
   35.8090   27.5060   38.9880 H   0  0  0  0  0  0  0  0  0  0  0  0
   37.4970   28.1240   38.4660 H   0  0  0  0  0  0  0  0  0  0  0  0
   37.6080   29.5880   40.7010 H   0  0  0  0  0  0  0  0  0  0  0  0
   36.8940   30.6960   38.4020 C   0  0  0  0  0  0  0  0  0  0  0  0
   36.8410   30.5520   37.1850 O   0  0  0  0  0  0  0  0  0  0  0  0
   37.2100   32.8220   39.5760 C   0  0  0  0  0  0  0  0  0  0  0  0
   37.7120   31.7480   38.9210 C   0  0  0  0  0  0  0  0  0  0  0  0
   39.1200   31.6800   38.7520 C   0  0  0  0  0  0  0  0  0  0  0  0
   39.9170   32.6640   39.2360 N   0  0  0  0  0  0  0  0  0  0  0  0
   39.3630   33.7250   39.8890 C   0  0  0  0  0  0  0  0  0  0  0  0
   38.0540   33.7960   40.0500 N   0  0  0  0  0  0  0  0  0  0  0  0
   36.1420   32.8600   39.6960 H   0  0  0  0  0  0  0  0  0  0  0  0
   39.6320   30.8950   38.2630 H   0  0  0  0  0  0  0  0  0  0  0  0
   39.9480   34.5340   40.2930 H   0  0  0  0  0  0  0  0  0  0  0  0
   35.9420   28.5390   41.3890 O   0  0  0  0  0  0  0  0  0  0  0  0
   36.2360   27.2910   43.6300 O   0  0  0  0  0  0  0  0  0  0  0  0
   37.0190   28.1400   42.6430 P   0  0  2  0  0  0  0  0  0  0  0  0
   37.7090   29.4560   43.3870 O   0  0  0  0  0  0  0  0  0  0  0  0
   37.7180   30.2550   42.8240 H   0  0  0  0  0  0  0  0  0  0  0  0
   38.2080   27.0730   41.9920 O   0  0  0  0  0  0  0  0  0  0  0  0
   37.8780   25.7480   41.6890 C   0  0  0  0  0  0  0  0  0  0  0  0
   36.9960   25.0130   40.9170 C   0  0  0  0  0  0  0  0  0  0  0  0
   36.3160   25.6240   40.3370 H   0  0  0  0  0  0  0  0  0  0  0  0
   37.2910   23.6670   41.1530 C   0  0  0  0  0  0  0  0  0  0  0  0
   36.6860   22.9560   40.6220 H   0  0  0  0  0  0  0  0  0  0  0  0
   38.3090   23.6320   42.0330 N   0  0  0  0  0  0  0  0  0  0  0  0
   38.6260   22.6720   42.2940 H   0  0  0  0  0  0  0  0  0  0  0  0
   38.6640   24.8630   42.3550 N   0  0  0  0  0  0  0  0  0  0  0  0
  1  4  1  1  0  0  0
  1  3  1  0  0  0  0
  2  1  1  0  0  0  0
  2  3  1  0  0  0  0
  3  7  1  1  0  0  0
  3 19  1  0  0  0  0
  5  2  1  0  0  0  0
  6  2  1  0  0  0  0
  8 11  1  0  0  0  0
  8  1  1  0  0  0  0
  9  8  2  0  0  0  0
 10 16  1  0  0  0  0
 10 15  1  0  0  0  0
 11 10  2  0  0  0  0
 12 11  1  0  0  0  0
 12 13  2  0  0  0  0
 13 14  1  0  0  0  0
 14 15  2  0  0  0  0
 14 18  1  0  0  0  0
 17 12  1  0  0  0  0
 19 21  1  0  0  0  0
 21 22  1  0  0  0  0
 21 20  2  1  0  0  0
 23 22  1  0  0  0  0
 24 21  1  0  0  0  0
 25 24  1  0  0  0  0
 25 32  2  0  0  0  0
 26 28  2  0  0  0  0
 26 25  1  0  0  0  0
 27 26  1  0  0  0  0
 28 30  1  0  0  0  0
 29 28  1  0  0  0  0
 30 31  1  0  0  0  0
 30 32  1  0  0  0  0
M  END
>  <minimizedAffinity>
-5.0175662

$$$$

 OpenBabel03242512103D

 32 34  0  0  1  0  0  0  0  0999 V2000
   37.5070   27.1650   42.1500 C   0  0  1  0  0  0  0  0  0  0  0  0
   36.6370   27.3720   43.4490 C   0  0  0  0  0  0  0  0  0  0  0  0
   37.9310   28.0380   43.2410 C   0  0  2  0  0  0  0  0  0  0  0  0
   37.0310   27.6070   41.2680 H   0  0  0  0  0  0  0  0  0  0  0  0
   35.6870   27.9290   43.3010 H   0  0  0  0  0  0  0  0  0  0  0  0
   36.5690   26.5030   44.1320 H   0  0  0  0  0  0  0  0  0  0  0  0
   38.9040   27.7110   43.6370 H   0  0  0  0  0  0  0  0  0  0  0  0
   38.0310   25.7730   42.0540 C   0  0  0  0  0  0  0  0  0  0  0  0
   38.9450   25.4600   42.8100 O   0  0  0  0  0  0  0  0  0  0  0  0
   36.5640   25.0300   40.2390 C   0  0  0  0  0  0  0  0  0  0  0  0
   37.5390   24.7840   41.1470 C   0  0  0  0  0  0  0  0  0  0  0  0
   38.0880   23.4750   41.1840 C   0  0  0  0  0  0  0  0  0  0  0  0
   37.6400   22.5200   40.3320 N   0  0  0  0  0  0  0  0  0  0  0  0
   36.6560   22.8180   39.4360 C   0  0  0  0  0  0  0  0  0  0  0  0
   36.1410   24.0340   39.3960 N   0  0  0  0  0  0  0  0  0  0  0  0
   36.1590   26.0260   40.2240 H   0  0  0  0  0  0  0  0  0  0  0  0
   38.8530   23.1590   41.8410 H   0  0  0  0  0  0  0  0  0  0  0  0
   36.2630   22.0990   38.7380 H   0  0  0  0  0  0  0  0  0  0  0  0
   37.8300   29.4210   43.1170 O   0  0  0  0  0  0  0  0  0  0  0  0
   40.2960   28.8530   42.6000 O   0  0  0  0  0  0  0  0  0  0  0  0
   39.2640   29.9430   42.3670 P   0  0  2  0  0  0  0  0  0  0  0  0
   39.8080   31.4200   42.9000 O   0  0  0  0  0  0  0  0  0  0  0  0
   39.1010   31.9730   43.2880 H   0  0  0  0  0  0  0  0  0  0  0  0
   38.9940   29.9360   40.6610 O   0  0  0  0  0  0  0  0  0  0  0  0
   38.3120   30.9920   40.0500 C   0  0  0  0  0  0  0  0  0  0  0  0
   38.1080   31.5600   38.8050 C   0  0  0  0  0  0  0  0  0  0  0  0
   38.6320   31.0490   38.0070 H   0  0  0  0  0  0  0  0  0  0  0  0
   37.2570   32.6510   39.0020 C   0  0  0  0  0  0  0  0  0  0  0  0
   36.9980   33.2060   38.1200 H   0  0  0  0  0  0  0  0  0  0  0  0
   36.9800   32.7070   40.3180 N   0  0  0  0  0  0  0  0  0  0  0  0
   36.3460   33.4880   40.5970 H   0  0  0  0  0  0  0  0  0  0  0  0
   37.6020   31.7260   40.9470 N   0  0  0  0  0  0  0  0  0  0  0  0
  1  4  1  6  0  0  0
  1  3  1  0  0  0  0
  1  2  1  0  0  0  0
  2  6  1  0  0  0  0
  3  2  1  0  0  0  0
  3  7  1  1  0  0  0
  5  2  1  0  0  0  0
  8  1  1  0  0  0  0
  8  9  2  0  0  0  0
 10 11  1  0  0  0  0
 11 12  2  0  0  0  0
 11  8  1  0  0  0  0
 12 17  1  0  0  0  0
 13 12  1  0  0  0  0
 14 13  2  0  0  0  0
 15 14  1  0  0  0  0
 15 10  2  0  0  0  0
 16 10  1  0  0  0  0
 18 14  1  0  0  0  0
 19  3  1  0  0  0  0
 21 20  2  1  0  0  0
 21 22  1  0  0  0  0
 21 19  1  0  0  0  0
 22 23  1  0  0  0  0
 24 21  1  0  0  0  0
 25 24  1  0  0  0  0
 25 32  2  0  0  0  0
 26 28  2  0  0  0  0
 26 25  1  0  0  0  0
 27 26  1  0  0  0  0
 28 30  1  0  0  0  0
 29 28  1  0  0  0  0
 30 31  1  0  0  0  0
 30 32  1  0  0  0  0
M  END
>  <minimizedAffinity>
-5.00371027

$$$$

 OpenBabel03242512103D

 32 34  0  0  1  0  0  0  0  0999 V2000
   40.3520   31.9750   39.5900 C   0  0  1  0  0  0  0  0  0  0  0  0
   40.1120   33.3910   40.2400 C   0  0  0  0  0  0  0  0  0  0  0  0
   39.0170   32.4660   39.9160 C   0  0  2  0  0  0  0  0  0  0  0  0
   40.8520   31.2890   40.2820 H   0  0  0  0  0  0  0  0  0  0  0  0
   40.4650   33.4990   41.2880 H   0  0  0  0  0  0  0  0  0  0  0  0
   40.3060   34.2650   39.5870 H   0  0  0  0  0  0  0  0  0  0  0  0
   38.3870   32.4910   39.0130 H   0  0  0  0  0  0  0  0  0  0  0  0
   40.8770   32.0890   38.1990 C   0  0  0  0  0  0  0  0  0  0  0  0
   40.0580   32.1010   37.2860 O   0  0  0  0  0  0  0  0  0  0  0  0
   43.0530   31.1080   37.6540 C   0  0  0  0  0  0  0  0  0  0  0  0
   42.2630   32.1880   37.8620 C   0  0  0  0  0  0  0  0  0  0  0  0
   42.8560   33.4720   37.7340 C   0  0  0  0  0  0  0  0  0  0  0  0
   44.1670   33.5920   37.4140 N   0  0  0  0  0  0  0  0  0  0  0  0
   44.9220   32.4730   37.2130 C   0  0  0  0  0  0  0  0  0  0  0  0
   44.3770   31.2760   37.3310 N   0  0  0  0  0  0  0  0  0  0  0  0
   42.5900   30.1430   37.7540 H   0  0  0  0  0  0  0  0  0  0  0  0
   42.3470   34.3880   37.8680 H   0  0  0  0  0  0  0  0  0  0  0  0
   45.9670   32.5100   36.9570 H   0  0  0  0  0  0  0  0  0  0  0  0
   38.3430   31.9870   41.0360 O   0  0  0  0  0  0  0  0  0  0  0  0
   36.8820   31.3970   38.9900 O   0  0  0  0  0  0  0  0  0  0  0  0
   37.0560   31.0390   40.4570 P   0  0  2  0  0  0  0  0  0  0  0  0
   35.6390   31.2330   41.3020 O   0  0  0  0  0  0  0  0  0  0  0  0
   35.7760   31.5610   42.2130 H   0  0  0  0  0  0  0  0  0  0  0  0
   37.5800   29.3940   40.4490 O   0  0  0  0  0  0  0  0  0  0  0  0
   37.2740   28.5510   41.5210 C   0  0  0  0  0  0  0  0  0  0  0  0
   36.9760   27.2270   41.7940 C   0  0  0  0  0  0  0  0  0  0  0  0
   36.9660   26.5970   40.9140 H   0  0  0  0  0  0  0  0  0  0  0  0
   36.7800   27.1420   43.1750 C   0  0  0  0  0  0  0  0  0  0  0  0
   36.5370   26.1670   43.5530 H   0  0  0  0  0  0  0  0  0  0  0  0
   36.9590   28.3780   43.6790 N   0  0  0  0  0  0  0  0  0  0  0  0
   36.8390   28.4480   44.7140 H   0  0  0  0  0  0  0  0  0  0  0  0
   37.2530   29.2190   42.7040 N   0  0  0  0  0  0  0  0  0  0  0  0
  1  3  1  0  0  0  0
  1  2  1  0  0  0  0
  1  4  1  1  0  0  0
  2  5  1  0  0  0  0
  3  7  1  6  0  0  0
  3  2  1  0  0  0  0
  3 19  1  0  0  0  0
  6  2  1  0  0  0  0
  8  1  1  0  0  0  0
  9  8  2  0  0  0  0
 10 16  1  0  0  0  0
 10 11  1  0  0  0  0
 11  8  1  0  0  0  0
 12 11  2  0  0  0  0
 12 17  1  0  0  0  0
 13 12  1  0  0  0  0
 14 15  1  0  0  0  0
 14 13  2  0  0  0  0
 15 10  2  0  0  0  0
 18 14  1  0  0  0  0
 21 20  2  6  0  0  0
 21 19  1  0  0  0  0
 21 22  1  0  0  0  0
 22 23  1  0  0  0  0
 24 21  1  0  0  0  0
 24 25  1  0  0  0  0
 25 26  1  0  0  0  0
 25 32  2  0  0  0  0
 26 28  2  0  0  0  0
 27 26  1  0  0  0  0
 28 29  1  0  0  0  0
 28 30  1  0  0  0  0
 30 31  1  0  0  0  0
 32 30  1  0  0  0  0
M  END
>  <minimizedAffinity>
-4.87767506

$$$$

 OpenBabel03242512103D

 32 34  0  0  1  0  0  0  0  0999 V2000
   36.5840   30.0470   38.8720 C   0  0  1  0  0  0  0  0  0  0  0  0
   37.2630   28.6380   38.6710 C   0  0  0  0  0  0  0  0  0  0  0  0
   37.1870   29.3080   39.9780 C   0  0  2  0  0  0  0  0  0  0  0  0
   35.4990   29.9990   38.7280 H   0  0  0  0  0  0  0  0  0  0  0  0
   36.5680   27.8070   38.4240 H   0  0  0  0  0  0  0  0  0  0  0  0
   38.2170   28.6340   38.1090 H   0  0  0  0  0  0  0  0  0  0  0  0
   37.9800   29.9060   40.4500 H   0  0  0  0  0  0  0  0  0  0  0  0
   37.3460   31.1290   38.1870 C   0  0  0  0  0  0  0  0  0  0  0  0
   37.3030   31.1600   36.9610 O   0  0  0  0  0  0  0  0  0  0  0  0
   39.4700   32.1070   38.9130 C   0  0  0  0  0  0  0  0  0  0  0  0
   38.1170   32.1270   38.8590 C   0  0  0  0  0  0  0  0  0  0  0  0
   37.4490   33.2010   39.5060 C   0  0  0  0  0  0  0  0  0  0  0  0
   38.1580   34.1610   40.1490 N   0  0  0  0  0  0  0  0  0  0  0  0
   39.5200   34.0960   40.1740 C   0  0  0  0  0  0  0  0  0  0  0  0
   40.1480   33.1000   39.5740 N   0  0  0  0  0  0  0  0  0  0  0  0
   39.9610   31.2880   38.4180 H   0  0  0  0  0  0  0  0  0  0  0  0
   36.4010   33.3310   39.5330 H   0  0  0  0  0  0  0  0  0  0  0  0
   40.1320   34.8300   40.6690 H   0  0  0  0  0  0  0  0  0  0  0  0
   36.3860   28.6390   40.8990 O   0  0  0  0  0  0  0  0  0  0  0  0
   37.1280   26.8680   42.6260 O   0  0  0  0  0  0  0  0  0  0  0  0
   37.3680   28.3210   42.2500 P   0  0  2  0  0  0  0  0  0  0  0  0
   37.0980   29.3350   43.5380 O   0  0  0  0  0  0  0  0  0  0  0  0
   36.6990   30.1890   43.2770 H   0  0  0  0  0  0  0  0  0  0  0  0
   39.0120   28.3720   41.7250 O   0  0  0  0  0  0  0  0  0  0  0  0
   39.8530   29.4090   42.1390 C   0  0  0  0  0  0  0  0  0  0  0  0
   41.1570   29.6350   42.5440 C   0  0  0  0  0  0  0  0  0  0  0  0
   41.7660   28.7410   42.5600 H   0  0  0  0  0  0  0  0  0  0  0  0
   41.2570   31.0050   42.8090 C   0  0  0  0  0  0  0  0  0  0  0  0
   42.2200   31.3470   43.1380 H   0  0  0  0  0  0  0  0  0  0  0  0
   40.0490   31.5460   42.5640 N   0  0  0  0  0  0  0  0  0  0  0  0
   39.9920   32.5760   42.7260 H   0  0  0  0  0  0  0  0  0  0  0  0
   39.2110   30.6060   42.1660 N   0  0  0  0  0  0  0  0  0  0  0  0
  1  4  1  6  0  0  0
  1  3  1  0  0  0  0
  2  1  1  0  0  0  0
  2  3  1  0  0  0  0
  3  7  1  1  0  0  0
  3 19  1  0  0  0  0
  5  2  1  0  0  0  0
  6  2  1  0  0  0  0
  8 11  1  0  0  0  0
  8  1  1  0  0  0  0
  9  8  2  0  0  0  0
 10 15  1  0  0  0  0
 11 10  2  0  0  0  0
 11 12  1  0  0  0  0
 12 17  1  0  0  0  0
 12 13  2  0  0  0  0
 13 14  1  0  0  0  0
 14 18  1  0  0  0  0
 15 14  2  0  0  0  0
 16 10  1  0  0  0  0
 19 21  1  0  0  0  0
 21 20  2  1  0  0  0
 21 22  1  0  0  0  0
 23 22  1  0  0  0  0
 24 25  1  0  0  0  0
 24 21  1  0  0  0  0
 25 32  2  0  0  0  0
 25 26  1  0  0  0  0
 26 27  1  0  0  0  0
 26 28  2  0  0  0  0
 28 29  1  0  0  0  0
 30 31  1  0  0  0  0
 30 28  1  0  0  0  0
 32 30  1  0  0  0  0
M  END
>  <minimizedAffinity>
-4.82200813

$$$$

 OpenBabel03242512103D

 32 34  0  0  1  0  0  0  0  0999 V2000
   38.6530   27.4780   43.3910 C   0  0  1  0  0  0  0  0  0  0  0  0
   39.7380   28.4850   42.8460 C   0  0  0  0  0  0  0  0  0  0  0  0
   38.3430   28.4840   42.3800 C   0  0  2  0  0  0  0  0  0  0  0  0
   38.4020   27.6790   44.4380 H   0  0  0  0  0  0  0  0  0  0  0  0
   40.0860   29.2480   43.5740 H   0  0  0  0  0  0  0  0  0  0  0  0
   40.5310   28.0470   42.2090 H   0  0  0  0  0  0  0  0  0  0  0  0
   37.9620   28.0030   41.4660 H   0  0  0  0  0  0  0  0  0  0  0  0
   38.9540   26.0740   42.9880 C   0  0  0  0  0  0  0  0  0  0  0  0
   39.7860   25.4630   43.6500 O   0  0  0  0  0  0  0  0  0  0  0  0
   38.8970   25.3220   40.6590 C   0  0  0  0  0  0  0  0  0  0  0  0
   38.3380   25.3970   41.8900 C   0  0  0  0  0  0  0  0  0  0  0  0
   37.0800   24.7670   42.0810 C   0  0  0  0  0  0  0  0  0  0  0  0
   36.4760   24.1180   41.0560 N   0  0  0  0  0  0  0  0  0  0  0  0
   37.0810   24.0690   39.8340 C   0  0  0  0  0  0  0  0  0  0  0  0
   38.2510   24.6530   39.6490 N   0  0  0  0  0  0  0  0  0  0  0  0
   39.8500   25.8040   40.5300 H   0  0  0  0  0  0  0  0  0  0  0  0
   36.5440   24.7520   42.9920 H   0  0  0  0  0  0  0  0  0  0  0  0
   36.6470   23.5680   38.9860 H   0  0  0  0  0  0  0  0  0  0  0  0
   37.6410   29.6360   42.7230 O   0  0  0  0  0  0  0  0  0  0  0  0
   38.0920   31.5290   41.0250 O   0  0  0  0  0  0  0  0  0  0  0  0
   37.1540   30.3570   41.2620 P   0  0  2  0  0  0  0  0  0  0  0  0
   35.5640   30.8370   41.2410 O   0  0  0  0  0  0  0  0  0  0  0  0
   35.0070   30.3520   41.8820 H   0  0  0  0  0  0  0  0  0  0  0  0
   37.5070   29.2470   39.9880 O   0  0  0  0  0  0  0  0  0  0  0  0
   36.4810   28.7520   39.1780 C   0  0  0  0  0  0  0  0  0  0  0  0
   35.8640   27.5620   38.8350 C   0  0  0  0  0  0  0  0  0  0  0  0
   36.2820   26.6990   39.3360 H   0  0  0  0  0  0  0  0  0  0  0  0
   34.8620   27.8860   37.9150 C   0  0  0  0  0  0  0  0  0  0  0  0
   34.2830   27.0610   37.5460 H   0  0  0  0  0  0  0  0  0  0  0  0
   34.9030   29.2200   37.7370 N   0  0  0  0  0  0  0  0  0  0  0  0
   34.1950   29.5910   37.0650 H   0  0  0  0  0  0  0  0  0  0  0  0
   35.8600   29.7410   38.4830 N   0  0  0  0  0  0  0  0  0  0  0  0
  1  4  1  1  0  0  0
  2  1  1  0  0  0  0
  2  5  1  0  0  0  0
  3  7  1  6  0  0  0
  3 19  1  0  0  0  0
  3  2  1  0  0  0  0
  3  1  1  0  0  0  0
  6  2  1  0  0  0  0
  8  1  1  0  0  0  0
  8  9  2  0  0  0  0
 10 11  1  0  0  0  0
 11 12  2  0  0  0  0
 11  8  1  0  0  0  0
 12 17  1  0  0  0  0
 13 12  1  0  0  0  0
 14 13  2  0  0  0  0
 15 14  1  0  0  0  0
 15 10  2  0  0  0  0
 16 10  1  0  0  0  0
 18 14  1  0  0  0  0
 21 20  2  6  0  0  0
 21 19  1  0  0  0  0
 22 21  1  0  0  0  0
 22 23  1  0  0  0  0
 24 21  1  0  0  0  0
 25 24  1  0  0  0  0
 26 25  1  0  0  0  0
 26 27  1  0  0  0  0
 28 26  2  0  0  0  0
 29 28  1  0  0  0  0
 30 28  1  0  0  0  0
 30 32  1  0  0  0  0
 31 30  1  0  0  0  0
 32 25  2  0  0  0  0
M  END
>  <minimizedAffinity>
-4.81540394

$$$$

 OpenBabel03242512103D

 32 34  0  0  1  0  0  0  0  0999 V2000
   37.1040   26.7790   42.6400 C   0  0  1  0  0  0  0  0  0  0  0  0
   38.4030   27.1870   43.4360 C   0  0  0  0  0  0  0  0  0  0  0  0
   37.8550   27.9930   42.3340 C   0  0  2  0  0  0  0  0  0  0  0  0
   36.2070   26.8500   43.2640 H   0  0  0  0  0  0  0  0  0  0  0  0
   38.2390   27.4920   44.4910 H   0  0  0  0  0  0  0  0  0  0  0  0
   39.2970   26.5560   43.2630 H   0  0  0  0  0  0  0  0  0  0  0  0
   38.1930   27.9800   41.2860 H   0  0  0  0  0  0  0  0  0  0  0  0
   37.3160   25.5410   41.8370 C   0  0  0  0  0  0  0  0  0  0  0  0
   37.2550   24.4680   42.4280 O   0  0  0  0  0  0  0  0  0  0  0  0
   38.8310   25.4610   39.9150 C   0  0  0  0  0  0  0  0  0  0  0  0
   37.5810   25.5230   40.4320 C   0  0  0  0  0  0  0  0  0  0  0  0
   36.4930   25.5690   39.5210 C   0  0  0  0  0  0  0  0  0  0  0  0
   36.7190   25.5510   38.1840 N   0  0  0  0  0  0  0  0  0  0  0  0
   37.9970   25.4870   37.7130 C   0  0  0  0  0  0  0  0  0  0  0  0
   39.0140   25.4440   38.5550 N   0  0  0  0  0  0  0  0  0  0  0  0
   39.6440   25.4260   40.6190 H   0  0  0  0  0  0  0  0  0  0  0  0
   35.4750   25.6150   39.7980 H   0  0  0  0  0  0  0  0  0  0  0  0
   38.2330   25.4700   36.6620 H   0  0  0  0  0  0  0  0  0  0  0  0
   37.3810   29.2370   42.7390 O   0  0  0  0  0  0  0  0  0  0  0  0
   38.2010   30.9930   41.0330 O   0  0  0  0  0  0  0  0  0  0  0  0
   37.0090   30.0960   41.3190 P   0  0  2  0  0  0  0  0  0  0  0  0
   35.5980   30.9700   41.4070 O   0  0  0  0  0  0  0  0  0  0  0  0
   34.9750   30.6280   42.0780 H   0  0  0  0  0  0  0  0  0  0  0  0
   36.9850   28.9660   40.0150 O   0  0  0  0  0  0  0  0  0  0  0  0
   37.0640   29.4130   38.6930 C   0  0  0  0  0  0  0  0  0  0  0  0
   36.3250   30.1020   37.7470 C   0  0  0  0  0  0  0  0  0  0  0  0
   35.3560   30.4220   38.1070 H   0  0  0  0  0  0  0  0  0  0  0  0
   37.1130   30.1580   36.5930 C   0  0  0  0  0  0  0  0  0  0  0  0
   36.6760   30.6670   35.7550 H   0  0  0  0  0  0  0  0  0  0  0  0
   38.2660   29.5210   36.8680 N   0  0  0  0  0  0  0  0  0  0  0  0
   38.9470   29.4930   36.0770 H   0  0  0  0  0  0  0  0  0  0  0  0
   38.2450   29.0770   38.1120 N   0  0  0  0  0  0  0  0  0  0  0  0
  1  4  1  1  0  0  0
  1  2  1  0  0  0  0
  2  5  1  0  0  0  0
  3  7  1  6  0  0  0
  3  1  1  0  0  0  0
  3 19  1  0  0  0  0
  3  2  1  0  0  0  0
  6  2  1  0  0  0  0
  8  9  2  0  0  0  0
  8  1  1  0  0  0  0
 10 11  1  0  0  0  0
 10 16  1  0  0  0  0
 11  8  1  0  0  0  0
 12 17  1  0  0  0  0
 12 11  2  0  0  0  0
 13 12  1  0  0  0  0
 14 13  2  0  0  0  0
 14 15  1  0  0  0  0
 15 10  2  0  0  0  0
 18 14  1  0  0  0  0
 21 20  2  6  0  0  0
 21 22  1  0  0  0  0
 21 19  1  0  0  0  0
 22 23  1  0  0  0  0
 24 21  1  0  0  0  0
 25 24  1  0  0  0  0
 26 27  1  0  0  0  0
 26 25  1  0  0  0  0
 28 30  1  0  0  0  0
 28 26  2  0  0  0  0
 29 28  1  0  0  0  0
 30 32  1  0  0  0  0
 31 30  1  0  0  0  0
 32 25  2  0  0  0  0
M  END
>  <minimizedAffinity>
-4.74566221

$$$$
