
 OpenBabel03242515113D

 35 37  0  0  0  0  0  0  0  0999 V2000
   36.5650   28.2430   41.1400 C   0  0  0  0  0  0  0  0  0  0  0  0
   36.9910   27.0850   41.7270 C   0  0  0  0  0  0  0  0  0  0  0  0
   37.7780   27.0190   42.8560 C   0  0  0  0  0  0  0  0  0  0  0  0
   38.1660   28.1970   43.4420 C   0  0  0  0  0  0  0  0  0  0  0  0
   37.7590   29.3770   42.8850 C   0  0  0  0  0  0  0  0  0  0  0  0
   36.9670   29.4060   41.7460 C   0  0  0  0  0  0  0  0  0  0  0  0
   36.6930   26.1370   41.2740 H   0  0  0  0  0  0  0  0  0  0  0  0
   38.0630   26.0520   43.2440 H   0  0  0  0  0  0  0  0  0  0  0  0
   38.7850   28.1230   44.3310 H   0  0  0  0  0  0  0  0  0  0  0  0
   38.0960   30.2760   43.3900 H   0  0  0  0  0  0  0  0  0  0  0  0
   35.3410   27.3100   37.8260 C   0  0  0  0  0  0  0  0  0  0  0  0
   34.2420   28.1270   37.6380 C   0  0  0  0  0  0  0  0  0  0  0  0
   33.9090   29.0120   38.6580 C   0  0  0  0  0  0  0  0  0  0  0  0
   34.6510   29.0690   39.8100 N   0  0  0  0  0  0  0  0  0  0  0  0
   35.7350   28.2370   39.9470 C   0  0  0  0  0  0  0  0  0  0  0  0
   36.0450   27.3850   38.9530 N   0  0  0  0  0  0  0  0  0  0  0  0
   35.6920   26.5790   37.0890 H   0  0  0  0  0  0  0  0  0  0  0  0
   33.6870   28.0490   36.7180 H   0  0  0  0  0  0  0  0  0  0  0  0
   33.0440   29.6680   38.5320 H   0  0  0  0  0  0  0  0  0  0  0  0
   36.6340   30.6980   41.2970 N   0  0  0  0  0  0  0  0  0  0  0  0
   35.8130   31.0870   41.8490 H   0  0  0  0  0  0  0  0  0  0  0  0
   37.2820   31.7080   40.0780 S   0  0  0  0  0  0  0  0  0  0  0  0
   36.6330   31.3360   38.7490 O   0  0  0  0  0  0  0  0  0  0  0  0
   36.2760   32.0060   38.1380 H   0  0  0  0  0  0  0  0  0  0  0  0
   37.0830   33.1630   40.3110 O   0  0  0  0  0  0  0  0  0  0  0  0
   36.7930   33.5520   41.1790 H   0  0  0  0  0  0  0  0  0  0  0  0
   38.9010   31.2600   39.9110 O   0  0  0  0  0  0  0  0  0  0  0  0
   39.7240   31.8910   39.0030 C   0  0  0  0  0  0  0  0  0  0  0  0
   40.8700   32.6620   38.9700 C   0  0  0  0  0  0  0  0  0  0  0  0
   41.3080   32.8680   39.9530 H   0  0  0  0  0  0  0  0  0  0  0  0
   41.1770   32.9830   37.6620 C   0  0  0  0  0  0  0  0  0  0  0  0
   42.0360   33.5770   37.4490 H   0  0  0  0  0  0  0  0  0  0  0  0
   40.2120   32.4010   36.9390 N   0  0  0  0  0  0  0  0  0  0  0  0
   40.1900   32.4790   35.8920 H   0  0  0  0  0  0  0  0  0  0  0  0
   39.3430   31.7510   37.7020 N   0  0  0  0  0  0  0  0  0  0  0  0
  1  2  2  0  0  0  0
  1  6  1  0  0  0  0
  2  3  1  0  0  0  0
  3  8  1  0  0  0  0
  3  4  2  0  0  0  0
  4  9  1  0  0  0  0
  5 10  1  0  0  0  0
  5  4  1  0  0  0  0
  6  5  2  0  0  0  0
  7  2  1  0  0  0  0
 11 16  1  0  0  0  0
 12 11  2  0  0  0  0
 12 13  1  0  0  0  0
 13 14  2  0  0  0  0
 14 15  1  0  0  0  0
 15  1  1  0  0  0  0
 16 15  2  0  0  0  0
 17 11  1  0  0  0  0
 18 12  1  0  0  0  0
 19 13  1  0  0  0  0
 20  6  1  0  0  0  0
 20 21  1  0  0  0  0
 22 25  1  0  0  0  0
 22 20  1  0  0  0  0
 23 22  1  0  0  0  0
 24 23  1  0  0  0  0
 25 26  1  0  0  0  0
 27 22  1  0  0  0  0
 28 27  1  0  0  0  0
 29 28  1  0  0  0  0
 29 30  1  0  0  0  0
 31 29  2  0  0  0  0
 32 31  1  0  0  0  0
 33 31  1  0  0  0  0
 33 35  1  0  0  0  0
 34 33  1  0  0  0  0
 35 28  2  0  0  0  0
M  END
>  <minimizedAffinity>
-6.08324099

$$$$

 OpenBabel03242515113D

 35 37  0  0  0  0  0  0  0  0999 V2000
   36.3840   26.9950   38.9490 C   0  0  0  0  0  0  0  0  0  0  0  0
   36.4150   26.7240   37.6100 C   0  0  0  0  0  0  0  0  0  0  0  0
   36.0010   27.5910   36.6220 C   0  0  0  0  0  0  0  0  0  0  0  0
   35.5220   28.8190   37.0010 C   0  0  0  0  0  0  0  0  0  0  0  0
   35.4760   29.1280   38.3320 C   0  0  0  0  0  0  0  0  0  0  0  0
   35.9010   28.2300   39.3000 C   0  0  0  0  0  0  0  0  0  0  0  0
   36.7930   25.7510   37.2890 H   0  0  0  0  0  0  0  0  0  0  0  0
   36.0660   27.2820   35.5890 H   0  0  0  0  0  0  0  0  0  0  0  0
   35.2020   29.4880   36.2090 H   0  0  0  0  0  0  0  0  0  0  0  0
   35.0890   30.1120   38.5730 H   0  0  0  0  0  0  0  0  0  0  0  0
   36.7320   23.8220   40.7280 C   0  0  0  0  0  0  0  0  0  0  0  0
   37.6210   24.1100   41.7450 C   0  0  0  0  0  0  0  0  0  0  0  0
   38.1140   25.4080   41.8290 C   0  0  0  0  0  0  0  0  0  0  0  0
   37.7260   26.3670   40.9290 N   0  0  0  0  0  0  0  0  0  0  0  0
   36.8380   26.0300   39.9360 C   0  0  0  0  0  0  0  0  0  0  0  0
   36.3700   24.7710   39.8670 N   0  0  0  0  0  0  0  0  0  0  0  0
   36.2820   22.8350   40.5690 H   0  0  0  0  0  0  0  0  0  0  0  0
   37.9000   23.3260   42.4300 H   0  0  0  0  0  0  0  0  0  0  0  0
   38.8190   25.6590   42.6250 H   0  0  0  0  0  0  0  0  0  0  0  0
   35.7900   28.6980   40.6230 N   0  0  0  0  0  0  0  0  0  0  0  0
   35.0800   28.1220   41.1650 H   0  0  0  0  0  0  0  0  0  0  0  0
   36.5560   29.9670   41.4760 S   0  0  0  0  0  0  0  0  0  0  0  0
   35.5570   31.1070   41.6420 O   0  0  0  0  0  0  0  0  0  0  0  0
   35.4160   31.5560   42.4950 H   0  0  0  0  0  0  0  0  0  0  0  0
   37.0680   29.5870   42.8190 O   0  0  0  0  0  0  0  0  0  0  0  0
   37.1600   28.6480   43.1340 H   0  0  0  0  0  0  0  0  0  0  0  0
   37.7430   30.5770   40.4420 O   0  0  0  0  0  0  0  0  0  0  0  0
   37.8850   31.9330   40.2420 C   0  0  0  0  0  0  0  0  0  0  0  0
   38.6890   32.9840   40.6390 C   0  0  0  0  0  0  0  0  0  0  0  0
   39.4870   32.7070   41.3370 H   0  0  0  0  0  0  0  0  0  0  0  0
   38.2640   34.1500   40.0320 C   0  0  0  0  0  0  0  0  0  0  0  0
   38.7740   35.0650   40.2260 H   0  0  0  0  0  0  0  0  0  0  0  0
   37.2170   33.7770   39.2860 N   0  0  0  0  0  0  0  0  0  0  0  0
   36.6850   34.4700   38.7040 H   0  0  0  0  0  0  0  0  0  0  0  0
   36.9700   32.4770   39.3900 N   0  0  0  0  0  0  0  0  0  0  0  0
  1  6  1  0  0  0  0
  1 15  1  0  0  0  0
  2  1  2  0  0  0  0
  3  4  2  0  0  0  0
  3  2  1  0  0  0  0
  4  5  1  0  0  0  0
  5 10  1  0  0  0  0
  5  6  2  0  0  0  0
  6 20  1  0  0  0  0
  7  2  1  0  0  0  0
  8  3  1  0  0  0  0
  9  4  1  0  0  0  0
 11 12  1  0  0  0  0
 12 13  2  0  0  0  0
 12 18  1  0  0  0  0
 13 19  1  0  0  0  0
 14 13  1  0  0  0  0
 15 14  2  0  0  0  0
 16 15  1  0  0  0  0
 16 11  2  0  0  0  0
 17 11  1  0  0  0  0
 20 21  1  0  0  0  0
 20 22  1  0  0  0  0
 22 23  1  0  0  0  0
 22 25  1  0  0  0  0
 23 24  1  0  0  0  0
 25 26  1  0  0  0  0
 27 22  1  0  0  0  0
 28 27  1  0  0  0  0
 28 29  1  0  0  0  0
 29 30  1  0  0  0  0
 31 32  1  0  0  0  0
 31 29  2  0  0  0  0
 33 35  1  0  0  0  0
 33 31  1  0  0  0  0
 34 33  1  0  0  0  0
 35 28  2  0  0  0  0
M  END
>  <minimizedAffinity>
-5.8055954

$$$$

 OpenBabel03242515113D

 35 37  0  0  0  0  0  0  0  0999 V2000
   36.6610   30.5530   39.3200 C   0  0  0  0  0  0  0  0  0  0  0  0
   36.4360   30.4140   37.9790 C   0  0  0  0  0  0  0  0  0  0  0  0
   35.6290   29.4520   37.4120 C   0  0  0  0  0  0  0  0  0  0  0  0
   35.0000   28.5640   38.2460 C   0  0  0  0  0  0  0  0  0  0  0  0
   35.1990   28.6700   39.5940 C   0  0  0  0  0  0  0  0  0  0  0  0
   36.0190   29.6520   40.1310 C   0  0  0  0  0  0  0  0  0  0  0  0
   36.9290   31.1120   37.2980 H   0  0  0  0  0  0  0  0  0  0  0  0
   35.5150   29.4260   36.3380 H   0  0  0  0  0  0  0  0  0  0  0  0
   34.3680   27.8150   37.7800 H   0  0  0  0  0  0  0  0  0  0  0  0
   34.6770   27.9420   40.2060 H   0  0  0  0  0  0  0  0  0  0  0  0
   37.9960   33.8910   39.9730 C   0  0  0  0  0  0  0  0  0  0  0  0
   39.0890   33.6550   40.7840 C   0  0  0  0  0  0  0  0  0  0  0  0
   39.3800   32.3360   41.1170 C   0  0  0  0  0  0  0  0  0  0  0  0
   38.6020   31.3070   40.6510 N   0  0  0  0  0  0  0  0  0  0  0  0
   37.5270   31.5930   39.8470 C   0  0  0  0  0  0  0  0  0  0  0  0
   37.2580   32.8740   39.5340 N   0  0  0  0  0  0  0  0  0  0  0  0
   37.6780   34.8880   39.6490 H   0  0  0  0  0  0  0  0  0  0  0  0
   39.6730   34.4940   41.1280 H   0  0  0  0  0  0  0  0  0  0  0  0
   40.2400   32.1260   41.7570 H   0  0  0  0  0  0  0  0  0  0  0  0
   36.1210   29.6280   41.5350 N   0  0  0  0  0  0  0  0  0  0  0  0
   35.4680   30.3440   41.9700 H   0  0  0  0  0  0  0  0  0  0  0  0
   37.0640   28.6960   42.6170 S   0  0  0  0  0  0  0  0  0  0  0  0
   38.0850   29.6140   43.2800 O   0  0  0  0  0  0  0  0  0  0  0  0
   38.2410   29.6110   44.2410 H   0  0  0  0  0  0  0  0  0  0  0  0
   36.2840   28.0080   43.6790 O   0  0  0  0  0  0  0  0  0  0  0  0
   35.2950   27.9080   43.6670 H   0  0  0  0  0  0  0  0  0  0  0  0
   37.9790   27.6490   41.6580 O   0  0  0  0  0  0  0  0  0  0  0  0
   37.5060   26.4000   41.3160 C   0  0  0  0  0  0  0  0  0  0  0  0
   37.1510   25.6730   40.1970 C   0  0  0  0  0  0  0  0  0  0  0  0
   37.2610   26.2120   39.2500 H   0  0  0  0  0  0  0  0  0  0  0  0
   36.7350   24.4110   40.5760 C   0  0  0  0  0  0  0  0  0  0  0  0
   36.4230   23.7110   39.8360 H   0  0  0  0  0  0  0  0  0  0  0  0
   36.8490   24.4070   41.9100 N   0  0  0  0  0  0  0  0  0  0  0  0
   36.5970   23.5610   42.4780 H   0  0  0  0  0  0  0  0  0  0  0  0
   37.3000   25.5650   42.3730 N   0  0  0  0  0  0  0  0  0  0  0  0
  1 15  1  0  0  0  0
  1  6  1  0  0  0  0
  2  1  2  0  0  0  0
  3  2  1  0  0  0  0
  3  4  2  0  0  0  0
  4  5  1  0  0  0  0
  5  6  2  0  0  0  0
  5 10  1  0  0  0  0
  6 20  1  0  0  0  0
  7  2  1  0  0  0  0
  8  3  1  0  0  0  0
  9  4  1  0  0  0  0
 11 12  1  0  0  0  0
 12 13  2  0  0  0  0
 12 18  1  0  0  0  0
 13 19  1  0  0  0  0
 14 13  1  0  0  0  0
 15 14  2  0  0  0  0
 16 15  1  0  0  0  0
 16 11  2  0  0  0  0
 17 11  1  0  0  0  0
 20 21  1  0  0  0  0
 20 22  1  0  0  0  0
 22 23  1  0  0  0  0
 22 25  1  0  0  0  0
 23 24  1  0  0  0  0
 26 25  1  0  0  0  0
 27 22  1  0  0  0  0
 28 27  1  0  0  0  0
 28 35  2  0  0  0  0
 29 31  2  0  0  0  0
 29 28  1  0  0  0  0
 30 29  1  0  0  0  0
 31 33  1  0  0  0  0
 32 31  1  0  0  0  0
 33 35  1  0  0  0  0
 33 34  1  0  0  0  0
M  END
>  <minimizedAffinity>
-5.74514151

$$$$

 OpenBabel03242515113D

 35 37  0  0  0  0  0  0  0  0999 V2000
   36.8220   30.5020   39.4380 C   0  0  0  0  0  0  0  0  0  0  0  0
   36.4970   30.3740   38.1170 C   0  0  0  0  0  0  0  0  0  0  0  0
   35.5050   29.5540   37.6270 C   0  0  0  0  0  0  0  0  0  0  0  0
   34.7830   28.8080   38.5230 C   0  0  0  0  0  0  0  0  0  0  0  0
   35.0780   28.9080   39.8540 C   0  0  0  0  0  0  0  0  0  0  0  0
   36.0850   29.7450   40.3130 C   0  0  0  0  0  0  0  0  0  0  0  0
   37.0620   30.9600   37.3880 H   0  0  0  0  0  0  0  0  0  0  0  0
   35.3250   29.5230   36.5620 H   0  0  0  0  0  0  0  0  0  0  0  0
   34.0060   28.1680   38.1170 H   0  0  0  0  0  0  0  0  0  0  0  0
   34.4760   28.2960   40.5170 H   0  0  0  0  0  0  0  0  0  0  0  0
   39.9650   31.5900   40.9530 C   0  0  0  0  0  0  0  0  0  0  0  0
   39.9600   32.9600   40.7740 C   0  0  0  0  0  0  0  0  0  0  0  0
   38.8680   33.5260   40.1250 C   0  0  0  0  0  0  0  0  0  0  0  0
   37.8320   32.7460   39.6800 N   0  0  0  0  0  0  0  0  0  0  0  0
   37.8840   31.3890   39.8830 C   0  0  0  0  0  0  0  0  0  0  0  0
   38.9470   30.8550   40.5120 N   0  0  0  0  0  0  0  0  0  0  0  0
   40.7730   31.0410   41.4500 H   0  0  0  0  0  0  0  0  0  0  0  0
   40.7950   33.5350   41.1390 H   0  0  0  0  0  0  0  0  0  0  0  0
   38.8420   34.6080   39.9720 H   0  0  0  0  0  0  0  0  0  0  0  0
   36.2650   29.7360   41.7090 N   0  0  0  0  0  0  0  0  0  0  0  0
   35.8010   30.5830   42.1520 H   0  0  0  0  0  0  0  0  0  0  0  0
   37.0590   28.6560   42.7720 S   0  0  0  0  0  0  0  0  0  0  0  0
   38.0260   29.4570   43.6370 O   0  0  0  0  0  0  0  0  0  0  0  0
   38.0760   29.3430   44.6040 H   0  0  0  0  0  0  0  0  0  0  0  0
   36.1500   27.8880   43.6640 O   0  0  0  0  0  0  0  0  0  0  0  0
   35.1650   27.8290   43.5360 H   0  0  0  0  0  0  0  0  0  0  0  0
   38.0430   27.6860   41.8040 O   0  0  0  0  0  0  0  0  0  0  0  0
   38.7250   26.6100   42.3330 C   0  0  0  0  0  0  0  0  0  0  0  0
   38.7570   25.2320   42.2490 C   0  0  0  0  0  0  0  0  0  0  0  0
   38.0290   24.8020   41.5520 H   0  0  0  0  0  0  0  0  0  0  0  0
   39.7320   24.7370   43.0930 C   0  0  0  0  0  0  0  0  0  0  0  0
   39.8960   23.6860   43.1560 H   0  0  0  0  0  0  0  0  0  0  0  0
   40.2630   25.8250   43.6650 N   0  0  0  0  0  0  0  0  0  0  0  0
   41.0410   25.7510   44.3660 H   0  0  0  0  0  0  0  0  0  0  0  0
   39.6900   26.9420   43.2370 N   0  0  0  0  0  0  0  0  0  0  0  0
  1 15  1  0  0  0  0
  1  6  1  0  0  0  0
  2  1  2  0  0  0  0
  3  2  1  0  0  0  0
  3  4  2  0  0  0  0
  4  5  1  0  0  0  0
  5  6  2  0  0  0  0
  5 10  1  0  0  0  0
  6 20  1  0  0  0  0
  7  2  1  0  0  0  0
  8  3  1  0  0  0  0
  9  4  1  0  0  0  0
 11 17  1  0  0  0  0
 12 11  1  0  0  0  0
 12 18  1  0  0  0  0
 13 12  2  0  0  0  0
 14 15  2  0  0  0  0
 14 13  1  0  0  0  0
 15 16  1  0  0  0  0
 16 11  2  0  0  0  0
 19 13  1  0  0  0  0
 20 21  1  0  0  0  0
 20 22  1  0  0  0  0
 22 23  1  0  0  0  0
 22 25  1  0  0  0  0
 23 24  1  0  0  0  0
 26 25  1  0  0  0  0
 27 28  1  0  0  0  0
 27 22  1  0  0  0  0
 28 35  2  0  0  0  0
 29 28  1  0  0  0  0
 29 31  2  0  0  0  0
 30 29  1  0  0  0  0
 31 32  1  0  0  0  0
 31 33  1  0  0  0  0
 33 34  1  0  0  0  0
 35 33  1  0  0  0  0
M  END
>  <minimizedAffinity>
-5.67454433

$$$$

 OpenBabel03242515113D

 35 37  0  0  0  0  0  0  0  0999 V2000
   36.4200   29.5830   39.0850 C   0  0  0  0  0  0  0  0  0  0  0  0
   36.8210   30.5470   38.2040 C   0  0  0  0  0  0  0  0  0  0  0  0
   37.1830   31.8300   38.5520 C   0  0  0  0  0  0  0  0  0  0  0  0
   37.1420   32.1750   39.8790 C   0  0  0  0  0  0  0  0  0  0  0  0
   36.7470   31.2380   40.7920 C   0  0  0  0  0  0  0  0  0  0  0  0
   36.3890   29.9540   40.4060 C   0  0  0  0  0  0  0  0  0  0  0  0
   36.8600   30.2910   37.1420 H   0  0  0  0  0  0  0  0  0  0  0  0
   37.4860   32.5200   37.7780 H   0  0  0  0  0  0  0  0  0  0  0  0
   37.4310   33.1890   40.1320 H   0  0  0  0  0  0  0  0  0  0  0  0
   36.7330   31.5650   41.8260 H   0  0  0  0  0  0  0  0  0  0  0  0
   36.4550   25.9400   38.8040 C   0  0  0  0  0  0  0  0  0  0  0  0
   35.4520   25.6700   37.8940 C   0  0  0  0  0  0  0  0  0  0  0  0
   34.7470   26.7470   37.3650 C   0  0  0  0  0  0  0  0  0  0  0  0
   35.0450   28.0330   37.7380 N   0  0  0  0  0  0  0  0  0  0  0  0
   36.0520   28.2480   38.6460 C   0  0  0  0  0  0  0  0  0  0  0  0
   36.7250   27.1970   39.1490 N   0  0  0  0  0  0  0  0  0  0  0  0
   37.0720   25.1700   39.2820 H   0  0  0  0  0  0  0  0  0  0  0  0
   35.2510   24.6450   37.6300 H   0  0  0  0  0  0  0  0  0  0  0  0
   33.9490   26.5580   36.6440 H   0  0  0  0  0  0  0  0  0  0  0  0
   36.0050   29.1090   41.4640 N   0  0  0  0  0  0  0  0  0  0  0  0
   34.9580   28.9330   41.4430 H   0  0  0  0  0  0  0  0  0  0  0  0
   36.8820   28.3490   42.7210 S   0  0  0  0  0  0  0  0  0  0  0  0
   37.3900   29.4260   43.6740 O   0  0  0  0  0  0  0  0  0  0  0  0
   37.2960   29.3510   44.6410 H   0  0  0  0  0  0  0  0  0  0  0  0
   36.1020   27.3540   43.5030 O   0  0  0  0  0  0  0  0  0  0  0  0
   35.2210   26.9900   43.2190 H   0  0  0  0  0  0  0  0  0  0  0  0
   38.2720   27.7130   42.0040 O   0  0  0  0  0  0  0  0  0  0  0  0
   38.7150   26.4440   42.3120 C   0  0  0  0  0  0  0  0  0  0  0  0
   38.5210   25.1320   41.9270 C   0  0  0  0  0  0  0  0  0  0  0  0
   37.7910   24.9980   41.1200 H   0  0  0  0  0  0  0  0  0  0  0  0
   39.3260   24.3020   42.6830 C   0  0  0  0  0  0  0  0  0  0  0  0
   39.3050   23.2490   42.5190 H   0  0  0  0  0  0  0  0  0  0  0  0
   39.9840   25.1300   43.5040 N   0  0  0  0  0  0  0  0  0  0  0  0
   40.6780   24.7690   44.2040 H   0  0  0  0  0  0  0  0  0  0  0  0
   39.6450   26.3970   43.3080 N   0  0  0  0  0  0  0  0  0  0  0  0
  1  6  1  0  0  0  0
  2  3  1  0  0  0  0
  2  1  2  0  0  0  0
  3  4  2  0  0  0  0
  4  9  1  0  0  0  0
  4  5  1  0  0  0  0
  5 10  1  0  0  0  0
  6  5  2  0  0  0  0
  6 20  1  0  0  0  0
  7  2  1  0  0  0  0
  8  3  1  0  0  0  0
 11 16  1  0  0  0  0
 11 17  1  0  0  0  0
 12 11  2  0  0  0  0
 13 14  2  0  0  0  0
 13 12  1  0  0  0  0
 14 15  1  0  0  0  0
 15  1  1  0  0  0  0
 15 16  2  0  0  0  0
 18 12  1  0  0  0  0
 19 13  1  0  0  0  0
 20 22  1  0  0  0  0
 21 20  1  0  0  0  0
 22 25  1  0  0  0  0
 22 23  1  0  0  0  0
 23 24  1  0  0  0  0
 26 25  1  0  0  0  0
 27 28  1  0  0  0  0
 27 22  1  0  0  0  0
 28 35  2  0  0  0  0
 29 28  1  0  0  0  0
 29 31  2  0  0  0  0
 30 29  1  0  0  0  0
 31 33  1  0  0  0  0
 32 31  1  0  0  0  0
 33 34  1  0  0  0  0
 35 33  1  0  0  0  0
M  END
>  <minimizedAffinity>
-5.48560619

$$$$

 OpenBabel03242515113D

 35 37  0  0  0  0  0  0  0  0999 V2000
   37.7240   26.5110   41.5860 C   0  0  0  0  0  0  0  0  0  0  0  0
   38.9380   26.1110   42.0700 C   0  0  0  0  0  0  0  0  0  0  0  0
   39.6920   26.8170   42.9820 C   0  0  0  0  0  0  0  0  0  0  0  0
   39.1960   28.0080   43.4460 C   0  0  0  0  0  0  0  0  0  0  0  0
   37.9840   28.4420   42.9860 C   0  0  0  0  0  0  0  0  0  0  0  0
   37.2510   27.7060   42.0670 C   0  0  0  0  0  0  0  0  0  0  0  0
   39.3500   25.1650   41.7120 H   0  0  0  0  0  0  0  0  0  0  0  0
   40.6420   26.4150   43.3030 H   0  0  0  0  0  0  0  0  0  0  0  0
   39.8040   28.5480   44.1640 H   0  0  0  0  0  0  0  0  0  0  0  0
   37.6400   29.3900   43.3860 H   0  0  0  0  0  0  0  0  0  0  0  0
   35.9550   23.6580   40.1430 C   0  0  0  0  0  0  0  0  0  0  0  0
   35.5790   24.1030   38.8900 C   0  0  0  0  0  0  0  0  0  0  0  0
   35.9330   25.3980   38.5280 C   0  0  0  0  0  0  0  0  0  0  0  0
   36.6330   26.2030   39.3900 N   0  0  0  0  0  0  0  0  0  0  0  0
   36.9830   25.7130   40.6230 C   0  0  0  0  0  0  0  0  0  0  0  0
   36.6340   24.4590   40.9610 N   0  0  0  0  0  0  0  0  0  0  0  0
   35.7290   22.6580   40.5300 H   0  0  0  0  0  0  0  0  0  0  0  0
   35.0300   23.4370   38.2440 H   0  0  0  0  0  0  0  0  0  0  0  0
   35.6470   25.7720   37.5410 H   0  0  0  0  0  0  0  0  0  0  0  0
   36.0250   28.2870   41.6930 N   0  0  0  0  0  0  0  0  0  0  0  0
   35.2320   27.9050   42.2880 H   0  0  0  0  0  0  0  0  0  0  0  0
   35.6000   29.4460   40.5080 S   0  0  0  0  0  0  0  0  0  0  0  0
   36.4580   29.2040   39.2700 O   0  0  0  0  0  0  0  0  0  0  0  0
   36.0800   29.1750   38.3730 H   0  0  0  0  0  0  0  0  0  0  0  0
   34.1700   29.4210   40.1050 O   0  0  0  0  0  0  0  0  0  0  0  0
   33.4590   28.9360   40.6050 H   0  0  0  0  0  0  0  0  0  0  0  0
   36.1130   30.9380   41.1070 O   0  0  0  0  0  0  0  0  0  0  0  0
   37.1700   31.6120   40.5320 C   0  0  0  0  0  0  0  0  0  0  0  0
   38.4860   31.9380   40.7940 C   0  0  0  0  0  0  0  0  0  0  0  0
   38.8650   31.5660   41.7530 H   0  0  0  0  0  0  0  0  0  0  0  0
   39.0010   32.6720   39.7430 C   0  0  0  0  0  0  0  0  0  0  0  0
   40.0110   33.0100   39.7760 H   0  0  0  0  0  0  0  0  0  0  0  0
   37.9860   32.7710   38.8750 N   0  0  0  0  0  0  0  0  0  0  0  0
   38.0910   33.2860   37.9660 H   0  0  0  0  0  0  0  0  0  0  0  0
   36.8950   32.1570   39.3130 N   0  0  0  0  0  0  0  0  0  0  0  0
  1  6  2  0  0  0  0
  1  2  1  0  0  0  0
  2  3  2  0  0  0  0
  3  8  1  0  0  0  0
  3  4  1  0  0  0  0
  4  9  1  0  0  0  0
  5 10  1  0  0  0  0
  5  4  2  0  0  0  0
  6  5  1  0  0  0  0
  7  2  1  0  0  0  0
 11 17  1  0  0  0  0
 11 16  1  0  0  0  0
 12 11  2  0  0  0  0
 13 12  1  0  0  0  0
 13 14  2  0  0  0  0
 14 15  1  0  0  0  0
 15 16  2  0  0  0  0
 15  1  1  0  0  0  0
 18 12  1  0  0  0  0
 19 13  1  0  0  0  0
 20  6  1  0  0  0  0
 20 21  1  0  0  0  0
 22 27  1  0  0  0  0
 22 20  1  0  0  0  0
 23 22  1  0  0  0  0
 24 23  1  0  0  0  0
 25 22  1  0  0  0  0
 25 26  1  0  0  0  0
 28 29  1  0  0  0  0
 28 27  1  0  0  0  0
 29 30  1  0  0  0  0
 31 32  1  0  0  0  0
 31 29  2  0  0  0  0
 33 35  1  0  0  0  0
 33 31  1  0  0  0  0
 34 33  1  0  0  0  0
 35 28  2  0  0  0  0
M  END
>  <minimizedAffinity>
-5.46057606

$$$$

 OpenBabel03242515113D

 35 37  0  0  0  0  0  0  0  0999 V2000
   36.5920   28.0870   39.4320 C   0  0  0  0  0  0  0  0  0  0  0  0
   35.9980   27.0140   38.8290 C   0  0  0  0  0  0  0  0  0  0  0  0
   35.3800   27.0460   37.5980 C   0  0  0  0  0  0  0  0  0  0  0  0
   35.3540   28.2380   36.9200 C   0  0  0  0  0  0  0  0  0  0  0  0
   35.9390   29.3340   37.4900 C   0  0  0  0  0  0  0  0  0  0  0  0
   36.5520   29.2660   38.7320 C   0  0  0  0  0  0  0  0  0  0  0  0
   36.0070   26.0570   39.3550 H   0  0  0  0  0  0  0  0  0  0  0  0
   34.9380   26.1410   37.2070 H   0  0  0  0  0  0  0  0  0  0  0  0
   34.8630   28.2420   35.9520 H   0  0  0  0  0  0  0  0  0  0  0  0
   35.8890   30.2490   36.9080 H   0  0  0  0  0  0  0  0  0  0  0  0
   36.9370   27.8100   43.0590 C   0  0  0  0  0  0  0  0  0  0  0  0
   38.3040   27.7730   43.2580 C   0  0  0  0  0  0  0  0  0  0  0  0
   39.1260   27.8430   42.1380 C   0  0  0  0  0  0  0  0  0  0  0  0
   38.5910   27.9460   40.8790 N   0  0  0  0  0  0  0  0  0  0  0  0
   37.2260   27.9800   40.7350 C   0  0  0  0  0  0  0  0  0  0  0  0
   36.4440   27.9110   41.8280 N   0  0  0  0  0  0  0  0  0  0  0  0
   36.2000   27.7620   43.8690 H   0  0  0  0  0  0  0  0  0  0  0  0
   38.6820   27.6910   44.2640 H   0  0  0  0  0  0  0  0  0  0  0  0
   40.2100   27.8160   42.2710 H   0  0  0  0  0  0  0  0  0  0  0  0
   37.1060   30.4810   39.1800 N   0  0  0  0  0  0  0  0  0  0  0  0
   37.8040   30.8580   38.4730 H   0  0  0  0  0  0  0  0  0  0  0  0
   36.8690   31.4150   40.5930 S   0  0  0  0  0  0  0  0  0  0  0  0
   36.6970   32.8730   40.1820 O   0  0  0  0  0  0  0  0  0  0  0  0
   35.9810   33.4320   40.5350 H   0  0  0  0  0  0  0  0  0  0  0  0
   35.6940   31.0110   41.4100 O   0  0  0  0  0  0  0  0  0  0  0  0
   35.1990   30.1570   41.2880 H   0  0  0  0  0  0  0  0  0  0  0  0
   38.3310   31.3700   41.4350 O   0  0  0  0  0  0  0  0  0  0  0  0
   39.5380   31.4470   40.7710 C   0  0  0  0  0  0  0  0  0  0  0  0
   40.8170   30.9320   40.8380 C   0  0  0  0  0  0  0  0  0  0  0  0
   40.9830   30.2310   41.6640 H   0  0  0  0  0  0  0  0  0  0  0  0
   41.5810   31.4510   39.8110 C   0  0  0  0  0  0  0  0  0  0  0  0
   42.6020   31.1610   39.7100 H   0  0  0  0  0  0  0  0  0  0  0  0
   40.7480   32.2650   39.1510 N   0  0  0  0  0  0  0  0  0  0  0  0
   41.0630   32.8050   38.3080 H   0  0  0  0  0  0  0  0  0  0  0  0
   39.5370   32.2820   39.6940 N   0  0  0  0  0  0  0  0  0  0  0  0
  1 15  1  0  0  0  0
  2  7  1  0  0  0  0
  2  1  1  0  0  0  0
  3  2  2  0  0  0  0
  4  5  2  0  0  0  0
  4  3  1  0  0  0  0
  5  6  1  0  0  0  0
  6 20  1  0  0  0  0
  6  1  2  0  0  0  0
  8  3  1  0  0  0  0
  9  4  1  0  0  0  0
 10  5  1  0  0  0  0
 11 12  1  0  0  0  0
 11 17  1  0  0  0  0
 12 18  1  0  0  0  0
 13 19  1  0  0  0  0
 13 12  2  0  0  0  0
 14 13  1  0  0  0  0
 15 14  2  0  0  0  0
 15 16  1  0  0  0  0
 16 11  2  0  0  0  0
 20 22  1  0  0  0  0
 21 20  1  0  0  0  0
 22 25  1  0  0  0  0
 22 27  1  0  0  0  0
 23 24  1  0  0  0  0
 23 22  1  0  0  0  0
 26 25  1  0  0  0  0
 28 29  1  0  0  0  0
 28 27  1  0  0  0  0
 29 30  1  0  0  0  0
 31 29  2  0  0  0  0
 32 31  1  0  0  0  0
 33 35  1  0  0  0  0
 33 31  1  0  0  0  0
 34 33  1  0  0  0  0
 35 28  2  0  0  0  0
M  END
>  <minimizedAffinity>
-5.40239048

$$$$

 OpenBabel03242515113D

 35 37  0  0  0  0  0  0  0  0999 V2000
   36.5730   28.0760   41.1850 C   0  0  0  0  0  0  0  0  0  0  0  0
   36.9540   26.8800   41.7260 C   0  0  0  0  0  0  0  0  0  0  0  0
   37.6670   26.7380   42.8960 C   0  0  0  0  0  0  0  0  0  0  0  0
   38.0240   27.8740   43.5770 C   0  0  0  0  0  0  0  0  0  0  0  0
   37.6600   29.0900   43.0680 C   0  0  0  0  0  0  0  0  0  0  0  0
   36.9420   29.1960   41.8860 C   0  0  0  0  0  0  0  0  0  0  0  0
   36.6800   25.9640   41.1970 H   0  0  0  0  0  0  0  0  0  0  0  0
   37.9210   25.7460   43.2410 H   0  0  0  0  0  0  0  0  0  0  0  0
   38.5840   27.7410   44.4960 H   0  0  0  0  0  0  0  0  0  0  0  0
   37.9680   29.9540   43.6480 H   0  0  0  0  0  0  0  0  0  0  0  0
   35.6260   27.4450   37.7120 C   0  0  0  0  0  0  0  0  0  0  0  0
   34.4850   28.2040   37.5390 C   0  0  0  0  0  0  0  0  0  0  0  0
   34.0260   28.9450   38.6240 C   0  0  0  0  0  0  0  0  0  0  0  0
   34.6900   28.9200   39.8230 N   0  0  0  0  0  0  0  0  0  0  0  0
   35.8200   28.1500   39.9440 C   0  0  0  0  0  0  0  0  0  0  0  0
   36.2520   27.4390   38.8870 N   0  0  0  0  0  0  0  0  0  0  0  0
   36.0740   26.8260   36.9270 H   0  0  0  0  0  0  0  0  0  0  0  0
   33.9940   28.1950   36.5800 H   0  0  0  0  0  0  0  0  0  0  0  0
   33.1250   29.5530   38.5100 H   0  0  0  0  0  0  0  0  0  0  0  0
   36.6450   30.5160   41.4970 N   0  0  0  0  0  0  0  0  0  0  0  0
   35.8740   30.9210   42.1050 H   0  0  0  0  0  0  0  0  0  0  0  0
   37.2730   31.5370   40.2770 S   0  0  0  0  0  0  0  0  0  0  0  0
   36.4250   31.3650   39.0210 O   0  0  0  0  0  0  0  0  0  0  0  0
   36.0920   32.1240   38.5090 H   0  0  0  0  0  0  0  0  0  0  0  0
   37.3020   32.9800   40.6340 O   0  0  0  0  0  0  0  0  0  0  0  0
   37.1730   33.3270   41.5570 H   0  0  0  0  0  0  0  0  0  0  0  0
   38.7850   30.9060   39.8700 O   0  0  0  0  0  0  0  0  0  0  0  0
   39.9180   31.2690   40.5660 C   0  0  0  0  0  0  0  0  0  0  0  0
   41.2790   31.4080   40.3740 C   0  0  0  0  0  0  0  0  0  0  0  0
   41.6230   31.1680   39.3620 H   0  0  0  0  0  0  0  0  0  0  0  0
   41.8730   31.8310   41.5480 C   0  0  0  0  0  0  0  0  0  0  0  0
   42.9250   31.9910   41.5820 H   0  0  0  0  0  0  0  0  0  0  0  0
   40.8600   31.9350   42.4180 N   0  0  0  0  0  0  0  0  0  0  0  0
   41.0180   32.2410   43.4090 H   0  0  0  0  0  0  0  0  0  0  0  0
   39.6970   31.6100   41.8670 N   0  0  0  0  0  0  0  0  0  0  0  0
  1  2  2  0  0  0  0
  1  6  1  0  0  0  0
  2  3  1  0  0  0  0
  3  8  1  0  0  0  0
  3  4  2  0  0  0  0
  4  9  1  0  0  0  0
  5  4  1  0  0  0  0
  5 10  1  0  0  0  0
  6  5  2  0  0  0  0
  7  2  1  0  0  0  0
 11 16  1  0  0  0  0
 12 11  2  0  0  0  0
 12 13  1  0  0  0  0
 13 14  2  0  0  0  0
 14 15  1  0  0  0  0
 15  1  1  0  0  0  0
 16 15  2  0  0  0  0
 17 11  1  0  0  0  0
 18 12  1  0  0  0  0
 19 13  1  0  0  0  0
 20  6  1  0  0  0  0
 20 21  1  0  0  0  0
 22 25  1  0  0  0  0
 22 20  1  0  0  0  0
 23 22  1  0  0  0  0
 24 23  1  0  0  0  0
 25 26  1  0  0  0  0
 27 22  1  0  0  0  0
 27 28  1  0  0  0  0
 28 35  2  0  0  0  0
 29 28  1  0  0  0  0
 29 31  2  0  0  0  0
 30 29  1  0  0  0  0
 31 32  1  0  0  0  0
 31 33  1  0  0  0  0
 33 34  1  0  0  0  0
 35 33  1  0  0  0  0
M  END
>  <minimizedAffinity>
-5.35769701

$$$$

 OpenBabel03242515113D

 35 37  0  0  0  0  0  0  0  0999 V2000
   36.8990   28.6620   41.0350 C   0  0  0  0  0  0  0  0  0  0  0  0
   36.5030   27.5090   41.6530 C   0  0  0  0  0  0  0  0  0  0  0  0
   36.8200   27.1620   42.9480 C   0  0  0  0  0  0  0  0  0  0  0  0
   37.5890   28.0310   43.6790 C   0  0  0  0  0  0  0  0  0  0  0  0
   38.0040   29.1960   43.0960 C   0  0  0  0  0  0  0  0  0  0  0  0
   37.6660   29.5140   41.7890 C   0  0  0  0  0  0  0  0  0  0  0  0
   35.8910   26.8040   41.0860 H   0  0  0  0  0  0  0  0  0  0  0  0
   36.4580   26.2250   43.3460 H   0  0  0  0  0  0  0  0  0  0  0  0
   37.8270   27.7400   44.6970 H   0  0  0  0  0  0  0  0  0  0  0  0
   38.6090   29.8450   43.7210 H   0  0  0  0  0  0  0  0  0  0  0  0
   37.2480   29.5580   37.5100 C   0  0  0  0  0  0  0  0  0  0  0  0
   35.9500   29.5510   37.0380 C   0  0  0  0  0  0  0  0  0  0  0  0
   34.9340   29.2340   37.9340 C   0  0  0  0  0  0  0  0  0  0  0  0
   35.2180   28.9410   39.2430 N   0  0  0  0  0  0  0  0  0  0  0  0
   36.5250   28.9630   39.6630 C   0  0  0  0  0  0  0  0  0  0  0  0
   37.4970   29.2700   38.7850 N   0  0  0  0  0  0  0  0  0  0  0  0
   38.1220   29.7930   36.8920 H   0  0  0  0  0  0  0  0  0  0  0  0
   35.7710   29.7870   36.0020 H   0  0  0  0  0  0  0  0  0  0  0  0
   33.8990   29.2220   37.5830 H   0  0  0  0  0  0  0  0  0  0  0  0
   38.1700   30.7470   41.3360 N   0  0  0  0  0  0  0  0  0  0  0  0
   37.5290   31.1660   40.5990 H   0  0  0  0  0  0  0  0  0  0  0  0
   39.5660   31.6510   41.7390 S   0  0  0  0  0  0  0  0  0  0  0  0
   39.2930   33.1200   41.4330 O   0  0  0  0  0  0  0  0  0  0  0  0
   39.5030   33.8310   42.0650 H   0  0  0  0  0  0  0  0  0  0  0  0
   39.9880   31.5340   43.1590 O   0  0  0  0  0  0  0  0  0  0  0  0
   39.6420   30.8440   43.7880 H   0  0  0  0  0  0  0  0  0  0  0  0
   40.7570   31.1910   40.6340 O   0  0  0  0  0  0  0  0  0  0  0  0
   40.7540   31.6710   39.3420 C   0  0  0  0  0  0  0  0  0  0  0  0
   40.4880   31.2460   38.0550 C   0  0  0  0  0  0  0  0  0  0  0  0
   40.1730   30.1990   37.9780 H   0  0  0  0  0  0  0  0  0  0  0  0
   40.6940   32.2870   37.1700 C   0  0  0  0  0  0  0  0  0  0  0  0
   40.5350   32.1360   36.1280 H   0  0  0  0  0  0  0  0  0  0  0  0
   41.0780   33.3120   37.9420 N   0  0  0  0  0  0  0  0  0  0  0  0
   41.3070   34.2500   37.5310 H   0  0  0  0  0  0  0  0  0  0  0  0
   41.1220   32.9780   39.2250 N   0  0  0  0  0  0  0  0  0  0  0  0
  1  2  2  0  0  0  0
  1  6  1  0  0  0  0
  2  3  1  0  0  0  0
  3  8  1  0  0  0  0
  3  4  2  0  0  0  0
  4  9  1  0  0  0  0
  5  4  1  0  0  0  0
  5 10  1  0  0  0  0
  6  5  2  0  0  0  0
  7  2  1  0  0  0  0
 11 16  1  0  0  0  0
 12 11  2  0  0  0  0
 12 13  1  0  0  0  0
 13 14  2  0  0  0  0
 14 15  1  0  0  0  0
 15  1  1  0  0  0  0
 16 15  2  0  0  0  0
 17 11  1  0  0  0  0
 18 12  1  0  0  0  0
 19 13  1  0  0  0  0
 20 22  1  0  0  0  0
 20  6  1  0  0  0  0
 21 20  1  0  0  0  0
 22 25  1  0  0  0  0
 23 22  1  0  0  0  0
 23 24  1  0  0  0  0
 25 26  1  0  0  0  0
 27 22  1  0  0  0  0
 28 27  1  0  0  0  0
 29 28  1  0  0  0  0
 30 29  1  0  0  0  0
 31 33  1  0  0  0  0
 31 29  2  0  0  0  0
 32 31  1  0  0  0  0
 33 35  1  0  0  0  0
 34 33  1  0  0  0  0
 35 28  2  0  0  0  0
M  END
>  <minimizedAffinity>
-5.28912449

$$$$
