
 OpenBabel03252509313D

 26 27  0  0  0  0  0  0  0  0999 V2000
   47.9260   34.8320   42.0720 O   0  0  0  0  0  0  0  0  0  0  0  0
   46.5390   34.9390   41.9790 C   0  0  0  0  0  0  0  0  0  0  0  0
   46.2120   35.8090   41.3830 H   0  0  0  0  0  0  0  0  0  0  0  0
   46.2050   34.0180   41.4430 H   0  0  0  0  0  0  0  0  0  0  0  0
   45.5550   33.9600   45.4380 C   0  0  0  0  0  0  0  0  0  0  0  0
   46.1820   33.9170   44.1690 C   0  0  0  0  0  0  0  0  0  0  0  0
   45.9090   34.9540   43.2910 C   0  0  0  0  0  0  0  0  0  0  0  0
   45.0590   35.9520   43.6910 N   0  0  0  0  0  0  0  0  0  0  0  0
   44.4760   35.9580   44.9160 C   0  0  0  0  0  0  0  0  0  0  0  0
   44.7260   34.9670   45.7780 N   0  0  0  0  0  0  0  0  0  0  0  0
   45.7120   33.1880   46.1860 H   0  0  0  0  0  0  0  0  0  0  0  0
   46.8360   33.0820   43.9550 H   0  0  0  0  0  0  0  0  0  0  0  0
   43.8390   36.8240   45.0510 H   0  0  0  0  0  0  0  0  0  0  0  0
   47.5170   32.4990   40.9750 O   0  0  0  0  0  0  0  0  0  0  0  0
   48.4110   33.7060   40.8940 P   0  0  2  0  0  0  0  0  0  0  0  0
   50.0220   33.3470   41.1930 O   0  0  0  0  0  0  0  0  0  0  0  0
   50.5120   34.0560   41.6560 H   0  0  0  0  0  0  0  0  0  0  0  0
   48.2000   34.4190   39.3880 O   0  0  0  0  0  0  0  0  0  0  0  0
   48.4130   33.7010   38.2160 C   0  0  0  0  0  0  0  0  0  0  0  0
   48.9430   32.5110   37.7280 C   0  0  0  0  0  0  0  0  0  0  0  0
   49.3460   31.8930   38.5310 H   0  0  0  0  0  0  0  0  0  0  0  0
   48.7690   32.5270   36.3550 C   0  0  0  0  0  0  0  0  0  0  0  0
   49.1420   31.6500   35.8420 H   0  0  0  0  0  0  0  0  0  0  0  0
   48.1530   33.6900   36.0230 N   0  0  0  0  0  0  0  0  0  0  0  0
   47.9440   33.8680   35.0280 H   0  0  0  0  0  0  0  0  0  0  0  0
   47.9410   34.3930   37.1390 N   0  0  0  0  0  0  0  0  0  0  0  0
  2  1  1  0  0  0  0
  2  7  1  0  0  0  0
  3  2  1  0  0  0  0
  4  2  1  0  0  0  0
  5 10  1  0  0  0  0
  5 11  1  0  0  0  0
  6  5  2  0  0  0  0
  7  8  2  0  0  0  0
  7  6  1  0  0  0  0
  8  9  1  0  0  0  0
  9 13  1  0  0  0  0
  9 10  2  0  0  0  0
 12  6  1  0  0  0  0
 15 14  2  1  0  0  0
 15 16  1  0  0  0  0
 15  1  1  0  0  0  0
 16 17  1  0  0  0  0
 18 15  1  0  0  0  0
 19 18  1  0  0  0  0
 20 19  1  0  0  0  0
 20 21  1  0  0  0  0
 22 20  2  0  0  0  0
 23 22  1  0  0  0  0
 24 22  1  0  0  0  0
 24 26  1  0  0  0  0
 25 24  1  0  0  0  0
 26 19  2  0  0  0  0
M  END
>  <minimizedAffinity>
-4.5272069

>  <minimizedRMSD>
3.02696443

$$$$
