
 OpenBabel03252509313D

 26 27  0  0  0  0  0  0  0  0999 V2000
   48.3420   33.4570   43.1320 O   0  0  0  0  0  0  0  0  0  0  0  0
   46.9890   33.1390   43.0150 C   0  0  0  0  0  0  0  0  0  0  0  0
   46.6790   32.9520   41.9720 H   0  0  0  0  0  0  0  0  0  0  0  0
   46.8580   32.1870   43.5830 H   0  0  0  0  0  0  0  0  0  0  0  0
   44.8540   34.9450   45.4800 C   0  0  0  0  0  0  0  0  0  0  0  0
   45.6760   33.9410   44.9130 C   0  0  0  0  0  0  0  0  0  0  0  0
   46.1420   34.1530   43.6260 C   0  0  0  0  0  0  0  0  0  0  0  0
   45.7890   35.3080   42.9780 N   0  0  0  0  0  0  0  0  0  0  0  0
   44.9990   36.2490   43.5540 C   0  0  0  0  0  0  0  0  0  0  0  0
   44.5380   36.0620   44.7950 N   0  0  0  0  0  0  0  0  0  0  0  0
   44.4460   34.8580   46.4820 H   0  0  0  0  0  0  0  0  0  0  0  0
   45.8940   33.0660   45.5120 H   0  0  0  0  0  0  0  0  0  0  0  0
   44.8300   37.0890   42.8910 H   0  0  0  0  0  0  0  0  0  0  0  0
   49.9840   32.7260   41.2380 O   0  0  0  0  0  0  0  0  0  0  0  0
   48.9160   33.7370   41.5560 P   0  0  2  0  0  0  0  0  0  0  0  0
   49.4800   35.3180   41.5140 O   0  0  0  0  0  0  0  0  0  0  0  0
   49.0600   35.9110   42.1690 H   0  0  0  0  0  0  0  0  0  0  0  0
   47.6350   33.5040   40.4960 O   0  0  0  0  0  0  0  0  0  0  0  0
   47.7430   33.8420   39.1520 C   0  0  0  0  0  0  0  0  0  0  0  0
   48.5770   34.4700   38.2310 C   0  0  0  0  0  0  0  0  0  0  0  0
   49.4840   34.8440   38.7060 H   0  0  0  0  0  0  0  0  0  0  0  0
   47.9450   34.3980   37.0030 C   0  0  0  0  0  0  0  0  0  0  0  0
   48.4910   34.8540   36.1870 H   0  0  0  0  0  0  0  0  0  0  0  0
   46.7660   33.7470   37.1730 N   0  0  0  0  0  0  0  0  0  0  0  0
   46.1600   33.6030   36.3500 H   0  0  0  0  0  0  0  0  0  0  0  0
   46.6460   33.4150   38.4610 N   0  0  0  0  0  0  0  0  0  0  0  0
  2  1  1  0  0  0  0
  2  4  1  0  0  0  0
  2  7  1  0  0  0  0
  3  2  1  0  0  0  0
  5 11  1  0  0  0  0
  6  5  1  0  0  0  0
  6 12  1  0  0  0  0
  7  6  2  0  0  0  0
  8  9  2  0  0  0  0
  8  7  1  0  0  0  0
  9 10  1  0  0  0  0
 10  5  2  0  0  0  0
 13  9  1  0  0  0  0
 15 14  2  6  0  0  0
 15  1  1  0  0  0  0
 16 15  1  0  0  0  0
 16 17  1  0  0  0  0
 18 15  1  0  0  0  0
 19 18  1  0  0  0  0
 20 21  1  0  0  0  0
 20 19  1  0  0  0  0
 22 24  1  0  0  0  0
 22 20  2  0  0  0  0
 23 22  1  0  0  0  0
 24 26  1  0  0  0  0
 25 24  1  0  0  0  0
 26 19  2  0  0  0  0
M  END
>  <minimizedAffinity>
-4.42755556

>  <minimizedRMSD>
2.611233

$$$$
