
 OpenBabel03242512093D

 32 34  0  0  1  0  0  0  0  0999 V2000
   48.2370   34.5540   41.2310 C   0  0  1  0  0  0  0  0  0  0  0  0
   48.8840   35.9060   41.7230 C   0  0  0  0  0  0  0  0  0  0  0  0
   49.1380   34.6150   42.3780 C   0  0  2  0  0  0  0  0  0  0  0  0
   48.6320   34.2450   40.2580 H   0  0  0  0  0  0  0  0  0  0  0  0
   49.6390   36.3480   41.0390 H   0  0  0  0  0  0  0  0  0  0  0  0
   48.1920   36.6340   42.1910 H   0  0  0  0  0  0  0  0  0  0  0  0
   48.6360   34.2310   43.2800 H   0  0  0  0  0  0  0  0  0  0  0  0
   46.7600   34.5440   41.4350 C   0  0  0  0  0  0  0  0  0  0  0  0
   46.0570   34.3140   40.4560 O   0  0  0  0  0  0  0  0  0  0  0  0
   45.4270   35.9160   42.9640 C   0  0  0  0  0  0  0  0  0  0  0  0
   46.1140   34.7810   42.6880 C   0  0  0  0  0  0  0  0  0  0  0  0
   46.1830   33.7900   43.7030 C   0  0  0  0  0  0  0  0  0  0  0  0
   45.5770   33.9900   44.8980 N   0  0  0  0  0  0  0  0  0  0  0  0
   44.8970   35.1500   45.1280 C   0  0  0  0  0  0  0  0  0  0  0  0
   44.8280   36.0760   44.1890 N   0  0  0  0  0  0  0  0  0  0  0  0
   45.3840   36.6560   42.1860 H   0  0  0  0  0  0  0  0  0  0  0  0
   46.6840   32.8640   43.6090 H   0  0  0  0  0  0  0  0  0  0  0  0
   44.3980   35.3610   46.0580 H   0  0  0  0  0  0  0  0  0  0  0  0
   50.4560   34.1830   42.2630 O   0  0  0  0  0  0  0  0  0  0  0  0
   49.0960   32.0640   42.8360 O   0  0  0  0  0  0  0  0  0  0  0  0
   50.4030   32.4860   42.1860 P   0  0  2  0  0  0  0  0  0  0  0  0
   51.7050   31.7340   42.8950 O   0  0  0  0  0  0  0  0  0  0  0  0
   52.4970   32.3050   42.9470 H   0  0  0  0  0  0  0  0  0  0  0  0
   50.2310   32.0430   40.5260 O   0  0  0  0  0  0  0  0  0  0  0  0
   51.2870   31.4270   39.8470 C   0  0  0  0  0  0  0  0  0  0  0  0
   52.6660   31.4660   39.7480 C   0  0  0  0  0  0  0  0  0  0  0  0
   53.1240   32.2050   40.3910 H   0  0  0  0  0  0  0  0  0  0  0  0
   53.0220   30.4930   38.8080 C   0  0  0  0  0  0  0  0  0  0  0  0
   54.0730   30.3960   38.6130 H   0  0  0  0  0  0  0  0  0  0  0  0
   51.8830   29.9150   38.3810 N   0  0  0  0  0  0  0  0  0  0  0  0
   52.0150   29.1640   37.6690 H   0  0  0  0  0  0  0  0  0  0  0  0
   50.8490   30.4630   38.9950 N   0  0  0  0  0  0  0  0  0  0  0  0
  1  4  1  6  0  0  0
  1  8  1  0  0  0  0
  1  2  1  0  0  0  0
  1  3  1  0  0  0  0
  2  6  1  0  0  0  0
  2  3  1  0  0  0  0
  3  7  1  1  0  0  0
  5  2  1  0  0  0  0
  8 11  1  0  0  0  0
  9  8  2  0  0  0  0
 10 15  1  0  0  0  0
 11 10  2  0  0  0  0
 11 12  1  0  0  0  0
 12 13  2  0  0  0  0
 13 14  1  0  0  0  0
 14 18  1  0  0  0  0
 15 14  2  0  0  0  0
 16 10  1  0  0  0  0
 17 12  1  0  0  0  0
 19  3  1  0  0  0  0
 21 19  1  0  0  0  0
 21 20  2  1  0  0  0
 21 22  1  0  0  0  0
 22 23  1  0  0  0  0
 24 21  1  0  0  0  0
 25 24  1  0  0  0  0
 26 25  1  0  0  0  0
 26 27  1  0  0  0  0
 28 26  2  0  0  0  0
 29 28  1  0  0  0  0
 30 28  1  0  0  0  0
 30 32  1  0  0  0  0
 31 30  1  0  0  0  0
 32 25  2  0  0  0  0
M  END
>  <minimizedAffinity>
-4.90627527

>  <minimizedRMSD>
0.84118104

$$$$
