
 OpenBabel03242518283D

 20 21  0  0  0  0  0  0  0  0999 V2000
   47.0850   34.6140   42.0960 C   0  0  0  0  0  0  0  0  0  0  0  0
   47.7260   34.9340   41.0680 O   0  0  0  0  0  0  0  0  0  0  0  0
   47.0920   33.3680   42.7790 C   0  0  0  0  0  0  0  0  0  0  0  0
   47.0790   33.5030   44.1670 C   0  0  0  0  0  0  0  0  0  0  0  0
   47.0860   32.3120   44.9170 C   0  0  0  0  0  0  0  0  0  0  0  0
   47.1020   31.1190   44.2540 N   0  0  0  0  0  0  0  0  0  0  0  0
   47.1130   31.0600   42.8990 C   0  0  0  0  0  0  0  0  0  0  0  0
   47.1080   32.1910   42.1700 N   0  0  0  0  0  0  0  0  0  0  0  0
   47.0660   34.4250   44.7230 H   0  0  0  0  0  0  0  0  0  0  0  0
   47.0770   32.3100   45.9940 H   0  0  0  0  0  0  0  0  0  0  0  0
   47.1260   30.0480   42.5140 H   0  0  0  0  0  0  0  0  0  0  0  0
   46.2550   35.6010   42.6490 O   0  0  0  0  0  0  0  0  0  0  0  0
   44.8630   35.5110   42.4380 C   0  0  0  0  0  0  0  0  0  0  0  0
   44.1660   35.1980   41.2880 C   0  0  0  0  0  0  0  0  0  0  0  0
   44.6650   34.9700   40.3510 H   0  0  0  0  0  0  0  0  0  0  0  0
   42.8310   35.2530   41.6350 C   0  0  0  0  0  0  0  0  0  0  0  0
   42.0330   35.0480   40.9200 H   0  0  0  0  0  0  0  0  0  0  0  0
   42.7350   35.5890   42.9530 N   0  0  0  0  0  0  0  0  0  0  0  0
   41.7810   35.6710   43.3680 H   0  0  0  0  0  0  0  0  0  0  0  0
   43.9670   35.7470   43.4420 N   0  0  0  0  0  0  0  0  0  0  0  0
  1 12  1  0  0  0  0
  1  3  1  0  0  0  0
  2  1  2  0  0  0  0
  3  4  1  0  0  0  0
  4  9  1  0  0  0  0
  4  5  2  0  0  0  0
  5 10  1  0  0  0  0
  6  5  1  0  0  0  0
  7  6  2  0  0  0  0
  8  3  2  0  0  0  0
  8  7  1  0  0  0  0
 11  7  1  0  0  0  0
 13 12  1  0  0  0  0
 13 20  2  0  0  0  0
 14 16  2  0  0  0  0
 14 13  1  0  0  0  0
 15 14  1  0  0  0  0
 16 18  1  0  0  0  0
 17 16  1  0  0  0  0
 18 19  1  0  0  0  0
 18 20  1  0  0  0  0
M  END
>  <minimizedAffinity>
-3.5797348

>  <minimizedRMSD>
4.26069975

$$$$
