
 OpenBabel03252509073D

 40 43  0  0  0  0  0  0  0  0999 V2000
   47.5260   31.7560   38.9540 C   0  0  0  0  0  0  0  0  0  0  0  0
   47.1400   33.0630   38.9720 C   0  0  0  0  0  0  0  0  0  0  0  0
   47.8250   33.9980   38.2160 C   0  0  0  0  0  0  0  0  0  0  0  0
   48.8950   33.6120   37.4440 C   0  0  0  0  0  0  0  0  0  0  0  0
   49.3210   32.2840   37.3960 C   0  0  0  0  0  0  0  0  0  0  0  0
   48.6120   31.3590   38.1710 C   0  0  0  0  0  0  0  0  0  0  0  0
   47.5640   35.0290   38.1970 H   0  0  0  0  0  0  0  0  0  0  0  0
   49.4990   34.2430   36.8200 H   0  0  0  0  0  0  0  0  0  0  0  0
   50.1360   31.9130   36.8240 H   0  0  0  0  0  0  0  0  0  0  0  0
   48.9180   30.3090   38.1590 H   0  0  0  0  0  0  0  0  0  0  0  0
   45.3860   35.4650   43.1950 Cl  0  0  0  0  0  0  0  0  0  0  0  0
   45.1940   34.6650   41.6510 C   0  0  0  0  0  0  0  0  0  0  0  0
   46.2700   34.2140   40.9580 C   0  0  0  0  0  0  0  0  0  0  0  0
   46.0130   33.5780   39.7540 C   0  0  0  0  0  0  0  0  0  0  0  0
   44.7360   33.4100   39.2780 C   0  0  0  0  0  0  0  0  0  0  0  0
   43.6750   33.8680   39.9860 C   0  0  0  0  0  0  0  0  0  0  0  0
   43.9130   34.5030   41.1880 C   0  0  0  0  0  0  0  0  0  0  0  0
   44.5880   32.9030   38.3230 H   0  0  0  0  0  0  0  0  0  0  0  0
   42.6870   33.7150   39.5740 H   0  0  0  0  0  0  0  0  0  0  0  0
   43.0480   34.8600   41.7360 H   0  0  0  0  0  0  0  0  0  0  0  0
   49.5760   35.7530   41.9230 C   0  0  0  0  0  0  0  0  0  0  0  0
   48.2950   35.5810   41.3870 C   0  0  0  0  0  0  0  0  0  0  0  0
   47.5940   34.4020   41.5070 C   0  0  0  0  0  0  0  0  0  0  0  0
   48.2500   33.4250   42.1890 N   0  0  0  0  0  0  0  0  0  0  0  0
   49.4720   33.5780   42.7040 C   0  0  0  0  0  0  0  0  0  0  0  0
   50.1280   34.7360   42.5710 N   0  0  0  0  0  0  0  0  0  0  0  0
   50.0020   36.7310   41.7500 H   0  0  0  0  0  0  0  0  0  0  0  0
   47.8030   36.3840   40.8490 H   0  0  0  0  0  0  0  0  0  0  0  0
   49.9060   32.7370   43.2290 H   0  0  0  0  0  0  0  0  0  0  0  0
   46.6880   30.5840   39.8270 S   0  0  0  0  0  0  0  0  0  0  0  0
   45.3610   30.2330   39.1900 O   0  0  0  0  0  0  0  0  0  0  0  0
   47.5340   29.2780   39.5970 O   0  0  0  0  0  0  0  0  0  0  0  0
   46.4250   30.6280   41.5250 C   0  0  0  0  0  0  0  0  0  0  0  0
   45.1310   30.9150   42.0310 C   0  0  0  0  0  0  0  0  0  0  0  0
   44.1980   31.1170   41.4630 H   0  0  0  0  0  0  0  0  0  0  0  0
   45.0480   30.9420   43.4020 C   0  0  0  0  0  0  0  0  0  0  0  0
   44.2170   31.1290   44.0430 H   0  0  0  0  0  0  0  0  0  0  0  0
   46.3040   30.6680   43.7470 N   0  0  0  0  0  0  0  0  0  0  0  0
   46.7260   30.5810   44.7200 H   0  0  0  0  0  0  0  0  0  0  0  0
   47.0370   30.5000   42.7150 N   0  0  0  0  0  0  0  0  0  0  0  0
  1  2  1  0  0  0  0
  1 30  1  0  0  0  0
  2 14  1  0  0  0  0
  3  2  2  0  0  0  0
  4  3  1  0  0  0  0
  5  4  2  0  0  0  0
  5  6  1  0  0  0  0
  6  1  2  0  0  0  0
  7  3  1  0  0  0  0
  8  4  1  0  0  0  0
  9  5  1  0  0  0  0
 10  6  1  0  0  0  0
 12 11  1  0  0  0  0
 13 23  1  0  0  0  0
 13 12  2  0  0  0  0
 14 13  1  0  0  0  0
 15 14  2  0  0  0  0
 15 16  1  0  0  0  0
 16 17  2  0  0  0  0
 17 12  1  0  0  0  0
 17 20  1  0  0  0  0
 18 15  1  0  0  0  0
 19 16  1  0  0  0  0
 21 26  1  0  0  0  0
 22 23  1  0  0  0  0
 22 21  2  0  0  0  0
 23 24  2  0  0  0  0
 24 25  1  0  0  0  0
 25 29  1  0  0  0  0
 26 25  2  0  0  0  0
 27 21  1  0  0  0  0
 28 22  1  0  0  0  0
 30 33  1  0  0  0  0
 31 30  2  0  0  0  0
 32 30  2  0  0  0  0
 33 34  1  0  0  0  0
 33 40  2  0  0  0  0
 34 36  2  0  0  0  0
 35 34  1  0  0  0  0
 36 38  1  0  0  0  0
 36 37  1  0  0  0  0
 38 39  1  0  0  0  0
 40 38  1  0  0  0  0
M  END
>  <minimizedAffinity>
-4.67617702

>  <minimizedRMSD>
0.884746253

$$$$
