
 OpenBabel03242512093D

 32 34  0  0  1  0  0  0  0  0999 V2000
   48.0110   34.4170   41.1160 C   0  0  1  0  0  0  0  0  0  0  0  0
   48.7370   35.6960   41.6850 C   0  0  0  0  0  0  0  0  0  0  0  0
   48.9680   34.3440   42.2150 C   0  0  2  0  0  0  0  0  0  0  0  0
   48.3460   34.1780   40.1000 H   0  0  0  0  0  0  0  0  0  0  0  0
   49.4760   36.1660   41.0020 H   0  0  0  0  0  0  0  0  0  0  0  0
   48.0990   36.4060   42.2480 H   0  0  0  0  0  0  0  0  0  0  0  0
   48.4960   33.9040   43.1060 H   0  0  0  0  0  0  0  0  0  0  0  0
   46.5470   34.4440   41.3940 C   0  0  0  0  0  0  0  0  0  0  0  0
   45.7890   34.2190   40.4560 O   0  0  0  0  0  0  0  0  0  0  0  0
   45.3560   35.8800   42.9810 C   0  0  0  0  0  0  0  0  0  0  0  0
   45.9710   34.7120   42.6750 C   0  0  0  0  0  0  0  0  0  0  0  0
   46.0360   33.7180   43.6860 C   0  0  0  0  0  0  0  0  0  0  0  0
   45.4960   33.9470   44.9080 N   0  0  0  0  0  0  0  0  0  0  0  0
   44.8870   35.1390   45.1680 C   0  0  0  0  0  0  0  0  0  0  0  0
   44.8230   36.0690   44.2320 N   0  0  0  0  0  0  0  0  0  0  0  0
   45.3150   36.6230   42.2050 H   0  0  0  0  0  0  0  0  0  0  0  0
   46.4840   32.7680   43.5710 H   0  0  0  0  0  0  0  0  0  0  0  0
   44.4420   35.3740   46.1190 H   0  0  0  0  0  0  0  0  0  0  0  0
   50.2610   33.8760   41.9960 O   0  0  0  0  0  0  0  0  0  0  0  0
   48.9760   31.8840   43.0210 O   0  0  0  0  0  0  0  0  0  0  0  0
   50.1950   32.1850   42.1660 P   0  0  2  0  0  0  0  0  0  0  0  0
   51.5720   31.5160   42.8130 O   0  0  0  0  0  0  0  0  0  0  0  0
   52.3650   32.0740   42.6890 H   0  0  0  0  0  0  0  0  0  0  0  0
   49.8230   31.5170   40.6180 O   0  0  0  0  0  0  0  0  0  0  0  0
   50.7410   31.6140   39.5690 C   0  0  0  0  0  0  0  0  0  0  0  0
   52.0730   31.3740   39.2840 C   0  0  0  0  0  0  0  0  0  0  0  0
   52.6310   30.9800   40.1240 H   0  0  0  0  0  0  0  0  0  0  0  0
   52.2640   31.7370   37.9470 C   0  0  0  0  0  0  0  0  0  0  0  0
   53.2600   31.6090   37.5660 H   0  0  0  0  0  0  0  0  0  0  0  0
   51.0780   32.1710   37.4800 N   0  0  0  0  0  0  0  0  0  0  0  0
   51.0870   32.4750   36.4810 H   0  0  0  0  0  0  0  0  0  0  0  0
   50.1700   32.1010   38.4360 N   0  0  0  0  0  0  0  0  0  0  0  0
  1  4  1  6  0  0  0
  1  8  1  0  0  0  0
  1  2  1  0  0  0  0
  1  3  1  0  0  0  0
  2  3  1  0  0  0  0
  2  6  1  0  0  0  0
  3  7  1  1  0  0  0
  5  2  1  0  0  0  0
  8 11  1  0  0  0  0
  9  8  2  0  0  0  0
 10 15  1  0  0  0  0
 11 10  2  0  0  0  0
 11 12  1  0  0  0  0
 12 13  2  0  0  0  0
 13 14  1  0  0  0  0
 14 18  1  0  0  0  0
 15 14  2  0  0  0  0
 16 10  1  0  0  0  0
 17 12  1  0  0  0  0
 19 21  1  0  0  0  0
 19  3  1  0  0  0  0
 21 22  1  0  0  0  0
 21 20  2  1  0  0  0
 23 22  1  0  0  0  0
 24 21  1  0  0  0  0
 25 24  1  0  0  0  0
 26 25  1  0  0  0  0
 26 27  1  0  0  0  0
 28 26  2  0  0  0  0
 29 28  1  0  0  0  0
 30 28  1  0  0  0  0
 30 32  1  0  0  0  0
 31 30  1  0  0  0  0
 32 25  2  0  0  0  0
M  END
>  <minimizedAffinity>
-5.15147305

>  <minimizedRMSD>
0.696912646

$$$$
