
 OpenBabel03252509313D

 26 27  0  0  0  0  0  0  0  0999 V2000
   48.3310   33.6330   43.2180 O   0  0  0  0  0  0  0  0  0  0  0  0
   46.9820   33.4310   42.9300 C   0  0  0  0  0  0  0  0  0  0  0  0
   46.7170   33.6980   41.8920 H   0  0  0  0  0  0  0  0  0  0  0  0
   46.8140   32.3340   43.0510 H   0  0  0  0  0  0  0  0  0  0  0  0
   45.1020   34.2930   46.0310 C   0  0  0  0  0  0  0  0  0  0  0  0
   45.9470   33.5910   45.1380 C   0  0  0  0  0  0  0  0  0  0  0  0
   46.1190   34.1290   43.8720 C   0  0  0  0  0  0  0  0  0  0  0  0
   45.4720   35.2950   43.5570 N   0  0  0  0  0  0  0  0  0  0  0  0
   44.6690   35.9400   44.4400 C   0  0  0  0  0  0  0  0  0  0  0  0
   44.4890   35.4380   45.6670 N   0  0  0  0  0  0  0  0  0  0  0  0
   44.9110   33.9420   47.0410 H   0  0  0  0  0  0  0  0  0  0  0  0
   46.4090   32.6780   45.4890 H   0  0  0  0  0  0  0  0  0  0  0  0
   44.2470   36.8410   44.0130 H   0  0  0  0  0  0  0  0  0  0  0  0
   50.4010   32.9930   41.7610 O   0  0  0  0  0  0  0  0  0  0  0  0
   49.1300   33.7970   41.7250 P   0  0  2  0  0  0  0  0  0  0  0  0
   49.4000   35.4370   41.4920 O   0  0  0  0  0  0  0  0  0  0  0  0
   48.7670   36.0180   41.9580 H   0  0  0  0  0  0  0  0  0  0  0  0
   48.1310   33.1550   40.5380 O   0  0  0  0  0  0  0  0  0  0  0  0
   48.4010   33.3490   39.1880 C   0  0  0  0  0  0  0  0  0  0  0  0
   48.6400   32.6690   37.9980 C   0  0  0  0  0  0  0  0  0  0  0  0
   48.6120   31.5880   38.1420 H   0  0  0  0  0  0  0  0  0  0  0  0
   48.8350   33.6280   37.0200 C   0  0  0  0  0  0  0  0  0  0  0  0
   49.0330   33.2320   36.0320 H   0  0  0  0  0  0  0  0  0  0  0  0
   48.7180   34.8500   37.5990 N   0  0  0  0  0  0  0  0  0  0  0  0
   48.8360   35.6880   37.0070 H   0  0  0  0  0  0  0  0  0  0  0  0
   48.4580   34.6810   38.8990 N   0  0  0  0  0  0  0  0  0  0  0  0
  2  4  1  0  0  0  0
  2  1  1  0  0  0  0
  2  7  1  0  0  0  0
  3  2  1  0  0  0  0
  5 11  1  0  0  0  0
  6 12  1  0  0  0  0
  6  5  2  0  0  0  0
  7  6  1  0  0  0  0
  8  7  2  0  0  0  0
  8  9  1  0  0  0  0
  9 10  2  0  0  0  0
 10  5  1  0  0  0  0
 13  9  1  0  0  0  0
 15 14  2  1  0  0  0
 15  1  1  0  0  0  0
 16 15  1  0  0  0  0
 16 17  1  0  0  0  0
 18 15  1  0  0  0  0
 19 18  1  0  0  0  0
 20 21  1  0  0  0  0
 20 19  1  0  0  0  0
 22 24  1  0  0  0  0
 22 20  2  0  0  0  0
 23 22  1  0  0  0  0
 24 26  1  0  0  0  0
 25 24  1  0  0  0  0
 26 19  2  0  0  0  0
M  END
>  <minimizedAffinity>
-4.44924545

>  <minimizedRMSD>
2.46108747

$$$$
