
 OpenBabel03252508443D

 38 40  0  0  0  0  0  0  0  0999 V2000
   36.9420   30.6700   38.5240 C   0  0  0  0  0  0  0  0  0  0  0  0
   36.0480   29.9010   39.2620 C   0  0  0  0  0  0  0  0  0  0  0  0
   35.3070   28.9470   38.6000 C   0  0  0  0  0  0  0  0  0  0  0  0
   35.4490   28.7680   37.2530 C   0  0  0  0  0  0  0  0  0  0  0  0
   36.3240   29.5140   36.5010 C   0  0  0  0  0  0  0  0  0  0  0  0
   37.0520   30.4620   37.2030 C   0  0  0  0  0  0  0  0  0  0  0  0
   34.6000   28.3220   39.1140 H   0  0  0  0  0  0  0  0  0  0  0  0
   34.8560   28.0120   36.7460 H   0  0  0  0  0  0  0  0  0  0  0  0
   36.4270   29.3610   35.4350 H   0  0  0  0  0  0  0  0  0  0  0  0
   37.7510   31.0610   36.6170 H   0  0  0  0  0  0  0  0  0  0  0  0
   38.1400   33.8770   40.1280 C   0  0  0  0  0  0  0  0  0  0  0  0
   37.3390   32.9840   39.3920 C   0  0  0  0  0  0  0  0  0  0  0  0
   37.7060   31.6640   39.2640 C   0  0  0  0  0  0  0  0  0  0  0  0
   38.8570   31.2780   39.8740 N   0  0  0  0  0  0  0  0  0  0  0  0
   39.6310   32.1330   40.5820 C   0  0  0  0  0  0  0  0  0  0  0  0
   39.2720   33.4200   40.7060 N   0  0  0  0  0  0  0  0  0  0  0  0
   37.7200   34.8580   40.1300 H   0  0  0  0  0  0  0  0  0  0  0  0
   36.4220   33.2520   38.8960 H   0  0  0  0  0  0  0  0  0  0  0  0
   40.5440   31.8290   41.0670 H   0  0  0  0  0  0  0  0  0  0  0  0
   35.9050   30.1070   40.7230 C   0  0  0  0  0  0  0  0  0  0  0  0
   36.8500   30.6200   41.0590 H   0  0  0  0  0  0  0  0  0  0  0  0
   35.0920   30.8320   40.9760 H   0  0  0  0  0  0  0  0  0  0  0  0
   35.8060   28.9150   41.4910 N   0  0  0  0  0  0  0  0  0  0  0  0
   35.0330   28.8980   42.1860 H   0  0  0  0  0  0  0  0  0  0  0  0
   37.2360   28.5820   42.3970 S   0  0  0  0  0  0  0  0  0  0  0  0
   37.2480   29.3450   43.6780 O   0  0  0  0  0  0  0  0  0  0  0  0
   36.5870   29.3360   44.4150 H   0  0  0  0  0  0  0  0  0  0  0  0
   38.4620   28.8550   41.6010 O   0  0  0  0  0  0  0  0  0  0  0  0
   39.0880   29.6070   41.6980 H   0  0  0  0  0  0  0  0  0  0  0  0
   37.1680   26.9230   42.7390 O   0  0  0  0  0  0  0  0  0  0  0  0
   37.0220   26.0030   41.7400 C   0  0  0  0  0  0  0  0  0  0  0  0
   36.9130   24.6460   42.0120 C   0  0  0  0  0  0  0  0  0  0  0  0
   36.9230   24.1380   42.9750 H   0  0  0  0  0  0  0  0  0  0  0  0
   36.7780   23.9820   40.8060 C   0  0  0  0  0  0  0  0  0  0  0  0
   36.6660   22.9200   40.6030 H   0  0  0  0  0  0  0  0  0  0  0  0
   36.8150   24.9670   39.8960 N   0  0  0  0  0  0  0  0  0  0  0  0
   36.7360   24.8050   38.8560 H   0  0  0  0  0  0  0  0  0  0  0  0
   36.9570   26.1620   40.4170 N   0  0  0  0  0  0  0  0  0  0  0  0
  1  2  1  0  0  0  0
  1 13  1  0  0  0  0
  2 20  1  0  0  0  0
  3  7  1  0  0  0  0
  3  2  2  0  0  0  0
  4  3  1  0  0  0  0
  5  6  1  0  0  0  0
  5  4  2  0  0  0  0
  6  1  2  0  0  0  0
  8  4  1  0  0  0  0
  9  5  1  0  0  0  0
 10  6  1  0  0  0  0
 11 17  1  0  0  0  0
 11 16  1  0  0  0  0
 12 11  2  0  0  0  0
 13 12  1  0  0  0  0
 13 14  2  0  0  0  0
 14 15  1  0  0  0  0
 15 16  2  0  0  0  0
 15 19  1  0  0  0  0
 18 12  1  0  0  0  0
 20 22  1  0  0  0  0
 20 21  1  0  0  0  0
 20 23  1  0  0  0  0
 23 24  1  0  0  0  0
 23 25  1  0  0  0  0
 25 30  1  0  0  0  0
 25 26  1  0  0  0  0
 26 27  1  0  0  0  0
 28 29  1  0  0  0  0
 28 25  1  0  0  0  0
 31 32  1  0  0  0  0
 31 30  1  0  0  0  0
 32 33  1  0  0  0  0
 34 32  2  0  0  0  0
 35 34  1  0  0  0  0
 36 38  1  0  0  0  0
 36 34  1  0  0  0  0
 37 36  1  0  0  0  0
 38 31  2  0  0  0  0
M  END
>  <minimizedAffinity>
-5.85656404

$$$$

 OpenBabel03252508443D

 38 40  0  0  0  0  0  0  0  0999 V2000
   36.6760   28.3820   40.0110 C   0  0  0  0  0  0  0  0  0  0  0  0
   36.7770   29.7210   39.6470 C   0  0  0  0  0  0  0  0  0  0  0  0
   36.2230   30.1150   38.4490 C   0  0  0  0  0  0  0  0  0  0  0  0
   35.5930   29.2090   37.6430 C   0  0  0  0  0  0  0  0  0  0  0  0
   35.4780   27.8830   37.9790 C   0  0  0  0  0  0  0  0  0  0  0  0
   36.0470   27.5240   39.1910 C   0  0  0  0  0  0  0  0  0  0  0  0
   36.2690   31.1350   38.1120 H   0  0  0  0  0  0  0  0  0  0  0  0
   35.1610   29.5370   36.7020 H   0  0  0  0  0  0  0  0  0  0  0  0
   34.9750   27.1760   37.3330 H   0  0  0  0  0  0  0  0  0  0  0  0
   35.9630   26.4730   39.4700 H   0  0  0  0  0  0  0  0  0  0  0  0
   37.2600   27.6350   43.6700 C   0  0  0  0  0  0  0  0  0  0  0  0
   36.6010   28.0100   42.4850 C   0  0  0  0  0  0  0  0  0  0  0  0
   37.2740   28.0100   41.2850 C   0  0  0  0  0  0  0  0  0  0  0  0
   38.5790   27.6360   41.3050 N   0  0  0  0  0  0  0  0  0  0  0  0
   39.2180   27.2740   42.4430 C   0  0  0  0  0  0  0  0  0  0  0  0
   38.5600   27.2750   43.6120 N   0  0  0  0  0  0  0  0  0  0  0  0
   36.6030   27.6890   44.5090 H   0  0  0  0  0  0  0  0  0  0  0  0
   35.5680   28.3120   42.4280 H   0  0  0  0  0  0  0  0  0  0  0  0
   40.2530   26.9760   42.4620 H   0  0  0  0  0  0  0  0  0  0  0  0
   37.4650   30.6910   40.5310 C   0  0  0  0  0  0  0  0  0  0  0  0
   37.4530   30.2350   41.5610 H   0  0  0  0  0  0  0  0  0  0  0  0
   38.5510   30.7980   40.2880 H   0  0  0  0  0  0  0  0  0  0  0  0
   36.8240   31.9550   40.6490 N   0  0  0  0  0  0  0  0  0  0  0  0
   35.8950   32.0260   40.1910 H   0  0  0  0  0  0  0  0  0  0  0  0
   37.7580   33.2430   39.9810 S   0  0  0  0  0  0  0  0  0  0  0  0
   38.4120   34.0440   41.0550 O   0  0  0  0  0  0  0  0  0  0  0  0
   39.0360   33.7440   41.7620 H   0  0  0  0  0  0  0  0  0  0  0  0
   36.9360   34.1090   39.0940 O   0  0  0  0  0  0  0  0  0  0  0  0
   36.6020   35.0160   39.2780 H   0  0  0  0  0  0  0  0  0  0  0  0
   38.9530   32.4870   39.0470 O   0  0  0  0  0  0  0  0  0  0  0  0
   40.1790   33.0630   38.8710 C   0  0  0  0  0  0  0  0  0  0  0  0
   40.9350   32.8300   37.7300 C   0  0  0  0  0  0  0  0  0  0  0  0
   40.6980   32.2090   36.8670 H   0  0  0  0  0  0  0  0  0  0  0  0
   42.1130   33.5460   37.8480 C   0  0  0  0  0  0  0  0  0  0  0  0
   42.9540   33.6220   37.1650 H   0  0  0  0  0  0  0  0  0  0  0  0
   41.9940   34.1560   39.0370 N   0  0  0  0  0  0  0  0  0  0  0  0
   42.7310   34.7930   39.4430 H   0  0  0  0  0  0  0  0  0  0  0  0
   40.8700   33.8900   39.6580 N   0  0  0  0  0  0  0  0  0  0  0  0
  1 13  1  0  0  0  0
  2  1  1  0  0  0  0
  2 20  1  0  0  0  0
  3  2  2  0  0  0  0
  4  5  2  0  0  0  0
  4  3  1  0  0  0  0
  5  6  1  0  0  0  0
  6 10  1  0  0  0  0
  6  1  2  0  0  0  0
  7  3  1  0  0  0  0
  8  4  1  0  0  0  0
  9  5  1  0  0  0  0
 11 17  1  0  0  0  0
 12 11  2  0  0  0  0
 13 14  2  0  0  0  0
 13 12  1  0  0  0  0
 14 15  1  0  0  0  0
 15 19  1  0  0  0  0
 15 16  2  0  0  0  0
 16 11  1  0  0  0  0
 18 12  1  0  0  0  0
 20 23  1  0  0  0  0
 20 21  1  0  0  0  0
 22 20  1  0  0  0  0
 24 23  1  0  0  0  0
 25 23  1  0  0  0  0
 25 26  1  0  0  0  0
 26 27  1  0  0  0  0
 28 29  1  0  0  0  0
 28 25  1  0  0  0  0
 30 25  1  0  0  0  0
 31 30  1  0  0  0  0
 31 38  2  0  0  0  0
 32 34  2  0  0  0  0
 32 31  1  0  0  0  0
 33 32  1  0  0  0  0
 34 36  1  0  0  0  0
 35 34  1  0  0  0  0
 36 37  1  0  0  0  0
 36 38  1  0  0  0  0
M  END
>  <minimizedAffinity>
-5.78244543

$$$$

 OpenBabel03252508443D

 38 40  0  0  0  0  0  0  0  0999 V2000
   38.3730   25.6910   41.7890 C   0  0  0  0  0  0  0  0  0  0  0  0
   37.9520   26.8200   42.4840 C   0  0  0  0  0  0  0  0  0  0  0  0
   38.7960   27.3550   43.4320 C   0  0  0  0  0  0  0  0  0  0  0  0
   40.0130   26.7860   43.6800 C   0  0  0  0  0  0  0  0  0  0  0  0
   40.4540   25.6720   43.0070 C   0  0  0  0  0  0  0  0  0  0  0  0
   39.5770   25.1630   42.0620 C   0  0  0  0  0  0  0  0  0  0  0  0
   38.5270   28.2260   44.0020 H   0  0  0  0  0  0  0  0  0  0  0  0
   40.6660   27.2210   44.4310 H   0  0  0  0  0  0  0  0  0  0  0  0
   41.4200   25.2320   43.2120 H   0  0  0  0  0  0  0  0  0  0  0  0
   39.9150   24.2790   41.5200 H   0  0  0  0  0  0  0  0  0  0  0  0
   35.7660   23.6330   39.9860 C   0  0  0  0  0  0  0  0  0  0  0  0
   36.6270   24.0790   41.0050 C   0  0  0  0  0  0  0  0  0  0  0  0
   37.4510   25.1600   40.7960 C   0  0  0  0  0  0  0  0  0  0  0  0
   37.3890   25.7620   39.5790 N   0  0  0  0  0  0  0  0  0  0  0  0
   36.5620   25.3370   38.5960 C   0  0  0  0  0  0  0  0  0  0  0  0
   35.7590   24.2810   38.8010 N   0  0  0  0  0  0  0  0  0  0  0  0
   35.1970   22.7880   40.3050 H   0  0  0  0  0  0  0  0  0  0  0  0
   36.7050   23.6290   41.9810 H   0  0  0  0  0  0  0  0  0  0  0  0
   36.5100   25.8120   37.6300 H   0  0  0  0  0  0  0  0  0  0  0  0
   36.6280   27.4250   42.2050 C   0  0  0  0  0  0  0  0  0  0  0  0
   36.4700   27.3290   41.0940 H   0  0  0  0  0  0  0  0  0  0  0  0
   35.7860   26.8430   42.6560 H   0  0  0  0  0  0  0  0  0  0  0  0
   36.5270   28.8120   42.5010 N   0  0  0  0  0  0  0  0  0  0  0  0
   35.7370   29.0770   43.1210 H   0  0  0  0  0  0  0  0  0  0  0  0
   36.3410   29.7860   41.0900 S   0  0  0  0  0  0  0  0  0  0  0  0
   35.7280   31.1030   41.4250 O   0  0  0  0  0  0  0  0  0  0  0  0
   36.0480   31.7960   42.0550 H   0  0  0  0  0  0  0  0  0  0  0  0
   35.5550   29.0830   40.0420 O   0  0  0  0  0  0  0  0  0  0  0  0
   34.6270   29.2570   39.7650 H   0  0  0  0  0  0  0  0  0  0  0  0
   37.9140   30.0360   40.5120 O   0  0  0  0  0  0  0  0  0  0  0  0
   38.4900   31.2750   40.5480 C   0  0  0  0  0  0  0  0  0  0  0  0
   38.5340   32.0900   39.4250 C   0  0  0  0  0  0  0  0  0  0  0  0
   38.1530   31.8950   38.4230 H   0  0  0  0  0  0  0  0  0  0  0  0
   39.1720   33.2650   39.7780 C   0  0  0  0  0  0  0  0  0  0  0  0
   39.3980   34.1430   39.1800 H   0  0  0  0  0  0  0  0  0  0  0  0
   39.4690   33.0870   41.0750 N   0  0  0  0  0  0  0  0  0  0  0  0
   39.9680   33.8060   41.6640 H   0  0  0  0  0  0  0  0  0  0  0  0
   39.0800   31.9290   41.5510 N   0  0  0  0  0  0  0  0  0  0  0  0
  1  6  2  0  0  0  0
  1  2  1  0  0  0  0
  2  3  2  0  0  0  0
  3  4  1  0  0  0  0
  3  7  1  0  0  0  0
  4  8  1  0  0  0  0
  5  9  1  0  0  0  0
  5  4  2  0  0  0  0
  6  5  1  0  0  0  0
 10  6  1  0  0  0  0
 11 17  1  0  0  0  0
 11 12  1  0  0  0  0
 12 18  1  0  0  0  0
 13 12  2  0  0  0  0
 13  1  1  0  0  0  0
 14 13  1  0  0  0  0
 15 16  1  0  0  0  0
 15 14  2  0  0  0  0
 16 11  2  0  0  0  0
 19 15  1  0  0  0  0
 20  2  1  0  0  0  0
 20 23  1  0  0  0  0
 20 22  1  0  0  0  0
 21 20  1  0  0  0  0
 23 24  1  0  0  0  0
 25 26  1  0  0  0  0
 25 23  1  0  0  0  0
 26 27  1  0  0  0  0
 28 25  1  0  0  0  0
 29 28  1  0  0  0  0
 30 31  1  0  0  0  0
 30 25  1  0  0  0  0
 31 38  2  0  0  0  0
 32 34  2  0  0  0  0
 32 31  1  0  0  0  0
 33 32  1  0  0  0  0
 34 36  1  0  0  0  0
 35 34  1  0  0  0  0
 36 38  1  0  0  0  0
 36 37  1  0  0  0  0
M  END
>  <minimizedAffinity>
-5.72068262

$$$$

 OpenBabel03252508443D

 38 40  0  0  0  0  0  0  0  0999 V2000
   36.5650   27.1510   40.2290 C   0  0  0  0  0  0  0  0  0  0  0  0
   36.2110   28.1960   41.0750 C   0  0  0  0  0  0  0  0  0  0  0  0
   35.3560   29.1640   40.5950 C   0  0  0  0  0  0  0  0  0  0  0  0
   34.8740   29.0940   39.3190 C   0  0  0  0  0  0  0  0  0  0  0  0
   35.2060   28.0720   38.4630 C   0  0  0  0  0  0  0  0  0  0  0  0
   36.0680   27.1180   38.9820 C   0  0  0  0  0  0  0  0  0  0  0  0
   35.0460   29.9960   41.2000 H   0  0  0  0  0  0  0  0  0  0  0  0
   34.2010   29.8650   38.9560 H   0  0  0  0  0  0  0  0  0  0  0  0
   34.8170   28.0280   37.4550 H   0  0  0  0  0  0  0  0  0  0  0  0
   36.3400   26.3010   38.3130 H   0  0  0  0  0  0  0  0  0  0  0  0
   38.0060   24.1400   42.0030 C   0  0  0  0  0  0  0  0  0  0  0  0
   37.0620   25.0580   41.5100 C   0  0  0  0  0  0  0  0  0  0  0  0
   37.4680   26.1500   40.7780 C   0  0  0  0  0  0  0  0  0  0  0  0
   38.8020   26.2900   40.5610 N   0  0  0  0  0  0  0  0  0  0  0  0
   39.7150   25.4090   41.0340 C   0  0  0  0  0  0  0  0  0  0  0  0
   39.3170   24.3460   41.7480 N   0  0  0  0  0  0  0  0  0  0  0  0
   37.5320   23.3550   42.5480 H   0  0  0  0  0  0  0  0  0  0  0  0
   35.9970   24.9820   41.6600 H   0  0  0  0  0  0  0  0  0  0  0  0
   40.7740   25.5170   40.8630 H   0  0  0  0  0  0  0  0  0  0  0  0
   36.7430   28.2590   42.4570 C   0  0  0  0  0  0  0  0  0  0  0  0
   35.8640   28.0730   43.1380 H   0  0  0  0  0  0  0  0  0  0  0  0
   37.4500   27.4230   42.6830 H   0  0  0  0  0  0  0  0  0  0  0  0
   37.2800   29.5200   42.8370 N   0  0  0  0  0  0  0  0  0  0  0  0
   36.7900   30.3470   42.4450 H   0  0  0  0  0  0  0  0  0  0  0  0
   38.9310   29.7100   42.3760 S   0  0  0  0  0  0  0  0  0  0  0  0
   39.6940   28.4450   42.5810 O   0  0  0  0  0  0  0  0  0  0  0  0
   39.5250   27.5480   42.2000 H   0  0  0  0  0  0  0  0  0  0  0  0
   39.5720   30.8420   43.0970 O   0  0  0  0  0  0  0  0  0  0  0  0
   40.2260   30.7980   43.8300 H   0  0  0  0  0  0  0  0  0  0  0  0
   38.8910   30.0730   40.7210 O   0  0  0  0  0  0  0  0  0  0  0  0
   38.1820   31.1420   40.2510 C   0  0  0  0  0  0  0  0  0  0  0  0
   37.9440   31.3160   38.8940 C   0  0  0  0  0  0  0  0  0  0  0  0
   38.2540   30.6890   38.0590 H   0  0  0  0  0  0  0  0  0  0  0  0
   37.2080   32.4770   38.7390 C   0  0  0  0  0  0  0  0  0  0  0  0
   36.8290   32.9470   37.8360 H   0  0  0  0  0  0  0  0  0  0  0  0
   37.0510   32.9230   39.9950 N   0  0  0  0  0  0  0  0  0  0  0  0
   36.5260   33.8050   40.2410 H   0  0  0  0  0  0  0  0  0  0  0  0
   37.6120   32.1580   40.9010 N   0  0  0  0  0  0  0  0  0  0  0  0
  1 13  1  0  0  0  0
  1  2  1  0  0  0  0
  2 20  1  0  0  0  0
  3  2  2  0  0  0  0
  3  7  1  0  0  0  0
  4  3  1  0  0  0  0
  5  6  1  0  0  0  0
  5  4  2  0  0  0  0
  6  1  2  0  0  0  0
  8  4  1  0  0  0  0
  9  5  1  0  0  0  0
 10  6  1  0  0  0  0
 11 17  1  0  0  0  0
 12 18  1  0  0  0  0
 12 11  2  0  0  0  0
 13 12  1  0  0  0  0
 14 13  2  0  0  0  0
 14 15  1  0  0  0  0
 15 16  2  0  0  0  0
 16 11  1  0  0  0  0
 19 15  1  0  0  0  0
 20 22  1  0  0  0  0
 20 23  1  0  0  0  0
 20 21  1  0  0  0  0
 24 23  1  0  0  0  0
 25 26  1  0  0  0  0
 25 23  1  0  0  0  0
 25 28  1  0  0  0  0
 27 26  1  0  0  0  0
 28 29  1  0  0  0  0
 30 25  1  0  0  0  0
 31 30  1  0  0  0  0
 31 38  2  0  0  0  0
 32 31  1  0  0  0  0
 33 32  1  0  0  0  0
 34 32  2  0  0  0  0
 34 36  1  0  0  0  0
 35 34  1  0  0  0  0
 36 37  1  0  0  0  0
 36 38  1  0  0  0  0
M  END
>  <minimizedAffinity>
-5.56852341

$$$$

 OpenBabel03252508443D

 38 40  0  0  0  0  0  0  0  0999 V2000
   36.9850   30.5610   38.3640 C   0  0  0  0  0  0  0  0  0  0  0  0
   36.6870   30.2320   39.6820 C   0  0  0  0  0  0  0  0  0  0  0  0
   36.7580   31.2260   40.6340 C   0  0  0  0  0  0  0  0  0  0  0  0
   37.1140   32.4970   40.2860 C   0  0  0  0  0  0  0  0  0  0  0  0
   37.4130   32.8490   38.9930 C   0  0  0  0  0  0  0  0  0  0  0  0
   37.3300   31.8230   38.0640 C   0  0  0  0  0  0  0  0  0  0  0  0
   36.5400   31.0340   41.6690 H   0  0  0  0  0  0  0  0  0  0  0  0
   37.1660   33.2690   41.0500 H   0  0  0  0  0  0  0  0  0  0  0  0
   37.6930   33.8600   38.7300 H   0  0  0  0  0  0  0  0  0  0  0  0
   37.5650   32.0890   37.0320 H   0  0  0  0  0  0  0  0  0  0  0  0
   35.7450   28.0610   35.8140 C   0  0  0  0  0  0  0  0  0  0  0  0
   35.7390   29.1190   36.7410 C   0  0  0  0  0  0  0  0  0  0  0  0
   36.8960   29.4820   37.3910 C   0  0  0  0  0  0  0  0  0  0  0  0
   38.0200   28.7780   37.0960 N   0  0  0  0  0  0  0  0  0  0  0  0
   38.0310   27.7590   36.2050 C   0  0  0  0  0  0  0  0  0  0  0  0
   36.9020   27.4070   35.5720 N   0  0  0  0  0  0  0  0  0  0  0  0
   34.7740   27.9060   35.4000 H   0  0  0  0  0  0  0  0  0  0  0  0
   34.8700   29.7000   37.0010 H   0  0  0  0  0  0  0  0  0  0  0  0
   38.9210   27.1990   35.9690 H   0  0  0  0  0  0  0  0  0  0  0  0
   36.3030   28.8480   40.0440 C   0  0  0  0  0  0  0  0  0  0  0  0
   35.4350   28.5810   39.3770 H   0  0  0  0  0  0  0  0  0  0  0  0
   37.0930   28.1000   39.7820 H   0  0  0  0  0  0  0  0  0  0  0  0
   35.8430   28.6810   41.3790 N   0  0  0  0  0  0  0  0  0  0  0  0
   35.4620   29.5370   41.8270 H   0  0  0  0  0  0  0  0  0  0  0  0
   37.0770   28.1230   42.4480 S   0  0  0  0  0  0  0  0  0  0  0  0
   37.1380   28.9600   43.6800 O   0  0  0  0  0  0  0  0  0  0  0  0
   36.4270   29.1470   44.3420 H   0  0  0  0  0  0  0  0  0  0  0  0
   38.4010   28.0700   41.7720 O   0  0  0  0  0  0  0  0  0  0  0  0
   39.1640   28.6780   41.8930 H   0  0  0  0  0  0  0  0  0  0  0  0
   36.6190   26.5470   42.8700 O   0  0  0  0  0  0  0  0  0  0  0  0
   37.3020   25.4630   42.3940 C   0  0  0  0  0  0  0  0  0  0  0  0
   36.7130   24.5610   41.5180 C   0  0  0  0  0  0  0  0  0  0  0  0
   35.7060   24.5670   41.1040 H   0  0  0  0  0  0  0  0  0  0  0  0
   37.6480   23.5850   41.2220 C   0  0  0  0  0  0  0  0  0  0  0  0
   37.5680   22.7150   40.5780 H   0  0  0  0  0  0  0  0  0  0  0  0
   38.7270   23.9560   41.9290 N   0  0  0  0  0  0  0  0  0  0  0  0
   39.6370   23.4210   41.9310 H   0  0  0  0  0  0  0  0  0  0  0  0
   38.5500   25.0540   42.6250 N   0  0  0  0  0  0  0  0  0  0  0  0
  1  2  1  0  0  0  0
  2 20  1  0  0  0  0
  2  3  2  0  0  0  0
  3  7  1  0  0  0  0
  4  3  1  0  0  0  0
  4  8  1  0  0  0  0
  5  4  2  0  0  0  0
  6  1  2  0  0  0  0
  6  5  1  0  0  0  0
  9  5  1  0  0  0  0
 10  6  1  0  0  0  0
 11 12  1  0  0  0  0
 12 18  1  0  0  0  0
 12 13  2  0  0  0  0
 13  1  1  0  0  0  0
 14 13  1  0  0  0  0
 15 14  2  0  0  0  0
 16 11  2  0  0  0  0
 16 15  1  0  0  0  0
 17 11  1  0  0  0  0
 19 15  1  0  0  0  0
 20 23  1  0  0  0  0
 21 20  1  0  0  0  0
 22 20  1  0  0  0  0
 23 24  1  0  0  0  0
 23 25  1  0  0  0  0
 25 30  1  0  0  0  0
 25 26  1  0  0  0  0
 26 27  1  0  0  0  0
 28 29  1  0  0  0  0
 28 25  1  0  0  0  0
 31 38  2  0  0  0  0
 31 30  1  0  0  0  0
 32 31  1  0  0  0  0
 33 32  1  0  0  0  0
 34 32  2  0  0  0  0
 34 36  1  0  0  0  0
 35 34  1  0  0  0  0
 36 37  1  0  0  0  0
 36 38  1  0  0  0  0
M  END
>  <minimizedAffinity>
-5.56148481

$$$$

 OpenBabel03252508443D

 38 40  0  0  0  0  0  0  0  0999 V2000
   34.9570   29.1170   38.3230 C   0  0  0  0  0  0  0  0  0  0  0  0
   35.7580   29.1530   37.1860 C   0  0  0  0  0  0  0  0  0  0  0  0
   35.1520   29.0140   35.9560 C   0  0  0  0  0  0  0  0  0  0  0  0
   33.8000   28.8440   35.8630 C   0  0  0  0  0  0  0  0  0  0  0  0
   32.9860   28.8060   36.9690 C   0  0  0  0  0  0  0  0  0  0  0  0
   33.6320   28.9490   38.1870 C   0  0  0  0  0  0  0  0  0  0  0  0
   35.7160   29.0340   35.0420 H   0  0  0  0  0  0  0  0  0  0  0  0
   33.3380   28.7370   34.8860 H   0  0  0  0  0  0  0  0  0  0  0  0
   31.9160   28.6720   36.8820 H   0  0  0  0  0  0  0  0  0  0  0  0
   32.9970   28.9200   39.0740 H   0  0  0  0  0  0  0  0  0  0  0  0
   36.7350   28.4590   41.5930 C   0  0  0  0  0  0  0  0  0  0  0  0
   36.0860   28.2190   40.3680 C   0  0  0  0  0  0  0  0  0  0  0  0
   35.6380   29.2680   39.6000 C   0  0  0  0  0  0  0  0  0  0  0  0
   35.8530   30.5220   40.0770 N   0  0  0  0  0  0  0  0  0  0  0  0
   36.4780   30.7590   41.2550 C   0  0  0  0  0  0  0  0  0  0  0  0
   36.9130   29.7330   42.0030 N   0  0  0  0  0  0  0  0  0  0  0  0
   37.0180   27.5440   42.0650 H   0  0  0  0  0  0  0  0  0  0  0  0
   35.8970   27.2410   39.9570 H   0  0  0  0  0  0  0  0  0  0  0  0
   36.6510   31.7520   41.6350 H   0  0  0  0  0  0  0  0  0  0  0  0
   37.2240   29.3370   37.3030 C   0  0  0  0  0  0  0  0  0  0  0  0
   37.4200   29.5860   38.3840 H   0  0  0  0  0  0  0  0  0  0  0  0
   37.7910   28.3890   37.1300 H   0  0  0  0  0  0  0  0  0  0  0  0
   37.7570   30.4150   36.5440 N   0  0  0  0  0  0  0  0  0  0  0  0
   38.4490   30.1460   35.8180 H   0  0  0  0  0  0  0  0  0  0  0  0
   38.5590   31.5890   37.5220 S   0  0  0  0  0  0  0  0  0  0  0  0
   37.5760   32.4480   38.2420 O   0  0  0  0  0  0  0  0  0  0  0  0
   36.8590   32.1820   38.8690 H   0  0  0  0  0  0  0  0  0  0  0  0
   39.5020   32.4130   36.7200 O   0  0  0  0  0  0  0  0  0  0  0  0
   39.3940   33.3480   36.4360 H   0  0  0  0  0  0  0  0  0  0  0  0
   39.4460   30.6920   38.6530 O   0  0  0  0  0  0  0  0  0  0  0  0
   39.7200   31.1960   39.8940 C   0  0  0  0  0  0  0  0  0  0  0  0
   40.2270   30.3950   40.9080 C   0  0  0  0  0  0  0  0  0  0  0  0
   40.4680   29.3330   40.8860 H   0  0  0  0  0  0  0  0  0  0  0  0
   40.3950   31.1880   42.0290 C   0  0  0  0  0  0  0  0  0  0  0  0
   40.7670   30.9290   43.0170 H   0  0  0  0  0  0  0  0  0  0  0  0
   39.9850   32.4000   41.6250 N   0  0  0  0  0  0  0  0  0  0  0  0
   39.9820   33.2530   42.2460 H   0  0  0  0  0  0  0  0  0  0  0  0
   39.5840   32.4320   40.3770 N   0  0  0  0  0  0  0  0  0  0  0  0
  1 13  1  0  0  0  0
  2 20  1  0  0  0  0
  2  1  2  0  0  0  0
  3  2  1  0  0  0  0
  4  3  2  0  0  0  0
  4  5  1  0  0  0  0
  5  6  2  0  0  0  0
  6  1  1  0  0  0  0
  6 10  1  0  0  0  0
  7  3  1  0  0  0  0
  8  4  1  0  0  0  0
  9  5  1  0  0  0  0
 11 16  1  0  0  0  0
 11 17  1  0  0  0  0
 12 11  2  0  0  0  0
 13 14  2  0  0  0  0
 13 12  1  0  0  0  0
 14 15  1  0  0  0  0
 15 19  1  0  0  0  0
 15 16  2  0  0  0  0
 18 12  1  0  0  0  0
 20 21  1  0  0  0  0
 22 20  1  0  0  0  0
 23 20  1  0  0  0  0
 23 25  1  0  0  0  0
 24 23  1  0  0  0  0
 25 26  1  0  0  0  0
 25 30  1  0  0  0  0
 26 27  1  0  0  0  0
 28 25  1  0  0  0  0
 29 28  1  0  0  0  0
 30 31  1  0  0  0  0
 31 38  2  0  0  0  0
 31 32  1  0  0  0  0
 32 34  2  0  0  0  0
 33 32  1  0  0  0  0
 34 35  1  0  0  0  0
 36 34  1  0  0  0  0
 36 37  1  0  0  0  0
 38 36  1  0  0  0  0
M  END
>  <minimizedAffinity>
-5.49467278

$$$$

 OpenBabel03252508443D

 38 40  0  0  0  0  0  0  0  0999 V2000
   37.1890   25.8110   41.0650 C   0  0  0  0  0  0  0  0  0  0  0  0
   36.5910   26.0700   39.8350 C   0  0  0  0  0  0  0  0  0  0  0  0
   36.2030   24.9990   39.0600 C   0  0  0  0  0  0  0  0  0  0  0  0
   36.4050   23.7190   39.4920 C   0  0  0  0  0  0  0  0  0  0  0  0
   36.9910   23.4360   40.7010 C   0  0  0  0  0  0  0  0  0  0  0  0
   37.3670   24.5380   41.4530 C   0  0  0  0  0  0  0  0  0  0  0  0
   35.7370   25.1350   38.1010 H   0  0  0  0  0  0  0  0  0  0  0  0
   36.0930   22.8860   38.8680 H   0  0  0  0  0  0  0  0  0  0  0  0
   37.1440   22.4170   41.0320 H   0  0  0  0  0  0  0  0  0  0  0  0
   37.8350   24.3270   42.4150 H   0  0  0  0  0  0  0  0  0  0  0  0
   37.3130   28.5970   43.6160 C   0  0  0  0  0  0  0  0  0  0  0  0
   36.8580   27.4690   42.9110 C   0  0  0  0  0  0  0  0  0  0  0  0
   37.5810   26.9710   41.8510 C   0  0  0  0  0  0  0  0  0  0  0  0
   38.7340   27.6150   41.5310 N   0  0  0  0  0  0  0  0  0  0  0  0
   39.1760   28.7010   42.2070 C   0  0  0  0  0  0  0  0  0  0  0  0
   38.4690   29.1850   43.2390 N   0  0  0  0  0  0  0  0  0  0  0  0
   36.6410   28.8550   44.4050 H   0  0  0  0  0  0  0  0  0  0  0  0
   35.9500   26.9320   43.1340 H   0  0  0  0  0  0  0  0  0  0  0  0
   40.0900   29.2130   41.9550 H   0  0  0  0  0  0  0  0  0  0  0  0
   36.3800   27.4640   39.3800 C   0  0  0  0  0  0  0  0  0  0  0  0
   35.2920   27.6910   39.5660 H   0  0  0  0  0  0  0  0  0  0  0  0
   36.9290   28.2090   40.0080 H   0  0  0  0  0  0  0  0  0  0  0  0
   36.5990   27.6830   37.9920 N   0  0  0  0  0  0  0  0  0  0  0  0
   36.9450   26.8590   37.4620 H   0  0  0  0  0  0  0  0  0  0  0  0
   37.7480   28.9330   37.6850 S   0  0  0  0  0  0  0  0  0  0  0  0
   38.3950   28.7500   36.3540 O   0  0  0  0  0  0  0  0  0  0  0  0
   37.9750   28.6960   35.4590 H   0  0  0  0  0  0  0  0  0  0  0  0
   38.7650   29.0170   38.7660 O   0  0  0  0  0  0  0  0  0  0  0  0
   39.7060   28.7310   38.7320 H   0  0  0  0  0  0  0  0  0  0  0  0
   36.8480   30.3690   37.6720 O   0  0  0  0  0  0  0  0  0  0  0  0
   36.9200   31.2550   38.7100 C   0  0  0  0  0  0  0  0  0  0  0  0
   37.4100   32.5420   38.5360 C   0  0  0  0  0  0  0  0  0  0  0  0
   37.7830   33.0150   37.6290 H   0  0  0  0  0  0  0  0  0  0  0  0
   37.3540   33.1860   39.7590 C   0  0  0  0  0  0  0  0  0  0  0  0
   37.6450   34.1970   40.0280 H   0  0  0  0  0  0  0  0  0  0  0  0
   36.8410   32.2580   40.5820 N   0  0  0  0  0  0  0  0  0  0  0  0
   36.6630   32.4230   41.6090 H   0  0  0  0  0  0  0  0  0  0  0  0
   36.5770   31.1170   39.9930 N   0  0  0  0  0  0  0  0  0  0  0  0
  1  6  1  0  0  0  0
  1 13  1  0  0  0  0
  2  1  2  0  0  0  0
  3  4  2  0  0  0  0
  3  2  1  0  0  0  0
  4  5  1  0  0  0  0
  5  9  1  0  0  0  0
  5  6  2  0  0  0  0
  6 10  1  0  0  0  0
  7  3  1  0  0  0  0
  8  4  1  0  0  0  0
 11 17  1  0  0  0  0
 12 18  1  0  0  0  0
 12 11  2  0  0  0  0
 13 12  1  0  0  0  0
 14 13  2  0  0  0  0
 14 15  1  0  0  0  0
 15 16  2  0  0  0  0
 16 11  1  0  0  0  0
 19 15  1  0  0  0  0
 20 21  1  0  0  0  0
 20  2  1  0  0  0  0
 20 22  1  0  0  0  0
 23 20  1  0  0  0  0
 24 23  1  0  0  0  0
 25 23  1  0  0  0  0
 25 28  1  0  0  0  0
 26 25  1  0  0  0  0
 27 26  1  0  0  0  0
 29 28  1  0  0  0  0
 30 25  1  0  0  0  0
 30 31  1  0  0  0  0
 31 38  2  0  0  0  0
 32 31  1  0  0  0  0
 32 34  2  0  0  0  0
 33 32  1  0  0  0  0
 34 35  1  0  0  0  0
 34 36  1  0  0  0  0
 36 37  1  0  0  0  0
 38 36  1  0  0  0  0
M  END
>  <minimizedAffinity>
-5.45804214

$$$$

 OpenBabel03252508443D

 38 40  0  0  0  0  0  0  0  0999 V2000
   36.5460   27.4210   40.0690 C   0  0  0  0  0  0  0  0  0  0  0  0
   36.1270   28.3930   40.9720 C   0  0  0  0  0  0  0  0  0  0  0  0
   36.3330   28.1680   42.3160 C   0  0  0  0  0  0  0  0  0  0  0  0
   36.9320   27.0180   42.7440 C   0  0  0  0  0  0  0  0  0  0  0  0
   37.3560   26.0430   41.8750 C   0  0  0  0  0  0  0  0  0  0  0  0
   37.1320   26.3050   40.5320 C   0  0  0  0  0  0  0  0  0  0  0  0
   36.0300   28.8810   43.0610 H   0  0  0  0  0  0  0  0  0  0  0  0
   37.0860   26.8560   43.8070 H   0  0  0  0  0  0  0  0  0  0  0  0
   37.8300   25.1370   42.2270 H   0  0  0  0  0  0  0  0  0  0  0  0
   37.4640   25.5390   39.8300 H   0  0  0  0  0  0  0  0  0  0  0  0
   35.0010   27.7120   36.6320 C   0  0  0  0  0  0  0  0  0  0  0  0
   35.1420   27.4070   37.9980 C   0  0  0  0  0  0  0  0  0  0  0  0
   36.3110   27.7000   38.6600 C   0  0  0  0  0  0  0  0  0  0  0  0
   37.3010   28.2890   37.9400 N   0  0  0  0  0  0  0  0  0  0  0  0
   37.1710   28.5860   36.6260 C   0  0  0  0  0  0  0  0  0  0  0  0
   36.0300   28.2980   35.9810 N   0  0  0  0  0  0  0  0  0  0  0  0
   34.0400   27.4220   36.2690 H   0  0  0  0  0  0  0  0  0  0  0  0
   34.3810   26.9400   38.6020 H   0  0  0  0  0  0  0  0  0  0  0  0
   37.9540   29.0530   36.0520 H   0  0  0  0  0  0  0  0  0  0  0  0
   35.4770   29.6360   40.4920 C   0  0  0  0  0  0  0  0  0  0  0  0
   35.8080   29.7670   39.4230 H   0  0  0  0  0  0  0  0  0  0  0  0
   34.3650   29.5410   40.4270 H   0  0  0  0  0  0  0  0  0  0  0  0
   35.8660   30.8200   41.1760 N   0  0  0  0  0  0  0  0  0  0  0  0
   35.1090   31.5150   41.3240 H   0  0  0  0  0  0  0  0  0  0  0  0
   37.1190   31.6820   40.3610 S   0  0  0  0  0  0  0  0  0  0  0  0
   36.7850   33.1310   40.2480 O   0  0  0  0  0  0  0  0  0  0  0  0
   36.5850   33.7820   40.9660 H   0  0  0  0  0  0  0  0  0  0  0  0
   37.4060   31.0950   39.0250 O   0  0  0  0  0  0  0  0  0  0  0  0
   37.1670   31.4580   38.1430 H   0  0  0  0  0  0  0  0  0  0  0  0
   38.4900   31.5030   41.3400 O   0  0  0  0  0  0  0  0  0  0  0  0
   39.1660   30.3160   41.3960 C   0  0  0  0  0  0  0  0  0  0  0  0
   39.6580   29.8160   42.5940 C   0  0  0  0  0  0  0  0  0  0  0  0
   39.5930   30.2450   43.5930 H   0  0  0  0  0  0  0  0  0  0  0  0
   40.2850   28.6130   42.3240 C   0  0  0  0  0  0  0  0  0  0  0  0
   40.7900   27.9230   42.9960 H   0  0  0  0  0  0  0  0  0  0  0  0
   40.1340   28.4660   40.9990 N   0  0  0  0  0  0  0  0  0  0  0  0
   40.5020   27.6390   40.4570 H   0  0  0  0  0  0  0  0  0  0  0  0
   39.4810   29.4510   40.4300 N   0  0  0  0  0  0  0  0  0  0  0  0
  1  6  2  0  0  0  0
  1  2  1  0  0  0  0
  2  3  2  0  0  0  0
  3  4  1  0  0  0  0
  3  7  1  0  0  0  0
  4  8  1  0  0  0  0
  5  9  1  0  0  0  0
  5  4  2  0  0  0  0
  6  5  1  0  0  0  0
 10  6  1  0  0  0  0
 11 12  1  0  0  0  0
 12 18  1  0  0  0  0
 12 13  2  0  0  0  0
 13  1  1  0  0  0  0
 14 13  1  0  0  0  0
 15 14  2  0  0  0  0
 16 15  1  0  0  0  0
 16 11  2  0  0  0  0
 17 11  1  0  0  0  0
 19 15  1  0  0  0  0
 20  2  1  0  0  0  0
 20 23  1  0  0  0  0
 21 20  1  0  0  0  0
 22 20  1  0  0  0  0
 23 24  1  0  0  0  0
 25 23  1  0  0  0  0
 25 30  1  0  0  0  0
 26 25  1  0  0  0  0
 26 27  1  0  0  0  0
 28 25  1  0  0  0  0
 29 28  1  0  0  0  0
 30 31  1  0  0  0  0
 31 32  1  0  0  0  0
 32 33  1  0  0  0  0
 34 32  2  0  0  0  0
 34 35  1  0  0  0  0
 36 34  1  0  0  0  0
 37 36  1  0  0  0  0
 38 36  1  0  0  0  0
 38 31  2  0  0  0  0
M  END
>  <minimizedAffinity>
-5.4562993

$$$$

 OpenBabel03252508443D

 38 40  0  0  0  0  0  0  0  0999 V2000
   38.7840   26.9280   42.0710 C   0  0  0  0  0  0  0  0  0  0  0  0
   37.4160   26.7140   41.9340 C   0  0  0  0  0  0  0  0  0  0  0  0
   36.9440   25.4240   42.0390 C   0  0  0  0  0  0  0  0  0  0  0  0
   37.8010   24.3860   42.2690 C   0  0  0  0  0  0  0  0  0  0  0  0
   39.1560   24.5700   42.4090 C   0  0  0  0  0  0  0  0  0  0  0  0
   39.5930   25.8800   42.2980 C   0  0  0  0  0  0  0  0  0  0  0  0
   35.8980   25.1950   41.9430 H   0  0  0  0  0  0  0  0  0  0  0  0
   37.4120   23.3750   42.3490 H   0  0  0  0  0  0  0  0  0  0  0  0
   39.8240   23.7390   42.5920 H   0  0  0  0  0  0  0  0  0  0  0  0
   40.6660   26.0400   42.4060 H   0  0  0  0  0  0  0  0  0  0  0  0
   39.6550   30.5380   42.7750 C   0  0  0  0  0  0  0  0  0  0  0  0
   39.1930   29.2250   42.9770 C   0  0  0  0  0  0  0  0  0  0  0  0
   39.2390   28.3060   41.9550 C   0  0  0  0  0  0  0  0  0  0  0  0
   39.7440   28.7250   40.7660 N   0  0  0  0  0  0  0  0  0  0  0  0
   40.1910   29.9880   40.5670 C   0  0  0  0  0  0  0  0  0  0  0  0
   40.1440   30.8830   41.5650 N   0  0  0  0  0  0  0  0  0  0  0  0
   39.5500   31.1240   43.6620 H   0  0  0  0  0  0  0  0  0  0  0  0
   38.7850   28.8550   43.9040 H   0  0  0  0  0  0  0  0  0  0  0  0
   40.5930   30.3230   39.6250 H   0  0  0  0  0  0  0  0  0  0  0  0
   36.4980   27.8500   41.6840 C   0  0  0  0  0  0  0  0  0  0  0  0
   35.4570   27.4520   41.8520 H   0  0  0  0  0  0  0  0  0  0  0  0
   36.6070   28.6650   42.4410 H   0  0  0  0  0  0  0  0  0  0  0  0
   36.5190   28.3580   40.3560 N   0  0  0  0  0  0  0  0  0  0  0  0
   37.4370   28.7220   40.0350 H   0  0  0  0  0  0  0  0  0  0  0  0
   35.4090   29.6580   40.1190 S   0  0  0  0  0  0  0  0  0  0  0  0
   35.6730   30.7680   41.0780 O   0  0  0  0  0  0  0  0  0  0  0  0
   36.5030   31.2900   41.2140 H   0  0  0  0  0  0  0  0  0  0  0  0
   33.9990   29.1950   40.2130 O   0  0  0  0  0  0  0  0  0  0  0  0
   33.3610   29.3480   40.9460 H   0  0  0  0  0  0  0  0  0  0  0  0
   35.6980   30.2060   38.5420 O   0  0  0  0  0  0  0  0  0  0  0  0
   36.9700   30.4270   38.0940 C   0  0  0  0  0  0  0  0  0  0  0  0
   37.5330   31.6950   38.1010 C   0  0  0  0  0  0  0  0  0  0  0  0
   37.0960   32.6360   38.4330 H   0  0  0  0  0  0  0  0  0  0  0  0
   38.8150   31.5920   37.5930 C   0  0  0  0  0  0  0  0  0  0  0  0
   39.5690   32.3600   37.4400 H   0  0  0  0  0  0  0  0  0  0  0  0
   38.9420   30.2860   37.3150 N   0  0  0  0  0  0  0  0  0  0  0  0
   39.8150   29.8570   36.9060 H   0  0  0  0  0  0  0  0  0  0  0  0
   37.8740   29.5790   37.6000 N   0  0  0  0  0  0  0  0  0  0  0  0
  1  6  1  0  0  0  0
  2  3  1  0  0  0  0
  2  1  2  0  0  0  0
  3  4  2  0  0  0  0
  4  8  1  0  0  0  0
  4  5  1  0  0  0  0
  5  9  1  0  0  0  0
  6 10  1  0  0  0  0
  6  5  2  0  0  0  0
  7  3  1  0  0  0  0
 11 12  1  0  0  0  0
 11 17  1  0  0  0  0
 12 18  1  0  0  0  0
 13  1  1  0  0  0  0
 13 12  2  0  0  0  0
 14 13  1  0  0  0  0
 15 14  2  0  0  0  0
 15 16  1  0  0  0  0
 16 11  2  0  0  0  0
 19 15  1  0  0  0  0
 20 21  1  0  0  0  0
 20  2  1  0  0  0  0
 20 22  1  0  0  0  0
 23 20  1  0  0  0  0
 24 23  1  0  0  0  0
 25 28  1  0  0  0  0
 25 23  1  0  0  0  0
 25 26  1  0  0  0  0
 26 27  1  0  0  0  0
 28 29  1  0  0  0  0
 30 25  1  0  0  0  0
 31 32  1  0  0  0  0
 31 30  1  0  0  0  0
 32 33  1  0  0  0  0
 34 32  2  0  0  0  0
 35 34  1  0  0  0  0
 36 34  1  0  0  0  0
 36 38  1  0  0  0  0
 37 36  1  0  0  0  0
 38 31  2  0  0  0  0
M  END
>  <minimizedAffinity>
-5.43758726

$$$$
