
 OpenBabel03252509073D

 40 43  0  0  0  0  0  0  0  0999 V2000
   47.7740   31.8810   39.0620 C   0  0  0  0  0  0  0  0  0  0  0  0
   47.2140   33.1150   38.9260 C   0  0  0  0  0  0  0  0  0  0  0  0
   47.7380   34.0190   38.0180 C   0  0  0  0  0  0  0  0  0  0  0  0
   48.8240   33.6740   37.2500 C   0  0  0  0  0  0  0  0  0  0  0  0
   49.4270   32.4200   37.3570 C   0  0  0  0  0  0  0  0  0  0  0  0
   48.8780   31.5260   38.2830 C   0  0  0  0  0  0  0  0  0  0  0  0
   47.3370   34.9940   37.8760 H   0  0  0  0  0  0  0  0  0  0  0  0
   49.3150   34.2870   36.5180 H   0  0  0  0  0  0  0  0  0  0  0  0
   50.2660   32.0840   36.7970 H   0  0  0  0  0  0  0  0  0  0  0  0
   49.3250   30.5340   38.3940 H   0  0  0  0  0  0  0  0  0  0  0  0
   45.2880   35.3830   43.1480 Cl  0  0  0  0  0  0  0  0  0  0  0  0
   45.1560   34.6070   41.5860 C   0  0  0  0  0  0  0  0  0  0  0  0
   46.2620   34.2020   40.9110 C   0  0  0  0  0  0  0  0  0  0  0  0
   46.0530   33.5810   39.6900 C   0  0  0  0  0  0  0  0  0  0  0  0
   44.7940   33.3820   39.1820 C   0  0  0  0  0  0  0  0  0  0  0  0
   43.7020   33.7940   39.8720 C   0  0  0  0  0  0  0  0  0  0  0  0
   43.8920   34.4130   41.0900 C   0  0  0  0  0  0  0  0  0  0  0  0
   44.6840   32.8880   38.2140 H   0  0  0  0  0  0  0  0  0  0  0  0
   42.7300   33.6170   39.4340 H   0  0  0  0  0  0  0  0  0  0  0  0
   43.0040   34.7340   41.6240 H   0  0  0  0  0  0  0  0  0  0  0  0
   49.5540   35.7760   41.8670 C   0  0  0  0  0  0  0  0  0  0  0  0
   48.2920   35.5740   41.2970 C   0  0  0  0  0  0  0  0  0  0  0  0
   47.5660   34.4200   41.4950 C   0  0  0  0  0  0  0  0  0  0  0  0
   48.1770   33.5010   42.2880 N   0  0  0  0  0  0  0  0  0  0  0  0
   49.3810   33.6840   42.8370 C   0  0  0  0  0  0  0  0  0  0  0  0
   50.0620   34.8150   42.6270 N   0  0  0  0  0  0  0  0  0  0  0  0
   50.0040   36.7280   41.6240 H   0  0  0  0  0  0  0  0  0  0  0  0
   47.8360   36.3320   40.6690 H   0  0  0  0  0  0  0  0  0  0  0  0
   49.7780   32.8880   43.4540 H   0  0  0  0  0  0  0  0  0  0  0  0
   47.1350   30.7410   40.1240 S   0  0  0  0  0  0  0  0  0  0  0  0
   46.9820   29.3790   39.4820 O   0  0  0  0  0  0  0  0  0  0  0  0
   48.2990   30.5040   41.1560 O   0  0  0  0  0  0  0  0  0  0  0  0
   45.7430   30.9850   41.1020 C   0  0  0  0  0  0  0  0  0  0  0  0
   44.4840   30.4880   40.6730 C   0  0  0  0  0  0  0  0  0  0  0  0
   44.2460   29.9180   39.7510 H   0  0  0  0  0  0  0  0  0  0  0  0
   43.4430   30.7610   41.5280 C   0  0  0  0  0  0  0  0  0  0  0  0
   42.4080   30.5150   41.4610 H   0  0  0  0  0  0  0  0  0  0  0  0
   44.0650   31.4330   42.4940 N   0  0  0  0  0  0  0  0  0  0  0  0
   43.6590   31.8540   43.3830 H   0  0  0  0  0  0  0  0  0  0  0  0
   45.3130   31.5450   42.2470 N   0  0  0  0  0  0  0  0  0  0  0  0
  1 30  1  0  0  0  0
  2  1  1  0  0  0  0
  2 14  1  0  0  0  0
  3  2  2  0  0  0  0
  4  5  2  0  0  0  0
  4  3  1  0  0  0  0
  5  6  1  0  0  0  0
  6 10  1  0  0  0  0
  6  1  2  0  0  0  0
  7  3  1  0  0  0  0
  8  4  1  0  0  0  0
  9  5  1  0  0  0  0
 12 11  1  0  0  0  0
 13 23  1  0  0  0  0
 13 12  2  0  0  0  0
 14 13  1  0  0  0  0
 15 14  2  0  0  0  0
 15 16  1  0  0  0  0
 16 17  2  0  0  0  0
 17 12  1  0  0  0  0
 17 20  1  0  0  0  0
 18 15  1  0  0  0  0
 19 16  1  0  0  0  0
 21 26  1  0  0  0  0
 22 23  1  0  0  0  0
 22 21  2  0  0  0  0
 23 24  2  0  0  0  0
 24 25  1  0  0  0  0
 25 29  1  0  0  0  0
 26 25  2  0  0  0  0
 27 21  1  0  0  0  0
 28 22  1  0  0  0  0
 30 33  1  0  0  0  0
 30 32  2  0  0  0  0
 31 30  2  0  0  0  0
 33 40  2  0  0  0  0
 34 33  1  0  0  0  0
 34 36  2  0  0  0  0
 35 34  1  0  0  0  0
 36 38  1  0  0  0  0
 37 36  1  0  0  0  0
 38 39  1  0  0  0  0
 40 38  1  0  0  0  0
M  END
>  <minimizedAffinity>
-4.70528412

>  <minimizedRMSD>
0.274008065

$$$$
