
 OpenBabel03252500433D

 33 35  0  0  1  0  0  0  0  0999 V2000
   47.6980   35.3200   41.9110 C   0  0  1  0  0  0  0  0  0  0  0  0
   49.2000   35.5290   41.7280 C   0  0  0  0  0  0  0  0  0  0  0  0
   48.3320   35.0850   40.5710 C   0  0  1  0  0  0  0  0  0  0  0  0
   47.1910   36.2920   42.0980 H   0  0  0  0  0  0  0  0  0  0  0  0
   49.6290   36.5320   41.7380 H   0  0  0  0  0  0  0  0  0  0  0  0
   49.8570   34.7480   42.1640 H   0  0  0  0  0  0  0  0  0  0  0  0
   48.1860   35.8840   39.8110 H   0  0  0  0  0  0  0  0  0  0  0  0
   47.2910   34.1010   42.6380 C   0  0  0  0  0  0  0  0  0  0  0  0
   48.1410   33.4510   42.9290 H   0  0  0  0  0  0  0  0  0  0  0  0
   46.7070   33.4680   41.9070 H   0  0  0  0  0  0  0  0  0  0  0  0
   46.3830   34.3340   43.7690 C   0  0  0  0  0  0  0  0  0  0  0  0
   45.5200   35.3790   43.5820 C   0  0  0  0  0  0  0  0  0  0  0  0
   44.6050   35.7300   44.5820 C   0  0  0  0  0  0  0  0  0  0  0  0
   44.6510   34.9590   45.7230 N   0  0  0  0  0  0  0  0  0  0  0  0
   45.5070   33.9320   45.8900 C   0  0  0  0  0  0  0  0  0  0  0  0
   46.3580   33.6340   44.9180 N   0  0  0  0  0  0  0  0  0  0  0  0
   45.3210   36.0800   42.7830 H   0  0  0  0  0  0  0  0  0  0  0  0
   43.8640   36.5130   44.6060 H   0  0  0  0  0  0  0  0  0  0  0  0
   45.4440   33.4020   46.8310 H   0  0  0  0  0  0  0  0  0  0  0  0
   48.4610   33.7820   40.1650 O   0  0  0  0  0  0  0  0  0  0  0  0
   48.5910   34.5910   37.6250 O   0  0  0  0  0  0  0  0  0  0  0  0
   48.0000   33.5470   38.5570 P   0  0  1  0  0  0  0  0  0  0  0  0
   48.6050   32.0290   38.0530 O   0  0  0  0  0  0  0  0  0  0  0  0
   49.4400   31.8080   38.5320 H   0  0  0  0  0  0  0  0  0  0  0  0
   46.3190   33.5150   38.4700 O   0  0  0  0  0  0  0  0  0  0  0  0
   45.5450   33.0610   39.5280 C   0  0  0  0  0  0  0  0  0  0  0  0
   44.5170   33.4730   40.3500 C   0  0  0  0  0  0  0  0  0  0  0  0
   44.1530   34.4700   40.1480 H   0  0  0  0  0  0  0  0  0  0  0  0
   44.2700   32.4070   41.2160 C   0  0  0  0  0  0  0  0  0  0  0  0
   43.4730   32.5690   41.9430 H   0  0  0  0  0  0  0  0  0  0  0  0
   45.1260   31.4040   40.9140 N   0  0  0  0  0  0  0  0  0  0  0  0
   45.0850   30.5180   41.4650 H   0  0  0  0  0  0  0  0  0  0  0  0
   45.8900   31.8100   39.8930 N   0  0  0  0  0  0  0  0  0  0  0  0
  1  4  1  1  0  0  0
  1  8  1  0  0  0  0
  2  5  1  0  0  0  0
  2  1  1  0  0  0  0
  2  6  1  0  0  0  0
  3  7  1  6  0  0  0
  3  2  1  0  0  0  0
  3  1  1  0  0  0  0
  8  9  1  0  0  0  0
  8 11  1  0  0  0  0
 10  8  1  0  0  0  0
 11 16  1  0  0  0  0
 12 11  2  0  0  0  0
 12 13  1  0  0  0  0
 13 18  1  0  0  0  0
 13 14  2  0  0  0  0
 14 15  1  0  0  0  0
 15 19  1  0  0  0  0
 16 15  2  0  0  0  0
 17 12  1  0  0  0  0
 20  3  1  0  0  0  0
 22 21  2  6  0  0  0
 22 20  1  0  0  0  0
 23 24  1  0  0  0  0
 23 22  1  0  0  0  0
 25 22  1  0  0  0  0
 25 26  1  0  0  0  0
 26 33  2  0  0  0  0
 26 27  1  0  0  0  0
 27 29  2  0  0  0  0
 28 27  1  0  0  0  0
 29 30  1  0  0  0  0
 31 29  1  0  0  0  0
 31 32  1  0  0  0  0
 33 31  1  0  0  0  0
M  END
>  <minimizedAffinity>
-4.55495405

>  <minimizedRMSD>
2.33583689

$$$$
