
 OpenBabel03252509313D

 26 27  0  0  0  0  0  0  0  0999 V2000
   48.3910   33.5100   43.2810 O   0  0  0  0  0  0  0  0  0  0  0  0
   47.0960   33.6600   42.7860 C   0  0  0  0  0  0  0  0  0  0  0  0
   47.0580   34.2320   41.8420 H   0  0  0  0  0  0  0  0  0  0  0  0
   46.7400   32.6250   42.5690 H   0  0  0  0  0  0  0  0  0  0  0  0
   45.2040   34.2240   45.9480 C   0  0  0  0  0  0  0  0  0  0  0  0
   46.0770   33.6270   45.0070 C   0  0  0  0  0  0  0  0  0  0  0  0
   46.2050   34.2490   43.7750 C   0  0  0  0  0  0  0  0  0  0  0  0
   45.4900   35.3930   43.5360 N   0  0  0  0  0  0  0  0  0  0  0  0
   44.6610   35.9360   44.4630 C   0  0  0  0  0  0  0  0  0  0  0  0
   44.5230   35.3510   45.6580 N   0  0  0  0  0  0  0  0  0  0  0  0
   45.0440   33.8020   46.9350 H   0  0  0  0  0  0  0  0  0  0  0  0
   46.5950   32.7220   45.2980 H   0  0  0  0  0  0  0  0  0  0  0  0
   44.1840   36.8360   44.0950 H   0  0  0  0  0  0  0  0  0  0  0  0
   50.7970   33.1220   42.3450 O   0  0  0  0  0  0  0  0  0  0  0  0
   49.4410   33.6400   41.9500 P   0  0  2  0  0  0  0  0  0  0  0  0
   49.4650   35.2570   41.5000 O   0  0  0  0  0  0  0  0  0  0  0  0
   48.6570   35.7530   41.7430 H   0  0  0  0  0  0  0  0  0  0  0  0
   48.8380   32.6620   40.7250 O   0  0  0  0  0  0  0  0  0  0  0  0
   48.6520   33.1530   39.4380 C   0  0  0  0  0  0  0  0  0  0  0  0
   48.0170   34.1600   38.7180 C   0  0  0  0  0  0  0  0  0  0  0  0
   47.4500   34.8230   39.3730 H   0  0  0  0  0  0  0  0  0  0  0  0
   48.3350   33.9630   37.3860 C   0  0  0  0  0  0  0  0  0  0  0  0
   47.9010   34.6860   36.7070 H   0  0  0  0  0  0  0  0  0  0  0  0
   49.1370   32.8720   37.3020 N   0  0  0  0  0  0  0  0  0  0  0  0
   49.4730   32.5780   36.3700 H   0  0  0  0  0  0  0  0  0  0  0  0
   49.3260   32.3870   38.5310 N   0  0  0  0  0  0  0  0  0  0  0  0
  2  1  1  0  0  0  0
  2  7  1  0  0  0  0
  3  2  1  0  0  0  0
  4  2  1  0  0  0  0
  5 11  1  0  0  0  0
  6 12  1  0  0  0  0
  6  5  2  0  0  0  0
  7  6  1  0  0  0  0
  8  7  2  0  0  0  0
  8  9  1  0  0  0  0
  9 10  2  0  0  0  0
 10  5  1  0  0  0  0
 13  9  1  0  0  0  0
 15 14  2  1  0  0  0
 15  1  1  0  0  0  0
 16 17  1  0  0  0  0
 16 15  1  0  0  0  0
 18 15  1  0  0  0  0
 19 18  1  0  0  0  0
 20 21  1  0  0  0  0
 20 19  1  0  0  0  0
 22 20  2  0  0  0  0
 23 22  1  0  0  0  0
 24 22  1  0  0  0  0
 24 26  1  0  0  0  0
 25 24  1  0  0  0  0
 26 19  2  0  0  0  0
M  END
>  <minimizedAffinity>
-4.39683056

>  <minimizedRMSD>
2.45023847

$$$$
