
 OpenBabel03252509073D

 40 43  0  0  0  0  0  0  0  0999 V2000
   47.6010   31.8180   38.8910 C   0  0  0  0  0  0  0  0  0  0  0  0
   47.1720   33.1100   38.9250 C   0  0  0  0  0  0  0  0  0  0  0  0
   47.8170   34.0750   38.1700 C   0  0  0  0  0  0  0  0  0  0  0  0
   48.8910   33.7320   37.3840 C   0  0  0  0  0  0  0  0  0  0  0  0
   49.3610   32.4200   37.3200 C   0  0  0  0  0  0  0  0  0  0  0  0
   48.6910   31.4640   38.0930 C   0  0  0  0  0  0  0  0  0  0  0  0
   47.5210   35.0970   38.1630 H   0  0  0  0  0  0  0  0  0  0  0  0
   49.4670   34.3890   36.7600 H   0  0  0  0  0  0  0  0  0  0  0  0
   50.1820   32.0810   36.7360 H   0  0  0  0  0  0  0  0  0  0  0  0
   49.0320   30.4260   38.0680 H   0  0  0  0  0  0  0  0  0  0  0  0
   45.3770   35.3330   43.2280 Cl  0  0  0  0  0  0  0  0  0  0  0  0
   45.1990   34.5870   41.6560 C   0  0  0  0  0  0  0  0  0  0  0  0
   46.2820   34.1770   40.9490 C   0  0  0  0  0  0  0  0  0  0  0  0
   46.0370   33.5810   39.7220 C   0  0  0  0  0  0  0  0  0  0  0  0
   44.7630   33.4110   39.2390 C   0  0  0  0  0  0  0  0  0  0  0  0
   43.6940   33.8280   39.9610 C   0  0  0  0  0  0  0  0  0  0  0  0
   43.9210   34.4230   41.1850 C   0  0  0  0  0  0  0  0  0  0  0  0
   44.6230   32.9370   38.2660 H   0  0  0  0  0  0  0  0  0  0  0  0
   42.7090   33.6750   39.5420 H   0  0  0  0  0  0  0  0  0  0  0  0
   43.0500   34.7470   41.7440 H   0  0  0  0  0  0  0  0  0  0  0  0
   49.5850   35.7130   41.9320 C   0  0  0  0  0  0  0  0  0  0  0  0
   48.3070   35.5420   41.3870 C   0  0  0  0  0  0  0  0  0  0  0  0
   47.6020   34.3640   41.5070 C   0  0  0  0  0  0  0  0  0  0  0  0
   48.2520   33.3890   42.1980 N   0  0  0  0  0  0  0  0  0  0  0  0
   49.4710   33.5420   42.7210 C   0  0  0  0  0  0  0  0  0  0  0  0
   50.1300   34.6980   42.5880 N   0  0  0  0  0  0  0  0  0  0  0  0
   50.0140   36.6890   41.7570 H   0  0  0  0  0  0  0  0  0  0  0  0
   47.8210   36.3440   40.8420 H   0  0  0  0  0  0  0  0  0  0  0  0
   49.8980   32.7020   43.2530 H   0  0  0  0  0  0  0  0  0  0  0  0
   46.8120   30.6110   39.7620 S   0  0  0  0  0  0  0  0  0  0  0  0
   47.4840   29.2630   39.6130 O   0  0  0  0  0  0  0  0  0  0  0  0
   47.1130   30.9800   41.2610 O   0  0  0  0  0  0  0  0  0  0  0  0
   45.1170   30.3250   39.7260 C   0  0  0  0  0  0  0  0  0  0  0  0
   44.4750   30.0500   38.4910 C   0  0  0  0  0  0  0  0  0  0  0  0
   44.9280   29.9720   37.4800 H   0  0  0  0  0  0  0  0  0  0  0  0
   43.1180   29.8580   38.5840 C   0  0  0  0  0  0  0  0  0  0  0  0
   42.3940   29.6400   37.8330 H   0  0  0  0  0  0  0  0  0  0  0  0
   42.9190   30.0170   39.8900 N   0  0  0  0  0  0  0  0  0  0  0  0
   42.0100   29.9600   40.4410 H   0  0  0  0  0  0  0  0  0  0  0  0
   44.0160   30.2700   40.4960 N   0  0  0  0  0  0  0  0  0  0  0  0
  1  2  1  0  0  0  0
  1 30  1  0  0  0  0
  2 14  1  0  0  0  0
  3  2  2  0  0  0  0
  4  3  1  0  0  0  0
  5  4  2  0  0  0  0
  5  6  1  0  0  0  0
  6  1  2  0  0  0  0
  7  3  1  0  0  0  0
  8  4  1  0  0  0  0
  9  5  1  0  0  0  0
 10  6  1  0  0  0  0
 12 11  1  0  0  0  0
 13 23  1  0  0  0  0
 13 12  2  0  0  0  0
 14 13  1  0  0  0  0
 15 14  2  0  0  0  0
 15 16  1  0  0  0  0
 16 17  2  0  0  0  0
 17 12  1  0  0  0  0
 17 20  1  0  0  0  0
 18 15  1  0  0  0  0
 19 16  1  0  0  0  0
 21 26  1  0  0  0  0
 22 23  1  0  0  0  0
 22 21  2  0  0  0  0
 23 24  2  0  0  0  0
 24 25  1  0  0  0  0
 25 29  1  0  0  0  0
 26 25  2  0  0  0  0
 27 21  1  0  0  0  0
 28 22  1  0  0  0  0
 30 32  2  0  0  0  0
 31 30  2  0  0  0  0
 33 30  1  0  0  0  0
 33 40  2  0  0  0  0
 34 36  2  0  0  0  0
 34 33  1  0  0  0  0
 35 34  1  0  0  0  0
 36 38  1  0  0  0  0
 37 36  1  0  0  0  0
 38 39  1  0  0  0  0
 38 40  1  0  0  0  0
M  END
>  <minimizedAffinity>
-4.56086016

>  <minimizedRMSD>
1.39814782

$$$$
