
 OpenBabel03252504233D

 31 34  0  0  0  0  0  0  0  0999 V2000
   38.8670   33.4320   40.4640 C   0  0  0  0  0  0  0  0  0  0  0  0
   37.6180   33.3360   39.8610 C   0  0  0  0  0  0  0  0  0  0  0  0
   36.9570   32.0850   39.8890 C   0  0  0  0  0  0  0  0  0  0  0  0
   37.6090   31.0600   40.5130 N   0  0  0  0  0  0  0  0  0  0  0  0
   38.8280   31.2040   41.0870 C   0  0  0  0  0  0  0  0  0  0  0  0
   39.4440   32.3850   41.0570 N   0  0  0  0  0  0  0  0  0  0  0  0
   39.4070   30.0620   41.7060 N   0  0  0  0  0  0  0  0  0  0  0  0
   40.6970   29.6610   41.5740 C   0  0  0  0  0  0  0  0  0  0  0  0
   40.8610   28.5270   42.3160 N   0  0  0  0  0  0  0  0  0  0  0  0
   39.6780   28.2610   42.8790 C   0  0  0  0  0  0  0  0  0  0  0  0
   39.2240   27.2720   43.7140 C   0  0  0  0  0  0  0  0  0  0  0  0
   37.9690   27.2250   44.1490 N   0  0  0  0  0  0  0  0  0  0  0  0
   37.0480   28.1500   43.7960 C   0  0  0  0  0  0  0  0  0  0  0  0
   37.5120   29.1180   42.9710 N   0  0  0  0  0  0  0  0  0  0  0  0
   38.7480   29.2160   42.5080 C   0  0  0  0  0  0  0  0  0  0  0  0
   37.0740   34.1270   39.3580 H   0  0  0  0  0  0  0  0  0  0  0  0
   35.9970   31.9600   39.4400 H   0  0  0  0  0  0  0  0  0  0  0  0
   41.5030   30.1160   40.9990 H   0  0  0  0  0  0  0  0  0  0  0  0
   36.0260   28.1160   44.1450 H   0  0  0  0  0  0  0  0  0  0  0  0
   40.0540   26.2300   44.1760 N   0  0  0  0  0  0  0  0  0  0  0  0
   40.3030   25.9860   45.1710 H   0  0  0  0  0  0  0  0  0  0  0  0
   40.4410   25.6610   43.3730 H   0  0  0  0  0  0  0  0  0  0  0  0
   39.6370   35.0700   40.3710 S   0  0  0  0  0  0  0  0  0  0  0  0
   41.4010   34.8460   40.2060 C   0  0  0  0  0  0  0  0  0  0  0  0
   41.9410   34.3320   39.0220 C   0  0  0  0  0  0  0  0  0  0  0  0
   41.4910   34.0000   38.0760 H   0  0  0  0  0  0  0  0  0  0  0  0
   43.3310   34.2650   39.1680 C   0  0  0  0  0  0  0  0  0  0  0  0
   44.1340   33.9410   38.5300 H   0  0  0  0  0  0  0  0  0  0  0  0
   43.5760   34.7370   40.4260 N   0  0  0  0  0  0  0  0  0  0  0  0
   44.5090   34.8470   40.9210 H   0  0  0  0  0  0  0  0  0  0  0  0
   42.4480   35.0830   41.0480 N   0  0  0  0  0  0  0  0  0  0  0  0
  1  6  1  0  0  0  0
  2  3  1  0  0  0  0
  2  1  2  0  0  0  0
  3  4  2  0  0  0  0
  4  5  1  0  0  0  0
  5  7  1  0  0  0  0
  6  5  2  0  0  0  0
  7 15  1  0  0  0  0
  8  7  1  0  0  0  0
  8  9  2  0  0  0  0
  9 10  1  0  0  0  0
 10 11  1  0  0  0  0
 11 12  2  0  0  0  0
 11 20  1  0  0  0  0
 13 19  1  0  0  0  0
 13 12  1  0  0  0  0
 14 13  2  0  0  0  0
 15 10  2  0  0  0  0
 15 14  1  0  0  0  0
 16  2  1  0  0  0  0
 17  3  1  0  0  0  0
 18  8  1  0  0  0  0
 20 21  1  0  0  0  0
 22 20  1  0  0  0  0
 23  1  1  0  0  0  0
 24 23  1  0  0  0  0
 24 31  2  0  0  0  0
 25 27  2  0  0  0  0
 25 24  1  0  0  0  0
 26 25  1  0  0  0  0
 27 29  1  0  0  0  0
 28 27  1  0  0  0  0
 29 30  1  0  0  0  0
 29 31  1  0  0  0  0
M  END
>  <minimizedAffinity>
-6.05073404

$$$$

 OpenBabel03252504233D

 31 34  0  0  0  0  0  0  0  0999 V2000
   37.2900   31.0890   39.6670 C   0  0  0  0  0  0  0  0  0  0  0  0
   36.8970   30.5950   38.4280 C   0  0  0  0  0  0  0  0  0  0  0  0
   37.6810   30.9280   37.2970 C   0  0  0  0  0  0  0  0  0  0  0  0
   38.7740   31.7170   37.5180 N   0  0  0  0  0  0  0  0  0  0  0  0
   39.1150   32.1750   38.7470 C   0  0  0  0  0  0  0  0  0  0  0  0
   38.3720   31.8570   39.8070 N   0  0  0  0  0  0  0  0  0  0  0  0
   40.2750   32.9910   38.8500 N   0  0  0  0  0  0  0  0  0  0  0  0
   40.3700   34.1400   39.5680 C   0  0  0  0  0  0  0  0  0  0  0  0
   41.6350   34.6270   39.4110 N   0  0  0  0  0  0  0  0  0  0  0  0
   42.2790   33.7760   38.6080 C   0  0  0  0  0  0  0  0  0  0  0  0
   43.5510   33.7290   38.0950 C   0  0  0  0  0  0  0  0  0  0  0  0
   43.9640   32.7500   37.2970 N   0  0  0  0  0  0  0  0  0  0  0  0
   43.1570   31.7280   36.9310 C   0  0  0  0  0  0  0  0  0  0  0  0
   41.9050   31.7890   37.4450 N   0  0  0  0  0  0  0  0  0  0  0  0
   41.4400   32.7380   38.2430 C   0  0  0  0  0  0  0  0  0  0  0  0
   36.0390   29.9680   38.2180 H   0  0  0  0  0  0  0  0  0  0  0  0
   37.4220   30.5730   36.3250 H   0  0  0  0  0  0  0  0  0  0  0  0
   39.6140   34.6340   40.1790 H   0  0  0  0  0  0  0  0  0  0  0  0
   43.4870   30.9300   36.2820 H   0  0  0  0  0  0  0  0  0  0  0  0
   44.5170   34.7170   38.3760 N   0  0  0  0  0  0  0  0  0  0  0  0
   45.4550   34.5980   38.8430 H   0  0  0  0  0  0  0  0  0  0  0  0
   44.1980   35.6710   38.0520 H   0  0  0  0  0  0  0  0  0  0  0  0
   36.2210   30.6160   41.0510 S   0  0  0  0  0  0  0  0  0  0  0  0
   37.0860   29.3990   42.0310 C   0  0  0  0  0  0  0  0  0  0  0  0
   36.6390   28.0730   42.0680 C   0  0  0  0  0  0  0  0  0  0  0  0
   35.7980   27.5540   41.5890 H   0  0  0  0  0  0  0  0  0  0  0  0
   37.4940   27.3460   42.9040 C   0  0  0  0  0  0  0  0  0  0  0  0
   37.5330   26.3190   43.2190 H   0  0  0  0  0  0  0  0  0  0  0  0
   38.4180   28.2540   43.3370 N   0  0  0  0  0  0  0  0  0  0  0  0
   39.2400   28.1000   43.9900 H   0  0  0  0  0  0  0  0  0  0  0  0
   38.1890   29.4660   42.8310 N   0  0  0  0  0  0  0  0  0  0  0  0
  1  6  1  0  0  0  0
  1 23  1  0  0  0  0
  2  1  2  0  0  0  0
  3  4  2  0  0  0  0
  3  2  1  0  0  0  0
  4  5  1  0  0  0  0
  5  7  1  0  0  0  0
  5  6  2  0  0  0  0
  7  8  1  0  0  0  0
  8 18  1  0  0  0  0
  9  8  2  0  0  0  0
 10  9  1  0  0  0  0
 11 20  1  0  0  0  0
 11 10  2  0  0  0  0
 12 11  1  0  0  0  0
 13 12  2  0  0  0  0
 13 14  1  0  0  0  0
 14 15  2  0  0  0  0
 15 10  1  0  0  0  0
 15  7  1  0  0  0  0
 16  2  1  0  0  0  0
 17  3  1  0  0  0  0
 19 13  1  0  0  0  0
 20 21  1  0  0  0  0
 22 20  1  0  0  0  0
 23 24  1  0  0  0  0
 24 25  1  0  0  0  0
 24 31  2  0  0  0  0
 25 27  2  0  0  0  0
 26 25  1  0  0  0  0
 27 28  1  0  0  0  0
 27 29  1  0  0  0  0
 29 30  1  0  0  0  0
 31 29  1  0  0  0  0
M  END
>  <minimizedAffinity>
-5.98174238

$$$$

 OpenBabel03252504233D

 31 34  0  0  0  0  0  0  0  0999 V2000
   37.9740   29.2720   41.0560 C   0  0  0  0  0  0  0  0  0  0  0  0
   38.3400   29.4820   42.3810 C   0  0  0  0  0  0  0  0  0  0  0  0
   39.4420   30.3310   42.6440 C   0  0  0  0  0  0  0  0  0  0  0  0
   40.0640   30.8830   41.5610 N   0  0  0  0  0  0  0  0  0  0  0  0
   39.6690   30.6470   40.2860 C   0  0  0  0  0  0  0  0  0  0  0  0
   38.6310   29.8460   40.0470 N   0  0  0  0  0  0  0  0  0  0  0  0
   40.3980   31.2780   39.2400 N   0  0  0  0  0  0  0  0  0  0  0  0
   40.8100   30.6800   38.0930 C   0  0  0  0  0  0  0  0  0  0  0  0
   41.4770   31.6120   37.3520 N   0  0  0  0  0  0  0  0  0  0  0  0
   41.4590   32.7490   38.0550 C   0  0  0  0  0  0  0  0  0  0  0  0
   41.9560   34.0090   37.8390 C   0  0  0  0  0  0  0  0  0  0  0  0
   41.8020   34.9980   38.7140 N   0  0  0  0  0  0  0  0  0  0  0  0
   41.1450   34.8300   39.8840 C   0  0  0  0  0  0  0  0  0  0  0  0
   40.6620   33.5810   40.0830 N   0  0  0  0  0  0  0  0  0  0  0  0
   40.7840   32.5600   39.2480 C   0  0  0  0  0  0  0  0  0  0  0  0
   37.8700   29.0610   43.2620 H   0  0  0  0  0  0  0  0  0  0  0  0
   39.7610   30.5240   43.6440 H   0  0  0  0  0  0  0  0  0  0  0  0
   40.6670   29.6510   37.7650 H   0  0  0  0  0  0  0  0  0  0  0  0
   41.0180   35.6300   40.5990 H   0  0  0  0  0  0  0  0  0  0  0  0
   42.6680   34.3520   36.6710 N   0  0  0  0  0  0  0  0  0  0  0  0
   42.4270   35.0850   35.9510 H   0  0  0  0  0  0  0  0  0  0  0  0
   43.5400   33.7650   36.5650 H   0  0  0  0  0  0  0  0  0  0  0  0
   36.5600   28.1650   40.8200 S   0  0  0  0  0  0  0  0  0  0  0  0
   37.1330   26.4840   41.0030 C   0  0  0  0  0  0  0  0  0  0  0  0
   37.0780   25.8500   42.2500 C   0  0  0  0  0  0  0  0  0  0  0  0
   36.7310   26.1750   43.2400 H   0  0  0  0  0  0  0  0  0  0  0  0
   37.5850   24.5540   42.1050 C   0  0  0  0  0  0  0  0  0  0  0  0
   37.7320   23.7300   42.7790 H   0  0  0  0  0  0  0  0  0  0  0  0
   37.9260   24.4550   40.7850 N   0  0  0  0  0  0  0  0  0  0  0  0
   38.3470   23.6280   40.2710 H   0  0  0  0  0  0  0  0  0  0  0  0
   37.6640   25.5840   40.1260 N   0  0  0  0  0  0  0  0  0  0  0  0
  1  2  1  0  0  0  0
  2  3  2  0  0  0  0
  2 16  1  0  0  0  0
  3 17  1  0  0  0  0
  4  3  1  0  0  0  0
  5  4  2  0  0  0  0
  6  5  1  0  0  0  0
  6  1  2  0  0  0  0
  7 15  1  0  0  0  0
  7  5  1  0  0  0  0
  8  7  1  0  0  0  0
  9 10  1  0  0  0  0
  9  8  2  0  0  0  0
 10 15  1  0  0  0  0
 11 10  2  0  0  0  0
 11 12  1  0  0  0  0
 12 13  2  0  0  0  0
 13 14  1  0  0  0  0
 13 19  1  0  0  0  0
 15 14  2  0  0  0  0
 18  8  1  0  0  0  0
 20 11  1  0  0  0  0
 21 20  1  0  0  0  0
 22 20  1  0  0  0  0
 23 24  1  0  0  0  0
 23  1  1  0  0  0  0
 24 25  1  0  0  0  0
 25 26  1  0  0  0  0
 27 25  2  0  0  0  0
 27 28  1  0  0  0  0
 29 27  1  0  0  0  0
 30 29  1  0  0  0  0
 31 29  1  0  0  0  0
 31 24  2  0  0  0  0
M  END
>  <minimizedAffinity>
-5.9572196

$$$$

 OpenBabel03252504233D

 31 34  0  0  0  0  0  0  0  0999 V2000
   37.6340   25.5030   41.0190 C   0  0  0  0  0  0  0  0  0  0  0  0
   37.0910   24.8970   39.8920 C   0  0  0  0  0  0  0  0  0  0  0  0
   36.4550   25.7210   38.9310 C   0  0  0  0  0  0  0  0  0  0  0  0
   36.4280   27.0610   39.1930 N   0  0  0  0  0  0  0  0  0  0  0  0
   36.9720   27.6040   40.3090 C   0  0  0  0  0  0  0  0  0  0  0  0
   37.5690   26.8220   41.2080 N   0  0  0  0  0  0  0  0  0  0  0  0
   36.8790   29.0140   40.4710 N   0  0  0  0  0  0  0  0  0  0  0  0
   36.5350   29.6550   41.6180 C   0  0  0  0  0  0  0  0  0  0  0  0
   36.5550   30.9970   41.3680 N   0  0  0  0  0  0  0  0  0  0  0  0
   36.9060   31.1460   40.0870 C   0  0  0  0  0  0  0  0  0  0  0  0
   37.0910   32.2330   39.2720 C   0  0  0  0  0  0  0  0  0  0  0  0
   37.4510   32.1180   37.9980 N   0  0  0  0  0  0  0  0  0  0  0  0
   37.6590   30.9170   37.4130 C   0  0  0  0  0  0  0  0  0  0  0  0
   37.4720   29.8540   38.2300 N   0  0  0  0  0  0  0  0  0  0  0  0
   37.1150   29.9090   39.5030 C   0  0  0  0  0  0  0  0  0  0  0  0
   37.0950   23.8410   39.6530 H   0  0  0  0  0  0  0  0  0  0  0  0
   36.0230   25.3030   38.0490 H   0  0  0  0  0  0  0  0  0  0  0  0
   36.2800   29.2350   42.5900 H   0  0  0  0  0  0  0  0  0  0  0  0
   37.9510   30.8170   36.3770 H   0  0  0  0  0  0  0  0  0  0  0  0
   36.9130   33.5570   39.7240 N   0  0  0  0  0  0  0  0  0  0  0  0
   37.6220   34.3390   39.7500 H   0  0  0  0  0  0  0  0  0  0  0  0
   35.9260   33.7190   40.0640 H   0  0  0  0  0  0  0  0  0  0  0  0
   38.4180   24.3680   42.1940 S   0  0  0  0  0  0  0  0  0  0  0  0
   39.6750   25.2720   43.0840 C   0  0  0  0  0  0  0  0  0  0  0  0
   41.0310   25.0070   42.8570 C   0  0  0  0  0  0  0  0  0  0  0  0
   41.5550   24.3050   42.1940 H   0  0  0  0  0  0  0  0  0  0  0  0
   41.7850   25.8500   43.6800 C   0  0  0  0  0  0  0  0  0  0  0  0
   42.8390   25.9920   43.8380 H   0  0  0  0  0  0  0  0  0  0  0  0
   40.8640   26.5860   44.3690 N   0  0  0  0  0  0  0  0  0  0  0  0
   41.0300   27.3410   45.0970 H   0  0  0  0  0  0  0  0  0  0  0  0
   39.6180   26.2550   44.0270 N   0  0  0  0  0  0  0  0  0  0  0  0
  1  6  1  0  0  0  0
  1 23  1  0  0  0  0
  2  1  2  0  0  0  0
  3  4  2  0  0  0  0
  3  2  1  0  0  0  0
  4  5  1  0  0  0  0
  5  7  1  0  0  0  0
  5  6  2  0  0  0  0
  7  8  1  0  0  0  0
  8 18  1  0  0  0  0
  9  8  2  0  0  0  0
 10  9  1  0  0  0  0
 11 20  1  0  0  0  0
 11 10  2  0  0  0  0
 12 11  1  0  0  0  0
 13 12  2  0  0  0  0
 13 14  1  0  0  0  0
 14 15  2  0  0  0  0
 15 10  1  0  0  0  0
 15  7  1  0  0  0  0
 16  2  1  0  0  0  0
 17  3  1  0  0  0  0
 19 13  1  0  0  0  0
 20 21  1  0  0  0  0
 20 22  1  0  0  0  0
 23 24  1  0  0  0  0
 24 31  2  0  0  0  0
 25 24  1  0  0  0  0
 25 27  2  0  0  0  0
 26 25  1  0  0  0  0
 27 28  1  0  0  0  0
 27 29  1  0  0  0  0
 29 30  1  0  0  0  0
 31 29  1  0  0  0  0
M  END
>  <minimizedAffinity>
-5.94081974

$$$$

 OpenBabel03252504233D

 31 34  0  0  0  0  0  0  0  0999 V2000
   37.7060   29.5810   41.2090 C   0  0  0  0  0  0  0  0  0  0  0  0
   38.2110   29.6600   42.5020 C   0  0  0  0  0  0  0  0  0  0  0  0
   39.4290   30.3520   42.7030 C   0  0  0  0  0  0  0  0  0  0  0  0
   40.0180   30.8930   41.5960 N   0  0  0  0  0  0  0  0  0  0  0  0
   39.4860   30.7880   40.3540 C   0  0  0  0  0  0  0  0  0  0  0  0
   38.3380   30.1340   40.1730 N   0  0  0  0  0  0  0  0  0  0  0  0
   40.1930   31.3920   39.2780 N   0  0  0  0  0  0  0  0  0  0  0  0
   40.4240   30.8230   38.0670 C   0  0  0  0  0  0  0  0  0  0  0  0
   41.1350   31.7140   37.3160 N   0  0  0  0  0  0  0  0  0  0  0  0
   41.3220   32.7970   38.0760 C   0  0  0  0  0  0  0  0  0  0  0  0
   41.9520   33.9990   37.8790 C   0  0  0  0  0  0  0  0  0  0  0  0
   42.0010   34.9420   38.8150 N   0  0  0  0  0  0  0  0  0  0  0  0
   41.4340   34.7800   40.0320 C   0  0  0  0  0  0  0  0  0  0  0  0
   40.8170   33.5880   40.2100 N   0  0  0  0  0  0  0  0  0  0  0  0
   40.7360   32.6150   39.3160 C   0  0  0  0  0  0  0  0  0  0  0  0
   37.7710   29.2440   43.4010 H   0  0  0  0  0  0  0  0  0  0  0  0
   39.8570   30.4410   43.6760 H   0  0  0  0  0  0  0  0  0  0  0  0
   40.1250   29.8420   37.7000 H   0  0  0  0  0  0  0  0  0  0  0  0
   41.4720   35.5420   40.7970 H   0  0  0  0  0  0  0  0  0  0  0  0
   42.5960   34.3280   36.6680 N   0  0  0  0  0  0  0  0  0  0  0  0
   42.3860   35.1280   36.0140 H   0  0  0  0  0  0  0  0  0  0  0  0
   43.3750   33.6480   36.4480 H   0  0  0  0  0  0  0  0  0  0  0  0
   36.1490   28.6690   41.0510 S   0  0  0  0  0  0  0  0  0  0  0  0
   35.8700   28.3400   39.3180 C   0  0  0  0  0  0  0  0  0  0  0  0
   34.9110   29.0690   38.6060 C   0  0  0  0  0  0  0  0  0  0  0  0
   34.2200   29.8750   38.8900 H   0  0  0  0  0  0  0  0  0  0  0  0
   34.9040   28.6090   37.2840 C   0  0  0  0  0  0  0  0  0  0  0  0
   34.3420   28.8700   36.4050 H   0  0  0  0  0  0  0  0  0  0  0  0
   35.8520   27.6260   37.2490 N   0  0  0  0  0  0  0  0  0  0  0  0
   36.1540   27.0270   36.4260 H   0  0  0  0  0  0  0  0  0  0  0  0
   36.4280   27.4590   38.4390 N   0  0  0  0  0  0  0  0  0  0  0  0
  1  2  1  0  0  0  0
  2  3  2  0  0  0  0
  2 16  1  0  0  0  0
  3 17  1  0  0  0  0
  4  3  1  0  0  0  0
  5  4  2  0  0  0  0
  6  5  1  0  0  0  0
  6  1  2  0  0  0  0
  7 15  1  0  0  0  0
  7  5  1  0  0  0  0
  8  7  1  0  0  0  0
  9  8  2  0  0  0  0
  9 10  1  0  0  0  0
 10 15  1  0  0  0  0
 11 10  2  0  0  0  0
 11 12  1  0  0  0  0
 12 13  2  0  0  0  0
 13 14  1  0  0  0  0
 13 19  1  0  0  0  0
 15 14  2  0  0  0  0
 18  8  1  0  0  0  0
 20 11  1  0  0  0  0
 21 20  1  0  0  0  0
 22 20  1  0  0  0  0
 23  1  1  0  0  0  0
 24 23  1  0  0  0  0
 25 26  1  0  0  0  0
 25 24  1  0  0  0  0
 27 25  2  0  0  0  0
 28 27  1  0  0  0  0
 29 27  1  0  0  0  0
 29 31  1  0  0  0  0
 30 29  1  0  0  0  0
 31 24  2  0  0  0  0
M  END
>  <minimizedAffinity>
-5.67237282

$$$$

 OpenBabel03252504233D

 31 34  0  0  0  0  0  0  0  0999 V2000
   39.5310   27.3380   42.8500 C   0  0  0  0  0  0  0  0  0  0  0  0
   38.3320   27.3410   43.5540 C   0  0  0  0  0  0  0  0  0  0  0  0
   37.6220   28.5610   43.6590 C   0  0  0  0  0  0  0  0  0  0  0  0
   38.1790   29.6510   43.0540 N   0  0  0  0  0  0  0  0  0  0  0  0
   39.3530   29.5970   42.3790 C   0  0  0  0  0  0  0  0  0  0  0  0
   40.0160   28.4440   42.2840 N   0  0  0  0  0  0  0  0  0  0  0  0
   39.8340   30.8000   41.7920 N   0  0  0  0  0  0  0  0  0  0  0  0
   41.1140   31.2490   41.8480 C   0  0  0  0  0  0  0  0  0  0  0  0
   41.1720   32.4320   41.1710 N   0  0  0  0  0  0  0  0  0  0  0  0
   39.9380   32.6800   40.7210 C   0  0  0  0  0  0  0  0  0  0  0  0
   39.3790   33.6970   39.9900 C   0  0  0  0  0  0  0  0  0  0  0  0
   38.0920   33.7150   39.6580 N   0  0  0  0  0  0  0  0  0  0  0  0
   37.2400   32.7290   40.0210 C   0  0  0  0  0  0  0  0  0  0  0  0
   37.8070   31.7340   40.7430 N   0  0  0  0  0  0  0  0  0  0  0  0
   39.0800   31.6630   41.1000 C   0  0  0  0  0  0  0  0  0  0  0  0
   37.8620   26.4970   44.0450 H   0  0  0  0  0  0  0  0  0  0  0  0
   36.6970   28.6150   44.1890 H   0  0  0  0  0  0  0  0  0  0  0  0
   41.9810   30.7960   42.3280 H   0  0  0  0  0  0  0  0  0  0  0  0
   36.1930   32.7390   39.7560 H   0  0  0  0  0  0  0  0  0  0  0  0
   40.1270   34.8020   39.5340 N   0  0  0  0  0  0  0  0  0  0  0  0
   40.2850   35.1180   38.5400 H   0  0  0  0  0  0  0  0  0  0  0  0
   40.5550   35.3370   40.3390 H   0  0  0  0  0  0  0  0  0  0  0  0
   40.3700   25.7340   42.7760 S   0  0  0  0  0  0  0  0  0  0  0  0
   39.3110   24.5930   41.9010 C   0  0  0  0  0  0  0  0  0  0  0  0
   39.5400   24.3090   40.5500 C   0  0  0  0  0  0  0  0  0  0  0  0
   40.2920   24.6580   39.8290 H   0  0  0  0  0  0  0  0  0  0  0  0
   38.5710   23.3930   40.1240 C   0  0  0  0  0  0  0  0  0  0  0  0
   38.3640   22.9080   39.1880 H   0  0  0  0  0  0  0  0  0  0  0  0
   37.7990   23.1610   41.2270 N   0  0  0  0  0  0  0  0  0  0  0  0
   36.9550   22.5240   41.3200 H   0  0  0  0  0  0  0  0  0  0  0  0
   38.2230   23.8610   42.2790 N   0  0  0  0  0  0  0  0  0  0  0  0
  1  2  1  0  0  0  0
  2  3  2  0  0  0  0
  2 16  1  0  0  0  0
  3 17  1  0  0  0  0
  4  3  1  0  0  0  0
  5  4  2  0  0  0  0
  6  5  1  0  0  0  0
  6  1  2  0  0  0  0
  7  8  1  0  0  0  0
  7  5  1  0  0  0  0
  8 18  1  0  0  0  0
  9  8  2  0  0  0  0
 10 15  1  0  0  0  0
 10  9  1  0  0  0  0
 11 10  2  0  0  0  0
 12 11  1  0  0  0  0
 12 13  2  0  0  0  0
 13 14  1  0  0  0  0
 14 15  2  0  0  0  0
 15  7  1  0  0  0  0
 19 13  1  0  0  0  0
 20 11  1  0  0  0  0
 20 22  1  0  0  0  0
 21 20  1  0  0  0  0
 23  1  1  0  0  0  0
 24 31  2  0  0  0  0
 24 23  1  0  0  0  0
 25 24  1  0  0  0  0
 26 25  1  0  0  0  0
 27 25  2  0  0  0  0
 27 29  1  0  0  0  0
 28 27  1  0  0  0  0
 29 30  1  0  0  0  0
 29 31  1  0  0  0  0
M  END
>  <minimizedAffinity>
-5.66453266

$$$$

 OpenBabel03252504233D

 31 34  0  0  0  0  0  0  0  0999 V2000
   38.4580   29.4560   42.0610 C   0  0  0  0  0  0  0  0  0  0  0  0
   38.1850   29.0800   43.3720 C   0  0  0  0  0  0  0  0  0  0  0  0
   37.3930   27.9260   43.5850 C   0  0  0  0  0  0  0  0  0  0  0  0
   36.9550   27.2670   42.4720 N   0  0  0  0  0  0  0  0  0  0  0  0
   37.2480   27.6740   41.2140 C   0  0  0  0  0  0  0  0  0  0  0  0
   37.9940   28.7620   41.0210 N   0  0  0  0  0  0  0  0  0  0  0  0
   36.7330   26.9060   40.1330 N   0  0  0  0  0  0  0  0  0  0  0  0
   36.1480   27.4080   39.0150 C   0  0  0  0  0  0  0  0  0  0  0  0
   35.7860   26.3560   38.2250 N   0  0  0  0  0  0  0  0  0  0  0  0
   36.1520   25.2440   38.8700 C   0  0  0  0  0  0  0  0  0  0  0  0
   36.0560   23.9060   38.5880 C   0  0  0  0  0  0  0  0  0  0  0  0
   36.5080   22.9670   39.4120 N   0  0  0  0  0  0  0  0  0  0  0  0
   37.0960   23.2670   40.5930 C   0  0  0  0  0  0  0  0  0  0  0  0
   37.1830   24.5920   40.8570 N   0  0  0  0  0  0  0  0  0  0  0  0
   36.7510   25.5680   40.0740 C   0  0  0  0  0  0  0  0  0  0  0  0
   38.5150   29.5780   44.2760 H   0  0  0  0  0  0  0  0  0  0  0  0
   37.1560   27.5970   44.5730 H   0  0  0  0  0  0  0  0  0  0  0  0
   35.9720   28.4470   38.7400 H   0  0  0  0  0  0  0  0  0  0  0  0
   37.4650   22.5080   41.2680 H   0  0  0  0  0  0  0  0  0  0  0  0
   35.4690   23.4230   37.4000 N   0  0  0  0  0  0  0  0  0  0  0  0
   35.9120   22.8330   36.6460 H   0  0  0  0  0  0  0  0  0  0  0  0
   34.4590   23.7240   37.3180 H   0  0  0  0  0  0  0  0  0  0  0  0
   39.4710   30.9480   41.8890 S   0  0  0  0  0  0  0  0  0  0  0  0
   38.5150   32.1700   41.0050 C   0  0  0  0  0  0  0  0  0  0  0  0
   39.0800   33.4080   40.6780 C   0  0  0  0  0  0  0  0  0  0  0  0
   40.0700   33.8490   40.8560 H   0  0  0  0  0  0  0  0  0  0  0  0
   38.1180   34.1610   39.9950 C   0  0  0  0  0  0  0  0  0  0  0  0
   38.1080   35.1470   39.5660 H   0  0  0  0  0  0  0  0  0  0  0  0
   37.0170   33.3550   39.9360 N   0  0  0  0  0  0  0  0  0  0  0  0
   36.0710   33.5580   39.4980 H   0  0  0  0  0  0  0  0  0  0  0  0
   37.2370   32.1800   40.5270 N   0  0  0  0  0  0  0  0  0  0  0  0
  1  2  1  0  0  0  0
  2  3  2  0  0  0  0
  2 16  1  0  0  0  0
  3 17  1  0  0  0  0
  4  3  1  0  0  0  0
  5  4  2  0  0  0  0
  6  5  1  0  0  0  0
  6  1  2  0  0  0  0
  7  5  1  0  0  0  0
  8  7  1  0  0  0  0
  9 10  1  0  0  0  0
  9  8  2  0  0  0  0
 10 15  1  0  0  0  0
 11 10  2  0  0  0  0
 11 12  1  0  0  0  0
 12 13  2  0  0  0  0
 13 14  1  0  0  0  0
 13 19  1  0  0  0  0
 15  7  1  0  0  0  0
 15 14  2  0  0  0  0
 18  8  1  0  0  0  0
 20 11  1  0  0  0  0
 21 20  1  0  0  0  0
 22 20  1  0  0  0  0
 23  1  1  0  0  0  0
 24 23  1  0  0  0  0
 25 26  1  0  0  0  0
 25 24  1  0  0  0  0
 27 25  2  0  0  0  0
 28 27  1  0  0  0  0
 29 27  1  0  0  0  0
 29 31  1  0  0  0  0
 30 29  1  0  0  0  0
 31 24  2  0  0  0  0
M  END
>  <minimizedAffinity>
-5.65657425

$$$$

 OpenBabel03252504233D

 31 34  0  0  0  0  0  0  0  0999 V2000
   37.9840   29.4640   41.5570 C   0  0  0  0  0  0  0  0  0  0  0  0
   37.3050   28.8250   40.5260 C   0  0  0  0  0  0  0  0  0  0  0  0
   37.4450   29.3390   39.2140 C   0  0  0  0  0  0  0  0  0  0  0  0
   38.2470   30.4340   39.0660 N   0  0  0  0  0  0  0  0  0  0  0  0
   38.8880   31.0220   40.1050 C   0  0  0  0  0  0  0  0  0  0  0  0
   38.7510   30.5330   41.3370 N   0  0  0  0  0  0  0  0  0  0  0  0
   39.6940   32.1610   39.8250 N   0  0  0  0  0  0  0  0  0  0  0  0
   39.7150   33.3100   40.5480 C   0  0  0  0  0  0  0  0  0  0  0  0
   40.6090   34.1570   39.9600 N   0  0  0  0  0  0  0  0  0  0  0  0
   41.1100   33.5150   38.9000 C   0  0  0  0  0  0  0  0  0  0  0  0
   42.0300   33.8420   37.9370 C   0  0  0  0  0  0  0  0  0  0  0  0
   42.3700   33.0080   36.9600 N   0  0  0  0  0  0  0  0  0  0  0  0
   41.8290   31.7740   36.8450 C   0  0  0  0  0  0  0  0  0  0  0  0
   40.9220   31.4660   37.8030 N   0  0  0  0  0  0  0  0  0  0  0  0
   40.5470   32.2550   38.7970 C   0  0  0  0  0  0  0  0  0  0  0  0
   36.6630   27.9560   40.6070 H   0  0  0  0  0  0  0  0  0  0  0  0
   36.9440   28.8830   38.3890 H   0  0  0  0  0  0  0  0  0  0  0  0
   39.1490   33.5700   41.4420 H   0  0  0  0  0  0  0  0  0  0  0  0
   42.1000   31.0910   36.0520 H   0  0  0  0  0  0  0  0  0  0  0  0
   42.6860   35.0910   37.9100 N   0  0  0  0  0  0  0  0  0  0  0  0
   43.7210   35.2850   37.9680 H   0  0  0  0  0  0  0  0  0  0  0  0
   41.9970   35.8860   37.8170 H   0  0  0  0  0  0  0  0  0  0  0  0
   37.7370   28.7400   43.1990 S   0  0  0  0  0  0  0  0  0  0  0  0
   38.6820   27.2270   43.2870 C   0  0  0  0  0  0  0  0  0  0  0  0
   40.0040   27.2450   43.7480 C   0  0  0  0  0  0  0  0  0  0  0  0
   40.6620   28.0500   44.1020 H   0  0  0  0  0  0  0  0  0  0  0  0
   40.4980   25.9360   43.7120 C   0  0  0  0  0  0  0  0  0  0  0  0
   41.4410   25.4870   43.9660 H   0  0  0  0  0  0  0  0  0  0  0  0
   39.4630   25.1830   43.2350 N   0  0  0  0  0  0  0  0  0  0  0  0
   39.4330   24.1360   43.0590 H   0  0  0  0  0  0  0  0  0  0  0  0
   38.3890   25.9300   42.9810 N   0  0  0  0  0  0  0  0  0  0  0  0
  1 23  1  0  0  0  0
  2 16  1  0  0  0  0
  2  1  2  0  0  0  0
  3  2  1  0  0  0  0
  4  3  2  0  0  0  0
  4  5  1  0  0  0  0
  5  6  2  0  0  0  0
  6  1  1  0  0  0  0
  7  5  1  0  0  0  0
  7  8  1  0  0  0  0
  8 18  1  0  0  0  0
  9  8  2  0  0  0  0
 10  9  1  0  0  0  0
 11 10  2  0  0  0  0
 12 11  1  0  0  0  0
 13 12  2  0  0  0  0
 13 14  1  0  0  0  0
 14 15  2  0  0  0  0
 15 10  1  0  0  0  0
 15  7  1  0  0  0  0
 17  3  1  0  0  0  0
 19 13  1  0  0  0  0
 20 11  1  0  0  0  0
 20 21  1  0  0  0  0
 22 20  1  0  0  0  0
 23 24  1  0  0  0  0
 24 25  1  0  0  0  0
 25 26  1  0  0  0  0
 27 25  2  0  0  0  0
 27 28  1  0  0  0  0
 29 27  1  0  0  0  0
 30 29  1  0  0  0  0
 31 29  1  0  0  0  0
 31 24  2  0  0  0  0
M  END
>  <minimizedAffinity>
-5.63596582

$$$$

 OpenBabel03252504233D

 31 34  0  0  0  0  0  0  0  0999 V2000
   38.6350   26.4900   42.3900 C   0  0  0  0  0  0  0  0  0  0  0  0
   37.8440   27.0800   43.3680 C   0  0  0  0  0  0  0  0  0  0  0  0
   37.5880   28.4690   43.2720 C   0  0  0  0  0  0  0  0  0  0  0  0
   38.1460   29.1250   42.2120 N   0  0  0  0  0  0  0  0  0  0  0  0
   38.9120   28.5030   41.2830 C   0  0  0  0  0  0  0  0  0  0  0  0
   39.1490   27.1950   41.3810 N   0  0  0  0  0  0  0  0  0  0  0  0
   39.4410   29.2930   40.2250 N   0  0  0  0  0  0  0  0  0  0  0  0
   40.7160   29.2400   39.7620 C   0  0  0  0  0  0  0  0  0  0  0  0
   40.8310   30.1500   38.7510 N   0  0  0  0  0  0  0  0  0  0  0  0
   39.6360   30.7350   38.6200 C   0  0  0  0  0  0  0  0  0  0  0  0
   39.1400   31.7100   37.7930 C   0  0  0  0  0  0  0  0  0  0  0  0
   37.8810   32.1310   37.8590 N   0  0  0  0  0  0  0  0  0  0  0  0
   36.9980   31.6270   38.7510 C   0  0  0  0  0  0  0  0  0  0  0  0
   37.5040   30.6670   39.5610 N   0  0  0  0  0  0  0  0  0  0  0  0
   38.7460   30.2090   39.5390 C   0  0  0  0  0  0  0  0  0  0  0  0
   37.3860   26.5920   44.2200 H   0  0  0  0  0  0  0  0  0  0  0  0
   36.9860   28.9690   43.9980 H   0  0  0  0  0  0  0  0  0  0  0  0
   41.5420   28.6110   40.0910 H   0  0  0  0  0  0  0  0  0  0  0  0
   35.9740   31.9660   38.8100 H   0  0  0  0  0  0  0  0  0  0  0  0
   39.9280   32.3400   36.8080 N   0  0  0  0  0  0  0  0  0  0  0  0
   39.7750   32.3610   35.7640 H   0  0  0  0  0  0  0  0  0  0  0  0
   40.7580   32.8360   37.2360 H   0  0  0  0  0  0  0  0  0  0  0  0
   38.9130   24.7120   42.6020 S   0  0  0  0  0  0  0  0  0  0  0  0
   37.9520   23.8480   41.3690 C   0  0  0  0  0  0  0  0  0  0  0  0
   36.6940   24.3300   40.9880 C   0  0  0  0  0  0  0  0  0  0  0  0
   36.1000   25.1990   41.3000 H   0  0  0  0  0  0  0  0  0  0  0  0
   36.1710   23.4670   40.0170 C   0  0  0  0  0  0  0  0  0  0  0  0
   35.2550   23.4450   39.4550 H   0  0  0  0  0  0  0  0  0  0  0  0
   37.1260   22.5050   39.8510 N   0  0  0  0  0  0  0  0  0  0  0  0
   37.1130   21.6650   39.2010 H   0  0  0  0  0  0  0  0  0  0  0  0
   38.1790   22.7170   40.6400 N   0  0  0  0  0  0  0  0  0  0  0  0
  1 23  1  0  0  0  0
  1  2  1  0  0  0  0
  2 16  1  0  0  0  0
  3  2  2  0  0  0  0
  3 17  1  0  0  0  0
  4  3  1  0  0  0  0
  5  6  1  0  0  0  0
  5  4  2  0  0  0  0
  6  1  2  0  0  0  0
  7  5  1  0  0  0  0
  8 18  1  0  0  0  0
  8  7  1  0  0  0  0
  9  8  2  0  0  0  0
 10  9  1  0  0  0  0
 10 15  1  0  0  0  0
 11 12  1  0  0  0  0
 11 10  2  0  0  0  0
 12 13  2  0  0  0  0
 13 19  1  0  0  0  0
 13 14  1  0  0  0  0
 15 14  2  0  0  0  0
 15  7  1  0  0  0  0
 20 22  1  0  0  0  0
 20 11  1  0  0  0  0
 21 20  1  0  0  0  0
 24 23  1  0  0  0  0
 25 26  1  0  0  0  0
 25 24  1  0  0  0  0
 27 25  2  0  0  0  0
 28 27  1  0  0  0  0
 29 27  1  0  0  0  0
 29 31  1  0  0  0  0
 30 29  1  0  0  0  0
 31 24  2  0  0  0  0
M  END
>  <minimizedAffinity>
-5.56304598

$$$$
