
 OpenBabel03252509313D

 26 27  0  0  0  0  0  0  0  0999 V2000
   48.4260   33.5450   43.2900 O   0  0  0  0  0  0  0  0  0  0  0  0
   47.0900   33.2310   43.0430 C   0  0  0  0  0  0  0  0  0  0  0  0
   46.8350   33.2440   41.9690 H   0  0  0  0  0  0  0  0  0  0  0  0
   46.9580   32.1850   43.4090 H   0  0  0  0  0  0  0  0  0  0  0  0
   44.9610   34.5870   45.7860 C   0  0  0  0  0  0  0  0  0  0  0  0
   45.8420   33.7290   45.0840 C   0  0  0  0  0  0  0  0  0  0  0  0
   46.1860   34.0920   43.7920 C   0  0  0  0  0  0  0  0  0  0  0  0
   45.6630   35.2470   43.2690 N   0  0  0  0  0  0  0  0  0  0  0  0
   44.8210   36.0440   43.9740 C   0  0  0  0  0  0  0  0  0  0  0  0
   44.4760   35.7110   45.2220 N   0  0  0  0  0  0  0  0  0  0  0  0
   44.6400   34.3770   46.8020 H   0  0  0  0  0  0  0  0  0  0  0  0
   46.1960   32.8400   45.5910 H   0  0  0  0  0  0  0  0  0  0  0  0
   44.5140   36.9080   43.3980 H   0  0  0  0  0  0  0  0  0  0  0  0
   50.4050   32.9500   41.6960 O   0  0  0  0  0  0  0  0  0  0  0  0
   49.1590   33.7890   41.7750 P   0  0  2  0  0  0  0  0  0  0  0  0
   49.4680   35.4330   41.6400 O   0  0  0  0  0  0  0  0  0  0  0  0
   48.8750   35.9980   42.1740 H   0  0  0  0  0  0  0  0  0  0  0  0
   48.0870   33.2570   40.5970 O   0  0  0  0  0  0  0  0  0  0  0  0
   48.3710   33.4100   39.2450 C   0  0  0  0  0  0  0  0  0  0  0  0
   48.5950   32.6940   38.0730 C   0  0  0  0  0  0  0  0  0  0  0  0
   48.5340   31.6180   38.2430 H   0  0  0  0  0  0  0  0  0  0  0  0
   48.8250   33.6220   37.0730 C   0  0  0  0  0  0  0  0  0  0  0  0
   49.0160   33.1970   36.0970 H   0  0  0  0  0  0  0  0  0  0  0  0
   48.7420   34.8610   37.6220 N   0  0  0  0  0  0  0  0  0  0  0  0
   48.8890   35.6800   37.0100 H   0  0  0  0  0  0  0  0  0  0  0  0
   48.4700   34.7320   38.9240 N   0  0  0  0  0  0  0  0  0  0  0  0
  2  1  1  0  0  0  0
  2  4  1  0  0  0  0
  2  7  1  0  0  0  0
  3  2  1  0  0  0  0
  5 11  1  0  0  0  0
  6 12  1  0  0  0  0
  6  5  2  0  0  0  0
  7  6  1  0  0  0  0
  8  7  2  0  0  0  0
  8  9  1  0  0  0  0
  9 10  2  0  0  0  0
 10  5  1  0  0  0  0
 13  9  1  0  0  0  0
 15 14  2  6  0  0  0
 15  1  1  0  0  0  0
 16 15  1  0  0  0  0
 16 17  1  0  0  0  0
 18 15  1  0  0  0  0
 19 18  1  0  0  0  0
 20 21  1  0  0  0  0
 20 19  1  0  0  0  0
 22 24  1  0  0  0  0
 22 20  2  0  0  0  0
 23 22  1  0  0  0  0
 24 26  1  0  0  0  0
 25 24  1  0  0  0  0
 26 19  2  0  0  0  0
M  END
>  <minimizedAffinity>
-4.4475441

>  <minimizedRMSD>
2.42229128

$$$$
