
 OpenBabel03252503583D

 33 36  0  0  0  0  0  0  0  0999 V2000
   46.7080   35.0680   42.6950 C   0  0  0  0  0  0  0  0  0  0  0  0
   45.7830   36.1090   42.7070 C   0  0  0  0  0  0  0  0  0  0  0  0
   44.8320   36.1200   43.7110 C   0  0  0  0  0  0  0  0  0  0  0  0
   44.8370   35.1270   44.6350 N   0  0  0  0  0  0  0  0  0  0  0  0
   45.7530   34.1240   44.5980 C   0  0  0  0  0  0  0  0  0  0  0  0
   46.6890   34.0950   43.6270 N   0  0  0  0  0  0  0  0  0  0  0  0
   45.7550   36.9120   41.9850 H   0  0  0  0  0  0  0  0  0  0  0  0
   44.0880   36.9190   43.7560 H   0  0  0  0  0  0  0  0  0  0  0  0
   46.0890   31.7790   45.1760 C   0  0  0  0  0  0  0  0  0  0  0  0
   45.7550   33.0520   45.5970 C   0  0  0  0  0  0  0  0  0  0  0  0
   45.4370   33.2780   46.9280 C   0  0  0  0  0  0  0  0  0  0  0  0
   45.4640   32.2160   47.8080 C   0  0  0  0  0  0  0  0  0  0  0  0
   45.2100   32.1210   49.1290 N   0  0  0  0  0  0  0  0  0  0  0  0
   45.3670   30.8620   49.5570 C   0  0  0  0  0  0  0  0  0  0  0  0
   45.7420   30.0860   48.4700 C   0  0  0  0  0  0  0  0  0  0  0  0
   45.7990   30.9350   47.3860 C   0  0  0  0  0  0  0  0  0  0  0  0
   46.1110   30.7270   46.0650 C   0  0  0  0  0  0  0  0  0  0  0  0
   46.3340   31.6200   44.1360 H   0  0  0  0  0  0  0  0  0  0  0  0
   45.1760   34.2910   47.2450 H   0  0  0  0  0  0  0  0  0  0  0  0
   44.9260   32.9100   49.7660 H   0  0  0  0  0  0  0  0  0  0  0  0
   45.2480   30.4290   50.5470 H   0  0  0  0  0  0  0  0  0  0  0  0
   45.9610   29.0370   48.3950 H   0  0  0  0  0  0  0  0  0  0  0  0
   46.3820   29.7640   45.6590 H   0  0  0  0  0  0  0  0  0  0  0  0
   47.6890   35.0750   41.6420 C   0  0  0  0  0  0  0  0  0  0  0  0
   48.8050   35.6710   41.7060 O   0  0  0  0  0  0  0  0  0  0  0  0
   47.4080   34.3560   40.3980 C   0  0  0  0  0  0  0  0  0  0  0  0
   46.3430   33.5370   40.0860 C   0  0  0  0  0  0  0  0  0  0  0  0
   45.5610   33.3430   40.7970 H   0  0  0  0  0  0  0  0  0  0  0  0
   46.4570   33.0490   38.7950 C   0  0  0  0  0  0  0  0  0  0  0  0
   45.7630   32.3880   38.2960 H   0  0  0  0  0  0  0  0  0  0  0  0
   47.6040   33.5940   38.3530 N   0  0  0  0  0  0  0  0  0  0  0  0
   48.0000   33.4360   37.3990 H   0  0  0  0  0  0  0  0  0  0  0  0
   48.1730   34.3580   39.2690 N   0  0  0  0  0  0  0  0  0  0  0  0
  1  2  2  0  0  0  0
  1  6  1  0  0  0  0
  2  3  1  0  0  0  0
  3  8  1  0  0  0  0
  3  4  2  0  0  0  0
  5  4  1  0  0  0  0
  5 10  1  0  0  0  0
  6  5  2  0  0  0  0
  7  2  1  0  0  0  0
  9 10  2  0  0  0  0
  9 17  1  0  0  0  0
 10 11  1  0  0  0  0
 11 19  1  0  0  0  0
 11 12  2  0  0  0  0
 12 13  1  0  0  0  0
 13 14  1  0  0  0  0
 13 20  1  0  0  0  0
 14 21  1  0  0  0  0
 15 14  2  0  0  0  0
 16 12  1  0  0  0  0
 16 15  1  0  0  0  0
 17 16  2  0  0  0  0
 18  9  1  0  0  0  0
 22 15  1  0  0  0  0
 23 17  1  0  0  0  0
 24 25  2  0  0  0  0
 24  1  1  0  0  0  0
 26 24  1  0  0  0  0
 27 26  1  0  0  0  0
 27 28  1  0  0  0  0
 29 27  2  0  0  0  0
 30 29  1  0  0  0  0
 31 29  1  0  0  0  0
 31 33  1  0  0  0  0
 32 31  1  0  0  0  0
 33 26  2  0  0  0  0
M  END
>  <minimizedAffinity>
-6.02252579

>  <minimizedRMSD>
0.731236815

$$$$
