
 OpenBabel03252503593D

 33 36  0  0  0  0  0  0  0  0999 V2000
   46.7170   35.0310   42.6940 C   0  0  0  0  0  0  0  0  0  0  0  0
   45.8050   36.0820   42.7010 C   0  0  0  0  0  0  0  0  0  0  0  0
   44.8530   36.1090   43.7040 C   0  0  0  0  0  0  0  0  0  0  0  0
   44.8450   35.1200   44.6320 N   0  0  0  0  0  0  0  0  0  0  0  0
   45.7490   34.1060   44.6000 C   0  0  0  0  0  0  0  0  0  0  0  0
   46.6860   34.0620   43.6300 N   0  0  0  0  0  0  0  0  0  0  0  0
   45.7860   36.8830   41.9750 H   0  0  0  0  0  0  0  0  0  0  0  0
   44.1180   36.9180   43.7460 H   0  0  0  0  0  0  0  0  0  0  0  0
   46.0350   31.7560   45.1840 C   0  0  0  0  0  0  0  0  0  0  0  0
   45.7390   33.0390   45.6040 C   0  0  0  0  0  0  0  0  0  0  0  0
   45.4440   33.2780   46.9380 C   0  0  0  0  0  0  0  0  0  0  0  0
   45.4560   32.2190   47.8220 C   0  0  0  0  0  0  0  0  0  0  0  0
   45.2180   32.1360   49.1470 N   0  0  0  0  0  0  0  0  0  0  0  0
   45.3490   30.8760   49.5790 C   0  0  0  0  0  0  0  0  0  0  0  0
   45.6890   30.0860   48.4900 C   0  0  0  0  0  0  0  0  0  0  0  0
   45.7540   30.9290   47.4010 C   0  0  0  0  0  0  0  0  0  0  0  0
   46.0420   30.7080   46.0780 C   0  0  0  0  0  0  0  0  0  0  0  0
   46.2620   31.5860   44.1420 H   0  0  0  0  0  0  0  0  0  0  0  0
   45.2120   34.2980   47.2540 H   0  0  0  0  0  0  0  0  0  0  0  0
   44.9620   32.9350   49.7840 H   0  0  0  0  0  0  0  0  0  0  0  0
   45.2320   30.4490   50.5720 H   0  0  0  0  0  0  0  0  0  0  0  0
   45.8810   29.0320   48.4170 H   0  0  0  0  0  0  0  0  0  0  0  0
   46.2840   29.7360   45.6720 H   0  0  0  0  0  0  0  0  0  0  0  0
   47.6990   35.0210   41.6410 C   0  0  0  0  0  0  0  0  0  0  0  0
   48.6950   35.8010   41.5840 O   0  0  0  0  0  0  0  0  0  0  0  0
   47.5650   34.0580   40.5460 C   0  0  0  0  0  0  0  0  0  0  0  0
   46.4260   33.6280   39.8980 C   0  0  0  0  0  0  0  0  0  0  0  0
   45.4550   34.0000   40.1710 H   0  0  0  0  0  0  0  0  0  0  0  0
   46.7360   32.7060   38.9140 C   0  0  0  0  0  0  0  0  0  0  0  0
   46.0380   32.2080   38.2570 H   0  0  0  0  0  0  0  0  0  0  0  0
   48.0750   32.5990   38.9930 N   0  0  0  0  0  0  0  0  0  0  0  0
   48.6510   31.9770   38.3840 H   0  0  0  0  0  0  0  0  0  0  0  0
   48.5760   33.3780   39.9360 N   0  0  0  0  0  0  0  0  0  0  0  0
  1  2  2  0  0  0  0
  1  6  1  0  0  0  0
  2  3  1  0  0  0  0
  3  8  1  0  0  0  0
  3  4  2  0  0  0  0
  5  4  1  0  0  0  0
  5 10  1  0  0  0  0
  6  5  2  0  0  0  0
  7  2  1  0  0  0  0
  9 10  2  0  0  0  0
  9 17  1  0  0  0  0
 10 11  1  0  0  0  0
 11 19  1  0  0  0  0
 11 12  2  0  0  0  0
 12 13  1  0  0  0  0
 13 14  1  0  0  0  0
 13 20  1  0  0  0  0
 14 21  1  0  0  0  0
 15 14  2  0  0  0  0
 16 12  1  0  0  0  0
 16 15  1  0  0  0  0
 17 16  2  0  0  0  0
 18  9  1  0  0  0  0
 22 15  1  0  0  0  0
 23 17  1  0  0  0  0
 24  1  1  0  0  0  0
 25 24  2  0  0  0  0
 26 24  1  0  0  0  0
 27 28  1  0  0  0  0
 27 26  1  0  0  0  0
 29 31  1  0  0  0  0
 29 27  2  0  0  0  0
 30 29  1  0  0  0  0
 31 33  1  0  0  0  0
 32 31  1  0  0  0  0
 33 26  2  0  0  0  0
M  END
>  <minimizedAffinity>
-5.8223052

>  <minimizedRMSD>
0.453226537

$$$$
