
 OpenBabel03252503583D

 33 36  0  0  0  0  0  0  0  0999 V2000
   47.1090   35.0020   42.4960 C   0  0  0  0  0  0  0  0  0  0  0  0
   45.9530   35.7250   42.2120 C   0  0  0  0  0  0  0  0  0  0  0  0
   44.8620   35.5580   43.0460 C   0  0  0  0  0  0  0  0  0  0  0  0
   44.9590   34.7060   44.0960 N   0  0  0  0  0  0  0  0  0  0  0  0
   46.1010   34.0130   44.3480 C   0  0  0  0  0  0  0  0  0  0  0  0
   47.1760   34.1620   43.5470 N   0  0  0  0  0  0  0  0  0  0  0  0
   45.8460   36.4090   41.3830 H   0  0  0  0  0  0  0  0  0  0  0  0
   43.9360   36.1070   42.8570 H   0  0  0  0  0  0  0  0  0  0  0  0
   47.0770   32.0280   45.3740 C   0  0  0  0  0  0  0  0  0  0  0  0
   46.2030   33.0940   45.4840 C   0  0  0  0  0  0  0  0  0  0  0  0
   45.4600   33.2600   46.6430 C   0  0  0  0  0  0  0  0  0  0  0  0
   45.6140   32.3500   47.6690 C   0  0  0  0  0  0  0  0  0  0  0  0
   45.0460   32.2470   48.8880 N   0  0  0  0  0  0  0  0  0  0  0  0
   45.5160   31.1790   49.5450 C   0  0  0  0  0  0  0  0  0  0  0  0
   46.4370   30.5450   48.7240 C   0  0  0  0  0  0  0  0  0  0  0  0
   46.4920   31.2790   47.5590 C   0  0  0  0  0  0  0  0  0  0  0  0
   47.2200   31.1270   46.4060 C   0  0  0  0  0  0  0  0  0  0  0  0
   47.6480   31.9120   44.4650 H   0  0  0  0  0  0  0  0  0  0  0  0
   44.7740   34.1070   46.7140 H   0  0  0  0  0  0  0  0  0  0  0  0
   44.3290   32.9000   49.2970 H   0  0  0  0  0  0  0  0  0  0  0  0
   45.2830   30.7960   50.5360 H   0  0  0  0  0  0  0  0  0  0  0  0
   47.0300   29.6620   48.8810 H   0  0  0  0  0  0  0  0  0  0  0  0
   47.9230   30.3230   46.2430 H   0  0  0  0  0  0  0  0  0  0  0  0
   48.2320   35.1900   41.6160 C   0  0  0  0  0  0  0  0  0  0  0  0
   49.0660   36.1380   41.7110 O   0  0  0  0  0  0  0  0  0  0  0  0
   48.4540   34.2380   40.5250 C   0  0  0  0  0  0  0  0  0  0  0  0
   48.8830   32.9280   40.5850 C   0  0  0  0  0  0  0  0  0  0  0  0
   49.1100   32.4580   41.5240 H   0  0  0  0  0  0  0  0  0  0  0  0
   48.9610   32.3760   39.3190 C   0  0  0  0  0  0  0  0  0  0  0  0
   49.2690   31.3690   39.0750 H   0  0  0  0  0  0  0  0  0  0  0  0
   48.5720   33.3800   38.5120 N   0  0  0  0  0  0  0  0  0  0  0  0
   48.5120   33.3080   37.4720 H   0  0  0  0  0  0  0  0  0  0  0  0
   48.2720   34.4720   39.1950 N   0  0  0  0  0  0  0  0  0  0  0  0
  1  6  1  0  0  0  0
  2  1  2  0  0  0  0
  2  3  1  0  0  0  0
  3  4  2  0  0  0  0
  4  5  1  0  0  0  0
  5 10  1  0  0  0  0
  6  5  2  0  0  0  0
  7  2  1  0  0  0  0
  8  3  1  0  0  0  0
  9 10  2  0  0  0  0
  9 17  1  0  0  0  0
 10 11  1  0  0  0  0
 11 19  1  0  0  0  0
 11 12  2  0  0  0  0
 12 13  1  0  0  0  0
 13 20  1  0  0  0  0
 13 14  1  0  0  0  0
 14 21  1  0  0  0  0
 15 22  1  0  0  0  0
 15 14  2  0  0  0  0
 16 12  1  0  0  0  0
 16 15  1  0  0  0  0
 17 16  2  0  0  0  0
 18  9  1  0  0  0  0
 23 17  1  0  0  0  0
 24 25  2  0  0  0  0
 24  1  1  0  0  0  0
 26 27  1  0  0  0  0
 26 24  1  0  0  0  0
 27 28  1  0  0  0  0
 29 27  2  0  0  0  0
 30 29  1  0  0  0  0
 31 33  1  0  0  0  0
 31 29  1  0  0  0  0
 32 31  1  0  0  0  0
 33 26  2  0  0  0  0
M  END
>  <minimizedAffinity>
-5.96584654

>  <minimizedRMSD>
0.708631456

$$$$
