
 OpenBabel03252502463D

 44 47  0  0  1  0  0  0  0  0999 V2000
   48.9130   34.7050   41.5000 C   0  0  1  0  0  0  0  0  0  0  0  0
   50.0150   34.8840   42.4850 C   0  0  0  0  0  0  0  0  0  0  0  0
   49.3600   33.5670   42.2950 C   0  0  2  0  0  0  0  0  0  0  0  0
   49.1530   34.8010   40.4440 H   0  0  0  0  0  0  0  0  0  0  0  0
   51.0460   35.0870   42.0930 H   0  0  0  0  0  0  0  0  0  0  0  0
   49.7950   35.5230   43.3740 H   0  0  0  0  0  0  0  0  0  0  0  0
   48.8550   33.1730   43.1750 H   0  0  0  0  0  0  0  0  0  0  0  0
   50.1900   32.6300   41.5590 N   0  0  0  0  0  0  0  0  0  0  0  0
   49.6290   32.1800   40.3390 C   0  0  0  0  0  0  0  0  0  0  0  0
   50.6420   31.2240   39.7390 C   0  0  0  0  0  0  0  0  0  0  0  0
   50.8530   30.0830   40.5750 N   0  0  0  0  0  0  0  0  0  0  0  0
   50.6260   30.3320   41.9810 C   0  0  0  0  0  0  0  0  0  0  0  0
   50.9850   31.7660   42.3170 C   0  0  0  0  0  0  0  0  0  0  0  0
   48.7300   31.5640   40.5710 H   0  0  0  0  0  0  0  0  0  0  0  0
   49.4470   33.0170   39.6660 H   0  0  0  0  0  0  0  0  0  0  0  0
   50.2880   30.9410   38.7260 H   0  0  0  0  0  0  0  0  0  0  0  0
   51.5910   31.7720   39.6120 H   0  0  0  0  0  0  0  0  0  0  0  0
   51.7490   29.6120   40.3830 H   0  0  0  0  0  0  0  0  0  0  0  0
   51.3810   29.6930   42.5280 H   0  0  0  0  0  0  0  0  0  0  0  0
   49.6270   30.0670   42.3370 H   0  0  0  0  0  0  0  0  0  0  0  0
   52.0790   31.9100   42.1920 H   0  0  0  0  0  0  0  0  0  0  0  0
   50.7810   31.9050   43.4060 H   0  0  0  0  0  0  0  0  0  0  0  0
   47.5800   35.3010   41.8490 C   0  0  0  0  0  0  0  0  0  0  0  0
   47.6970   35.9870   42.7190 H   0  0  0  0  0  0  0  0  0  0  0  0
   47.1680   35.9560   41.0380 H   0  0  0  0  0  0  0  0  0  0  0  0
   46.6750   34.1570   42.1870 C   0  0  0  0  0  0  0  0  0  0  0  0
   47.0870   33.1620   42.1330 H   0  0  0  0  0  0  0  0  0  0  0  0
   45.8390   34.1740   41.4270 H   0  0  0  0  0  0  0  0  0  0  0  0
   44.4590   35.8530   44.6860 C   0  0  0  0  0  0  0  0  0  0  0  0
   45.1250   35.5550   43.4740 C   0  0  0  0  0  0  0  0  0  0  0  0
   45.9650   34.4800   43.4700 C   0  0  0  0  0  0  0  0  0  0  0  0
   46.1310   33.7510   44.5990 N   0  0  0  0  0  0  0  0  0  0  0  0
   45.5040   34.0410   45.7250 C   0  0  0  0  0  0  0  0  0  0  0  0
   44.6750   35.0810   45.7730 N   0  0  0  0  0  0  0  0  0  0  0  0
   43.7900   36.6840   44.7430 H   0  0  0  0  0  0  0  0  0  0  0  0
   44.9270   36.1930   42.6310 H   0  0  0  0  0  0  0  0  0  0  0  0
   45.7780   33.1610   46.8800 C   0  0  0  0  0  0  0  0  0  0  0  0
   46.8720   32.4080   47.1890 C   0  0  0  0  0  0  0  0  0  0  0  0
   47.7540   32.3470   46.5880 H   0  0  0  0  0  0  0  0  0  0  0  0
   46.6480   31.7490   48.3940 C   0  0  0  0  0  0  0  0  0  0  0  0
   47.3130   31.0710   48.9260 H   0  0  0  0  0  0  0  0  0  0  0  0
   45.4260   32.1160   48.7850 N   0  0  0  0  0  0  0  0  0  0  0  0
   44.8840   31.8330   49.6540 H   0  0  0  0  0  0  0  0  0  0  0  0
   44.9120   32.9400   47.9070 N   0  0  0  0  0  0  0  0  0  0  0  0
  1  4  1  6  0  0  0
  1 23  1  0  0  0  0
  1  3  1  0  0  0  0
  1  2  1  0  0  0  0
  2  6  1  0  0  0  0
  3  2  1  0  0  0  0
  3  7  1  1  0  0  0
  5  2  1  0  0  0  0
  8  3  1  0  0  0  0
  8 13  1  0  0  0  0
  9 14  1  0  0  0  0
  9  8  1  0  0  0  0
 10  9  1  0  0  0  0
 10 11  1  0  0  0  0
 11 12  1  0  0  0  0
 12 13  1  0  0  0  0
 12 20  1  0  0  0  0
 12 19  1  0  0  0  0
 13 22  1  0  0  0  0
 15  9  1  0  0  0  0
 16 10  1  0  0  0  0
 17 10  1  0  0  0  0
 18 11  1  0  0  0  0
 21 13  1  0  0  0  0
 23 26  1  0  0  0  0
 23 24  1  0  0  0  0
 25 23  1  0  0  0  0
 26 31  1  0  0  0  0
 27 26  1  0  0  0  0
 28 26  1  0  0  0  0
 29 35  1  0  0  0  0
 29 34  1  0  0  0  0
 30 29  2  0  0  0  0
 31 30  1  0  0  0  0
 31 32  2  0  0  0  0
 32 33  1  0  0  0  0
 33 34  2  0  0  0  0
 33 37  1  0  0  0  0
 36 30  1  0  0  0  0
 37 38  1  0  0  0  0
 37 44  2  0  0  0  0
 38 40  2  0  0  0  0
 39 38  1  0  0  0  0
 40 42  1  0  0  0  0
 40 41  1  0  0  0  0
 42 43  1  0  0  0  0
 44 42  1  0  0  0  0
M  END
>  <minimizedAffinity>
-5.76136351

>  <minimizedRMSD>
0.287675828

$$$$
