
 OpenBabel03252505053D

 42 45  0  0  1  0  0  0  0  0999 V2000
   44.5760   35.5820   44.6120 C   0  0  0  0  0  0  0  0  0  0  0  0
   45.2370   35.5960   43.3550 C   0  0  0  0  0  0  0  0  0  0  0  0
   46.3230   34.6820   43.1800 C   0  0  0  0  0  0  0  0  0  0  0  0
   46.6680   33.8610   44.2000 N   0  0  0  0  0  0  0  0  0  0  0  0
   46.0060   33.8920   45.3690 C   0  0  0  0  0  0  0  0  0  0  0  0
   44.9660   34.7420   45.5860 N   0  0  0  0  0  0  0  0  0  0  0  0
   43.7600   36.2750   44.7310 H   0  0  0  0  0  0  0  0  0  0  0  0
   44.9290   36.2710   42.5640 H   0  0  0  0  0  0  0  0  0  0  0  0
   46.4290   32.9720   46.4530 C   0  0  2  0  0  0  0  0  0  0  0  0
   46.9650   31.7450   45.7690 C   0  0  0  0  0  0  0  0  0  0  0  0
   46.0990   30.5540   45.7900 C   0  0  0  0  0  0  0  0  0  0  0  0
   45.8040   30.2950   47.2670 C   0  0  0  0  0  0  0  0  0  0  0  0
   45.0140   31.3590   47.8750 C   0  0  0  0  0  0  0  0  0  0  0  0
   45.3770   32.7340   47.4150 C   0  0  0  0  0  0  0  0  0  0  0  0
   47.2760   33.4950   46.9640 H   0  0  0  0  0  0  0  0  0  0  0  0
   47.2430   31.9400   44.7010 H   0  0  0  0  0  0  0  0  0  0  0  0
   47.9260   31.4680   46.2500 H   0  0  0  0  0  0  0  0  0  0  0  0
   45.2050   30.5700   45.1650 H   0  0  0  0  0  0  0  0  0  0  0  0
   46.7080   29.6830   45.4710 H   0  0  0  0  0  0  0  0  0  0  0  0
   46.7610   30.1460   47.7780 H   0  0  0  0  0  0  0  0  0  0  0  0
   45.1870   29.3930   47.2790 H   0  0  0  0  0  0  0  0  0  0  0  0
   44.2240   31.3500   48.5800 H   0  0  0  0  0  0  0  0  0  0  0  0
   44.6800   33.8780   47.9260 N   0  0  0  0  0  0  0  0  0  0  0  0
   45.0310   34.5410   48.6210 H   0  0  0  0  0  0  0  0  0  0  0  0
   43.7080   34.0450   47.5390 H   0  0  0  0  0  0  0  0  0  0  0  0
   47.0170   34.6730   41.9000 C   0  0  0  0  0  0  0  0  0  0  0  0
   48.1620   35.3940   41.7780 C   0  0  0  0  0  0  0  0  0  0  0  0
   48.7890   35.3490   40.5240 C   0  0  0  0  0  0  0  0  0  0  0  0
   48.1900   34.5860   39.5470 C   0  0  0  0  0  0  0  0  0  0  0  0
   47.0430   33.8660   39.6730 C   0  0  0  0  0  0  0  0  0  0  0  0
   46.4670   33.9390   40.9130 N   0  0  0  0  0  0  0  0  0  0  0  0
   48.6150   35.9810   42.5460 H   0  0  0  0  0  0  0  0  0  0  0  0
   49.7010   35.8950   40.3510 H   0  0  0  0  0  0  0  0  0  0  0  0
   48.7110   34.5840   38.5990 H   0  0  0  0  0  0  0  0  0  0  0  0
   46.4530   33.0830   38.6270 C   0  0  0  0  0  0  0  0  0  0  0  0
   47.0960   32.2860   37.7220 C   0  0  0  0  0  0  0  0  0  0  0  0
   48.1760   32.1370   37.6760 H   0  0  0  0  0  0  0  0  0  0  0  0
   46.0910   31.7400   36.9160 C   0  0  0  0  0  0  0  0  0  0  0  0
   46.3790   31.0670   36.1180 H   0  0  0  0  0  0  0  0  0  0  0  0
   44.9040   32.2130   37.3520 N   0  0  0  0  0  0  0  0  0  0  0  0
   44.0770   31.8660   36.8160 H   0  0  0  0  0  0  0  0  0  0  0  0
   45.1380   33.0140   38.3730 N   0  0  0  0  0  0  0  0  0  0  0  0
  1  7  1  0  0  0  0
  1  6  1  0  0  0  0
  2  1  2  0  0  0  0
  3  2  1  0  0  0  0
  3  4  2  0  0  0  0
  4  5  1  0  0  0  0
  5  6  2  0  0  0  0
  5  9  1  0  0  0  0
  8  2  1  0  0  0  0
  9 15  1  1  0  0  0
  9 14  1  0  0  0  0
 10 11  1  0  0  0  0
 10 17  1  0  0  0  0
 10  9  1  0  0  0  0
 11 12  1  0  0  0  0
 12 21  1  0  0  0  0
 12 20  1  0  0  0  0
 12 13  1  0  0  0  0
 13 22  1  0  0  0  0
 14 13  2  0  0  0  0
 14 23  1  0  0  0  0
 16 10  1  0  0  0  0
 18 11  1  0  0  0  0
 19 11  1  0  0  0  0
 23 24  1  0  0  0  0
 25 23  1  0  0  0  0
 26  3  1  0  0  0  0
 27 26  1  0  0  0  0
 27 32  1  0  0  0  0
 28 27  2  0  0  0  0
 29 30  2  0  0  0  0
 29 28  1  0  0  0  0
 30 31  1  0  0  0  0
 31 26  2  0  0  0  0
 33 28  1  0  0  0  0
 34 29  1  0  0  0  0
 35 30  1  0  0  0  0
 36 35  1  0  0  0  0
 37 36  1  0  0  0  0
 38 40  1  0  0  0  0
 38 36  2  0  0  0  0
 39 38  1  0  0  0  0
 40 42  1  0  0  0  0
 41 40  1  0  0  0  0
 42 35  2  0  0  0  0
M  END
>  <minimizedAffinity>
-7.16733503

>  <minimizedRMSD>
0.0525249206

$$$$
