
 OpenBabel03252508283D

 38 41  0  0  1  0  0  0  0  0999 V2000
   41.6670   33.6620   39.4250 N   0  0  0  0  0  0  0  0  0  0  0  0
   41.7930   33.2740   40.8330 C   0  0  2  0  0  0  0  0  0  0  0  0
   40.6180   33.6790   41.6470 C   0  0  0  0  0  0  0  0  0  0  0  0
   39.5070   34.1350   40.8290 N   0  0  0  0  0  0  0  0  0  0  0  0
   39.8370   35.1070   39.8530 C   0  0  0  0  0  0  0  0  0  0  0  0
   41.2990   35.0940   39.4760 C   0  0  2  0  0  0  0  0  0  0  0  0
   40.9330   33.1150   38.9370 H   0  0  0  0  0  0  0  0  0  0  0  0
   41.9320   32.1720   40.8940 H   0  0  0  0  0  0  0  0  0  0  0  0
   40.2050   32.7900   42.2080 H   0  0  0  0  0  0  0  0  0  0  0  0
   40.7440   34.5480   42.3140 H   0  0  0  0  0  0  0  0  0  0  0  0
   39.1110   33.2860   40.3300 H   0  0  0  0  0  0  0  0  0  0  0  0
   39.5990   36.1320   40.2310 H   0  0  0  0  0  0  0  0  0  0  0  0
   39.1930   34.9610   38.9490 H   0  0  0  0  0  0  0  0  0  0  0  0
   41.8720   35.5400   40.2890 H   0  0  0  0  0  0  0  0  0  0  0  0
   41.5440   35.7670   38.1900 C   0  0  0  0  0  0  0  0  0  0  0  0
   40.6580   36.4120   37.3740 C   0  0  0  0  0  0  0  0  0  0  0  0
   39.5960   36.5460   37.5360 H   0  0  0  0  0  0  0  0  0  0  0  0
   41.3320   36.8930   36.2670 C   0  0  0  0  0  0  0  0  0  0  0  0
   40.9440   37.4570   35.4120 H   0  0  0  0  0  0  0  0  0  0  0  0
   42.6200   36.5320   36.4260 N   0  0  0  0  0  0  0  0  0  0  0  0
   43.4490   36.7100   35.7960 H   0  0  0  0  0  0  0  0  0  0  0  0
   42.7380   35.8630   37.5700 N   0  0  0  0  0  0  0  0  0  0  0  0
   45.0530   34.3540   41.9370 C   0  0  0  0  0  0  0  0  0  0  0  0
   44.2010   35.3900   42.3260 C   0  0  0  0  0  0  0  0  0  0  0  0
   42.8980   35.0940   41.9630 C   0  0  0  0  0  0  0  0  0  0  0  0
   42.9840   33.9080   41.3690 N   0  0  0  0  0  0  0  0  0  0  0  0
   44.2380   33.4760   41.3540 N   0  0  0  0  0  0  0  0  0  0  0  0
   44.6450   36.2620   42.8440 H   0  0  0  0  0  0  0  0  0  0  0  0
   42.2340   35.8950   42.2730 H   0  0  0  0  0  0  0  0  0  0  0  0
   48.7450   35.0480   41.9380 C   0  0  0  0  0  0  0  0  0  0  0  0
   47.3670   35.2150   41.6040 C   0  0  0  0  0  0  0  0  0  0  0  0
   46.4960   34.3180   42.1720 C   0  0  0  0  0  0  0  0  0  0  0  0
   46.9650   33.3400   43.0020 N   0  0  0  0  0  0  0  0  0  0  0  0
   48.2820   33.2190   43.2910 C   0  0  0  0  0  0  0  0  0  0  0  0
   49.1400   34.0730   42.7540 N   0  0  0  0  0  0  0  0  0  0  0  0
   49.4350   35.7620   41.4860 H   0  0  0  0  0  0  0  0  0  0  0  0
   46.9960   35.9880   40.9500 H   0  0  0  0  0  0  0  0  0  0  0  0
   48.5410   32.4090   43.9590 H   0  0  0  0  0  0  0  0  0  0  0  0
  1  6  1  0  0  0  0
  1  2  1  0  0  0  0
  2  8  1  1  0  0  0
  2 26  1  0  0  0  0
  2  3  1  0  0  0  0
  3  9  1  0  0  0  0
  3 10  1  0  0  0  0
  4  3  1  0  0  0  0
  5 12  1  0  0  0  0
  5  4  1  0  0  0  0
  6  5  1  0  0  0  0
  6 14  1  1  0  0  0
  7  1  1  0  0  0  0
 11  4  1  0  0  0  0
 13  5  1  0  0  0  0
 15  6  1  0  0  0  0
 16 17  1  0  0  0  0
 16 15  1  0  0  0  0
 18 20  1  0  0  0  0
 18 16  2  0  0  0  0
 19 18  1  0  0  0  0
 20 22  1  0  0  0  0
 21 20  1  0  0  0  0
 22 15  2  0  0  0  0
 23 32  1  0  0  0  0
 23 24  1  0  0  0  0
 24 28  1  0  0  0  0
 25 29  1  0  0  0  0
 25 24  2  0  0  0  0
 26 25  1  0  0  0  0
 27 26  1  0  0  0  0
 27 23  2  0  0  0  0
 30 35  1  0  0  0  0
 31 30  2  0  0  0  0
 31 32  1  0  0  0  0
 32 33  2  0  0  0  0
 33 34  1  0  0  0  0
 34 38  1  0  0  0  0
 35 34  2  0  0  0  0
 36 30  1  0  0  0  0
 37 31  1  0  0  0  0
M  END
>  <minimizedAffinity>
-4.8468523

>  <minimizedRMSD>
1.32946479

$$$$
