
 OpenBabel03252508283D

 38 41  0  0  1  0  0  0  0  0999 V2000
   39.7220   33.5290   42.1240 N   0  0  0  0  0  0  0  0  0  0  0  0
   39.9460   34.6480   41.2030 C   0  0  2  0  0  0  0  0  0  0  0  0
   39.0810   34.5810   39.9980 C   0  0  0  0  0  0  0  0  0  0  0  0
   38.0380   33.5760   40.1190 N   0  0  0  0  0  0  0  0  0  0  0  0
   38.4810   32.2940   40.5270 C   0  0  0  0  0  0  0  0  0  0  0  0
   39.7990   32.3290   41.2610 C   0  0  2  0  0  0  0  0  0  0  0  0
   38.7950   33.5870   42.5850 H   0  0  0  0  0  0  0  0  0  0  0  0
   39.7670   35.6030   41.7430 H   0  0  0  0  0  0  0  0  0  0  0  0
   38.5190   35.5510   39.8640 H   0  0  0  0  0  0  0  0  0  0  0  0
   39.5550   34.2620   39.0550 H   0  0  0  0  0  0  0  0  0  0  0  0
   37.3400   33.9290   40.8370 H   0  0  0  0  0  0  0  0  0  0  0  0
   38.6120   31.6290   39.6370 H   0  0  0  0  0  0  0  0  0  0  0  0
   37.6900   31.8080   41.1530 H   0  0  0  0  0  0  0  0  0  0  0  0
   40.5950   32.5080   40.5380 H   0  0  0  0  0  0  0  0  0  0  0  0
   40.0260   31.1050   42.0470 C   0  0  0  0  0  0  0  0  0  0  0  0
   41.0830   30.7790   42.8480 C   0  0  0  0  0  0  0  0  0  0  0  0
   41.9610   31.3800   43.0490 H   0  0  0  0  0  0  0  0  0  0  0  0
   40.8700   29.5250   43.3890 C   0  0  0  0  0  0  0  0  0  0  0  0
   41.5040   28.9490   44.0720 H   0  0  0  0  0  0  0  0  0  0  0  0
   39.6840   29.1070   42.9080 N   0  0  0  0  0  0  0  0  0  0  0  0
   39.1700   28.2000   43.0860 H   0  0  0  0  0  0  0  0  0  0  0  0
   39.1880   30.0500   42.1120 N   0  0  0  0  0  0  0  0  0  0  0  0
   43.5290   34.5610   40.7890 C   0  0  0  0  0  0  0  0  0  0  0  0
   43.0350   34.5530   39.4820 C   0  0  0  0  0  0  0  0  0  0  0  0
   41.6510   34.5920   39.4990 C   0  0  0  0  0  0  0  0  0  0  0  0
   41.3380   34.6180   40.7910 N   0  0  0  0  0  0  0  0  0  0  0  0
   42.4310   34.6000   41.5420 N   0  0  0  0  0  0  0  0  0  0  0  0
   43.7640   34.5200   38.6500 H   0  0  0  0  0  0  0  0  0  0  0  0
   41.2660   34.5940   38.4840 H   0  0  0  0  0  0  0  0  0  0  0  0
   47.2430   34.0030   40.8790 C   0  0  0  0  0  0  0  0  0  0  0  0
   45.9050   33.9260   40.3880 C   0  0  0  0  0  0  0  0  0  0  0  0
   44.9450   34.5420   41.1520 C   0  0  0  0  0  0  0  0  0  0  0  0
   45.2970   35.1810   42.3070 N   0  0  0  0  0  0  0  0  0  0  0  0
   46.5800   35.2300   42.7350 C   0  0  0  0  0  0  0  0  0  0  0  0
   47.5220   34.6410   42.0140 N   0  0  0  0  0  0  0  0  0  0  0  0
   48.0040   33.5120   40.2700 H   0  0  0  0  0  0  0  0  0  0  0  0
   45.6260   33.4220   39.4760 H   0  0  0  0  0  0  0  0  0  0  0  0
   46.7440   35.7610   43.6620 H   0  0  0  0  0  0  0  0  0  0  0  0
  1  7  1  0  0  0  0
  2  8  1  1  0  0  0
  2  1  1  0  0  0  0
  3  4  1  0  0  0  0
  3  2  1  0  0  0  0
  4  5  1  0  0  0  0
  4 11  1  0  0  0  0
  5 13  1  0  0  0  0
  5  6  1  0  0  0  0
  6 14  1  6  0  0  0
  6 15  1  0  0  0  0
  6  1  1  0  0  0  0
  9  3  1  0  0  0  0
 10  3  1  0  0  0  0
 12  5  1  0  0  0  0
 15 22  2  0  0  0  0
 15 16  1  0  0  0  0
 16 17  1  0  0  0  0
 16 18  2  0  0  0  0
 18 19  1  0  0  0  0
 20 21  1  0  0  0  0
 20 18  1  0  0  0  0
 22 20  1  0  0  0  0
 23 32  1  0  0  0  0
 23 27  2  0  0  0  0
 24 25  2  0  0  0  0
 24 23  1  0  0  0  0
 25 26  1  0  0  0  0
 26  2  1  0  0  0  0
 26 27  1  0  0  0  0
 28 24  1  0  0  0  0
 29 25  1  0  0  0  0
 30 35  1  0  0  0  0
 31 30  2  0  0  0  0
 31 32  1  0  0  0  0
 32 33  2  0  0  0  0
 33 34  1  0  0  0  0
 34 38  1  0  0  0  0
 35 34  2  0  0  0  0
 36 30  1  0  0  0  0
 37 31  1  0  0  0  0
M  END
>  <minimizedAffinity>
-6.04166269

>  <minimizedRMSD>
4.95005846

$$$$
