
 OpenBabel03252508283D

 38 41  0  0  1  0  0  0  0  0999 V2000
   41.6640   33.6640   39.4260 N   0  0  0  0  0  0  0  0  0  0  0  0
   41.7900   33.2770   40.8340 C   0  0  2  0  0  0  0  0  0  0  0  0
   40.6160   33.6830   41.6480 C   0  0  0  0  0  0  0  0  0  0  0  0
   39.5050   34.1390   40.8300 N   0  0  0  0  0  0  0  0  0  0  0  0
   39.8350   35.1100   39.8540 C   0  0  0  0  0  0  0  0  0  0  0  0
   41.2970   35.0970   39.4760 C   0  0  2  0  0  0  0  0  0  0  0  0
   40.9300   33.1180   38.9380 H   0  0  0  0  0  0  0  0  0  0  0  0
   41.9280   32.1740   40.8950 H   0  0  0  0  0  0  0  0  0  0  0  0
   40.2020   32.7950   42.2090 H   0  0  0  0  0  0  0  0  0  0  0  0
   40.7430   34.5520   42.3150 H   0  0  0  0  0  0  0  0  0  0  0  0
   39.1080   33.2900   40.3310 H   0  0  0  0  0  0  0  0  0  0  0  0
   39.5980   36.1360   40.2310 H   0  0  0  0  0  0  0  0  0  0  0  0
   39.1910   34.9650   38.9500 H   0  0  0  0  0  0  0  0  0  0  0  0
   41.8700   35.5430   40.2890 H   0  0  0  0  0  0  0  0  0  0  0  0
   41.5420   35.7690   38.1900 C   0  0  0  0  0  0  0  0  0  0  0  0
   40.6570   36.4130   37.3730 C   0  0  0  0  0  0  0  0  0  0  0  0
   39.5960   36.5470   37.5340 H   0  0  0  0  0  0  0  0  0  0  0  0
   41.3330   36.8930   36.2660 C   0  0  0  0  0  0  0  0  0  0  0  0
   40.9450   37.4550   35.4100 H   0  0  0  0  0  0  0  0  0  0  0  0
   42.6200   36.5320   36.4250 N   0  0  0  0  0  0  0  0  0  0  0  0
   43.4500   36.7110   35.7970 H   0  0  0  0  0  0  0  0  0  0  0  0
   42.7370   35.8640   37.5710 N   0  0  0  0  0  0  0  0  0  0  0  0
   45.0510   34.3540   41.9370 C   0  0  0  0  0  0  0  0  0  0  0  0
   44.2000   35.3920   42.3250 C   0  0  0  0  0  0  0  0  0  0  0  0
   42.8970   35.0970   41.9630 C   0  0  0  0  0  0  0  0  0  0  0  0
   42.9820   33.9100   41.3690 N   0  0  0  0  0  0  0  0  0  0  0  0
   44.2350   33.4770   41.3550 N   0  0  0  0  0  0  0  0  0  0  0  0
   44.6450   36.2640   42.8420 H   0  0  0  0  0  0  0  0  0  0  0  0
   42.2340   35.8990   42.2710 H   0  0  0  0  0  0  0  0  0  0  0  0
   48.7440   35.0460   41.9380 C   0  0  0  0  0  0  0  0  0  0  0  0
   47.3660   35.2140   41.6050 C   0  0  0  0  0  0  0  0  0  0  0  0
   46.4940   34.3180   42.1720 C   0  0  0  0  0  0  0  0  0  0  0  0
   46.9620   33.3390   43.0020 N   0  0  0  0  0  0  0  0  0  0  0  0
   48.2790   33.2170   43.2920 C   0  0  0  0  0  0  0  0  0  0  0  0
   49.1370   34.0700   42.7550 N   0  0  0  0  0  0  0  0  0  0  0  0
   49.4350   35.7580   41.4860 H   0  0  0  0  0  0  0  0  0  0  0  0
   46.9950   35.9860   40.9500 H   0  0  0  0  0  0  0  0  0  0  0  0
   48.5380   32.4070   43.9600 H   0  0  0  0  0  0  0  0  0  0  0  0
  1  6  1  0  0  0  0
  1  2  1  0  0  0  0
  2  8  1  1  0  0  0
  2 26  1  0  0  0  0
  2  3  1  0  0  0  0
  3  9  1  0  0  0  0
  3 10  1  0  0  0  0
  4  3  1  0  0  0  0
  5 12  1  0  0  0  0
  5  4  1  0  0  0  0
  6  5  1  0  0  0  0
  6 14  1  1  0  0  0
  7  1  1  0  0  0  0
 11  4  1  0  0  0  0
 13  5  1  0  0  0  0
 15  6  1  0  0  0  0
 16 17  1  0  0  0  0
 16 15  1  0  0  0  0
 18 20  1  0  0  0  0
 18 16  2  0  0  0  0
 19 18  1  0  0  0  0
 20 22  1  0  0  0  0
 21 20  1  0  0  0  0
 22 15  2  0  0  0  0
 23 32  1  0  0  0  0
 23 24  1  0  0  0  0
 24 28  1  0  0  0  0
 25 29  1  0  0  0  0
 25 24  2  0  0  0  0
 26 25  1  0  0  0  0
 27 26  1  0  0  0  0
 27 23  2  0  0  0  0
 30 35  1  0  0  0  0
 31 30  2  0  0  0  0
 31 32  1  0  0  0  0
 32 33  2  0  0  0  0
 33 34  1  0  0  0  0
 34 38  1  0  0  0  0
 35 34  2  0  0  0  0
 36 30  1  0  0  0  0
 37 31  1  0  0  0  0
M  END
>  <minimizedAffinity>
-4.84684753

>  <minimizedRMSD>
1.39387131

$$$$
