
 OpenBabel03242512073D

 26 28  0  0  1  0  0  0  0  0999 V2000
   37.6690   28.1170   42.3010 C   0  0  1  0  0  0  0  0  0  0  0  0
   36.9370   27.7560   43.6350 C   0  0  0  0  0  0  0  0  0  0  0  0
   37.0780   26.8140   42.4930 C   0  0  2  0  0  0  0  0  0  0  0  0
   38.6540   28.5200   42.6490 H   0  0  0  0  0  0  0  0  0  0  0  0
   35.9730   28.2380   43.8240 H   0  0  0  0  0  0  0  0  0  0  0  0
   37.5380   27.5450   44.5270 H   0  0  0  0  0  0  0  0  0  0  0  0
   36.1360   26.6210   41.9400 H   0  0  0  0  0  0  0  0  0  0  0  0
   38.0270   25.6720   42.5840 C   0  0  0  0  0  0  0  0  0  0  0  0
   39.3380   25.6530   43.0260 C   0  0  0  0  0  0  0  0  0  0  0  0
   39.8900   26.5010   43.3850 H   0  0  0  0  0  0  0  0  0  0  0  0
   39.7890   24.3570   42.9170 C   0  0  0  0  0  0  0  0  0  0  0  0
   40.7650   23.9450   43.1650 H   0  0  0  0  0  0  0  0  0  0  0  0
   38.7840   23.6210   42.4260 N   0  0  0  0  0  0  0  0  0  0  0  0
   38.7120   22.6010   42.1960 H   0  0  0  0  0  0  0  0  0  0  0  0
   37.7480   24.3850   42.2290 N   0  0  0  0  0  0  0  0  0  0  0  0
   36.9480   29.1710   41.5220 C   0  0  0  0  0  0  0  0  0  0  0  0
   35.8060   28.8850   41.1390 O   0  0  0  0  0  0  0  0  0  0  0  0
   36.7760   31.3940   40.5280 C   0  0  0  0  0  0  0  0  0  0  0  0
   37.4860   30.4500   41.2150 C   0  0  0  0  0  0  0  0  0  0  0  0
   38.7880   30.7790   41.6300 C   0  0  0  0  0  0  0  0  0  0  0  0
   39.2980   31.9940   41.3490 N   0  0  0  0  0  0  0  0  0  0  0  0
   38.5610   32.9230   40.6580 C   0  0  0  0  0  0  0  0  0  0  0  0
   37.3340   32.6050   40.2700 N   0  0  0  0  0  0  0  0  0  0  0  0
   35.7700   31.2290   40.1710 H   0  0  0  0  0  0  0  0  0  0  0  0
   39.3650   30.0450   42.1740 H   0  0  0  0  0  0  0  0  0  0  0  0
   39.0030   33.8980   40.4470 H   0  0  0  0  0  0  0  0  0  0  0  0
  1  3  1  0  0  0  0
  1  4  1  1  0  0  0
  1  2  1  0  0  0  0
  2  5  1  0  0  0  0
  2  6  1  0  0  0  0
  3  7  1  6  0  0  0
  3  8  1  0  0  0  0
  3  2  1  0  0  0  0
  8  9  1  0  0  0  0
  9 10  1  0  0  0  0
 11  9  2  0  0  0  0
 11 12  1  0  0  0  0
 13 11  1  0  0  0  0
 14 13  1  0  0  0  0
 15 13  1  0  0  0  0
 15  8  2  0  0  0  0
 16  1  1  0  0  0  0
 17 16  2  0  0  0  0
 18 19  1  0  0  0  0
 19 16  1  0  0  0  0
 19 20  2  0  0  0  0
 20 25  1  0  0  0  0
 21 20  1  0  0  0  0
 22 21  2  0  0  0  0
 23 18  2  0  0  0  0
 23 22  1  0  0  0  0
 24 18  1  0  0  0  0
 26 22  1  0  0  0  0
M  END
>  <minimizedAffinity>
-4.93267393

$$$$

 OpenBabel03242512073D

 26 28  0  0  1  0  0  0  0  0999 V2000
   37.3960   28.9390   41.3540 C   0  0  1  0  0  0  0  0  0  0  0  0
   35.8740   28.9020   40.9950 C   0  0  0  0  0  0  0  0  0  0  0  0
   36.6200   30.1540   41.2900 C   0  0  2  0  0  0  0  0  0  0  0  0
   37.8680   28.3410   40.5320 H   0  0  0  0  0  0  0  0  0  0  0  0
   35.1930   28.4880   41.7440 H   0  0  0  0  0  0  0  0  0  0  0  0
   35.5810   28.7360   39.9520 H   0  0  0  0  0  0  0  0  0  0  0  0
   36.3650   30.6200   42.2650 H   0  0  0  0  0  0  0  0  0  0  0  0
   36.9630   31.0930   40.1890 C   0  0  0  0  0  0  0  0  0  0  0  0
   36.9840   30.8730   38.8230 C   0  0  0  0  0  0  0  0  0  0  0  0
   36.7460   29.9480   38.3340 H   0  0  0  0  0  0  0  0  0  0  0  0
   37.3660   32.0520   38.2240 C   0  0  0  0  0  0  0  0  0  0  0  0
   37.4970   32.2760   37.1670 H   0  0  0  0  0  0  0  0  0  0  0  0
   37.5670   32.9520   39.1950 N   0  0  0  0  0  0  0  0  0  0  0  0
   37.8610   33.9560   39.1680 H   0  0  0  0  0  0  0  0  0  0  0  0
   37.3330   32.3960   40.3500 N   0  0  0  0  0  0  0  0  0  0  0  0
   37.6870   28.2910   42.6700 C   0  0  0  0  0  0  0  0  0  0  0  0
   37.3360   28.9160   43.6800 O   0  0  0  0  0  0  0  0  0  0  0  0
   39.4680   26.8670   43.5420 C   0  0  0  0  0  0  0  0  0  0  0  0
   38.3190   27.0270   42.8200 C   0  0  0  0  0  0  0  0  0  0  0  0
   37.7550   25.8880   42.2190 C   0  0  0  0  0  0  0  0  0  0  0  0
   38.3460   24.6860   42.3660 N   0  0  0  0  0  0  0  0  0  0  0  0
   39.5000   24.5550   43.0980 C   0  0  0  0  0  0  0  0  0  0  0  0
   40.0260   25.6340   43.6620 N   0  0  0  0  0  0  0  0  0  0  0  0
   39.9710   27.6840   44.0360 H   0  0  0  0  0  0  0  0  0  0  0  0
   36.8470   25.9960   41.6440 H   0  0  0  0  0  0  0  0  0  0  0  0
   39.9530   23.5680   43.1980 H   0  0  0  0  0  0  0  0  0  0  0  0
  1  4  1  6  0  0  0
  1 16  1  0  0  0  0
  2  3  1  0  0  0  0
  2  1  1  0  0  0  0
  2  5  1  0  0  0  0
  3  1  1  0  0  0  0
  3  7  1  1  0  0  0
  6  2  1  0  0  0  0
  8 15  2  0  0  0  0
  8  3  1  0  0  0  0
  9  8  1  0  0  0  0
 10  9  1  0  0  0  0
 11  9  2  0  0  0  0
 11 13  1  0  0  0  0
 12 11  1  0  0  0  0
 13 15  1  0  0  0  0
 14 13  1  0  0  0  0
 16 19  1  0  0  0  0
 16 17  2  0  0  0  0
 18 23  1  0  0  0  0
 18 24  1  0  0  0  0
 19 18  2  0  0  0  0
 20 21  2  0  0  0  0
 20 19  1  0  0  0  0
 21 22  1  0  0  0  0
 22 26  1  0  0  0  0
 22 23  2  0  0  0  0
 25 20  1  0  0  0  0
M  END
>  <minimizedAffinity>
-4.68271399

$$$$

 OpenBabel03242512073D

 26 28  0  0  1  0  0  0  0  0999 V2000
   38.0070   27.6530   42.7040 C   0  0  1  0  0  0  0  0  0  0  0  0
   36.6320   27.3170   43.3680 C   0  0  0  0  0  0  0  0  0  0  0  0
   37.0150   26.8740   42.0020 C   0  0  2  0  0  0  0  0  0  0  0  0
   38.7510   27.3400   43.4820 H   0  0  0  0  0  0  0  0  0  0  0  0
   35.9210   28.1390   43.4930 H   0  0  0  0  0  0  0  0  0  0  0  0
   36.5950   26.5440   44.1460 H   0  0  0  0  0  0  0  0  0  0  0  0
   36.4770   27.3970   41.1830 H   0  0  0  0  0  0  0  0  0  0  0  0
   37.3600   25.4500   41.7510 C   0  0  0  0  0  0  0  0  0  0  0  0
   36.8050   24.5590   40.8490 C   0  0  0  0  0  0  0  0  0  0  0  0
   36.0070   24.7750   40.1650 H   0  0  0  0  0  0  0  0  0  0  0  0
   37.4670   23.3600   40.9960 C   0  0  0  0  0  0  0  0  0  0  0  0
   37.3170   22.4220   40.4660 H   0  0  0  0  0  0  0  0  0  0  0  0
   38.3880   23.5240   41.9550 N   0  0  0  0  0  0  0  0  0  0  0  0
   39.0930   22.8670   42.3660 H   0  0  0  0  0  0  0  0  0  0  0  0
   38.3310   24.7460   42.4010 N   0  0  0  0  0  0  0  0  0  0  0  0
   38.1640   29.1140   42.4260 C   0  0  0  0  0  0  0  0  0  0  0  0
   38.7090   29.7860   43.3120 O   0  0  0  0  0  0  0  0  0  0  0  0
   36.6110   30.5160   41.1690 C   0  0  0  0  0  0  0  0  0  0  0  0
   37.7420   29.7520   41.2290 C   0  0  0  0  0  0  0  0  0  0  0  0
   38.5050   29.6130   40.0560 C   0  0  0  0  0  0  0  0  0  0  0  0
   38.1130   30.2250   38.9210 N   0  0  0  0  0  0  0  0  0  0  0  0
   36.9710   30.9870   38.8910 C   0  0  0  0  0  0  0  0  0  0  0  0
   36.2580   31.1130   40.0010 N   0  0  0  0  0  0  0  0  0  0  0  0
   35.9650   30.6780   42.0190 H   0  0  0  0  0  0  0  0  0  0  0  0
   39.4020   29.0130   40.0840 H   0  0  0  0  0  0  0  0  0  0  0  0
   36.6820   31.4690   37.9560 H   0  0  0  0  0  0  0  0  0  0  0  0
  1  2  1  0  0  0  0
  1  4  1  1  0  0  0
  2  5  1  0  0  0  0
  2  6  1  0  0  0  0
  3  7  1  6  0  0  0
  3  1  1  0  0  0  0
  3  2  1  0  0  0  0
  8  3  1  0  0  0  0
  8 15  2  0  0  0  0
  9 11  2  0  0  0  0
  9  8  1  0  0  0  0
 10  9  1  0  0  0  0
 11 13  1  0  0  0  0
 12 11  1  0  0  0  0
 13 14  1  0  0  0  0
 13 15  1  0  0  0  0
 16  1  1  0  0  0  0
 16 17  2  0  0  0  0
 18 19  1  0  0  0  0
 18 24  1  0  0  0  0
 19 16  1  0  0  0  0
 20 25  1  0  0  0  0
 20 19  2  0  0  0  0
 21 20  1  0  0  0  0
 22 21  2  0  0  0  0
 22 23  1  0  0  0  0
 23 18  2  0  0  0  0
 26 22  1  0  0  0  0
M  END
>  <minimizedAffinity>
-4.64106798

$$$$

 OpenBabel03242512073D

 26 28  0  0  1  0  0  0  0  0999 V2000
   36.9030   26.9190   42.0690 C   0  0  1  0  0  0  0  0  0  0  0  0
   36.5580   27.5240   43.4690 C   0  0  0  0  0  0  0  0  0  0  0  0
   37.5060   28.1530   42.5120 C   0  0  2  0  0  0  0  0  0  0  0  0
   35.8960   26.7310   41.6150 H   0  0  0  0  0  0  0  0  0  0  0  0
   36.9430   27.0020   44.3500 H   0  0  0  0  0  0  0  0  0  0  0  0
   35.5910   28.0220   43.6060 H   0  0  0  0  0  0  0  0  0  0  0  0
   38.5720   28.0930   42.8160 H   0  0  0  0  0  0  0  0  0  0  0  0
   37.1090   29.3790   41.7690 C   0  0  0  0  0  0  0  0  0  0  0  0
   37.8740   30.4750   41.4110 C   0  0  0  0  0  0  0  0  0  0  0  0
   38.9160   30.6080   41.6280 H   0  0  0  0  0  0  0  0  0  0  0  0
   37.0510   31.3470   40.7340 C   0  0  0  0  0  0  0  0  0  0  0  0
   37.2850   32.3150   40.2970 H   0  0  0  0  0  0  0  0  0  0  0  0
   35.8310   30.7950   40.6860 N   0  0  0  0  0  0  0  0  0  0  0  0
   34.9300   31.1260   40.2670 H   0  0  0  0  0  0  0  0  0  0  0  0
   35.8580   29.6410   41.2910 N   0  0  0  0  0  0  0  0  0  0  0  0
   37.6500   25.6280   42.1740 C   0  0  0  0  0  0  0  0  0  0  0  0
   36.9620   24.6000   42.2470 O   0  0  0  0  0  0  0  0  0  0  0  0
   39.7780   25.3670   43.3410 C   0  0  0  0  0  0  0  0  0  0  0  0
   39.0660   25.5190   42.1850 C   0  0  0  0  0  0  0  0  0  0  0  0
   39.7800   25.5580   40.9730 C   0  0  0  0  0  0  0  0  0  0  0  0
   41.1220   25.4450   40.9780 N   0  0  0  0  0  0  0  0  0  0  0  0
   41.8110   25.2920   42.1570 C   0  0  0  0  0  0  0  0  0  0  0  0
   41.1320   25.2570   43.2940 N   0  0  0  0  0  0  0  0  0  0  0  0
   39.3150   25.3260   44.3160 H   0  0  0  0  0  0  0  0  0  0  0  0
   39.2340   25.6770   40.0490 H   0  0  0  0  0  0  0  0  0  0  0  0
   42.8980   25.2040   42.1250 H   0  0  0  0  0  0  0  0  0  0  0  0
  1  4  1  6  0  0  0
  1 16  1  0  0  0  0
  1  3  1  0  0  0  0
  1  2  1  0  0  0  0
  2  6  1  0  0  0  0
  2  5  1  0  0  0  0
  3  7  1  1  0  0  0
  3  2  1  0  0  0  0
  8  3  1  0  0  0  0
  9 10  1  0  0  0  0
  9  8  1  0  0  0  0
 11  9  2  0  0  0  0
 12 11  1  0  0  0  0
 13 11  1  0  0  0  0
 13 15  1  0  0  0  0
 14 13  1  0  0  0  0
 15  8  2  0  0  0  0
 16 19  1  0  0  0  0
 16 17  2  0  0  0  0
 18 24  1  0  0  0  0
 19 18  2  0  0  0  0
 20 21  2  0  0  0  0
 20 19  1  0  0  0  0
 21 22  1  0  0  0  0
 22 23  2  0  0  0  0
 23 18  1  0  0  0  0
 25 20  1  0  0  0  0
 26 22  1  0  0  0  0
M  END
>  <minimizedAffinity>
-4.57844639

$$$$

 OpenBabel03242512073D

 26 28  0  0  1  0  0  0  0  0999 V2000
   37.2410   29.2670   42.3980 C   0  0  1  0  0  0  0  0  0  0  0  0
   38.6880   29.5400   42.9240 C   0  0  0  0  0  0  0  0  0  0  0  0
   38.2630   29.7880   41.5220 C   0  0  2  0  0  0  0  0  0  0  0  0
   36.5920   29.7960   43.1430 H   0  0  0  0  0  0  0  0  0  0  0  0
   39.3090   28.6710   43.1570 H   0  0  0  0  0  0  0  0  0  0  0  0
   38.8650   30.4230   43.5500 H   0  0  0  0  0  0  0  0  0  0  0  0
   38.6810   29.0720   40.7830 H   0  0  0  0  0  0  0  0  0  0  0  0
   38.0640   31.1800   41.0390 C   0  0  0  0  0  0  0  0  0  0  0  0
   38.9850   32.2050   40.9110 C   0  0  0  0  0  0  0  0  0  0  0  0
   40.0280   32.1420   41.1530 H   0  0  0  0  0  0  0  0  0  0  0  0
   38.3130   33.3020   40.4210 C   0  0  0  0  0  0  0  0  0  0  0  0
   38.6930   34.2940   40.1880 H   0  0  0  0  0  0  0  0  0  0  0  0
   37.0310   32.9500   40.2590 N   0  0  0  0  0  0  0  0  0  0  0  0
   36.1980   33.4830   39.9120 H   0  0  0  0  0  0  0  0  0  0  0  0
   36.8780   31.7080   40.6190 N   0  0  0  0  0  0  0  0  0  0  0  0
   36.9030   27.8110   42.3900 C   0  0  0  0  0  0  0  0  0  0  0  0
   36.2760   27.3870   43.3710 O   0  0  0  0  0  0  0  0  0  0  0  0
   36.5780   26.8980   40.1490 C   0  0  0  0  0  0  0  0  0  0  0  0
   37.2440   26.9130   41.3430 C   0  0  0  0  0  0  0  0  0  0  0  0
   38.3050   26.0060   41.5170 C   0  0  0  0  0  0  0  0  0  0  0  0
   38.6370   25.1600   40.5230 N   0  0  0  0  0  0  0  0  0  0  0  0
   37.9510   25.1680   39.3340 C   0  0  0  0  0  0  0  0  0  0  0  0
   36.9520   26.0250   39.1770 N   0  0  0  0  0  0  0  0  0  0  0  0
   35.7530   27.5560   39.9280 H   0  0  0  0  0  0  0  0  0  0  0  0
   38.8420   26.0040   42.4540 H   0  0  0  0  0  0  0  0  0  0  0  0
   38.2460   24.4690   38.5490 H   0  0  0  0  0  0  0  0  0  0  0  0
  1  2  1  0  0  0  0
  1  4  1  1  0  0  0
  2  5  1  0  0  0  0
  2  6  1  0  0  0  0
  3  7  1  6  0  0  0
  3  1  1  0  0  0  0
  3  2  1  0  0  0  0
  8  3  1  0  0  0  0
  9  8  1  0  0  0  0
  9 10  1  0  0  0  0
 11  9  2  0  0  0  0
 12 11  1  0  0  0  0
 13 11  1  0  0  0  0
 13 15  1  0  0  0  0
 14 13  1  0  0  0  0
 15  8  2  0  0  0  0
 16  1  1  0  0  0  0
 16 17  2  0  0  0  0
 18 19  1  0  0  0  0
 19 20  2  0  0  0  0
 19 16  1  0  0  0  0
 20 25  1  0  0  0  0
 21 20  1  0  0  0  0
 22 21  2  0  0  0  0
 23 22  1  0  0  0  0
 23 18  2  0  0  0  0
 24 18  1  0  0  0  0
 26 22  1  0  0  0  0
M  END
>  <minimizedAffinity>
-4.51185036

$$$$

 OpenBabel03242512073D

 26 28  0  0  1  0  0  0  0  0999 V2000
   37.1180   29.4540   40.8000 C   0  0  1  0  0  0  0  0  0  0  0  0
   35.6900   29.9380   40.3830 C   0  0  0  0  0  0  0  0  0  0  0  0
   36.6570   30.7800   41.1360 C   0  0  2  0  0  0  0  0  0  0  0  0
   37.5460   29.0610   39.8420 H   0  0  0  0  0  0  0  0  0  0  0  0
   34.8380   29.4930   40.9040 H   0  0  0  0  0  0  0  0  0  0  0  0
   35.5090   30.2100   39.3360 H   0  0  0  0  0  0  0  0  0  0  0  0
   36.3880   30.9460   42.2000 H   0  0  0  0  0  0  0  0  0  0  0  0
   37.3500   31.9060   40.4560 C   0  0  0  0  0  0  0  0  0  0  0  0
   38.4850   32.5980   40.8400 C   0  0  0  0  0  0  0  0  0  0  0  0
   39.0580   32.4160   41.7290 H   0  0  0  0  0  0  0  0  0  0  0  0
   38.7300   33.5510   39.8770 C   0  0  0  0  0  0  0  0  0  0  0  0
   39.5300   34.2870   39.8250 H   0  0  0  0  0  0  0  0  0  0  0  0
   37.7760   33.4360   38.9440 N   0  0  0  0  0  0  0  0  0  0  0  0
   37.5990   33.9630   38.0570 H   0  0  0  0  0  0  0  0  0  0  0  0
   36.9640   32.4740   39.2770 N   0  0  0  0  0  0  0  0  0  0  0  0
   37.0740   28.3540   41.8120 C   0  0  0  0  0  0  0  0  0  0  0  0
   37.1210   28.7000   43.0000 O   0  0  0  0  0  0  0  0  0  0  0  0
   37.0880   25.9950   42.4400 C   0  0  0  0  0  0  0  0  0  0  0  0
   36.9750   26.9730   41.4920 C   0  0  0  0  0  0  0  0  0  0  0  0
   36.7440   26.5780   40.1630 C   0  0  0  0  0  0  0  0  0  0  0  0
   36.6400   25.2700   39.8570 N   0  0  0  0  0  0  0  0  0  0  0  0
   36.7570   24.3090   40.8310 C   0  0  0  0  0  0  0  0  0  0  0  0
   36.9750   24.6890   42.0820 N   0  0  0  0  0  0  0  0  0  0  0  0
   37.2650   26.2050   43.4840 H   0  0  0  0  0  0  0  0  0  0  0  0
   36.6520   27.3380   39.4000 H   0  0  0  0  0  0  0  0  0  0  0  0
   36.6680   23.2590   40.5500 H   0  0  0  0  0  0  0  0  0  0  0  0
  1  4  1  6  0  0  0
  1  3  1  0  0  0  0
  1 16  1  0  0  0  0
  2  1  1  0  0  0  0
  2  5  1  0  0  0  0
  2  3  1  0  0  0  0
  3  7  1  1  0  0  0
  6  2  1  0  0  0  0
  8  9  1  0  0  0  0
  8  3  1  0  0  0  0
  9 10  1  0  0  0  0
 11  9  2  0  0  0  0
 12 11  1  0  0  0  0
 13 15  1  0  0  0  0
 13 11  1  0  0  0  0
 14 13  1  0  0  0  0
 15  8  2  0  0  0  0
 16 17  2  0  0  0  0
 18 24  1  0  0  0  0
 19 16  1  0  0  0  0
 19 18  2  0  0  0  0
 20 19  1  0  0  0  0
 21 20  2  0  0  0  0
 21 22  1  0  0  0  0
 22 23  2  0  0  0  0
 23 18  1  0  0  0  0
 25 20  1  0  0  0  0
 26 22  1  0  0  0  0
M  END
>  <minimizedAffinity>
-4.50738001

$$$$

 OpenBabel03242512073D

 26 28  0  0  1  0  0  0  0  0999 V2000
   36.9460   30.5200   39.6830 C   0  0  1  0  0  0  0  0  0  0  0  0
   37.0320   31.9030   40.4080 C   0  0  0  0  0  0  0  0  0  0  0  0
   38.2230   31.1250   39.9750 C   0  0  2  0  0  0  0  0  0  0  0  0
   36.2310   30.7150   38.8420 H   0  0  0  0  0  0  0  0  0  0  0  0
   36.7580   31.9310   41.4670 H   0  0  0  0  0  0  0  0  0  0  0  0
   36.8020   32.8120   39.8410 H   0  0  0  0  0  0  0  0  0  0  0  0
   38.7990   30.6690   40.8070 H   0  0  0  0  0  0  0  0  0  0  0  0
   39.0180   31.5750   38.8020 C   0  0  0  0  0  0  0  0  0  0  0  0
   40.3690   31.8620   38.7150 C   0  0  0  0  0  0  0  0  0  0  0  0
   41.0750   31.8000   39.5200 H   0  0  0  0  0  0  0  0  0  0  0  0
   40.6260   32.2360   37.4150 C   0  0  0  0  0  0  0  0  0  0  0  0
   41.5670   32.5350   36.9590 H   0  0  0  0  0  0  0  0  0  0  0  0
   39.4690   32.1770   36.7420 N   0  0  0  0  0  0  0  0  0  0  0  0
   39.2310   32.3780   35.7430 H   0  0  0  0  0  0  0  0  0  0  0  0
   38.5230   31.7890   37.5490 N   0  0  0  0  0  0  0  0  0  0  0  0
   36.3930   29.4470   40.5660 C   0  0  0  0  0  0  0  0  0  0  0  0
   35.1640   29.2950   40.5420 O   0  0  0  0  0  0  0  0  0  0  0  0
   37.8210   27.4990   40.9220 C   0  0  0  0  0  0  0  0  0  0  0  0
   37.1820   28.6080   41.3990 C   0  0  0  0  0  0  0  0  0  0  0  0
   37.3290   28.9180   42.7630 C   0  0  0  0  0  0  0  0  0  0  0  0
   38.0830   28.1310   43.5550 N   0  0  0  0  0  0  0  0  0  0  0  0
   38.7140   27.0220   43.0480 C   0  0  0  0  0  0  0  0  0  0  0  0
   38.5710   26.7370   41.7610 N   0  0  0  0  0  0  0  0  0  0  0  0
   37.7640   27.1850   39.8910 H   0  0  0  0  0  0  0  0  0  0  0  0
   36.8300   29.7910   43.1570 H   0  0  0  0  0  0  0  0  0  0  0  0
   39.3180   26.4060   43.7160 H   0  0  0  0  0  0  0  0  0  0  0  0
  1  4  1  6  0  0  0
  1  3  1  0  0  0  0
  1  2  1  0  0  0  0
  1 16  1  0  0  0  0
  2  5  1  0  0  0  0
  3  2  1  0  0  0  0
  3  7  1  1  0  0  0
  6  2  1  0  0  0  0
  8  3  1  0  0  0  0
  9  8  1  0  0  0  0
  9 10  1  0  0  0  0
 11  9  2  0  0  0  0
 12 11  1  0  0  0  0
 13 11  1  0  0  0  0
 13 15  1  0  0  0  0
 14 13  1  0  0  0  0
 15  8  2  0  0  0  0
 16 19  1  0  0  0  0
 17 16  2  0  0  0  0
 18 19  2  0  0  0  0
 18 23  1  0  0  0  0
 19 20  1  0  0  0  0
 20 25  1  0  0  0  0
 20 21  2  0  0  0  0
 22 21  1  0  0  0  0
 22 26  1  0  0  0  0
 23 22  2  0  0  0  0
 24 18  1  0  0  0  0
M  END
>  <minimizedAffinity>
-4.48160982

$$$$

 OpenBabel03242512073D

 26 28  0  0  1  0  0  0  0  0999 V2000
   37.7490   28.1370   42.2610 C   0  0  1  0  0  0  0  0  0  0  0  0
   36.7820   27.7010   43.4110 C   0  0  0  0  0  0  0  0  0  0  0  0
   37.1480   26.8250   42.2670 C   0  0  2  0  0  0  0  0  0  0  0  0
   38.6460   28.5210   42.8120 H   0  0  0  0  0  0  0  0  0  0  0  0
   35.7940   28.1710   43.4400 H   0  0  0  0  0  0  0  0  0  0  0  0
   37.2060   27.4420   44.3880 H   0  0  0  0  0  0  0  0  0  0  0  0
   36.3300   26.6610   41.5350 H   0  0  0  0  0  0  0  0  0  0  0  0
   38.0760   25.6810   42.4740 C   0  0  0  0  0  0  0  0  0  0  0  0
   39.3430   25.6680   43.0290 C   0  0  0  0  0  0  0  0  0  0  0  0
   39.8680   26.5230   43.4100 H   0  0  0  0  0  0  0  0  0  0  0  0
   39.7910   24.3660   42.9980 C   0  0  0  0  0  0  0  0  0  0  0  0
   40.7380   23.9570   43.3430 H   0  0  0  0  0  0  0  0  0  0  0  0
   38.8270   23.6210   42.4430 N   0  0  0  0  0  0  0  0  0  0  0  0
   38.7670   22.5960   42.2380 H   0  0  0  0  0  0  0  0  0  0  0  0
   37.8180   24.3850   42.1340 N   0  0  0  0  0  0  0  0  0  0  0  0
   37.1770   29.2320   41.4190 C   0  0  0  0  0  0  0  0  0  0  0  0
   37.4310   30.3900   41.7760 O   0  0  0  0  0  0  0  0  0  0  0  0
   36.9300   28.6290   39.0660 C   0  0  0  0  0  0  0  0  0  0  0  0
   36.3860   29.0200   40.2570 C   0  0  0  0  0  0  0  0  0  0  0  0
   34.9940   29.2080   40.3150 C   0  0  0  0  0  0  0  0  0  0  0  0
   34.2400   28.9990   39.2180 N   0  0  0  0  0  0  0  0  0  0  0  0
   34.8140   28.6050   38.0350 C   0  0  0  0  0  0  0  0  0  0  0  0
   36.1270   28.4310   37.9880 N   0  0  0  0  0  0  0  0  0  0  0  0
   37.9870   28.4610   38.9290 H   0  0  0  0  0  0  0  0  0  0  0  0
   34.5470   29.5180   41.2480 H   0  0  0  0  0  0  0  0  0  0  0  0
   34.1750   28.4450   37.1650 H   0  0  0  0  0  0  0  0  0  0  0  0
  1  3  1  0  0  0  0
  1  4  1  1  0  0  0
  1  2  1  0  0  0  0
  2  5  1  0  0  0  0
  2  6  1  0  0  0  0
  3  7  1  6  0  0  0
  3  8  1  0  0  0  0
  3  2  1  0  0  0  0
  8  9  1  0  0  0  0
  9 10  1  0  0  0  0
 11  9  2  0  0  0  0
 11 12  1  0  0  0  0
 13 11  1  0  0  0  0
 14 13  1  0  0  0  0
 15 13  1  0  0  0  0
 15  8  2  0  0  0  0
 16 17  2  0  0  0  0
 16  1  1  0  0  0  0
 18 19  1  0  0  0  0
 19 20  2  0  0  0  0
 19 16  1  0  0  0  0
 20 25  1  0  0  0  0
 21 20  1  0  0  0  0
 22 21  2  0  0  0  0
 23 22  1  0  0  0  0
 23 18  2  0  0  0  0
 24 18  1  0  0  0  0
 26 22  1  0  0  0  0
M  END
>  <minimizedAffinity>
-4.44695854

$$$$

 OpenBabel03242512073D

 26 28  0  0  1  0  0  0  0  0999 V2000
   36.3030   28.9650   38.8860 C   0  0  1  0  0  0  0  0  0  0  0  0
   34.8240   28.5710   38.5640 C   0  0  0  0  0  0  0  0  0  0  0  0
   35.5880   29.5930   37.8010 C   0  0  2  0  0  0  0  0  0  0  0  0
   36.8290   27.9770   38.9270 H   0  0  0  0  0  0  0  0  0  0  0  0
   34.0540   28.8880   39.2740 H   0  0  0  0  0  0  0  0  0  0  0  0
   34.6300   27.6190   38.0560 H   0  0  0  0  0  0  0  0  0  0  0  0
   35.2570   30.6380   37.9770 H   0  0  0  0  0  0  0  0  0  0  0  0
   36.0780   29.2860   36.4310 C   0  0  0  0  0  0  0  0  0  0  0  0
   35.4040   29.3450   35.2240 C   0  0  0  0  0  0  0  0  0  0  0  0
   34.3780   29.6330   35.0930 H   0  0  0  0  0  0  0  0  0  0  0  0
   36.2900   28.9660   34.2400 C   0  0  0  0  0  0  0  0  0  0  0  0
   36.1320   28.8870   33.1670 H   0  0  0  0  0  0  0  0  0  0  0  0
   37.4570   28.6900   34.8350 N   0  0  0  0  0  0  0  0  0  0  0  0
   38.3790   28.3720   34.4510 H   0  0  0  0  0  0  0  0  0  0  0  0
   37.3410   28.8750   36.1180 N   0  0  0  0  0  0  0  0  0  0  0  0
   36.4340   29.6520   40.2080 C   0  0  0  0  0  0  0  0  0  0  0  0
   36.0810   30.8380   40.2480 O   0  0  0  0  0  0  0  0  0  0  0  0
   37.7380   29.6790   42.2720 C   0  0  0  0  0  0  0  0  0  0  0  0
   36.9190   29.0310   41.3910 C   0  0  0  0  0  0  0  0  0  0  0  0
   36.5500   27.7070   41.6870 C   0  0  0  0  0  0  0  0  0  0  0  0
   37.0000   27.1180   42.8120 N   0  0  0  0  0  0  0  0  0  0  0  0
   37.8220   27.7940   43.6790 C   0  0  0  0  0  0  0  0  0  0  0  0
   38.1660   29.0410   43.3930 N   0  0  0  0  0  0  0  0  0  0  0  0
   38.0730   30.6950   42.1260 H   0  0  0  0  0  0  0  0  0  0  0  0
   35.9030   27.1790   41.0020 H   0  0  0  0  0  0  0  0  0  0  0  0
   38.1690   27.2870   44.5820 H   0  0  0  0  0  0  0  0  0  0  0  0
  1  4  1  6  0  0  0
  1 16  1  0  0  0  0
  2  1  1  0  0  0  0
  2  5  1  0  0  0  0
  3  7  1  1  0  0  0
  3  2  1  0  0  0  0
  3  1  1  0  0  0  0
  6  2  1  0  0  0  0
  8  3  1  0  0  0  0
  9  8  1  0  0  0  0
 10  9  1  0  0  0  0
 11 13  1  0  0  0  0
 11  9  2  0  0  0  0
 12 11  1  0  0  0  0
 13 15  1  0  0  0  0
 14 13  1  0  0  0  0
 15  8  2  0  0  0  0
 16 17  2  0  0  0  0
 16 19  1  0  0  0  0
 18 23  1  0  0  0  0
 19 20  1  0  0  0  0
 19 18  2  0  0  0  0
 20 21  2  0  0  0  0
 21 22  1  0  0  0  0
 22 26  1  0  0  0  0
 23 22  2  0  0  0  0
 24 18  1  0  0  0  0
 25 20  1  0  0  0  0
M  END
>  <minimizedAffinity>
-4.40397692

$$$$
