
 OpenBabel03252505063D

 42 45  0  0  1  0  0  0  0  0999 V2000
   44.5710   35.5810   44.6100 C   0  0  0  0  0  0  0  0  0  0  0  0
   45.2340   35.5990   43.3550 C   0  0  0  0  0  0  0  0  0  0  0  0
   46.3230   34.6900   43.1800 C   0  0  0  0  0  0  0  0  0  0  0  0
   46.6690   33.8680   44.2000 N   0  0  0  0  0  0  0  0  0  0  0  0
   46.0040   33.8940   45.3680 C   0  0  0  0  0  0  0  0  0  0  0  0
   44.9610   34.7410   45.5830 N   0  0  0  0  0  0  0  0  0  0  0  0
   43.7520   36.2710   44.7290 H   0  0  0  0  0  0  0  0  0  0  0  0
   44.9250   36.2750   42.5640 H   0  0  0  0  0  0  0  0  0  0  0  0
   46.4290   32.9740   46.4500 C   0  0  2  0  0  0  0  0  0  0  0  0
   46.9650   31.7480   45.7660 C   0  0  0  0  0  0  0  0  0  0  0  0
   46.0990   30.5560   45.7860 C   0  0  0  0  0  0  0  0  0  0  0  0
   45.8060   30.2960   47.2640 C   0  0  0  0  0  0  0  0  0  0  0  0
   45.0150   31.3600   47.8720 C   0  0  0  0  0  0  0  0  0  0  0  0
   45.3770   32.7350   47.4130 C   0  0  0  0  0  0  0  0  0  0  0  0
   47.2760   33.4970   46.9610 H   0  0  0  0  0  0  0  0  0  0  0  0
   47.2420   31.9430   44.6980 H   0  0  0  0  0  0  0  0  0  0  0  0
   47.9260   31.4710   46.2460 H   0  0  0  0  0  0  0  0  0  0  0  0
   45.2050   30.5720   45.1620 H   0  0  0  0  0  0  0  0  0  0  0  0
   46.7090   29.6860   45.4670 H   0  0  0  0  0  0  0  0  0  0  0  0
   46.7630   30.1470   47.7740 H   0  0  0  0  0  0  0  0  0  0  0  0
   45.1880   29.3940   47.2750 H   0  0  0  0  0  0  0  0  0  0  0  0
   44.2260   31.3500   48.5780 H   0  0  0  0  0  0  0  0  0  0  0  0
   44.6800   33.8790   47.9250 N   0  0  0  0  0  0  0  0  0  0  0  0
   45.0310   34.5410   48.6200 H   0  0  0  0  0  0  0  0  0  0  0  0
   43.7080   34.0450   47.5390 H   0  0  0  0  0  0  0  0  0  0  0  0
   47.0200   34.6850   41.9020 C   0  0  0  0  0  0  0  0  0  0  0  0
   48.1760   35.3880   41.7910 C   0  0  0  0  0  0  0  0  0  0  0  0
   48.8050   35.3490   40.5370 C   0  0  0  0  0  0  0  0  0  0  0  0
   48.1960   34.6080   39.5500 C   0  0  0  0  0  0  0  0  0  0  0  0
   47.0380   33.9040   39.6650 C   0  0  0  0  0  0  0  0  0  0  0  0
   46.4600   33.9710   40.9050 N   0  0  0  0  0  0  0  0  0  0  0  0
   48.6370   35.9600   42.5660 H   0  0  0  0  0  0  0  0  0  0  0  0
   49.7260   35.8830   40.3730 H   0  0  0  0  0  0  0  0  0  0  0  0
   48.7190   34.6090   38.6040 H   0  0  0  0  0  0  0  0  0  0  0  0
   46.4370   33.1430   38.6090 C   0  0  0  0  0  0  0  0  0  0  0  0
   45.5770   32.0870   38.7320 C   0  0  0  0  0  0  0  0  0  0  0  0
   45.2260   31.6740   39.6770 H   0  0  0  0  0  0  0  0  0  0  0  0
   45.2760   31.6900   37.4250 C   0  0  0  0  0  0  0  0  0  0  0  0
   44.6010   30.8560   37.2810 H   0  0  0  0  0  0  0  0  0  0  0  0
   45.9470   32.5000   36.5780 N   0  0  0  0  0  0  0  0  0  0  0  0
   45.7940   32.2910   35.5650 H   0  0  0  0  0  0  0  0  0  0  0  0
   46.6350   33.3610   37.3010 N   0  0  0  0  0  0  0  0  0  0  0  0
  1  7  1  0  0  0  0
  1  6  1  0  0  0  0
  2  1  2  0  0  0  0
  3  2  1  0  0  0  0
  3  4  2  0  0  0  0
  4  5  1  0  0  0  0
  5  6  2  0  0  0  0
  5  9  1  0  0  0  0
  8  2  1  0  0  0  0
  9 15  1  1  0  0  0
  9 14  1  0  0  0  0
 10 11  1  0  0  0  0
 10 17  1  0  0  0  0
 10  9  1  0  0  0  0
 11 12  1  0  0  0  0
 12 21  1  0  0  0  0
 12 20  1  0  0  0  0
 12 13  1  0  0  0  0
 13 22  1  0  0  0  0
 14 13  2  0  0  0  0
 14 23  1  0  0  0  0
 16 10  1  0  0  0  0
 18 11  1  0  0  0  0
 19 11  1  0  0  0  0
 23 24  1  0  0  0  0
 25 23  1  0  0  0  0
 26  3  1  0  0  0  0
 27 26  1  0  0  0  0
 27 32  1  0  0  0  0
 28 27  2  0  0  0  0
 29 30  2  0  0  0  0
 29 28  1  0  0  0  0
 30 31  1  0  0  0  0
 31 26  2  0  0  0  0
 33 28  1  0  0  0  0
 34 29  1  0  0  0  0
 35 36  1  0  0  0  0
 35 30  1  0  0  0  0
 36 37  1  0  0  0  0
 38 36  2  0  0  0  0
 39 38  1  0  0  0  0
 40 42  1  0  0  0  0
 40 38  1  0  0  0  0
 41 40  1  0  0  0  0
 42 35  2  0  0  0  0
M  END
>  <minimizedAffinity>
-7.21860743

>  <minimizedRMSD>
0.104498327

$$$$
