
 OpenBabel03252505053D

 42 45  0  0  1  0  0  0  0  0999 V2000
   44.5770   35.5860   44.6210 C   0  0  0  0  0  0  0  0  0  0  0  0
   45.2340   35.5970   43.3620 C   0  0  0  0  0  0  0  0  0  0  0  0
   46.3160   34.6810   43.1830 C   0  0  0  0  0  0  0  0  0  0  0  0
   46.6630   33.8590   44.2030 N   0  0  0  0  0  0  0  0  0  0  0  0
   46.0050   33.8920   45.3740 C   0  0  0  0  0  0  0  0  0  0  0  0
   44.9680   34.7450   45.5930 N   0  0  0  0  0  0  0  0  0  0  0  0
   43.7630   36.2800   44.7420 H   0  0  0  0  0  0  0  0  0  0  0  0
   44.9240   36.2730   42.5710 H   0  0  0  0  0  0  0  0  0  0  0  0
   46.4300   32.9720   46.4560 C   0  0  2  0  0  0  0  0  0  0  0  0
   46.9660   31.7460   45.7720 C   0  0  0  0  0  0  0  0  0  0  0  0
   46.1010   30.5530   45.7910 C   0  0  0  0  0  0  0  0  0  0  0  0
   45.8080   30.2930   47.2690 C   0  0  0  0  0  0  0  0  0  0  0  0
   45.0160   31.3570   47.8780 C   0  0  0  0  0  0  0  0  0  0  0  0
   45.3790   32.7320   47.4190 C   0  0  0  0  0  0  0  0  0  0  0  0
   47.2770   33.4950   46.9670 H   0  0  0  0  0  0  0  0  0  0  0  0
   47.2430   31.9420   44.7040 H   0  0  0  0  0  0  0  0  0  0  0  0
   47.9280   31.4690   46.2510 H   0  0  0  0  0  0  0  0  0  0  0  0
   45.2070   30.5690   45.1670 H   0  0  0  0  0  0  0  0  0  0  0  0
   46.7110   29.6840   45.4720 H   0  0  0  0  0  0  0  0  0  0  0  0
   46.7650   30.1440   47.7790 H   0  0  0  0  0  0  0  0  0  0  0  0
   45.1910   29.3910   47.2810 H   0  0  0  0  0  0  0  0  0  0  0  0
   44.2280   31.3460   48.5840 H   0  0  0  0  0  0  0  0  0  0  0  0
   44.6820   33.8750   47.9310 N   0  0  0  0  0  0  0  0  0  0  0  0
   45.0320   34.5380   48.6270 H   0  0  0  0  0  0  0  0  0  0  0  0
   43.7090   34.0420   47.5460 H   0  0  0  0  0  0  0  0  0  0  0  0
   47.0060   34.6690   41.9010 C   0  0  0  0  0  0  0  0  0  0  0  0
   48.1590   35.3760   41.7790 C   0  0  0  0  0  0  0  0  0  0  0  0
   48.7820   35.3300   40.5220 C   0  0  0  0  0  0  0  0  0  0  0  0
   48.1700   34.5800   39.5430 C   0  0  0  0  0  0  0  0  0  0  0  0
   47.0150   33.8730   39.6700 C   0  0  0  0  0  0  0  0  0  0  0  0
   46.4440   33.9470   40.9120 N   0  0  0  0  0  0  0  0  0  0  0  0
   48.6220   35.9550   42.5480 H   0  0  0  0  0  0  0  0  0  0  0  0
   49.7000   35.8660   40.3490 H   0  0  0  0  0  0  0  0  0  0  0  0
   48.6880   34.5760   38.5940 H   0  0  0  0  0  0  0  0  0  0  0  0
   46.4120   33.1020   38.6220 C   0  0  0  0  0  0  0  0  0  0  0  0
   45.1380   32.6070   38.5840 C   0  0  0  0  0  0  0  0  0  0  0  0
   44.3920   32.7380   39.3690 H   0  0  0  0  0  0  0  0  0  0  0  0
   45.0300   31.9320   37.3640 C   0  0  0  0  0  0  0  0  0  0  0  0
   44.0890   31.4540   37.1190 H   0  0  0  0  0  0  0  0  0  0  0  0
   46.2120   32.0390   36.7220 N   0  0  0  0  0  0  0  0  0  0  0  0
   46.2450   31.5670   35.7910 H   0  0  0  0  0  0  0  0  0  0  0  0
   47.0260   32.7410   37.4870 N   0  0  0  0  0  0  0  0  0  0  0  0
  1  7  1  0  0  0  0
  1  6  1  0  0  0  0
  2  1  2  0  0  0  0
  3  2  1  0  0  0  0
  3  4  2  0  0  0  0
  4  5  1  0  0  0  0
  5  6  2  0  0  0  0
  5  9  1  0  0  0  0
  8  2  1  0  0  0  0
  9 15  1  1  0  0  0
  9 14  1  0  0  0  0
 10 11  1  0  0  0  0
 10 17  1  0  0  0  0
 10  9  1  0  0  0  0
 11 12  1  0  0  0  0
 12 21  1  0  0  0  0
 12 20  1  0  0  0  0
 12 13  1  0  0  0  0
 13 22  1  0  0  0  0
 14 13  2  0  0  0  0
 14 23  1  0  0  0  0
 16 10  1  0  0  0  0
 18 11  1  0  0  0  0
 19 11  1  0  0  0  0
 23 24  1  0  0  0  0
 25 23  1  0  0  0  0
 26  3  1  0  0  0  0
 27 26  1  0  0  0  0
 27 32  1  0  0  0  0
 28 27  2  0  0  0  0
 29 30  2  0  0  0  0
 29 28  1  0  0  0  0
 30 31  1  0  0  0  0
 31 26  2  0  0  0  0
 33 28  1  0  0  0  0
 34 29  1  0  0  0  0
 35 30  1  0  0  0  0
 36 35  1  0  0  0  0
 36 37  1  0  0  0  0
 38 36  2  0  0  0  0
 39 38  1  0  0  0  0
 40 38  1  0  0  0  0
 40 42  1  0  0  0  0
 41 40  1  0  0  0  0
 42 35  2  0  0  0  0
M  END
>  <minimizedAffinity>
-7.17297506

>  <minimizedRMSD>
0.0651657954

$$$$
