
 OpenBabel03242515383D

 35 38  0  0  0  0  0  0  0  0999 V2000
   43.9400   34.7750   40.9740 C   0  0  0  0  0  0  0  0  0  0  0  0
   43.8870   33.8840   39.9310 C   0  0  0  0  0  0  0  0  0  0  0  0
   45.0920   33.2820   39.5540 C   0  0  0  0  0  0  0  0  0  0  0  0
   46.2210   33.6030   40.2200 N   0  0  0  0  0  0  0  0  0  0  0  0
   46.2290   34.4810   41.2360 C   0  0  0  0  0  0  0  0  0  0  0  0
   45.0860   35.0560   41.5980 N   0  0  0  0  0  0  0  0  0  0  0  0
   42.9960   33.6210   39.3930 H   0  0  0  0  0  0  0  0  0  0  0  0
   45.1140   32.3250   38.4530 C   0  0  0  0  0  0  0  0  0  0  0  0
   45.4240   31.0020   38.5440 C   0  0  0  0  0  0  0  0  0  0  0  0
   45.7050   30.4050   39.3980 H   0  0  0  0  0  0  0  0  0  0  0  0
   45.3100   30.5060   37.2600 C   0  0  0  0  0  0  0  0  0  0  0  0
   45.4550   29.5310   36.8480 H   0  0  0  0  0  0  0  0  0  0  0  0
   44.9460   31.5190   36.4580 N   0  0  0  0  0  0  0  0  0  0  0  0
   44.7440   31.6160   35.4230 H   0  0  0  0  0  0  0  0  0  0  0  0
   44.8260   32.6200   37.1740 N   0  0  0  0  0  0  0  0  0  0  0  0
   42.3600   35.5360   41.4370 S   0  0  0  0  0  0  0  0  0  0  0  0
   40.0150   34.9340   40.2790 C   0  0  0  0  0  0  0  0  0  0  0  0
   41.0070   34.4170   41.1050 C   0  0  0  0  0  0  0  0  0  0  0  0
   40.9200   33.1400   41.6080 C   0  0  0  0  0  0  0  0  0  0  0  0
   39.8520   32.3180   41.3190 C   0  0  0  0  0  0  0  0  0  0  0  0
   38.8450   32.8340   40.4840 C   0  0  0  0  0  0  0  0  0  0  0  0
   38.9090   34.1230   39.9620 C   0  0  0  0  0  0  0  0  0  0  0  0
   37.8780   31.8250   40.3380 O   0  0  0  0  0  0  0  0  0  0  0  0
   38.1280   30.8900   41.3520 C   0  0  0  0  0  0  0  0  0  0  0  0
   39.4990   31.0180   41.6700 O   0  0  0  0  0  0  0  0  0  0  0  0
   40.0040   35.9240   39.8430 H   0  0  0  0  0  0  0  0  0  0  0  0
   41.7110   32.8000   42.2340 H   0  0  0  0  0  0  0  0  0  0  0  0
   38.1290   34.5080   39.3230 H   0  0  0  0  0  0  0  0  0  0  0  0
   37.9860   29.8780   40.9150 H   0  0  0  0  0  0  0  0  0  0  0  0
   37.4630   31.0060   42.2290 H   0  0  0  0  0  0  0  0  0  0  0  0
   47.3390   34.8490   41.9530 O   0  0  0  0  0  0  0  0  0  0  0  0
   48.5420   35.1020   41.2800 C   0  0  0  0  0  0  0  0  0  0  0  0
   49.4860   34.1290   41.4640 F   0  0  0  0  0  0  0  0  0  0  0  0
   48.1810   35.2410   39.9250 F   0  0  0  0  0  0  0  0  0  0  0  0
   49.0430   36.2990   41.7710 F   0  0  0  0  0  0  0  0  0  0  0  0
  1 16  1  0  0  0  0
  1  6  1  0  0  0  0
  2  1  2  0  0  0  0
  3  2  1  0  0  0  0
  3  4  2  0  0  0  0
  4  5  1  0  0  0  0
  5  6  2  0  0  0  0
  5 31  1  0  0  0  0
  7  2  1  0  0  0  0
  8  9  1  0  0  0  0
  8  3  1  0  0  0  0
  9 10  1  0  0  0  0
 11  9  2  0  0  0  0
 12 11  1  0  0  0  0
 13 15  1  0  0  0  0
 13 11  1  0  0  0  0
 14 13  1  0  0  0  0
 15  8  2  0  0  0  0
 17 18  1  0  0  0  0
 18 16  1  0  0  0  0
 18 19  2  0  0  0  0
 19 27  1  0  0  0  0
 20 19  1  0  0  0  0
 20 25  1  0  0  0  0
 21 20  2  0  0  0  0
 22 17  2  0  0  0  0
 22 21  1  0  0  0  0
 23 21  1  0  0  0  0
 23 24  1  0  0  0  0
 24 25  1  0  0  0  0
 24 30  1  0  0  0  0
 26 17  1  0  0  0  0
 28 22  1  0  0  0  0
 29 24  1  0  0  0  0
 32 33  1  0  0  0  0
 32 35  1  0  0  0  0
 32 31  1  0  0  0  0
 34 32  1  0  0  0  0
M  END
>  <minimizedAffinity>
-5.85939693

>  <minimizedRMSD>
0.15823181

$$$$
