
 OpenBabel03252508283D

 38 41  0  0  1  0  0  0  0  0999 V2000
   41.1990   33.2140   39.5680 N   0  0  0  0  0  0  0  0  0  0  0  0
   41.4420   32.7840   40.9480 C   0  0  2  0  0  0  0  0  0  0  0  0
   40.2880   33.0510   41.8440 C   0  0  0  0  0  0  0  0  0  0  0  0
   39.0950   33.4390   41.1120 N   0  0  0  0  0  0  0  0  0  0  0  0
   39.2810   34.4740   40.1630 C   0  0  0  0  0  0  0  0  0  0  0  0
   40.7130   34.6050   39.7030 C   0  0  2  0  0  0  0  0  0  0  0  0
   40.4860   32.6250   39.0990 H   0  0  0  0  0  0  0  0  0  0  0  0
   41.6780   31.6960   40.9520 H   0  0  0  0  0  0  0  0  0  0  0  0
   39.9870   32.1090   42.3880 H   0  0  0  0  0  0  0  0  0  0  0  0
   40.3800   33.9010   42.5410 H   0  0  0  0  0  0  0  0  0  0  0  0
   38.7440   32.5790   40.5990 H   0  0  0  0  0  0  0  0  0  0  0  0
   38.9800   35.4580   40.5990 H   0  0  0  0  0  0  0  0  0  0  0  0
   38.5980   34.3080   39.2910 H   0  0  0  0  0  0  0  0  0  0  0  0
   41.2940   35.0680   40.5020 H   0  0  0  0  0  0  0  0  0  0  0  0
   40.8210   35.3470   38.4360 C   0  0  0  0  0  0  0  0  0  0  0  0
   41.7020   36.3310   38.0860 C   0  0  0  0  0  0  0  0  0  0  0  0
   42.4950   36.7460   38.6960 H   0  0  0  0  0  0  0  0  0  0  0  0
   41.4330   36.7380   36.7930 C   0  0  0  0  0  0  0  0  0  0  0  0
   41.9350   37.5030   36.1910 H   0  0  0  0  0  0  0  0  0  0  0  0
   40.3900   35.9960   36.3760 N   0  0  0  0  0  0  0  0  0  0  0  0
   39.8880   36.0080   35.4450 H   0  0  0  0  0  0  0  0  0  0  0  0
   40.0320   35.1720   37.3570 N   0  0  0  0  0  0  0  0  0  0  0  0
   44.6440   34.0430   42.0320 C   0  0  0  0  0  0  0  0  0  0  0  0
   43.7690   35.1100   42.2430 C   0  0  0  0  0  0  0  0  0  0  0  0
   42.4850   34.7520   41.8690 C   0  0  0  0  0  0  0  0  0  0  0  0
   42.6050   33.4990   41.4430 N   0  0  0  0  0  0  0  0  0  0  0  0
   43.8610   33.0850   41.5380 N   0  0  0  0  0  0  0  0  0  0  0  0
   44.1850   36.0500   42.6570 H   0  0  0  0  0  0  0  0  0  0  0  0
   41.8030   35.5790   42.0410 H   0  0  0  0  0  0  0  0  0  0  0  0
   48.3030   34.8780   42.2080 C   0  0  0  0  0  0  0  0  0  0  0  0
   46.9350   34.9990   41.8180 C   0  0  0  0  0  0  0  0  0  0  0  0
   46.0760   34.0570   42.3280 C   0  0  0  0  0  0  0  0  0  0  0  0
   46.5470   33.0800   43.1580 N   0  0  0  0  0  0  0  0  0  0  0  0
   47.8540   33.0030   43.5020 C   0  0  0  0  0  0  0  0  0  0  0  0
   48.7000   33.9010   43.0210 N   0  0  0  0  0  0  0  0  0  0  0  0
   48.9830   35.6270   41.8010 H   0  0  0  0  0  0  0  0  0  0  0  0
   46.5620   35.7710   41.1640 H   0  0  0  0  0  0  0  0  0  0  0  0
   48.1160   32.1890   44.1640 H   0  0  0  0  0  0  0  0  0  0  0  0
  1  6  1  0  0  0  0
  1  2  1  0  0  0  0
  2  8  1  1  0  0  0
  2 26  1  0  0  0  0
  2  3  1  0  0  0  0
  3  9  1  0  0  0  0
  3 10  1  0  0  0  0
  4  3  1  0  0  0  0
  5 12  1  0  0  0  0
  5  4  1  0  0  0  0
  6  5  1  0  0  0  0
  6 14  1  1  0  0  0
  7  1  1  0  0  0  0
 11  4  1  0  0  0  0
 13  5  1  0  0  0  0
 15  6  1  0  0  0  0
 16 15  1  0  0  0  0
 16 17  1  0  0  0  0
 18 16  2  0  0  0  0
 19 18  1  0  0  0  0
 20 18  1  0  0  0  0
 20 22  1  0  0  0  0
 21 20  1  0  0  0  0
 22 15  2  0  0  0  0
 23 24  1  0  0  0  0
 23 32  1  0  0  0  0
 24 28  1  0  0  0  0
 25 29  1  0  0  0  0
 25 24  2  0  0  0  0
 26 27  1  0  0  0  0
 26 25  1  0  0  0  0
 27 23  2  0  0  0  0
 30 35  1  0  0  0  0
 31 30  2  0  0  0  0
 31 32  1  0  0  0  0
 32 33  2  0  0  0  0
 33 34  1  0  0  0  0
 34 38  1  0  0  0  0
 35 34  2  0  0  0  0
 36 30  1  0  0  0  0
 37 31  1  0  0  0  0
M  END
>  <minimizedAffinity>
-4.79683161

>  <minimizedRMSD>
2.01946592

$$$$
