
 OpenBabel03242520123D

 33 35  0  0  0  0  0  0  0  0999 V2000
   46.1400   32.5740   46.9570 C   0  0  0  0  0  0  0  0  0  0  0  0
   45.2370   32.5960   47.9610 C   0  0  0  0  0  0  0  0  0  0  0  0
   45.4160   31.7780   49.0610 C   0  0  0  0  0  0  0  0  0  0  0  0
   46.5160   30.9480   49.1250 C   0  0  0  0  0  0  0  0  0  0  0  0
   47.4430   30.9430   48.0670 C   0  0  0  0  0  0  0  0  0  0  0  0
   47.2230   31.7350   47.0530 N   0  0  0  0  0  0  0  0  0  0  0  0
   44.3710   33.2480   47.9120 H   0  0  0  0  0  0  0  0  0  0  0  0
   44.7300   31.7440   49.9020 H   0  0  0  0  0  0  0  0  0  0  0  0
   46.7130   30.2870   49.9560 H   0  0  0  0  0  0  0  0  0  0  0  0
   44.9400   35.0250   44.5390 C   0  0  0  0  0  0  0  0  0  0  0  0
   45.9070   34.9000   43.5020 C   0  0  0  0  0  0  0  0  0  0  0  0
   46.9700   33.9680   43.6460 C   0  0  0  0  0  0  0  0  0  0  0  0
   46.9570   33.2680   44.7920 N   0  0  0  0  0  0  0  0  0  0  0  0
   46.0400   33.3950   45.7590 C   0  0  0  0  0  0  0  0  0  0  0  0
   45.0380   34.2730   45.6260 N   0  0  0  0  0  0  0  0  0  0  0  0
   43.8950   35.9640   44.3620 N   0  0  0  0  0  0  0  0  0  0  0  0
   45.8140   35.5200   42.6190 H   0  0  0  0  0  0  0  0  0  0  0  0
   47.6980   33.8690   42.8720 H   0  0  0  0  0  0  0  0  0  0  0  0
   42.9340   35.7010   44.6620 H   0  0  0  0  0  0  0  0  0  0  0  0
   43.9500   36.9370   43.9510 H   0  0  0  0  0  0  0  0  0  0  0  0
   48.6100   30.0790   48.1070 C   0  0  0  0  0  0  0  0  0  0  0  0
   49.7210   30.4010   48.7690 C   0  0  0  0  0  0  0  0  0  0  0  0
   49.8520   31.6700   49.5170 C   0  0  0  0  0  0  0  0  0  0  0  0
   50.4750   32.4120   48.9750 H   0  0  0  0  0  0  0  0  0  0  0  0
   48.8720   32.1450   49.6980 H   0  0  0  0  0  0  0  0  0  0  0  0
   50.5290   31.3660   50.8060 C   0  0  0  0  0  0  0  0  0  0  0  0
   51.2870   32.1690   51.6330 C   0  0  0  0  0  0  0  0  0  0  0  0
   51.5040   33.2070   51.4350 H   0  0  0  0  0  0  0  0  0  0  0  0
   51.6630   31.3600   52.6940 C   0  0  0  0  0  0  0  0  0  0  0  0
   52.2700   31.6720   53.5330 H   0  0  0  0  0  0  0  0  0  0  0  0
   51.1420   30.1180   52.4960 N   0  0  0  0  0  0  0  0  0  0  0  0
   51.2370   29.2710   53.1110 H   0  0  0  0  0  0  0  0  0  0  0  0
   50.4620   30.1330   51.3580 N   0  0  0  0  0  0  0  0  0  0  0  0
  1  6  2  0  0  0  0
  1  2  1  0  0  0  0
  2  3  2  0  0  0  0
  3  4  1  0  0  0  0
  3  8  1  0  0  0  0
  4  9  1  0  0  0  0
  5 21  1  0  0  0  0
  5  4  2  0  0  0  0
  6  5  1  0  0  0  0
  7  2  1  0  0  0  0
 10 15  1  0  0  0  0
 11 12  1  0  0  0  0
 11 10  2  0  0  0  0
 12 13  2  0  0  0  0
 13 14  1  0  0  0  0
 14  1  1  0  0  0  0
 15 14  2  0  0  0  0
 16 10  1  0  0  0  0
 16 19  1  0  0  0  0
 17 11  1  0  0  0  0
 18 12  1  0  0  0  0
 20 16  1  0  0  0  0
 21 22  2  0  0  0  0
 22 23  1  0  0  0  0
 23 25  1  0  0  0  0
 23 26  1  0  0  0  0
 24 23  1  0  0  0  0
 26 33  2  0  0  0  0
 26 27  1  0  0  0  0
 27 29  2  0  0  0  0
 28 27  1  0  0  0  0
 29 30  1  0  0  0  0
 31 29  1  0  0  0  0
 31 32  1  0  0  0  0
 33 31  1  0  0  0  0
M  END
>  <minimizedAffinity>
-6.51801443

>  <minimizedRMSD>
0.413842231

$$$$
