
 OpenBabel03242523023D

 31 33  0  0  0  0  0  0  0  0999 V2000
   45.3320   36.0240   43.3550 C   0  0  0  0  0  0  0  0  0  0  0  0
   46.1280   34.8860   43.1950 C   0  0  0  0  0  0  0  0  0  0  0  0
   46.1380   33.9600   44.2140 C   0  0  0  0  0  0  0  0  0  0  0  0
   45.3800   34.1840   45.3320 N   0  0  0  0  0  0  0  0  0  0  0  0
   44.6120   35.3080   45.4580 C   0  0  0  0  0  0  0  0  0  0  0  0
   44.6040   36.1950   44.4770 N   0  0  0  0  0  0  0  0  0  0  0  0
   45.2030   36.8470   42.6790 H   0  0  0  0  0  0  0  0  0  0  0  0
   44.0300   35.4330   46.3660 H   0  0  0  0  0  0  0  0  0  0  0  0
   46.8530   34.7890   41.9940 N   0  0  0  0  0  0  0  0  0  0  0  0
   48.1510   35.3420   41.9020 C   0  0  0  0  0  0  0  0  0  0  0  0
   48.6950   35.2980   40.5040 C   0  0  0  0  0  0  0  0  0  0  0  0
   48.5880   34.0300   39.9040 N   0  0  0  0  0  0  0  0  0  0  0  0
   47.3860   33.3280   40.1140 C   0  0  0  0  0  0  0  0  0  0  0  0
   46.3600   34.1730   40.7890 C   0  0  0  0  0  0  0  0  0  0  0  0
   48.1130   36.4520   42.1190 H   0  0  0  0  0  0  0  0  0  0  0  0
   48.9100   34.7790   42.4660 H   0  0  0  0  0  0  0  0  0  0  0  0
   49.7520   35.6330   40.5470 H   0  0  0  0  0  0  0  0  0  0  0  0
   48.1680   36.0910   39.9020 H   0  0  0  0  0  0  0  0  0  0  0  0
   49.0260   33.9640   38.9840 H   0  0  0  0  0  0  0  0  0  0  0  0
   46.9790   32.9700   39.1470 H   0  0  0  0  0  0  0  0  0  0  0  0
   47.6030   32.4050   40.7200 H   0  0  0  0  0  0  0  0  0  0  0  0
   45.9960   34.9380   40.0660 H   0  0  0  0  0  0  0  0  0  0  0  0
   45.5310   33.4550   41.0550 H   0  0  0  0  0  0  0  0  0  0  0  0
   46.8500   32.7040   44.2680 C   0  0  0  0  0  0  0  0  0  0  0  0
   46.7090   32.0110   45.4950 C   0  0  0  0  0  0  0  0  0  0  0  0
   46.1270   32.2470   46.4170 H   0  0  0  0  0  0  0  0  0  0  0  0
   47.4110   30.8230   45.5870 C   0  0  0  0  0  0  0  0  0  0  0  0
   47.5220   30.0770   46.3470 H   0  0  0  0  0  0  0  0  0  0  0  0
   47.9940   30.7970   44.3830 N   0  0  0  0  0  0  0  0  0  0  0  0
   48.6410   30.1040   43.9340 H   0  0  0  0  0  0  0  0  0  0  0  0
   47.6750   31.8280   43.6850 N   0  0  0  0  0  0  0  0  0  0  0  0
  1  6  1  0  0  0  0
  2  1  2  0  0  0  0
  2  3  1  0  0  0  0
  3 24  1  0  0  0  0
  3  4  2  0  0  0  0
  4  5  1  0  0  0  0
  5  8  1  0  0  0  0
  6  5  2  0  0  0  0
  7  1  1  0  0  0  0
  9  2  1  0  0  0  0
 10  9  1  0  0  0  0
 10 15  1  0  0  0  0
 10 16  1  0  0  0  0
 11 17  1  0  0  0  0
 11 10  1  0  0  0  0
 12 13  1  0  0  0  0
 12 11  1  0  0  0  0
 13 21  1  0  0  0  0
 13 14  1  0  0  0  0
 14 23  1  0  0  0  0
 14  9  1  0  0  0  0
 18 11  1  0  0  0  0
 19 12  1  0  0  0  0
 20 13  1  0  0  0  0
 22 14  1  0  0  0  0
 24 25  1  0  0  0  0
 25 27  2  0  0  0  0
 25 26  1  0  0  0  0
 27 28  1  0  0  0  0
 29 27  1  0  0  0  0
 30 29  1  0  0  0  0
 31 24  2  0  0  0  0
 31 29  1  0  0  0  0
M  END
>  <minimizedAffinity>
-4.8045783

>  <minimizedRMSD>
3.3237493

$$$$
