
 OpenBabel03252501173D

 20 21  0  0  0  0  0  0  0  0999 V2000
   45.4840   36.0320   43.0950 C   0  0  0  0  0  0  0  0  0  0  0  0
   46.3980   34.9580   42.9510 C   0  0  0  0  0  0  0  0  0  0  0  0
   46.3720   34.0290   43.9850 C   0  0  0  0  0  0  0  0  0  0  0  0
   45.4990   34.2120   45.0260 N   0  0  0  0  0  0  0  0  0  0  0  0
   44.6530   35.2600   45.1030 C   0  0  0  0  0  0  0  0  0  0  0  0
   44.6570   36.1700   44.1240 N   0  0  0  0  0  0  0  0  0  0  0  0
   45.4310   36.8050   42.3410 H   0  0  0  0  0  0  0  0  0  0  0  0
   44.0800   35.1670   46.0160 H   0  0  0  0  0  0  0  0  0  0  0  0
   47.2540   34.9380   41.7720 C   0  0  0  0  0  0  0  0  0  0  0  0
   46.9740   34.2320   40.6260 C   0  0  0  0  0  0  0  0  0  0  0  0
   46.1400   33.6010   40.3810 H   0  0  0  0  0  0  0  0  0  0  0  0
   47.9850   34.4330   39.7170 C   0  0  0  0  0  0  0  0  0  0  0  0
   48.0880   34.0350   38.7280 H   0  0  0  0  0  0  0  0  0  0  0  0
   48.8680   35.2490   40.2990 N   0  0  0  0  0  0  0  0  0  0  0  0
   49.7730   35.6370   39.9310 H   0  0  0  0  0  0  0  0  0  0  0  0
   48.4250   35.5310   41.4900 N   0  0  0  0  0  0  0  0  0  0  0  0
   47.3070   32.9140   43.8690 C   0  0  0  0  0  0  0  0  0  0  0  0
   47.4220   32.2630   45.0920 F   0  0  0  0  0  0  0  0  0  0  0  0
   48.5610   33.4850   43.6580 F   0  0  0  0  0  0  0  0  0  0  0  0
   46.9570   32.0040   42.9350 F   0  0  0  0  0  0  0  0  0  0  0  0
  1  6  1  0  0  0  0
  2  1  2  0  0  0  0
  2  3  1  0  0  0  0
  3  4  2  0  0  0  0
  4  5  1  0  0  0  0
  5  8  1  0  0  0  0
  6  5  2  0  0  0  0
  7  1  1  0  0  0  0
  9  2  1  0  0  0  0
 10  9  1  0  0  0  0
 11 10  1  0  0  0  0
 12 14  1  0  0  0  0
 12 10  2  0  0  0  0
 13 12  1  0  0  0  0
 14 16  1  0  0  0  0
 15 14  1  0  0  0  0
 16  9  2  0  0  0  0
 17  3  1  0  0  0  0
 17 18  1  0  0  0  0
 19 17  1  0  0  0  0
 20 17  1  0  0  0  0
M  END
>  <minimizedAffinity>
-4.95471239

>  <minimizedRMSD>
3.08108139

$$$$
