
 OpenBabel03252509263D

 29 31  0  0  1  0  0  0  0  0999 V2000
   46.5950   35.0970   41.9330 C   0  0  1  0  0  0  0  0  0  0  0  0
   48.1350   35.2700   41.9330 C   0  0  0  0  0  0  0  0  0  0  0  0
   47.3390   34.0810   41.3070 C   0  0  2  0  0  0  0  0  0  0  0  0
   46.1180   35.9300   41.4010 H   0  0  0  0  0  0  0  0  0  0  0  0
   48.5780   35.9140   41.1540 H   0  0  0  0  0  0  0  0  0  0  0  0
   48.6980   35.0160   42.8360 H   0  0  0  0  0  0  0  0  0  0  0  0
   47.4650   33.1010   41.8570 H   0  0  0  0  0  0  0  0  0  0  0  0
   44.6540   35.4150   45.1190 C   0  0  0  0  0  0  0  0  0  0  0  0
   45.1290   35.7240   43.8160 C   0  0  0  0  0  0  0  0  0  0  0  0
   46.0790   34.8700   43.3280 C   0  0  0  0  0  0  0  0  0  0  0  0
   46.5320   33.8030   44.0540 N   0  0  0  0  0  0  0  0  0  0  0  0
   46.0500   33.5510   45.2880 C   0  0  0  0  0  0  0  0  0  0  0  0
   45.1060   34.3620   45.8220 N   0  0  0  0  0  0  0  0  0  0  0  0
   43.8980   36.0480   45.5660 H   0  0  0  0  0  0  0  0  0  0  0  0
   46.4410   32.6960   45.8220 H   0  0  0  0  0  0  0  0  0  0  0  0
   44.6650   36.8470   43.1010 N   0  0  0  0  0  0  0  0  0  0  0  0
   43.6940   37.1560   42.8210 H   0  0  0  0  0  0  0  0  0  0  0  0
   45.4980   37.4330   42.8360 H   0  0  0  0  0  0  0  0  0  0  0  0
   47.3650   33.9200   39.8040 C   0  0  0  0  0  0  0  0  0  0  0  0
   48.3090   33.4280   39.5260 H   0  0  0  0  0  0  0  0  0  0  0  0
   47.3000   34.8940   39.2780 H   0  0  0  0  0  0  0  0  0  0  0  0
   46.2420   33.0210   39.4660 C   0  0  0  0  0  0  0  0  0  0  0  0
   45.7190   31.9610   40.1970 C   0  0  0  0  0  0  0  0  0  0  0  0
   46.0790   31.6260   41.1620 H   0  0  0  0  0  0  0  0  0  0  0  0
   44.6610   31.3940   39.4930 C   0  0  0  0  0  0  0  0  0  0  0  0
   44.0430   30.5550   39.7800 H   0  0  0  0  0  0  0  0  0  0  0  0
   44.5840   32.1400   38.3540 N   0  0  0  0  0  0  0  0  0  0  0  0
   43.8570   31.9180   37.6400 H   0  0  0  0  0  0  0  0  0  0  0  0
   45.4950   33.0810   38.3350 N   0  0  0  0  0  0  0  0  0  0  0  0
  1  4  1  6  0  0  0
  1 10  1  0  0  0  0
  2  1  1  0  0  0  0
  2  6  1  0  0  0  0
  3  7  1  1  0  0  0
  3  2  1  0  0  0  0
  3  1  1  0  0  0  0
  5  2  1  0  0  0  0
  8 14  1  0  0  0  0
  8 13  1  0  0  0  0
  9  8  2  0  0  0  0
 10  9  1  0  0  0  0
 10 11  2  0  0  0  0
 11 12  1  0  0  0  0
 12 15  1  0  0  0  0
 12 13  2  0  0  0  0
 16  9  1  0  0  0  0
 17 16  1  0  0  0  0
 18 16  1  0  0  0  0
 19  3  1  0  0  0  0
 20 19  1  0  0  0  0
 21 19  1  0  0  0  0
 22 19  1  0  0  0  0
 22 23  1  0  0  0  0
 23 24  1  0  0  0  0
 25 26  1  0  0  0  0
 25 23  2  0  0  0  0
 27 25  1  0  0  0  0
 28 27  1  0  0  0  0
 29 27  1  0  0  0  0
 29 22  2  0  0  0  0
M  END
>  <minimizedAffinity>
-4.40682173

>  <minimizedRMSD>
0.712903559

$$$$
