
 OpenBabel03242522053D

 43 46  0  0  1  0  0  0  0  0999 V2000
   44.7200   35.0750   45.3310 C   0  0  0  0  0  0  0  0  0  0  0  0
   45.5100   34.9530   44.1770 C   0  0  0  0  0  0  0  0  0  0  0  0
   46.4850   33.9380   44.1340 C   0  0  0  0  0  0  0  0  0  0  0  0
   46.5810   33.1510   45.2330 N   0  0  0  0  0  0  0  0  0  0  0  0
   45.8060   33.2920   46.3330 C   0  0  0  0  0  0  0  0  0  0  0  0
   44.8710   34.2680   46.3700 N   0  0  0  0  0  0  0  0  0  0  0  0
   43.9800   35.8620   45.3350 H   0  0  0  0  0  0  0  0  0  0  0  0
   45.4230   35.5810   43.3160 H   0  0  0  0  0  0  0  0  0  0  0  0
   47.3430   33.7060   43.0390 N   0  0  0  0  0  0  0  0  0  0  0  0
   46.9310   32.8570   41.9360 C   0  0  0  0  0  0  0  0  0  0  0  0
   48.1070   32.3380   41.1660 C   0  0  0  0  0  0  0  0  0  0  0  0
   49.0300   33.3230   40.7640 N   0  0  0  0  0  0  0  0  0  0  0  0
   49.2760   34.3900   41.6780 C   0  0  2  0  0  0  0  0  0  0  0  0
   48.6440   34.3130   43.0060 C   0  0  0  0  0  0  0  0  0  0  0  0
   46.2830   33.4750   41.2640 H   0  0  0  0  0  0  0  0  0  0  0  0
   46.3560   31.9740   42.3050 H   0  0  0  0  0  0  0  0  0  0  0  0
   48.6360   31.6300   41.8660 H   0  0  0  0  0  0  0  0  0  0  0  0
   47.7530   31.7510   40.3160 H   0  0  0  0  0  0  0  0  0  0  0  0
   49.8600   32.9060   40.3390 H   0  0  0  0  0  0  0  0  0  0  0  0
   50.3800   34.4620   41.8140 H   0  0  0  0  0  0  0  0  0  0  0  0
   49.2750   33.8150   43.7650 H   0  0  0  0  0  0  0  0  0  0  0  0
   48.5080   35.3590   43.4040 H   0  0  0  0  0  0  0  0  0  0  0  0
   48.8270   35.6760   41.0180 C   0  0  0  0  0  0  0  0  0  0  0  0
   49.6480   36.7270   41.4250 F   0  0  0  0  0  0  0  0  0  0  0  0
   47.5670   35.9450   41.5270 F   0  0  0  0  0  0  0  0  0  0  0  0
   48.8380   35.6330   39.6620 F   0  0  0  0  0  0  0  0  0  0  0  0
   45.9800   32.3980   47.4740 C   0  0  0  0  0  0  0  0  0  0  0  0
   44.8760   31.9330   48.1560 C   0  0  0  0  0  0  0  0  0  0  0  0
   45.0940   31.0870   49.2310 C   0  0  0  0  0  0  0  0  0  0  0  0
   46.3960   30.7780   49.5300 C   0  0  0  0  0  0  0  0  0  0  0  0
   47.5020   31.2310   48.8620 C   0  0  0  0  0  0  0  0  0  0  0  0
   47.2560   32.0580   47.8150 N   0  0  0  0  0  0  0  0  0  0  0  0
   43.8670   32.2080   47.8790 H   0  0  0  0  0  0  0  0  0  0  0  0
   44.2870   30.6770   49.8200 H   0  0  0  0  0  0  0  0  0  0  0  0
   46.5740   30.1130   50.3720 H   0  0  0  0  0  0  0  0  0  0  0  0
   48.8650   30.8660   49.2280 C   0  0  0  0  0  0  0  0  0  0  0  0
   49.8250   31.8020   49.5680 C   0  0  0  0  0  0  0  0  0  0  0  0
   49.7730   32.8650   49.6260 H   0  0  0  0  0  0  0  0  0  0  0  0
   50.9720   31.0720   49.8470 C   0  0  0  0  0  0  0  0  0  0  0  0
   51.9470   31.4680   50.1530 H   0  0  0  0  0  0  0  0  0  0  0  0
   50.6950   29.7490   49.6760 N   0  0  0  0  0  0  0  0  0  0  0  0
   51.3810   28.9480   49.8190 H   0  0  0  0  0  0  0  0  0  0  0  0
   49.4200   29.6430   49.3040 N   0  0  0  0  0  0  0  0  0  0  0  0
  1  7  1  0  0  0  0
  1  6  1  0  0  0  0
  2  1  2  0  0  0  0
  3  2  1  0  0  0  0
  3  4  2  0  0  0  0
  4  5  1  0  0  0  0
  5  6  2  0  0  0  0
  5 27  1  0  0  0  0
  8  2  1  0  0  0  0
  9  3  1  0  0  0  0
 10 16  1  0  0  0  0
 10  9  1  0  0  0  0
 11 17  1  0  0  0  0
 11 10  1  0  0  0  0
 12 11  1  0  0  0  0
 12 13  1  0  0  0  0
 13 20  1  1  0  0  0
 13 14  1  0  0  0  0
 14  9  1  0  0  0  0
 14 22  1  0  0  0  0
 14 21  1  0  0  0  0
 15 10  1  0  0  0  0
 18 11  1  0  0  0  0
 19 12  1  0  0  0  0
 23 24  1  0  0  0  0
 23 25  1  0  0  0  0
 23 13  1  0  0  0  0
 26 23  1  0  0  0  0
 27 32  2  0  0  0  0
 27 28  1  0  0  0  0
 28 29  2  0  0  0  0
 29 30  1  0  0  0  0
 29 34  1  0  0  0  0
 30 35  1  0  0  0  0
 31 36  1  0  0  0  0
 31 30  2  0  0  0  0
 32 31  1  0  0  0  0
 33 28  1  0  0  0  0
 36 43  2  0  0  0  0
 36 37  1  0  0  0  0
 37 38  1  0  0  0  0
 37 39  2  0  0  0  0
 39 40  1  0  0  0  0
 41 42  1  0  0  0  0
 41 39  1  0  0  0  0
 43 41  1  0  0  0  0
M  END
>  <minimizedAffinity>
-7.19683695

>  <minimizedRMSD>
0.248368755

$$$$
