
 OpenBabel03252508573D

 23 24  0  0  0  0  0  0  0  0999 V2000
   35.6020   28.8510   40.8610 C   0  0  0  0  0  0  0  0  0  0  0  0
   35.3190   29.7400   41.4410 H   0  0  0  0  0  0  0  0  0  0  0  0
   34.7500   28.1820   40.6430 H   0  0  0  0  0  0  0  0  0  0  0  0
   37.9750   26.0980   41.8360 C   0  0  0  0  0  0  0  0  0  0  0  0
   37.0370   26.8550   41.1210 C   0  0  0  0  0  0  0  0  0  0  0  0
   36.5930   28.0660   41.6320 C   0  0  0  0  0  0  0  0  0  0  0  0
   37.1110   28.4480   42.8240 N   0  0  0  0  0  0  0  0  0  0  0  0
   38.0140   27.7060   43.5020 C   0  0  0  0  0  0  0  0  0  0  0  0
   38.4430   26.5450   43.0170 N   0  0  0  0  0  0  0  0  0  0  0  0
   38.2540   25.1760   41.3520 H   0  0  0  0  0  0  0  0  0  0  0  0
   36.6420   26.5350   40.1800 H   0  0  0  0  0  0  0  0  0  0  0  0
   38.4080   28.0500   44.4650 H   0  0  0  0  0  0  0  0  0  0  0  0
   36.2290   29.2370   39.5270 C   0  0  0  0  0  0  0  0  0  0  0  0
   35.4770   29.0850   38.7430 H   0  0  0  0  0  0  0  0  0  0  0  0
   37.1440   28.6430   39.4080 H   0  0  0  0  0  0  0  0  0  0  0  0
   36.5890   30.6900   39.6550 C   0  0  0  0  0  0  0  0  0  0  0  0
   37.0660   31.4110   38.5560 C   0  0  0  0  0  0  0  0  0  0  0  0
   37.2260   31.0520   37.5550 H   0  0  0  0  0  0  0  0  0  0  0  0
   37.2660   32.6790   39.1130 C   0  0  0  0  0  0  0  0  0  0  0  0
   37.6440   33.5060   38.5120 H   0  0  0  0  0  0  0  0  0  0  0  0
   36.9370   32.6940   40.4110 N   0  0  0  0  0  0  0  0  0  0  0  0
   36.9790   33.4920   41.0800 H   0  0  0  0  0  0  0  0  0  0  0  0
   36.5170   31.4680   40.7500 N   0  0  0  0  0  0  0  0  0  0  0  0
  1  2  1  0  0  0  0
  1  6  1  0  0  0  0
  3  1  1  0  0  0  0
  4  9  1  0  0  0  0
  5  6  1  0  0  0  0
  5  4  2  0  0  0  0
  6  7  2  0  0  0  0
  7  8  1  0  0  0  0
  8 12  1  0  0  0  0
  9  8  2  0  0  0  0
 10  4  1  0  0  0  0
 11  5  1  0  0  0  0
 13 16  1  0  0  0  0
 13  1  1  0  0  0  0
 14 13  1  0  0  0  0
 15 13  1  0  0  0  0
 16 23  2  0  0  0  0
 17 19  2  0  0  0  0
 17 16  1  0  0  0  0
 18 17  1  0  0  0  0
 19 21  1  0  0  0  0
 20 19  1  0  0  0  0
 21 23  1  0  0  0  0
 21 22  1  0  0  0  0
M  END
>  <minimizedAffinity>
-4.26132441

$$$$

 OpenBabel03252508573D

 23 24  0  0  0  0  0  0  0  0999 V2000
   35.6040   28.7810   40.9260 C   0  0  0  0  0  0  0  0  0  0  0  0
   35.4150   29.6610   41.5560 H   0  0  0  0  0  0  0  0  0  0  0  0
   34.7050   28.1590   40.7640 H   0  0  0  0  0  0  0  0  0  0  0  0
   38.0600   27.4920   43.4700 C   0  0  0  0  0  0  0  0  0  0  0  0
   37.0990   28.2890   42.8330 C   0  0  0  0  0  0  0  0  0  0  0  0
   36.6190   27.9260   41.5830 C   0  0  0  0  0  0  0  0  0  0  0  0
   37.1260   26.7900   41.0450 N   0  0  0  0  0  0  0  0  0  0  0  0
   38.0530   26.0330   41.6720 C   0  0  0  0  0  0  0  0  0  0  0  0
   38.5160   26.3760   42.8690 N   0  0  0  0  0  0  0  0  0  0  0  0
   38.3650   27.8620   44.4360 H   0  0  0  0  0  0  0  0  0  0  0  0
   36.7120   29.1820   43.2770 H   0  0  0  0  0  0  0  0  0  0  0  0
   38.4380   25.1210   41.2010 H   0  0  0  0  0  0  0  0  0  0  0  0
   36.1310   29.1840   39.5550 C   0  0  0  0  0  0  0  0  0  0  0  0
   35.3160   29.0610   38.8300 H   0  0  0  0  0  0  0  0  0  0  0  0
   37.0220   28.5770   39.3520 H   0  0  0  0  0  0  0  0  0  0  0  0
   36.5270   30.6270   39.6810 C   0  0  0  0  0  0  0  0  0  0  0  0
   37.0200   31.3360   38.5810 C   0  0  0  0  0  0  0  0  0  0  0  0
   37.1710   30.9730   37.5810 H   0  0  0  0  0  0  0  0  0  0  0  0
   37.2530   32.5990   39.1380 C   0  0  0  0  0  0  0  0  0  0  0  0
   37.6510   33.4160   38.5360 H   0  0  0  0  0  0  0  0  0  0  0  0
   36.9260   32.6230   40.4360 N   0  0  0  0  0  0  0  0  0  0  0  0
   36.9900   33.4190   41.1050 H   0  0  0  0  0  0  0  0  0  0  0  0
   36.4760   31.4070   40.7770 N   0  0  0  0  0  0  0  0  0  0  0  0
  1  2  1  0  0  0  0
  1  6  1  0  0  0  0
  3  1  1  0  0  0  0
  4 10  1  0  0  0  0
  5 11  1  0  0  0  0
  5  4  2  0  0  0  0
  6  5  1  0  0  0  0
  7  6  2  0  0  0  0
  7  8  1  0  0  0  0
  8  9  2  0  0  0  0
  9  4  1  0  0  0  0
 12  8  1  0  0  0  0
 13 16  1  0  0  0  0
 13  1  1  0  0  0  0
 14 13  1  0  0  0  0
 15 13  1  0  0  0  0
 16 23  2  0  0  0  0
 17 19  2  0  0  0  0
 17 16  1  0  0  0  0
 18 17  1  0  0  0  0
 19 21  1  0  0  0  0
 20 19  1  0  0  0  0
 21 23  1  0  0  0  0
 21 22  1  0  0  0  0
M  END
>  <minimizedAffinity>
-4.20538855

$$$$

 OpenBabel03252508573D

 23 24  0  0  0  0  0  0  0  0999 V2000
   38.3840   28.5310   43.3850 C   0  0  0  0  0  0  0  0  0  0  0  0
   38.8680   28.8040   44.3320 H   0  0  0  0  0  0  0  0  0  0  0  0
   37.2920   28.6990   43.3870 H   0  0  0  0  0  0  0  0  0  0  0  0
   39.9450   25.1060   43.4470 C   0  0  0  0  0  0  0  0  0  0  0  0
   39.7180   26.4700   43.6800 C   0  0  0  0  0  0  0  0  0  0  0  0
   38.6060   27.0890   43.1270 C   0  0  0  0  0  0  0  0  0  0  0  0
   37.7890   26.3110   42.3780 N   0  0  0  0  0  0  0  0  0  0  0  0
   38.0220   24.9980   42.1620 C   0  0  0  0  0  0  0  0  0  0  0  0
   39.0850   24.3990   42.6890 N   0  0  0  0  0  0  0  0  0  0  0  0
   40.8350   24.7240   43.9210 H   0  0  0  0  0  0  0  0  0  0  0  0
   40.3770   27.0660   44.2760 H   0  0  0  0  0  0  0  0  0  0  0  0
   37.3350   24.4040   41.5480 H   0  0  0  0  0  0  0  0  0  0  0  0
   38.9640   29.3210   42.2180 C   0  0  0  0  0  0  0  0  0  0  0  0
   39.3420   28.6040   41.4790 H   0  0  0  0  0  0  0  0  0  0  0  0
   39.7210   30.0040   42.6260 H   0  0  0  0  0  0  0  0  0  0  0  0
   37.8200   30.1180   41.6610 C   0  0  0  0  0  0  0  0  0  0  0  0
   38.0460   31.1830   40.7830 C   0  0  0  0  0  0  0  0  0  0  0  0
   38.9910   31.5440   40.4210 H   0  0  0  0  0  0  0  0  0  0  0  0
   36.7420   31.6220   40.5270 C   0  0  0  0  0  0  0  0  0  0  0  0
   36.5520   32.4640   39.8610 H   0  0  0  0  0  0  0  0  0  0  0  0
   35.8440   30.8840   41.1910 N   0  0  0  0  0  0  0  0  0  0  0  0
   34.8060   30.9750   41.1940 H   0  0  0  0  0  0  0  0  0  0  0  0
   36.5040   29.9530   41.8920 N   0  0  0  0  0  0  0  0  0  0  0  0
  1  3  1  0  0  0  0
  1  2  1  0  0  0  0
  4  5  1  0  0  0  0
  4 10  1  0  0  0  0
  5 11  1  0  0  0  0
  6  1  1  0  0  0  0
  6  5  2  0  0  0  0
  7  6  1  0  0  0  0
  8  7  2  0  0  0  0
  8  9  1  0  0  0  0
  9  4  2  0  0  0  0
 12  8  1  0  0  0  0
 13 15  1  0  0  0  0
 13  1  1  0  0  0  0
 14 13  1  0  0  0  0
 16 23  2  0  0  0  0
 16 13  1  0  0  0  0
 17 16  1  0  0  0  0
 18 17  1  0  0  0  0
 19 17  2  0  0  0  0
 19 21  1  0  0  0  0
 20 19  1  0  0  0  0
 21 22  1  0  0  0  0
 21 23  1  0  0  0  0
M  END
>  <minimizedAffinity>
-4.188591

$$$$

 OpenBabel03252508573D

 23 24  0  0  0  0  0  0  0  0999 V2000
   37.4800   28.3040   43.1070 C   0  0  0  0  0  0  0  0  0  0  0  0
   38.2110   29.1170   43.2120 H   0  0  0  0  0  0  0  0  0  0  0  0
   36.7630   28.2500   43.9450 H   0  0  0  0  0  0  0  0  0  0  0  0
   38.3180   24.7300   42.2760 C   0  0  0  0  0  0  0  0  0  0  0  0
   37.6510   25.9620   42.3340 C   0  0  0  0  0  0  0  0  0  0  0  0
   38.2000   27.0100   43.0580 C   0  0  0  0  0  0  0  0  0  0  0  0
   39.3780   26.7670   43.6800 N   0  0  0  0  0  0  0  0  0  0  0  0
   40.0090   25.5740   43.6150 C   0  0  0  0  0  0  0  0  0  0  0  0
   39.4880   24.5650   42.9230 N   0  0  0  0  0  0  0  0  0  0  0  0
   37.8080   23.9840   41.6880 H   0  0  0  0  0  0  0  0  0  0  0  0
   36.7210   26.1320   41.8340 H   0  0  0  0  0  0  0  0  0  0  0  0
   40.9610   25.4180   44.1340 H   0  0  0  0  0  0  0  0  0  0  0  0
   36.6690   28.4500   41.8250 C   0  0  0  0  0  0  0  0  0  0  0  0
   35.6140   28.2800   42.0710 H   0  0  0  0  0  0  0  0  0  0  0  0
   37.0880   27.7520   41.0880 H   0  0  0  0  0  0  0  0  0  0  0  0
   36.8940   29.8610   41.3620 C   0  0  0  0  0  0  0  0  0  0  0  0
   38.1880   30.3780   41.2360 C   0  0  0  0  0  0  0  0  0  0  0  0
   39.1170   29.8770   41.4370 H   0  0  0  0  0  0  0  0  0  0  0  0
   37.9310   31.6810   40.7920 C   0  0  0  0  0  0  0  0  0  0  0  0
   38.7440   32.3780   40.5890 H   0  0  0  0  0  0  0  0  0  0  0  0
   36.6150   31.9000   40.6720 N   0  0  0  0  0  0  0  0  0  0  0  0
   36.1290   32.7690   40.3630 H   0  0  0  0  0  0  0  0  0  0  0  0
   35.9710   30.7790   41.0220 N   0  0  0  0  0  0  0  0  0  0  0  0
  1  2  1  0  0  0  0
  1  3  1  0  0  0  0
  4  5  2  0  0  0  0
  4  9  1  0  0  0  0
  5  6  1  0  0  0  0
  6  1  1  0  0  0  0
  6  7  2  0  0  0  0
  8  7  1  0  0  0  0
  8 12  1  0  0  0  0
  9  8  2  0  0  0  0
 10  4  1  0  0  0  0
 11  5  1  0  0  0  0
 13 14  1  0  0  0  0
 13  1  1  0  0  0  0
 15 13  1  0  0  0  0
 16 13  1  0  0  0  0
 17 16  1  0  0  0  0
 17 18  1  0  0  0  0
 19 17  2  0  0  0  0
 20 19  1  0  0  0  0
 21 19  1  0  0  0  0
 21 23  1  0  0  0  0
 22 21  1  0  0  0  0
 23 16  2  0  0  0  0
M  END
>  <minimizedAffinity>
-4.16514587

$$$$

 OpenBabel03252508573D

 23 24  0  0  0  0  0  0  0  0999 V2000
   37.7020   28.0670   43.3860 C   0  0  0  0  0  0  0  0  0  0  0  0
   37.1060   28.3330   44.2700 H   0  0  0  0  0  0  0  0  0  0  0  0
   38.7040   27.6750   43.6360 H   0  0  0  0  0  0  0  0  0  0  0  0
   39.3200   31.0820   41.8190 C   0  0  0  0  0  0  0  0  0  0  0  0
   39.1160   29.9360   42.6000 C   0  0  0  0  0  0  0  0  0  0  0  0
   37.8970   29.2770   42.5530 C   0  0  0  0  0  0  0  0  0  0  0  0
   36.9560   29.7990   41.7320 N   0  0  0  0  0  0  0  0  0  0  0  0
   37.1670   30.9060   40.9850 C   0  0  0  0  0  0  0  0  0  0  0  0
   38.3340   31.5420   41.0260 N   0  0  0  0  0  0  0  0  0  0  0  0
   40.3010   31.5180   41.9290 H   0  0  0  0  0  0  0  0  0  0  0  0
   39.8750   29.5400   43.2430 H   0  0  0  0  0  0  0  0  0  0  0  0
   36.3790   31.2970   40.3330 H   0  0  0  0  0  0  0  0  0  0  0  0
   36.9980   27.0120   42.5420 C   0  0  0  0  0  0  0  0  0  0  0  0
   36.9070   27.4030   41.5200 H   0  0  0  0  0  0  0  0  0  0  0  0
   36.0440   26.7780   43.0320 H   0  0  0  0  0  0  0  0  0  0  0  0
   37.8890   25.8040   42.5780 C   0  0  0  0  0  0  0  0  0  0  0  0
   39.2070   25.8970   43.0370 C   0  0  0  0  0  0  0  0  0  0  0  0
   39.7170   26.7730   43.3940 H   0  0  0  0  0  0  0  0  0  0  0  0
   39.6490   24.5750   42.8990 C   0  0  0  0  0  0  0  0  0  0  0  0
   40.6640   24.2890   43.1760 H   0  0  0  0  0  0  0  0  0  0  0  0
   38.6820   23.7900   42.4090 N   0  0  0  0  0  0  0  0  0  0  0  0
   38.7190   22.7690   42.2040 H   0  0  0  0  0  0  0  0  0  0  0  0
   37.5920   24.5440   42.2100 N   0  0  0  0  0  0  0  0  0  0  0  0
  1  3  1  0  0  0  0
  1  2  1  0  0  0  0
  4 10  1  0  0  0  0
  4  5  1  0  0  0  0
  5 11  1  0  0  0  0
  6  5  2  0  0  0  0
  6  1  1  0  0  0  0
  7  6  1  0  0  0  0
  8  9  1  0  0  0  0
  8  7  2  0  0  0  0
  9  4  2  0  0  0  0
 12  8  1  0  0  0  0
 13 16  1  0  0  0  0
 13 15  1  0  0  0  0
 13  1  1  0  0  0  0
 14 13  1  0  0  0  0
 16 17  1  0  0  0  0
 17 18  1  0  0  0  0
 19 17  2  0  0  0  0
 19 20  1  0  0  0  0
 21 19  1  0  0  0  0
 22 21  1  0  0  0  0
 23 21  1  0  0  0  0
 23 16  2  0  0  0  0
M  END
>  <minimizedAffinity>
-4.02695322

$$$$

 OpenBabel03252508573D

 23 24  0  0  0  0  0  0  0  0999 V2000
   37.1540   26.9700   42.8500 C   0  0  0  0  0  0  0  0  0  0  0  0
   37.2820   26.8600   43.9350 H   0  0  0  0  0  0  0  0  0  0  0  0
   36.0980   27.0770   42.5420 H   0  0  0  0  0  0  0  0  0  0  0  0
   39.5650   24.5670   41.2430 C   0  0  0  0  0  0  0  0  0  0  0  0
   39.0410   25.7000   41.8800 C   0  0  0  0  0  0  0  0  0  0  0  0
   37.6880   25.7630   42.1760 C   0  0  0  0  0  0  0  0  0  0  0  0
   36.9390   24.6920   41.8200 N   0  0  0  0  0  0  0  0  0  0  0  0
   37.4580   23.6060   41.2060 C   0  0  0  0  0  0  0  0  0  0  0  0
   38.7550   23.5410   40.9190 N   0  0  0  0  0  0  0  0  0  0  0  0
   40.6260   24.6190   41.0590 H   0  0  0  0  0  0  0  0  0  0  0  0
   39.6510   26.5360   42.1530 H   0  0  0  0  0  0  0  0  0  0  0  0
   36.8180   22.7600   40.9330 H   0  0  0  0  0  0  0  0  0  0  0  0
   37.9060   28.1850   42.3230 C   0  0  0  0  0  0  0  0  0  0  0  0
   38.6520   27.8330   41.5990 H   0  0  0  0  0  0  0  0  0  0  0  0
   38.3200   28.7180   43.1880 H   0  0  0  0  0  0  0  0  0  0  0  0
   36.8710   29.0430   41.6550 C   0  0  0  0  0  0  0  0  0  0  0  0
   35.9250   28.4860   40.7880 C   0  0  0  0  0  0  0  0  0  0  0  0
   35.8220   27.4540   40.5060 H   0  0  0  0  0  0  0  0  0  0  0  0
   35.1870   29.6140   40.4100 C   0  0  0  0  0  0  0  0  0  0  0  0
   34.3470   29.5320   39.7190 H   0  0  0  0  0  0  0  0  0  0  0  0
   35.6570   30.7200   41.0000 N   0  0  0  0  0  0  0  0  0  0  0  0
   35.3110   31.6980   40.9100 H   0  0  0  0  0  0  0  0  0  0  0  0
   36.6970   30.3730   41.7700 N   0  0  0  0  0  0  0  0  0  0  0  0
  1  2  1  0  0  0  0
  3  1  1  0  0  0  0
  4  5  1  0  0  0  0
  5 11  1  0  0  0  0
  5  6  2  0  0  0  0
  6  1  1  0  0  0  0
  7  6  1  0  0  0  0
  8  7  2  0  0  0  0
  9  8  1  0  0  0  0
  9  4  2  0  0  0  0
 10  4  1  0  0  0  0
 12  8  1  0  0  0  0
 13  1  1  0  0  0  0
 13 15  1  0  0  0  0
 14 13  1  0  0  0  0
 16 23  2  0  0  0  0
 16 13  1  0  0  0  0
 17 16  1  0  0  0  0
 18 17  1  0  0  0  0
 19 17  2  0  0  0  0
 19 21  1  0  0  0  0
 20 19  1  0  0  0  0
 21 23  1  0  0  0  0
 22 21  1  0  0  0  0
M  END
>  <minimizedAffinity>
-3.99834085

$$$$

 OpenBabel03252508573D

 23 24  0  0  0  0  0  0  0  0999 V2000
   37.4710   28.5110   39.5720 C   0  0  0  0  0  0  0  0  0  0  0  0
   37.4510   27.5870   38.9780 H   0  0  0  0  0  0  0  0  0  0  0  0
   38.3110   29.1800   39.3130 H   0  0  0  0  0  0  0  0  0  0  0  0
   39.0260   27.8710   42.9390 C   0  0  0  0  0  0  0  0  0  0  0  0
   38.8720   28.1980   41.5850 C   0  0  0  0  0  0  0  0  0  0  0  0
   37.6120   28.1620   41.0050 C   0  0  0  0  0  0  0  0  0  0  0  0
   36.5840   27.8040   41.8100 N   0  0  0  0  0  0  0  0  0  0  0  0
   36.7480   27.4910   43.1140 C   0  0  0  0  0  0  0  0  0  0  0  0
   37.9530   27.5230   43.6750 N   0  0  0  0  0  0  0  0  0  0  0  0
   40.0430   27.9310   43.2910 H   0  0  0  0  0  0  0  0  0  0  0  0
   39.6990   28.4790   40.9670 H   0  0  0  0  0  0  0  0  0  0  0  0
   35.8890   27.2050   43.7310 H   0  0  0  0  0  0  0  0  0  0  0  0
   36.1850   29.3080   39.3980 C   0  0  0  0  0  0  0  0  0  0  0  0
   35.4780   28.9840   40.1720 H   0  0  0  0  0  0  0  0  0  0  0  0
   35.8390   29.1570   38.3670 H   0  0  0  0  0  0  0  0  0  0  0  0
   36.5710   30.7470   39.5890 C   0  0  0  0  0  0  0  0  0  0  0  0
   37.1000   31.4950   38.5320 C   0  0  0  0  0  0  0  0  0  0  0  0
   37.2860   31.1680   37.5260 H   0  0  0  0  0  0  0  0  0  0  0  0
   37.3090   32.7380   39.1420 C   0  0  0  0  0  0  0  0  0  0  0  0
   37.7240   33.5770   38.5830 H   0  0  0  0  0  0  0  0  0  0  0  0
   36.9360   32.7150   40.4280 N   0  0  0  0  0  0  0  0  0  0  0  0
   36.9740   33.4880   41.1260 H   0  0  0  0  0  0  0  0  0  0  0  0
   36.4800   31.4870   40.7090 N   0  0  0  0  0  0  0  0  0  0  0  0
  1  6  1  0  0  0  0
  2  1  1  0  0  0  0
  3  1  1  0  0  0  0
  4 10  1  0  0  0  0
  4  9  1  0  0  0  0
  5  4  2  0  0  0  0
  6  5  1  0  0  0  0
  6  7  2  0  0  0  0
  7  8  1  0  0  0  0
  8  9  2  0  0  0  0
  8 12  1  0  0  0  0
 11  5  1  0  0  0  0
 13  1  1  0  0  0  0
 13 16  1  0  0  0  0
 13 14  1  0  0  0  0
 15 13  1  0  0  0  0
 16 23  2  0  0  0  0
 17 19  2  0  0  0  0
 17 16  1  0  0  0  0
 18 17  1  0  0  0  0
 19 21  1  0  0  0  0
 20 19  1  0  0  0  0
 21 23  1  0  0  0  0
 21 22  1  0  0  0  0
M  END
>  <minimizedAffinity>
-3.93421173

$$$$

 OpenBabel03252508573D

 23 24  0  0  0  0  0  0  0  0999 V2000
   36.5780   27.9840   39.3790 C   0  0  0  0  0  0  0  0  0  0  0  0
   36.2880   27.6380   38.3780 H   0  0  0  0  0  0  0  0  0  0  0  0
   37.5340   28.5370   39.3910 H   0  0  0  0  0  0  0  0  0  0  0  0
   37.2110   25.9180   42.4610 C   0  0  0  0  0  0  0  0  0  0  0  0
   37.0560   27.0150   41.6030 C   0  0  0  0  0  0  0  0  0  0  0  0
   36.7380   26.8100   40.2690 C   0  0  0  0  0  0  0  0  0  0  0  0
   36.5930   25.5240   39.8710 N   0  0  0  0  0  0  0  0  0  0  0  0
   36.7460   24.4750   40.7100 C   0  0  0  0  0  0  0  0  0  0  0  0
   37.0510   24.6660   41.9890 N   0  0  0  0  0  0  0  0  0  0  0  0
   37.4580   26.1860   43.4750 H   0  0  0  0  0  0  0  0  0  0  0  0
   37.1750   28.0240   41.9390 H   0  0  0  0  0  0  0  0  0  0  0  0
   36.6200   23.4490   40.3470 H   0  0  0  0  0  0  0  0  0  0  0  0
   35.5170   28.8990   39.9780 C   0  0  0  0  0  0  0  0  0  0  0  0
   35.3150   28.5580   41.0010 H   0  0  0  0  0  0  0  0  0  0  0  0
   34.6480   28.8800   39.3070 H   0  0  0  0  0  0  0  0  0  0  0  0
   36.1200   30.2740   39.9760 C   0  0  0  0  0  0  0  0  0  0  0  0
   36.6610   30.8200   38.8080 C   0  0  0  0  0  0  0  0  0  0  0  0
   36.7140   30.3660   37.8350 H   0  0  0  0  0  0  0  0  0  0  0  0
   37.0950   32.0730   39.2550 C   0  0  0  0  0  0  0  0  0  0  0  0
   37.5780   32.7770   38.5770 H   0  0  0  0  0  0  0  0  0  0  0  0
   36.8320   32.2400   40.5570 N   0  0  0  0  0  0  0  0  0  0  0  0
   37.0370   33.0670   41.1580 H   0  0  0  0  0  0  0  0  0  0  0  0
   36.2290   31.1320   41.0070 N   0  0  0  0  0  0  0  0  0  0  0  0
  1  3  1  0  0  0  0
  1 13  1  0  0  0  0
  1  6  1  0  0  0  0
  2  1  1  0  0  0  0
  4 10  1  0  0  0  0
  5 11  1  0  0  0  0
  5  4  2  0  0  0  0
  6  5  1  0  0  0  0
  7  6  2  0  0  0  0
  7  8  1  0  0  0  0
  8  9  2  0  0  0  0
  9  4  1  0  0  0  0
 12  8  1  0  0  0  0
 13 14  1  0  0  0  0
 15 13  1  0  0  0  0
 16 13  1  0  0  0  0
 16 23  2  0  0  0  0
 17 19  2  0  0  0  0
 17 16  1  0  0  0  0
 18 17  1  0  0  0  0
 19 21  1  0  0  0  0
 20 19  1  0  0  0  0
 21 23  1  0  0  0  0
 21 22  1  0  0  0  0
M  END
>  <minimizedAffinity>
-3.92658424

$$$$

 OpenBabel03252508573D

 23 24  0  0  0  0  0  0  0  0999 V2000
   36.7200   27.7440   42.4310 C   0  0  0  0  0  0  0  0  0  0  0  0
   36.3380   27.0700   41.6520 H   0  0  0  0  0  0  0  0  0  0  0  0
   35.9940   27.9310   43.2420 H   0  0  0  0  0  0  0  0  0  0  0  0
   36.3690   30.9350   40.4650 C   0  0  0  0  0  0  0  0  0  0  0  0
   36.0820   29.6950   41.0520 C   0  0  0  0  0  0  0  0  0  0  0  0
   37.0430   29.0540   41.8190 C   0  0  0  0  0  0  0  0  0  0  0  0
   38.2320   29.6890   41.9560 N   0  0  0  0  0  0  0  0  0  0  0  0
   38.4950   30.8840   41.3840 C   0  0  0  0  0  0  0  0  0  0  0  0
   37.5770   31.5030   40.6470 N   0  0  0  0  0  0  0  0  0  0  0  0
   35.5550   31.3460   39.8900 H   0  0  0  0  0  0  0  0  0  0  0  0
   35.1350   29.2110   40.9310 H   0  0  0  0  0  0  0  0  0  0  0  0
   39.4700   31.3640   41.5180 H   0  0  0  0  0  0  0  0  0  0  0  0
   37.9850   27.1890   43.0720 C   0  0  0  0  0  0  0  0  0  0  0  0
   37.8490   27.2110   44.1610 H   0  0  0  0  0  0  0  0  0  0  0  0
   38.8310   27.7820   42.7020 H   0  0  0  0  0  0  0  0  0  0  0  0
   38.1070   25.7780   42.5720 C   0  0  0  0  0  0  0  0  0  0  0  0
   37.0840   25.1910   41.8210 C   0  0  0  0  0  0  0  0  0  0  0  0
   36.1500   25.6340   41.5260 H   0  0  0  0  0  0  0  0  0  0  0  0
   37.6060   23.9150   41.5780 C   0  0  0  0  0  0  0  0  0  0  0  0
   37.0470   23.1780   41.0010 H   0  0  0  0  0  0  0  0  0  0  0  0
   38.8160   23.7740   42.1330 N   0  0  0  0  0  0  0  0  0  0  0  0
   39.4430   22.9410   42.1170 H   0  0  0  0  0  0  0  0  0  0  0  0
   39.1310   24.9220   42.7480 N   0  0  0  0  0  0  0  0  0  0  0  0
  1 13  1  0  0  0  0
  1  3  1  0  0  0  0
  2  1  1  0  0  0  0
  4  9  2  0  0  0  0
  4  5  1  0  0  0  0
  5  6  2  0  0  0  0
  6  7  1  0  0  0  0
  6  1  1  0  0  0  0
  8 12  1  0  0  0  0
  8  7  2  0  0  0  0
  9  8  1  0  0  0  0
 10  4  1  0  0  0  0
 11  5  1  0  0  0  0
 13 14  1  0  0  0  0
 15 13  1  0  0  0  0
 16 23  2  0  0  0  0
 16 13  1  0  0  0  0
 17 16  1  0  0  0  0
 18 17  1  0  0  0  0
 19 17  2  0  0  0  0
 19 21  1  0  0  0  0
 20 19  1  0  0  0  0
 21 23  1  0  0  0  0
 22 21  1  0  0  0  0
M  END
>  <minimizedAffinity>
-3.90549779

$$$$
