
 OpenBabel03242517193D

 38 40  0  0  0  0  0  0  0  0999 V2000
   44.6530   35.2960   43.1420 C   0  0  0  0  0  0  0  0  0  0  0  0
   43.8030   34.6130   42.2290 C   0  0  0  0  0  0  0  0  0  0  0  0
   43.9550   33.2550   42.1030 C   0  0  0  0  0  0  0  0  0  0  0  0
   44.9090   32.6450   42.8590 N   0  0  0  0  0  0  0  0  0  0  0  0
   45.7040   33.2920   43.7140 C   0  0  0  0  0  0  0  0  0  0  0  0
   45.5630   34.6150   43.8430 N   0  0  0  0  0  0  0  0  0  0  0  0
   44.5200   36.3600   43.2270 H   0  0  0  0  0  0  0  0  0  0  0  0
   43.3300   32.6940   41.4200 H   0  0  0  0  0  0  0  0  0  0  0  0
   46.7360   32.6740   44.5400 C   0  0  0  0  0  0  0  0  0  0  0  0
   47.7590   32.6890   44.1260 H   0  0  0  0  0  0  0  0  0  0  0  0
   46.4820   31.5850   44.6440 H   0  0  0  0  0  0  0  0  0  0  0  0
   46.7090   33.2660   45.9460 C   0  0  0  0  0  0  0  0  0  0  0  0
   46.3180   34.3000   45.8630 H   0  0  0  0  0  0  0  0  0  0  0  0
   47.7680   33.3640   46.2610 H   0  0  0  0  0  0  0  0  0  0  0  0
   45.8910   32.4660   46.8620 C   0  0  0  0  0  0  0  0  0  0  0  0
   45.9390   31.0770   46.9000 C   0  0  0  0  0  0  0  0  0  0  0  0
   46.5510   30.4200   46.2960 H   0  0  0  0  0  0  0  0  0  0  0  0
   45.0200   30.7310   47.8910 C   0  0  0  0  0  0  0  0  0  0  0  0
   44.8620   29.6670   48.1270 H   0  0  0  0  0  0  0  0  0  0  0  0
   44.4730   31.8720   48.3970 N   0  0  0  0  0  0  0  0  0  0  0  0
   43.7680   31.7150   49.1500 H   0  0  0  0  0  0  0  0  0  0  0  0
   45.0030   32.9060   47.7710 N   0  0  0  0  0  0  0  0  0  0  0  0
   42.8040   35.3490   41.4550 C   0  0  0  0  0  0  0  0  0  0  0  0
   41.5260   35.3620   41.6860 C   0  0  0  0  0  0  0  0  0  0  0  0
   40.5530   36.1320   40.8640 C   0  0  0  0  0  0  0  0  0  0  0  0
   41.0040   37.0310   40.4020 H   0  0  0  0  0  0  0  0  0  0  0  0
   39.7780   36.5200   41.5560 H   0  0  0  0  0  0  0  0  0  0  0  0
   41.4000   36.1370   38.2110 F   0  0  0  0  0  0  0  0  0  0  0  0
   40.3780   35.3360   38.5410 C   0  0  0  0  0  0  0  0  0  0  0  0
   39.9130   35.2940   39.8600 C   0  0  0  0  0  0  0  0  0  0  0  0
   38.8650   34.4360   40.0700 C   0  0  0  0  0  0  0  0  0  0  0  0
   38.2460   33.6350   39.1320 C   0  0  0  0  0  0  0  0  0  0  0  0
   38.7660   33.7290   37.8330 C   0  0  0  0  0  0  0  0  0  0  0  0
   39.8120   34.5580   37.5240 C   0  0  0  0  0  0  0  0  0  0  0  0
   38.5000   34.4040   41.1010 H   0  0  0  0  0  0  0  0  0  0  0  0
   37.4370   33.0170   39.4530 H   0  0  0  0  0  0  0  0  0  0  0  0
   38.2680   33.0920   37.1050 H   0  0  0  0  0  0  0  0  0  0  0  0
   40.1860   34.6040   36.5160 H   0  0  0  0  0  0  0  0  0  0  0  0
  1  7  1  0  0  0  0
  1  6  1  0  0  0  0
  2  1  2  0  0  0  0
  3  2  1  0  0  0  0
  3  4  2  0  0  0  0
  4  5  1  0  0  0  0
  5  6  2  0  0  0  0
  5  9  1  0  0  0  0
  8  3  1  0  0  0  0
  9 11  1  0  0  0  0
  9 12  1  0  0  0  0
 10  9  1  0  0  0  0
 12 14  1  0  0  0  0
 12 15  1  0  0  0  0
 13 12  1  0  0  0  0
 15 16  1  0  0  0  0
 15 22  2  0  0  0  0
 16 18  2  0  0  0  0
 17 16  1  0  0  0  0
 18 19  1  0  0  0  0
 18 20  1  0  0  0  0
 20 21  1  0  0  0  0
 22 20  1  0  0  0  0
 23 24  2  0  0  0  0
 23  2  1  0  0  0  0
 25 27  1  0  0  0  0
 25 24  1  0  0  0  0
 26 25  1  0  0  0  0
 28 29  1  0  0  0  0
 29 30  1  0  0  0  0
 30 31  2  0  0  0  0
 30 25  1  0  0  0  0
 31 35  1  0  0  0  0
 32 36  1  0  0  0  0
 32 31  1  0  0  0  0
 33 32  2  0  0  0  0
 34 33  1  0  0  0  0
 34 29  2  0  0  0  0
 37 33  1  0  0  0  0
 38 34  1  0  0  0  0
M  END
>  <minimizedAffinity>
-6.63284063

>  <minimizedRMSD>
0.926209033

$$$$
