
 OpenBabel03252501183D

 20 21  0  0  0  0  0  0  0  0999 V2000
   39.8230   29.2720   42.3390 C   0  0  0  0  0  0  0  0  0  0  0  0
   38.5110   28.7960   42.0930 C   0  0  0  0  0  0  0  0  0  0  0  0
   38.2680   27.5020   42.5420 C   0  0  0  0  0  0  0  0  0  0  0  0
   39.2740   26.8120   43.1670 N   0  0  0  0  0  0  0  0  0  0  0  0
   40.5050   27.3250   43.3700 C   0  0  0  0  0  0  0  0  0  0  0  0
   40.7680   28.5650   42.9480 N   0  0  0  0  0  0  0  0  0  0  0  0
   40.1070   30.2670   42.0260 H   0  0  0  0  0  0  0  0  0  0  0  0
   41.1030   26.5810   43.8790 H   0  0  0  0  0  0  0  0  0  0  0  0
   37.5770   29.6780   41.4050 C   0  0  0  0  0  0  0  0  0  0  0  0
   37.6470   29.9830   40.0660 C   0  0  0  0  0  0  0  0  0  0  0  0
   38.3430   29.6640   39.3120 H   0  0  0  0  0  0  0  0  0  0  0  0
   36.6200   30.8370   39.7460 C   0  0  0  0  0  0  0  0  0  0  0  0
   36.3780   31.2720   38.7980 H   0  0  0  0  0  0  0  0  0  0  0  0
   35.9340   31.0500   40.8730 N   0  0  0  0  0  0  0  0  0  0  0  0
   35.0810   31.6430   41.0410 H   0  0  0  0  0  0  0  0  0  0  0  0
   36.5050   30.3690   41.8220 N   0  0  0  0  0  0  0  0  0  0  0  0
   36.9270   26.9800   42.2960 C   0  0  0  0  0  0  0  0  0  0  0  0
   36.0210   27.5730   43.1670 F   0  0  0  0  0  0  0  0  0  0  0  0
   36.9590   25.6410   42.6810 F   0  0  0  0  0  0  0  0  0  0  0  0
   36.4910   27.1750   41.0320 F   0  0  0  0  0  0  0  0  0  0  0  0
  1  6  1  0  0  0  0
  2  1  2  0  0  0  0
  2  3  1  0  0  0  0
  3  4  2  0  0  0  0
  4  5  1  0  0  0  0
  5  8  1  0  0  0  0
  6  5  2  0  0  0  0
  7  1  1  0  0  0  0
  9 16  2  0  0  0  0
  9  2  1  0  0  0  0
 10  9  1  0  0  0  0
 11 10  1  0  0  0  0
 12 10  2  0  0  0  0
 12 14  1  0  0  0  0
 13 12  1  0  0  0  0
 14 15  1  0  0  0  0
 14 16  1  0  0  0  0
 17  3  1  0  0  0  0
 17 19  1  0  0  0  0
 17 18  1  0  0  0  0
 20 17  1  0  0  0  0
M  END
>  <minimizedAffinity>
-4.49321556

$$$$

 OpenBabel03252501183D

 20 21  0  0  0  0  0  0  0  0999 V2000
   37.5990   31.1930   37.5160 C   0  0  0  0  0  0  0  0  0  0  0  0
   37.3460   31.1580   38.9100 C   0  0  0  0  0  0  0  0  0  0  0  0
   36.4270   30.1950   39.3110 C   0  0  0  0  0  0  0  0  0  0  0  0
   35.8570   29.3810   38.3660 N   0  0  0  0  0  0  0  0  0  0  0  0
   36.1420   29.4660   37.0510 C   0  0  0  0  0  0  0  0  0  0  0  0
   37.0210   30.3840   36.6360 N   0  0  0  0  0  0  0  0  0  0  0  0
   38.2990   31.9090   37.1080 H   0  0  0  0  0  0  0  0  0  0  0  0
   35.5610   28.7180   36.5280 H   0  0  0  0  0  0  0  0  0  0  0  0
   38.0460   32.1130   39.7590 C   0  0  0  0  0  0  0  0  0  0  0  0
   37.7800   33.4620   39.7860 C   0  0  0  0  0  0  0  0  0  0  0  0
   37.0650   34.0440   39.2350 H   0  0  0  0  0  0  0  0  0  0  0  0
   38.6180   34.0670   40.6920 C   0  0  0  0  0  0  0  0  0  0  0  0
   38.6820   35.1010   40.9610 H   0  0  0  0  0  0  0  0  0  0  0  0
   39.3830   33.1020   41.2090 N   0  0  0  0  0  0  0  0  0  0  0  0
   40.1440   33.1590   41.9330 H   0  0  0  0  0  0  0  0  0  0  0  0
   39.0360   31.9770   40.6560 N   0  0  0  0  0  0  0  0  0  0  0  0
   36.1390   30.1400   40.7410 C   0  0  0  0  0  0  0  0  0  0  0  0
   37.2030   29.5500   41.4150 F   0  0  0  0  0  0  0  0  0  0  0  0
   35.0880   29.2370   40.8880 F   0  0  0  0  0  0  0  0  0  0  0  0
   35.9030   31.3490   41.2960 F   0  0  0  0  0  0  0  0  0  0  0  0
  1  2  1  0  0  0  0
  2  3  2  0  0  0  0
  2  9  1  0  0  0  0
  3 17  1  0  0  0  0
  4  3  1  0  0  0  0
  5  4  2  0  0  0  0
  6  5  1  0  0  0  0
  6  1  2  0  0  0  0
  7  1  1  0  0  0  0
  8  5  1  0  0  0  0
  9 10  1  0  0  0  0
  9 16  2  0  0  0  0
 10 12  2  0  0  0  0
 11 10  1  0  0  0  0
 12 13  1  0  0  0  0
 12 14  1  0  0  0  0
 14 15  1  0  0  0  0
 16 14  1  0  0  0  0
 17 19  1  0  0  0  0
 17 20  1  0  0  0  0
 17 18  1  0  0  0  0
M  END
>  <minimizedAffinity>
-4.39924908

$$$$

 OpenBabel03252501183D

 20 21  0  0  0  0  0  0  0  0999 V2000
   36.4820   27.4300   39.4660 C   0  0  0  0  0  0  0  0  0  0  0  0
   36.9160   26.8630   40.6900 C   0  0  0  0  0  0  0  0  0  0  0  0
   37.0010   25.4750   40.6900 C   0  0  0  0  0  0  0  0  0  0  0  0
   36.6720   24.7860   39.5510 N   0  0  0  0  0  0  0  0  0  0  0  0
   36.2640   25.3890   38.4160 C   0  0  0  0  0  0  0  0  0  0  0  0
   36.1720   26.7220   38.3860 N   0  0  0  0  0  0  0  0  0  0  0  0
   36.3850   28.5030   39.3680 H   0  0  0  0  0  0  0  0  0  0  0  0
   36.0690   24.6240   37.6760 H   0  0  0  0  0  0  0  0  0  0  0  0
   37.2140   27.7620   41.7970 C   0  0  0  0  0  0  0  0  0  0  0  0
   38.3200   28.5770   41.8530 C   0  0  0  0  0  0  0  0  0  0  0  0
   39.1270   28.7090   41.1560 H   0  0  0  0  0  0  0  0  0  0  0  0
   38.2930   29.2900   43.0280 C   0  0  0  0  0  0  0  0  0  0  0  0
   38.9960   30.0110   43.3920 H   0  0  0  0  0  0  0  0  0  0  0  0
   37.1880   28.9160   43.6770 N   0  0  0  0  0  0  0  0  0  0  0  0
   36.8120   29.2320   44.6080 H   0  0  0  0  0  0  0  0  0  0  0  0
   36.5760   28.0300   42.9470 N   0  0  0  0  0  0  0  0  0  0  0  0
   37.4370   24.8600   41.9390 C   0  0  0  0  0  0  0  0  0  0  0  0
   37.6640   23.5020   41.7440 F   0  0  0  0  0  0  0  0  0  0  0  0
   36.3410   24.9120   42.7980 F   0  0  0  0  0  0  0  0  0  0  0  0
   38.5600   25.4070   42.4530 F   0  0  0  0  0  0  0  0  0  0  0  0
  1  2  1  0  0  0  0
  2  3  2  0  0  0  0
  2  9  1  0  0  0  0
  3 17  1  0  0  0  0
  4  3  1  0  0  0  0
  5  4  2  0  0  0  0
  6  5  1  0  0  0  0
  6  1  2  0  0  0  0
  7  1  1  0  0  0  0
  8  5  1  0  0  0  0
  9 10  1  0  0  0  0
  9 16  2  0  0  0  0
 10 12  2  0  0  0  0
 11 10  1  0  0  0  0
 12 13  1  0  0  0  0
 12 14  1  0  0  0  0
 14 15  1  0  0  0  0
 16 14  1  0  0  0  0
 17 20  1  0  0  0  0
 17 19  1  0  0  0  0
 18 17  1  0  0  0  0
M  END
>  <minimizedAffinity>
-4.37739849

$$$$

 OpenBabel03252501183D

 20 21  0  0  0  0  0  0  0  0999 V2000
   38.0350   29.0900   42.9800 C   0  0  0  0  0  0  0  0  0  0  0  0
   37.4040   29.2260   41.7180 C   0  0  0  0  0  0  0  0  0  0  0  0
   36.9180   28.0390   41.1800 C   0  0  0  0  0  0  0  0  0  0  0  0
   37.0780   26.8730   41.8820 N   0  0  0  0  0  0  0  0  0  0  0  0
   37.6900   26.8120   43.0820 C   0  0  0  0  0  0  0  0  0  0  0  0
   38.1690   27.9360   43.6240 N   0  0  0  0  0  0  0  0  0  0  0  0
   38.4450   29.9570   43.4790 H   0  0  0  0  0  0  0  0  0  0  0  0
   37.6830   25.7820   43.4150 H   0  0  0  0  0  0  0  0  0  0  0  0
   37.3370   30.5540   41.1230 C   0  0  0  0  0  0  0  0  0  0  0  0
   38.4290   31.2440   40.6520 C   0  0  0  0  0  0  0  0  0  0  0  0
   39.4690   30.9750   40.6260 H   0  0  0  0  0  0  0  0  0  0  0  0
   38.0130   32.4580   40.1590 C   0  0  0  0  0  0  0  0  0  0  0  0
   38.5980   33.2400   39.7200 H   0  0  0  0  0  0  0  0  0  0  0  0
   36.6890   32.5070   40.3270 N   0  0  0  0  0  0  0  0  0  0  0  0
   36.0050   33.2660   40.0790 H   0  0  0  0  0  0  0  0  0  0  0  0
   36.3170   31.3930   40.8870 N   0  0  0  0  0  0  0  0  0  0  0  0
   36.2690   28.1450   39.8770 C   0  0  0  0  0  0  0  0  0  0  0  0
   35.0230   28.7440   40.0160 F   0  0  0  0  0  0  0  0  0  0  0  0
   35.9870   26.8400   39.4800 F   0  0  0  0  0  0  0  0  0  0  0  0
   36.9800   28.8510   38.9700 F   0  0  0  0  0  0  0  0  0  0  0  0
  1  7  1  0  0  0  0
  1  6  1  0  0  0  0
  2  1  2  0  0  0  0
  3  2  1  0  0  0  0
  3  4  2  0  0  0  0
  4  5  1  0  0  0  0
  5  8  1  0  0  0  0
  5  6  2  0  0  0  0
  9  2  1  0  0  0  0
 10  9  1  0  0  0  0
 11 10  1  0  0  0  0
 12 14  1  0  0  0  0
 12 10  2  0  0  0  0
 13 12  1  0  0  0  0
 14 16  1  0  0  0  0
 15 14  1  0  0  0  0
 16  9  2  0  0  0  0
 17 18  1  0  0  0  0
 17  3  1  0  0  0  0
 19 17  1  0  0  0  0
 20 17  1  0  0  0  0
M  END
>  <minimizedAffinity>
-4.37184906

$$$$

 OpenBabel03252501183D

 20 21  0  0  0  0  0  0  0  0999 V2000
   36.4870   27.6640   39.6220 C   0  0  0  0  0  0  0  0  0  0  0  0
   37.0510   28.4310   40.6720 C   0  0  0  0  0  0  0  0  0  0  0  0
   37.5850   27.6830   41.7160 C   0  0  0  0  0  0  0  0  0  0  0  0
   37.5290   26.3150   41.6550 N   0  0  0  0  0  0  0  0  0  0  0  0
   36.9760   25.6450   40.6230 C   0  0  0  0  0  0  0  0  0  0  0  0
   36.4540   26.3360   39.6060 N   0  0  0  0  0  0  0  0  0  0  0  0
   36.0470   28.1560   38.7650 H   0  0  0  0  0  0  0  0  0  0  0  0
   37.0610   24.5850   40.8220 H   0  0  0  0  0  0  0  0  0  0  0  0
   37.0100   29.8830   40.5610 C   0  0  0  0  0  0  0  0  0  0  0  0
   37.9360   30.6310   39.8730 C   0  0  0  0  0  0  0  0  0  0  0  0
   38.8080   30.3290   39.3220 H   0  0  0  0  0  0  0  0  0  0  0  0
   37.6010   31.9600   39.9700 C   0  0  0  0  0  0  0  0  0  0  0  0
   38.1020   32.8110   39.5560 H   0  0  0  0  0  0  0  0  0  0  0  0
   36.4870   32.0210   40.7050 N   0  0  0  0  0  0  0  0  0  0  0  0
   35.9200   32.8560   41.0020 H   0  0  0  0  0  0  0  0  0  0  0  0
   36.1610   30.8070   41.0380 N   0  0  0  0  0  0  0  0  0  0  0  0
   38.1670   28.4450   42.8170 C   0  0  0  0  0  0  0  0  0  0  0  0
   39.2400   29.1990   42.3550 F   0  0  0  0  0  0  0  0  0  0  0  0
   38.7410   27.5080   43.6730 F   0  0  0  0  0  0  0  0  0  0  0  0
   37.2940   29.2780   43.4240 F   0  0  0  0  0  0  0  0  0  0  0  0
  1  2  1  0  0  0  0
  2  3  2  0  0  0  0
  3 17  1  0  0  0  0
  4  3  1  0  0  0  0
  5  8  1  0  0  0  0
  5  4  2  0  0  0  0
  6  1  2  0  0  0  0
  6  5  1  0  0  0  0
  7  1  1  0  0  0  0
  9  2  1  0  0  0  0
  9 16  2  0  0  0  0
 10 12  2  0  0  0  0
 10  9  1  0  0  0  0
 11 10  1  0  0  0  0
 12 14  1  0  0  0  0
 13 12  1  0  0  0  0
 14 15  1  0  0  0  0
 14 16  1  0  0  0  0
 17 20  1  0  0  0  0
 17 19  1  0  0  0  0
 18 17  1  0  0  0  0
M  END
>  <minimizedAffinity>
-4.33233929

$$$$

 OpenBabel03252501183D

 20 21  0  0  0  0  0  0  0  0999 V2000
   36.3280   27.1320   39.4510 C   0  0  0  0  0  0  0  0  0  0  0  0
   36.8180   26.9040   40.7610 C   0  0  0  0  0  0  0  0  0  0  0  0
   36.7030   27.9900   41.6230 C   0  0  0  0  0  0  0  0  0  0  0  0
   36.1470   29.1540   41.1590 N   0  0  0  0  0  0  0  0  0  0  0  0
   35.7000   29.3060   39.8960 C   0  0  0  0  0  0  0  0  0  0  0  0
   35.7980   28.2800   39.0450 N   0  0  0  0  0  0  0  0  0  0  0  0
   36.3740   26.3460   38.7090 H   0  0  0  0  0  0  0  0  0  0  0  0
   35.3130   30.3110   39.7910 H   0  0  0  0  0  0  0  0  0  0  0  0
   37.3830   25.5960   41.0650 C   0  0  0  0  0  0  0  0  0  0  0  0
   38.6360   25.1860   40.6720 C   0  0  0  0  0  0  0  0  0  0  0  0
   39.3930   25.6980   40.1080 H   0  0  0  0  0  0  0  0  0  0  0  0
   38.8510   23.9060   41.1230 C   0  0  0  0  0  0  0  0  0  0  0  0
   39.7150   23.2860   40.9960 H   0  0  0  0  0  0  0  0  0  0  0  0
   37.7470   23.5410   41.7810 N   0  0  0  0  0  0  0  0  0  0  0  0
   37.5220   22.6380   42.2710 H   0  0  0  0  0  0  0  0  0  0  0  0
   36.9090   24.5340   41.7360 N   0  0  0  0  0  0  0  0  0  0  0  0
   37.2060   27.7880   42.9780 C   0  0  0  0  0  0  0  0  0  0  0  0
   36.3540   26.9420   43.6770 F   0  0  0  0  0  0  0  0  0  0  0  0
   37.0830   29.0180   43.6210 F   0  0  0  0  0  0  0  0  0  0  0  0
   38.4520   27.2690   43.0250 F   0  0  0  0  0  0  0  0  0  0  0  0
  1  2  1  0  0  0  0
  2  9  1  0  0  0  0
  2  3  2  0  0  0  0
  3 17  1  0  0  0  0
  4  3  1  0  0  0  0
  5  4  2  0  0  0  0
  6  1  2  0  0  0  0
  6  5  1  0  0  0  0
  7  1  1  0  0  0  0
  8  5  1  0  0  0  0
  9 16  2  0  0  0  0
 10  9  1  0  0  0  0
 10 12  2  0  0  0  0
 11 10  1  0  0  0  0
 12 14  1  0  0  0  0
 13 12  1  0  0  0  0
 14 15  1  0  0  0  0
 16 14  1  0  0  0  0
 17 20  1  0  0  0  0
 17 19  1  0  0  0  0
 17 18  1  0  0  0  0
M  END
>  <minimizedAffinity>
-4.3096714

$$$$

 OpenBabel03252501183D

 20 21  0  0  0  0  0  0  0  0999 V2000
   40.5010   27.4100   43.1160 C   0  0  0  0  0  0  0  0  0  0  0  0
   39.1780   27.1120   42.7060 C   0  0  0  0  0  0  0  0  0  0  0  0
   38.8920   25.7550   42.6010 C   0  0  0  0  0  0  0  0  0  0  0  0
   39.8730   24.8420   42.8920 N   0  0  0  0  0  0  0  0  0  0  0  0
   41.1170   25.1930   43.2780 C   0  0  0  0  0  0  0  0  0  0  0  0
   41.4200   26.4900   43.3860 N   0  0  0  0  0  0  0  0  0  0  0  0
   40.8170   28.4380   43.2270 H   0  0  0  0  0  0  0  0  0  0  0  0
   41.6890   24.2900   43.4420 H   0  0  0  0  0  0  0  0  0  0  0  0
   38.2760   28.2240   42.4340 C   0  0  0  0  0  0  0  0  0  0  0  0
   38.1970   28.8750   41.2250 C   0  0  0  0  0  0  0  0  0  0  0  0
   38.7350   28.7170   40.3090 H   0  0  0  0  0  0  0  0  0  0  0  0
   37.2510   29.8680   41.3120 C   0  0  0  0  0  0  0  0  0  0  0  0
   36.9360   30.5640   40.5610 H   0  0  0  0  0  0  0  0  0  0  0  0
   36.7610   29.8230   42.5540 N   0  0  0  0  0  0  0  0  0  0  0  0
   36.0220   30.4170   43.0100 H   0  0  0  0  0  0  0  0  0  0  0  0
   37.3680   28.8630   43.1880 N   0  0  0  0  0  0  0  0  0  0  0  0
   37.5390   25.4160   42.1720 C   0  0  0  0  0  0  0  0  0  0  0  0
   37.3670   24.0370   42.1950 F   0  0  0  0  0  0  0  0  0  0  0  0
   37.4660   25.7550   40.8230 F   0  0  0  0  0  0  0  0  0  0  0  0
   36.5710   25.9770   42.9300 F   0  0  0  0  0  0  0  0  0  0  0  0
  1  7  1  0  0  0  0
  1  6  1  0  0  0  0
  2  1  2  0  0  0  0
  3  2  1  0  0  0  0
  3  4  2  0  0  0  0
  4  5  1  0  0  0  0
  5  6  2  0  0  0  0
  5  8  1  0  0  0  0
  9  2  1  0  0  0  0
  9 16  2  0  0  0  0
 10 12  2  0  0  0  0
 10  9  1  0  0  0  0
 11 10  1  0  0  0  0
 12 14  1  0  0  0  0
 13 12  1  0  0  0  0
 14 15  1  0  0  0  0
 14 16  1  0  0  0  0
 17 18  1  0  0  0  0
 17  3  1  0  0  0  0
 17 20  1  0  0  0  0
 19 17  1  0  0  0  0
M  END
>  <minimizedAffinity>
-4.28886318

$$$$

 OpenBabel03252501183D

 20 21  0  0  0  0  0  0  0  0999 V2000
   38.8750   30.7450   41.3470 C   0  0  0  0  0  0  0  0  0  0  0  0
   38.0560   29.5910   41.4370 C   0  0  0  0  0  0  0  0  0  0  0  0
   36.7530   29.7650   40.9830 C   0  0  0  0  0  0  0  0  0  0  0  0
   36.3720   30.9900   40.5010 N   0  0  0  0  0  0  0  0  0  0  0  0
   37.2030   32.0510   40.4440 C   0  0  0  0  0  0  0  0  0  0  0  0
   38.4610   31.9140   40.8740 N   0  0  0  0  0  0  0  0  0  0  0  0
   39.9040   30.7070   41.6760 H   0  0  0  0  0  0  0  0  0  0  0  0
   36.6570   32.8880   40.0280 H   0  0  0  0  0  0  0  0  0  0  0  0
   38.6410   28.3750   41.9870 C   0  0  0  0  0  0  0  0  0  0  0  0
   38.8080   28.1390   43.3310 C   0  0  0  0  0  0  0  0  0  0  0  0
   38.5650   28.7470   44.1830 H   0  0  0  0  0  0  0  0  0  0  0  0
   39.3860   26.9030   43.5010 C   0  0  0  0  0  0  0  0  0  0  0  0
   39.6540   26.4070   44.4110 H   0  0  0  0  0  0  0  0  0  0  0  0
   39.5680   26.3940   42.2800 N   0  0  0  0  0  0  0  0  0  0  0  0
   39.9800   25.4710   41.9880 H   0  0  0  0  0  0  0  0  0  0  0  0
   39.1290   27.2620   41.4160 N   0  0  0  0  0  0  0  0  0  0  0  0
   35.8830   28.5960   41.0700 C   0  0  0  0  0  0  0  0  0  0  0  0
   36.2830   27.6400   40.1440 F   0  0  0  0  0  0  0  0  0  0  0  0
   34.6310   29.0140   40.6240 F   0  0  0  0  0  0  0  0  0  0  0  0
   35.8640   28.0210   42.2920 F   0  0  0  0  0  0  0  0  0  0  0  0
  1  2  1  0  0  0  0
  1  7  1  0  0  0  0
  2  9  1  0  0  0  0
  3 17  1  0  0  0  0
  3  2  2  0  0  0  0
  4  3  1  0  0  0  0
  5  4  2  0  0  0  0
  5  6  1  0  0  0  0
  6  1  2  0  0  0  0
  8  5  1  0  0  0  0
  9 10  1  0  0  0  0
 10 12  2  0  0  0  0
 10 11  1  0  0  0  0
 12 13  1  0  0  0  0
 14 12  1  0  0  0  0
 15 14  1  0  0  0  0
 16  9  2  0  0  0  0
 16 14  1  0  0  0  0
 17 20  1  0  0  0  0
 18 17  1  0  0  0  0
 19 17  1  0  0  0  0
M  END
>  <minimizedAffinity>
-4.24901199

$$$$

 OpenBabel03252501183D

 20 21  0  0  0  0  0  0  0  0999 V2000
   37.7970   27.1210   39.1340 C   0  0  0  0  0  0  0  0  0  0  0  0
   37.6680   27.6430   40.4450 C   0  0  0  0  0  0  0  0  0  0  0  0
   38.2270   26.8520   41.4430 C   0  0  0  0  0  0  0  0  0  0  0  0
   38.8380   25.6750   41.0980 N   0  0  0  0  0  0  0  0  0  0  0  0
   38.9270   25.2340   39.8270 C   0  0  0  0  0  0  0  0  0  0  0  0
   38.3970   25.9720   38.8470 N   0  0  0  0  0  0  0  0  0  0  0  0
   37.3930   27.6650   38.2910 H   0  0  0  0  0  0  0  0  0  0  0  0
   39.4510   24.2880   39.8310 H   0  0  0  0  0  0  0  0  0  0  0  0
   36.9750   28.9130   40.6140 C   0  0  0  0  0  0  0  0  0  0  0  0
   37.5510   30.1420   40.3900 C   0  0  0  0  0  0  0  0  0  0  0  0
   38.5450   30.4010   40.0730 H   0  0  0  0  0  0  0  0  0  0  0  0
   36.6240   31.1250   40.6430 C   0  0  0  0  0  0  0  0  0  0  0  0
   36.7350   32.1870   40.5700 H   0  0  0  0  0  0  0  0  0  0  0  0
   35.5010   30.5050   41.0150 N   0  0  0  0  0  0  0  0  0  0  0  0
   34.5690   30.9070   41.2900 H   0  0  0  0  0  0  0  0  0  0  0  0
   35.7250   29.2240   40.9920 N   0  0  0  0  0  0  0  0  0  0  0  0
   38.1040   27.3590   42.8070 C   0  0  0  0  0  0  0  0  0  0  0  0
   38.8200   26.5480   43.6790 F   0  0  0  0  0  0  0  0  0  0  0  0
   36.7710   27.1710   43.1680 F   0  0  0  0  0  0  0  0  0  0  0  0
   38.5370   28.6290   42.9570 F   0  0  0  0  0  0  0  0  0  0  0  0
  1  2  1  0  0  0  0
  2  9  1  0  0  0  0
  2  3  2  0  0  0  0
  3 17  1  0  0  0  0
  4  3  1  0  0  0  0
  5  8  1  0  0  0  0
  5  4  2  0  0  0  0
  6  1  2  0  0  0  0
  6  5  1  0  0  0  0
  7  1  1  0  0  0  0
  9 16  2  0  0  0  0
 10  9  1  0  0  0  0
 10 12  2  0  0  0  0
 11 10  1  0  0  0  0
 12 14  1  0  0  0  0
 13 12  1  0  0  0  0
 14 15  1  0  0  0  0
 16 14  1  0  0  0  0
 17 20  1  0  0  0  0
 17 19  1  0  0  0  0
 17 18  1  0  0  0  0
M  END
>  <minimizedAffinity>
-4.18537712

$$$$
