
 OpenBabel03252506443D

 39 42  0  0  1  0  0  0  0  0999 V2000
   36.9010   29.6610   40.9330 N   0  0  1  0  0  0  0  0  0  0  0  0
   37.3020   31.0410   41.0560 C   0  0  0  0  0  0  0  0  0  0  0  0
   36.9220   31.9170   39.9170 C   0  0  0  0  0  0  0  0  0  0  0  0
   37.6410   31.4690   38.6750 C   0  0  0  0  0  0  0  0  0  0  0  0
   37.8030   29.9850   38.6400 C   0  0  0  0  0  0  0  0  0  0  0  0
   36.8080   29.3210   39.5300 C   0  0  2  0  0  0  0  0  0  0  0  0
   38.4070   31.0920   41.1550 H   0  0  0  0  0  0  0  0  0  0  0  0
   36.9150   31.4510   42.0330 H   0  0  0  0  0  0  0  0  0  0  0  0
   37.3540   32.9360   40.1650 H   0  0  0  0  0  0  0  0  0  0  0  0
   35.8490   32.1190   39.7900 H   0  0  0  0  0  0  0  0  0  0  0  0
   37.1990   31.8900   37.7500 H   0  0  0  0  0  0  0  0  0  0  0  0
   38.6730   31.8930   38.7190 H   0  0  0  0  0  0  0  0  0  0  0  0
   38.8200   29.6500   38.9250 H   0  0  0  0  0  0  0  0  0  0  0  0
   37.6010   29.6540   37.6150 H   0  0  0  0  0  0  0  0  0  0  0  0
   37.1770   28.2270   39.5380 H   0  0  0  0  0  0  0  0  0  0  0  0
   35.4390   29.2120   39.0080 C   0  0  0  0  0  0  0  0  0  0  0  0
   35.1100   28.9750   37.6630 C   0  0  0  0  0  0  0  0  0  0  0  0
   35.8620   28.8540   36.8670 H   0  0  0  0  0  0  0  0  0  0  0  0
   33.7490   28.9110   37.4600 C   0  0  0  0  0  0  0  0  0  0  0  0
   33.2410   28.7410   36.5260 H   0  0  0  0  0  0  0  0  0  0  0  0
   33.2810   29.1140   38.7020 N   0  0  0  0  0  0  0  0  0  0  0  0
   32.2560   29.1370   38.9620 H   0  0  0  0  0  0  0  0  0  0  0  0
   34.2230   29.2840   39.5760 N   0  0  0  0  0  0  0  0  0  0  0  0
   37.5000   27.8490   42.6630 C   0  0  1  0  0  0  0  0  0  0  0  0
   38.0090   29.1620   43.0890 C   0  0  0  0  0  0  0  0  0  0  0  0
   37.8660   28.8800   41.6400 C   0  0  2  0  0  0  0  0  0  0  0  0
   36.4130   27.7000   42.8110 H   0  0  0  0  0  0  0  0  0  0  0  0
   39.0510   29.1740   43.4750 H   0  0  0  0  0  0  0  0  0  0  0  0
   37.3520   29.8520   43.6160 H   0  0  0  0  0  0  0  0  0  0  0  0
   38.7590   28.6310   41.0290 H   0  0  0  0  0  0  0  0  0  0  0  0
   38.0300   25.4240   42.1930 C   0  0  0  0  0  0  0  0  0  0  0  0
   38.3610   26.6540   42.8150 C   0  0  0  0  0  0  0  0  0  0  0  0
   39.5360   26.7030   43.5770 C   0  0  0  0  0  0  0  0  0  0  0  0
   40.2930   25.5700   43.6790 N   0  0  0  0  0  0  0  0  0  0  0  0
   39.9400   24.4110   43.0680 C   0  0  0  0  0  0  0  0  0  0  0  0
   38.8040   24.3270   42.3180 N   0  0  0  0  0  0  0  0  0  0  0  0
   37.1460   25.3460   41.6060 H   0  0  0  0  0  0  0  0  0  0  0  0
   39.8330   27.6140   44.0710 H   0  0  0  0  0  0  0  0  0  0  0  0
   40.5760   23.5390   43.1800 H   0  0  0  0  0  0  0  0  0  0  0  0
  1  2  1  6  0  0  0
  1 26  1  0  0  0  0
  2  7  1  0  0  0  0
  2  8  1  0  0  0  0
  3  9  1  0  0  0  0
  3  2  1  0  0  0  0
  4 12  1  0  0  0  0
  4  3  1  0  0  0  0
  5  4  1  0  0  0  0
  5 13  1  0  0  0  0
  5  6  1  0  0  0  0
  6 15  1  6  0  0  0
  6  1  1  0  0  0  0
 10  3  1  0  0  0  0
 11  4  1  0  0  0  0
 14  5  1  0  0  0  0
 16  6  1  0  0  0  0
 16 23  2  0  0  0  0
 17 16  1  0  0  0  0
 18 17  1  0  0  0  0
 19 17  2  0  0  0  0
 19 21  1  0  0  0  0
 20 19  1  0  0  0  0
 21 22  1  0  0  0  0
 21 23  1  0  0  0  0
 24 27  1  1  0  0  0
 24 32  1  0  0  0  0
 24 25  1  0  0  0  0
 25 28  1  0  0  0  0
 25 29  1  0  0  0  0
 26 30  1  6  0  0  0
 26 24  1  0  0  0  0
 26 25  1  0  0  0  0
 31 36  2  0  0  0  0
 31 32  1  0  0  0  0
 32 33  2  0  0  0  0
 33 34  1  0  0  0  0
 33 38  1  0  0  0  0
 35 39  1  0  0  0  0
 35 34  2  0  0  0  0
 36 35  1  0  0  0  0
 37 31  1  0  0  0  0
M  END
>  <minimizedAffinity>
-5.3057375

$$$$

 OpenBabel03252506443D

 39 42  0  0  1  0  0  0  0  0999 V2000
   36.9110   29.6300   40.8510 N   0  0  1  0  0  0  0  0  0  0  0  0
   37.3160   31.0090   40.9670 C   0  0  0  0  0  0  0  0  0  0  0  0
   36.9050   31.8880   39.8410 C   0  0  0  0  0  0  0  0  0  0  0  0
   37.5910   31.4430   38.5780 C   0  0  0  0  0  0  0  0  0  0  0  0
   37.7520   29.9590   38.5350 C   0  0  0  0  0  0  0  0  0  0  0  0
   36.7810   29.2930   39.4500 C   0  0  2  0  0  0  0  0  0  0  0  0
   38.4230   31.0600   41.0360 H   0  0  0  0  0  0  0  0  0  0  0  0
   36.9550   31.4170   41.9540 H   0  0  0  0  0  0  0  0  0  0  0  0
   37.3440   32.9070   40.0780 H   0  0  0  0  0  0  0  0  0  0  0  0
   35.8290   32.0900   39.7430 H   0  0  0  0  0  0  0  0  0  0  0  0
   37.1250   31.8660   37.6660 H   0  0  0  0  0  0  0  0  0  0  0  0
   38.6240   31.8670   38.5960 H   0  0  0  0  0  0  0  0  0  0  0  0
   38.7760   29.6240   38.7930 H   0  0  0  0  0  0  0  0  0  0  0  0
   37.5230   29.6300   37.5160 H   0  0  0  0  0  0  0  0  0  0  0  0
   37.1500   28.1980   39.4460 H   0  0  0  0  0  0  0  0  0  0  0  0
   35.3980   29.1850   38.9650 C   0  0  0  0  0  0  0  0  0  0  0  0
   35.0340   28.9460   37.6300 C   0  0  0  0  0  0  0  0  0  0  0  0
   35.7650   28.8230   36.8140 H   0  0  0  0  0  0  0  0  0  0  0  0
   33.6680   28.8840   37.4620 C   0  0  0  0  0  0  0  0  0  0  0  0
   33.1350   28.7130   36.5430 H   0  0  0  0  0  0  0  0  0  0  0  0
   33.2330   29.0890   38.7160 N   0  0  0  0  0  0  0  0  0  0  0  0
   32.2150   29.1140   39.0030 H   0  0  0  0  0  0  0  0  0  0  0  0
   34.1980   29.2590   39.5650 N   0  0  0  0  0  0  0  0  0  0  0  0
   37.5660   27.8900   42.6340 C   0  0  1  0  0  0  0  0  0  0  0  0
   38.1560   29.2010   42.9470 C   0  0  0  0  0  0  0  0  0  0  0  0
   37.8950   28.8470   41.5300 C   0  0  2  0  0  0  0  0  0  0  0  0
   36.4880   27.7960   42.8690 H   0  0  0  0  0  0  0  0  0  0  0  0
   39.2230   29.1890   43.2560 H   0  0  0  0  0  0  0  0  0  0  0  0
   37.5680   29.9460   43.4800 H   0  0  0  0  0  0  0  0  0  0  0  0
   38.7300   28.5270   40.8720 H   0  0  0  0  0  0  0  0  0  0  0  0
   39.6030   26.6880   43.5230 C   0  0  0  0  0  0  0  0  0  0  0  0
   38.3890   26.6680   42.7920 C   0  0  0  0  0  0  0  0  0  0  0  0
   37.9880   25.4510   42.2260 C   0  0  0  0  0  0  0  0  0  0  0  0
   38.7850   24.3560   42.4080 N   0  0  0  0  0  0  0  0  0  0  0  0
   39.9410   24.4160   43.1140 C   0  0  0  0  0  0  0  0  0  0  0  0
   40.3620   25.5840   43.6800 N   0  0  0  0  0  0  0  0  0  0  0  0
   39.9410   27.5930   43.9680 H   0  0  0  0  0  0  0  0  0  0  0  0
   37.0730   25.3830   41.6610 H   0  0  0  0  0  0  0  0  0  0  0  0
   40.5390   23.5180   43.2300 H   0  0  0  0  0  0  0  0  0  0  0  0
  1  2  1  6  0  0  0
  1 26  1  0  0  0  0
  2  7  1  0  0  0  0
  2  8  1  0  0  0  0
  3  9  1  0  0  0  0
  3  2  1  0  0  0  0
  4 12  1  0  0  0  0
  4  3  1  0  0  0  0
  5  4  1  0  0  0  0
  5 13  1  0  0  0  0
  5  6  1  0  0  0  0
  6 15  1  6  0  0  0
  6  1  1  0  0  0  0
 10  3  1  0  0  0  0
 11  4  1  0  0  0  0
 14  5  1  0  0  0  0
 16  6  1  0  0  0  0
 16 23  2  0  0  0  0
 17 16  1  0  0  0  0
 18 17  1  0  0  0  0
 19 17  2  0  0  0  0
 19 21  1  0  0  0  0
 20 19  1  0  0  0  0
 21 22  1  0  0  0  0
 21 23  1  0  0  0  0
 24 32  1  0  0  0  0
 24 27  1  1  0  0  0
 24 25  1  0  0  0  0
 25 28  1  0  0  0  0
 25 29  1  0  0  0  0
 26 30  1  6  0  0  0
 26 24  1  0  0  0  0
 26 25  1  0  0  0  0
 31 36  1  0  0  0  0
 31 37  1  0  0  0  0
 32 31  2  0  0  0  0
 33 34  2  0  0  0  0
 33 32  1  0  0  0  0
 34 35  1  0  0  0  0
 35 39  1  0  0  0  0
 35 36  2  0  0  0  0
 38 33  1  0  0  0  0
M  END
>  <minimizedAffinity>
-5.26504993

$$$$

 OpenBabel03252506443D

 39 42  0  0  1  0  0  0  0  0999 V2000
   37.9700   31.3940   39.7180 N   0  0  1  0  0  0  0  0  0  0  0  0
   37.0310   32.4730   39.9040 C   0  0  0  0  0  0  0  0  0  0  0  0
   37.5640   33.8320   39.6270 C   0  0  0  0  0  0  0  0  0  0  0  0
   38.6490   34.1600   40.6150 C   0  0  0  0  0  0  0  0  0  0  0  0
   39.4450   32.9500   40.9760 C   0  0  0  0  0  0  0  0  0  0  0  0
   39.3110   31.8940   39.9310 C   0  0  2  0  0  0  0  0  0  0  0  0
   36.6730   32.4690   40.9560 H   0  0  0  0  0  0  0  0  0  0  0  0
   36.1060   32.2650   39.2930 H   0  0  0  0  0  0  0  0  0  0  0  0
   36.7130   34.5440   39.8670 H   0  0  0  0  0  0  0  0  0  0  0  0
   37.8000   34.0630   38.5780 H   0  0  0  0  0  0  0  0  0  0  0  0
   39.2700   35.0220   40.2990 H   0  0  0  0  0  0  0  0  0  0  0  0
   38.1500   34.4950   41.5560 H   0  0  0  0  0  0  0  0  0  0  0  0
   39.1660   32.5200   41.9580 H   0  0  0  0  0  0  0  0  0  0  0  0
   40.5000   33.2450   41.0110 H   0  0  0  0  0  0  0  0  0  0  0  0
   39.8140   30.9840   40.4340 H   0  0  0  0  0  0  0  0  0  0  0  0
   40.1020   32.0840   38.7080 C   0  0  0  0  0  0  0  0  0  0  0  0
   41.4360   32.5250   38.6760 C   0  0  0  0  0  0  0  0  0  0  0  0
   42.0130   32.7760   39.5800 H   0  0  0  0  0  0  0  0  0  0  0  0
   41.9310   32.6030   37.3930 C   0  0  0  0  0  0  0  0  0  0  0  0
   42.9200   32.9110   37.0980 H   0  0  0  0  0  0  0  0  0  0  0  0
   40.8730   32.2040   36.6700 N   0  0  0  0  0  0  0  0  0  0  0  0
   40.8580   32.1290   35.6150 H   0  0  0  0  0  0  0  0  0  0  0  0
   39.8420   31.9110   37.4000 N   0  0  0  0  0  0  0  0  0  0  0  0
   36.6310   29.2700   40.2950 C   0  0  1  0  0  0  0  0  0  0  0  0
   36.2110   30.3950   41.1460 C   0  0  0  0  0  0  0  0  0  0  0  0
   37.6030   30.3590   40.6330 C   0  0  2  0  0  0  0  0  0  0  0  0
   36.2380   29.2960   39.2600 H   0  0  0  0  0  0  0  0  0  0  0  0
   36.0930   30.1650   42.2260 H   0  0  0  0  0  0  0  0  0  0  0  0
   35.4730   31.1050   40.7780 H   0  0  0  0  0  0  0  0  0  0  0  0
   38.4350   30.0470   41.2980 H   0  0  0  0  0  0  0  0  0  0  0  0
   36.7010   27.7350   42.3000 C   0  0  0  0  0  0  0  0  0  0  0  0
   36.8150   27.9320   40.9010 C   0  0  0  0  0  0  0  0  0  0  0  0
   37.1040   26.8140   40.1080 C   0  0  0  0  0  0  0  0  0  0  0  0
   37.2590   25.6030   40.7220 N   0  0  0  0  0  0  0  0  0  0  0  0
   37.1430   25.4570   42.0660 C   0  0  0  0  0  0  0  0  0  0  0  0
   36.8620   26.5230   42.8690 N   0  0  0  0  0  0  0  0  0  0  0  0
   36.4820   28.5600   42.9370 H   0  0  0  0  0  0  0  0  0  0  0  0
   37.2010   26.9090   39.0380 H   0  0  0  0  0  0  0  0  0  0  0  0
   37.2760   24.4740   42.5050 H   0  0  0  0  0  0  0  0  0  0  0  0
  1  2  1  1  0  0  0
  1  6  1  0  0  0  0
  1 26  1  0  0  0  0
  2  7  1  0  0  0  0
  3  9  1  0  0  0  0
  3  2  1  0  0  0  0
  3  4  1  0  0  0  0
  4  5  1  0  0  0  0
  4 12  1  0  0  0  0
  5 14  1  0  0  0  0
  5 13  1  0  0  0  0
  6 15  1  1  0  0  0
  6  5  1  0  0  0  0
  8  2  1  0  0  0  0
 10  3  1  0  0  0  0
 11  4  1  0  0  0  0
 16  6  1  0  0  0  0
 17 16  1  0  0  0  0
 17 18  1  0  0  0  0
 19 17  2  0  0  0  0
 20 19  1  0  0  0  0
 21 19  1  0  0  0  0
 21 23  1  0  0  0  0
 22 21  1  0  0  0  0
 23 16  2  0  0  0  0
 24 27  1  6  0  0  0
 24 26  1  0  0  0  0
 24 32  1  0  0  0  0
 24 25  1  0  0  0  0
 25 28  1  0  0  0  0
 26 25  1  0  0  0  0
 26 30  1  1  0  0  0
 29 25  1  0  0  0  0
 31 36  1  0  0  0  0
 31 37  1  0  0  0  0
 32 31  2  0  0  0  0
 33 34  2  0  0  0  0
 33 32  1  0  0  0  0
 34 35  1  0  0  0  0
 35 39  1  0  0  0  0
 35 36  2  0  0  0  0
 38 33  1  0  0  0  0
M  END
>  <minimizedAffinity>
-5.21194744

$$$$

 OpenBabel03252506443D

 39 42  0  0  1  0  0  0  0  0999 V2000
   38.4110   26.8730   42.0910 N   0  0  1  0  0  0  0  0  0  0  0  0
   37.3370   25.9180   42.2130 C   0  0  0  0  0  0  0  0  0  0  0  0
   37.7510   24.4910   42.1780 C   0  0  0  0  0  0  0  0  0  0  0  0
   38.3350   24.1670   40.8300 C   0  0  0  0  0  0  0  0  0  0  0  0
   39.0900   25.3260   40.2680 C   0  0  0  0  0  0  0  0  0  0  0  0
   39.4960   26.2700   41.3490 C   0  0  2  0  0  0  0  0  0  0  0  0
   36.6160   26.0710   41.3820 H   0  0  0  0  0  0  0  0  0  0  0  0
   36.7440   26.1470   43.1440 H   0  0  0  0  0  0  0  0  0  0  0  0
   36.7860   23.8960   42.2380 H   0  0  0  0  0  0  0  0  0  0  0  0
   38.3280   24.1250   43.0380 H   0  0  0  0  0  0  0  0  0  0  0  0
   38.9090   23.2200   40.8290 H   0  0  0  0  0  0  0  0  0  0  0  0
   37.4810   23.9870   40.1340 H   0  0  0  0  0  0  0  0  0  0  0  0
   38.5230   25.8850   39.4980 H   0  0  0  0  0  0  0  0  0  0  0  0
   40.0060   24.9340   39.8130 H   0  0  0  0  0  0  0  0  0  0  0  0
   39.8910   27.1750   40.7500 H   0  0  0  0  0  0  0  0  0  0  0  0
   40.6550   25.8710   42.1600 C   0  0  0  0  0  0  0  0  0  0  0  0
   41.3460   26.7190   43.0420 C   0  0  0  0  0  0  0  0  0  0  0  0
   41.0790   27.7760   43.2010 H   0  0  0  0  0  0  0  0  0  0  0  0
   42.3850   26.0770   43.6790 C   0  0  0  0  0  0  0  0  0  0  0  0
   43.0640   26.5010   44.3990 H   0  0  0  0  0  0  0  0  0  0  0  0
   42.2980   24.8420   43.1610 N   0  0  0  0  0  0  0  0  0  0  0  0
   42.9410   24.0390   43.4080 H   0  0  0  0  0  0  0  0  0  0  0  0
   41.3300   24.7180   42.3070 N   0  0  0  0  0  0  0  0  0  0  0  0
   37.6220   29.3240   42.1730 C   0  0  1  0  0  0  0  0  0  0  0  0
   36.4980   28.4270   41.8630 C   0  0  0  0  0  0  0  0  0  0  0  0
   37.8690   28.0320   41.4550 C   0  0  2  0  0  0  0  0  0  0  0  0
   37.9290   29.3360   43.2370 H   0  0  0  0  0  0  0  0  0  0  0  0
   35.8300   28.7580   41.0390 H   0  0  0  0  0  0  0  0  0  0  0  0
   35.9640   27.9300   42.6700 H   0  0  0  0  0  0  0  0  0  0  0  0
   38.1910   28.1430   40.3990 H   0  0  0  0  0  0  0  0  0  0  0  0
   38.9860   31.3110   41.4150 C   0  0  0  0  0  0  0  0  0  0  0  0
   37.7630   30.5960   41.4270 C   0  0  0  0  0  0  0  0  0  0  0  0
   36.6880   31.1300   40.7030 C   0  0  0  0  0  0  0  0  0  0  0  0
   36.8770   32.3040   40.0310 N   0  0  0  0  0  0  0  0  0  0  0  0
   38.0650   32.9590   40.0460 C   0  0  0  0  0  0  0  0  0  0  0  0
   39.1320   32.4690   40.7390 N   0  0  0  0  0  0  0  0  0  0  0  0
   39.8250   30.9380   41.9530 H   0  0  0  0  0  0  0  0  0  0  0  0
   35.7360   30.6250   40.6800 H   0  0  0  0  0  0  0  0  0  0  0  0
   38.1640   33.8890   39.4950 H   0  0  0  0  0  0  0  0  0  0  0  0
  1  2  1  6  0  0  0
  2  8  1  0  0  0  0
  3  2  1  0  0  0  0
  3  9  1  0  0  0  0
  3 10  1  0  0  0  0
  4  3  1  0  0  0  0
  5  4  1  0  0  0  0
  5  6  1  0  0  0  0
  6 15  1  6  0  0  0
  6  1  1  0  0  0  0
  6 16  1  0  0  0  0
  7  2  1  0  0  0  0
 11  4  1  0  0  0  0
 12  4  1  0  0  0  0
 13  5  1  0  0  0  0
 14  5  1  0  0  0  0
 16 23  2  0  0  0  0
 16 17  1  0  0  0  0
 17 18  1  0  0  0  0
 17 19  2  0  0  0  0
 19 20  1  0  0  0  0
 21 22  1  0  0  0  0
 21 19  1  0  0  0  0
 23 21  1  0  0  0  0
 24 27  1  1  0  0  0
 25 24  1  0  0  0  0
 25 29  1  0  0  0  0
 26 30  1  6  0  0  0
 26 25  1  0  0  0  0
 26  1  1  0  0  0  0
 26 24  1  0  0  0  0
 28 25  1  0  0  0  0
 31 32  1  0  0  0  0
 31 37  1  0  0  0  0
 32 24  1  0  0  0  0
 33 32  2  0  0  0  0
 34 35  2  0  0  0  0
 34 33  1  0  0  0  0
 35 36  1  0  0  0  0
 36 31  2  0  0  0  0
 38 33  1  0  0  0  0
 39 35  1  0  0  0  0
M  END
>  <minimizedAffinity>
-5.00413561

$$$$

 OpenBabel03252506443D

 39 42  0  0  1  0  0  0  0  0999 V2000
   37.4780   30.1700   39.5990 N   0  0  1  0  0  0  0  0  0  0  0  0
   36.2820   30.1740   38.7920 C   0  0  0  0  0  0  0  0  0  0  0  0
   35.2670   29.1510   39.1580 C   0  0  0  0  0  0  0  0  0  0  0  0
   35.8280   27.7760   38.9180 C   0  0  0  0  0  0  0  0  0  0  0  0
   37.2910   27.7220   39.2120 C   0  0  0  0  0  0  0  0  0  0  0  0
   37.6920   28.8370   40.1180 C   0  0  2  0  0  0  0  0  0  0  0  0
   36.5570   29.9990   37.7310 H   0  0  0  0  0  0  0  0  0  0  0  0
   35.8370   31.2100   38.7990 H   0  0  0  0  0  0  0  0  0  0  0  0
   34.4320   29.2720   38.3990 H   0  0  0  0  0  0  0  0  0  0  0  0
   34.7570   29.2870   40.1220 H   0  0  0  0  0  0  0  0  0  0  0  0
   35.2430   26.9820   39.4230 H   0  0  0  0  0  0  0  0  0  0  0  0
   35.7220   27.5610   37.8280 H   0  0  0  0  0  0  0  0  0  0  0  0
   37.9210   27.7540   38.3020 H   0  0  0  0  0  0  0  0  0  0  0  0
   37.4880   26.7820   39.7400 H   0  0  0  0  0  0  0  0  0  0  0  0
   38.8450   28.7680   40.0960 H   0  0  0  0  0  0  0  0  0  0  0  0
   37.3710   28.6670   41.5420 C   0  0  0  0  0  0  0  0  0  0  0  0
   37.0240   27.4470   42.1450 C   0  0  0  0  0  0  0  0  0  0  0  0
   36.9550   26.4960   41.5930 H   0  0  0  0  0  0  0  0  0  0  0  0
   36.7840   27.5800   43.4950 C   0  0  0  0  0  0  0  0  0  0  0  0
   36.5020   26.8010   44.1820 H   0  0  0  0  0  0  0  0  0  0  0  0
   36.9930   28.8930   43.6780 N   0  0  0  0  0  0  0  0  0  0  0  0
   36.9040   29.3930   44.6070 H   0  0  0  0  0  0  0  0  0  0  0  0
   37.3230   29.5110   42.5870 N   0  0  0  0  0  0  0  0  0  0  0  0
   39.1850   31.9750   38.9180 C   0  0  1  0  0  0  0  0  0  0  0  0
   38.2220   31.7350   37.8310 C   0  0  0  0  0  0  0  0  0  0  0  0
   38.5450   30.6290   38.7670 C   0  0  2  0  0  0  0  0  0  0  0  0
   38.7990   32.5870   39.7560 H   0  0  0  0  0  0  0  0  0  0  0  0
   38.6570   31.6440   36.8130 H   0  0  0  0  0  0  0  0  0  0  0  0
   37.2600   32.2430   37.8400 H   0  0  0  0  0  0  0  0  0  0  0  0
   39.2370   29.8190   38.4550 H   0  0  0  0  0  0  0  0  0  0  0  0
   41.6130   32.0900   39.6060 C   0  0  0  0  0  0  0  0  0  0  0  0
   40.6220   32.1260   38.5930 C   0  0  0  0  0  0  0  0  0  0  0  0
   41.0480   32.3040   37.2700 C   0  0  0  0  0  0  0  0  0  0  0  0
   42.3860   32.4330   37.0300 N   0  0  0  0  0  0  0  0  0  0  0  0
   43.3040   32.3940   38.0290 C   0  0  0  0  0  0  0  0  0  0  0  0
   42.9260   32.2220   39.3280 N   0  0  0  0  0  0  0  0  0  0  0  0
   41.3290   31.9570   40.6230 H   0  0  0  0  0  0  0  0  0  0  0  0
   40.3340   32.3380   36.4630 H   0  0  0  0  0  0  0  0  0  0  0  0
   44.3570   32.5020   37.7860 H   0  0  0  0  0  0  0  0  0  0  0  0
  1  2  1  6  0  0  0
  1  6  1  0  0  0  0
  2  8  1  0  0  0  0
  2  3  1  0  0  0  0
  3 10  1  0  0  0  0
  4  3  1  0  0  0  0
  4  5  1  0  0  0  0
  4 11  1  0  0  0  0
  5 14  1  0  0  0  0
  5  6  1  0  0  0  0
  6 15  1  6  0  0  0
  6 16  1  0  0  0  0
  7  2  1  0  0  0  0
  9  3  1  0  0  0  0
 12  4  1  0  0  0  0
 13  5  1  0  0  0  0
 16 17  1  0  0  0  0
 16 23  2  0  0  0  0
 17 19  2  0  0  0  0
 18 17  1  0  0  0  0
 19 21  1  0  0  0  0
 19 20  1  0  0  0  0
 21 22  1  0  0  0  0
 23 21  1  0  0  0  0
 24 27  1  1  0  0  0
 25 29  1  0  0  0  0
 25 26  1  0  0  0  0
 25 24  1  0  0  0  0
 26 30  1  6  0  0  0
 26 24  1  0  0  0  0
 26  1  1  0  0  0  0
 28 25  1  0  0  0  0
 31 37  1  0  0  0  0
 32 24  1  0  0  0  0
 32 31  2  0  0  0  0
 33 32  1  0  0  0  0
 34 33  2  0  0  0  0
 34 35  1  0  0  0  0
 35 36  2  0  0  0  0
 36 31  1  0  0  0  0
 38 33  1  0  0  0  0
 39 35  1  0  0  0  0
M  END
>  <minimizedAffinity>
-4.97187757

$$$$

 OpenBabel03252506443D

 39 42  0  0  1  0  0  0  0  0999 V2000
   38.3850   29.3140   41.9680 N   0  0  1  0  0  0  0  0  0  0  0  0
   39.3670   29.6780   42.9600 C   0  0  0  0  0  0  0  0  0  0  0  0
   40.1230   30.9250   42.6770 C   0  0  0  0  0  0  0  0  0  0  0  0
   40.9540   30.7410   41.4370 C   0  0  0  0  0  0  0  0  0  0  0  0
   40.2620   29.8740   40.4380 C   0  0  0  0  0  0  0  0  0  0  0  0
   38.7920   29.8470   40.6860 C   0  0  2  0  0  0  0  0  0  0  0  0
   40.1090   28.8580   43.0570 H   0  0  0  0  0  0  0  0  0  0  0  0
   38.8680   29.7250   43.9710 H   0  0  0  0  0  0  0  0  0  0  0  0
   40.8680   31.0250   43.5270 H   0  0  0  0  0  0  0  0  0  0  0  0
   39.5560   31.8660   42.7250 H   0  0  0  0  0  0  0  0  0  0  0  0
   41.3170   31.7000   41.0180 H   0  0  0  0  0  0  0  0  0  0  0  0
   41.8780   30.1910   41.7370 H   0  0  0  0  0  0  0  0  0  0  0  0
   40.6430   28.8340   40.4240 H   0  0  0  0  0  0  0  0  0  0  0  0
   40.4200   30.3170   39.4490 H   0  0  0  0  0  0  0  0  0  0  0  0
   38.4370   29.0110   39.9720 H   0  0  0  0  0  0  0  0  0  0  0  0
   38.0330   31.0220   40.2340 C   0  0  0  0  0  0  0  0  0  0  0  0
   38.0590   31.5390   38.9290 C   0  0  0  0  0  0  0  0  0  0  0  0
   38.6640   31.1050   38.1170 H   0  0  0  0  0  0  0  0  0  0  0  0
   37.2440   32.6400   38.7850 C   0  0  0  0  0  0  0  0  0  0  0  0
   37.0870   33.2180   37.8910 H   0  0  0  0  0  0  0  0  0  0  0  0
   36.7390   32.7650   40.0230 N   0  0  0  0  0  0  0  0  0  0  0  0
   36.0550   33.5150   40.3210 H   0  0  0  0  0  0  0  0  0  0  0  0
   37.1770   31.8610   40.8430 N   0  0  0  0  0  0  0  0  0  0  0  0
   37.0010   27.1520   41.7630 C   0  0  1  0  0  0  0  0  0  0  0  0
   37.5500   27.2890   43.1210 C   0  0  0  0  0  0  0  0  0  0  0  0
   38.2860   27.8890   41.9810 C   0  0  2  0  0  0  0  0  0  0  0  0
   36.1230   27.7910   41.5480 H   0  0  0  0  0  0  0  0  0  0  0  0
   38.0020   26.3710   43.5540 H   0  0  0  0  0  0  0  0  0  0  0  0
   37.0250   27.8930   43.8580 H   0  0  0  0  0  0  0  0  0  0  0  0
   39.1860   27.3840   41.5700 H   0  0  0  0  0  0  0  0  0  0  0  0
   36.7970   25.6990   39.7050 C   0  0  0  0  0  0  0  0  0  0  0  0
   37.0380   25.8290   41.0960 C   0  0  0  0  0  0  0  0  0  0  0  0
   37.3170   24.6630   41.8220 C   0  0  0  0  0  0  0  0  0  0  0  0
   37.3420   23.4720   41.1530 N   0  0  0  0  0  0  0  0  0  0  0  0
   37.1050   23.3900   39.8200 C   0  0  0  0  0  0  0  0  0  0  0  0
   36.8300   24.5030   39.0820 N   0  0  0  0  0  0  0  0  0  0  0  0
   36.5810   26.5610   39.1200 H   0  0  0  0  0  0  0  0  0  0  0  0
   37.5080   24.7080   42.8810 H   0  0  0  0  0  0  0  0  0  0  0  0
   37.1360   22.4190   39.3350 H   0  0  0  0  0  0  0  0  0  0  0  0
  1 26  1  0  0  0  0
  1  2  1  1  0  0  0
  2  7  1  0  0  0  0
  2  8  1  0  0  0  0
  3 10  1  0  0  0  0
  3  2  1  0  0  0  0
  3  9  1  0  0  0  0
  4 12  1  0  0  0  0
  4  3  1  0  0  0  0
  5  6  1  0  0  0  0
  5  4  1  0  0  0  0
  6 15  1  6  0  0  0
  6  1  1  0  0  0  0
 11  4  1  0  0  0  0
 13  5  1  0  0  0  0
 14  5  1  0  0  0  0
 16  6  1  0  0  0  0
 16 23  2  0  0  0  0
 17 16  1  0  0  0  0
 18 17  1  0  0  0  0
 19 17  2  0  0  0  0
 19 21  1  0  0  0  0
 20 19  1  0  0  0  0
 21 22  1  0  0  0  0
 21 23  1  0  0  0  0
 24 27  1  6  0  0  0
 24 26  1  0  0  0  0
 24 25  1  0  0  0  0
 25 28  1  0  0  0  0
 25 29  1  0  0  0  0
 26 30  1  6  0  0  0
 26 25  1  0  0  0  0
 31 32  1  0  0  0  0
 32 24  1  0  0  0  0
 32 33  2  0  0  0  0
 33 38  1  0  0  0  0
 34 33  1  0  0  0  0
 35 34  2  0  0  0  0
 36 31  2  0  0  0  0
 36 35  1  0  0  0  0
 37 31  1  0  0  0  0
 39 35  1  0  0  0  0
M  END
>  <minimizedAffinity>
-4.93295908

$$$$

 OpenBabel03252506443D

 39 42  0  0  1  0  0  0  0  0999 V2000
   37.8040   26.8690   41.8230 N   0  0  1  0  0  0  0  0  0  0  0  0
   38.6890   26.8680   42.9630 C   0  0  0  0  0  0  0  0  0  0  0  0
   39.2960   28.1830   43.2960 C   0  0  0  0  0  0  0  0  0  0  0  0
   40.1970   28.6210   42.1740 C   0  0  0  0  0  0  0  0  0  0  0  0
   39.6620   28.2000   40.8450 C   0  0  0  0  0  0  0  0  0  0  0  0
   38.1970   27.9310   40.9230 C   0  0  2  0  0  0  0  0  0  0  0  0
   39.5230   26.1580   42.7770 H   0  0  0  0  0  0  0  0  0  0  0  0
   38.1450   26.4340   43.8500 H   0  0  0  0  0  0  0  0  0  0  0  0
   39.9850   27.9820   44.1750 H   0  0  0  0  0  0  0  0  0  0  0  0
   38.6150   28.9560   43.6790 H   0  0  0  0  0  0  0  0  0  0  0  0
   40.4550   29.6970   42.2280 H   0  0  0  0  0  0  0  0  0  0  0  0
   41.1680   28.0860   42.3020 H   0  0  0  0  0  0  0  0  0  0  0  0
   40.1700   27.3050   40.4340 H   0  0  0  0  0  0  0  0  0  0  0  0
   39.8070   29.0340   40.1500 H   0  0  0  0  0  0  0  0  0  0  0  0
   37.9800   27.4490   39.8960 H   0  0  0  0  0  0  0  0  0  0  0  0
   37.3190   29.1100   40.9340 C   0  0  0  0  0  0  0  0  0  0  0  0
   37.5610   30.2970   40.2240 C   0  0  0  0  0  0  0  0  0  0  0  0
   38.4490   30.4540   39.5910 H   0  0  0  0  0  0  0  0  0  0  0  0
   36.5670   31.2320   40.4110 C   0  0  0  0  0  0  0  0  0  0  0  0
   36.5150   32.2170   39.9810 H   0  0  0  0  0  0  0  0  0  0  0  0
   35.7360   30.5800   41.2410 N   0  0  0  0  0  0  0  0  0  0  0  0
   34.8340   30.9770   41.6230 H   0  0  0  0  0  0  0  0  0  0  0  0
   36.1510   29.3880   41.5390 N   0  0  0  0  0  0  0  0  0  0  0  0
   36.8040   24.5400   41.3640 C   0  0  1  0  0  0  0  0  0  0  0  0
   38.0320   24.4280   42.1670 C   0  0  0  0  0  0  0  0  0  0  0  0
   37.8830   25.5710   41.2320 C   0  0  2  0  0  0  0  0  0  0  0  0
   35.9080   24.8670   41.9260 H   0  0  0  0  0  0  0  0  0  0  0  0
   38.7470   23.6390   41.8490 H   0  0  0  0  0  0  0  0  0  0  0  0
   37.9850   24.5500   43.2470 H   0  0  0  0  0  0  0  0  0  0  0  0
   38.4120   25.5660   40.2560 H   0  0  0  0  0  0  0  0  0  0  0  0
   35.3860   23.6260   39.4830 C   0  0  0  0  0  0  0  0  0  0  0  0
   36.5790   23.5920   40.2480 C   0  0  0  0  0  0  0  0  0  0  0  0
   37.5430   22.6330   39.9100 C   0  0  0  0  0  0  0  0  0  0  0  0
   37.2810   21.7880   38.8690 N   0  0  0  0  0  0  0  0  0  0  0  0
   36.1250   21.8520   38.1620 C   0  0  0  0  0  0  0  0  0  0  0  0
   35.1650   22.7730   38.4620 N   0  0  0  0  0  0  0  0  0  0  0  0
   34.6300   24.3400   39.7090 H   0  0  0  0  0  0  0  0  0  0  0  0
   38.4670   22.5660   40.4610 H   0  0  0  0  0  0  0  0  0  0  0  0
   35.9660   21.1580   37.3430 H   0  0  0  0  0  0  0  0  0  0  0  0
  1  2  1  1  0  0  0
  2  3  1  0  0  0  0
  2  8  1  0  0  0  0
  3 10  1  0  0  0  0
  3  9  1  0  0  0  0
  4 11  1  0  0  0  0
  4 12  1  0  0  0  0
  4  3  1  0  0  0  0
  5  6  1  0  0  0  0
  5  4  1  0  0  0  0
  6 15  1  6  0  0  0
  6 16  1  0  0  0  0
  6  1  1  0  0  0  0
  7  2  1  0  0  0  0
 13  5  1  0  0  0  0
 14  5  1  0  0  0  0
 16 23  2  0  0  0  0
 17 19  2  0  0  0  0
 17 16  1  0  0  0  0
 18 17  1  0  0  0  0
 19 21  1  0  0  0  0
 20 19  1  0  0  0  0
 21 23  1  0  0  0  0
 21 22  1  0  0  0  0
 24 27  1  1  0  0  0
 24 25  1  0  0  0  0
 25 29  1  0  0  0  0
 26 30  1  6  0  0  0
 26 24  1  0  0  0  0
 26  1  1  0  0  0  0
 26 25  1  0  0  0  0
 28 25  1  0  0  0  0
 31 37  1  0  0  0  0
 31 32  1  0  0  0  0
 32 24  1  0  0  0  0
 33 32  2  0  0  0  0
 33 38  1  0  0  0  0
 34 33  1  0  0  0  0
 35 36  1  0  0  0  0
 35 34  2  0  0  0  0
 36 31  2  0  0  0  0
 39 35  1  0  0  0  0
M  END
>  <minimizedAffinity>
-4.82174492

$$$$

 OpenBabel03252506443D

 39 42  0  0  1  0  0  0  0  0999 V2000
   38.5180   30.0710   40.6680 N   0  0  1  0  0  0  0  0  0  0  0  0
   38.9670   30.9180   41.7460 C   0  0  0  0  0  0  0  0  0  0  0  0
   39.8620   32.0350   41.3450 C   0  0  0  0  0  0  0  0  0  0  0  0
   41.1490   31.4790   40.8000 C   0  0  0  0  0  0  0  0  0  0  0  0
   40.9220   30.2080   40.0500 C   0  0  0  0  0  0  0  0  0  0  0  0
   39.5020   30.0980   39.6080 C   0  0  2  0  0  0  0  0  0  0  0  0
   39.5200   30.3040   42.4880 H   0  0  0  0  0  0  0  0  0  0  0  0
   38.0700   31.2990   42.3130 H   0  0  0  0  0  0  0  0  0  0  0  0
   40.1460   32.5560   42.3130 H   0  0  0  0  0  0  0  0  0  0  0  0
   39.4090   32.8380   40.7480 H   0  0  0  0  0  0  0  0  0  0  0  0
   41.7330   32.2310   40.2330 H   0  0  0  0  0  0  0  0  0  0  0  0
   41.7910   31.2130   41.6730 H   0  0  0  0  0  0  0  0  0  0  0  0
   41.1870   29.3040   40.6320 H   0  0  0  0  0  0  0  0  0  0  0  0
   41.5450   30.2390   39.1490 H   0  0  0  0  0  0  0  0  0  0  0  0
   39.4470   29.0100   39.2220 H   0  0  0  0  0  0  0  0  0  0  0  0
   39.1230   30.8930   38.4310 C   0  0  0  0  0  0  0  0  0  0  0  0
   37.8120   31.0320   37.9470 C   0  0  0  0  0  0  0  0  0  0  0  0
   36.9390   30.5450   38.4110 H   0  0  0  0  0  0  0  0  0  0  0  0
   37.7470   31.8430   36.8350 C   0  0  0  0  0  0  0  0  0  0  0  0
   36.8660   32.1090   36.2770 H   0  0  0  0  0  0  0  0  0  0  0  0
   39.0370   32.1790   36.6710 N   0  0  0  0  0  0  0  0  0  0  0  0
   39.4020   32.8070   35.9020 H   0  0  0  0  0  0  0  0  0  0  0  0
   39.8160   31.6490   37.5620 N   0  0  0  0  0  0  0  0  0  0  0  0
   36.9880   28.0760   41.2260 C   0  0  1  0  0  0  0  0  0  0  0  0
   37.5050   28.6930   42.4580 C   0  0  0  0  0  0  0  0  0  0  0  0
   38.3170   28.7680   41.2180 C   0  0  2  0  0  0  0  0  0  0  0  0
   36.1660   28.6310   40.7360 H   0  0  0  0  0  0  0  0  0  0  0  0
   37.8760   27.9880   43.2320 H   0  0  0  0  0  0  0  0  0  0  0  0
   37.0030   29.5620   42.8790 H   0  0  0  0  0  0  0  0  0  0  0  0
   39.1890   28.0950   41.0810 H   0  0  0  0  0  0  0  0  0  0  0  0
   36.6770   25.9590   39.8820 C   0  0  0  0  0  0  0  0  0  0  0  0
   36.9490   26.5990   41.1170 C   0  0  0  0  0  0  0  0  0  0  0  0
   37.1860   25.7860   42.2340 C   0  0  0  0  0  0  0  0  0  0  0  0
   37.1410   24.4310   42.0720 N   0  0  0  0  0  0  0  0  0  0  0  0
   36.8750   23.8570   40.8720 C   0  0  0  0  0  0  0  0  0  0  0  0
   36.6410   24.6160   39.7630 N   0  0  0  0  0  0  0  0  0  0  0  0
   36.4930   26.5420   39.0110 H   0  0  0  0  0  0  0  0  0  0  0  0
   37.3970   26.2230   43.1960 H   0  0  0  0  0  0  0  0  0  0  0  0
   36.8510   22.7740   40.7960 H   0  0  0  0  0  0  0  0  0  0  0  0
  1 26  1  0  0  0  0
  1  2  1  1  0  0  0
  2  8  1  0  0  0  0
  2  7  1  0  0  0  0
  3  2  1  0  0  0  0
  3  9  1  0  0  0  0
  4  3  1  0  0  0  0
  4 12  1  0  0  0  0
  5 13  1  0  0  0  0
  5  4  1  0  0  0  0
  6 15  1  6  0  0  0
  6  5  1  0  0  0  0
  6  1  1  0  0  0  0
 10  3  1  0  0  0  0
 11  4  1  0  0  0  0
 14  5  1  0  0  0  0
 16  6  1  0  0  0  0
 17 18  1  0  0  0  0
 17 16  1  0  0  0  0
 19 17  2  0  0  0  0
 20 19  1  0  0  0  0
 21 19  1  0  0  0  0
 21 23  1  0  0  0  0
 22 21  1  0  0  0  0
 23 16  2  0  0  0  0
 24 27  1  6  0  0  0
 24 25  1  0  0  0  0
 25 29  1  0  0  0  0
 25 28  1  0  0  0  0
 26 30  1  6  0  0  0
 26 24  1  0  0  0  0
 26 25  1  0  0  0  0
 31 32  1  0  0  0  0
 32 24  1  0  0  0  0
 32 33  2  0  0  0  0
 33 38  1  0  0  0  0
 34 33  1  0  0  0  0
 35 34  2  0  0  0  0
 36 31  2  0  0  0  0
 36 35  1  0  0  0  0
 37 31  1  0  0  0  0
 39 35  1  0  0  0  0
M  END
>  <minimizedAffinity>
-4.77885199

$$$$

 OpenBabel03252506443D

 39 42  0  0  1  0  0  0  0  0999 V2000
   34.2420   28.6650   37.7550 N   0  0  1  0  0  0  0  0  0  0  0  0
   34.6230   27.2840   37.5850 C   0  0  0  0  0  0  0  0  0  0  0  0
   35.9360   26.9110   38.1720 C   0  0  0  0  0  0  0  0  0  0  0  0
   37.0350   27.6510   37.4600 C   0  0  0  0  0  0  0  0  0  0  0  0
   36.6000   29.0200   37.0530 C   0  0  0  0  0  0  0  0  0  0  0  0
   35.4370   29.4720   37.8700 C   0  0  2  0  0  0  0  0  0  0  0  0
   34.6690   27.0490   36.5000 H   0  0  0  0  0  0  0  0  0  0  0  0
   33.7980   26.6230   37.9790 H   0  0  0  0  0  0  0  0  0  0  0  0
   36.0870   25.8190   37.9040 H   0  0  0  0  0  0  0  0  0  0  0  0
   36.0030   26.9150   39.2690 H   0  0  0  0  0  0  0  0  0  0  0  0
   37.9920   27.6370   38.0190 H   0  0  0  0  0  0  0  0  0  0  0  0
   37.2470   27.0990   36.5130 H   0  0  0  0  0  0  0  0  0  0  0  0
   36.3350   29.0930   35.9800 H   0  0  0  0  0  0  0  0  0  0  0  0
   37.4300   29.7060   37.2550 H   0  0  0  0  0  0  0  0  0  0  0  0
   35.1110   30.4360   37.3220 H   0  0  0  0  0  0  0  0  0  0  0  0
   35.7390   29.9420   39.2290 C   0  0  0  0  0  0  0  0  0  0  0  0
   36.6940   30.9220   39.5440 C   0  0  0  0  0  0  0  0  0  0  0  0
   37.3150   31.4290   38.7880 H   0  0  0  0  0  0  0  0  0  0  0  0
   36.7610   31.1730   40.8970 C   0  0  0  0  0  0  0  0  0  0  0  0
   37.4080   31.8750   41.3950 H   0  0  0  0  0  0  0  0  0  0  0  0
   35.8330   30.3280   41.3740 N   0  0  0  0  0  0  0  0  0  0  0  0
   35.5840   30.2230   42.3970 H   0  0  0  0  0  0  0  0  0  0  0  0
   35.2550   29.6330   40.4440 N   0  0  0  0  0  0  0  0  0  0  0  0
   31.9690   29.3270   36.7410 C   0  0  1  0  0  0  0  0  0  0  0  0
   32.4070   28.0220   36.2230 C   0  0  0  0  0  0  0  0  0  0  0  0
   33.4300   29.0150   36.6330 C   0  0  2  0  0  0  0  0  0  0  0  0
   31.5590   29.3070   37.7700 H   0  0  0  0  0  0  0  0  0  0  0  0
   32.2930   27.8740   35.1280 H   0  0  0  0  0  0  0  0  0  0  0  0
   32.2090   27.1180   36.7970 H   0  0  0  0  0  0  0  0  0  0  0  0
   33.9740   29.6050   35.8660 H   0  0  0  0  0  0  0  0  0  0  0  0
   30.7960   31.5180   36.2840 C   0  0  0  0  0  0  0  0  0  0  0  0
   31.3760   30.3150   35.8100 C   0  0  0  0  0  0  0  0  0  0  0  0
   31.3760   30.0920   34.4270 C   0  0  0  0  0  0  0  0  0  0  0  0
   30.8190   31.0400   33.6160 N   0  0  0  0  0  0  0  0  0  0  0  0
   30.2710   32.1790   34.1100 C   0  0  0  0  0  0  0  0  0  0  0  0
   30.2550   32.4300   35.4500 N   0  0  0  0  0  0  0  0  0  0  0  0
   30.7770   31.7240   37.3280 H   0  0  0  0  0  0  0  0  0  0  0  0
   31.8040   29.1930   34.0150 H   0  0  0  0  0  0  0  0  0  0  0  0
   29.8420   32.9020   33.4230 H   0  0  0  0  0  0  0  0  0  0  0  0
  1  2  1  6  0  0  0
  1  6  1  0  0  0  0
  2  8  1  0  0  0  0
  2  3  1  0  0  0  0
  3 10  1  0  0  0  0
  4 11  1  0  0  0  0
  4  3  1  0  0  0  0
  5 14  1  0  0  0  0
  5  4  1  0  0  0  0
  5  6  1  0  0  0  0
  6 15  1  6  0  0  0
  6 16  1  0  0  0  0
  7  2  1  0  0  0  0
  9  3  1  0  0  0  0
 12  4  1  0  0  0  0
 13  5  1  0  0  0  0
 16 17  1  0  0  0  0
 16 23  2  0  0  0  0
 17 19  2  0  0  0  0
 18 17  1  0  0  0  0
 19 21  1  0  0  0  0
 19 20  1  0  0  0  0
 21 22  1  0  0  0  0
 23 21  1  0  0  0  0
 24 27  1  1  0  0  0
 25 26  1  0  0  0  0
 25 24  1  0  0  0  0
 25 29  1  0  0  0  0
 26 30  1  6  0  0  0
 26 24  1  0  0  0  0
 26  1  1  0  0  0  0
 28 25  1  0  0  0  0
 31 37  1  0  0  0  0
 32 31  1  0  0  0  0
 32 24  1  0  0  0  0
 33 32  2  0  0  0  0
 34 35  2  0  0  0  0
 34 33  1  0  0  0  0
 35 36  1  0  0  0  0
 36 31  2  0  0  0  0
 38 33  1  0  0  0  0
 39 35  1  0  0  0  0
M  END
>  <minimizedAffinity>
-4.76877546

$$$$
