
 OpenBabel03252506073D

 42 46  0  0  0  0  0  0  0  0999 V2000
   40.4790   31.2020   42.7900 Cl  0  0  0  0  0  0  0  0  0  0  0  0
   39.1640   30.7200   41.7660 C   0  0  0  0  0  0  0  0  0  0  0  0
   38.7550   31.5340   40.7330 C   0  0  0  0  0  0  0  0  0  0  0  0
   37.7050   31.0580   39.9810 C   0  0  0  0  0  0  0  0  0  0  0  0
   37.0550   29.8590   40.1880 C   0  0  0  0  0  0  0  0  0  0  0  0
   37.4920   29.0720   41.2290 C   0  0  0  0  0  0  0  0  0  0  0  0
   36.6490   27.5610   41.4630 Cl  0  0  0  0  0  0  0  0  0  0  0  0
   38.5340   29.5010   42.0060 C   0  0  0  0  0  0  0  0  0  0  0  0
   37.3850   31.7160   39.1580 H   0  0  0  0  0  0  0  0  0  0  0  0
   38.8550   28.8600   42.8190 H   0  0  0  0  0  0  0  0  0  0  0  0
   35.9550   29.5340   39.2720 C   0  0  0  0  0  0  0  0  0  0  0  0
   34.6580   29.3310   39.7010 C   0  0  0  0  0  0  0  0  0  0  0  0
   33.6090   29.0240   38.8530 C   0  0  0  0  0  0  0  0  0  0  0  0
   33.8510   28.9100   37.5070 C   0  0  0  0  0  0  0  0  0  0  0  0
   32.8140   28.6120   36.7180 N   0  0  0  0  0  0  0  0  0  0  0  0
   32.9540   28.4790   35.3720 C   0  0  0  0  0  0  0  0  0  0  0  0
   34.2390   28.6690   34.8550 C   0  0  0  0  0  0  0  0  0  0  0  0
   35.2860   28.9730   35.6790 C   0  0  0  0  0  0  0  0  0  0  0  0
   35.1190   29.1040   37.0420 C   0  0  0  0  0  0  0  0  0  0  0  0
   36.1650   29.4120   37.9030 C   0  0  0  0  0  0  0  0  0  0  0  0
   34.5020   29.4290   40.7780 H   0  0  0  0  0  0  0  0  0  0  0  0
   32.6410   28.8900   39.3250 H   0  0  0  0  0  0  0  0  0  0  0  0
   32.0560   28.2360   34.8140 H   0  0  0  0  0  0  0  0  0  0  0  0
   34.3310   28.5580   33.7780 H   0  0  0  0  0  0  0  0  0  0  0  0
   36.2710   29.1150   35.2560 H   0  0  0  0  0  0  0  0  0  0  0  0
   37.1520   29.5580   37.5060 H   0  0  0  0  0  0  0  0  0  0  0  0
   39.3590   35.1210   40.6540 C   0  0  0  0  0  0  0  0  0  0  0  0
   40.5530   35.2440   39.9400 C   0  0  0  0  0  0  0  0  0  0  0  0
   41.1610   34.0570   39.4770 C   0  0  0  0  0  0  0  0  0  0  0  0
   40.5510   32.8850   39.7530 N   0  0  0  0  0  0  0  0  0  0  0  0
   39.3880   32.8120   40.4510 C   0  0  0  0  0  0  0  0  0  0  0  0
   38.7880   33.9320   40.9050 N   0  0  0  0  0  0  0  0  0  0  0  0
   38.9520   36.0720   40.9760 H   0  0  0  0  0  0  0  0  0  0  0  0
   41.0480   36.1660   39.7140 H   0  0  0  0  0  0  0  0  0  0  0  0
   42.4090   34.0700   38.7220 C   0  0  0  0  0  0  0  0  0  0  0  0
   43.6420   33.7990   39.2800 C   0  0  0  0  0  0  0  0  0  0  0  0
   43.9470   33.5410   40.2940 H   0  0  0  0  0  0  0  0  0  0  0  0
   44.5580   33.9150   38.2340 C   0  0  0  0  0  0  0  0  0  0  0  0
   45.6420   33.7740   38.2820 H   0  0  0  0  0  0  0  0  0  0  0  0
   43.8750   34.2440   37.1070 N   0  0  0  0  0  0  0  0  0  0  0  0
   44.2960   34.4000   36.1560 H   0  0  0  0  0  0  0  0  0  0  0  0
   42.5850   34.3330   37.4150 N   0  0  0  0  0  0  0  0  0  0  0  0
  2  8  1  0  0  0  0
  2  1  1  0  0  0  0
  3  2  2  0  0  0  0
  4  5  2  0  0  0  0
  4  3  1  0  0  0  0
  5  6  1  0  0  0  0
  6  7  1  0  0  0  0
  6  8  2  0  0  0  0
  8 10  1  0  0  0  0
  9  4  1  0  0  0  0
 11 12  1  0  0  0  0
 11  5  1  0  0  0  0
 12 21  1  0  0  0  0
 13 22  1  0  0  0  0
 13 12  2  0  0  0  0
 14 13  1  0  0  0  0
 15 14  2  0  0  0  0
 16 15  1  0  0  0  0
 17 16  2  0  0  0  0
 17 18  1  0  0  0  0
 18 19  2  0  0  0  0
 19 14  1  0  0  0  0
 19 20  1  0  0  0  0
 20 11  2  0  0  0  0
 23 16  1  0  0  0  0
 24 17  1  0  0  0  0
 25 18  1  0  0  0  0
 26 20  1  0  0  0  0
 27 32  1  0  0  0  0
 27 33  1  0  0  0  0
 28 27  2  0  0  0  0
 29 30  2  0  0  0  0
 29 28  1  0  0  0  0
 30 31  1  0  0  0  0
 31  3  1  0  0  0  0
 31 32  2  0  0  0  0
 34 28  1  0  0  0  0
 35 36  1  0  0  0  0
 35 29  1  0  0  0  0
 36 37  1  0  0  0  0
 38 39  1  0  0  0  0
 38 36  2  0  0  0  0
 40 42  1  0  0  0  0
 40 38  1  0  0  0  0
 41 40  1  0  0  0  0
 42 35  2  0  0  0  0
M  END
>  <minimizedAffinity>
-7.25479984

$$$$

 OpenBabel03252506073D

 42 46  0  0  0  0  0  0  0  0999 V2000
   36.5990   26.4370   38.6400 Cl  0  0  0  0  0  0  0  0  0  0  0  0
   35.2440   27.3620   38.0750 C   0  0  0  0  0  0  0  0  0  0  0  0
   34.9880   28.6090   38.6020 C   0  0  0  0  0  0  0  0  0  0  0  0
   33.8910   29.2590   38.0850 C   0  0  0  0  0  0  0  0  0  0  0  0
   33.0560   28.7600   37.1060 C   0  0  0  0  0  0  0  0  0  0  0  0
   33.3440   27.5110   36.6030 C   0  0  0  0  0  0  0  0  0  0  0  0
   32.2700   26.9090   35.3660 Cl  0  0  0  0  0  0  0  0  0  0  0  0
   34.4260   26.8250   37.0840 C   0  0  0  0  0  0  0  0  0  0  0  0
   33.6940   30.2550   38.5130 H   0  0  0  0  0  0  0  0  0  0  0  0
   34.6270   25.8430   36.6700 H   0  0  0  0  0  0  0  0  0  0  0  0
   31.9360   29.6130   36.6900 C   0  0  0  0  0  0  0  0  0  0  0  0
   30.8070   29.7970   37.4650 C   0  0  0  0  0  0  0  0  0  0  0  0
   29.7430   30.5960   37.0900 C   0  0  0  0  0  0  0  0  0  0  0  0
   29.7920   31.2510   35.8850 C   0  0  0  0  0  0  0  0  0  0  0  0
   28.7460   32.0140   35.5550 N   0  0  0  0  0  0  0  0  0  0  0  0
   28.7020   32.7030   34.3840 C   0  0  0  0  0  0  0  0  0  0  0  0
   29.8090   32.5710   33.5400 C   0  0  0  0  0  0  0  0  0  0  0  0
   30.8690   31.7850   33.8950 C   0  0  0  0  0  0  0  0  0  0  0  0
   30.8900   31.0970   35.0900 C   0  0  0  0  0  0  0  0  0  0  0  0
   31.9540   30.2920   35.4770 C   0  0  0  0  0  0  0  0  0  0  0  0
   30.8010   29.2600   38.4160 H   0  0  0  0  0  0  0  0  0  0  0  0
   28.9190   30.6500   37.7940 H   0  0  0  0  0  0  0  0  0  0  0  0
   27.8120   33.2960   34.2030 H   0  0  0  0  0  0  0  0  0  0  0  0
   29.7570   33.1270   32.6080 H   0  0  0  0  0  0  0  0  0  0  0  0
   31.7150   31.6980   33.2260 H   0  0  0  0  0  0  0  0  0  0  0  0
   32.8040   30.1900   34.8290 H   0  0  0  0  0  0  0  0  0  0  0  0
   36.8390   29.0080   41.7090 C   0  0  0  0  0  0  0  0  0  0  0  0
   37.3850   30.2900   41.6110 C   0  0  0  0  0  0  0  0  0  0  0  0
   37.1050   31.0310   40.4420 C   0  0  0  0  0  0  0  0  0  0  0  0
   36.3310   30.4530   39.4990 N   0  0  0  0  0  0  0  0  0  0  0  0
   35.8190   29.2030   39.6360 C   0  0  0  0  0  0  0  0  0  0  0  0
   36.0730   28.4750   40.7440 N   0  0  0  0  0  0  0  0  0  0  0  0
   37.0960   28.5020   42.6320 H   0  0  0  0  0  0  0  0  0  0  0  0
   38.0010   30.7600   42.3500 H   0  0  0  0  0  0  0  0  0  0  0  0
   37.6240   32.3780   40.2360 C   0  0  0  0  0  0  0  0  0  0  0  0
   38.7310   32.8780   40.8930 C   0  0  0  0  0  0  0  0  0  0  0  0
   39.4020   32.4430   41.6340 H   0  0  0  0  0  0  0  0  0  0  0  0
   38.8880   34.1800   40.4170 C   0  0  0  0  0  0  0  0  0  0  0  0
   39.6600   34.9020   40.7030 H   0  0  0  0  0  0  0  0  0  0  0  0
   37.9040   34.4240   39.5150 N   0  0  0  0  0  0  0  0  0  0  0  0
   37.7630   35.3220   38.9860 H   0  0  0  0  0  0  0  0  0  0  0  0
   37.1530   33.3330   39.4150 N   0  0  0  0  0  0  0  0  0  0  0  0
  2  3  1  0  0  0  0
  2  1  1  0  0  0  0
  3 31  1  0  0  0  0
  4  9  1  0  0  0  0
  4  3  2  0  0  0  0
  5  4  1  0  0  0  0
  6  8  1  0  0  0  0
  6  5  2  0  0  0  0
  7  6  1  0  0  0  0
  8  2  2  0  0  0  0
 10  8  1  0  0  0  0
 11  5  1  0  0  0  0
 11 12  1  0  0  0  0
 12 21  1  0  0  0  0
 13 12  2  0  0  0  0
 13 22  1  0  0  0  0
 14 13  1  0  0  0  0
 15 14  1  0  0  0  0
 16 15  2  0  0  0  0
 17 18  2  0  0  0  0
 17 16  1  0  0  0  0
 18 19  1  0  0  0  0
 19 20  1  0  0  0  0
 19 14  2  0  0  0  0
 20 11  2  0  0  0  0
 23 16  1  0  0  0  0
 24 17  1  0  0  0  0
 25 18  1  0  0  0  0
 26 20  1  0  0  0  0
 27 33  1  0  0  0  0
 28 27  1  0  0  0  0
 28 34  1  0  0  0  0
 29 28  2  0  0  0  0
 30 31  2  0  0  0  0
 30 29  1  0  0  0  0
 31 32  1  0  0  0  0
 32 27  2  0  0  0  0
 35 29  1  0  0  0  0
 35 36  1  0  0  0  0
 36 37  1  0  0  0  0
 38 39  1  0  0  0  0
 38 36  2  0  0  0  0
 40 38  1  0  0  0  0
 41 40  1  0  0  0  0
 42 40  1  0  0  0  0
 42 35  2  0  0  0  0
M  END
>  <minimizedAffinity>
-7.20904207

$$$$

 OpenBabel03252506073D

 42 46  0  0  0  0  0  0  0  0999 V2000
   36.8020   34.1220   39.0110 Cl  0  0  0  0  0  0  0  0  0  0  0  0
   37.2460   32.6380   39.7920 C   0  0  0  0  0  0  0  0  0  0  0  0
   38.5060   32.4860   40.3280 C   0  0  0  0  0  0  0  0  0  0  0  0
   38.7560   31.2730   40.9250 C   0  0  0  0  0  0  0  0  0  0  0  0
   37.8570   30.2300   41.0200 C   0  0  0  0  0  0  0  0  0  0  0  0
   36.6070   30.4180   40.4740 C   0  0  0  0  0  0  0  0  0  0  0  0
   35.4940   29.0810   40.6110 Cl  0  0  0  0  0  0  0  0  0  0  0  0
   36.3100   31.6090   39.8690 C   0  0  0  0  0  0  0  0  0  0  0  0
   39.7660   31.1610   41.3510 H   0  0  0  0  0  0  0  0  0  0  0  0
   35.3180   31.7280   39.4470 H   0  0  0  0  0  0  0  0  0  0  0  0
   38.3200   29.0140   41.6990 C   0  0  0  0  0  0  0  0  0  0  0  0
   38.3680   28.8950   43.0750 C   0  0  0  0  0  0  0  0  0  0  0  0
   38.8020   27.7590   43.7320 C   0  0  0  0  0  0  0  0  0  0  0  0
   39.2130   26.6770   42.9930 C   0  0  0  0  0  0  0  0  0  0  0  0
   39.6260   25.5960   43.6610 N   0  0  0  0  0  0  0  0  0  0  0  0
   40.0510   24.4760   43.0180 C   0  0  0  0  0  0  0  0  0  0  0  0
   40.0340   24.5130   41.6210 C   0  0  0  0  0  0  0  0  0  0  0  0
   39.6080   25.6280   40.9560 C   0  0  0  0  0  0  0  0  0  0  0  0
   39.1810   26.7530   41.6310 C   0  0  0  0  0  0  0  0  0  0  0  0
   38.7430   27.9000   40.9820 C   0  0  0  0  0  0  0  0  0  0  0  0
   38.0350   29.7750   43.6300 H   0  0  0  0  0  0  0  0  0  0  0  0
   38.7870   27.8030   44.8160 H   0  0  0  0  0  0  0  0  0  0  0  0
   40.3660   23.6480   43.6450 H   0  0  0  0  0  0  0  0  0  0  0  0
   40.3770   23.6090   41.1240 H   0  0  0  0  0  0  0  0  0  0  0  0
   39.6040   25.6340   39.8750 H   0  0  0  0  0  0  0  0  0  0  0  0
   38.7300   27.9290   39.9080 H   0  0  0  0  0  0  0  0  0  0  0  0
   40.1880   35.6610   40.9030 C   0  0  0  0  0  0  0  0  0  0  0  0
   41.3770   35.5450   40.1800 C   0  0  0  0  0  0  0  0  0  0  0  0
   41.6000   34.3400   39.4790 C   0  0  0  0  0  0  0  0  0  0  0  0
   40.6520   33.3820   39.5530 N   0  0  0  0  0  0  0  0  0  0  0  0
   39.5080   33.5370   40.2680 C   0  0  0  0  0  0  0  0  0  0  0  0
   39.2730   34.6790   40.9470 N   0  0  0  0  0  0  0  0  0  0  0  0
   40.0870   36.6110   41.4130 H   0  0  0  0  0  0  0  0  0  0  0  0
   42.1380   36.2960   40.1130 H   0  0  0  0  0  0  0  0  0  0  0  0
   42.8080   34.1130   38.6930 C   0  0  0  0  0  0  0  0  0  0  0  0
   44.0230   33.7610   39.2450 C   0  0  0  0  0  0  0  0  0  0  0  0
   44.3380   33.5870   40.2740 H   0  0  0  0  0  0  0  0  0  0  0  0
   44.9010   33.6430   38.1670 C   0  0  0  0  0  0  0  0  0  0  0  0
   45.9620   33.3760   38.2020 H   0  0  0  0  0  0  0  0  0  0  0  0
   44.2150   33.9190   37.0290 N   0  0  0  0  0  0  0  0  0  0  0  0
   44.6110   33.9110   36.0550 H   0  0  0  0  0  0  0  0  0  0  0  0
   42.9580   34.2000   37.3600 N   0  0  0  0  0  0  0  0  0  0  0  0
  1  2  1  0  0  0  0
  2  8  2  0  0  0  0
  2  3  1  0  0  0  0
  3  4  2  0  0  0  0
  4  5  1  0  0  0  0
  4  9  1  0  0  0  0
  5 11  1  0  0  0  0
  6  7  1  0  0  0  0
  6  5  2  0  0  0  0
  8  6  1  0  0  0  0
 10  8  1  0  0  0  0
 11 12  1  0  0  0  0
 12 21  1  0  0  0  0
 12 13  2  0  0  0  0
 13 22  1  0  0  0  0
 14 15  1  0  0  0  0
 14 13  1  0  0  0  0
 16 23  1  0  0  0  0
 16 15  2  0  0  0  0
 17 16  1  0  0  0  0
 18 17  2  0  0  0  0
 18 19  1  0  0  0  0
 19 14  2  0  0  0  0
 20 19  1  0  0  0  0
 20 11  2  0  0  0  0
 24 17  1  0  0  0  0
 25 18  1  0  0  0  0
 26 20  1  0  0  0  0
 27 32  1  0  0  0  0
 27 33  1  0  0  0  0
 28 27  2  0  0  0  0
 29 30  2  0  0  0  0
 29 28  1  0  0  0  0
 30 31  1  0  0  0  0
 31  3  1  0  0  0  0
 31 32  2  0  0  0  0
 34 28  1  0  0  0  0
 35 36  1  0  0  0  0
 35 29  1  0  0  0  0
 36 37  1  0  0  0  0
 38 39  1  0  0  0  0
 38 36  2  0  0  0  0
 40 42  1  0  0  0  0
 40 38  1  0  0  0  0
 41 40  1  0  0  0  0
 42 35  2  0  0  0  0
M  END
>  <minimizedAffinity>
-7.04028511

$$$$

 OpenBabel03252506073D

 42 46  0  0  0  0  0  0  0  0999 V2000
   36.6800   26.1390   38.7730 Cl  0  0  0  0  0  0  0  0  0  0  0  0
   35.3630   27.1210   38.2150 C   0  0  0  0  0  0  0  0  0  0  0  0
   35.1190   28.3470   38.7930 C   0  0  0  0  0  0  0  0  0  0  0  0
   34.0530   29.0460   38.2780 C   0  0  0  0  0  0  0  0  0  0  0  0
   33.2360   28.6140   37.2530 C   0  0  0  0  0  0  0  0  0  0  0  0
   33.5110   27.3840   36.6990 C   0  0  0  0  0  0  0  0  0  0  0  0
   32.4590   26.8670   35.4050 Cl  0  0  0  0  0  0  0  0  0  0  0  0
   34.5620   26.6500   37.1770 C   0  0  0  0  0  0  0  0  0  0  0  0
   33.8660   30.0250   38.7470 H   0  0  0  0  0  0  0  0  0  0  0  0
   34.7530   25.6850   36.7220 H   0  0  0  0  0  0  0  0  0  0  0  0
   32.1480   29.5120   36.8480 C   0  0  0  0  0  0  0  0  0  0  0  0
   31.0770   29.8100   37.6680 C   0  0  0  0  0  0  0  0  0  0  0  0
   30.0430   30.6530   37.3040 C   0  0  0  0  0  0  0  0  0  0  0  0
   30.0640   31.2360   36.0610 C   0  0  0  0  0  0  0  0  0  0  0  0
   29.0490   32.0440   35.7430 N   0  0  0  0  0  0  0  0  0  0  0  0
   28.9810   32.6680   34.5370 C   0  0  0  0  0  0  0  0  0  0  0  0
   30.0290   32.4200   33.6460 C   0  0  0  0  0  0  0  0  0  0  0  0
   31.0580   31.5890   33.9900 C   0  0  0  0  0  0  0  0  0  0  0  0
   31.1050   30.9680   35.2210 C   0  0  0  0  0  0  0  0  0  0  0  0
   32.1380   30.1200   35.5970 C   0  0  0  0  0  0  0  0  0  0  0  0
   31.0920   29.3280   38.6490 H   0  0  0  0  0  0  0  0  0  0  0  0
   29.2650   30.7980   38.0470 H   0  0  0  0  0  0  0  0  0  0  0  0
   28.1190   33.3060   34.3690 H   0  0  0  0  0  0  0  0  0  0  0  0
   29.9570   32.9260   32.6870 H   0  0  0  0  0  0  0  0  0  0  0  0
   31.8580   31.4120   33.2830 H   0  0  0  0  0  0  0  0  0  0  0  0
   32.9430   29.9290   34.9130 H   0  0  0  0  0  0  0  0  0  0  0  0
   36.5470   30.6780   41.1950 C   0  0  0  0  0  0  0  0  0  0  0  0
   37.4540   29.9010   41.9180 C   0  0  0  0  0  0  0  0  0  0  0  0
   37.5720   28.5380   41.5650 C   0  0  0  0  0  0  0  0  0  0  0  0
   36.8030   28.0790   40.5550 N   0  0  0  0  0  0  0  0  0  0  0  0
   35.9340   28.8720   39.8780 C   0  0  0  0  0  0  0  0  0  0  0  0
   35.8030   30.1760   40.1970 N   0  0  0  0  0  0  0  0  0  0  0  0
   36.5110   31.7110   41.5220 H   0  0  0  0  0  0  0  0  0  0  0  0
   38.0690   30.2510   42.7220 H   0  0  0  0  0  0  0  0  0  0  0  0
   38.4880   27.6370   42.2540 C   0  0  0  0  0  0  0  0  0  0  0  0
   38.5670   27.5320   43.6290 C   0  0  0  0  0  0  0  0  0  0  0  0
   38.0310   28.0350   44.4340 H   0  0  0  0  0  0  0  0  0  0  0  0
   39.5500   26.5730   43.8730 C   0  0  0  0  0  0  0  0  0  0  0  0
   39.9000   26.2140   44.8460 H   0  0  0  0  0  0  0  0  0  0  0  0
   40.0240   26.1380   42.6780 N   0  0  0  0  0  0  0  0  0  0  0  0
   40.7740   25.4140   42.5400 H   0  0  0  0  0  0  0  0  0  0  0  0
   39.3770   26.7850   41.7140 N   0  0  0  0  0  0  0  0  0  0  0  0
  2  1  1  0  0  0  0
  2  3  1  0  0  0  0
  3 31  1  0  0  0  0
  4  9  1  0  0  0  0
  4  3  2  0  0  0  0
  5  4  1  0  0  0  0
  6  8  1  0  0  0  0
  6  5  2  0  0  0  0
  7  6  1  0  0  0  0
  8  2  2  0  0  0  0
 10  8  1  0  0  0  0
 11  5  1  0  0  0  0
 11 12  1  0  0  0  0
 12 21  1  0  0  0  0
 13 12  2  0  0  0  0
 13 22  1  0  0  0  0
 14 13  1  0  0  0  0
 15 14  1  0  0  0  0
 16 15  2  0  0  0  0
 17 18  2  0  0  0  0
 17 16  1  0  0  0  0
 18 19  1  0  0  0  0
 19 20  1  0  0  0  0
 19 14  2  0  0  0  0
 20 11  2  0  0  0  0
 23 16  1  0  0  0  0
 24 17  1  0  0  0  0
 25 18  1  0  0  0  0
 26 20  1  0  0  0  0
 27 33  1  0  0  0  0
 27 28  1  0  0  0  0
 28 34  1  0  0  0  0
 29 28  2  0  0  0  0
 29 35  1  0  0  0  0
 30 29  1  0  0  0  0
 31 32  1  0  0  0  0
 31 30  2  0  0  0  0
 32 27  2  0  0  0  0
 35 36  1  0  0  0  0
 36 38  2  0  0  0  0
 36 37  1  0  0  0  0
 38 39  1  0  0  0  0
 40 38  1  0  0  0  0
 41 40  1  0  0  0  0
 42 35  2  0  0  0  0
 42 40  1  0  0  0  0
M  END
>  <minimizedAffinity>
-6.99204159

$$$$

 OpenBabel03252506073D

 42 46  0  0  0  0  0  0  0  0999 V2000
   31.4020   27.3280   35.2590 Cl  0  0  0  0  0  0  0  0  0  0  0  0
   32.6630   27.7740   36.3640 C   0  0  0  0  0  0  0  0  0  0  0  0
   32.5630   28.9360   37.0970 C   0  0  0  0  0  0  0  0  0  0  0  0
   33.6160   29.1970   37.9440 C   0  0  0  0  0  0  0  0  0  0  0  0
   34.7290   28.3970   38.1020 C   0  0  0  0  0  0  0  0  0  0  0  0
   34.7940   27.2440   37.3530 C   0  0  0  0  0  0  0  0  0  0  0  0
   36.2150   26.2560   37.5760 Cl  0  0  0  0  0  0  0  0  0  0  0  0
   33.7710   26.9400   36.4960 C   0  0  0  0  0  0  0  0  0  0  0  0
   33.5270   30.1280   38.5260 H   0  0  0  0  0  0  0  0  0  0  0  0
   33.8500   26.0260   35.9180 H   0  0  0  0  0  0  0  0  0  0  0  0
   35.7440   28.8540   39.0600 C   0  0  0  0  0  0  0  0  0  0  0  0
   36.6740   29.8290   38.7570 C   0  0  0  0  0  0  0  0  0  0  0  0
   37.6370   30.2720   39.6450 C   0  0  0  0  0  0  0  0  0  0  0  0
   37.6870   29.7240   40.9030 C   0  0  0  0  0  0  0  0  0  0  0  0
   38.6310   30.1760   41.7350 N   0  0  0  0  0  0  0  0  0  0  0  0
   38.7590   29.6950   43.0000 C   0  0  0  0  0  0  0  0  0  0  0  0
   37.8540   28.7030   43.3870 C   0  0  0  0  0  0  0  0  0  0  0  0
   36.8960   28.2540   42.5210 C   0  0  0  0  0  0  0  0  0  0  0  0
   36.7850   28.7580   41.2420 C   0  0  0  0  0  0  0  0  0  0  0  0
   35.8220   28.3210   40.3410 C   0  0  0  0  0  0  0  0  0  0  0  0
   36.6060   30.2430   37.7480 H   0  0  0  0  0  0  0  0  0  0  0  0
   38.3050   31.0430   39.2760 H   0  0  0  0  0  0  0  0  0  0  0  0
   39.5540   30.1230   43.6020 H   0  0  0  0  0  0  0  0  0  0  0  0
   37.9720   28.3310   44.4010 H   0  0  0  0  0  0  0  0  0  0  0  0
   36.2070   27.4860   42.8430 H   0  0  0  0  0  0  0  0  0  0  0  0
   35.1260   27.5590   40.6380 H   0  0  0  0  0  0  0  0  0  0  0  0
   29.6810   30.9520   38.0280 C   0  0  0  0  0  0  0  0  0  0  0  0
   29.2630   31.5160   36.8200 C   0  0  0  0  0  0  0  0  0  0  0  0
   29.9970   31.1890   35.6590 C   0  0  0  0  0  0  0  0  0  0  0  0
   31.0510   30.3570   35.7920 N   0  0  0  0  0  0  0  0  0  0  0  0
   31.4220   29.8300   36.9870 C   0  0  0  0  0  0  0  0  0  0  0  0
   30.7370   30.1280   38.1110 N   0  0  0  0  0  0  0  0  0  0  0  0
   29.0700   31.2470   38.8730 H   0  0  0  0  0  0  0  0  0  0  0  0
   28.4290   32.1780   36.7000 H   0  0  0  0  0  0  0  0  0  0  0  0
   29.6470   31.7220   34.3470 C   0  0  0  0  0  0  0  0  0  0  0  0
   30.0930   31.1780   33.1580 C   0  0  0  0  0  0  0  0  0  0  0  0
   30.7340   30.3250   32.9380 H   0  0  0  0  0  0  0  0  0  0  0  0
   29.5370   31.9730   32.1550 C   0  0  0  0  0  0  0  0  0  0  0  0
   29.6600   31.8580   31.0730 H   0  0  0  0  0  0  0  0  0  0  0  0
   28.7950   32.9440   32.7450 N   0  0  0  0  0  0  0  0  0  0  0  0
   28.2540   33.6950   32.2450 H   0  0  0  0  0  0  0  0  0  0  0  0
   28.8690   32.7810   34.0620 N   0  0  0  0  0  0  0  0  0  0  0  0
  1  2  1  0  0  0  0
  2  8  2  0  0  0  0
  2  3  1  0  0  0  0
  3  4  2  0  0  0  0
  4  5  1  0  0  0  0
  4  9  1  0  0  0  0
  5 11  1  0  0  0  0
  6  7  1  0  0  0  0
  6  5  2  0  0  0  0
  8  6  1  0  0  0  0
 10  8  1  0  0  0  0
 11 20  1  0  0  0  0
 12 11  2  0  0  0  0
 12 13  1  0  0  0  0
 13 14  2  0  0  0  0
 14 19  1  0  0  0  0
 14 15  1  0  0  0  0
 15 16  2  0  0  0  0
 16 17  1  0  0  0  0
 16 23  1  0  0  0  0
 17 24  1  0  0  0  0
 18 25  1  0  0  0  0
 18 17  2  0  0  0  0
 19 18  1  0  0  0  0
 20 26  1  0  0  0  0
 20 19  2  0  0  0  0
 21 12  1  0  0  0  0
 22 13  1  0  0  0  0
 27 32  1  0  0  0  0
 27 33  1  0  0  0  0
 28 27  2  0  0  0  0
 29 30  2  0  0  0  0
 29 28  1  0  0  0  0
 30 31  1  0  0  0  0
 31  3  1  0  0  0  0
 31 32  2  0  0  0  0
 34 28  1  0  0  0  0
 35 29  1  0  0  0  0
 36 35  1  0  0  0  0
 37 36  1  0  0  0  0
 38 40  1  0  0  0  0
 38 36  2  0  0  0  0
 39 38  1  0  0  0  0
 40 42  1  0  0  0  0
 41 40  1  0  0  0  0
 42 35  2  0  0  0  0
M  END
>  <minimizedAffinity>
-6.73822403

$$$$

 OpenBabel03252506073D

 42 46  0  0  0  0  0  0  0  0999 V2000
   39.2280   35.0490   40.0290 Cl  0  0  0  0  0  0  0  0  0  0  0  0
   39.0570   33.3510   40.3400 C   0  0  0  0  0  0  0  0  0  0  0  0
   40.1720   32.5480   40.4410 C   0  0  0  0  0  0  0  0  0  0  0  0
   39.9270   31.2180   40.6890 C   0  0  0  0  0  0  0  0  0  0  0  0
   38.6780   30.6510   40.8370 C   0  0  0  0  0  0  0  0  0  0  0  0
   37.5860   31.4840   40.7310 C   0  0  0  0  0  0  0  0  0  0  0  0
   36.0210   30.7360   40.9230 Cl  0  0  0  0  0  0  0  0  0  0  0  0
   37.7790   32.8170   40.4850 C   0  0  0  0  0  0  0  0  0  0  0  0
   40.8250   30.5840   40.7680 H   0  0  0  0  0  0  0  0  0  0  0  0
   36.9010   33.4480   40.4050 H   0  0  0  0  0  0  0  0  0  0  0  0
   38.6300   29.2070   41.0980 C   0  0  0  0  0  0  0  0  0  0  0  0
   37.8740   28.3340   40.3410 C   0  0  0  0  0  0  0  0  0  0  0  0
   37.8170   26.9710   40.5720 C   0  0  0  0  0  0  0  0  0  0  0  0
   38.5450   26.4390   41.6070 C   0  0  0  0  0  0  0  0  0  0  0  0
   38.4660   25.1190   41.8010 N   0  0  0  0  0  0  0  0  0  0  0  0
   39.1500   24.4990   42.7980 C   0  0  0  0  0  0  0  0  0  0  0  0
   39.9420   25.3140   43.6130 C   0  0  0  0  0  0  0  0  0  0  0  0
   40.0090   26.6620   43.3980 C   0  0  0  0  0  0  0  0  0  0  0  0
   39.3060   27.2680   42.3780 C   0  0  0  0  0  0  0  0  0  0  0  0
   39.3560   28.6350   42.1370 C   0  0  0  0  0  0  0  0  0  0  0  0
   37.3070   28.7910   39.5270 H   0  0  0  0  0  0  0  0  0  0  0  0
   37.1820   26.4030   39.9010 H   0  0  0  0  0  0  0  0  0  0  0  0
   39.0240   23.4250   42.8780 H   0  0  0  0  0  0  0  0  0  0  0  0
   40.4810   24.8020   44.4050 H   0  0  0  0  0  0  0  0  0  0  0  0
   40.6290   27.2730   44.0420 H   0  0  0  0  0  0  0  0  0  0  0  0
   39.9640   29.2610   42.7630 H   0  0  0  0  0  0  0  0  0  0  0  0
   43.2380   34.3800   41.1420 C   0  0  0  0  0  0  0  0  0  0  0  0
   44.0650   34.0740   40.0590 C   0  0  0  0  0  0  0  0  0  0  0  0
   43.5480   33.2150   39.0650 C   0  0  0  0  0  0  0  0  0  0  0  0
   42.2930   32.7460   39.2260 N   0  0  0  0  0  0  0  0  0  0  0  0
   41.5220   33.0700   40.2960 C   0  0  0  0  0  0  0  0  0  0  0  0
   41.9930   33.8890   41.2590 N   0  0  0  0  0  0  0  0  0  0  0  0
   43.7010   35.0440   41.8620 H   0  0  0  0  0  0  0  0  0  0  0  0
   45.0620   34.4380   39.9190 H   0  0  0  0  0  0  0  0  0  0  0  0
   44.3270   32.8310   37.8930 C   0  0  0  0  0  0  0  0  0  0  0  0
   45.5490   33.3870   37.5720 C   0  0  0  0  0  0  0  0  0  0  0  0
   46.1550   34.1530   38.0560 H   0  0  0  0  0  0  0  0  0  0  0  0
   45.9490   32.7520   36.3960 C   0  0  0  0  0  0  0  0  0  0  0  0
   46.8700   32.9230   35.8300 H   0  0  0  0  0  0  0  0  0  0  0  0
   44.9890   31.8570   36.0490 N   0  0  0  0  0  0  0  0  0  0  0  0
   45.0100   31.2280   35.2070 H   0  0  0  0  0  0  0  0  0  0  0  0
   44.0200   31.9150   36.9570 N   0  0  0  0  0  0  0  0  0  0  0  0
  1  2  1  0  0  0  0
  2  3  2  0  0  0  0
  2  8  1  0  0  0  0
  3  4  1  0  0  0  0
  4  9  1  0  0  0  0
  4  5  2  0  0  0  0
  5 11  1  0  0  0  0
  6  5  1  0  0  0  0
  6  7  1  0  0  0  0
  8  6  2  0  0  0  0
 10  8  1  0  0  0  0
 11 20  1  0  0  0  0
 12 13  1  0  0  0  0
 12 11  2  0  0  0  0
 13 14  2  0  0  0  0
 14 15  1  0  0  0  0
 14 19  1  0  0  0  0
 15 16  2  0  0  0  0
 16 23  1  0  0  0  0
 16 17  1  0  0  0  0
 17 24  1  0  0  0  0
 18 17  2  0  0  0  0
 18 25  1  0  0  0  0
 19 18  1  0  0  0  0
 20 19  2  0  0  0  0
 20 26  1  0  0  0  0
 21 12  1  0  0  0  0
 22 13  1  0  0  0  0
 27 32  1  0  0  0  0
 27 33  1  0  0  0  0
 28 27  2  0  0  0  0
 29 30  2  0  0  0  0
 29 28  1  0  0  0  0
 30 31  1  0  0  0  0
 31  3  1  0  0  0  0
 31 32  2  0  0  0  0
 34 28  1  0  0  0  0
 35 29  1  0  0  0  0
 36 35  1  0  0  0  0
 36 37  1  0  0  0  0
 38 36  2  0  0  0  0
 39 38  1  0  0  0  0
 40 38  1  0  0  0  0
 40 42  1  0  0  0  0
 41 40  1  0  0  0  0
 42 35  2  0  0  0  0
M  END
>  <minimizedAffinity>
-6.72033882

$$$$

 OpenBabel03252506073D

 42 46  0  0  0  0  0  0  0  0999 V2000
   39.4380   35.0460   39.9700 Cl  0  0  0  0  0  0  0  0  0  0  0  0
   39.2510   33.3790   40.4120 C   0  0  0  0  0  0  0  0  0  0  0  0
   40.3580   32.6040   40.6800 C   0  0  0  0  0  0  0  0  0  0  0  0
   40.1000   31.2960   41.0210 C   0  0  0  0  0  0  0  0  0  0  0  0
   38.8460   30.7270   41.1090 C   0  0  0  0  0  0  0  0  0  0  0  0
   37.7640   31.5330   40.8350 C   0  0  0  0  0  0  0  0  0  0  0  0
   36.1920   30.7820   40.9560 Cl  0  0  0  0  0  0  0  0  0  0  0  0
   37.9680   32.8410   40.4910 C   0  0  0  0  0  0  0  0  0  0  0  0
   40.9920   30.6850   41.2340 H   0  0  0  0  0  0  0  0  0  0  0  0
   37.0970   33.4500   40.2800 H   0  0  0  0  0  0  0  0  0  0  0  0
   38.7860   29.3110   41.4910 C   0  0  0  0  0  0  0  0  0  0  0  0
   38.7210   28.8910   42.8050 C   0  0  0  0  0  0  0  0  0  0  0  0
   38.6630   27.5630   43.1840 C   0  0  0  0  0  0  0  0  0  0  0  0
   38.6710   26.5920   42.2130 C   0  0  0  0  0  0  0  0  0  0  0  0
   38.6150   25.3180   42.6150 N   0  0  0  0  0  0  0  0  0  0  0  0
   38.6160   24.2870   41.7300 C   0  0  0  0  0  0  0  0  0  0  0  0
   38.6810   24.6270   40.3750 C   0  0  0  0  0  0  0  0  0  0  0  0
   38.7380   25.9350   39.9840 C   0  0  0  0  0  0  0  0  0  0  0  0
   38.7340   26.9650   40.9030 C   0  0  0  0  0  0  0  0  0  0  0  0
   38.7910   28.3020   40.5340 C   0  0  0  0  0  0  0  0  0  0  0  0
   38.7170   29.6900   43.5510 H   0  0  0  0  0  0  0  0  0  0  0  0
   38.6160   27.3750   44.2510 H   0  0  0  0  0  0  0  0  0  0  0  0
   38.5680   23.2880   42.1500 H   0  0  0  0  0  0  0  0  0  0  0  0
   38.6810   23.7900   39.6820 H   0  0  0  0  0  0  0  0  0  0  0  0
   38.7870   26.1740   38.9310 H   0  0  0  0  0  0  0  0  0  0  0  0
   38.8400   28.5640   39.4930 H   0  0  0  0  0  0  0  0  0  0  0  0
   43.5590   33.6690   39.3150 C   0  0  0  0  0  0  0  0  0  0  0  0
   44.2670   34.1160   40.4320 C   0  0  0  0  0  0  0  0  0  0  0  0
   43.6200   34.0470   41.6860 C   0  0  0  0  0  0  0  0  0  0  0  0
   42.3640   33.5540   41.7210 N   0  0  0  0  0  0  0  0  0  0  0  0
   41.7120   33.1300   40.6090 C   0  0  0  0  0  0  0  0  0  0  0  0
   42.3080   33.1860   39.4000 N   0  0  0  0  0  0  0  0  0  0  0  0
   44.1180   33.7520   38.3910 H   0  0  0  0  0  0  0  0  0  0  0  0
   45.2630   34.5090   40.4190 H   0  0  0  0  0  0  0  0  0  0  0  0
   44.2680   34.4870   42.9160 C   0  0  0  0  0  0  0  0  0  0  0  0
   45.2200   33.7440   43.5860 C   0  0  0  0  0  0  0  0  0  0  0  0
   45.6640   32.7700   43.3840 H   0  0  0  0  0  0  0  0  0  0  0  0
   45.5770   34.5120   44.6950 C   0  0  0  0  0  0  0  0  0  0  0  0
   46.3080   34.2590   45.4690 H   0  0  0  0  0  0  0  0  0  0  0  0
   44.8540   35.6610   44.6660 N   0  0  0  0  0  0  0  0  0  0  0  0
   44.9060   36.4380   45.3730 H   0  0  0  0  0  0  0  0  0  0  0  0
   44.0720   35.6330   43.5920 N   0  0  0  0  0  0  0  0  0  0  0  0
  1  2  1  0  0  0  0
  2  8  2  0  0  0  0
  2  3  1  0  0  0  0
  3  4  2  0  0  0  0
  4  5  1  0  0  0  0
  4  9  1  0  0  0  0
  5 11  1  0  0  0  0
  6  7  1  0  0  0  0
  6  5  2  0  0  0  0
  8  6  1  0  0  0  0
 10  8  1  0  0  0  0
 11 12  1  0  0  0  0
 12 13  2  0  0  0  0
 12 21  1  0  0  0  0
 13 22  1  0  0  0  0
 14 15  1  0  0  0  0
 14 13  1  0  0  0  0
 16 23  1  0  0  0  0
 16 15  2  0  0  0  0
 17 16  1  0  0  0  0
 18 17  2  0  0  0  0
 18 19  1  0  0  0  0
 19 14  2  0  0  0  0
 20 19  1  0  0  0  0
 20 11  2  0  0  0  0
 24 17  1  0  0  0  0
 25 18  1  0  0  0  0
 26 20  1  0  0  0  0
 27 32  2  0  0  0  0
 27 28  1  0  0  0  0
 28 29  2  0  0  0  0
 29 30  1  0  0  0  0
 29 35  1  0  0  0  0
 31  3  1  0  0  0  0
 31 30  2  0  0  0  0
 32 31  1  0  0  0  0
 33 27  1  0  0  0  0
 34 28  1  0  0  0  0
 35 36  1  0  0  0  0
 35 42  2  0  0  0  0
 36 38  2  0  0  0  0
 37 36  1  0  0  0  0
 38 39  1  0  0  0  0
 40 38  1  0  0  0  0
 40 41  1  0  0  0  0
 42 40  1  0  0  0  0
M  END
>  <minimizedAffinity>
-6.70464277

$$$$

 OpenBabel03252506073D

 42 46  0  0  0  0  0  0  0  0999 V2000
   39.6290   29.9370   42.8310 Cl  0  0  0  0  0  0  0  0  0  0  0  0
   39.1140   28.4190   42.1690 C   0  0  0  0  0  0  0  0  0  0  0  0
   38.3900   28.3820   40.9970 C   0  0  0  0  0  0  0  0  0  0  0  0
   38.0320   27.1280   40.5580 C   0  0  0  0  0  0  0  0  0  0  0  0
   38.3390   25.9430   41.1940 C   0  0  0  0  0  0  0  0  0  0  0  0
   39.0640   26.0180   42.3620 C   0  0  0  0  0  0  0  0  0  0  0  0
   39.4350   24.5010   43.1410 Cl  0  0  0  0  0  0  0  0  0  0  0  0
   39.4450   27.2430   42.8400 C   0  0  0  0  0  0  0  0  0  0  0  0
   37.4540   27.1100   39.6210 H   0  0  0  0  0  0  0  0  0  0  0  0
   40.0130   27.2710   43.7620 H   0  0  0  0  0  0  0  0  0  0  0  0
   37.8620   24.7070   40.5610 C   0  0  0  0  0  0  0  0  0  0  0  0
   38.7150   23.7180   40.1120 C   0  0  0  0  0  0  0  0  0  0  0  0
   38.2850   22.5480   39.5130 C   0  0  0  0  0  0  0  0  0  0  0  0
   36.9380   22.3410   39.3450 C   0  0  0  0  0  0  0  0  0  0  0  0
   36.5590   21.2000   38.7610 N   0  0  0  0  0  0  0  0  0  0  0  0
   35.2480   20.9040   38.5530 C   0  0  0  0  0  0  0  0  0  0  0  0
   34.3170   21.8560   38.9790 C   0  0  0  0  0  0  0  0  0  0  0  0
   34.7260   23.0160   39.5730 C   0  0  0  0  0  0  0  0  0  0  0  0
   36.0620   23.2940   39.7750 C   0  0  0  0  0  0  0  0  0  0  0  0
   36.5050   24.4650   40.3760 C   0  0  0  0  0  0  0  0  0  0  0  0
   39.7790   23.9160   40.2610 H   0  0  0  0  0  0  0  0  0  0  0  0
   39.0640   21.8570   39.2070 H   0  0  0  0  0  0  0  0  0  0  0  0
   35.0370   19.9540   38.0730 H   0  0  0  0  0  0  0  0  0  0  0  0
   33.2750   21.6030   38.8030 H   0  0  0  0  0  0  0  0  0  0  0  0
   33.9870   23.7380   39.8940 H   0  0  0  0  0  0  0  0  0  0  0  0
   35.7900   25.1960   40.7030 H   0  0  0  0  0  0  0  0  0  0  0  0
   36.6680   30.6140   38.6970 C   0  0  0  0  0  0  0  0  0  0  0  0
   37.3130   31.8400   38.8740 C   0  0  0  0  0  0  0  0  0  0  0  0
   38.3670   31.8930   39.8120 C   0  0  0  0  0  0  0  0  0  0  0  0
   38.6810   30.7590   40.4730 N   0  0  0  0  0  0  0  0  0  0  0  0
   38.0280   29.5870   40.2690 C   0  0  0  0  0  0  0  0  0  0  0  0
   37.0170   29.5110   39.3790 N   0  0  0  0  0  0  0  0  0  0  0  0
   35.8720   30.6500   37.9630 H   0  0  0  0  0  0  0  0  0  0  0  0
   37.0740   32.7470   38.3580 H   0  0  0  0  0  0  0  0  0  0  0  0
   39.1070   33.1220   40.0760 C   0  0  0  0  0  0  0  0  0  0  0  0
   40.2890   33.4530   39.4420 C   0  0  0  0  0  0  0  0  0  0  0  0
   40.8820   32.9410   38.6850 H   0  0  0  0  0  0  0  0  0  0  0  0
   40.6620   34.6880   39.9730 C   0  0  0  0  0  0  0  0  0  0  0  0
   41.5480   35.2790   39.7190 H   0  0  0  0  0  0  0  0  0  0  0  0
   39.7260   35.0580   40.8850 N   0  0  0  0  0  0  0  0  0  0  0  0
   39.7360   35.9440   41.4510 H   0  0  0  0  0  0  0  0  0  0  0  0
   38.7980   34.1080   40.9360 N   0  0  0  0  0  0  0  0  0  0  0  0
  2  1  1  0  0  0  0
  2  8  1  0  0  0  0
  3  2  2  0  0  0  0
  4  3  1  0  0  0  0
  4  5  2  0  0  0  0
  5  6  1  0  0  0  0
  6  8  2  0  0  0  0
  6  7  1  0  0  0  0
  8 10  1  0  0  0  0
  9  4  1  0  0  0  0
 11  5  1  0  0  0  0
 12 21  1  0  0  0  0
 12 11  2  0  0  0  0
 13 12  1  0  0  0  0
 14 13  2  0  0  0  0
 14 19  1  0  0  0  0
 15 14  1  0  0  0  0
 16 15  2  0  0  0  0
 16 17  1  0  0  0  0
 17 18  2  0  0  0  0
 18 19  1  0  0  0  0
 18 25  1  0  0  0  0
 19 20  2  0  0  0  0
 20 11  1  0  0  0  0
 20 26  1  0  0  0  0
 22 13  1  0  0  0  0
 23 16  1  0  0  0  0
 24 17  1  0  0  0  0
 27 28  2  0  0  0  0
 27 32  1  0  0  0  0
 28 29  1  0  0  0  0
 29 35  1  0  0  0  0
 29 30  2  0  0  0  0
 31 30  1  0  0  0  0
 31  3  1  0  0  0  0
 32 31  2  0  0  0  0
 33 27  1  0  0  0  0
 34 28  1  0  0  0  0
 35 42  2  0  0  0  0
 36 38  2  0  0  0  0
 36 35  1  0  0  0  0
 37 36  1  0  0  0  0
 38 40  1  0  0  0  0
 39 38  1  0  0  0  0
 40 42  1  0  0  0  0
 40 41  1  0  0  0  0
M  END
>  <minimizedAffinity>
-6.66732836

$$$$

 OpenBabel03252506073D

 42 46  0  0  0  0  0  0  0  0999 V2000
   41.7770   31.1040   43.0550 Cl  0  0  0  0  0  0  0  0  0  0  0  0
   41.0300   29.6050   42.6050 C   0  0  0  0  0  0  0  0  0  0  0  0
   40.0600   29.5780   41.6280 C   0  0  0  0  0  0  0  0  0  0  0  0
   39.5320   28.3400   41.3460 C   0  0  0  0  0  0  0  0  0  0  0  0
   39.8970   27.1590   41.9600 C   0  0  0  0  0  0  0  0  0  0  0  0
   40.8710   27.2230   42.9310 C   0  0  0  0  0  0  0  0  0  0  0  0
   41.3100   25.7130   43.6870 Cl  0  0  0  0  0  0  0  0  0  0  0  0
   41.4270   28.4330   43.2470 C   0  0  0  0  0  0  0  0  0  0  0  0
   38.7570   28.3290   40.5640 H   0  0  0  0  0  0  0  0  0  0  0  0
   42.1900   28.4530   44.0160 H   0  0  0  0  0  0  0  0  0  0  0  0
   39.2120   25.9400   41.5140 C   0  0  0  0  0  0  0  0  0  0  0  0
   38.0550   25.4720   42.1060 C   0  0  0  0  0  0  0  0  0  0  0  0
   37.3950   24.3260   41.7010 C   0  0  0  0  0  0  0  0  0  0  0  0
   37.9040   23.5990   40.6530 C   0  0  0  0  0  0  0  0  0  0  0  0
   37.2410   22.4970   40.2890 N   0  0  0  0  0  0  0  0  0  0  0  0
   37.6650   21.7130   39.2630 C   0  0  0  0  0  0  0  0  0  0  0  0
   38.8320   22.1170   38.6080 C   0  0  0  0  0  0  0  0  0  0  0  0
   39.4960   23.2470   38.9960 C   0  0  0  0  0  0  0  0  0  0  0  0
   39.0450   24.0280   40.0400 C   0  0  0  0  0  0  0  0  0  0  0  0
   39.6990   25.1800   40.4560 C   0  0  0  0  0  0  0  0  0  0  0  0
   37.6790   26.0740   42.9360 H   0  0  0  0  0  0  0  0  0  0  0  0
   36.4970   24.0740   42.2550 H   0  0  0  0  0  0  0  0  0  0  0  0
   37.0620   20.8390   39.0390 H   0  0  0  0  0  0  0  0  0  0  0  0
   39.1570   21.4780   37.7920 H   0  0  0  0  0  0  0  0  0  0  0  0
   40.3970   23.5400   38.4750 H   0  0  0  0  0  0  0  0  0  0  0  0
   40.5960   25.4910   39.9540 H   0  0  0  0  0  0  0  0  0  0  0  0
   37.9270   32.3020   40.4980 C   0  0  0  0  0  0  0  0  0  0  0  0
   38.7510   33.0420   39.6480 C   0  0  0  0  0  0  0  0  0  0  0  0
   40.0750   32.5860   39.4630 C   0  0  0  0  0  0  0  0  0  0  0  0
   40.4550   31.4690   40.1180 N   0  0  0  0  0  0  0  0  0  0  0  0
   39.6200   30.7790   40.9360 C   0  0  0  0  0  0  0  0  0  0  0  0
   38.3510   31.1950   41.1300 N   0  0  0  0  0  0  0  0  0  0  0  0
   36.9280   32.7110   40.5910 H   0  0  0  0  0  0  0  0  0  0  0  0
   38.4630   33.9300   39.1230 H   0  0  0  0  0  0  0  0  0  0  0  0
   41.0190   33.2830   38.5970 C   0  0  0  0  0  0  0  0  0  0  0  0
   41.7200   34.4100   38.9810 C   0  0  0  0  0  0  0  0  0  0  0  0
   41.7350   34.9820   39.9080 H   0  0  0  0  0  0  0  0  0  0  0  0
   42.5010   34.7550   37.8780 C   0  0  0  0  0  0  0  0  0  0  0  0
   43.1960   35.5970   37.7950 H   0  0  0  0  0  0  0  0  0  0  0  0
   42.2600   33.8570   36.8890 N   0  0  0  0  0  0  0  0  0  0  0  0
   42.7030   33.8580   35.9350 H   0  0  0  0  0  0  0  0  0  0  0  0
   41.3680   32.9780   37.3340 N   0  0  0  0  0  0  0  0  0  0  0  0
  2  1  1  0  0  0  0
  2  8  1  0  0  0  0
  3  2  2  0  0  0  0
  4  3  1  0  0  0  0
  4  5  2  0  0  0  0
  5  6  1  0  0  0  0
  6  8  2  0  0  0  0
  6  7  1  0  0  0  0
  8 10  1  0  0  0  0
  9  4  1  0  0  0  0
 11  5  1  0  0  0  0
 11 12  1  0  0  0  0
 12 21  1  0  0  0  0
 13 12  2  0  0  0  0
 13 22  1  0  0  0  0
 14 13  1  0  0  0  0
 15 14  1  0  0  0  0
 16 15  2  0  0  0  0
 17 18  2  0  0  0  0
 17 16  1  0  0  0  0
 18 19  1  0  0  0  0
 19 20  1  0  0  0  0
 19 14  2  0  0  0  0
 20 11  2  0  0  0  0
 23 16  1  0  0  0  0
 24 17  1  0  0  0  0
 25 18  1  0  0  0  0
 26 20  1  0  0  0  0
 27 33  1  0  0  0  0
 27 32  1  0  0  0  0
 28 27  2  0  0  0  0
 29 28  1  0  0  0  0
 29 30  2  0  0  0  0
 30 31  1  0  0  0  0
 31 32  2  0  0  0  0
 31  3  1  0  0  0  0
 34 28  1  0  0  0  0
 35 36  1  0  0  0  0
 35 29  1  0  0  0  0
 36 37  1  0  0  0  0
 38 36  2  0  0  0  0
 39 38  1  0  0  0  0
 40 42  1  0  0  0  0
 40 38  1  0  0  0  0
 41 40  1  0  0  0  0
 42 35  2  0  0  0  0
M  END
>  <minimizedAffinity>
-6.6386857

$$$$
