
 OpenBabel03252508173D

 46 50  0  0  1  0  0  0  0  0999 V2000
   47.0480   31.0440   46.8710 C   0  0  0  0  0  0  0  0  0  0  0  0
   47.9910   30.5510   46.7670 H   0  0  0  0  0  0  0  0  0  0  0  0
   46.2710   30.2760   46.5710 H   0  0  0  0  0  0  0  0  0  0  0  0
   46.6160   31.5140   48.2170 C   0  0  1  0  0  0  0  0  0  0  0  0
   46.3610   30.4060   49.1830 C   0  0  0  0  0  0  0  0  0  0  0  0
   47.4860   31.3120   49.3870 C   0  0  1  0  0  0  0  0  0  0  0  0
   45.7350   32.2130   48.2020 H   0  0  0  0  0  0  0  0  0  0  0  0
   45.4940   30.4250   49.8730 H   0  0  0  0  0  0  0  0  0  0  0  0
   46.6100   29.3510   48.9010 H   0  0  0  0  0  0  0  0  0  0  0  0
   47.3570   32.0340   50.2220 H   0  0  0  0  0  0  0  0  0  0  0  0
   48.9050   30.9130   49.1530 C   0  0  2  0  0  0  0  0  0  0  0  0
   49.5560   30.1510   50.3320 C   0  0  0  0  0  0  0  0  0  0  0  0
   49.9640   31.5410   50.0460 C   0  0  1  0  0  0  0  0  0  0  0  0
   49.3090   30.5720   48.2040 H   0  0  0  0  0  0  0  0  0  0  0  0
   50.2760   29.3620   50.1360 H   0  0  0  0  0  0  0  0  0  0  0  0
   48.8980   29.9190   51.2020 H   0  0  0  0  0  0  0  0  0  0  0  0
   49.6110   32.2830   50.8100 H   0  0  0  0  0  0  0  0  0  0  0  0
   51.3280   31.7710   49.5580 C   0  0  0  0  0  0  0  0  0  0  0  0
   51.9860   30.8500   48.7360 C   0  0  0  0  0  0  0  0  0  0  0  0
   51.6440   29.8800   48.3390 H   0  0  0  0  0  0  0  0  0  0  0  0
   53.2510   31.3600   48.4520 C   0  0  0  0  0  0  0  0  0  0  0  0
   53.9920   30.8480   47.8250 H   0  0  0  0  0  0  0  0  0  0  0  0
   53.3370   32.5460   49.0880 N   0  0  0  0  0  0  0  0  0  0  0  0
   54.2060   33.1200   49.0220 H   0  0  0  0  0  0  0  0  0  0  0  0
   52.1890   32.7600   49.7310 N   0  0  0  0  0  0  0  0  0  0  0  0
   46.0130   33.0290   46.1410 C   0  0  0  0  0  0  0  0  0  0  0  0
   46.8350   32.1200   45.8300 C   0  0  0  0  0  0  0  0  0  0  0  0
   44.5770   35.9600   44.4260 C   0  0  0  0  0  0  0  0  0  0  0  0
   45.2100   35.9430   43.1940 C   0  0  0  0  0  0  0  0  0  0  0  0
   46.0970   34.9370   42.9900 C   0  0  0  0  0  0  0  0  0  0  0  0
   46.3290   34.0130   43.9630 N   0  0  0  0  0  0  0  0  0  0  0  0
   45.6980   34.0600   45.1480 C   0  0  0  0  0  0  0  0  0  0  0  0
   44.8310   35.0410   45.3510 N   0  0  0  0  0  0  0  0  0  0  0  0
   43.8590   36.7620   44.6110 H   0  0  0  0  0  0  0  0  0  0  0  0
   45.0220   36.6750   42.4280 H   0  0  0  0  0  0  0  0  0  0  0  0
   46.8390   34.7870   41.7410 C   0  0  0  0  0  0  0  0  0  0  0  0
   48.0480   35.3610   41.4760 C   0  0  0  0  0  0  0  0  0  0  0  0
   48.7400   35.2110   40.2930 C   0  0  0  0  0  0  0  0  0  0  0  0
   48.2040   34.4350   39.2850 C   0  0  0  0  0  0  0  0  0  0  0  0
   46.9920   33.8320   39.4910 C   0  0  0  0  0  0  0  0  0  0  0  0
   46.3410   34.0150   40.6970 C   0  0  0  0  0  0  0  0  0  0  0  0
   48.5050   35.9830   42.2470 H   0  0  0  0  0  0  0  0  0  0  0  0
   49.6900   35.6840   40.1310 H   0  0  0  0  0  0  0  0  0  0  0  0
   48.7050   34.2870   38.3430 H   0  0  0  0  0  0  0  0  0  0  0  0
   46.5350   33.2090   38.7140 H   0  0  0  0  0  0  0  0  0  0  0  0
   45.3860   33.5130   40.8000 H   0  0  0  0  0  0  0  0  0  0  0  0
  1  4  1  0  0  0  0
  2  1  1  0  0  0  0
  3  1  1  0  0  0  0
  4  7  1  1  0  0  0
  4  5  1  0  0  0  0
  4  6  1  0  0  0  0
  5  6  1  0  0  0  0
  5  8  1  0  0  0  0
  6 10  1  1  0  0  0
  9  5  1  0  0  0  0
 11 14  1  6  0  0  0
 11  6  1  0  0  0  0
 11 13  1  0  0  0  0
 11 12  1  0  0  0  0
 12 16  1  0  0  0  0
 13 12  1  0  0  0  0
 13 17  1  1  0  0  0
 15 12  1  0  0  0  0
 18 25  2  0  0  0  0
 18 13  1  0  0  0  0
 19 18  1  0  0  0  0
 20 19  1  0  0  0  0
 21 19  2  0  0  0  0
 21 23  1  0  0  0  0
 22 21  1  0  0  0  0
 23 25  1  0  0  0  0
 24 23  1  0  0  0  0
 27 26  2  0  0  0  0
 27  1  1  0  0  0  0
 28 34  1  0  0  0  0
 28 33  1  0  0  0  0
 29 28  2  0  0  0  0
 30 29  1  0  0  0  0
 30 31  2  0  0  0  0
 31 32  1  0  0  0  0
 32 33  2  0  0  0  0
 32 26  1  0  0  0  0
 35 29  1  0  0  0  0
 36 30  1  0  0  0  0
 37 36  1  0  0  0  0
 37 42  1  0  0  0  0
 38 37  2  0  0  0  0
 39 40  2  0  0  0  0
 39 38  1  0  0  0  0
 40 41  1  0  0  0  0
 41 46  1  0  0  0  0
 41 36  2  0  0  0  0
 43 38  1  0  0  0  0
 44 39  1  0  0  0  0
 45 40  1  0  0  0  0
M  END
>  <minimizedAffinity>
-6.69538021

>  <minimizedRMSD>
0.904375792

$$$$
