
 OpenBabel03252509273D

 29 31  0  0  1  0  0  0  0  0999 V2000
   37.1910   26.7010   42.3000 C   0  0  1  0  0  0  0  0  0  0  0  0
   36.4020   27.4430   43.4090 C   0  0  0  0  0  0  0  0  0  0  0  0
   36.8890   28.0520   42.0570 C   0  0  2  0  0  0  0  0  0  0  0  0
   36.6050   25.8570   41.9140 H   0  0  0  0  0  0  0  0  0  0  0  0
   35.3060   27.3200   43.4250 H   0  0  0  0  0  0  0  0  0  0  0  0
   36.9380   27.8040   44.2910 H   0  0  0  0  0  0  0  0  0  0  0  0
   37.7220   28.8100   42.1650 H   0  0  0  0  0  0  0  0  0  0  0  0
   40.3020   24.7740   43.0970 C   0  0  0  0  0  0  0  0  0  0  0  0
   38.9680   25.0310   42.6770 C   0  0  0  0  0  0  0  0  0  0  0  0
   38.5720   26.3360   42.7760 C   0  0  0  0  0  0  0  0  0  0  0  0
   39.4070   27.3110   43.2480 N   0  0  0  0  0  0  0  0  0  0  0  0
   40.6650   27.0160   43.6360 C   0  0  0  0  0  0  0  0  0  0  0  0
   41.1130   25.7410   43.5590 N   0  0  0  0  0  0  0  0  0  0  0  0
   40.6830   23.7620   43.0440 H   0  0  0  0  0  0  0  0  0  0  0  0
   41.2860   27.8220   44.0030 H   0  0  0  0  0  0  0  0  0  0  0  0
   38.1200   24.0020   42.2210 N   0  0  0  0  0  0  0  0  0  0  0  0
   38.2260   23.2880   41.4490 H   0  0  0  0  0  0  0  0  0  0  0  0
   37.2460   24.0140   42.8070 H   0  0  0  0  0  0  0  0  0  0  0  0
   35.8440   28.4680   41.0460 C   0  0  0  0  0  0  0  0  0  0  0  0
   34.8750   28.5370   41.5600 H   0  0  0  0  0  0  0  0  0  0  0  0
   35.7570   27.7410   40.2120 H   0  0  0  0  0  0  0  0  0  0  0  0
   36.2330   29.8150   40.5800 C   0  0  0  0  0  0  0  0  0  0  0  0
   36.6900   30.2120   39.3300 C   0  0  0  0  0  0  0  0  0  0  0  0
   36.8330   29.5570   38.4770 H   0  0  0  0  0  0  0  0  0  0  0  0
   36.9370   31.5800   39.3420 C   0  0  0  0  0  0  0  0  0  0  0  0
   37.2990   32.2000   38.5330 H   0  0  0  0  0  0  0  0  0  0  0  0
   36.6180   31.9640   40.6100 N   0  0  0  0  0  0  0  0  0  0  0  0
   36.7140   32.9630   40.8880 H   0  0  0  0  0  0  0  0  0  0  0  0
   36.2100   30.9470   41.3290 N   0  0  0  0  0  0  0  0  0  0  0  0
  1  4  1  6  0  0  0
  1 10  1  0  0  0  0
  1  2  1  0  0  0  0
  2  5  1  0  0  0  0
  2  6  1  0  0  0  0
  3  7  1  1  0  0  0
  3  1  1  0  0  0  0
  3  2  1  0  0  0  0
  8 13  1  0  0  0  0
  9 10  1  0  0  0  0
  9  8  2  0  0  0  0
 10 11  2  0  0  0  0
 11 12  1  0  0  0  0
 12 15  1  0  0  0  0
 13 12  2  0  0  0  0
 14  8  1  0  0  0  0
 16  9  1  0  0  0  0
 16 18  1  0  0  0  0
 17 16  1  0  0  0  0
 19 20  1  0  0  0  0
 19  3  1  0  0  0  0
 21 19  1  0  0  0  0
 22 19  1  0  0  0  0
 22 29  2  0  0  0  0
 23 25  2  0  0  0  0
 23 22  1  0  0  0  0
 24 23  1  0  0  0  0
 25 27  1  0  0  0  0
 26 25  1  0  0  0  0
 27 28  1  0  0  0  0
 27 29  1  0  0  0  0
M  END
>  <minimizedAffinity>
-5.26738834

$$$$

 OpenBabel03252509273D

 29 31  0  0  1  0  0  0  0  0999 V2000
   38.7500   29.1770   42.9470 C   0  0  1  0  0  0  0  0  0  0  0  0
   37.5060   28.6130   43.6790 C   0  0  0  0  0  0  0  0  0  0  0  0
   38.3640   27.8680   42.6090 C   0  0  2  0  0  0  0  0  0  0  0  0
   39.5390   29.4210   43.6690 H   0  0  0  0  0  0  0  0  0  0  0  0
   37.6550   28.1860   44.6860 H   0  0  0  0  0  0  0  0  0  0  0  0
   36.5090   28.9100   43.3390 H   0  0  0  0  0  0  0  0  0  0  0  0
   37.8340   27.7090   41.6220 H   0  0  0  0  0  0  0  0  0  0  0  0
   38.8570   32.3270   40.9250 C   0  0  0  0  0  0  0  0  0  0  0  0
   39.2680   31.3210   41.8410 C   0  0  0  0  0  0  0  0  0  0  0  0
   38.3680   30.3100   42.0320 C   0  0  0  0  0  0  0  0  0  0  0  0
   37.1620   30.2830   41.3860 N   0  0  0  0  0  0  0  0  0  0  0  0
   36.8170   31.2630   40.5260 C   0  0  0  0  0  0  0  0  0  0  0  0
   37.6700   32.2890   40.2950 N   0  0  0  0  0  0  0  0  0  0  0  0
   39.5220   33.1570   40.7230 H   0  0  0  0  0  0  0  0  0  0  0  0
   35.8530   31.1970   40.0400 H   0  0  0  0  0  0  0  0  0  0  0  0
   40.5040   31.3880   42.5140 N   0  0  0  0  0  0  0  0  0  0  0  0
   41.4970   31.4750   42.1640 H   0  0  0  0  0  0  0  0  0  0  0  0
   40.3160   31.3350   43.5490 H   0  0  0  0  0  0  0  0  0  0  0  0
   39.1610   26.6610   43.0490 C   0  0  0  0  0  0  0  0  0  0  0  0
   39.0780   26.5730   44.1420 H   0  0  0  0  0  0  0  0  0  0  0  0
   40.2320   26.7450   42.7750 H   0  0  0  0  0  0  0  0  0  0  0  0
   38.5110   25.4880   42.4270 C   0  0  0  0  0  0  0  0  0  0  0  0
   37.2110   25.3550   41.9560 C   0  0  0  0  0  0  0  0  0  0  0  0
   36.4530   26.1300   41.9780 H   0  0  0  0  0  0  0  0  0  0  0  0
   37.0330   24.0720   41.4510 C   0  0  0  0  0  0  0  0  0  0  0  0
   36.1410   23.6460   41.0110 H   0  0  0  0  0  0  0  0  0  0  0  0
   38.2420   23.4710   41.6370 N   0  0  0  0  0  0  0  0  0  0  0  0
   38.3800   22.4830   41.3370 H   0  0  0  0  0  0  0  0  0  0  0  0
   39.1000   24.2860   42.2010 N   0  0  0  0  0  0  0  0  0  0  0  0
  1  4  1  1  0  0  0
  1  2  1  0  0  0  0
  2  5  1  0  0  0  0
  3  7  1  6  0  0  0
  3  1  1  0  0  0  0
  3 19  1  0  0  0  0
  3  2  1  0  0  0  0
  6  2  1  0  0  0  0
  8  9  1  0  0  0  0
  9 10  2  0  0  0  0
  9 16  1  0  0  0  0
 10  1  1  0  0  0  0
 11 10  1  0  0  0  0
 12 11  2  0  0  0  0
 13 12  1  0  0  0  0
 13  8  2  0  0  0  0
 14  8  1  0  0  0  0
 15 12  1  0  0  0  0
 16 18  1  0  0  0  0
 17 16  1  0  0  0  0
 19 20  1  0  0  0  0
 21 19  1  0  0  0  0
 22 19  1  0  0  0  0
 23 24  1  0  0  0  0
 23 22  1  0  0  0  0
 25 27  1  0  0  0  0
 25 23  2  0  0  0  0
 26 25  1  0  0  0  0
 27 29  1  0  0  0  0
 28 27  1  0  0  0  0
 29 22  2  0  0  0  0
M  END
>  <minimizedAffinity>
-4.88039494

$$$$

 OpenBabel03252509273D

 29 31  0  0  1  0  0  0  0  0999 V2000
   37.5160   32.1310   39.7130 C   0  0  1  0  0  0  0  0  0  0  0  0
   37.0290   31.0520   38.7120 C   0  0  0  0  0  0  0  0  0  0  0  0
   37.4080   30.8200   40.2090 C   0  0  2  0  0  0  0  0  0  0  0  0
   36.7490   32.9050   39.8420 H   0  0  0  0  0  0  0  0  0  0  0  0
   35.9410   30.9580   38.5520 H   0  0  0  0  0  0  0  0  0  0  0  0
   37.7400   30.6370   37.9920 H   0  0  0  0  0  0  0  0  0  0  0  0
   38.3610   30.2290   40.3570 H   0  0  0  0  0  0  0  0  0  0  0  0
   40.7560   34.0080   39.7110 C   0  0  0  0  0  0  0  0  0  0  0  0
   39.4560   33.6010   40.1160 C   0  0  0  0  0  0  0  0  0  0  0  0
   38.8720   32.6550   39.3220 C   0  0  0  0  0  0  0  0  0  0  0  0
   39.5030   32.1480   38.2180 N   0  0  0  0  0  0  0  0  0  0  0  0
   40.7370   32.5670   37.8740 C   0  0  0  0  0  0  0  0  0  0  0  0
   41.3660   33.5010   38.6250 N   0  0  0  0  0  0  0  0  0  0  0  0
   41.2800   34.7530   40.2970 H   0  0  0  0  0  0  0  0  0  0  0  0
   41.1930   32.1360   36.9930 H   0  0  0  0  0  0  0  0  0  0  0  0
   38.8180   34.1610   41.2410 N   0  0  0  0  0  0  0  0  0  0  0  0
   39.1090   34.2400   42.2540 H   0  0  0  0  0  0  0  0  0  0  0  0
   37.8900   34.5500   40.9320 H   0  0  0  0  0  0  0  0  0  0  0  0
   36.3110   30.4160   41.1670 C   0  0  0  0  0  0  0  0  0  0  0  0
   35.4530   30.0580   40.5780 H   0  0  0  0  0  0  0  0  0  0  0  0
   35.9810   31.2600   41.8050 H   0  0  0  0  0  0  0  0  0  0  0  0
   36.8480   29.2890   41.9580 C   0  0  0  0  0  0  0  0  0  0  0  0
   37.9000   29.2790   42.8650 C   0  0  0  0  0  0  0  0  0  0  0  0
   38.5050   30.1380   43.1350 H   0  0  0  0  0  0  0  0  0  0  0  0
   38.0570   27.9950   43.3750 C   0  0  0  0  0  0  0  0  0  0  0  0
   38.7820   27.6480   44.0980 H   0  0  0  0  0  0  0  0  0  0  0  0
   37.0860   27.2690   42.7510 N   0  0  0  0  0  0  0  0  0  0  0  0
   36.9840   26.2540   42.9610 H   0  0  0  0  0  0  0  0  0  0  0  0
   36.3850   28.0140   41.9320 N   0  0  0  0  0  0  0  0  0  0  0  0
  1  4  1  1  0  0  0
  1  3  1  0  0  0  0
  2  1  1  0  0  0  0
  2  3  1  0  0  0  0
  3  7  1  1  0  0  0
  3 19  1  0  0  0  0
  5  2  1  0  0  0  0
  6  2  1  0  0  0  0
  8  9  1  0  0  0  0
  8 14  1  0  0  0  0
  9 16  1  0  0  0  0
 10  1  1  0  0  0  0
 10  9  2  0  0  0  0
 11 10  1  0  0  0  0
 12 11  2  0  0  0  0
 12 13  1  0  0  0  0
 13  8  2  0  0  0  0
 15 12  1  0  0  0  0
 16 17  1  0  0  0  0
 18 16  1  0  0  0  0
 19 21  1  0  0  0  0
 19 22  1  0  0  0  0
 20 19  1  0  0  0  0
 22 23  1  0  0  0  0
 23 24  1  0  0  0  0
 23 25  2  0  0  0  0
 25 26  1  0  0  0  0
 27 28  1  0  0  0  0
 27 25  1  0  0  0  0
 29 22  2  0  0  0  0
 29 27  1  0  0  0  0
M  END
>  <minimizedAffinity>
-4.87245607

$$$$

 OpenBabel03252509273D

 29 31  0  0  1  0  0  0  0  0999 V2000
   37.9800   30.7260   39.0210 C   0  0  1  0  0  0  0  0  0  0  0  0
   38.7910   29.6690   38.2300 C   0  0  0  0  0  0  0  0  0  0  0  0
   38.3160   29.5480   39.7120 C   0  0  2  0  0  0  0  0  0  0  0  0
   37.0100   30.9020   38.5370 H   0  0  0  0  0  0  0  0  0  0  0  0
   38.2320   28.9840   37.5700 H   0  0  0  0  0  0  0  0  0  0  0  0
   39.8690   29.8100   38.1060 H   0  0  0  0  0  0  0  0  0  0  0  0
   39.1530   29.5990   40.4710 H   0  0  0  0  0  0  0  0  0  0  0  0
   39.0600   34.1360   40.1280 C   0  0  0  0  0  0  0  0  0  0  0  0
   38.2100   33.0200   39.9000 C   0  0  0  0  0  0  0  0  0  0  0  0
   38.7970   31.9680   39.2530 C   0  0  0  0  0  0  0  0  0  0  0  0
   40.1070   32.0020   38.8580 N   0  0  0  0  0  0  0  0  0  0  0  0
   40.8730   33.0860   39.0970 C   0  0  0  0  0  0  0  0  0  0  0  0
   40.3460   34.1570   39.7350 N   0  0  0  0  0  0  0  0  0  0  0  0
   38.6620   35.0040   40.6380 H   0  0  0  0  0  0  0  0  0  0  0  0
   41.9020   33.0650   38.7640 H   0  0  0  0  0  0  0  0  0  0  0  0
   36.8570   33.0220   40.2930 N   0  0  0  0  0  0  0  0  0  0  0  0
   36.3910   33.1860   41.2270 H   0  0  0  0  0  0  0  0  0  0  0  0
   36.2690   32.8160   39.4440 H   0  0  0  0  0  0  0  0  0  0  0  0
   37.2840   28.4950   40.0460 C   0  0  0  0  0  0  0  0  0  0  0  0
   37.6540   27.5240   39.6880 H   0  0  0  0  0  0  0  0  0  0  0  0
   36.3040   28.7040   39.5700 H   0  0  0  0  0  0  0  0  0  0  0  0
   37.1960   28.4570   41.5210 C   0  0  0  0  0  0  0  0  0  0  0  0
   36.9890   27.3670   42.3570 C   0  0  0  0  0  0  0  0  0  0  0  0
   36.8560   26.3410   42.0310 H   0  0  0  0  0  0  0  0  0  0  0  0
   36.9780   27.7970   43.6800 C   0  0  0  0  0  0  0  0  0  0  0  0
   36.8400   27.2030   44.5730 H   0  0  0  0  0  0  0  0  0  0  0  0
   37.1800   29.1420   43.5930 N   0  0  0  0  0  0  0  0  0  0  0  0
   37.2170   29.7160   44.4610 H   0  0  0  0  0  0  0  0  0  0  0  0
   37.3070   29.5280   42.3470 N   0  0  0  0  0  0  0  0  0  0  0  0
  1  4  1  6  0  0  0
  1 10  1  0  0  0  0
  1  3  1  0  0  0  0
  2  1  1  0  0  0  0
  2  3  1  0  0  0  0
  3 19  1  0  0  0  0
  3  7  1  1  0  0  0
  5  2  1  0  0  0  0
  6  2  1  0  0  0  0
  8 14  1  0  0  0  0
  9  8  1  0  0  0  0
  9 16  1  0  0  0  0
 10  9  2  0  0  0  0
 11 12  2  0  0  0  0
 11 10  1  0  0  0  0
 12 13  1  0  0  0  0
 13  8  2  0  0  0  0
 15 12  1  0  0  0  0
 16 17  1  0  0  0  0
 18 16  1  0  0  0  0
 19 22  1  0  0  0  0
 20 19  1  0  0  0  0
 21 19  1  0  0  0  0
 22 29  2  0  0  0  0
 22 23  1  0  0  0  0
 23 25  2  0  0  0  0
 24 23  1  0  0  0  0
 25 26  1  0  0  0  0
 27 25  1  0  0  0  0
 27 28  1  0  0  0  0
 29 27  1  0  0  0  0
M  END
>  <minimizedAffinity>
-4.8586154

$$$$

 OpenBabel03252509273D

 29 31  0  0  1  0  0  0  0  0999 V2000
   39.4160   30.4380   42.5870 C   0  0  1  0  0  0  0  0  0  0  0  0
   40.9510   30.2280   42.6410 C   0  0  0  0  0  0  0  0  0  0  0  0
   40.1240   30.6820   41.3970 C   0  0  2  0  0  0  0  0  0  0  0  0
   39.1130   31.2190   43.2960 H   0  0  0  0  0  0  0  0  0  0  0  0
   41.5660   31.0530   43.0400 H   0  0  0  0  0  0  0  0  0  0  0  0
   41.3500   29.2120   42.5770 H   0  0  0  0  0  0  0  0  0  0  0  0
   40.0630   29.9070   40.5750 H   0  0  0  0  0  0  0  0  0  0  0  0
   36.7480   27.8110   42.5830 C   0  0  0  0  0  0  0  0  0  0  0  0
   37.3530   29.0910   42.4550 C   0  0  0  0  0  0  0  0  0  0  0  0
   38.6880   29.1310   42.7490 C   0  0  0  0  0  0  0  0  0  0  0  0
   39.3770   28.0140   43.1380 N   0  0  0  0  0  0  0  0  0  0  0  0
   38.7560   26.8220   43.2450 C   0  0  0  0  0  0  0  0  0  0  0  0
   37.4350   26.7210   42.9650 N   0  0  0  0  0  0  0  0  0  0  0  0
   35.6930   27.7050   42.3630 H   0  0  0  0  0  0  0  0  0  0  0  0
   39.3440   25.9690   43.5570 H   0  0  0  0  0  0  0  0  0  0  0  0
   36.6140   30.2300   42.0800 N   0  0  0  0  0  0  0  0  0  0  0  0
   36.0060   30.4340   41.2400 H   0  0  0  0  0  0  0  0  0  0  0  0
   36.7430   30.9640   42.8230 H   0  0  0  0  0  0  0  0  0  0  0  0
   40.3420   32.0820   40.8690 C   0  0  0  0  0  0  0  0  0  0  0  0
   41.0910   32.0340   40.0650 H   0  0  0  0  0  0  0  0  0  0  0  0
   40.7040   32.7740   41.6560 H   0  0  0  0  0  0  0  0  0  0  0  0
   39.0510   32.5110   40.2930 C   0  0  0  0  0  0  0  0  0  0  0  0
   38.3030   31.9200   39.2820 C   0  0  0  0  0  0  0  0  0  0  0  0
   38.5740   31.0170   38.7470 H   0  0  0  0  0  0  0  0  0  0  0  0
   37.1520   32.6690   39.0620 C   0  0  0  0  0  0  0  0  0  0  0  0
   36.3620   32.4830   38.3480 H   0  0  0  0  0  0  0  0  0  0  0  0
   37.2470   33.6940   39.9560 N   0  0  0  0  0  0  0  0  0  0  0  0
   36.4950   34.4130   39.9990 H   0  0  0  0  0  0  0  0  0  0  0  0
   38.3430   33.6060   40.6700 N   0  0  0  0  0  0  0  0  0  0  0  0
  1  2  1  0  0  0  0
  1 10  1  0  0  0  0
  1  4  1  1  0  0  0
  2  5  1  0  0  0  0
  3  7  1  6  0  0  0
  3  1  1  0  0  0  0
  3  2  1  0  0  0  0
  6  2  1  0  0  0  0
  8 13  1  0  0  0  0
  9  8  2  0  0  0  0
  9 10  1  0  0  0  0
 10 11  2  0  0  0  0
 11 12  1  0  0  0  0
 12 15  1  0  0  0  0
 13 12  2  0  0  0  0
 14  8  1  0  0  0  0
 16  9  1  0  0  0  0
 16 18  1  0  0  0  0
 17 16  1  0  0  0  0
 19  3  1  0  0  0  0
 19 21  1  0  0  0  0
 20 19  1  0  0  0  0
 22 29  2  0  0  0  0
 22 19  1  0  0  0  0
 23 22  1  0  0  0  0
 24 23  1  0  0  0  0
 25 23  2  0  0  0  0
 25 27  1  0  0  0  0
 26 25  1  0  0  0  0
 27 28  1  0  0  0  0
 27 29  1  0  0  0  0
M  END
>  <minimizedAffinity>
-4.78395224

$$$$

 OpenBabel03252509273D

 29 31  0  0  1  0  0  0  0  0999 V2000
   36.6420   29.7060   40.9890 C   0  0  1  0  0  0  0  0  0  0  0  0
   35.3030   29.0020   40.6520 C   0  0  0  0  0  0  0  0  0  0  0  0
   36.5990   28.3140   41.1860 C   0  0  2  0  0  0  0  0  0  0  0  0
   36.4940   30.4470   41.7850 H   0  0  0  0  0  0  0  0  0  0  0  0
   34.5100   29.0180   41.4190 H   0  0  0  0  0  0  0  0  0  0  0  0
   35.0670   28.7810   39.6070 H   0  0  0  0  0  0  0  0  0  0  0  0
   37.1180   27.6550   40.4270 H   0  0  0  0  0  0  0  0  0  0  0  0
   38.0000   32.0390   38.3940 C   0  0  0  0  0  0  0  0  0  0  0  0
   37.3240   31.6030   39.5660 C   0  0  0  0  0  0  0  0  0  0  0  0
   37.2930   30.2480   39.7440 C   0  0  0  0  0  0  0  0  0  0  0  0
   37.8700   29.3870   38.8500 N   0  0  0  0  0  0  0  0  0  0  0  0
   38.5000   29.8510   37.7520 C   0  0  0  0  0  0  0  0  0  0  0  0
   38.5650   31.1840   37.5240 N   0  0  0  0  0  0  0  0  0  0  0  0
   38.0660   33.1010   38.1910 H   0  0  0  0  0  0  0  0  0  0  0  0
   38.9400   29.1310   37.0760 H   0  0  0  0  0  0  0  0  0  0  0  0
   36.7140   32.5100   40.4540 N   0  0  0  0  0  0  0  0  0  0  0  0
   37.0890   33.3450   40.9820 H   0  0  0  0  0  0  0  0  0  0  0  0
   35.7020   32.2370   40.5570 H   0  0  0  0  0  0  0  0  0  0  0  0
   36.5650   27.7040   42.5680 C   0  0  0  0  0  0  0  0  0  0  0  0
   35.5240   27.4290   42.7970 H   0  0  0  0  0  0  0  0  0  0  0  0
   36.9300   28.4060   43.3450 H   0  0  0  0  0  0  0  0  0  0  0  0
   37.3780   26.4720   42.4960 C   0  0  0  0  0  0  0  0  0  0  0  0
   36.9930   25.1890   42.1290 C   0  0  0  0  0  0  0  0  0  0  0  0
   35.9930   24.8950   41.8280 H   0  0  0  0  0  0  0  0  0  0  0  0
   38.0900   24.3380   42.2060 C   0  0  0  0  0  0  0  0  0  0  0  0
   38.1300   23.2800   41.9880 H   0  0  0  0  0  0  0  0  0  0  0  0
   39.1070   25.1450   42.6220 N   0  0  0  0  0  0  0  0  0  0  0  0
   40.0590   24.7470   42.7610 H   0  0  0  0  0  0  0  0  0  0  0  0
   38.6990   26.3800   42.7900 N   0  0  0  0  0  0  0  0  0  0  0  0
  1  3  1  0  0  0  0
  1  4  1  1  0  0  0
  2  1  1  0  0  0  0
  2  3  1  0  0  0  0
  2  5  1  0  0  0  0
  3  7  1  6  0  0  0
  3 19  1  0  0  0  0
  6  2  1  0  0  0  0
  8  9  1  0  0  0  0
  9 10  2  0  0  0  0
  9 16  1  0  0  0  0
 10  1  1  0  0  0  0
 11 10  1  0  0  0  0
 12 11  2  0  0  0  0
 13 12  1  0  0  0  0
 13  8  2  0  0  0  0
 14  8  1  0  0  0  0
 15 12  1  0  0  0  0
 16 18  1  0  0  0  0
 16 17  1  0  0  0  0
 19 20  1  0  0  0  0
 19 21  1  0  0  0  0
 22 19  1  0  0  0  0
 22 29  2  0  0  0  0
 23 25  2  0  0  0  0
 23 22  1  0  0  0  0
 24 23  1  0  0  0  0
 25 27  1  0  0  0  0
 26 25  1  0  0  0  0
 27 28  1  0  0  0  0
 27 29  1  0  0  0  0
M  END
>  <minimizedAffinity>
-4.69962263

$$$$

 OpenBabel03252509273D

 29 31  0  0  1  0  0  0  0  0999 V2000
   38.5280   31.0810   41.5560 C   0  0  1  0  0  0  0  0  0  0  0  0
   39.9000   30.8400   42.2340 C   0  0  0  0  0  0  0  0  0  0  0  0
   39.6660   31.3950   40.7930 C   0  0  2  0  0  0  0  0  0  0  0  0
   37.9440   31.8150   42.1250 H   0  0  0  0  0  0  0  0  0  0  0  0
   40.2800   31.6240   42.9120 H   0  0  0  0  0  0  0  0  0  0  0  0
   40.3030   29.8240   42.2720 H   0  0  0  0  0  0  0  0  0  0  0  0
   39.9670   30.6800   39.9690 H   0  0  0  0  0  0  0  0  0  0  0  0
   35.8640   28.5390   40.8710 C   0  0  0  0  0  0  0  0  0  0  0  0
   36.4570   29.7980   41.1580 C   0  0  0  0  0  0  0  0  0  0  0  0
   37.8160   29.7780   41.3040 C   0  0  0  0  0  0  0  0  0  0  0  0
   38.5390   28.6230   41.1830 N   0  0  0  0  0  0  0  0  0  0  0  0
   37.9290   27.4510   40.9110 C   0  0  0  0  0  0  0  0  0  0  0  0
   36.5860   27.4110   40.7540 N   0  0  0  0  0  0  0  0  0  0  0  0
   34.7910   28.4810   40.7410 H   0  0  0  0  0  0  0  0  0  0  0  0
   38.5440   26.5650   40.8260 H   0  0  0  0  0  0  0  0  0  0  0  0
   35.6850   30.9680   41.3050 N   0  0  0  0  0  0  0  0  0  0  0  0
   34.9890   31.4420   40.6670 H   0  0  0  0  0  0  0  0  0  0  0  0
   35.9000   31.3860   42.2470 H   0  0  0  0  0  0  0  0  0  0  0  0
   40.0670   32.8240   40.5060 C   0  0  0  0  0  0  0  0  0  0  0  0
   40.8990   33.0890   41.1750 H   0  0  0  0  0  0  0  0  0  0  0  0
   39.2320   33.5340   40.6740 H   0  0  0  0  0  0  0  0  0  0  0  0
   40.5520   32.8440   39.1110 C   0  0  0  0  0  0  0  0  0  0  0  0
   41.7070   33.4170   38.5940 C   0  0  0  0  0  0  0  0  0  0  0  0
   42.4520   33.9560   39.1690 H   0  0  0  0  0  0  0  0  0  0  0  0
   41.7600   33.1920   37.2220 C   0  0  0  0  0  0  0  0  0  0  0  0
   42.5230   33.5040   36.5240 H   0  0  0  0  0  0  0  0  0  0  0  0
   40.6240   32.4850   36.9590 N   0  0  0  0  0  0  0  0  0  0  0  0
   40.4180   32.1830   35.9830 H   0  0  0  0  0  0  0  0  0  0  0  0
   39.9230   32.2820   38.0480 N   0  0  0  0  0  0  0  0  0  0  0  0
  1  4  1  1  0  0  0
  1  2  1  0  0  0  0
  2  6  1  0  0  0  0
  2  5  1  0  0  0  0
  3  7  1  6  0  0  0
  3  1  1  0  0  0  0
  3  2  1  0  0  0  0
  8  9  1  0  0  0  0
  9 10  2  0  0  0  0
  9 16  1  0  0  0  0
 10  1  1  0  0  0  0
 11 10  1  0  0  0  0
 12 11  2  0  0  0  0
 13  8  2  0  0  0  0
 13 12  1  0  0  0  0
 14  8  1  0  0  0  0
 15 12  1  0  0  0  0
 16 18  1  0  0  0  0
 17 16  1  0  0  0  0
 19 21  1  0  0  0  0
 19  3  1  0  0  0  0
 19 20  1  0  0  0  0
 22 19  1  0  0  0  0
 23 22  1  0  0  0  0
 23 24  1  0  0  0  0
 25 23  2  0  0  0  0
 26 25  1  0  0  0  0
 27 25  1  0  0  0  0
 27 29  1  0  0  0  0
 28 27  1  0  0  0  0
 29 22  2  0  0  0  0
M  END
>  <minimizedAffinity>
-4.6976881

$$$$

 OpenBabel03252509273D

 29 31  0  0  1  0  0  0  0  0999 V2000
   36.0200   28.7620   39.5400 C   0  0  1  0  0  0  0  0  0  0  0  0
   35.9600   27.8590   38.2820 C   0  0  0  0  0  0  0  0  0  0  0  0
   36.9000   27.6660   39.5140 C   0  0  2  0  0  0  0  0  0  0  0  0
   35.0510   28.7640   40.0550 H   0  0  0  0  0  0  0  0  0  0  0  0
   35.1760   27.0830   38.2470 H   0  0  0  0  0  0  0  0  0  0  0  0
   36.4660   28.1850   37.3690 H   0  0  0  0  0  0  0  0  0  0  0  0
   37.9920   27.8670   39.2970 H   0  0  0  0  0  0  0  0  0  0  0  0
   37.0250   32.3630   39.7580 C   0  0  0  0  0  0  0  0  0  0  0  0
   36.4610   31.1150   40.1380 C   0  0  0  0  0  0  0  0  0  0  0  0
   36.5470   30.1300   39.1950 C   0  0  0  0  0  0  0  0  0  0  0  0
   37.1320   30.3440   37.9770 N   0  0  0  0  0  0  0  0  0  0  0  0
   37.6530   31.5470   37.6630 C   0  0  0  0  0  0  0  0  0  0  0  0
   37.5990   32.5610   38.5590 N   0  0  0  0  0  0  0  0  0  0  0  0
   36.9950   33.1880   40.4590 H   0  0  0  0  0  0  0  0  0  0  0  0
   38.1050   31.6670   36.6870 H   0  0  0  0  0  0  0  0  0  0  0  0
   35.8380   30.9300   41.3890 N   0  0  0  0  0  0  0  0  0  0  0  0
   36.1790   31.0780   42.3780 H   0  0  0  0  0  0  0  0  0  0  0  0
   34.8600   30.5810   41.2190 H   0  0  0  0  0  0  0  0  0  0  0  0
   36.6890   26.4510   40.3880 C   0  0  0  0  0  0  0  0  0  0  0  0
   37.1940   25.5950   39.9170 H   0  0  0  0  0  0  0  0  0  0  0  0
   35.6140   26.2080   40.5150 H   0  0  0  0  0  0  0  0  0  0  0  0
   37.3540   26.7470   41.6740 C   0  0  0  0  0  0  0  0  0  0  0  0
   38.6120   26.3600   42.1190 C   0  0  0  0  0  0  0  0  0  0  0  0
   39.3180   25.7570   41.5570 H   0  0  0  0  0  0  0  0  0  0  0  0
   38.8260   26.8670   43.3960 C   0  0  0  0  0  0  0  0  0  0  0  0
   39.6990   26.7490   44.0230 H   0  0  0  0  0  0  0  0  0  0  0  0
   37.6790   27.5460   43.6790 N   0  0  0  0  0  0  0  0  0  0  0  0
   37.5780   28.0310   44.5960 H   0  0  0  0  0  0  0  0  0  0  0  0
   36.8260   27.4800   42.6860 N   0  0  0  0  0  0  0  0  0  0  0  0
  1  4  1  1  0  0  0
  2  3  1  0  0  0  0
  2  1  1  0  0  0  0
  3  7  1  6  0  0  0
  3  1  1  0  0  0  0
  3 19  1  0  0  0  0
  5  2  1  0  0  0  0
  6  2  1  0  0  0  0
  8  9  1  0  0  0  0
  8 14  1  0  0  0  0
  9 16  1  0  0  0  0
 10  1  1  0  0  0  0
 10  9  2  0  0  0  0
 11 10  1  0  0  0  0
 12 11  2  0  0  0  0
 12 13  1  0  0  0  0
 13  8  2  0  0  0  0
 15 12  1  0  0  0  0
 16 17  1  0  0  0  0
 18 16  1  0  0  0  0
 19 21  1  0  0  0  0
 19 22  1  0  0  0  0
 20 19  1  0  0  0  0
 22 23  1  0  0  0  0
 22 29  2  0  0  0  0
 23 25  2  0  0  0  0
 24 23  1  0  0  0  0
 25 27  1  0  0  0  0
 25 26  1  0  0  0  0
 27 28  1  0  0  0  0
 29 27  1  0  0  0  0
M  END
>  <minimizedAffinity>
-4.57634211

$$$$

 OpenBabel03252509273D

 29 31  0  0  1  0  0  0  0  0999 V2000
   37.6190   30.3270   40.0330 C   0  0  1  0  0  0  0  0  0  0  0  0
   36.3200   30.2510   39.1910 C   0  0  0  0  0  0  0  0  0  0  0  0
   36.8520   31.5030   39.9580 C   0  0  2  0  0  0  0  0  0  0  0  0
   38.4940   30.1200   39.4040 H   0  0  0  0  0  0  0  0  0  0  0  0
   36.4110   30.3780   38.0990 H   0  0  0  0  0  0  0  0  0  0  0  0
   35.4290   29.7920   39.6290 H   0  0  0  0  0  0  0  0  0  0  0  0
   36.2310   31.7900   40.8590 H   0  0  0  0  0  0  0  0  0  0  0  0
   38.1560   28.9040   43.4550 C   0  0  0  0  0  0  0  0  0  0  0  0
   38.3490   29.7270   42.3120 C   0  0  0  0  0  0  0  0  0  0  0  0
   37.5150   29.4640   41.2620 C   0  0  0  0  0  0  0  0  0  0  0  0
   36.5690   28.4770   41.3200 N   0  0  0  0  0  0  0  0  0  0  0  0
   36.4250   27.7210   42.4280 C   0  0  0  0  0  0  0  0  0  0  0  0
   37.2230   27.9370   43.4990 N   0  0  0  0  0  0  0  0  0  0  0  0
   38.7810   29.0590   44.3260 H   0  0  0  0  0  0  0  0  0  0  0  0
   35.6640   26.9530   42.4230 H   0  0  0  0  0  0  0  0  0  0  0  0
   39.3500   30.7180   42.2700 N   0  0  0  0  0  0  0  0  0  0  0  0
   39.5580   31.5420   42.8990 H   0  0  0  0  0  0  0  0  0  0  0  0
   39.9600   30.5330   41.4320 H   0  0  0  0  0  0  0  0  0  0  0  0
   37.2990   32.6980   39.1470 C   0  0  0  0  0  0  0  0  0  0  0  0
   36.5800   33.5150   39.3130 H   0  0  0  0  0  0  0  0  0  0  0  0
   37.3440   32.4740   38.0620 H   0  0  0  0  0  0  0  0  0  0  0  0
   38.6110   33.1010   39.6950 C   0  0  0  0  0  0  0  0  0  0  0  0
   39.8700   33.0000   39.1150 C   0  0  0  0  0  0  0  0  0  0  0  0
   40.0770   32.5930   38.1310 H   0  0  0  0  0  0  0  0  0  0  0  0
   40.8230   33.5040   39.9930 C   0  0  0  0  0  0  0  0  0  0  0  0
   41.8930   33.5710   39.8490 H   0  0  0  0  0  0  0  0  0  0  0  0
   40.1000   33.8930   41.0810 N   0  0  0  0  0  0  0  0  0  0  0  0
   40.5850   34.3140   41.9010 H   0  0  0  0  0  0  0  0  0  0  0  0
   38.8210   33.6620   40.9120 N   0  0  0  0  0  0  0  0  0  0  0  0
  1  4  1  6  0  0  0
  1 10  1  0  0  0  0
  2  6  1  0  0  0  0
  2  3  1  0  0  0  0
  2  1  1  0  0  0  0
  3  1  1  0  0  0  0
  3  7  1  1  0  0  0
  5  2  1  0  0  0  0
  8 13  1  0  0  0  0
  8 14  1  0  0  0  0
  9  8  2  0  0  0  0
 10 11  2  0  0  0  0
 10  9  1  0  0  0  0
 11 12  1  0  0  0  0
 12 13  2  0  0  0  0
 15 12  1  0  0  0  0
 16  9  1  0  0  0  0
 16 17  1  0  0  0  0
 18 16  1  0  0  0  0
 19 20  1  0  0  0  0
 19 22  1  0  0  0  0
 19  3  1  0  0  0  0
 21 19  1  0  0  0  0
 22 29  2  0  0  0  0
 23 22  1  0  0  0  0
 23 25  2  0  0  0  0
 24 23  1  0  0  0  0
 25 27  1  0  0  0  0
 26 25  1  0  0  0  0
 27 28  1  0  0  0  0
 29 27  1  0  0  0  0
M  END
>  <minimizedAffinity>
-4.49574471

$$$$
