
 OpenBabel03252503493D

 20 21  0  0  0  0  0  0  0  0999 V2000
   47.5360   34.9580   42.3420 C   0  0  0  0  0  0  0  0  0  0  0  0
   47.7550   33.9940   43.3360 C   0  0  0  0  0  0  0  0  0  0  0  0
   46.7000   33.6870   44.2010 C   0  0  0  0  0  0  0  0  0  0  0  0
   45.5310   34.3310   44.0410 N   0  0  0  0  0  0  0  0  0  0  0  0
   45.3370   35.2630   43.0710 C   0  0  0  0  0  0  0  0  0  0  0  0
   46.3410   35.5740   42.2240 N   0  0  0  0  0  0  0  0  0  0  0  0
   48.7230   33.4910   43.4350 H   0  0  0  0  0  0  0  0  0  0  0  0
   44.3670   35.7290   43.0140 H   0  0  0  0  0  0  0  0  0  0  0  0
   46.8820   32.6910   45.2490 C   0  0  0  0  0  0  0  0  0  0  0  0
   46.6510   32.8860   46.5870 C   0  0  0  0  0  0  0  0  0  0  0  0
   46.3070   33.7640   47.1200 H   0  0  0  0  0  0  0  0  0  0  0  0
   46.9340   31.7180   47.2680 C   0  0  0  0  0  0  0  0  0  0  0  0
   46.9030   31.3990   48.3030 H   0  0  0  0  0  0  0  0  0  0  0  0
   47.3330   30.8370   46.3040 N   0  0  0  0  0  0  0  0  0  0  0  0
   47.6400   29.8350   46.3740 H   0  0  0  0  0  0  0  0  0  0  0  0
   47.2970   31.4310   45.1070 N   0  0  0  0  0  0  0  0  0  0  0  0
   48.7000   35.2480   41.4400 C   0  0  0  0  0  0  0  0  0  0  0  0
   48.3360   35.1640   40.1160 F   0  0  0  0  0  0  0  0  0  0  0  0
   49.1700   36.5190   41.7480 F   0  0  0  0  0  0  0  0  0  0  0  0
   49.7420   34.3740   41.7170 F   0  0  0  0  0  0  0  0  0  0  0  0
  1  2  1  0  0  0  0
  2  7  1  0  0  0  0
  2  3  2  0  0  0  0
  3  9  1  0  0  0  0
  4  3  1  0  0  0  0
  5  4  2  0  0  0  0
  6  1  2  0  0  0  0
  6  5  1  0  0  0  0
  8  5  1  0  0  0  0
  9 10  1  0  0  0  0
 10 11  1  0  0  0  0
 10 12  2  0  0  0  0
 12 13  1  0  0  0  0
 14 15  1  0  0  0  0
 14 12  1  0  0  0  0
 16  9  2  0  0  0  0
 16 14  1  0  0  0  0
 17 20  1  0  0  0  0
 17 19  1  0  0  0  0
 17  1  1  0  0  0  0
 18 17  1  0  0  0  0
M  END
>  <minimizedAffinity>
-4.78841496

>  <minimizedRMSD>
0.444961637

$$$$
