
 OpenBabel03242522183D

 43 46  0  0  0  0  0  0  0  0999 V2000
   44.3370   35.2650   41.1730 C   0  0  0  0  0  0  0  0  0  0  0  0
   45.2310   34.6570   40.9270 H   0  0  0  0  0  0  0  0  0  0  0  0
   44.5890   36.3010   40.8290 H   0  0  0  0  0  0  0  0  0  0  0  0
   43.1710   34.7870   40.4720 C   0  0  0  0  0  0  0  0  0  0  0  0
   42.9580   34.6280   39.1420 C   0  0  0  0  0  0  0  0  0  0  0  0
   41.7880   34.1760   38.5530 C   0  0  0  0  0  0  0  0  0  0  0  0
   40.7420   33.8620   39.4220 C   0  0  0  0  0  0  0  0  0  0  0  0
   40.9920   34.0310   40.7580 C   0  0  0  0  0  0  0  0  0  0  0  0
   42.1230   34.4660   41.2940 N   0  0  0  0  0  0  0  0  0  0  0  0
   43.8850   34.9230   38.6060 H   0  0  0  0  0  0  0  0  0  0  0  0
   41.9010   34.1480   37.5000 H   0  0  0  0  0  0  0  0  0  0  0  0
   39.6690   33.4100   38.5650 C   0  0  0  0  0  0  0  0  0  0  0  0
   38.7560   34.0390   37.7560 C   0  0  0  0  0  0  0  0  0  0  0  0
   38.5700   35.0850   37.5610 H   0  0  0  0  0  0  0  0  0  0  0  0
   37.9760   33.1810   37.0510 C   0  0  0  0  0  0  0  0  0  0  0  0
   37.1760   33.2920   36.3380 H   0  0  0  0  0  0  0  0  0  0  0  0
   38.4180   31.9730   37.4270 N   0  0  0  0  0  0  0  0  0  0  0  0
   38.1360   30.9830   37.1620 H   0  0  0  0  0  0  0  0  0  0  0  0
   39.3920   32.0990   38.2970 N   0  0  0  0  0  0  0  0  0  0  0  0
   39.8290   33.6250   41.6060 C   0  0  0  0  0  0  0  0  0  0  0  0
   38.6350   33.8170   40.9580 F   0  0  0  0  0  0  0  0  0  0  0  0
   39.8620   34.1850   42.8550 F   0  0  0  0  0  0  0  0  0  0  0  0
   39.8740   32.2260   41.8280 F   0  0  0  0  0  0  0  0  0  0  0  0
   44.2490   35.3170   42.6800 C   0  0  0  0  0  0  0  0  0  0  0  0
   43.3190   34.7600   42.9410 H   0  0  0  0  0  0  0  0  0  0  0  0
   44.2510   36.3450   43.0850 H   0  0  0  0  0  0  0  0  0  0  0  0
   47.2840   33.4350   43.5940 C   0  0  0  0  0  0  0  0  0  0  0  0
   47.0380   33.2410   44.9020 C   0  0  0  0  0  0  0  0  0  0  0  0
   45.4020   34.0820   45.1100 S   0  0  0  0  0  0  0  0  0  0  0  0
   45.3560   34.5540   43.3180 C   0  0  0  0  0  0  0  0  0  0  0  0
   46.3500   34.0930   42.9970 N   0  0  0  0  0  0  0  0  0  0  0  0
   47.6240   32.7320   45.6630 H   0  0  0  0  0  0  0  0  0  0  0  0
   50.7180   33.1980   42.0520 C   0  0  0  0  0  0  0  0  0  0  0  0
   49.6080   33.7450   42.7170 C   0  0  0  0  0  0  0  0  0  0  0  0
   48.5060   32.9440   42.9030 C   0  0  0  0  0  0  0  0  0  0  0  0
   48.5740   31.6540   42.4180 N   0  0  0  0  0  0  0  0  0  0  0  0
   49.6730   31.1890   41.7880 C   0  0  0  0  0  0  0  0  0  0  0  0
   50.7420   31.9520   41.6010 N   0  0  0  0  0  0  0  0  0  0  0  0
   51.6000   33.8370   41.9030 H   0  0  0  0  0  0  0  0  0  0  0  0
   49.7000   30.1720   41.4170 H   0  0  0  0  0  0  0  0  0  0  0  0
   49.7020   35.0880   43.1500 N   0  0  0  0  0  0  0  0  0  0  0  0
   49.8510   36.0040   42.6690 H   0  0  0  0  0  0  0  0  0  0  0  0
   49.6190   35.3440   44.1520 H   0  0  0  0  0  0  0  0  0  0  0  0
  1 24  1  0  0  0  0
  2  1  1  0  0  0  0
  3  1  1  0  0  0  0
  4  1  1  0  0  0  0
  4  9  1  0  0  0  0
  5  4  2  0  0  0  0
  6  5  1  0  0  0  0
  6  7  2  0  0  0  0
  7  8  1  0  0  0  0
  8  9  2  0  0  0  0
  8 20  1  0  0  0  0
 10  5  1  0  0  0  0
 11  6  1  0  0  0  0
 12  7  1  0  0  0  0
 13 12  1  0  0  0  0
 14 13  1  0  0  0  0
 15 17  1  0  0  0  0
 15 13  2  0  0  0  0
 16 15  1  0  0  0  0
 17 19  1  0  0  0  0
 18 17  1  0  0  0  0
 19 12  2  0  0  0  0
 20 23  1  0  0  0  0
 20 22  1  0  0  0  0
 21 20  1  0  0  0  0
 24 25  1  0  0  0  0
 24 26  1  0  0  0  0
 24 30  1  0  0  0  0
 27 28  2  0  0  0  0
 28 29  1  0  0  0  0
 28 32  1  0  0  0  0
 30 29  1  0  0  0  0
 31 30  2  0  0  0  0
 31 27  1  0  0  0  0
 33 34  1  0  0  0  0
 34 35  2  0  0  0  0
 34 41  1  0  0  0  0
 35 27  1  0  0  0  0
 36 35  1  0  0  0  0
 37 36  2  0  0  0  0
 38 37  1  0  0  0  0
 38 33  2  0  0  0  0
 39 33  1  0  0  0  0
 40 37  1  0  0  0  0
 41 43  1  0  0  0  0
 42 41  1  0  0  0  0
M  END
>  <minimizedAffinity>
-6.52661085

>  <minimizedRMSD>
2.12154365

$$$$
