
 OpenBabel03242517203D

 38 40  0  0  0  0  0  0  0  0999 V2000
   36.2770   27.9140   38.6160 C   0  0  0  0  0  0  0  0  0  0  0  0
   35.0740   28.6700   38.6400 C   0  0  0  0  0  0  0  0  0  0  0  0
   34.6830   29.2180   39.8360 C   0  0  0  0  0  0  0  0  0  0  0  0
   35.4710   29.0050   40.9250 N   0  0  0  0  0  0  0  0  0  0  0  0
   36.5990   28.2940   40.8970 C   0  0  0  0  0  0  0  0  0  0  0  0
   36.9880   27.7550   39.7360 N   0  0  0  0  0  0  0  0  0  0  0  0
   36.5670   27.4910   37.6710 H   0  0  0  0  0  0  0  0  0  0  0  0
   33.7740   29.8010   39.9010 H   0  0  0  0  0  0  0  0  0  0  0  0
   37.4700   28.0430   42.0410 C   0  0  0  0  0  0  0  0  0  0  0  0
   37.6590   28.9080   42.7010 H   0  0  0  0  0  0  0  0  0  0  0  0
   38.4800   27.7560   41.6440 H   0  0  0  0  0  0  0  0  0  0  0  0
   36.9570   26.8490   42.8410 C   0  0  0  0  0  0  0  0  0  0  0  0
   35.8650   26.7780   42.6670 H   0  0  0  0  0  0  0  0  0  0  0  0
   37.0810   27.1170   43.9100 H   0  0  0  0  0  0  0  0  0  0  0  0
   37.6330   25.6060   42.4610 C   0  0  0  0  0  0  0  0  0  0  0  0
   39.0160   25.4650   42.4650 C   0  0  0  0  0  0  0  0  0  0  0  0
   39.7550   26.2080   42.7340 H   0  0  0  0  0  0  0  0  0  0  0  0
   39.2270   24.1520   42.0450 C   0  0  0  0  0  0  0  0  0  0  0  0
   40.2590   23.7760   41.9600 H   0  0  0  0  0  0  0  0  0  0  0  0
   38.0180   23.5690   41.8110 N   0  0  0  0  0  0  0  0  0  0  0  0
   38.0720   22.5770   41.4890 H   0  0  0  0  0  0  0  0  0  0  0  0
   37.0690   24.4510   42.0640 N   0  0  0  0  0  0  0  0  0  0  0  0
   34.2860   28.8490   37.4200 C   0  0  0  0  0  3  0  0  0  0  0  0
   32.9900   28.8890   37.3540 C   0  0  0  0  0  3  0  0  0  0  0  0
   32.2400   29.0750   36.0820 C   0  0  0  0  0  0  0  0  0  0  0  0
   31.6280   28.1920   35.8170 H   0  0  0  0  0  0  0  0  0  0  0  0
   32.9920   29.1610   35.2710 H   0  0  0  0  0  0  0  0  0  0  0  0
   32.1000   30.7750   33.8810 F   0  0  0  0  0  0  0  0  0  0  0  0
   31.3960   31.1040   34.9710 C   0  0  0  0  0  0  0  0  0  0  0  0
   31.4290   30.2840   36.1050 C   0  0  0  0  0  0  0  0  0  0  0  0
   30.6670   30.7270   37.1540 C   0  0  0  0  0  0  0  0  0  0  0  0
   29.8930   31.8690   37.1950 C   0  0  0  0  0  0  0  0  0  0  0  0
   29.9080   32.6400   36.0230 C   0  0  0  0  0  0  0  0  0  0  0  0
   30.6390   32.2800   34.9220 C   0  0  0  0  0  0  0  0  0  0  0  0
   30.6930   30.0870   38.0410 H   0  0  0  0  0  0  0  0  0  0  0  0
   29.3530   32.0800   38.0910 H   0  0  0  0  0  0  0  0  0  0  0  0
   29.2930   33.5380   36.0710 H   0  0  0  0  0  0  0  0  0  0  0  0
   30.6260   32.8950   34.0400 H   0  0  0  0  0  0  0  0  0  0  0  0
  1  2  2  0  0  0  0
  1  6  1  0  0  0  0
  2  3  1  0  0  0  0
  3  8  1  0  0  0  0
  3  4  2  0  0  0  0
  5  4  1  0  0  0  0
  5  9  1  0  0  0  0
  6  5  2  0  0  0  0
  7  1  1  0  0  0  0
  9 10  1  0  0  0  0
  9 12  1  0  0  0  0
 11  9  1  0  0  0  0
 12 14  1  0  0  0  0
 13 12  1  0  0  0  0
 15 16  1  0  0  0  0
 15 12  1  0  0  0  0
 16 17  1  0  0  0  0
 18 16  2  0  0  0  0
 19 18  1  0  0  0  0
 20 18  1  0  0  0  0
 20 22  1  0  0  0  0
 21 20  1  0  0  0  0
 22 15  2  0  0  0  0
 23  2  1  0  0  0  0
 24 23  2  0  0  0  0
 25 30  1  0  0  0  0
 25 24  1  0  0  0  0
 26 25  1  0  0  0  0
 27 25  1  0  0  0  0
 28 29  1  0  0  0  0
 29 30  1  0  0  0  0
 30 31  2  0  0  0  0
 31 32  1  0  0  0  0
 31 35  1  0  0  0  0
 32 36  1  0  0  0  0
 33 37  1  0  0  0  0
 33 32  2  0  0  0  0
 34 29  2  0  0  0  0
 34 33  1  0  0  0  0
 38 34  1  0  0  0  0
M  END
>  <minimizedAffinity>
-5.76575851

$$$$

 OpenBabel03242517203D

 38 40  0  0  0  0  0  0  0  0999 V2000
   34.7300   29.1580   39.8300 C   0  0  0  0  0  0  0  0  0  0  0  0
   35.2050   28.7140   38.5670 C   0  0  0  0  0  0  0  0  0  0  0  0
   36.4490   28.1370   38.5150 C   0  0  0  0  0  0  0  0  0  0  0  0
   37.1510   28.0250   39.6760 N   0  0  0  0  0  0  0  0  0  0  0  0
   36.7000   28.4450   40.8590 C   0  0  0  0  0  0  0  0  0  0  0  0
   35.4890   29.0090   40.9190 N   0  0  0  0  0  0  0  0  0  0  0  0
   33.7540   29.6090   39.8520 H   0  0  0  0  0  0  0  0  0  0  0  0
   36.8510   27.7840   37.5740 H   0  0  0  0  0  0  0  0  0  0  0  0
   37.4210   28.3430   42.1230 C   0  0  0  0  0  0  0  0  0  0  0  0
   37.4320   29.2530   42.7480 H   0  0  0  0  0  0  0  0  0  0  0  0
   38.5010   28.1440   41.8850 H   0  0  0  0  0  0  0  0  0  0  0  0
   36.9210   27.1410   42.9200 C   0  0  0  0  0  0  0  0  0  0  0  0
   35.8230   27.0860   42.7810 H   0  0  0  0  0  0  0  0  0  0  0  0
   37.0830   27.3890   43.9880 H   0  0  0  0  0  0  0  0  0  0  0  0
   37.5690   25.8960   42.4970 C   0  0  0  0  0  0  0  0  0  0  0  0
   36.8670   24.8260   41.9530 C   0  0  0  0  0  0  0  0  0  0  0  0
   35.8020   24.7580   41.7710 H   0  0  0  0  0  0  0  0  0  0  0  0
   37.8490   23.8680   41.6980 C   0  0  0  0  0  0  0  0  0  0  0  0
   37.5540   22.9040   41.2560 H   0  0  0  0  0  0  0  0  0  0  0  0
   39.0570   24.3700   42.0790 N   0  0  0  0  0  0  0  0  0  0  0  0
   39.8610   23.7210   41.9260 H   0  0  0  0  0  0  0  0  0  0  0  0
   38.8760   25.5870   42.5570 N   0  0  0  0  0  0  0  0  0  0  0  0
   34.3830   28.8740   37.3670 C   0  0  0  0  0  3  0  0  0  0  0  0
   33.0860   28.9310   37.3410 C   0  0  0  0  0  3  0  0  0  0  0  0
   32.2980   29.0970   36.0880 C   0  0  0  0  0  0  0  0  0  0  0  0
   31.6970   28.2010   35.8430 H   0  0  0  0  0  0  0  0  0  0  0  0
   33.0270   29.1940   35.2570 H   0  0  0  0  0  0  0  0  0  0  0  0
   32.1510   30.8420   33.9230 F   0  0  0  0  0  0  0  0  0  0  0  0
   31.4290   31.1340   35.0120 C   0  0  0  0  0  0  0  0  0  0  0  0
   31.4650   30.2900   36.1290 C   0  0  0  0  0  0  0  0  0  0  0  0
   30.6830   30.6950   37.1780 C   0  0  0  0  0  0  0  0  0  0  0  0
   29.8880   31.8220   37.2350 C   0  0  0  0  0  0  0  0  0  0  0  0
   29.9010   32.6190   36.0810 C   0  0  0  0  0  0  0  0  0  0  0  0
   30.6500   32.2970   34.9810 C   0  0  0  0  0  0  0  0  0  0  0  0
   30.7120   30.0370   38.0510 H   0  0  0  0  0  0  0  0  0  0  0  0
   29.3340   32.0030   38.1300 H   0  0  0  0  0  0  0  0  0  0  0  0
   29.2700   33.5030   36.1410 H   0  0  0  0  0  0  0  0  0  0  0  0
   30.6360   32.9310   34.1120 H   0  0  0  0  0  0  0  0  0  0  0  0
  1  7  1  0  0  0  0
  1  6  1  0  0  0  0
  2  1  2  0  0  0  0
  3  2  1  0  0  0  0
  3  4  2  0  0  0  0
  4  5  1  0  0  0  0
  5  6  2  0  0  0  0
  5  9  1  0  0  0  0
  8  3  1  0  0  0  0
  9 10  1  0  0  0  0
  9 12  1  0  0  0  0
 11  9  1  0  0  0  0
 12 14  1  0  0  0  0
 13 12  1  0  0  0  0
 15 22  2  0  0  0  0
 15 12  1  0  0  0  0
 16 15  1  0  0  0  0
 17 16  1  0  0  0  0
 18 16  2  0  0  0  0
 18 20  1  0  0  0  0
 19 18  1  0  0  0  0
 20 22  1  0  0  0  0
 21 20  1  0  0  0  0
 23  2  1  0  0  0  0
 24 23  2  0  0  0  0
 25 30  1  0  0  0  0
 25 24  1  0  0  0  0
 26 25  1  0  0  0  0
 27 25  1  0  0  0  0
 28 29  1  0  0  0  0
 29 30  1  0  0  0  0
 30 31  2  0  0  0  0
 31 32  1  0  0  0  0
 31 35  1  0  0  0  0
 32 36  1  0  0  0  0
 33 37  1  0  0  0  0
 33 32  2  0  0  0  0
 34 29  2  0  0  0  0
 34 33  1  0  0  0  0
 38 34  1  0  0  0  0
M  END
>  <minimizedAffinity>
-5.7068224

$$$$

 OpenBabel03242517203D

 38 40  0  0  0  0  0  0  0  0999 V2000
   35.9780   27.3380   38.9110 C   0  0  0  0  0  0  0  0  0  0  0  0
   35.1680   28.5040   38.8490 C   0  0  0  0  0  0  0  0  0  0  0  0
   35.0340   29.2540   39.9900 C   0  0  0  0  0  0  0  0  0  0  0  0
   35.6840   28.8370   41.1110 N   0  0  0  0  0  0  0  0  0  0  0  0
   36.4430   27.7410   41.1630 C   0  0  0  0  0  0  0  0  0  0  0  0
   36.5790   27.0030   40.0560 N   0  0  0  0  0  0  0  0  0  0  0  0
   36.0710   26.7620   38.0080 H   0  0  0  0  0  0  0  0  0  0  0  0
   34.4270   30.1510   39.9900 H   0  0  0  0  0  0  0  0  0  0  0  0
   37.1550   27.2610   42.3430 C   0  0  0  0  0  0  0  0  0  0  0  0
   38.0310   26.6170   42.1490 H   0  0  0  0  0  0  0  0  0  0  0  0
   36.4470   26.6170   42.9300 H   0  0  0  0  0  0  0  0  0  0  0  0
   37.5300   28.4340   43.2440 C   0  0  0  0  0  0  0  0  0  0  0  0
   37.4150   28.0950   44.2930 H   0  0  0  0  0  0  0  0  0  0  0  0
   36.7520   29.2080   43.0850 H   0  0  0  0  0  0  0  0  0  0  0  0
   38.8940   28.9050   42.9900 C   0  0  0  0  0  0  0  0  0  0  0  0
   39.1840   30.2110   42.6110 C   0  0  0  0  0  0  0  0  0  0  0  0
   38.4880   31.0250   42.4570 H   0  0  0  0  0  0  0  0  0  0  0  0
   40.5720   30.2270   42.4760 C   0  0  0  0  0  0  0  0  0  0  0  0
   41.0710   31.1630   42.1780 H   0  0  0  0  0  0  0  0  0  0  0  0
   41.0540   28.9850   42.7650 N   0  0  0  0  0  0  0  0  0  0  0  0
   42.0910   28.8960   42.6910 H   0  0  0  0  0  0  0  0  0  0  0  0
   40.0370   28.2010   43.0720 N   0  0  0  0  0  0  0  0  0  0  0  0
   34.5030   28.8800   37.6010 C   0  0  0  0  0  3  0  0  0  0  0  0
   33.2420   28.7220   37.3380 C   0  0  0  0  0  3  0  0  0  0  0  0
   32.6170   29.1250   36.0480 C   0  0  0  0  0  0  0  0  0  0  0  0
   32.1660   28.2690   35.5100 H   0  0  0  0  0  0  0  0  0  0  0  0
   33.4350   29.4840   35.3900 H   0  0  0  0  0  0  0  0  0  0  0  0
   32.1110   30.9800   34.0340 F   0  0  0  0  0  0  0  0  0  0  0  0
   31.4340   31.1030   35.1830 C   0  0  0  0  0  0  0  0  0  0  0  0
   31.6500   30.1970   36.2280 C   0  0  0  0  0  0  0  0  0  0  0  0
   30.8980   30.4280   37.3500 C   0  0  0  0  0  0  0  0  0  0  0  0
   29.9770   31.4390   37.5390 C   0  0  0  0  0  0  0  0  0  0  0  0
   29.8140   32.3080   36.4500 C   0  0  0  0  0  0  0  0  0  0  0  0
   30.5200   32.1580   35.2870 C   0  0  0  0  0  0  0  0  0  0  0  0
   31.0660   29.7210   38.1670 H   0  0  0  0  0  0  0  0  0  0  0  0
   29.4670   31.4870   38.4760 H   0  0  0  0  0  0  0  0  0  0  0  0
   29.0850   33.0990   36.6150 H   0  0  0  0  0  0  0  0  0  0  0  0
   30.3690   32.8430   34.4710 H   0  0  0  0  0  0  0  0  0  0  0  0
  1  6  1  0  0  0  0
  2  1  2  0  0  0  0
  2  3  1  0  0  0  0
  3  8  1  0  0  0  0
  3  4  2  0  0  0  0
  4  5  1  0  0  0  0
  5  9  1  0  0  0  0
  6  5  2  0  0  0  0
  7  1  1  0  0  0  0
  9 11  1  0  0  0  0
  9 12  1  0  0  0  0
 10  9  1  0  0  0  0
 12 13  1  0  0  0  0
 14 12  1  0  0  0  0
 15 22  2  0  0  0  0
 15 12  1  0  0  0  0
 16 15  1  0  0  0  0
 17 16  1  0  0  0  0
 18 16  2  0  0  0  0
 18 20  1  0  0  0  0
 19 18  1  0  0  0  0
 20 22  1  0  0  0  0
 21 20  1  0  0  0  0
 23  2  1  0  0  0  0
 24 23  2  0  0  0  0
 25 30  1  0  0  0  0
 25 24  1  0  0  0  0
 26 25  1  0  0  0  0
 27 25  1  0  0  0  0
 28 29  1  0  0  0  0
 29 34  2  0  0  0  0
 29 30  1  0  0  0  0
 30 31  2  0  0  0  0
 31 32  1  0  0  0  0
 31 35  1  0  0  0  0
 32 36  1  0  0  0  0
 33 37  1  0  0  0  0
 33 32  2  0  0  0  0
 34 33  1  0  0  0  0
 38 34  1  0  0  0  0
M  END
>  <minimizedAffinity>
-5.62258625

$$$$

 OpenBabel03242517203D

 38 40  0  0  0  0  0  0  0  0999 V2000
   36.2050   29.0670   38.1420 C   0  0  0  0  0  0  0  0  0  0  0  0
   35.0350   29.0370   38.9490 C   0  0  0  0  0  0  0  0  0  0  0  0
   35.1880   29.1680   40.3060 C   0  0  0  0  0  0  0  0  0  0  0  0
   36.4480   29.3180   40.7970 N   0  0  0  0  0  0  0  0  0  0  0  0
   37.5430   29.3440   40.0350 C   0  0  0  0  0  0  0  0  0  0  0  0
   37.4050   29.2170   38.7110 N   0  0  0  0  0  0  0  0  0  0  0  0
   36.0680   28.9620   37.0810 H   0  0  0  0  0  0  0  0  0  0  0  0
   34.3240   29.1520   40.9590 H   0  0  0  0  0  0  0  0  0  0  0  0
   38.9080   29.5030   40.5240 C   0  0  0  0  0  0  0  0  0  0  0  0
   39.5210   28.5840   40.5530 H   0  0  0  0  0  0  0  0  0  0  0  0
   38.8510   29.8460   41.5910 H   0  0  0  0  0  0  0  0  0  0  0  0
   39.6210   30.6060   39.7470 C   0  0  0  0  0  0  0  0  0  0  0  0
   39.4450   30.4190   38.6690 H   0  0  0  0  0  0  0  0  0  0  0  0
   40.7060   30.4510   39.9130 H   0  0  0  0  0  0  0  0  0  0  0  0
   39.1490   31.9390   40.1330 C   0  0  0  0  0  0  0  0  0  0  0  0
   38.4350   32.7660   39.2740 C   0  0  0  0  0  0  0  0  0  0  0  0
   38.1380   32.5610   38.2530 H   0  0  0  0  0  0  0  0  0  0  0  0
   38.1920   33.9140   40.0280 C   0  0  0  0  0  0  0  0  0  0  0  0
   37.6300   34.7450   39.5730 H   0  0  0  0  0  0  0  0  0  0  0  0
   38.7430   33.7490   41.2640 N   0  0  0  0  0  0  0  0  0  0  0  0
   38.6130   34.5620   41.9060 H   0  0  0  0  0  0  0  0  0  0  0  0
   39.3140   32.5610   41.3140 N   0  0  0  0  0  0  0  0  0  0  0  0
   33.7170   28.8710   38.3360 C   0  0  0  0  0  3  0  0  0  0  0  0
   33.4380   29.0490   37.0800 C   0  0  0  0  0  3  0  0  0  0  0  0
   32.0760   28.8640   36.5100 C   0  0  0  0  0  0  0  0  0  0  0  0
   31.4520   28.1780   37.1140 H   0  0  0  0  0  0  0  0  0  0  0  0
   32.1990   28.3570   35.5310 H   0  0  0  0  0  0  0  0  0  0  0  0
   30.5670   30.0560   38.5240 F   0  0  0  0  0  0  0  0  0  0  0  0
   30.6550   30.6920   37.3480 C   0  0  0  0  0  0  0  0  0  0  0  0
   31.4010   30.1370   36.3010 C   0  0  0  0  0  0  0  0  0  0  0  0
   31.4150   30.8810   35.1510 C   0  0  0  0  0  0  0  0  0  0  0  0
   30.7810   32.0890   34.9350 C   0  0  0  0  0  0  0  0  0  0  0  0
   30.0540   32.5830   36.0280 C   0  0  0  0  0  0  0  0  0  0  0  0
   29.9810   31.9120   37.2190 C   0  0  0  0  0  0  0  0  0  0  0  0
   31.9970   30.4480   34.3330 H   0  0  0  0  0  0  0  0  0  0  0  0
   30.8880   32.5490   33.9780 H   0  0  0  0  0  0  0  0  0  0  0  0
   29.5600   33.5350   35.8420 H   0  0  0  0  0  0  0  0  0  0  0  0
   29.4130   32.3210   38.0360 H   0  0  0  0  0  0  0  0  0  0  0  0
  1  6  2  0  0  0  0
  1  2  1  0  0  0  0
  2  3  2  0  0  0  0
  3  4  1  0  0  0  0
  3  8  1  0  0  0  0
  5  9  1  0  0  0  0
  5  4  2  0  0  0  0
  6  5  1  0  0  0  0
  7  1  1  0  0  0  0
  9 10  1  0  0  0  0
  9 11  1  0  0  0  0
 12 14  1  0  0  0  0
 12 15  1  0  0  0  0
 12  9  1  0  0  0  0
 13 12  1  0  0  0  0
 15 22  2  0  0  0  0
 16 18  2  0  0  0  0
 16 15  1  0  0  0  0
 17 16  1  0  0  0  0
 18 20  1  0  0  0  0
 19 18  1  0  0  0  0
 20 22  1  0  0  0  0
 20 21  1  0  0  0  0
 23  2  1  0  0  0  0
 24 23  2  0  0  0  0
 25 24  1  0  0  0  0
 25 26  1  0  0  0  0
 27 25  1  0  0  0  0
 29 28  1  0  0  0  0
 30 25  1  0  0  0  0
 30 29  2  0  0  0  0
 31 30  1  0  0  0  0
 32 31  2  0  0  0  0
 32 33  1  0  0  0  0
 33 34  2  0  0  0  0
 34 29  1  0  0  0  0
 34 38  1  0  0  0  0
 35 31  1  0  0  0  0
 36 32  1  0  0  0  0
 37 33  1  0  0  0  0
M  END
>  <minimizedAffinity>
-5.61573887

$$$$

 OpenBabel03242517203D

 38 40  0  0  0  0  0  0  0  0999 V2000
   35.0920   29.3770   40.3070 C   0  0  0  0  0  0  0  0  0  0  0  0
   35.1130   29.1040   38.9130 C   0  0  0  0  0  0  0  0  0  0  0  0
   36.3310   29.0790   38.2820 C   0  0  0  0  0  0  0  0  0  0  0  0
   37.4440   29.3160   39.0290 N   0  0  0  0  0  0  0  0  0  0  0  0
   37.4170   29.5730   40.3380 C   0  0  0  0  0  0  0  0  0  0  0  0
   36.2350   29.6000   40.9620 N   0  0  0  0  0  0  0  0  0  0  0  0
   34.1280   29.3940   40.7850 H   0  0  0  0  0  0  0  0  0  0  0  0
   36.3950   28.8750   37.2210 H   0  0  0  0  0  0  0  0  0  0  0  0
   38.5860   29.8320   41.1720 C   0  0  0  0  0  0  0  0  0  0  0  0
   38.9970   30.8560   41.1230 H   0  0  0  0  0  0  0  0  0  0  0  0
   39.4170   29.1690   40.8090 H   0  0  0  0  0  0  0  0  0  0  0  0
   38.3030   29.4280   42.6160 C   0  0  0  0  0  0  0  0  0  0  0  0
   37.2210   29.2030   42.6910 H   0  0  0  0  0  0  0  0  0  0  0  0
   38.4710   30.3360   43.2300 H   0  0  0  0  0  0  0  0  0  0  0  0
   39.1100   28.2770   43.0310 C   0  0  0  0  0  0  0  0  0  0  0  0
   38.5580   27.0400   43.3420 C   0  0  0  0  0  0  0  0  0  0  0  0
   37.5130   26.7590   43.3240 H   0  0  0  0  0  0  0  0  0  0  0  0
   39.6580   26.2510   43.6790 C   0  0  0  0  0  0  0  0  0  0  0  0
   39.4950   25.2010   43.9710 H   0  0  0  0  0  0  0  0  0  0  0  0
   40.7870   27.0040   43.5660 N   0  0  0  0  0  0  0  0  0  0  0  0
   41.6700   26.4980   43.8000 H   0  0  0  0  0  0  0  0  0  0  0  0
   40.4460   28.2180   43.1770 N   0  0  0  0  0  0  0  0  0  0  0  0
   33.8670   28.8600   38.1860 C   0  0  0  0  0  3  0  0  0  0  0  0
   33.6740   29.0740   36.9200 C   0  0  0  0  0  3  0  0  0  0  0  0
   32.3820   28.8060   36.2310 C   0  0  0  0  0  0  0  0  0  0  0  0
   31.7380   28.1040   36.7940 H   0  0  0  0  0  0  0  0  0  0  0  0
   32.6220   28.2840   35.2830 H   0  0  0  0  0  0  0  0  0  0  0  0
   30.8040   30.0850   38.1360 F   0  0  0  0  0  0  0  0  0  0  0  0
   30.8890   30.6390   36.9200 C   0  0  0  0  0  0  0  0  0  0  0  0
   31.6690   30.0380   35.9250 C   0  0  0  0  0  0  0  0  0  0  0  0
   31.6750   30.7000   34.7250 C   0  0  0  0  0  0  0  0  0  0  0  0
   31.0050   31.8670   34.4170 C   0  0  0  0  0  0  0  0  0  0  0  0
   30.2450   32.4110   35.4620 C   0  0  0  0  0  0  0  0  0  0  0  0
   30.1760   31.8230   36.6960 C   0  0  0  0  0  0  0  0  0  0  0  0
   32.2840   30.2300   33.9470 H   0  0  0  0  0  0  0  0  0  0  0  0
   31.1110   32.2620   33.4300 H   0  0  0  0  0  0  0  0  0  0  0  0
   29.7240   33.3310   35.2030 H   0  0  0  0  0  0  0  0  0  0  0  0
   29.5830   32.2690   37.4750 H   0  0  0  0  0  0  0  0  0  0  0  0
  1  7  1  0  0  0  0
  1  6  1  0  0  0  0
  2  1  2  0  0  0  0
  3  2  1  0  0  0  0
  3  4  2  0  0  0  0
  4  5  1  0  0  0  0
  5  6  2  0  0  0  0
  5  9  1  0  0  0  0
  8  3  1  0  0  0  0
  9 12  1  0  0  0  0
 10  9  1  0  0  0  0
 11  9  1  0  0  0  0
 12 13  1  0  0  0  0
 12 15  1  0  0  0  0
 12 14  1  0  0  0  0
 15 22  2  0  0  0  0
 15 16  1  0  0  0  0
 16 18  2  0  0  0  0
 17 16  1  0  0  0  0
 18 19  1  0  0  0  0
 20 18  1  0  0  0  0
 20 21  1  0  0  0  0
 22 20  1  0  0  0  0
 23  2  1  0  0  0  0
 24 23  2  0  0  0  0
 25 26  1  0  0  0  0
 25 24  1  0  0  0  0
 27 25  1  0  0  0  0
 29 28  1  0  0  0  0
 30 25  1  0  0  0  0
 30 29  2  0  0  0  0
 31 30  1  0  0  0  0
 32 31  2  0  0  0  0
 32 33  1  0  0  0  0
 33 34  2  0  0  0  0
 34 29  1  0  0  0  0
 34 38  1  0  0  0  0
 35 31  1  0  0  0  0
 36 32  1  0  0  0  0
 37 33  1  0  0  0  0
M  END
>  <minimizedAffinity>
-5.51265907

$$$$

 OpenBabel03242517203D

 38 40  0  0  0  0  0  0  0  0999 V2000
   36.2460   29.7410   38.4920 C   0  0  0  0  0  0  0  0  0  0  0  0
   35.1270   29.1990   39.1800 C   0  0  0  0  0  0  0  0  0  0  0  0
   35.2710   28.9150   40.5150 C   0  0  0  0  0  0  0  0  0  0  0  0
   36.4740   29.1690   41.0980 N   0  0  0  0  0  0  0  0  0  0  0  0
   37.5210   29.6770   40.4460 C   0  0  0  0  0  0  0  0  0  0  0  0
   37.3910   29.9570   39.1450 N   0  0  0  0  0  0  0  0  0  0  0  0
   36.1160   29.9560   37.4460 H   0  0  0  0  0  0  0  0  0  0  0  0
   34.4440   28.5020   41.0800 H   0  0  0  0  0  0  0  0  0  0  0  0
   38.8250   29.9630   41.0340 C   0  0  0  0  0  0  0  0  0  0  0  0
   39.2660   30.9430   40.7780 H   0  0  0  0  0  0  0  0  0  0  0  0
   39.5530   29.2060   40.6360 H   0  0  0  0  0  0  0  0  0  0  0  0
   38.7750   29.7680   42.5470 C   0  0  0  0  0  0  0  0  0  0  0  0
   37.7160   29.8660   42.8580 H   0  0  0  0  0  0  0  0  0  0  0  0
   39.3060   30.6350   42.9890 H   0  0  0  0  0  0  0  0  0  0  0  0
   39.3240   28.4710   42.9500 C   0  0  0  0  0  0  0  0  0  0  0  0
   40.6860   28.1890   42.9380 C   0  0  0  0  0  0  0  0  0  0  0  0
   41.4940   28.8480   42.6470 H   0  0  0  0  0  0  0  0  0  0  0  0
   40.7660   26.8710   43.3840 C   0  0  0  0  0  0  0  0  0  0  0  0
   41.7550   26.3930   43.4700 H   0  0  0  0  0  0  0  0  0  0  0  0
   39.5060   26.4180   43.6400 N   0  0  0  0  0  0  0  0  0  0  0  0
   39.4620   25.4330   43.9820 H   0  0  0  0  0  0  0  0  0  0  0  0
   38.6500   27.3870   43.3760 N   0  0  0  0  0  0  0  0  0  0  0  0
   33.8690   28.9570   38.4740 C   0  0  0  0  0  3  0  0  0  0  0  0
   33.6640   29.1450   37.2060 C   0  0  0  0  0  3  0  0  0  0  0  0
   32.3600   28.8800   36.5390 C   0  0  0  0  0  0  0  0  0  0  0  0
   31.8240   28.0180   36.9800 H   0  0  0  0  0  0  0  0  0  0  0  0
   32.5840   28.5790   35.4950 H   0  0  0  0  0  0  0  0  0  0  0  0
   32.2130   30.5210   34.2940 F   0  0  0  0  0  0  0  0  0  0  0  0
   31.4780   30.8550   35.3630 C   0  0  0  0  0  0  0  0  0  0  0  0
   31.5150   30.0640   36.5170 C   0  0  0  0  0  0  0  0  0  0  0  0
   30.7200   30.5100   37.5400 C   0  0  0  0  0  0  0  0  0  0  0  0
   29.9130   31.6300   37.5380 C   0  0  0  0  0  0  0  0  0  0  0  0
   29.9270   32.3720   36.3490 C   0  0  0  0  0  0  0  0  0  0  0  0
   30.6890   32.0070   35.2710 C   0  0  0  0  0  0  0  0  0  0  0  0
   30.7480   29.8930   38.4430 H   0  0  0  0  0  0  0  0  0  0  0  0
   29.3490   31.8470   38.4190 H   0  0  0  0  0  0  0  0  0  0  0  0
   29.2860   33.2520   36.3630 H   0  0  0  0  0  0  0  0  0  0  0  0
   30.6750   32.6000   34.3730 H   0  0  0  0  0  0  0  0  0  0  0  0
  1  6  2  0  0  0  0
  1  2  1  0  0  0  0
  2  3  2  0  0  0  0
  3  8  1  0  0  0  0
  3  4  1  0  0  0  0
  5  9  1  0  0  0  0
  5  4  2  0  0  0  0
  6  5  1  0  0  0  0
  7  1  1  0  0  0  0
  9 12  1  0  0  0  0
 10  9  1  0  0  0  0
 11  9  1  0  0  0  0
 12 13  1  0  0  0  0
 12 15  1  0  0  0  0
 12 14  1  0  0  0  0
 15 22  2  0  0  0  0
 16 15  1  0  0  0  0
 16 18  2  0  0  0  0
 17 16  1  0  0  0  0
 18 19  1  0  0  0  0
 18 20  1  0  0  0  0
 20 21  1  0  0  0  0
 22 20  1  0  0  0  0
 23  2  1  0  0  0  0
 24 23  2  0  0  0  0
 25 26  1  0  0  0  0
 25 24  1  0  0  0  0
 27 25  1  0  0  0  0
 28 29  1  0  0  0  0
 29 30  1  0  0  0  0
 30 25  1  0  0  0  0
 30 31  2  0  0  0  0
 31 35  1  0  0  0  0
 32 31  1  0  0  0  0
 32 36  1  0  0  0  0
 33 37  1  0  0  0  0
 33 32  2  0  0  0  0
 34 29  2  0  0  0  0
 34 33  1  0  0  0  0
 38 34  1  0  0  0  0
M  END
>  <minimizedAffinity>
-5.47527838

$$$$

 OpenBabel03242517203D

 38 40  0  0  0  0  0  0  0  0999 V2000
   37.1560   28.9860   39.3670 C   0  0  0  0  0  0  0  0  0  0  0  0
   36.5850   28.8470   40.6610 C   0  0  0  0  0  0  0  0  0  0  0  0
   36.2550   29.9900   41.3440 C   0  0  0  0  0  0  0  0  0  0  0  0
   36.4950   31.1870   40.7420 N   0  0  0  0  0  0  0  0  0  0  0  0
   37.0320   31.3120   39.5270 C   0  0  0  0  0  0  0  0  0  0  0  0
   37.3570   30.2030   38.8540 N   0  0  0  0  0  0  0  0  0  0  0  0
   37.4090   28.0800   38.8460 H   0  0  0  0  0  0  0  0  0  0  0  0
   35.8180   29.9320   42.3330 H   0  0  0  0  0  0  0  0  0  0  0  0
   37.3040   32.5750   38.8490 C   0  0  0  0  0  0  0  0  0  0  0  0
   36.4980   32.9560   38.1980 H   0  0  0  0  0  0  0  0  0  0  0  0
   38.1770   32.4120   38.1620 H   0  0  0  0  0  0  0  0  0  0  0  0
   37.7340   33.6340   39.8600 C   0  0  0  0  0  0  0  0  0  0  0  0
   37.0700   33.5380   40.7420 H   0  0  0  0  0  0  0  0  0  0  0  0
   37.4950   34.6150   39.4020 H   0  0  0  0  0  0  0  0  0  0  0  0
   39.1410   33.4860   40.2420 C   0  0  0  0  0  0  0  0  0  0  0  0
   40.1730   34.1580   39.5980 C   0  0  0  0  0  0  0  0  0  0  0  0
   40.0960   34.8490   38.7680 H   0  0  0  0  0  0  0  0  0  0  0  0
   41.3240   33.7370   40.2650 C   0  0  0  0  0  0  0  0  0  0  0  0
   42.3020   34.1280   39.9450 H   0  0  0  0  0  0  0  0  0  0  0  0
   40.9640   32.8640   41.2480 N   0  0  0  0  0  0  0  0  0  0  0  0
   41.7620   32.4900   41.8070 H   0  0  0  0  0  0  0  0  0  0  0  0
   39.6520   32.7220   41.2240 N   0  0  0  0  0  0  0  0  0  0  0  0
   36.3620   27.5190   41.2330 C   0  0  0  0  0  3  0  0  0  0  0  0
   37.2790   26.7430   41.7260 C   0  0  0  0  0  3  0  0  0  0  0  0
   36.9940   25.3980   42.2980 C   0  0  0  0  0  0  0  0  0  0  0  0
   36.0250   25.3600   42.8300 H   0  0  0  0  0  0  0  0  0  0  0  0
   37.7610   25.2080   43.0770 H   0  0  0  0  0  0  0  0  0  0  0  0
   39.3200   23.9120   41.9310 F   0  0  0  0  0  0  0  0  0  0  0  0
   38.2710   23.6370   41.1440 C   0  0  0  0  0  0  0  0  0  0  0  0
   37.0770   24.3540   41.2870 C   0  0  0  0  0  0  0  0  0  0  0  0
   36.0790   23.9800   40.4260 C   0  0  0  0  0  0  0  0  0  0  0  0
   36.1400   22.9940   39.4620 C   0  0  0  0  0  0  0  0  0  0  0  0
   37.3660   22.3180   39.3780 C   0  0  0  0  0  0  0  0  0  0  0  0
   38.4220   22.6200   40.1950 C   0  0  0  0  0  0  0  0  0  0  0  0
   35.1460   24.5400   40.5370 H   0  0  0  0  0  0  0  0  0  0  0  0
   35.2710   22.8190   38.8650 H   0  0  0  0  0  0  0  0  0  0  0  0
   37.3970   21.5440   38.6130 H   0  0  0  0  0  0  0  0  0  0  0  0
   39.3490   22.0810   40.1020 H   0  0  0  0  0  0  0  0  0  0  0  0
  1  2  1  0  0  0  0
  2 23  1  0  0  0  0
  2  3  2  0  0  0  0
  3  8  1  0  0  0  0
  4  3  1  0  0  0  0
  5  4  2  0  0  0  0
  6  1  2  0  0  0  0
  6  5  1  0  0  0  0
  7  1  1  0  0  0  0
  9  5  1  0  0  0  0
  9 12  1  0  0  0  0
 10  9  1  0  0  0  0
 11  9  1  0  0  0  0
 12 15  1  0  0  0  0
 12 13  1  0  0  0  0
 14 12  1  0  0  0  0
 15 22  2  0  0  0  0
 16 15  1  0  0  0  0
 16 18  2  0  0  0  0
 17 16  1  0  0  0  0
 18 20  1  0  0  0  0
 19 18  1  0  0  0  0
 20 21  1  0  0  0  0
 22 20  1  0  0  0  0
 23 24  2  0  0  0  0
 24 25  1  0  0  0  0
 25 26  1  0  0  0  0
 25 27  1  0  0  0  0
 29 30  1  0  0  0  0
 29 28  1  0  0  0  0
 30 25  1  0  0  0  0
 31 35  1  0  0  0  0
 31 30  2  0  0  0  0
 32 31  1  0  0  0  0
 33 32  2  0  0  0  0
 33 34  1  0  0  0  0
 34 29  2  0  0  0  0
 36 32  1  0  0  0  0
 37 33  1  0  0  0  0
 38 34  1  0  0  0  0
M  END
>  <minimizedAffinity>
-5.4555068

$$$$

 OpenBabel03242517203D

 38 40  0  0  0  0  0  0  0  0999 V2000
   36.4210   27.6360   37.8410 C   0  0  0  0  0  0  0  0  0  0  0  0
   35.6830   28.8130   37.5410 C   0  0  0  0  0  0  0  0  0  0  0  0
   36.2000   30.0170   37.9510 C   0  0  0  0  0  0  0  0  0  0  0  0
   37.3860   30.0100   38.6180 N   0  0  0  0  0  0  0  0  0  0  0  0
   38.0740   28.9020   38.8970 C   0  0  0  0  0  0  0  0  0  0  0  0
   37.5790   27.7240   38.5030 N   0  0  0  0  0  0  0  0  0  0  0  0
   36.0010   26.7020   37.5140 H   0  0  0  0  0  0  0  0  0  0  0  0
   35.6720   30.9390   37.7440 H   0  0  0  0  0  0  0  0  0  0  0  0
   39.3470   28.8540   39.6090 C   0  0  0  0  0  0  0  0  0  0  0  0
   40.2500   29.0090   38.9930 H   0  0  0  0  0  0  0  0  0  0  0  0
   39.4610   27.8220   40.0350 H   0  0  0  0  0  0  0  0  0  0  0  0
   39.3240   29.8160   40.7930 C   0  0  0  0  0  0  0  0  0  0  0  0
   38.8900   30.7710   40.4360 H   0  0  0  0  0  0  0  0  0  0  0  0
   40.3840   30.0330   41.0370 H   0  0  0  0  0  0  0  0  0  0  0  0
   38.5570   29.2780   41.9210 C   0  0  0  0  0  0  0  0  0  0  0  0
   38.9670   28.1710   42.6540 C   0  0  0  0  0  0  0  0  0  0  0  0
   39.8610   27.5780   42.5120 H   0  0  0  0  0  0  0  0  0  0  0  0
   37.9660   28.0050   43.6110 C   0  0  0  0  0  0  0  0  0  0  0  0
   38.0490   27.1800   44.3360 H   0  0  0  0  0  0  0  0  0  0  0  0
   37.0250   28.9740   43.4310 N   0  0  0  0  0  0  0  0  0  0  0  0
   36.2290   28.9330   44.1050 H   0  0  0  0  0  0  0  0  0  0  0  0
   37.3910   29.7320   42.4140 N   0  0  0  0  0  0  0  0  0  0  0  0
   34.4140   28.7280   36.8190 C   0  0  0  0  0  3  0  0  0  0  0  0
   33.2350   28.8850   37.3390 C   0  0  0  0  0  3  0  0  0  0  0  0
   31.9730   28.7880   36.5540 C   0  0  0  0  0  0  0  0  0  0  0  0
   31.2510   28.0760   36.9970 H   0  0  0  0  0  0  0  0  0  0  0  0
   32.2380   28.3580   35.5660 H   0  0  0  0  0  0  0  0  0  0  0  0
   30.4950   30.0270   38.5620 F   0  0  0  0  0  0  0  0  0  0  0  0
   30.6280   30.6710   37.3960 C   0  0  0  0  0  0  0  0  0  0  0  0
   31.3620   30.0940   36.3530 C   0  0  0  0  0  0  0  0  0  0  0  0
   31.4270   30.8500   35.2120 C   0  0  0  0  0  0  0  0  0  0  0  0
   30.8530   32.0880   35.0020 C   0  0  0  0  0  0  0  0  0  0  0  0
   30.1350   32.6040   36.0910 C   0  0  0  0  0  0  0  0  0  0  0  0
   30.0140   31.9230   37.2730 C   0  0  0  0  0  0  0  0  0  0  0  0
   31.9990   30.3990   34.3960 H   0  0  0  0  0  0  0  0  0  0  0  0
   30.9940   32.5540   34.0520 H   0  0  0  0  0  0  0  0  0  0  0  0
   29.6890   33.5800   35.9100 H   0  0  0  0  0  0  0  0  0  0  0  0
   29.4550   32.3490   38.0870 H   0  0  0  0  0  0  0  0  0  0  0  0
  1  6  1  0  0  0  0
  2  1  2  0  0  0  0
  2  3  1  0  0  0  0
  3  4  2  0  0  0  0
  4  5  1  0  0  0  0
  5  9  1  0  0  0  0
  6  5  2  0  0  0  0
  7  1  1  0  0  0  0
  8  3  1  0  0  0  0
  9 11  1  0  0  0  0
  9 12  1  0  0  0  0
 10  9  1  0  0  0  0
 12 14  1  0  0  0  0
 12 15  1  0  0  0  0
 13 12  1  0  0  0  0
 15 22  2  0  0  0  0
 15 16  1  0  0  0  0
 16 18  2  0  0  0  0
 17 16  1  0  0  0  0
 18 19  1  0  0  0  0
 20 18  1  0  0  0  0
 20 21  1  0  0  0  0
 22 20  1  0  0  0  0
 23 24  2  0  0  0  0
 23  2  1  0  0  0  0
 25 26  1  0  0  0  0
 25 24  1  0  0  0  0
 27 25  1  0  0  0  0
 29 28  1  0  0  0  0
 30 25  1  0  0  0  0
 30 29  2  0  0  0  0
 31 30  1  0  0  0  0
 32 31  2  0  0  0  0
 32 33  1  0  0  0  0
 33 34  2  0  0  0  0
 34 29  1  0  0  0  0
 34 38  1  0  0  0  0
 35 31  1  0  0  0  0
 36 32  1  0  0  0  0
 37 33  1  0  0  0  0
M  END
>  <minimizedAffinity>
-5.37948847

$$$$

 OpenBabel03242517203D

 38 40  0  0  0  0  0  0  0  0999 V2000
   35.9380   27.4510   38.6660 C   0  0  0  0  0  0  0  0  0  0  0  0
   35.8120   28.1870   39.8750 C   0  0  0  0  0  0  0  0  0  0  0  0
   34.7930   29.1010   39.9670 C   0  0  0  0  0  0  0  0  0  0  0  0
   33.9660   29.2480   38.8960 N   0  0  0  0  0  0  0  0  0  0  0  0
   34.0900   28.5540   37.7630 C   0  0  0  0  0  0  0  0  0  0  0  0
   35.0800   27.6610   37.6640 N   0  0  0  0  0  0  0  0  0  0  0  0
   36.7430   26.7390   38.6110 H   0  0  0  0  0  0  0  0  0  0  0  0
   34.6590   29.6840   40.8690 H   0  0  0  0  0  0  0  0  0  0  0  0
   33.2250   28.6820   36.5950 C   0  0  0  0  0  0  0  0  0  0  0  0
   33.0780   27.7640   36.0000 H   0  0  0  0  0  0  0  0  0  0  0  0
   33.7090   29.4090   35.8900 H   0  0  0  0  0  0  0  0  0  0  0  0
   31.8840   29.2900   36.9970 C   0  0  0  0  0  0  0  0  0  0  0  0
   31.9890   29.6670   38.0340 H   0  0  0  0  0  0  0  0  0  0  0  0
   31.1650   28.4470   37.0490 H   0  0  0  0  0  0  0  0  0  0  0  0
   31.4740   30.3620   36.0860 C   0  0  0  0  0  0  0  0  0  0  0  0
   30.7080   31.4480   36.4930 C   0  0  0  0  0  0  0  0  0  0  0  0
   30.3240   31.6520   37.4840 H   0  0  0  0  0  0  0  0  0  0  0  0
   30.5500   32.2080   35.3340 C   0  0  0  0  0  0  0  0  0  0  0  0
   29.9710   33.1440   35.3810 H   0  0  0  0  0  0  0  0  0  0  0  0
   31.1980   31.5840   34.3110 N   0  0  0  0  0  0  0  0  0  0  0  0
   31.1370   32.0800   33.3940 H   0  0  0  0  0  0  0  0  0  0  0  0
   31.7480   30.4770   34.7740 N   0  0  0  0  0  0  0  0  0  0  0  0
   36.7480   27.9660   40.9780 C   0  0  0  0  0  3  0  0  0  0  0  0
   36.4890   28.1450   42.2380 C   0  0  0  0  0  3  0  0  0  0  0  0
   37.4810   27.9030   43.3210 C   0  0  0  0  0  0  0  0  0  0  0  0
   37.6670   26.8260   43.4930 H   0  0  0  0  0  0  0  0  0  0  0  0
   37.0310   28.2750   44.2630 H   0  0  0  0  0  0  0  0  0  0  0  0
   39.9330   26.5820   43.3070 F   0  0  0  0  0  0  0  0  0  0  0  0
   39.9320   27.9030   43.0840 C   0  0  0  0  0  0  0  0  0  0  0  0
   38.7270   28.6150   43.0790 C   0  0  0  0  0  0  0  0  0  0  0  0
   38.8580   29.9580   42.8380 C   0  0  0  0  0  0  0  0  0  0  0  0
   40.0300   30.6500   42.6080 C   0  0  0  0  0  0  0  0  0  0  0  0
   41.1960   29.8710   42.6270 C   0  0  0  0  0  0  0  0  0  0  0  0
   41.1670   28.5220   42.8590 C   0  0  0  0  0  0  0  0  0  0  0  0
   37.9180   30.5160   42.8350 H   0  0  0  0  0  0  0  0  0  0  0  0
   39.9680   31.7020   42.4350 H   0  0  0  0  0  0  0  0  0  0  0  0
   42.1110   30.4310   42.4440 H   0  0  0  0  0  0  0  0  0  0  0  0
   42.0820   27.9550   42.8660 H   0  0  0  0  0  0  0  0  0  0  0  0
  1  2  1  0  0  0  0
  2  3  2  0  0  0  0
  2 23  1  0  0  0  0
  3  8  1  0  0  0  0
  4  3  1  0  0  0  0
  5  4  2  0  0  0  0
  6  5  1  0  0  0  0
  6  1  2  0  0  0  0
  7  1  1  0  0  0  0
  9 12  1  0  0  0  0
  9  5  1  0  0  0  0
 10  9  1  0  0  0  0
 11  9  1  0  0  0  0
 12 14  1  0  0  0  0
 12 13  1  0  0  0  0
 15 16  1  0  0  0  0
 15 12  1  0  0  0  0
 16 17  1  0  0  0  0
 18 19  1  0  0  0  0
 18 16  2  0  0  0  0
 20 22  1  0  0  0  0
 20 18  1  0  0  0  0
 21 20  1  0  0  0  0
 22 15  2  0  0  0  0
 23 24  2  0  0  0  0
 24 25  1  0  0  0  0
 25 26  1  0  0  0  0
 25 27  1  0  0  0  0
 29 28  1  0  0  0  0
 30 29  1  0  0  0  0
 30 25  1  0  0  0  0
 31 30  2  0  0  0  0
 32 33  2  0  0  0  0
 32 31  1  0  0  0  0
 33 34  1  0  0  0  0
 34 38  1  0  0  0  0
 34 29  2  0  0  0  0
 35 31  1  0  0  0  0
 36 32  1  0  0  0  0
 37 33  1  0  0  0  0
M  END
>  <minimizedAffinity>
-5.22200489

$$$$
