
 OpenBabel03252509263D

 29 31  0  0  1  0  0  0  0  0999 V2000
   46.6990   35.1450   41.9430 C   0  0  1  0  0  0  0  0  0  0  0  0
   48.2360   35.3460   41.9750 C   0  0  0  0  0  0  0  0  0  0  0  0
   47.4730   34.1620   41.3010 C   0  0  2  0  0  0  0  0  0  0  0  0
   46.2150   35.9840   41.4280 H   0  0  0  0  0  0  0  0  0  0  0  0
   48.6780   36.0210   41.2220 H   0  0  0  0  0  0  0  0  0  0  0  0
   48.7880   35.0770   42.8800 H   0  0  0  0  0  0  0  0  0  0  0  0
   47.6090   33.1680   41.8240 H   0  0  0  0  0  0  0  0  0  0  0  0
   44.6810   35.3140   45.0940 C   0  0  0  0  0  0  0  0  0  0  0  0
   45.1690   35.6690   43.8070 C   0  0  0  0  0  0  0  0  0  0  0  0
   46.1650   34.8670   43.3230 C   0  0  0  0  0  0  0  0  0  0  0  0
   46.6490   33.8050   44.0380 N   0  0  0  0  0  0  0  0  0  0  0  0
   46.1530   33.5080   45.2560 C   0  0  0  0  0  0  0  0  0  0  0  0
   45.1650   34.2670   45.7850 N   0  0  0  0  0  0  0  0  0  0  0  0
   43.8900   35.9050   45.5370 H   0  0  0  0  0  0  0  0  0  0  0  0
   46.5690   32.6590   45.7810 H   0  0  0  0  0  0  0  0  0  0  0  0
   44.6720   36.7860   43.1050 N   0  0  0  0  0  0  0  0  0  0  0  0
   43.6950   37.0590   42.8100 H   0  0  0  0  0  0  0  0  0  0  0  0
   45.4840   37.4130   42.8690 H   0  0  0  0  0  0  0  0  0  0  0  0
   47.5260   34.0450   39.7950 C   0  0  0  0  0  0  0  0  0  0  0  0
   48.4990   33.6130   39.5170 H   0  0  0  0  0  0  0  0  0  0  0  0
   47.4140   35.0280   39.2950 H   0  0  0  0  0  0  0  0  0  0  0  0
   46.4580   33.0960   39.4170 C   0  0  0  0  0  0  0  0  0  0  0  0
   45.8920   32.0710   40.1670 C   0  0  0  0  0  0  0  0  0  0  0  0
   46.1670   31.8110   41.1820 H   0  0  0  0  0  0  0  0  0  0  0  0
   44.9170   31.4320   39.4090 C   0  0  0  0  0  0  0  0  0  0  0  0
   44.2920   30.5970   39.6930 H   0  0  0  0  0  0  0  0  0  0  0  0
   44.9300   32.0980   38.2200 N   0  0  0  0  0  0  0  0  0  0  0  0
   44.2790   31.8120   37.4590 H   0  0  0  0  0  0  0  0  0  0  0  0
   45.8190   33.0610   38.2210 N   0  0  0  0  0  0  0  0  0  0  0  0
  1  4  1  6  0  0  0
  1  2  1  0  0  0  0
  1 10  1  0  0  0  0
  2  6  1  0  0  0  0
  3  7  1  1  0  0  0
  3  1  1  0  0  0  0
  3  2  1  0  0  0  0
  5  2  1  0  0  0  0
  8 14  1  0  0  0  0
  8 13  1  0  0  0  0
  9  8  2  0  0  0  0
 10  9  1  0  0  0  0
 10 11  2  0  0  0  0
 11 12  1  0  0  0  0
 12 15  1  0  0  0  0
 12 13  2  0  0  0  0
 16  9  1  0  0  0  0
 17 16  1  0  0  0  0
 18 16  1  0  0  0  0
 19  3  1  0  0  0  0
 20 19  1  0  0  0  0
 21 19  1  0  0  0  0
 22 19  1  0  0  0  0
 22 23  1  0  0  0  0
 23 24  1  0  0  0  0
 25 26  1  0  0  0  0
 25 23  2  0  0  0  0
 27 29  1  0  0  0  0
 27 25  1  0  0  0  0
 28 27  1  0  0  0  0
 29 22  2  0  0  0  0
M  END
>  <minimizedAffinity>
-4.41263294

>  <minimizedRMSD>
0.77547276

$$$$
