
 OpenBabel03252506113D

 29 31  0  0  0  0  0  0  0  0999 V2000
   37.2520   28.1230   39.5440 F   0  0  0  0  0  0  0  0  0  0  0  0
   37.2290   28.0210   40.8780 C   0  0  0  0  0  0  0  0  0  0  0  0
   37.1120   26.7820   41.4720 C   0  0  0  0  0  0  0  0  0  0  0  0
   37.0810   26.6040   42.8450 C   0  0  0  0  0  0  0  0  0  0  0  0
   37.1720   27.7220   43.6790 C   0  0  0  0  0  0  0  0  0  0  0  0
   37.2880   28.9440   43.0410 C   0  0  0  0  0  0  0  0  0  0  0  0
   37.3200   29.1300   41.6820 C   0  0  0  0  0  0  0  0  0  0  0  0
   36.9870   25.6030   43.2810 H   0  0  0  0  0  0  0  0  0  0  0  0
   37.1520   27.6200   44.7520 H   0  0  0  0  0  0  0  0  0  0  0  0
   37.3570   29.7820   43.7250 H   0  0  0  0  0  0  0  0  0  0  0  0
   37.5070   23.3350   40.2520 C   0  0  0  0  0  0  0  0  0  0  0  0
   36.8010   23.3710   39.0290 C   0  0  0  0  0  0  0  0  0  0  0  0
   36.1930   24.5810   38.6310 C   0  0  0  0  0  0  0  0  0  0  0  0
   36.3380   25.6420   39.4770 N   0  0  0  0  0  0  0  0  0  0  0  0
   37.0130   25.5760   40.6270 C   0  0  0  0  0  0  0  0  0  0  0  0
   37.5880   24.4300   41.0020 N   0  0  0  0  0  0  0  0  0  0  0  0
   36.7180   22.4990   38.3970 H   0  0  0  0  0  0  0  0  0  0  0  0
   35.6470   24.6540   37.7110 H   0  0  0  0  0  0  0  0  0  0  0  0
   38.1160   22.1170   40.6470 N   0  0  0  0  0  0  0  0  0  0  0  0
   38.9270   21.5880   40.2410 H   0  0  0  0  0  0  0  0  0  0  0  0
   37.5700   21.7990   41.5000 H   0  0  0  0  0  0  0  0  0  0  0  0
   37.4450   30.4640   41.1570 C   0  0  0  0  0  0  0  0  0  0  0  0
   38.5300   31.2280   40.8280 C   0  0  0  0  0  0  0  0  0  0  0  0
   39.5530   30.9040   40.9270 H   0  0  0  0  0  0  0  0  0  0  0  0
   38.1570   32.4580   40.3580 C   0  0  0  0  0  0  0  0  0  0  0  0
   38.7750   33.2870   40.0160 H   0  0  0  0  0  0  0  0  0  0  0  0
   36.7970   32.4210   40.4100 N   0  0  0  0  0  0  0  0  0  0  0  0
   36.2030   33.2330   40.1080 H   0  0  0  0  0  0  0  0  0  0  0  0
   36.3860   31.2580   40.8750 N   0  0  0  0  0  0  0  0  0  0  0  0
  1  2  1  0  0  0  0
  2  3  2  0  0  0  0
  2  7  1  0  0  0  0
  3  4  1  0  0  0  0
  4  8  1  0  0  0  0
  4  5  2  0  0  0  0
  5  9  1  0  0  0  0
  6  5  1  0  0  0  0
  6 10  1  0  0  0  0
  7  6  2  0  0  0  0
 11 19  1  0  0  0  0
 11 16  1  0  0  0  0
 12 11  2  0  0  0  0
 13 12  1  0  0  0  0
 13 14  2  0  0  0  0
 14 15  1  0  0  0  0
 15 16  2  0  0  0  0
 15  3  1  0  0  0  0
 17 12  1  0  0  0  0
 18 13  1  0  0  0  0
 19 21  1  0  0  0  0
 20 19  1  0  0  0  0
 22  7  1  0  0  0  0
 23 24  1  0  0  0  0
 23 22  1  0  0  0  0
 25 27  1  0  0  0  0
 25 23  2  0  0  0  0
 26 25  1  0  0  0  0
 27 29  1  0  0  0  0
 28 27  1  0  0  0  0
 29 22  2  0  0  0  0
M  END
>  <minimizedAffinity>
-5.7039094

$$$$

 OpenBabel03252506113D

 29 31  0  0  0  0  0  0  0  0999 V2000
   39.9780   28.4480   40.9870 F   0  0  0  0  0  0  0  0  0  0  0  0
   38.9400   28.0490   41.7290 C   0  0  0  0  0  0  0  0  0  0  0  0
   37.6960   28.6150   41.5350 C   0  0  0  0  0  0  0  0  0  0  0  0
   36.5790   28.2500   42.2670 C   0  0  0  0  0  0  0  0  0  0  0  0
   36.7010   27.2650   43.2510 C   0  0  0  0  0  0  0  0  0  0  0  0
   37.9660   26.7250   43.4120 C   0  0  0  0  0  0  0  0  0  0  0  0
   39.0780   27.0800   42.6920 C   0  0  0  0  0  0  0  0  0  0  0  0
   35.6080   28.7220   42.0840 H   0  0  0  0  0  0  0  0  0  0  0  0
   35.8530   26.9560   43.8390 H   0  0  0  0  0  0  0  0  0  0  0  0
   38.0140   25.9660   44.1840 H   0  0  0  0  0  0  0  0  0  0  0  0
   37.2480   31.8950   39.9350 C   0  0  0  0  0  0  0  0  0  0  0  0
   37.2100   31.5540   38.5650 C   0  0  0  0  0  0  0  0  0  0  0  0
   37.3390   30.1960   38.1990 C   0  0  0  0  0  0  0  0  0  0  0  0
   37.4930   29.3040   39.2190 N   0  0  0  0  0  0  0  0  0  0  0  0
   37.5250   29.6580   40.5060 C   0  0  0  0  0  0  0  0  0  0  0  0
   37.4030   30.9440   40.8500 N   0  0  0  0  0  0  0  0  0  0  0  0
   37.0850   32.3040   37.7970 H   0  0  0  0  0  0  0  0  0  0  0  0
   37.3150   29.8920   37.1710 H   0  0  0  0  0  0  0  0  0  0  0  0
   37.1190   33.2610   40.2970 N   0  0  0  0  0  0  0  0  0  0  0  0
   36.3040   33.9190   40.2240 H   0  0  0  0  0  0  0  0  0  0  0  0
   38.0670   33.5330   40.6900 H   0  0  0  0  0  0  0  0  0  0  0  0
   40.3320   26.4310   42.9690 C   0  0  0  0  0  0  0  0  0  0  0  0
   41.4340   26.8200   43.6780 C   0  0  0  0  0  0  0  0  0  0  0  0
   41.5290   27.7670   44.1820 H   0  0  0  0  0  0  0  0  0  0  0  0
   42.4060   25.8560   43.6680 C   0  0  0  0  0  0  0  0  0  0  0  0
   43.3910   25.8570   44.1340 H   0  0  0  0  0  0  0  0  0  0  0  0
   41.8570   24.8560   42.9240 N   0  0  0  0  0  0  0  0  0  0  0  0
   42.3660   23.9590   42.7300 H   0  0  0  0  0  0  0  0  0  0  0  0
   40.6490   25.1960   42.5190 N   0  0  0  0  0  0  0  0  0  0  0  0
  1  2  1  0  0  0  0
  2  7  1  0  0  0  0
  3  2  2  0  0  0  0
  3  4  1  0  0  0  0
  4  5  2  0  0  0  0
  5  6  1  0  0  0  0
  5  9  1  0  0  0  0
  6 10  1  0  0  0  0
  7 22  1  0  0  0  0
  7  6  2  0  0  0  0
  8  4  1  0  0  0  0
 11 19  1  0  0  0  0
 11 16  1  0  0  0  0
 12 11  2  0  0  0  0
 13 12  1  0  0  0  0
 13 14  2  0  0  0  0
 14 15  1  0  0  0  0
 15 16  2  0  0  0  0
 15  3  1  0  0  0  0
 17 12  1  0  0  0  0
 18 13  1  0  0  0  0
 19 21  1  0  0  0  0
 20 19  1  0  0  0  0
 22 23  1  0  0  0  0
 23 24  1  0  0  0  0
 25 23  2  0  0  0  0
 25 26  1  0  0  0  0
 27 25  1  0  0  0  0
 28 27  1  0  0  0  0
 29 27  1  0  0  0  0
 29 22  2  0  0  0  0
M  END
>  <minimizedAffinity>
-5.64766693

$$$$

 OpenBabel03252506113D

 29 31  0  0  0  0  0  0  0  0999 V2000
   37.1800   31.4670   37.7990 F   0  0  0  0  0  0  0  0  0  0  0  0
   36.7240   30.7470   38.8290 C   0  0  0  0  0  0  0  0  0  0  0  0
   35.8850   29.6750   38.6030 C   0  0  0  0  0  0  0  0  0  0  0  0
   35.3760   28.8890   39.6220 C   0  0  0  0  0  0  0  0  0  0  0  0
   35.7180   29.1820   40.9460 C   0  0  0  0  0  0  0  0  0  0  0  0
   36.5610   30.2650   41.1260 C   0  0  0  0  0  0  0  0  0  0  0  0
   37.0700   31.0500   40.1230 C   0  0  0  0  0  0  0  0  0  0  0  0
   34.7120   28.0450   39.4040 H   0  0  0  0  0  0  0  0  0  0  0  0
   35.3400   28.5900   41.7640 H   0  0  0  0  0  0  0  0  0  0  0  0
   36.8000   30.4550   42.1660 H   0  0  0  0  0  0  0  0  0  0  0  0
   36.0820   28.9780   34.9980 C   0  0  0  0  0  0  0  0  0  0  0  0
   34.7370   28.6920   34.6780 C   0  0  0  0  0  0  0  0  0  0  0  0
   33.7690   28.7410   35.7040 C   0  0  0  0  0  0  0  0  0  0  0  0
   34.2190   29.0670   36.9500 N   0  0  0  0  0  0  0  0  0  0  0  0
   35.4990   29.3330   37.2210 C   0  0  0  0  0  0  0  0  0  0  0  0
   36.4140   29.2860   36.2480 N   0  0  0  0  0  0  0  0  0  0  0  0
   34.4360   28.4390   33.6710 H   0  0  0  0  0  0  0  0  0  0  0  0
   32.7360   28.5310   35.5060 H   0  0  0  0  0  0  0  0  0  0  0  0
   37.0510   28.9270   33.9630 N   0  0  0  0  0  0  0  0  0  0  0  0
   37.1920   29.5370   33.1200 H   0  0  0  0  0  0  0  0  0  0  0  0
   37.6670   28.0960   34.2020 H   0  0  0  0  0  0  0  0  0  0  0  0
   37.9380   32.1470   40.4600 C   0  0  0  0  0  0  0  0  0  0  0  0
   37.8470   33.4940   40.2470 C   0  0  0  0  0  0  0  0  0  0  0  0
   37.0260   33.9750   39.7420 H   0  0  0  0  0  0  0  0  0  0  0  0
   38.9310   34.1590   40.7530 C   0  0  0  0  0  0  0  0  0  0  0  0
   39.1570   35.2250   40.7470 H   0  0  0  0  0  0  0  0  0  0  0  0
   39.6940   33.1660   41.2890 N   0  0  0  0  0  0  0  0  0  0  0  0
   40.6100   33.3590   41.7630 H   0  0  0  0  0  0  0  0  0  0  0  0
   39.1120   31.9960   41.1160 N   0  0  0  0  0  0  0  0  0  0  0  0
  1  2  1  0  0  0  0
  2  7  1  0  0  0  0
  3  2  2  0  0  0  0
  3  4  1  0  0  0  0
  4  5  2  0  0  0  0
  5  6  1  0  0  0  0
  5  9  1  0  0  0  0
  6 10  1  0  0  0  0
  7 22  1  0  0  0  0
  7  6  2  0  0  0  0
  8  4  1  0  0  0  0
 11 16  1  0  0  0  0
 12 11  2  0  0  0  0
 12 13  1  0  0  0  0
 13 14  2  0  0  0  0
 14 15  1  0  0  0  0
 15  3  1  0  0  0  0
 16 15  2  0  0  0  0
 17 12  1  0  0  0  0
 18 13  1  0  0  0  0
 19 21  1  0  0  0  0
 19 11  1  0  0  0  0
 20 19  1  0  0  0  0
 22 29  2  0  0  0  0
 23 22  1  0  0  0  0
 23 25  2  0  0  0  0
 24 23  1  0  0  0  0
 25 27  1  0  0  0  0
 26 25  1  0  0  0  0
 27 28  1  0  0  0  0
 29 27  1  0  0  0  0
M  END
>  <minimizedAffinity>
-5.49656534

$$$$

 OpenBabel03252506113D

 29 31  0  0  0  0  0  0  0  0999 V2000
   38.1770   28.2160   39.7390 F   0  0  0  0  0  0  0  0  0  0  0  0
   37.7830   28.0180   41.0020 C   0  0  0  0  0  0  0  0  0  0  0  0
   37.8160   29.0610   41.9050 C   0  0  0  0  0  0  0  0  0  0  0  0
   37.4230   28.9260   43.2260 C   0  0  0  0  0  0  0  0  0  0  0  0
   36.9710   27.6830   43.6800 C   0  0  0  0  0  0  0  0  0  0  0  0
   36.9550   26.6670   42.7410 C   0  0  0  0  0  0  0  0  0  0  0  0
   37.3410   26.7910   41.4300 C   0  0  0  0  0  0  0  0  0  0  0  0
   37.4640   29.7770   43.9150 H   0  0  0  0  0  0  0  0  0  0  0  0
   36.6570   27.5430   44.7010 H   0  0  0  0  0  0  0  0  0  0  0  0
   36.5970   25.7230   43.1350 H   0  0  0  0  0  0  0  0  0  0  0  0
   37.8510   32.4670   40.5190 C   0  0  0  0  0  0  0  0  0  0  0  0
   39.2070   32.8340   40.6720 C   0  0  0  0  0  0  0  0  0  0  0  0
   40.1010   31.9070   41.2500 C   0  0  0  0  0  0  0  0  0  0  0  0
   39.5740   30.7060   41.6240 N   0  0  0  0  0  0  0  0  0  0  0  0
   38.2870   30.3880   41.4670 C   0  0  0  0  0  0  0  0  0  0  0  0
   37.4420   31.2670   40.9190 N   0  0  0  0  0  0  0  0  0  0  0  0
   39.5700   33.8020   40.3570 H   0  0  0  0  0  0  0  0  0  0  0  0
   41.1380   32.1440   41.3840 H   0  0  0  0  0  0  0  0  0  0  0  0
   36.9570   33.4010   39.9380 N   0  0  0  0  0  0  0  0  0  0  0  0
   36.8940   33.7800   38.9610 H   0  0  0  0  0  0  0  0  0  0  0  0
   36.3000   33.6810   40.7240 H   0  0  0  0  0  0  0  0  0  0  0  0
   37.2700   25.6440   40.5640 C   0  0  0  0  0  0  0  0  0  0  0  0
   36.5410   25.3820   39.4370 C   0  0  0  0  0  0  0  0  0  0  0  0
   35.8420   26.0710   38.9930 H   0  0  0  0  0  0  0  0  0  0  0  0
   36.8070   24.1340   38.9430 C   0  0  0  0  0  0  0  0  0  0  0  0
   36.3960   23.6310   38.0680 H   0  0  0  0  0  0  0  0  0  0  0  0
   37.7320   23.6370   39.8110 N   0  0  0  0  0  0  0  0  0  0  0  0
   38.1440   22.6770   39.6990 H   0  0  0  0  0  0  0  0  0  0  0  0
   37.9990   24.5190   40.7530 N   0  0  0  0  0  0  0  0  0  0  0  0
  1  2  1  0  0  0  0
  2  7  2  0  0  0  0
  2  3  1  0  0  0  0
  3  4  2  0  0  0  0
  4  5  1  0  0  0  0
  4  8  1  0  0  0  0
  5  9  1  0  0  0  0
  6 10  1  0  0  0  0
  6  5  2  0  0  0  0
  7  6  1  0  0  0  0
 11 12  2  0  0  0  0
 11 16  1  0  0  0  0
 12 13  1  0  0  0  0
 13 18  1  0  0  0  0
 13 14  2  0  0  0  0
 15 14  1  0  0  0  0
 15  3  1  0  0  0  0
 16 15  2  0  0  0  0
 17 12  1  0  0  0  0
 19 11  1  0  0  0  0
 19 21  1  0  0  0  0
 20 19  1  0  0  0  0
 22 29  2  0  0  0  0
 22  7  1  0  0  0  0
 23 22  1  0  0  0  0
 24 23  1  0  0  0  0
 25 23  2  0  0  0  0
 25 27  1  0  0  0  0
 26 25  1  0  0  0  0
 27 29  1  0  0  0  0
 28 27  1  0  0  0  0
M  END
>  <minimizedAffinity>
-5.49323177

$$$$

 OpenBabel03252506113D

 29 31  0  0  0  0  0  0  0  0999 V2000
   40.3930   30.6350   40.9550 F   0  0  0  0  0  0  0  0  0  0  0  0
   39.2640   31.2750   40.6290 C   0  0  0  0  0  0  0  0  0  0  0  0
   39.3250   32.4920   39.9810 C   0  0  0  0  0  0  0  0  0  0  0  0
   38.1980   33.2080   39.6160 C   0  0  0  0  0  0  0  0  0  0  0  0
   36.9340   32.6880   39.9100 C   0  0  0  0  0  0  0  0  0  0  0  0
   36.9200   31.4660   40.5600 C   0  0  0  0  0  0  0  0  0  0  0  0
   38.0320   30.7490   40.9260 C   0  0  0  0  0  0  0  0  0  0  0  0
   38.2860   34.1720   39.1020 H   0  0  0  0  0  0  0  0  0  0  0  0
   36.0360   33.2180   39.6390 H   0  0  0  0  0  0  0  0  0  0  0  0
   35.9210   31.1010   40.7680 H   0  0  0  0  0  0  0  0  0  0  0  0
   42.1620   33.8450   38.0710 C   0  0  0  0  0  0  0  0  0  0  0  0
   43.0840   34.1600   39.0940 C   0  0  0  0  0  0  0  0  0  0  0  0
   42.7240   33.9040   40.4350 C   0  0  0  0  0  0  0  0  0  0  0  0
   41.4890   33.3630   40.6410 N   0  0  0  0  0  0  0  0  0  0  0  0
   40.6390   33.0760   39.6520 C   0  0  0  0  0  0  0  0  0  0  0  0
   40.9810   33.3180   38.3840 N   0  0  0  0  0  0  0  0  0  0  0  0
   44.0510   34.5880   38.8720 H   0  0  0  0  0  0  0  0  0  0  0  0
   43.3940   34.1270   41.2430 H   0  0  0  0  0  0  0  0  0  0  0  0
   42.5270   34.1040   36.7260 N   0  0  0  0  0  0  0  0  0  0  0  0
   43.2560   33.6620   36.1120 H   0  0  0  0  0  0  0  0  0  0  0  0
   41.8840   34.8870   36.4110 H   0  0  0  0  0  0  0  0  0  0  0  0
   37.8650   29.4880   41.5990 C   0  0  0  0  0  0  0  0  0  0  0  0
   37.5920   28.2290   41.1430 C   0  0  0  0  0  0  0  0  0  0  0  0
   37.4470   27.9760   40.1060 H   0  0  0  0  0  0  0  0  0  0  0  0
   37.5240   27.3250   42.1690 C   0  0  0  0  0  0  0  0  0  0  0  0
   37.3260   26.2540   42.1400 H   0  0  0  0  0  0  0  0  0  0  0  0
   37.7670   28.0800   43.2770 N   0  0  0  0  0  0  0  0  0  0  0  0
   37.7840   27.6670   44.2420 H   0  0  0  0  0  0  0  0  0  0  0  0
   37.9650   29.3390   42.9400 N   0  0  0  0  0  0  0  0  0  0  0  0
  2  7  1  0  0  0  0
  2  1  1  0  0  0  0
  3  2  2  0  0  0  0
  4  5  2  0  0  0  0
  4  3  1  0  0  0  0
  5  6  1  0  0  0  0
  6 10  1  0  0  0  0
  6  7  2  0  0  0  0
  7 22  1  0  0  0  0
  8  4  1  0  0  0  0
  9  5  1  0  0  0  0
 11 16  2  0  0  0  0
 11 12  1  0  0  0  0
 12 13  2  0  0  0  0
 13 14  1  0  0  0  0
 13 18  1  0  0  0  0
 15  3  1  0  0  0  0
 15 14  2  0  0  0  0
 16 15  1  0  0  0  0
 17 12  1  0  0  0  0
 19 11  1  0  0  0  0
 20 19  1  0  0  0  0
 21 19  1  0  0  0  0
 22 29  2  0  0  0  0
 23 22  1  0  0  0  0
 23 25  2  0  0  0  0
 24 23  1  0  0  0  0
 25 27  1  0  0  0  0
 26 25  1  0  0  0  0
 27 28  1  0  0  0  0
 29 27  1  0  0  0  0
M  END
>  <minimizedAffinity>
-5.41090393

$$$$

 OpenBabel03252506113D

 29 31  0  0  0  0  0  0  0  0999 V2000
   36.7970   29.9890   36.7130 F   0  0  0  0  0  0  0  0  0  0  0  0
   35.7060   29.2800   36.4010 C   0  0  0  0  0  0  0  0  0  0  0  0
   35.0380   28.5770   37.3830 C   0  0  0  0  0  0  0  0  0  0  0  0
   33.9050   27.8230   37.1300 C   0  0  0  0  0  0  0  0  0  0  0  0
   33.4030   27.7610   35.8270 C   0  0  0  0  0  0  0  0  0  0  0  0
   34.1040   28.4810   34.8750 C   0  0  0  0  0  0  0  0  0  0  0  0
   35.2270   29.2310   35.1160 C   0  0  0  0  0  0  0  0  0  0  0  0
   33.4010   27.2770   37.9360 H   0  0  0  0  0  0  0  0  0  0  0  0
   32.5220   27.1850   35.5950 H   0  0  0  0  0  0  0  0  0  0  0  0
   33.6800   28.4050   33.8810 H   0  0  0  0  0  0  0  0  0  0  0  0
   35.8610   29.7730   40.7610 C   0  0  0  0  0  0  0  0  0  0  0  0
   36.4710   28.6370   41.3370 C   0  0  0  0  0  0  0  0  0  0  0  0
   36.5950   27.4650   40.5600 C   0  0  0  0  0  0  0  0  0  0  0  0
   36.1070   27.5240   39.2870 N   0  0  0  0  0  0  0  0  0  0  0  0
   35.5360   28.6150   38.7710 C   0  0  0  0  0  0  0  0  0  0  0  0
   35.4190   29.7230   39.5080 N   0  0  0  0  0  0  0  0  0  0  0  0
   36.8400   28.6460   42.3530 H   0  0  0  0  0  0  0  0  0  0  0  0
   37.0510   26.5790   40.9570 H   0  0  0  0  0  0  0  0  0  0  0  0
   35.7380   30.9480   41.5460 N   0  0  0  0  0  0  0  0  0  0  0  0
   36.4660   31.6090   41.9170 H   0  0  0  0  0  0  0  0  0  0  0  0
   34.6960   31.0610   41.7120 H   0  0  0  0  0  0  0  0  0  0  0  0
   35.8540   29.9290   34.0240 C   0  0  0  0  0  0  0  0  0  0  0  0
   35.8940   31.2510   33.6770 C   0  0  0  0  0  0  0  0  0  0  0  0
   35.4110   32.0390   34.2300 H   0  0  0  0  0  0  0  0  0  0  0  0
   36.6250   31.4500   32.5370 C   0  0  0  0  0  0  0  0  0  0  0  0
   36.8450   32.3760   32.0070 H   0  0  0  0  0  0  0  0  0  0  0  0
   37.0350   30.1970   32.1960 N   0  0  0  0  0  0  0  0  0  0  0  0
   37.6270   30.0130   31.3490 H   0  0  0  0  0  0  0  0  0  0  0  0
   36.5830   29.3140   33.0650 N   0  0  0  0  0  0  0  0  0  0  0  0
  2  1  1  0  0  0  0
  2  3  1  0  0  0  0
  3 15  1  0  0  0  0
  4  3  2  0  0  0  0
  4  8  1  0  0  0  0
  5  4  1  0  0  0  0
  6  7  1  0  0  0  0
  6  5  2  0  0  0  0
  7  2  2  0  0  0  0
  9  5  1  0  0  0  0
 10  6  1  0  0  0  0
 11 12  1  0  0  0  0
 11 19  1  0  0  0  0
 12 17  1  0  0  0  0
 13 18  1  0  0  0  0
 13 12  2  0  0  0  0
 14 13  1  0  0  0  0
 15 14  2  0  0  0  0
 15 16  1  0  0  0  0
 16 11  2  0  0  0  0
 19 21  1  0  0  0  0
 19 20  1  0  0  0  0
 22  7  1  0  0  0  0
 23 22  1  0  0  0  0
 23 24  1  0  0  0  0
 25 23  2  0  0  0  0
 26 25  1  0  0  0  0
 27 25  1  0  0  0  0
 27 29  1  0  0  0  0
 28 27  1  0  0  0  0
 29 22  2  0  0  0  0
M  END
>  <minimizedAffinity>
-5.38237572

$$$$

 OpenBabel03252506113D

 29 31  0  0  0  0  0  0  0  0999 V2000
   37.5430   30.9370   37.2810 F   0  0  0  0  0  0  0  0  0  0  0  0
   36.6850   30.3530   38.1230 C   0  0  0  0  0  0  0  0  0  0  0  0
   36.6290   30.7580   39.4410 C   0  0  0  0  0  0  0  0  0  0  0  0
   35.7650   30.1970   40.3660 C   0  0  0  0  0  0  0  0  0  0  0  0
   34.9040   29.1730   39.9620 C   0  0  0  0  0  0  0  0  0  0  0  0
   34.9940   28.7980   38.6320 C   0  0  0  0  0  0  0  0  0  0  0  0
   35.8460   29.3480   37.7080 C   0  0  0  0  0  0  0  0  0  0  0  0
   35.7490   30.5450   41.4050 H   0  0  0  0  0  0  0  0  0  0  0  0
   34.2190   28.7140   40.6550 H   0  0  0  0  0  0  0  0  0  0  0  0
   34.3090   28.0020   38.3620 H   0  0  0  0  0  0  0  0  0  0  0  0
   39.4100   32.5200   41.0800 C   0  0  0  0  0  0  0  0  0  0  0  0
   39.1430   33.8670   40.7500 C   0  0  0  0  0  0  0  0  0  0  0  0
   38.0070   34.1610   39.9650 C   0  0  0  0  0  0  0  0  0  0  0  0
   37.2420   33.1000   39.5800 N   0  0  0  0  0  0  0  0  0  0  0  0
   37.5210   31.8360   39.9090 C   0  0  0  0  0  0  0  0  0  0  0  0
   38.5960   31.5590   40.6520 N   0  0  0  0  0  0  0  0  0  0  0  0
   39.7850   34.6690   41.0830 H   0  0  0  0  0  0  0  0  0  0  0  0
   37.7660   35.1700   39.6910 H   0  0  0  0  0  0  0  0  0  0  0  0
   40.5520   32.2280   41.8690 N   0  0  0  0  0  0  0  0  0  0  0  0
   40.7710   32.4480   42.8720 H   0  0  0  0  0  0  0  0  0  0  0  0
   41.2090   31.7040   41.2210 H   0  0  0  0  0  0  0  0  0  0  0  0
   35.8300   28.8570   36.3560 C   0  0  0  0  0  0  0  0  0  0  0  0
   34.8390   28.7710   35.4180 C   0  0  0  0  0  0  0  0  0  0  0  0
   33.8230   29.0920   35.5770 H   0  0  0  0  0  0  0  0  0  0  0  0
   35.2970   28.2240   34.2500 C   0  0  0  0  0  0  0  0  0  0  0  0
   34.7630   28.0220   33.3220 H   0  0  0  0  0  0  0  0  0  0  0  0
   36.6110   27.9770   34.5060 N   0  0  0  0  0  0  0  0  0  0  0  0
   37.2500   27.5500   33.7900 H   0  0  0  0  0  0  0  0  0  0  0  0
   36.9170   28.3470   35.7330 N   0  0  0  0  0  0  0  0  0  0  0  0
  1  2  1  0  0  0  0
  2  3  1  0  0  0  0
  3 15  1  0  0  0  0
  3  4  2  0  0  0  0
  4  8  1  0  0  0  0
  5  4  1  0  0  0  0
  5  9  1  0  0  0  0
  6  5  2  0  0  0  0
  7  2  2  0  0  0  0
  7  6  1  0  0  0  0
 10  6  1  0  0  0  0
 11 19  1  0  0  0  0
 12 11  1  0  0  0  0
 12 17  1  0  0  0  0
 13 12  2  0  0  0  0
 14 15  2  0  0  0  0
 14 13  1  0  0  0  0
 15 16  1  0  0  0  0
 16 11  2  0  0  0  0
 18 13  1  0  0  0  0
 19 20  1  0  0  0  0
 21 19  1  0  0  0  0
 22  7  1  0  0  0  0
 23 24  1  0  0  0  0
 23 22  1  0  0  0  0
 25 27  1  0  0  0  0
 25 23  2  0  0  0  0
 26 25  1  0  0  0  0
 27 29  1  0  0  0  0
 28 27  1  0  0  0  0
 29 22  2  0  0  0  0
M  END
>  <minimizedAffinity>
-5.36799908

$$$$

 OpenBabel03252506113D

 29 31  0  0  0  0  0  0  0  0999 V2000
   40.0840   28.9690   40.1480 F   0  0  0  0  0  0  0  0  0  0  0  0
   38.8440   29.4120   40.3790 C   0  0  0  0  0  0  0  0  0  0  0  0
   38.0430   28.7670   41.2990 C   0  0  0  0  0  0  0  0  0  0  0  0
   36.7500   29.1720   41.5870 C   0  0  0  0  0  0  0  0  0  0  0  0
   36.2190   30.2820   40.9240 C   0  0  0  0  0  0  0  0  0  0  0  0
   37.0570   30.8970   40.0100 C   0  0  0  0  0  0  0  0  0  0  0  0
   38.3390   30.5040   39.7180 C   0  0  0  0  0  0  0  0  0  0  0  0
   36.1430   28.6350   42.3250 H   0  0  0  0  0  0  0  0  0  0  0  0
   35.2170   30.6240   41.1240 H   0  0  0  0  0  0  0  0  0  0  0  0
   36.6050   31.7520   39.5200 H   0  0  0  0  0  0  0  0  0  0  0  0
   38.5750   25.2950   42.3870 C   0  0  0  0  0  0  0  0  0  0  0  0
   39.5640   25.4460   43.3850 C   0  0  0  0  0  0  0  0  0  0  0  0
   40.0410   26.7420   43.6770 C   0  0  0  0  0  0  0  0  0  0  0  0
   39.4990   27.7670   42.9590 N   0  0  0  0  0  0  0  0  0  0  0  0
   38.5650   27.5920   42.0210 C   0  0  0  0  0  0  0  0  0  0  0  0
   38.1140   26.3640   41.7450 N   0  0  0  0  0  0  0  0  0  0  0  0
   39.9580   24.5970   43.9230 H   0  0  0  0  0  0  0  0  0  0  0  0
   40.7910   26.9020   44.4280 H   0  0  0  0  0  0  0  0  0  0  0  0
   38.0990   23.9910   42.0950 N   0  0  0  0  0  0  0  0  0  0  0  0
   37.5270   23.3220   42.6680 H   0  0  0  0  0  0  0  0  0  0  0  0
   38.4460   23.7840   41.1140 H   0  0  0  0  0  0  0  0  0  0  0  0
   39.0960   31.2420   38.7420 C   0  0  0  0  0  0  0  0  0  0  0  0
   40.3290   31.8300   38.7830 C   0  0  0  0  0  0  0  0  0  0  0  0
   40.9760   31.8230   39.6450 H   0  0  0  0  0  0  0  0  0  0  0  0
   40.6420   32.4300   37.5940 C   0  0  0  0  0  0  0  0  0  0  0  0
   41.5390   32.9770   37.3070 H   0  0  0  0  0  0  0  0  0  0  0  0
   39.5500   32.1880   36.8170 N   0  0  0  0  0  0  0  0  0  0  0  0
   39.4830   32.5270   35.8250 H   0  0  0  0  0  0  0  0  0  0  0  0
   38.6520   31.4950   37.4890 N   0  0  0  0  0  0  0  0  0  0  0  0
  1  2  1  0  0  0  0
  2  3  1  0  0  0  0
  3  4  2  0  0  0  0
  3 15  1  0  0  0  0
  4  8  1  0  0  0  0
  5  9  1  0  0  0  0
  5  4  1  0  0  0  0
  6  5  2  0  0  0  0
  7  6  1  0  0  0  0
  7  2  2  0  0  0  0
 10  6  1  0  0  0  0
 11 12  1  0  0  0  0
 12 13  2  0  0  0  0
 12 17  1  0  0  0  0
 13 18  1  0  0  0  0
 14 13  1  0  0  0  0
 15 14  2  0  0  0  0
 16 15  1  0  0  0  0
 16 11  2  0  0  0  0
 19 11  1  0  0  0  0
 19 20  1  0  0  0  0
 21 19  1  0  0  0  0
 22 23  1  0  0  0  0
 22  7  1  0  0  0  0
 23 24  1  0  0  0  0
 25 23  2  0  0  0  0
 26 25  1  0  0  0  0
 27 29  1  0  0  0  0
 27 25  1  0  0  0  0
 28 27  1  0  0  0  0
 29 22  2  0  0  0  0
M  END
>  <minimizedAffinity>
-5.34126472

$$$$

 OpenBabel03252506113D

 29 31  0  0  0  0  0  0  0  0999 V2000
   40.0570   28.9090   41.2780 F   0  0  0  0  0  0  0  0  0  0  0  0
   38.7220   28.8400   41.2420 C   0  0  0  0  0  0  0  0  0  0  0  0
   37.9940   29.8820   40.7060 C   0  0  0  0  0  0  0  0  0  0  0  0
   36.6110   29.8770   40.6380 C   0  0  0  0  0  0  0  0  0  0  0  0
   35.9070   28.7750   41.1310 C   0  0  0  0  0  0  0  0  0  0  0  0
   36.6780   27.7530   41.6590 C   0  0  0  0  0  0  0  0  0  0  0  0
   38.0480   27.7490   41.7310 C   0  0  0  0  0  0  0  0  0  0  0  0
   36.0660   30.7240   40.2050 H   0  0  0  0  0  0  0  0  0  0  0  0
   34.8310   28.7370   41.0930 H   0  0  0  0  0  0  0  0  0  0  0  0
   36.0920   26.9200   42.0280 H   0  0  0  0  0  0  0  0  0  0  0  0
   39.6390   32.2110   38.3840 C   0  0  0  0  0  0  0  0  0  0  0  0
   40.0000   33.2760   39.2400 C   0  0  0  0  0  0  0  0  0  0  0  0
   39.6760   33.1860   40.6100 C   0  0  0  0  0  0  0  0  0  0  0  0
   39.0260   32.0540   41.0090 N   0  0  0  0  0  0  0  0  0  0  0  0
   38.6970   31.0650   40.1750 C   0  0  0  0  0  0  0  0  0  0  0  0
   39.0050   31.1520   38.8780 N   0  0  0  0  0  0  0  0  0  0  0  0
   40.5160   34.1500   38.8690 H   0  0  0  0  0  0  0  0  0  0  0  0
   39.9320   33.9700   41.2960 H   0  0  0  0  0  0  0  0  0  0  0  0
   39.9660   32.3060   37.0070 N   0  0  0  0  0  0  0  0  0  0  0  0
   40.8950   32.2960   36.5170 H   0  0  0  0  0  0  0  0  0  0  0  0
   39.0340   32.3970   36.5080 H   0  0  0  0  0  0  0  0  0  0  0  0
   38.7180   26.6140   42.3080 C   0  0  0  0  0  0  0  0  0  0  0  0
   39.5130   26.4760   43.4130 C   0  0  0  0  0  0  0  0  0  0  0  0
   39.7770   27.2830   44.0750 H   0  0  0  0  0  0  0  0  0  0  0  0
   39.9330   25.1830   43.5730 C   0  0  0  0  0  0  0  0  0  0  0  0
   40.5680   24.7500   44.3440 H   0  0  0  0  0  0  0  0  0  0  0  0
   39.3640   24.5300   42.5220 N   0  0  0  0  0  0  0  0  0  0  0  0
   39.5000   23.5010   42.3630 H   0  0  0  0  0  0  0  0  0  0  0  0
   38.6580   25.3670   41.7880 N   0  0  0  0  0  0  0  0  0  0  0  0
  2  1  1  0  0  0  0
  2  7  1  0  0  0  0
  3  2  2  0  0  0  0
  4  3  1  0  0  0  0
  4  5  2  0  0  0  0
  5  6  1  0  0  0  0
  6  7  2  0  0  0  0
  6 10  1  0  0  0  0
  7 22  1  0  0  0  0
  8  4  1  0  0  0  0
  9  5  1  0  0  0  0
 11 16  2  0  0  0  0
 11 12  1  0  0  0  0
 12 13  2  0  0  0  0
 13 14  1  0  0  0  0
 13 18  1  0  0  0  0
 15  3  1  0  0  0  0
 15 14  2  0  0  0  0
 16 15  1  0  0  0  0
 17 12  1  0  0  0  0
 19 11  1  0  0  0  0
 20 19  1  0  0  0  0
 21 19  1  0  0  0  0
 22 23  1  0  0  0  0
 23 25  2  0  0  0  0
 23 24  1  0  0  0  0
 25 26  1  0  0  0  0
 27 25  1  0  0  0  0
 28 27  1  0  0  0  0
 29 22  2  0  0  0  0
 29 27  1  0  0  0  0
M  END
>  <minimizedAffinity>
-5.21398211

$$$$
