
 OpenBabel03252504133D

 34 36  0  0  0  0  0  0  0  0999 V2000
   47.6250   30.0440   44.8990 F   0  0  0  0  0  0  0  0  0  0  0  0
   47.5040   30.8050   46.0400 C   0  0  0  0  0  0  0  0  0  0  0  0
   46.9340   32.0580   45.9710 C   0  0  0  0  0  0  0  0  0  0  0  0
   46.8500   32.7610   47.1710 C   0  0  0  0  0  0  0  0  0  0  0  0
   47.3130   32.2290   48.3500 C   0  0  0  0  0  0  0  0  0  0  0  0
   47.8760   30.9640   48.3510 C   0  0  0  0  0  0  0  0  0  0  0  0
   47.9830   30.2230   47.1900 C   0  0  0  0  0  0  0  0  0  0  0  0
   46.4060   33.7600   47.1740 H   0  0  0  0  0  0  0  0  0  0  0  0
   47.2540   32.7630   49.2890 H   0  0  0  0  0  0  0  0  0  0  0  0
   48.2390   30.5510   49.2860 H   0  0  0  0  0  0  0  0  0  0  0  0
   48.5740   28.8910   47.1790 C   0  0  0  0  0  0  0  0  0  0  0  0
   49.9140   28.6290   46.9750 C   0  0  0  0  0  0  0  0  0  0  0  0
   50.7510   29.2880   46.7930 H   0  0  0  0  0  0  0  0  0  0  0  0
   49.9910   27.2420   47.0530 C   0  0  0  0  0  0  0  0  0  0  0  0
   50.8820   26.6610   46.9430 H   0  0  0  0  0  0  0  0  0  0  0  0
   48.7760   26.7160   47.2880 N   0  0  0  0  0  0  0  0  0  0  0  0
   48.4380   25.7380   47.4090 H   0  0  0  0  0  0  0  0  0  0  0  0
   47.9210   27.7290   47.3640 N   0  0  0  0  0  0  0  0  0  0  0  0
   46.7480   34.1360   42.9860 C   0  0  0  0  0  0  0  0  0  0  0  0
   45.6010   33.7150   42.3440 C   0  0  0  0  0  0  0  0  0  0  0  0
   44.8640   32.6780   42.9600 C   0  0  0  0  0  0  0  0  0  0  0  0
   45.3130   32.1640   44.1260 N   0  0  0  0  0  0  0  0  0  0  0  0
   46.4450   32.6140   44.7120 C   0  0  0  0  0  0  0  0  0  0  0  0
   47.1690   33.6030   44.1460 N   0  0  0  0  0  0  0  0  0  0  0  0
   43.9610   32.3280   42.4790 H   0  0  0  0  0  0  0  0  0  0  0  0
   45.1800   34.3300   41.0740 C   0  0  0  0  0  0  0  0  0  0  0  0
   44.9230   35.6670   41.2640 F   0  0  0  0  0  0  0  0  0  0  0  0
   46.2680   34.2690   40.1970 F   0  0  0  0  0  0  0  0  0  0  0  0
   44.1150   33.7560   40.4700 F   0  0  0  0  0  0  0  0  0  0  0  0
   47.4570   35.1390   42.3850 O   0  0  0  0  0  0  0  0  0  0  0  0
   48.7610   35.0600   41.8730 C   0  0  0  0  0  0  0  0  0  0  0  0
   49.6390   35.3660   42.9140 F   0  0  0  0  0  0  0  0  0  0  0  0
   48.9800   33.8190   41.3440 F   0  0  0  0  0  0  0  0  0  0  0  0
   48.9520   36.0650   40.9480 F   0  0  0  0  0  0  0  0  0  0  0  0
  1  2  1  0  0  0  0
  2  7  1  0  0  0  0
  3  2  2  0  0  0  0
  3  4  1  0  0  0  0
  4  8  1  0  0  0  0
  4  5  2  0  0  0  0
  5  6  1  0  0  0  0
  5  9  1  0  0  0  0
  6 10  1  0  0  0  0
  7  6  2  0  0  0  0
 11  7  1  0  0  0  0
 11 18  2  0  0  0  0
 12 14  2  0  0  0  0
 12 11  1  0  0  0  0
 13 12  1  0  0  0  0
 14 16  1  0  0  0  0
 15 14  1  0  0  0  0
 16 18  1  0  0  0  0
 16 17  1  0  0  0  0
 19 24  1  0  0  0  0
 20 21  1  0  0  0  0
 20 19  2  0  0  0  0
 21 22  2  0  0  0  0
 22 23  1  0  0  0  0
 23  3  1  0  0  0  0
 24 23  2  0  0  0  0
 25 21  1  0  0  0  0
 26 27  1  0  0  0  0
 26 20  1  0  0  0  0
 28 26  1  0  0  0  0
 29 26  1  0  0  0  0
 30 19  1  0  0  0  0
 31 30  1  0  0  0  0
 31 32  1  0  0  0  0
 33 31  1  0  0  0  0
 34 31  1  0  0  0  0
M  END
>  <minimizedAffinity>
-5.52370548

>  <minimizedRMSD>
0.277838439

$$$$
