
 OpenBabel03252509303D

 20 21  0  0  0  0  0  0  0  0999 V2000
   39.1390   30.3490   41.4300 C   0  0  0  0  0  0  0  0  0  0  0  0
   39.7500   29.9860   40.5520 H   0  0  0  0  0  0  0  0  0  0  0  0
   39.8880   30.6440   42.1910 H   0  0  0  0  0  0  0  0  0  0  0  0
   37.2730   28.0380   43.6800 C   0  0  0  0  0  0  0  0  0  0  0  0
   38.0730   29.1220   43.2600 C   0  0  0  0  0  0  0  0  0  0  0  0
   38.3100   29.2280   41.8800 C   0  0  0  0  0  0  0  0  0  0  0  0
   37.7660   28.2970   41.0440 N   0  0  0  0  0  0  0  0  0  0  0  0
   37.0070   27.2760   41.4980 C   0  0  0  0  0  0  0  0  0  0  0  0
   36.7660   27.1570   42.8270 N   0  0  0  0  0  0  0  0  0  0  0  0
   37.1260   28.0100   44.7560 H   0  0  0  0  0  0  0  0  0  0  0  0
   38.4810   29.8350   43.9600 H   0  0  0  0  0  0  0  0  0  0  0  0
   36.6280   26.5990   40.7430 H   0  0  0  0  0  0  0  0  0  0  0  0
   38.3770   31.5100   40.9240 C   0  0  0  0  0  0  0  0  0  0  0  0
   39.0580   32.6920   40.6550 C   0  0  0  0  0  0  0  0  0  0  0  0
   40.1230   32.9360   40.7540 H   0  0  0  0  0  0  0  0  0  0  0  0
   38.1860   33.6610   40.1920 C   0  0  0  0  0  0  0  0  0  0  0  0
   38.3460   34.6740   39.8910 H   0  0  0  0  0  0  0  0  0  0  0  0
   36.9820   33.0210   40.1990 N   0  0  0  0  0  0  0  0  0  0  0  0
   36.0340   33.3830   39.9210 H   0  0  0  0  0  0  0  0  0  0  0  0
   37.0920   31.7550   40.6290 N   0  0  0  0  0  0  0  0  0  0  0  0
  1  6  1  0  0  0  0
  1  3  1  0  0  0  0
  2  1  1  0  0  0  0
  4 10  1  0  0  0  0
  5  4  1  0  0  0  0
  5 11  1  0  0  0  0
  6  5  2  0  0  0  0
  7  8  2  0  0  0  0
  7  6  1  0  0  0  0
  8  9  1  0  0  0  0
  9  4  2  0  0  0  0
 12  8  1  0  0  0  0
 13  1  1  0  0  0  0
 14 15  1  0  0  0  0
 14 13  1  0  0  0  0
 16 18  1  0  0  0  0
 16 14  2  0  0  0  0
 17 16  1  0  0  0  0
 18 20  1  0  0  0  0
 19 18  1  0  0  0  0
 20 13  2  0  0  0  0
M  END
>  <minimizedAffinity>
-3.96520686

$$$$

 OpenBabel03252509303D

 20 21  0  0  0  0  0  0  0  0999 V2000
   36.1290   30.6980   41.0800 C   0  0  0  0  0  0  0  0  0  0  0  0
   35.8560   31.4360   41.8900 H   0  0  0  0  0  0  0  0  0  0  0  0
   35.1580   30.3000   40.7250 H   0  0  0  0  0  0  0  0  0  0  0  0
   37.2640   27.3550   42.2730 C   0  0  0  0  0  0  0  0  0  0  0  0
   36.4560   28.3460   41.6770 C   0  0  0  0  0  0  0  0  0  0  0  0
   36.9570   29.6580   41.6960 C   0  0  0  0  0  0  0  0  0  0  0  0
   38.1690   29.8920   42.2790 N   0  0  0  0  0  0  0  0  0  0  0  0
   38.9030   28.9070   42.8370 C   0  0  0  0  0  0  0  0  0  0  0  0
   38.4370   27.6330   42.8280 N   0  0  0  0  0  0  0  0  0  0  0  0
   36.8230   26.3630   42.2270 H   0  0  0  0  0  0  0  0  0  0  0  0
   35.5030   28.1120   41.2270 H   0  0  0  0  0  0  0  0  0  0  0  0
   39.8480   29.2090   43.2690 H   0  0  0  0  0  0  0  0  0  0  0  0
   36.8160   31.4920   40.0410 C   0  0  0  0  0  0  0  0  0  0  0  0
   36.9400   30.9570   38.7630 C   0  0  0  0  0  0  0  0  0  0  0  0
   36.6010   29.9950   38.3600 H   0  0  0  0  0  0  0  0  0  0  0  0
   37.6060   31.8390   37.9300 C   0  0  0  0  0  0  0  0  0  0  0  0
   37.8810   31.7700   36.8990 H   0  0  0  0  0  0  0  0  0  0  0  0
   37.8690   32.8980   38.7480 N   0  0  0  0  0  0  0  0  0  0  0  0
   38.3630   33.8000   38.5300 H   0  0  0  0  0  0  0  0  0  0  0  0
   37.4040   32.6960   39.9900 N   0  0  0  0  0  0  0  0  0  0  0  0
  1  6  1  0  0  0  0
  1  2  1  0  0  0  0
  3  1  1  0  0  0  0
  4  9  1  0  0  0  0
  5  6  1  0  0  0  0
  5  4  2  0  0  0  0
  6  7  2  0  0  0  0
  7  8  1  0  0  0  0
  8 12  1  0  0  0  0
  9  8  2  0  0  0  0
 10  4  1  0  0  0  0
 11  5  1  0  0  0  0
 13  1  1  0  0  0  0
 14 13  1  0  0  0  0
 15 14  1  0  0  0  0
 16 18  1  0  0  0  0
 16 14  2  0  0  0  0
 17 16  1  0  0  0  0
 18 20  1  0  0  0  0
 19 18  1  0  0  0  0
 20 13  2  0  0  0  0
M  END
>  <minimizedAffinity>
-3.90158725

$$$$

 OpenBabel03252509303D

 20 21  0  0  0  0  0  0  0  0999 V2000
   37.1100   32.1710   39.8710 C   0  0  0  0  0  0  0  0  0  0  0  0
   37.6660   32.8150   40.6140 H   0  0  0  0  0  0  0  0  0  0  0  0
   36.1700   32.7220   39.6710 H   0  0  0  0  0  0  0  0  0  0  0  0
   35.5500   28.8810   40.6610 C   0  0  0  0  0  0  0  0  0  0  0  0
   35.7760   30.1250   40.0360 C   0  0  0  0  0  0  0  0  0  0  0  0
   36.8630   30.8770   40.5110 C   0  0  0  0  0  0  0  0  0  0  0  0
   37.6190   30.3700   41.5280 N   0  0  0  0  0  0  0  0  0  0  0  0
   37.3600   29.1730   42.0940 C   0  0  0  0  0  0  0  0  0  0  0  0
   36.3150   28.4320   41.6480 N   0  0  0  0  0  0  0  0  0  0  0  0
   34.6970   28.3470   40.2500 H   0  0  0  0  0  0  0  0  0  0  0  0
   35.1490   30.4830   39.2330 H   0  0  0  0  0  0  0  0  0  0  0  0
   38.0260   28.8730   42.8920 H   0  0  0  0  0  0  0  0  0  0  0  0
   37.9800   32.1080   38.6780 C   0  0  0  0  0  0  0  0  0  0  0  0
   39.3580   32.1700   38.8510 C   0  0  0  0  0  0  0  0  0  0  0  0
   39.9560   32.2610   39.7660 H   0  0  0  0  0  0  0  0  0  0  0  0
   40.0050   32.0970   37.6300 C   0  0  0  0  0  0  0  0  0  0  0  0
   41.0430   32.1140   37.3750 H   0  0  0  0  0  0  0  0  0  0  0  0
   38.9760   31.9930   36.7410 N   0  0  0  0  0  0  0  0  0  0  0  0
   39.0070   31.9120   35.6930 H   0  0  0  0  0  0  0  0  0  0  0  0
   37.7830   31.9990   37.3560 N   0  0  0  0  0  0  0  0  0  0  0  0
  1  6  1  0  0  0  0
  1  2  1  0  0  0  0
  3  1  1  0  0  0  0
  4  9  1  0  0  0  0
  5  6  1  0  0  0  0
  5  4  2  0  0  0  0
  6  7  2  0  0  0  0
  7  8  1  0  0  0  0
  8 12  1  0  0  0  0
  9  8  2  0  0  0  0
 10  4  1  0  0  0  0
 11  5  1  0  0  0  0
 13 14  1  0  0  0  0
 13  1  1  0  0  0  0
 14 15  1  0  0  0  0
 16 14  2  0  0  0  0
 17 16  1  0  0  0  0
 18 20  1  0  0  0  0
 18 16  1  0  0  0  0
 19 18  1  0  0  0  0
 20 13  2  0  0  0  0
M  END
>  <minimizedAffinity>
-3.77793241

$$$$

 OpenBabel03252509303D

 20 21  0  0  0  0  0  0  0  0999 V2000
   36.7740   27.1670   42.9220 C   0  0  0  0  0  0  0  0  0  0  0  0
   37.2320   27.4080   43.9260 H   0  0  0  0  0  0  0  0  0  0  0  0
   35.7450   26.8280   43.1580 H   0  0  0  0  0  0  0  0  0  0  0  0
   37.7280   23.8540   41.5100 C   0  0  0  0  0  0  0  0  0  0  0  0
   36.9420   24.8700   42.0940 C   0  0  0  0  0  0  0  0  0  0  0  0
   37.5770   26.1020   42.3170 C   0  0  0  0  0  0  0  0  0  0  0  0
   38.8890   26.2420   41.9640 N   0  0  0  0  0  0  0  0  0  0  0  0
   39.5970   25.2360   41.4090 C   0  0  0  0  0  0  0  0  0  0  0  0
   39.0020   24.0380   41.1850 N   0  0  0  0  0  0  0  0  0  0  0  0
   37.1820   22.9260   41.3620 H   0  0  0  0  0  0  0  0  0  0  0  0
   35.9070   24.7120   42.3550 H   0  0  0  0  0  0  0  0  0  0  0  0
   40.6280   25.4610   41.1700 H   0  0  0  0  0  0  0  0  0  0  0  0
   36.7790   28.4410   42.1730 C   0  0  0  0  0  0  0  0  0  0  0  0
   35.8470   28.6240   41.1570 C   0  0  0  0  0  0  0  0  0  0  0  0
   35.0590   27.9560   40.7880 H   0  0  0  0  0  0  0  0  0  0  0  0
   36.0030   29.8680   40.5730 C   0  0  0  0  0  0  0  0  0  0  0  0
   35.4770   30.3480   39.7760 H   0  0  0  0  0  0  0  0  0  0  0  0
   37.0460   30.4070   41.2670 N   0  0  0  0  0  0  0  0  0  0  0  0
   37.5050   31.3460   41.1560 H   0  0  0  0  0  0  0  0  0  0  0  0
   37.5050   29.5680   42.2090 N   0  0  0  0  0  0  0  0  0  0  0  0
  1  3  1  0  0  0  0
  1  2  1  0  0  0  0
  4  5  1  0  0  0  0
  5  6  2  0  0  0  0
  5 11  1  0  0  0  0
  6  1  1  0  0  0  0
  7  6  1  0  0  0  0
  8  7  2  0  0  0  0
  9  8  1  0  0  0  0
  9  4  2  0  0  0  0
 10  4  1  0  0  0  0
 12  8  1  0  0  0  0
 13 20  2  0  0  0  0
 13  1  1  0  0  0  0
 14 13  1  0  0  0  0
 15 14  1  0  0  0  0
 16 14  2  0  0  0  0
 16 18  1  0  0  0  0
 17 16  1  0  0  0  0
 18 20  1  0  0  0  0
 19 18  1  0  0  0  0
M  END
>  <minimizedAffinity>
-3.71937418

$$$$

 OpenBabel03252509303D

 20 21  0  0  0  0  0  0  0  0999 V2000
   35.7480   29.1690   40.8970 C   0  0  0  0  0  0  0  0  0  0  0  0
   35.4700   28.3820   40.1360 H   0  0  0  0  0  0  0  0  0  0  0  0
   34.7880   29.4540   41.3700 H   0  0  0  0  0  0  0  0  0  0  0  0
   37.1670   31.1910   38.1070 C   0  0  0  0  0  0  0  0  0  0  0  0
   36.5830   30.1060   38.7950 C   0  0  0  0  0  0  0  0  0  0  0  0
   36.3550   30.2870   40.1690 C   0  0  0  0  0  0  0  0  0  0  0  0
   36.7030   31.4740   40.7450 N   0  0  0  0  0  0  0  0  0  0  0  0
   37.2610   32.4810   40.0400 C   0  0  0  0  0  0  0  0  0  0  0  0
   37.4890   32.3270   38.7120 N   0  0  0  0  0  0  0  0  0  0  0  0
   37.3180   30.9910   37.0490 H   0  0  0  0  0  0  0  0  0  0  0  0
   36.3230   29.1860   38.2950 H   0  0  0  0  0  0  0  0  0  0  0  0
   37.4960   33.3760   40.6020 H   0  0  0  0  0  0  0  0  0  0  0  0
   36.6550   28.4930   41.8470 C   0  0  0  0  0  0  0  0  0  0  0  0
   36.9640   27.1530   41.6400 C   0  0  0  0  0  0  0  0  0  0  0  0
   36.6380   26.4630   40.8530 H   0  0  0  0  0  0  0  0  0  0  0  0
   37.8210   26.6940   42.6250 C   0  0  0  0  0  0  0  0  0  0  0  0
   38.2640   25.7350   42.7890 H   0  0  0  0  0  0  0  0  0  0  0  0
   38.0060   27.7930   43.4100 N   0  0  0  0  0  0  0  0  0  0  0  0
   38.5890   27.9000   44.2790 H   0  0  0  0  0  0  0  0  0  0  0  0
   37.3210   28.8540   42.9550 N   0  0  0  0  0  0  0  0  0  0  0  0
  1  3  1  0  0  0  0
  1 13  1  0  0  0  0
  2  1  1  0  0  0  0
  4  9  2  0  0  0  0
  4  5  1  0  0  0  0
  5  6  2  0  0  0  0
  6  7  1  0  0  0  0
  6  1  1  0  0  0  0
  8 12  1  0  0  0  0
  8  7  2  0  0  0  0
  9  8  1  0  0  0  0
 10  4  1  0  0  0  0
 11  5  1  0  0  0  0
 13 20  2  0  0  0  0
 14 13  1  0  0  0  0
 14 16  2  0  0  0  0
 15 14  1  0  0  0  0
 16 17  1  0  0  0  0
 16 18  1  0  0  0  0
 18 19  1  0  0  0  0
 20 18  1  0  0  0  0
M  END
>  <minimizedAffinity>
-3.71655369

$$$$

 OpenBabel03252509303D

 20 21  0  0  0  0  0  0  0  0999 V2000
   37.5210   28.4050   43.5950 C   0  0  0  0  0  0  0  0  0  0  0  0
   36.4070   28.2210   43.5780 H   0  0  0  0  0  0  0  0  0  0  0  0
   37.7390   28.7080   44.6380 H   0  0  0  0  0  0  0  0  0  0  0  0
   39.3420   31.0820   41.7500 C   0  0  0  0  0  0  0  0  0  0  0  0
   39.0860   30.0470   42.6750 C   0  0  0  0  0  0  0  0  0  0  0  0
   37.8010   29.4810   42.6400 C   0  0  0  0  0  0  0  0  0  0  0  0
   36.8970   29.9530   41.7340 N   0  0  0  0  0  0  0  0  0  0  0  0
   37.1930   30.9470   40.8700 C   0  0  0  0  0  0  0  0  0  0  0  0
   38.4280   31.5070   40.8880 N   0  0  0  0  0  0  0  0  0  0  0  0
   40.3510   31.4790   41.8260 H   0  0  0  0  0  0  0  0  0  0  0  0
   39.8350   29.7070   43.3740 H   0  0  0  0  0  0  0  0  0  0  0  0
   36.3970   31.2400   40.1970 H   0  0  0  0  0  0  0  0  0  0  0  0
   38.1390   27.1070   43.2550 C   0  0  0  0  0  0  0  0  0  0  0  0
   37.4520   26.2390   42.4120 C   0  0  0  0  0  0  0  0  0  0  0  0
   36.4760   26.3470   41.9240 H   0  0  0  0  0  0  0  0  0  0  0  0
   38.1820   25.0810   42.2090 C   0  0  0  0  0  0  0  0  0  0  0  0
   37.9760   24.2050   41.6310 H   0  0  0  0  0  0  0  0  0  0  0  0
   39.3070   25.2910   42.9490 N   0  0  0  0  0  0  0  0  0  0  0  0
   40.1410   24.6650   43.0850 H   0  0  0  0  0  0  0  0  0  0  0  0
   39.2840   26.4830   43.5660 N   0  0  0  0  0  0  0  0  0  0  0  0
  1  3  1  0  0  0  0
  2  1  1  0  0  0  0
  4 10  1  0  0  0  0
  4  5  1  0  0  0  0
  5 11  1  0  0  0  0
  6  5  2  0  0  0  0
  6  1  1  0  0  0  0
  7  6  1  0  0  0  0
  8  9  1  0  0  0  0
  8  7  2  0  0  0  0
  9  4  2  0  0  0  0
 12  8  1  0  0  0  0
 13 20  2  0  0  0  0
 13  1  1  0  0  0  0
 14 13  1  0  0  0  0
 15 14  1  0  0  0  0
 16 14  2  0  0  0  0
 16 18  1  0  0  0  0
 17 16  1  0  0  0  0
 18 19  1  0  0  0  0
 18 20  1  0  0  0  0
M  END
>  <minimizedAffinity>
-3.69763422

$$$$

 OpenBabel03252509303D

 20 21  0  0  0  0  0  0  0  0999 V2000
   38.1700   29.6960   40.2730 C   0  0  0  0  0  0  0  0  0  0  0  0
   39.1970   29.2470   40.1350 H   0  0  0  0  0  0  0  0  0  0  0  0
   37.5700   29.2870   39.4360 H   0  0  0  0  0  0  0  0  0  0  0  0
   37.3540   33.2770   39.6490 C   0  0  0  0  0  0  0  0  0  0  0  0
   37.2020   31.8770   39.7260 C   0  0  0  0  0  0  0  0  0  0  0  0
   38.3130   31.1510   40.1870 C   0  0  0  0  0  0  0  0  0  0  0  0
   39.4480   31.8290   40.5250 N   0  0  0  0  0  0  0  0  0  0  0  0
   39.5420   33.1720   40.4320 C   0  0  0  0  0  0  0  0  0  0  0  0
   38.4800   33.8910   39.9890 N   0  0  0  0  0  0  0  0  0  0  0  0
   36.4620   33.7820   39.2860 H   0  0  0  0  0  0  0  0  0  0  0  0
   36.2820   31.3860   39.4480 H   0  0  0  0  0  0  0  0  0  0  0  0
   40.4910   33.6010   40.7280 H   0  0  0  0  0  0  0  0  0  0  0  0
   37.6990   29.2030   41.5840 C   0  0  0  0  0  0  0  0  0  0  0  0
   36.9270   28.0470   41.6270 C   0  0  0  0  0  0  0  0  0  0  0  0
   36.5810   27.3940   40.8170 H   0  0  0  0  0  0  0  0  0  0  0  0
   36.5820   27.7410   42.9310 C   0  0  0  0  0  0  0  0  0  0  0  0
   36.0040   26.9410   43.3430 H   0  0  0  0  0  0  0  0  0  0  0  0
   37.1670   28.7420   43.6490 N   0  0  0  0  0  0  0  0  0  0  0  0
   37.1640   28.9060   44.6870 H   0  0  0  0  0  0  0  0  0  0  0  0
   37.8260   29.6030   42.8580 N   0  0  0  0  0  0  0  0  0  0  0  0
  1 13  1  0  0  0  0
  2  1  1  0  0  0  0
  3  1  1  0  0  0  0
  4  5  2  0  0  0  0
  4  9  1  0  0  0  0
  5  6  1  0  0  0  0
  6  1  1  0  0  0  0
  6  7  2  0  0  0  0
  8  7  1  0  0  0  0
  8 12  1  0  0  0  0
  9  8  2  0  0  0  0
 10  4  1  0  0  0  0
 11  5  1  0  0  0  0
 13 14  1  0  0  0  0
 13 20  2  0  0  0  0
 14 16  2  0  0  0  0
 15 14  1  0  0  0  0
 16 17  1  0  0  0  0
 16 18  1  0  0  0  0
 18 19  1  0  0  0  0
 20 18  1  0  0  0  0
M  END
>  <minimizedAffinity>
-3.66847873

$$$$

 OpenBabel03252509303D

 20 21  0  0  0  0  0  0  0  0999 V2000
   38.1180   27.9680   40.8730 C   0  0  0  0  0  0  0  0  0  0  0  0
   38.6750   28.0880   39.8980 H   0  0  0  0  0  0  0  0  0  0  0  0
   38.8960   28.0720   41.6550 H   0  0  0  0  0  0  0  0  0  0  0  0
   36.9320   24.6460   42.0710 C   0  0  0  0  0  0  0  0  0  0  0  0
   37.5170   25.9290   42.0870 C   0  0  0  0  0  0  0  0  0  0  0  0
   37.5140   26.6340   40.8720 C   0  0  0  0  0  0  0  0  0  0  0  0
   36.9570   26.0480   39.7720 N   0  0  0  0  0  0  0  0  0  0  0  0
   36.4090   24.8150   39.8100 C   0  0  0  0  0  0  0  0  0  0  0  0
   36.4030   24.1190   40.9740 N   0  0  0  0  0  0  0  0  0  0  0  0
   36.9650   24.1520   43.0380 H   0  0  0  0  0  0  0  0  0  0  0  0
   37.9450   26.3510   42.9830 H   0  0  0  0  0  0  0  0  0  0  0  0
   35.9980   24.4530   38.8770 H   0  0  0  0  0  0  0  0  0  0  0  0
   37.1460   29.0810   40.9080 C   0  0  0  0  0  0  0  0  0  0  0  0
   37.6130   30.3820   40.7540 C   0  0  0  0  0  0  0  0  0  0  0  0
   38.6320   30.7580   40.6020 H   0  0  0  0  0  0  0  0  0  0  0  0
   36.5650   31.2840   40.8140 C   0  0  0  0  0  0  0  0  0  0  0  0
   36.5420   32.3500   40.7380 H   0  0  0  0  0  0  0  0  0  0  0  0
   35.4780   30.4830   41.0070 N   0  0  0  0  0  0  0  0  0  0  0  0
   34.4660   30.7480   41.1110 H   0  0  0  0  0  0  0  0  0  0  0  0
   35.8180   29.1860   41.0630 N   0  0  0  0  0  0  0  0  0  0  0  0
  1 13  1  0  0  0  0
  1  3  1  0  0  0  0
  2  1  1  0  0  0  0
  4  5  1  0  0  0  0
  4 10  1  0  0  0  0
  5 11  1  0  0  0  0
  6  1  1  0  0  0  0
  6  5  2  0  0  0  0
  7  8  2  0  0  0  0
  7  6  1  0  0  0  0
  8  9  1  0  0  0  0
  9  4  2  0  0  0  0
 12  8  1  0  0  0  0
 13 20  2  0  0  0  0
 14 16  2  0  0  0  0
 14 13  1  0  0  0  0
 15 14  1  0  0  0  0
 16 18  1  0  0  0  0
 17 16  1  0  0  0  0
 18 20  1  0  0  0  0
 18 19  1  0  0  0  0
M  END
>  <minimizedAffinity>
-3.603091

$$$$

 OpenBabel03252509303D

 20 21  0  0  0  0  0  0  0  0999 V2000
   36.9180   26.9380   42.9270 C   0  0  0  0  0  0  0  0  0  0  0  0
   35.8380   26.8540   42.6070 H   0  0  0  0  0  0  0  0  0  0  0  0
   36.8890   26.8570   44.0320 H   0  0  0  0  0  0  0  0  0  0  0  0
   37.1430   30.1640   41.0770 C   0  0  0  0  0  0  0  0  0  0  0  0
   36.6610   28.9050   41.4930 C   0  0  0  0  0  0  0  0  0  0  0  0
   37.4060   28.2460   42.4850 C   0  0  0  0  0  0  0  0  0  0  0  0
   38.5280   28.8490   42.9760 N   0  0  0  0  0  0  0  0  0  0  0  0
   38.9460   30.0570   42.5430 C   0  0  0  0  0  0  0  0  0  0  0  0
   38.2410   30.7090   41.5860 N   0  0  0  0  0  0  0  0  0  0  0  0
   36.5250   30.6230   40.3090 H   0  0  0  0  0  0  0  0  0  0  0  0
   35.7670   28.4680   41.0740 H   0  0  0  0  0  0  0  0  0  0  0  0
   39.8480   30.4370   43.0040 H   0  0  0  0  0  0  0  0  0  0  0  0
   37.6020   25.7850   42.3050 C   0  0  0  0  0  0  0  0  0  0  0  0
   36.8470   24.6780   41.9350 C   0  0  0  0  0  0  0  0  0  0  0  0
   35.7700   24.4900   42.0260 H   0  0  0  0  0  0  0  0  0  0  0  0
   37.6540   23.7050   41.3730 C   0  0  0  0  0  0  0  0  0  0  0  0
   37.4290   22.7370   40.9800 H   0  0  0  0  0  0  0  0  0  0  0  0
   38.8960   24.2670   41.4220 N   0  0  0  0  0  0  0  0  0  0  0  0
   39.8170   23.8760   41.0990 H   0  0  0  0  0  0  0  0  0  0  0  0
   38.8680   25.4920   41.9710 N   0  0  0  0  0  0  0  0  0  0  0  0
  1  3  1  0  0  0  0
  2  1  1  0  0  0  0
  4  5  2  0  0  0  0
  4  9  1  0  0  0  0
  5  6  1  0  0  0  0
  6  1  1  0  0  0  0
  6  7  2  0  0  0  0
  8  7  1  0  0  0  0
  8 12  1  0  0  0  0
  9  8  2  0  0  0  0
 10  4  1  0  0  0  0
 11  5  1  0  0  0  0
 13  1  1  0  0  0  0
 14 15  1  0  0  0  0
 14 13  1  0  0  0  0
 16 18  1  0  0  0  0
 16 14  2  0  0  0  0
 17 16  1  0  0  0  0
 18 20  1  0  0  0  0
 19 18  1  0  0  0  0
 20 13  2  0  0  0  0
M  END
>  <minimizedAffinity>
-3.59126163

$$$$
