
 OpenBabel03252500533D

 23 24  0  0  0  0  0  0  0  0999 V2000
   38.1100   27.1510   42.8980 C   0  0  0  0  0  0  0  0  0  0  0  0
   38.1190   28.3440   42.2070 C   0  0  0  0  0  0  0  0  0  0  0  0
   39.3510   29.0570   42.1880 C   0  0  0  0  0  0  0  0  0  0  0  0
   40.4110   28.5350   42.8390 N   0  0  0  0  0  0  0  0  0  0  0  0
   40.3560   27.3750   43.4990 C   0  0  0  0  0  0  0  0  0  0  0  0
   39.2220   26.6980   43.5250 N   0  0  0  0  0  0  0  0  0  0  0  0
   39.5750   29.9900   41.7130 H   0  0  0  0  0  0  0  0  0  0  0  0
   41.1940   26.9420   44.0270 H   0  0  0  0  0  0  0  0  0  0  0  0
   37.0480   28.9980   41.4930 C   0  0  0  0  0  0  0  0  0  0  0  0
   36.1260   28.6830   40.5300 C   0  0  0  0  0  0  0  0  0  0  0  0
   36.0430   27.7310   40.0450 H   0  0  0  0  0  0  0  0  0  0  0  0
   35.2630   29.7090   40.2410 C   0  0  0  0  0  0  0  0  0  0  0  0
   34.4580   29.7080   39.5260 H   0  0  0  0  0  0  0  0  0  0  0  0
   35.6710   30.6830   41.0580 N   0  0  0  0  0  0  0  0  0  0  0  0
   35.2720   31.6470   41.1540 H   0  0  0  0  0  0  0  0  0  0  0  0
   36.6920   30.2640   41.7670 N   0  0  0  0  0  0  0  0  0  0  0  0
   36.8970   26.3360   42.9270 C   0  0  0  0  0  0  0  0  0  0  0  0
   36.7300   25.9480   43.9590 H   0  0  0  0  0  0  0  0  0  0  0  0
   35.9800   26.8320   42.5580 H   0  0  0  0  0  0  0  0  0  0  0  0
   37.1150   25.0790   42.0960 C   0  0  0  0  0  0  0  0  0  0  0  0
   37.2920   24.1900   42.7780 H   0  0  0  0  0  0  0  0  0  0  0  0
   38.0780   25.1230   41.5140 H   0  0  0  0  0  0  0  0  0  0  0  0
   36.2530   24.8270   41.4620 H   0  0  0  0  0  0  0  0  0  0  0  0
  1 17  1  0  0  0  0
  1  6  1  0  0  0  0
  2  1  2  0  0  0  0
  3  2  1  0  0  0  0
  3  4  2  0  0  0  0
  4  5  1  0  0  0  0
  5  6  2  0  0  0  0
  5  8  1  0  0  0  0
  7  3  1  0  0  0  0
  9 16  2  0  0  0  0
  9  2  1  0  0  0  0
 10  9  1  0  0  0  0
 11 10  1  0  0  0  0
 12 10  2  0  0  0  0
 12 14  1  0  0  0  0
 13 12  1  0  0  0  0
 14 15  1  0  0  0  0
 14 16  1  0  0  0  0
 17 18  1  0  0  0  0
 19 17  1  0  0  0  0
 20 21  1  0  0  0  0
 20 17  1  0  0  0  0
 22 20  1  0  0  0  0
 23 20  1  0  0  0  0
M  END
>  <minimizedAffinity>
-4.24745512

$$$$

 OpenBabel03252500533D

 23 24  0  0  0  0  0  0  0  0999 V2000
   37.2840   26.6770   42.1480 C   0  0  0  0  0  0  0  0  0  0  0  0
   36.9020   27.4910   41.1030 C   0  0  0  0  0  0  0  0  0  0  0  0
   36.5500   26.8400   39.8870 C   0  0  0  0  0  0  0  0  0  0  0  0
   36.6160   25.4940   39.8310 N   0  0  0  0  0  0  0  0  0  0  0  0
   36.9950   24.7430   40.8700 C   0  0  0  0  0  0  0  0  0  0  0  0
   37.3220   25.3300   42.0070 N   0  0  0  0  0  0  0  0  0  0  0  0
   36.2270   27.2770   38.9650 H   0  0  0  0  0  0  0  0  0  0  0  0
   37.0540   23.6650   40.8430 H   0  0  0  0  0  0  0  0  0  0  0  0
   36.8100   28.9310   41.0490 C   0  0  0  0  0  0  0  0  0  0  0  0
   37.6540   29.9990   40.8960 C   0  0  0  0  0  0  0  0  0  0  0  0
   38.7180   29.9330   40.7900 H   0  0  0  0  0  0  0  0  0  0  0  0
   37.0070   31.2080   40.8570 C   0  0  0  0  0  0  0  0  0  0  0  0
   37.4460   32.1840   40.7470 H   0  0  0  0  0  0  0  0  0  0  0  0
   35.7240   30.8640   40.9900 N   0  0  0  0  0  0  0  0  0  0  0  0
   34.8900   31.5000   41.0100 H   0  0  0  0  0  0  0  0  0  0  0  0
   35.6250   29.5620   41.0990 N   0  0  0  0  0  0  0  0  0  0  0  0
   37.6150   27.2640   43.4440 C   0  0  0  0  0  0  0  0  0  0  0  0
   37.4190   28.3620   43.4200 H   0  0  0  0  0  0  0  0  0  0  0  0
   37.1090   26.8100   44.3160 H   0  0  0  0  0  0  0  0  0  0  0  0
   39.1170   27.1670   43.6730 C   0  0  0  0  0  0  0  0  0  0  0  0
   39.6010   28.1780   43.4990 H   0  0  0  0  0  0  0  0  0  0  0  0
   39.6190   26.5300   42.8920 H   0  0  0  0  0  0  0  0  0  0  0  0
   39.3790   26.8600   44.6950 H   0  0  0  0  0  0  0  0  0  0  0  0
  1 17  1  0  0  0  0
  2  1  2  0  0  0  0
  3  2  1  0  0  0  0
  4  3  2  0  0  0  0
  4  5  1  0  0  0  0
  5  6  2  0  0  0  0
  6  1  1  0  0  0  0
  7  3  1  0  0  0  0
  8  5  1  0  0  0  0
  9 16  2  0  0  0  0
  9  2  1  0  0  0  0
 10  9  1  0  0  0  0
 11 10  1  0  0  0  0
 12 10  2  0  0  0  0
 12 14  1  0  0  0  0
 13 12  1  0  0  0  0
 14 15  1  0  0  0  0
 14 16  1  0  0  0  0
 17 20  1  0  0  0  0
 17 19  1  0  0  0  0
 18 17  1  0  0  0  0
 20 23  1  0  0  0  0
 21 20  1  0  0  0  0
 22 20  1  0  0  0  0
M  END
>  <minimizedAffinity>
-4.14536381

$$$$

 OpenBabel03252500533D

 23 24  0  0  0  0  0  0  0  0999 V2000
   37.0680   28.0560   40.8090 C   0  0  0  0  0  0  0  0  0  0  0  0
   37.3650   29.1680   41.5670 C   0  0  0  0  0  0  0  0  0  0  0  0
   37.5340   28.9560   42.9650 C   0  0  0  0  0  0  0  0  0  0  0  0
   37.3910   27.7070   43.4520 N   0  0  0  0  0  0  0  0  0  0  0  0
   37.1000   26.6570   42.6790 C   0  0  0  0  0  0  0  0  0  0  0  0
   36.9420   26.8330   41.3790 N   0  0  0  0  0  0  0  0  0  0  0  0
   37.7680   29.6730   43.7250 H   0  0  0  0  0  0  0  0  0  0  0  0
   36.9800   25.6490   43.0510 H   0  0  0  0  0  0  0  0  0  0  0  0
   37.5260   30.5430   41.1550 C   0  0  0  0  0  0  0  0  0  0  0  0
   38.5500   31.4140   40.8950 C   0  0  0  0  0  0  0  0  0  0  0  0
   39.5920   31.1850   40.9890 H   0  0  0  0  0  0  0  0  0  0  0  0
   38.1270   32.6430   40.4600 C   0  0  0  0  0  0  0  0  0  0  0  0
   38.7350   33.4910   40.1940 H   0  0  0  0  0  0  0  0  0  0  0  0
   36.7970   32.5170   40.4520 N   0  0  0  0  0  0  0  0  0  0  0  0
   36.0870   33.2380   40.1790 H   0  0  0  0  0  0  0  0  0  0  0  0
   36.4670   31.3130   40.8520 N   0  0  0  0  0  0  0  0  0  0  0  0
   36.9250   28.1800   39.3590 C   0  0  0  0  0  0  0  0  0  0  0  0
   37.3560   29.1520   39.0220 H   0  0  0  0  0  0  0  0  0  0  0  0
   37.3550   27.3520   38.7660 H   0  0  0  0  0  0  0  0  0  0  0  0
   35.4490   28.2930   39.0060 C   0  0  0  0  0  0  0  0  0  0  0  0
   35.1910   29.3690   38.7580 H   0  0  0  0  0  0  0  0  0  0  0  0
   34.7890   28.0930   39.8950 H   0  0  0  0  0  0  0  0  0  0  0  0
   35.1680   27.6890   38.1310 H   0  0  0  0  0  0  0  0  0  0  0  0
  1  6  2  0  0  0  0
  1  2  1  0  0  0  0
  2  3  2  0  0  0  0
  3  4  1  0  0  0  0
  3  7  1  0  0  0  0
  5  8  1  0  0  0  0
  5  4  2  0  0  0  0
  6  5  1  0  0  0  0
  9  2  1  0  0  0  0
 10 11  1  0  0  0  0
 10  9  1  0  0  0  0
 12 10  2  0  0  0  0
 13 12  1  0  0  0  0
 14 12  1  0  0  0  0
 14 16  1  0  0  0  0
 15 14  1  0  0  0  0
 16  9  2  0  0  0  0
 17  1  1  0  0  0  0
 18 17  1  0  0  0  0
 19 17  1  0  0  0  0
 20 17  1  0  0  0  0
 20 22  1  0  0  0  0
 21 20  1  0  0  0  0
 23 20  1  0  0  0  0
M  END
>  <minimizedAffinity>
-4.06405258

$$$$

 OpenBabel03252500533D

 23 24  0  0  0  0  0  0  0  0999 V2000
   37.0910   26.7050   41.2020 C   0  0  0  0  0  0  0  0  0  0  0  0
   36.6820   27.7060   40.3480 C   0  0  0  0  0  0  0  0  0  0  0  0
   36.1690   27.2930   39.0860 C   0  0  0  0  0  0  0  0  0  0  0  0
   36.1200   25.9740   38.8070 N   0  0  0  0  0  0  0  0  0  0  0  0
   36.5310   25.0370   39.6660 C   0  0  0  0  0  0  0  0  0  0  0  0
   37.0070   25.4010   40.8430 N   0  0  0  0  0  0  0  0  0  0  0  0
   35.7980   27.8990   38.2850 H   0  0  0  0  0  0  0  0  0  0  0  0
   36.5000   23.9760   39.4600 H   0  0  0  0  0  0  0  0  0  0  0  0
   36.7030   29.1370   40.5360 C   0  0  0  0  0  0  0  0  0  0  0  0
   37.5510   30.1840   40.2910 C   0  0  0  0  0  0  0  0  0  0  0  0
   38.5260   30.0970   39.8550 H   0  0  0  0  0  0  0  0  0  0  0  0
   37.0280   31.4050   40.6300 C   0  0  0  0  0  0  0  0  0  0  0  0
   37.4970   32.3700   40.5350 H   0  0  0  0  0  0  0  0  0  0  0  0
   35.8180   31.0930   41.0980 N   0  0  0  0  0  0  0  0  0  0  0  0
   35.0850   31.7470   41.4660 H   0  0  0  0  0  0  0  0  0  0  0  0
   35.6440   29.7950   41.0390 N   0  0  0  0  0  0  0  0  0  0  0  0
   37.5870   27.0430   42.5350 C   0  0  0  0  0  0  0  0  0  0  0  0
   38.1620   26.1820   42.9500 H   0  0  0  0  0  0  0  0  0  0  0  0
   38.1930   27.9660   42.5980 H   0  0  0  0  0  0  0  0  0  0  0  0
   36.4100   27.1890   43.4890 C   0  0  0  0  0  0  0  0  0  0  0  0
   36.3300   26.2700   44.1480 H   0  0  0  0  0  0  0  0  0  0  0  0
   35.4250   27.1720   42.9440 H   0  0  0  0  0  0  0  0  0  0  0  0
   36.5040   28.0550   44.1590 H   0  0  0  0  0  0  0  0  0  0  0  0
  1 17  1  0  0  0  0
  2  9  1  0  0  0  0
  2  1  2  0  0  0  0
  3  2  1  0  0  0  0
  4  3  2  0  0  0  0
  4  5  1  0  0  0  0
  5  6  2  0  0  0  0
  6  1  1  0  0  0  0
  7  3  1  0  0  0  0
  8  5  1  0  0  0  0
  9 16  2  0  0  0  0
 10  9  1  0  0  0  0
 10 12  2  0  0  0  0
 11 10  1  0  0  0  0
 12 14  1  0  0  0  0
 13 12  1  0  0  0  0
 14 15  1  0  0  0  0
 16 14  1  0  0  0  0
 17 19  1  0  0  0  0
 17 18  1  0  0  0  0
 17 20  1  0  0  0  0
 20 21  1  0  0  0  0
 20 23  1  0  0  0  0
 22 20  1  0  0  0  0
M  END
>  <minimizedAffinity>
-4.02997065

$$$$

 OpenBabel03252500533D

 23 24  0  0  0  0  0  0  0  0999 V2000
   36.6580   27.8920   41.8630 C   0  0  0  0  0  0  0  0  0  0  0  0
   37.1640   26.7730   41.2370 C   0  0  0  0  0  0  0  0  0  0  0  0
   36.8170   26.6000   39.8670 C   0  0  0  0  0  0  0  0  0  0  0  0
   36.0270   27.5210   39.2790 N   0  0  0  0  0  0  0  0  0  0  0  0
   35.5560   28.5920   39.9260 C   0  0  0  0  0  0  0  0  0  0  0  0
   35.8700   28.7700   41.1960 N   0  0  0  0  0  0  0  0  0  0  0  0
   37.1010   25.8120   39.2010 H   0  0  0  0  0  0  0  0  0  0  0  0
   34.9220   29.3390   39.4720 H   0  0  0  0  0  0  0  0  0  0  0  0
   38.0000   25.7230   41.7710 C   0  0  0  0  0  0  0  0  0  0  0  0
   39.2920   25.5700   42.1990 C   0  0  0  0  0  0  0  0  0  0  0  0
   40.0380   26.3390   42.1910 H   0  0  0  0  0  0  0  0  0  0  0  0
   39.5630   24.3180   42.6870 C   0  0  0  0  0  0  0  0  0  0  0  0
   40.4980   23.9530   43.0770 H   0  0  0  0  0  0  0  0  0  0  0  0
   38.3960   23.6850   42.5520 N   0  0  0  0  0  0  0  0  0  0  0  0
   38.1710   22.6940   42.8100 H   0  0  0  0  0  0  0  0  0  0  0  0
   37.5110   24.4980   42.0280 N   0  0  0  0  0  0  0  0  0  0  0  0
   37.0060   28.1670   43.2560 C   0  0  0  0  0  0  0  0  0  0  0  0
   36.1820   28.7420   43.7410 H   0  0  0  0  0  0  0  0  0  0  0  0
   37.2570   27.2810   43.8680 H   0  0  0  0  0  0  0  0  0  0  0  0
   38.1930   29.1190   43.3010 C   0  0  0  0  0  0  0  0  0  0  0  0
   37.8400   30.1640   43.5630 H   0  0  0  0  0  0  0  0  0  0  0  0
   38.6450   29.2730   42.2820 H   0  0  0  0  0  0  0  0  0  0  0  0
   38.9420   28.8380   44.0550 H   0  0  0  0  0  0  0  0  0  0  0  0
  1 17  1  0  0  0  0
  2  9  1  0  0  0  0
  2  1  1  0  0  0  0
  3  2  2  0  0  0  0
  4  3  1  0  0  0  0
  4  5  2  0  0  0  0
  5  6  1  0  0  0  0
  6  1  2  0  0  0  0
  7  3  1  0  0  0  0
  8  5  1  0  0  0  0
  9 16  2  0  0  0  0
  9 10  1  0  0  0  0
 10 12  2  0  0  0  0
 11 10  1  0  0  0  0
 12 13  1  0  0  0  0
 14 12  1  0  0  0  0
 14 15  1  0  0  0  0
 16 14  1  0  0  0  0
 17 20  1  0  0  0  0
 17 18  1  0  0  0  0
 17 19  1  0  0  0  0
 20 21  1  0  0  0  0
 20 23  1  0  0  0  0
 22 20  1  0  0  0  0
M  END
>  <minimizedAffinity>
-3.97968483

$$$$

 OpenBabel03252500533D

 23 24  0  0  0  0  0  0  0  0999 V2000
   38.4520   29.6160   42.5100 C   0  0  0  0  0  0  0  0  0  0  0  0
   37.5320   29.7620   41.4940 C   0  0  0  0  0  0  0  0  0  0  0  0
   36.4760   28.8080   41.4530 C   0  0  0  0  0  0  0  0  0  0  0  0
   36.4440   27.8380   42.3890 N   0  0  0  0  0  0  0  0  0  0  0  0
   37.3590   27.7330   43.3560 C   0  0  0  0  0  0  0  0  0  0  0  0
   38.3450   28.6100   43.4120 N   0  0  0  0  0  0  0  0  0  0  0  0
   35.6650   28.7410   40.7580 H   0  0  0  0  0  0  0  0  0  0  0  0
   37.3500   26.9620   44.1130 H   0  0  0  0  0  0  0  0  0  0  0  0
   37.4800   30.7470   40.4400 C   0  0  0  0  0  0  0  0  0  0  0  0
   37.8280   30.8430   39.1190 C   0  0  0  0  0  0  0  0  0  0  0  0
   38.3000   30.0680   38.5490 H   0  0  0  0  0  0  0  0  0  0  0  0
   37.4880   32.0420   38.5470 C   0  0  0  0  0  0  0  0  0  0  0  0
   37.6550   32.3560   37.5310 H   0  0  0  0  0  0  0  0  0  0  0  0
   36.9100   32.7000   39.5550 N   0  0  0  0  0  0  0  0  0  0  0  0
   36.5030   33.6660   39.5390 H   0  0  0  0  0  0  0  0  0  0  0  0
   36.9120   31.9490   40.6300 N   0  0  0  0  0  0  0  0  0  0  0  0
   39.5410   30.5810   42.6510 C   0  0  0  0  0  0  0  0  0  0  0  0
   39.4900   31.3260   41.8230 H   0  0  0  0  0  0  0  0  0  0  0  0
   39.5920   31.1030   43.6240 H   0  0  0  0  0  0  0  0  0  0  0  0
   40.8720   29.8760   42.4270 C   0  0  0  0  0  0  0  0  0  0  0  0
   41.2710   30.1240   41.3950 H   0  0  0  0  0  0  0  0  0  0  0  0
   40.7490   28.7590   42.3690 H   0  0  0  0  0  0  0  0  0  0  0  0
   41.6450   30.1760   43.1490 H   0  0  0  0  0  0  0  0  0  0  0  0
  1 17  1  0  0  0  0
  1  6  1  0  0  0  0
  2  1  2  0  0  0  0
  3  2  1  0  0  0  0
  3  4  2  0  0  0  0
  4  5  1  0  0  0  0
  5  6  2  0  0  0  0
  5  8  1  0  0  0  0
  7  3  1  0  0  0  0
  9 16  2  0  0  0  0
  9  2  1  0  0  0  0
 10  9  1  0  0  0  0
 11 10  1  0  0  0  0
 12 10  2  0  0  0  0
 12 14  1  0  0  0  0
 13 12  1  0  0  0  0
 14 16  1  0  0  0  0
 15 14  1  0  0  0  0
 17 19  1  0  0  0  0
 18 17  1  0  0  0  0
 20 17  1  0  0  0  0
 20 23  1  0  0  0  0
 21 20  1  0  0  0  0
 22 20  1  0  0  0  0
M  END
>  <minimizedAffinity>
-3.88725352

$$$$

 OpenBabel03252500533D

 23 24  0  0  0  0  0  0  0  0999 V2000
   36.9540   25.2580   40.8940 C   0  0  0  0  0  0  0  0  0  0  0  0
   36.9530   26.6350   40.8350 C   0  0  0  0  0  0  0  0  0  0  0  0
   36.4670   27.2190   39.6310 C   0  0  0  0  0  0  0  0  0  0  0  0
   36.0510   26.4050   38.6400 N   0  0  0  0  0  0  0  0  0  0  0  0
   36.0710   25.0730   38.7390 C   0  0  0  0  0  0  0  0  0  0  0  0
   36.5160   24.5130   39.8500 N   0  0  0  0  0  0  0  0  0  0  0  0
   36.3790   28.2560   39.3800 H   0  0  0  0  0  0  0  0  0  0  0  0
   35.7430   24.4050   37.9550 H   0  0  0  0  0  0  0  0  0  0  0  0
   37.3860   27.5950   41.8230 C   0  0  0  0  0  0  0  0  0  0  0  0
   38.5100   28.3210   42.1120 C   0  0  0  0  0  0  0  0  0  0  0  0
   39.4300   28.2770   41.5630 H   0  0  0  0  0  0  0  0  0  0  0  0
   38.3580   29.1670   43.1800 C   0  0  0  0  0  0  0  0  0  0  0  0
   39.0920   29.8350   43.5990 H   0  0  0  0  0  0  0  0  0  0  0  0
   37.0960   28.9490   43.5560 N   0  0  0  0  0  0  0  0  0  0  0  0
   36.5760   29.4020   44.3470 H   0  0  0  0  0  0  0  0  0  0  0  0
   36.5520   28.0490   42.7730 N   0  0  0  0  0  0  0  0  0  0  0  0
   37.3930   24.5810   42.1120 C   0  0  0  0  0  0  0  0  0  0  0  0
   37.3920   25.3030   42.9630 H   0  0  0  0  0  0  0  0  0  0  0  0
   36.8220   23.6750   42.3860 H   0  0  0  0  0  0  0  0  0  0  0  0
   38.8570   24.1870   41.9700 C   0  0  0  0  0  0  0  0  0  0  0  0
   39.5090   24.9000   42.5650 H   0  0  0  0  0  0  0  0  0  0  0  0
   39.2340   24.3450   40.9220 H   0  0  0  0  0  0  0  0  0  0  0  0
   39.0690   23.1750   42.3440 H   0  0  0  0  0  0  0  0  0  0  0  0
  1 17  1  0  0  0  0
  2  1  1  0  0  0  0
  2  9  1  0  0  0  0
  3  2  2  0  0  0  0
  4  5  2  0  0  0  0
  4  3  1  0  0  0  0
  5  6  1  0  0  0  0
  6  1  2  0  0  0  0
  7  3  1  0  0  0  0
  8  5  1  0  0  0  0
  9 10  1  0  0  0  0
  9 16  2  0  0  0  0
 10 12  2  0  0  0  0
 11 10  1  0  0  0  0
 12 14  1  0  0  0  0
 12 13  1  0  0  0  0
 14 15  1  0  0  0  0
 16 14  1  0  0  0  0
 17 19  1  0  0  0  0
 17 18  1  0  0  0  0
 20 17  1  0  0  0  0
 20 23  1  0  0  0  0
 20 21  1  0  0  0  0
 22 20  1  0  0  0  0
M  END
>  <minimizedAffinity>
-3.84635305

$$$$

 OpenBabel03252500533D

 23 24  0  0  0  0  0  0  0  0999 V2000
   36.7300   26.0330   40.1250 C   0  0  0  0  0  0  0  0  0  0  0  0
   37.2260   26.1130   41.4090 C   0  0  0  0  0  0  0  0  0  0  0  0
   37.4800   24.8770   42.0700 C   0  0  0  0  0  0  0  0  0  0  0  0
   37.2200   23.7280   41.4140 N   0  0  0  0  0  0  0  0  0  0  0  0
   36.7360   23.6970   40.1690 C   0  0  0  0  0  0  0  0  0  0  0  0
   36.4970   24.8330   39.5390 N   0  0  0  0  0  0  0  0  0  0  0  0
   37.8630   24.7150   43.0560 H   0  0  0  0  0  0  0  0  0  0  0  0
   36.5210   22.7860   39.6290 H   0  0  0  0  0  0  0  0  0  0  0  0
   37.5250   27.2800   42.2050 C   0  0  0  0  0  0  0  0  0  0  0  0
   38.5440   28.1840   42.3410 C   0  0  0  0  0  0  0  0  0  0  0  0
   39.4640   28.1630   41.7930 H   0  0  0  0  0  0  0  0  0  0  0  0
   38.2770   29.1790   43.2470 C   0  0  0  0  0  0  0  0  0  0  0  0
   38.9150   30.0000   43.5280 H   0  0  0  0  0  0  0  0  0  0  0  0
   37.0510   28.8710   43.6770 N   0  0  0  0  0  0  0  0  0  0  0  0
   36.4730   29.3850   44.3840 H   0  0  0  0  0  0  0  0  0  0  0  0
   36.6340   27.7840   43.0750 N   0  0  0  0  0  0  0  0  0  0  0  0
   36.4860   27.2540   39.3610 C   0  0  0  0  0  0  0  0  0  0  0  0
   35.8450   27.9470   39.9560 H   0  0  0  0  0  0  0  0  0  0  0  0
   37.3910   27.7860   39.0120 H   0  0  0  0  0  0  0  0  0  0  0  0
   35.6360   26.9260   38.1420 C   0  0  0  0  0  0  0  0  0  0  0  0
   34.5650   27.2550   38.3180 H   0  0  0  0  0  0  0  0  0  0  0  0
   35.5190   25.8160   38.0000 H   0  0  0  0  0  0  0  0  0  0  0  0
   35.9790   27.4310   37.2280 H   0  0  0  0  0  0  0  0  0  0  0  0
  1  2  1  0  0  0  0
  2  3  2  0  0  0  0
  2  9  1  0  0  0  0
  3  7  1  0  0  0  0
  4  3  1  0  0  0  0
  5  4  2  0  0  0  0
  6  1  2  0  0  0  0
  6  5  1  0  0  0  0
  8  5  1  0  0  0  0
  9 10  1  0  0  0  0
  9 16  2  0  0  0  0
 10 12  2  0  0  0  0
 11 10  1  0  0  0  0
 12 13  1  0  0  0  0
 12 14  1  0  0  0  0
 14 15  1  0  0  0  0
 16 14  1  0  0  0  0
 17 18  1  0  0  0  0
 17  1  1  0  0  0  0
 19 17  1  0  0  0  0
 20 21  1  0  0  0  0
 20 17  1  0  0  0  0
 22 20  1  0  0  0  0
 23 20  1  0  0  0  0
M  END
>  <minimizedAffinity>
-3.84489036

$$$$

 OpenBabel03252500533D

 23 24  0  0  0  0  0  0  0  0999 V2000
   38.0910   28.7640   41.4660 C   0  0  0  0  0  0  0  0  0  0  0  0
   38.1110   29.6800   40.4360 C   0  0  0  0  0  0  0  0  0  0  0  0
   38.1690   29.1500   39.1160 C   0  0  0  0  0  0  0  0  0  0  0  0
   38.2040   27.8110   38.9580 N   0  0  0  0  0  0  0  0  0  0  0  0
   38.1850   26.9590   39.9860 C   0  0  0  0  0  0  0  0  0  0  0  0
   38.1290   27.4320   41.2180 N   0  0  0  0  0  0  0  0  0  0  0  0
   38.1900   29.6780   38.1860 H   0  0  0  0  0  0  0  0  0  0  0  0
   38.2140   25.8840   39.8790 H   0  0  0  0  0  0  0  0  0  0  0  0
   38.0920   31.1230   40.4930 C   0  0  0  0  0  0  0  0  0  0  0  0
   38.9860   32.1460   40.6590 C   0  0  0  0  0  0  0  0  0  0  0  0
   40.0380   32.0250   40.8220 H   0  0  0  0  0  0  0  0  0  0  0  0
   38.4180   33.3910   40.5670 C   0  0  0  0  0  0  0  0  0  0  0  0
   38.9080   34.3450   40.6620 H   0  0  0  0  0  0  0  0  0  0  0  0
   37.1320   33.1170   40.3350 N   0  0  0  0  0  0  0  0  0  0  0  0
   36.3470   33.7980   40.2000 H   0  0  0  0  0  0  0  0  0  0  0  0
   36.9590   31.8180   40.2960 N   0  0  0  0  0  0  0  0  0  0  0  0
   37.9860   29.2250   42.8490 C   0  0  0  0  0  0  0  0  0  0  0  0
   39.0020   29.2780   43.3050 H   0  0  0  0  0  0  0  0  0  0  0  0
   37.4590   30.1860   42.9920 H   0  0  0  0  0  0  0  0  0  0  0  0
   37.2680   28.1700   43.6790 C   0  0  0  0  0  0  0  0  0  0  0  0
   38.0180   27.5980   44.3100 H   0  0  0  0  0  0  0  0  0  0  0  0
   36.8340   27.3550   43.0360 H   0  0  0  0  0  0  0  0  0  0  0  0
   36.5290   28.5960   44.3720 H   0  0  0  0  0  0  0  0  0  0  0  0
  1 17  1  0  0  0  0
  2  9  1  0  0  0  0
  2  1  2  0  0  0  0
  3  2  1  0  0  0  0
  4  3  2  0  0  0  0
  4  5  1  0  0  0  0
  5  6  2  0  0  0  0
  6  1  1  0  0  0  0
  7  3  1  0  0  0  0
  8  5  1  0  0  0  0
  9 10  1  0  0  0  0
 10 11  1  0  0  0  0
 12 10  2  0  0  0  0
 12 13  1  0  0  0  0
 14 12  1  0  0  0  0
 15 14  1  0  0  0  0
 16 14  1  0  0  0  0
 16  9  2  0  0  0  0
 17 19  1  0  0  0  0
 17 18  1  0  0  0  0
 17 20  1  0  0  0  0
 20 21  1  0  0  0  0
 20 23  1  0  0  0  0
 22 20  1  0  0  0  0
M  END
>  <minimizedAffinity>
-3.84432006

$$$$
