
 OpenBabel03242513023D

 30 33  0  0  0  0  0  0  0  0999 V2000
   36.2160   31.1760   40.9580 C   0  0  0  0  0  0  0  0  0  0  0  0
   37.0720   31.8300   40.0720 C   0  0  0  0  0  0  0  0  0  0  0  0
   38.1560   31.1090   39.5560 C   0  0  0  0  0  0  0  0  0  0  0  0
   38.3260   29.8030   39.9410 N   0  0  0  0  0  0  0  0  0  0  0  0
   37.4710   29.2060   40.8020 C   0  0  0  0  0  0  0  0  0  0  0  0
   36.4360   29.8940   41.2970 N   0  0  0  0  0  0  0  0  0  0  0  0
   35.3840   31.7470   41.3460 H   0  0  0  0  0  0  0  0  0  0  0  0
   36.9360   32.8610   39.7700 H   0  0  0  0  0  0  0  0  0  0  0  0
   36.9040   26.8150   40.6870 C   0  0  0  0  0  0  0  0  0  0  0  0
   37.7100   27.8130   41.1700 C   0  0  0  0  0  0  0  0  0  0  0  0
   38.7820   27.5620   42.0190 C   0  0  0  0  0  0  0  0  0  0  0  0
   39.0680   26.2580   42.4110 C   0  0  0  0  0  0  0  0  0  0  0  0
   40.0000   25.6530   43.2000 N   0  0  0  0  0  0  0  0  0  0  0  0
   39.7460   24.3050   43.1860 C   0  0  0  0  0  0  0  0  0  0  0  0
   38.6690   24.1080   42.3930 N   0  0  0  0  0  0  0  0  0  0  0  0
   38.2310   25.2770   41.9030 C   0  0  0  0  0  0  0  0  0  0  0  0
   37.1690   25.5070   41.0630 C   0  0  0  0  0  0  0  0  0  0  0  0
   36.0720   27.0000   40.0290 H   0  0  0  0  0  0  0  0  0  0  0  0
   39.4440   28.3300   42.4210 H   0  0  0  0  0  0  0  0  0  0  0  0
   40.7410   26.2140   43.6920 H   0  0  0  0  0  0  0  0  0  0  0  0
   40.3800   23.6400   43.7580 H   0  0  0  0  0  0  0  0  0  0  0  0
   36.5500   24.6790   40.7020 H   0  0  0  0  0  0  0  0  0  0  0  0
   39.1140   31.6930   38.6230 C   0  0  0  0  0  0  0  0  0  0  0  0
   40.2980   32.2880   39.0420 C   0  0  0  0  0  0  0  0  0  0  0  0
   40.6290   32.3820   40.0640 H   0  0  0  0  0  0  0  0  0  0  0  0
   40.9900   32.7450   37.9320 C   0  0  0  0  0  0  0  0  0  0  0  0
   41.9490   33.2550   37.9330 H   0  0  0  0  0  0  0  0  0  0  0  0
   40.2100   32.4170   36.8690 N   0  0  0  0  0  0  0  0  0  0  0  0
   40.4510   32.6260   35.8560 H   0  0  0  0  0  0  0  0  0  0  0  0
   39.1160   31.8020   37.2820 N   0  0  0  0  0  0  0  0  0  0  0  0
  1  6  1  0  0  0  0
  1  7  1  0  0  0  0
  2  1  2  0  0  0  0
  3  4  2  0  0  0  0
  3  2  1  0  0  0  0
  4  5  1  0  0  0  0
  5 10  1  0  0  0  0
  5  6  2  0  0  0  0
  8  2  1  0  0  0  0
  9 17  2  0  0  0  0
  9 10  1  0  0  0  0
 10 11  2  0  0  0  0
 11 12  1  0  0  0  0
 11 19  1  0  0  0  0
 12 13  1  0  0  0  0
 13 20  1  0  0  0  0
 14 13  1  0  0  0  0
 14 21  1  0  0  0  0
 15 14  2  0  0  0  0
 16 15  1  0  0  0  0
 16 12  2  0  0  0  0
 17 16  1  0  0  0  0
 18  9  1  0  0  0  0
 22 17  1  0  0  0  0
 23 24  1  0  0  0  0
 23  3  1  0  0  0  0
 24 25  1  0  0  0  0
 26 27  1  0  0  0  0
 26 24  2  0  0  0  0
 28 30  1  0  0  0  0
 28 26  1  0  0  0  0
 29 28  1  0  0  0  0
 30 23  2  0  0  0  0
M  END
>  <minimizedAffinity>
-5.5888238

$$$$

 OpenBabel03242513023D

 30 33  0  0  0  0  0  0  0  0999 V2000
   37.1240   27.6800   43.6790 C   0  0  0  0  0  0  0  0  0  0  0  0
   36.9260   26.5930   42.8280 C   0  0  0  0  0  0  0  0  0  0  0  0
   37.0170   26.8160   41.4490 C   0  0  0  0  0  0  0  0  0  0  0  0
   37.2930   28.0820   40.9990 N   0  0  0  0  0  0  0  0  0  0  0  0
   37.4790   29.1090   41.8590 C   0  0  0  0  0  0  0  0  0  0  0  0
   37.3920   28.8970   43.1780 N   0  0  0  0  0  0  0  0  0  0  0  0
   37.0510   27.4900   44.7410 H   0  0  0  0  0  0  0  0  0  0  0  0
   36.7080   25.5940   43.1850 H   0  0  0  0  0  0  0  0  0  0  0  0
   36.8300   31.1100   40.5850 C   0  0  0  0  0  0  0  0  0  0  0  0
   37.7710   30.4320   41.3140 C   0  0  0  0  0  0  0  0  0  0  0  0
   39.0340   30.9540   41.5740 C   0  0  0  0  0  0  0  0  0  0  0  0
   39.3810   32.2100   41.0850 C   0  0  0  0  0  0  0  0  0  0  0  0
   40.4810   33.0120   41.1370 N   0  0  0  0  0  0  0  0  0  0  0  0
   40.1930   34.1590   40.4410 C   0  0  0  0  0  0  0  0  0  0  0  0
   38.9290   34.0400   39.9770 N   0  0  0  0  0  0  0  0  0  0  0  0
   38.4040   32.8650   40.3520 C   0  0  0  0  0  0  0  0  0  0  0  0
   37.1520   32.3640   40.0870 C   0  0  0  0  0  0  0  0  0  0  0  0
   35.8500   30.7150   40.3790 H   0  0  0  0  0  0  0  0  0  0  0  0
   39.8060   30.4430   42.1500 H   0  0  0  0  0  0  0  0  0  0  0  0
   41.3500   32.7100   41.6460 H   0  0  0  0  0  0  0  0  0  0  0  0
   40.9450   34.9340   40.3620 H   0  0  0  0  0  0  0  0  0  0  0  0
   36.4310   32.9410   39.4990 H   0  0  0  0  0  0  0  0  0  0  0  0
   36.8270   25.7520   40.4680 C   0  0  0  0  0  0  0  0  0  0  0  0
   37.0100   24.4090   40.7760 C   0  0  0  0  0  0  0  0  0  0  0  0
   37.3020   24.0180   41.7380 H   0  0  0  0  0  0  0  0  0  0  0  0
   36.7560   23.6490   39.6450 C   0  0  0  0  0  0  0  0  0  0  0  0
   36.8150   22.5670   39.5680 H   0  0  0  0  0  0  0  0  0  0  0  0
   36.4280   24.5480   38.6810 N   0  0  0  0  0  0  0  0  0  0  0  0
   36.1730   24.2950   37.6820 H   0  0  0  0  0  0  0  0  0  0  0  0
   36.4710   25.7740   39.1710 N   0  0  0  0  0  0  0  0  0  0  0  0
  1  7  1  0  0  0  0
  2  8  1  0  0  0  0
  2  1  2  0  0  0  0
  3  2  1  0  0  0  0
  4  3  2  0  0  0  0
  4  5  1  0  0  0  0
  5  6  2  0  0  0  0
  6  1  1  0  0  0  0
  9 10  1  0  0  0  0
 10 11  2  0  0  0  0
 10  5  1  0  0  0  0
 11 19  1  0  0  0  0
 12 13  1  0  0  0  0
 12 11  1  0  0  0  0
 13 20  1  0  0  0  0
 14 13  1  0  0  0  0
 15 16  1  0  0  0  0
 15 14  2  0  0  0  0
 16 12  2  0  0  0  0
 17 16  1  0  0  0  0
 17  9  2  0  0  0  0
 18  9  1  0  0  0  0
 21 14  1  0  0  0  0
 22 17  1  0  0  0  0
 23 24  1  0  0  0  0
 23  3  1  0  0  0  0
 24 25  1  0  0  0  0
 26 24  2  0  0  0  0
 27 26  1  0  0  0  0
 28 30  1  0  0  0  0
 28 26  1  0  0  0  0
 29 28  1  0  0  0  0
 30 23  2  0  0  0  0
M  END
>  <minimizedAffinity>
-5.58581209

$$$$

 OpenBabel03242513023D

 30 33  0  0  0  0  0  0  0  0999 V2000
   36.9970   26.3730   42.2980 C   0  0  0  0  0  0  0  0  0  0  0  0
   38.2240   25.8020   42.6330 C   0  0  0  0  0  0  0  0  0  0  0  0
   39.3700   26.5980   42.5180 C   0  0  0  0  0  0  0  0  0  0  0  0
   39.2370   27.8920   42.0840 N   0  0  0  0  0  0  0  0  0  0  0  0
   38.0270   28.4080   41.7700 C   0  0  0  0  0  0  0  0  0  0  0  0
   36.9310   27.6480   41.8790 N   0  0  0  0  0  0  0  0  0  0  0  0
   36.1220   25.7450   42.3930 H   0  0  0  0  0  0  0  0  0  0  0  0
   38.3270   24.7790   42.9750 H   0  0  0  0  0  0  0  0  0  0  0  0
   36.8250   30.2710   40.7050 C   0  0  0  0  0  0  0  0  0  0  0  0
   37.9550   29.7940   41.3150 C   0  0  0  0  0  0  0  0  0  0  0  0
   39.0770   30.5860   41.5350 C   0  0  0  0  0  0  0  0  0  0  0  0
   39.0790   31.9170   41.1280 C   0  0  0  0  0  0  0  0  0  0  0  0
   39.9610   32.9550   41.1730 N   0  0  0  0  0  0  0  0  0  0  0  0
   39.3560   34.0410   40.5920 C   0  0  0  0  0  0  0  0  0  0  0  0
   38.1220   33.6510   40.2020 N   0  0  0  0  0  0  0  0  0  0  0  0
   37.9190   32.3630   40.5140 C   0  0  0  0  0  0  0  0  0  0  0  0
   36.8030   31.5950   40.2890 C   0  0  0  0  0  0  0  0  0  0  0  0
   35.9530   29.6660   40.5310 H   0  0  0  0  0  0  0  0  0  0  0  0
   39.9920   30.2400   42.0180 H   0  0  0  0  0  0  0  0  0  0  0  0
   40.9140   32.8380   41.6010 H   0  0  0  0  0  0  0  0  0  0  0  0
   39.8960   34.9760   40.5270 H   0  0  0  0  0  0  0  0  0  0  0  0
   35.9210   32.0170   39.7970 H   0  0  0  0  0  0  0  0  0  0  0  0
   40.7050   26.1030   42.8410 C   0  0  0  0  0  0  0  0  0  0  0  0
   41.7080   26.9260   43.3390 C   0  0  0  0  0  0  0  0  0  0  0  0
   41.6160   27.9830   43.5340 H   0  0  0  0  0  0  0  0  0  0  0  0
   42.8510   26.1700   43.5450 C   0  0  0  0  0  0  0  0  0  0  0  0
   43.8020   26.5280   43.9270 H   0  0  0  0  0  0  0  0  0  0  0  0
   42.5130   24.9100   43.1680 N   0  0  0  0  0  0  0  0  0  0  0  0
   43.1680   24.0740   43.2010 H   0  0  0  0  0  0  0  0  0  0  0  0
   41.2570   24.8790   42.7580 N   0  0  0  0  0  0  0  0  0  0  0  0
  1  7  1  0  0  0  0
  1  2  1  0  0  0  0
  2  8  1  0  0  0  0
  3  2  2  0  0  0  0
  3 23  1  0  0  0  0
  4  3  1  0  0  0  0
  5  6  1  0  0  0  0
  5  4  2  0  0  0  0
  6  1  2  0  0  0  0
  9 10  1  0  0  0  0
 10 11  2  0  0  0  0
 10  5  1  0  0  0  0
 11 19  1  0  0  0  0
 12 13  1  0  0  0  0
 12 11  1  0  0  0  0
 13 20  1  0  0  0  0
 14 13  1  0  0  0  0
 15 16  1  0  0  0  0
 15 14  2  0  0  0  0
 16 12  2  0  0  0  0
 17 16  1  0  0  0  0
 17  9  2  0  0  0  0
 18  9  1  0  0  0  0
 21 14  1  0  0  0  0
 22 17  1  0  0  0  0
 23 24  1  0  0  0  0
 24 25  1  0  0  0  0
 24 26  2  0  0  0  0
 26 27  1  0  0  0  0
 28 29  1  0  0  0  0
 28 26  1  0  0  0  0
 30 23  2  0  0  0  0
 30 28  1  0  0  0  0
M  END
>  <minimizedAffinity>
-5.51261282

$$$$

 OpenBabel03242513023D

 30 33  0  0  0  0  0  0  0  0999 V2000
   38.2030   27.9570   43.6610 C   0  0  0  0  0  0  0  0  0  0  0  0
   38.1240   29.2570   43.1640 C   0  0  0  0  0  0  0  0  0  0  0  0
   37.6320   29.4330   41.8650 C   0  0  0  0  0  0  0  0  0  0  0  0
   37.2520   28.3290   41.1450 N   0  0  0  0  0  0  0  0  0  0  0  0
   37.3430   27.0840   41.6660 C   0  0  0  0  0  0  0  0  0  0  0  0
   37.8140   26.9140   42.9070 N   0  0  0  0  0  0  0  0  0  0  0  0
   38.5840   27.8380   44.6660 H   0  0  0  0  0  0  0  0  0  0  0  0
   38.4250   30.1270   43.7340 H   0  0  0  0  0  0  0  0  0  0  0  0
   36.9340   24.6790   41.3530 C   0  0  0  0  0  0  0  0  0  0  0  0
   36.9200   25.9520   40.8460 C   0  0  0  0  0  0  0  0  0  0  0  0
   36.5100   26.2350   39.5480 C   0  0  0  0  0  0  0  0  0  0  0  0
   36.0940   25.2050   38.7100 C   0  0  0  0  0  0  0  0  0  0  0  0
   35.6410   25.1050   37.4290 N   0  0  0  0  0  0  0  0  0  0  0  0
   35.3890   23.7790   37.1780 C   0  0  0  0  0  0  0  0  0  0  0  0
   35.6900   23.0940   38.3040 N   0  0  0  0  0  0  0  0  0  0  0  0
   36.1220   23.9320   39.2580 C   0  0  0  0  0  0  0  0  0  0  0  0
   36.5230   23.6350   40.5370 C   0  0  0  0  0  0  0  0  0  0  0  0
   37.2490   24.4510   42.3570 H   0  0  0  0  0  0  0  0  0  0  0  0
   36.4860   27.2340   39.1120 H   0  0  0  0  0  0  0  0  0  0  0  0
   35.5410   25.9570   36.8210 H   0  0  0  0  0  0  0  0  0  0  0  0
   35.0190   23.4850   36.2050 H   0  0  0  0  0  0  0  0  0  0  0  0
   36.5190   22.6020   40.9020 H   0  0  0  0  0  0  0  0  0  0  0  0
   37.5070   30.7490   41.2450 C   0  0  0  0  0  0  0  0  0  0  0  0
   38.6030   31.5690   41.0050 C   0  0  0  0  0  0  0  0  0  0  0  0
   39.6290   31.3350   41.2420 H   0  0  0  0  0  0  0  0  0  0  0  0
   38.1660   32.7420   40.4100 C   0  0  0  0  0  0  0  0  0  0  0  0
   38.7850   33.5800   40.1040 H   0  0  0  0  0  0  0  0  0  0  0  0
   36.8190   32.6050   40.3060 N   0  0  0  0  0  0  0  0  0  0  0  0
   36.1690   33.3330   39.8890 H   0  0  0  0  0  0  0  0  0  0  0  0
   36.4430   31.4370   40.7950 N   0  0  0  0  0  0  0  0  0  0  0  0
  1  7  1  0  0  0  0
  2  1  1  0  0  0  0
  2  8  1  0  0  0  0
  3  2  2  0  0  0  0
  4  5  2  0  0  0  0
  4  3  1  0  0  0  0
  5  6  1  0  0  0  0
  6  1  2  0  0  0  0
  9 18  1  0  0  0  0
 10  9  1  0  0  0  0
 10  5  1  0  0  0  0
 11 10  2  0  0  0  0
 12 16  2  0  0  0  0
 12 11  1  0  0  0  0
 13 12  1  0  0  0  0
 14 13  1  0  0  0  0
 14 15  2  0  0  0  0
 15 16  1  0  0  0  0
 16 17  1  0  0  0  0
 17 22  1  0  0  0  0
 17  9  2  0  0  0  0
 19 11  1  0  0  0  0
 20 13  1  0  0  0  0
 21 14  1  0  0  0  0
 23  3  1  0  0  0  0
 24 25  1  0  0  0  0
 24 23  1  0  0  0  0
 26 24  2  0  0  0  0
 27 26  1  0  0  0  0
 28 26  1  0  0  0  0
 28 30  1  0  0  0  0
 29 28  1  0  0  0  0
 30 23  2  0  0  0  0
M  END
>  <minimizedAffinity>
-5.47152138

$$$$

 OpenBabel03242513023D

 30 33  0  0  0  0  0  0  0  0999 V2000
   39.3460   26.7660   43.4130 C   0  0  0  0  0  0  0  0  0  0  0  0
   38.1790   27.2600   42.8310 C   0  0  0  0  0  0  0  0  0  0  0  0
   38.2120   28.5530   42.2940 C   0  0  0  0  0  0  0  0  0  0  0  0
   39.3800   29.2700   42.3640 N   0  0  0  0  0  0  0  0  0  0  0  0
   40.4900   28.7520   42.9370 C   0  0  0  0  0  0  0  0  0  0  0  0
   40.4600   27.5170   43.4500 N   0  0  0  0  0  0  0  0  0  0  0  0
   39.3040   25.7660   43.8210 H   0  0  0  0  0  0  0  0  0  0  0  0
   37.2590   26.6930   42.7770 H   0  0  0  0  0  0  0  0  0  0  0  0
   42.9190   28.9980   43.2390 C   0  0  0  0  0  0  0  0  0  0  0  0
   41.7000   29.5680   42.9770 C   0  0  0  0  0  0  0  0  0  0  0  0
   41.5490   30.9290   42.7370 C   0  0  0  0  0  0  0  0  0  0  0  0
   42.6590   31.7680   42.7600 C   0  0  0  0  0  0  0  0  0  0  0  0
   42.8870   33.0990   42.5780 N   0  0  0  0  0  0  0  0  0  0  0  0
   44.2330   33.3160   42.7330 C   0  0  0  0  0  0  0  0  0  0  0  0
   44.8030   32.1210   43.0060 N   0  0  0  0  0  0  0  0  0  0  0  0
   43.8730   31.1550   43.0290 C   0  0  0  0  0  0  0  0  0  0  0  0
   44.0410   29.8130   43.2680 C   0  0  0  0  0  0  0  0  0  0  0  0
   43.0460   27.9460   43.4260 H   0  0  0  0  0  0  0  0  0  0  0  0
   40.5960   31.4160   42.5240 H   0  0  0  0  0  0  0  0  0  0  0  0
   42.0980   33.7600   42.3620 H   0  0  0  0  0  0  0  0  0  0  0  0
   44.6230   34.3200   42.6280 H   0  0  0  0  0  0  0  0  0  0  0  0
   45.0340   29.4000   43.4740 H   0  0  0  0  0  0  0  0  0  0  0  0
   37.0500   29.1700   41.6620 C   0  0  0  0  0  0  0  0  0  0  0  0
   36.1150   28.4390   40.9400 C   0  0  0  0  0  0  0  0  0  0  0  0
   36.1430   27.3740   40.7710 H   0  0  0  0  0  0  0  0  0  0  0  0
   35.1370   29.3000   40.4690 C   0  0  0  0  0  0  0  0  0  0  0  0
   34.2720   29.0290   39.8710 H   0  0  0  0  0  0  0  0  0  0  0  0
   35.5030   30.5290   40.9150 N   0  0  0  0  0  0  0  0  0  0  0  0
   34.9620   31.4240   40.7290 H   0  0  0  0  0  0  0  0  0  0  0  0
   36.6210   30.4440   41.6130 N   0  0  0  0  0  0  0  0  0  0  0  0
  1  6  1  0  0  0  0
  1  7  1  0  0  0  0
  2  1  2  0  0  0  0
  3  4  2  0  0  0  0
  3  2  1  0  0  0  0
  4  5  1  0  0  0  0
  5 10  1  0  0  0  0
  5  6  2  0  0  0  0
  8  2  1  0  0  0  0
  9 17  1  0  0  0  0
  9 18  1  0  0  0  0
 10  9  2  0  0  0  0
 11 12  2  0  0  0  0
 11 10  1  0  0  0  0
 12 16  1  0  0  0  0
 13 14  1  0  0  0  0
 13 12  1  0  0  0  0
 14 15  2  0  0  0  0
 15 16  1  0  0  0  0
 16 17  2  0  0  0  0
 17 22  1  0  0  0  0
 19 11  1  0  0  0  0
 20 13  1  0  0  0  0
 21 14  1  0  0  0  0
 23  3  1  0  0  0  0
 24 23  1  0  0  0  0
 25 24  1  0  0  0  0
 26 28  1  0  0  0  0
 26 24  2  0  0  0  0
 27 26  1  0  0  0  0
 28 30  1  0  0  0  0
 29 28  1  0  0  0  0
 30 23  2  0  0  0  0
M  END
>  <minimizedAffinity>
-5.40281391

$$$$

 OpenBabel03242513023D

 30 33  0  0  0  0  0  0  0  0999 V2000
   36.4980   31.3060   40.5320 C   0  0  0  0  0  0  0  0  0  0  0  0
   37.3780   32.0110   39.7120 C   0  0  0  0  0  0  0  0  0  0  0  0
   38.6820   31.5170   39.5730 C   0  0  0  0  0  0  0  0  0  0  0  0
   39.0320   30.3730   40.2440 N   0  0  0  0  0  0  0  0  0  0  0  0
   38.1460   29.7190   41.0290 C   0  0  0  0  0  0  0  0  0  0  0  0
   36.9010   30.1900   41.1630 N   0  0  0  0  0  0  0  0  0  0  0  0
   35.4960   31.7000   40.6270 H   0  0  0  0  0  0  0  0  0  0  0  0
   37.1000   32.9140   39.1830 H   0  0  0  0  0  0  0  0  0  0  0  0
   39.1440   28.5730   42.9630 C   0  0  0  0  0  0  0  0  0  0  0  0
   38.5840   28.5060   41.7150 C   0  0  0  0  0  0  0  0  0  0  0  0
   38.4010   27.3030   41.0410 C   0  0  0  0  0  0  0  0  0  0  0  0
   38.7950   26.1080   41.6340 C   0  0  0  0  0  0  0  0  0  0  0  0
   38.7750   24.7890   41.2910 N   0  0  0  0  0  0  0  0  0  0  0  0
   39.3210   24.0790   42.3300 C   0  0  0  0  0  0  0  0  0  0  0  0
   39.6650   24.9700   43.2870 N   0  0  0  0  0  0  0  0  0  0  0  0
   39.3580   26.2160   42.8960 C   0  0  0  0  0  0  0  0  0  0  0  0
   39.5450   27.3950   43.5760 C   0  0  0  0  0  0  0  0  0  0  0  0
   39.2890   29.4990   43.4920 H   0  0  0  0  0  0  0  0  0  0  0  0
   37.9590   27.2130   40.0490 H   0  0  0  0  0  0  0  0  0  0  0  0
   38.3870   24.4760   40.3650 H   0  0  0  0  0  0  0  0  0  0  0  0
   39.3980   23.0030   42.2540 H   0  0  0  0  0  0  0  0  0  0  0  0
   39.9980   27.4020   44.5730 H   0  0  0  0  0  0  0  0  0  0  0  0
   39.6850   32.1750   38.7410 C   0  0  0  0  0  0  0  0  0  0  0  0
   40.5840   33.1060   39.2490 C   0  0  0  0  0  0  0  0  0  0  0  0
   40.6380   33.4350   40.2740 H   0  0  0  0  0  0  0  0  0  0  0  0
   41.4030   33.5470   38.2220 C   0  0  0  0  0  0  0  0  0  0  0  0
   42.2040   34.2760   38.3030 H   0  0  0  0  0  0  0  0  0  0  0  0
   40.9810   32.8740   37.1200 N   0  0  0  0  0  0  0  0  0  0  0  0
   41.4030   32.9800   36.1510 H   0  0  0  0  0  0  0  0  0  0  0  0
   39.9780   32.0740   37.4330 N   0  0  0  0  0  0  0  0  0  0  0  0
  1  7  1  0  0  0  0
  1  6  1  0  0  0  0
  2  1  2  0  0  0  0
  3  2  1  0  0  0  0
  3  4  2  0  0  0  0
  4  5  1  0  0  0  0
  5  6  2  0  0  0  0
  5 10  1  0  0  0  0
  8  2  1  0  0  0  0
  9 18  1  0  0  0  0
  9 17  1  0  0  0  0
 10  9  2  0  0  0  0
 11 12  2  0  0  0  0
 11 10  1  0  0  0  0
 12 16  1  0  0  0  0
 13 12  1  0  0  0  0
 13 14  1  0  0  0  0
 14 15  2  0  0  0  0
 16 15  1  0  0  0  0
 16 17  2  0  0  0  0
 17 22  1  0  0  0  0
 19 11  1  0  0  0  0
 20 13  1  0  0  0  0
 21 14  1  0  0  0  0
 23 24  1  0  0  0  0
 23  3  1  0  0  0  0
 24 25  1  0  0  0  0
 26 27  1  0  0  0  0
 26 24  2  0  0  0  0
 28 30  1  0  0  0  0
 28 26  1  0  0  0  0
 29 28  1  0  0  0  0
 30 23  2  0  0  0  0
M  END
>  <minimizedAffinity>
-5.3540616

$$$$

 OpenBabel03242513023D

 30 33  0  0  0  0  0  0  0  0999 V2000
   39.8490   27.2040   43.5530 C   0  0  0  0  0  0  0  0  0  0  0  0
   39.3500   26.0170   43.0180 C   0  0  0  0  0  0  0  0  0  0  0  0
   38.4710   26.1060   41.9320 C   0  0  0  0  0  0  0  0  0  0  0  0
   38.1410   27.3470   41.4460 N   0  0  0  0  0  0  0  0  0  0  0  0
   38.6490   28.4740   41.9940 C   0  0  0  0  0  0  0  0  0  0  0  0
   39.4890   28.3900   43.0320 N   0  0  0  0  0  0  0  0  0  0  0  0
   40.5270   27.1180   44.3900 H   0  0  0  0  0  0  0  0  0  0  0  0
   39.6110   25.0390   43.4030 H   0  0  0  0  0  0  0  0  0  0  0  0
   37.0560   29.9070   40.7850 C   0  0  0  0  0  0  0  0  0  0  0  0
   38.2580   29.7620   41.4280 C   0  0  0  0  0  0  0  0  0  0  0  0
   39.1560   30.8130   41.5770 C   0  0  0  0  0  0  0  0  0  0  0  0
   38.8490   32.0690   41.0630 C   0  0  0  0  0  0  0  0  0  0  0  0
   39.4590   33.2870   41.0190 N   0  0  0  0  0  0  0  0  0  0  0  0
   38.6230   34.1480   40.3530 C   0  0  0  0  0  0  0  0  0  0  0  0
   37.5230   33.4460   40.0020 N   0  0  0  0  0  0  0  0  0  0  0  0
   37.6260   32.1760   40.4190 C   0  0  0  0  0  0  0  0  0  0  0  0
   36.7270   31.1490   40.2630 C   0  0  0  0  0  0  0  0  0  0  0  0
   36.3540   29.0990   40.6650 H   0  0  0  0  0  0  0  0  0  0  0  0
   40.1190   30.7340   42.0820 H   0  0  0  0  0  0  0  0  0  0  0  0
   40.4060   33.4350   41.4500 H   0  0  0  0  0  0  0  0  0  0  0  0
   38.9270   35.1760   40.2100 H   0  0  0  0  0  0  0  0  0  0  0  0
   35.7780   31.3090   39.7420 H   0  0  0  0  0  0  0  0  0  0  0  0
   37.8890   24.9290   41.2950 C   0  0  0  0  0  0  0  0  0  0  0  0
   36.8440   25.0120   40.3810 C   0  0  0  0  0  0  0  0  0  0  0  0
   36.3650   25.9210   40.0540 H   0  0  0  0  0  0  0  0  0  0  0  0
   36.5150   23.7350   39.9560 C   0  0  0  0  0  0  0  0  0  0  0  0
   35.7390   23.4720   39.2440 H   0  0  0  0  0  0  0  0  0  0  0  0
   37.3650   22.9110   40.6220 N   0  0  0  0  0  0  0  0  0  0  0  0
   37.3810   21.8530   40.5240 H   0  0  0  0  0  0  0  0  0  0  0  0
   38.1650   23.6170   41.4010 N   0  0  0  0  0  0  0  0  0  0  0  0
  1  7  1  0  0  0  0
  2  8  1  0  0  0  0
  2  1  2  0  0  0  0
  3  2  1  0  0  0  0
  4  3  2  0  0  0  0
  4  5  1  0  0  0  0
  5  6  2  0  0  0  0
  6  1  1  0  0  0  0
  9 10  1  0  0  0  0
 10 11  2  0  0  0  0
 10  5  1  0  0  0  0
 11 19  1  0  0  0  0
 12 11  1  0  0  0  0
 13 12  1  0  0  0  0
 13 20  1  0  0  0  0
 14 13  1  0  0  0  0
 15 14  2  0  0  0  0
 15 16  1  0  0  0  0
 16 12  2  0  0  0  0
 17 16  1  0  0  0  0
 17  9  2  0  0  0  0
 18  9  1  0  0  0  0
 21 14  1  0  0  0  0
 22 17  1  0  0  0  0
 23 30  2  0  0  0  0
 23  3  1  0  0  0  0
 24 23  1  0  0  0  0
 25 24  1  0  0  0  0
 26 24  2  0  0  0  0
 26 28  1  0  0  0  0
 27 26  1  0  0  0  0
 28 30  1  0  0  0  0
 29 28  1  0  0  0  0
M  END
>  <minimizedAffinity>
-5.29324579

$$$$

 OpenBabel03242513023D

 30 33  0  0  0  0  0  0  0  0999 V2000
   37.0750   31.1130   38.4480 C   0  0  0  0  0  0  0  0  0  0  0  0
   36.6600   30.2330   39.4460 C   0  0  0  0  0  0  0  0  0  0  0  0
   37.5080   30.0390   40.5430 C   0  0  0  0  0  0  0  0  0  0  0  0
   38.7000   30.7170   40.5870 N   0  0  0  0  0  0  0  0  0  0  0  0
   39.0630   31.5640   39.5980 C   0  0  0  0  0  0  0  0  0  0  0  0
   38.2540   31.7500   38.5490 N   0  0  0  0  0  0  0  0  0  0  0  0
   36.4070   31.2530   37.6090 H   0  0  0  0  0  0  0  0  0  0  0  0
   35.7190   29.6970   39.4090 H   0  0  0  0  0  0  0  0  0  0  0  0
   41.0280   32.6430   38.5850 C   0  0  0  0  0  0  0  0  0  0  0  0
   40.3450   32.2560   39.7080 C   0  0  0  0  0  0  0  0  0  0  0  0
   40.8210   32.4970   40.9920 C   0  0  0  0  0  0  0  0  0  0  0  0
   42.0360   33.1510   41.1710 C   0  0  0  0  0  0  0  0  0  0  0  0
   42.7900   33.5450   42.2360 N   0  0  0  0  0  0  0  0  0  0  0  0
   43.9140   34.1610   41.7460 C   0  0  0  0  0  0  0  0  0  0  0  0
   43.8300   34.1330   40.3980 N   0  0  0  0  0  0  0  0  0  0  0  0
   42.6980   33.5260   40.0130 C   0  0  0  0  0  0  0  0  0  0  0  0
   42.2420   33.2980   38.7380 C   0  0  0  0  0  0  0  0  0  0  0  0
   40.6670   32.4620   37.5870 H   0  0  0  0  0  0  0  0  0  0  0  0
   40.3050   32.2040   41.9060 H   0  0  0  0  0  0  0  0  0  0  0  0
   42.4750   33.3590   43.2220 H   0  0  0  0  0  0  0  0  0  0  0  0
   44.6500   34.5490   42.4380 H   0  0  0  0  0  0  0  0  0  0  0  0
   42.8210   33.6240   37.8670 H   0  0  0  0  0  0  0  0  0  0  0  0
   37.1750   29.1390   41.6440 C   0  0  0  0  0  0  0  0  0  0  0  0
   37.8830   29.1270   42.8400 C   0  0  0  0  0  0  0  0  0  0  0  0
   38.7260   29.7550   43.0790 H   0  0  0  0  0  0  0  0  0  0  0  0
   37.3310   28.1730   43.6800 C   0  0  0  0  0  0  0  0  0  0  0  0
   37.6640   27.9260   44.6830 H   0  0  0  0  0  0  0  0  0  0  0  0
   36.3040   27.6320   42.9730 N   0  0  0  0  0  0  0  0  0  0  0  0
   35.6650   26.8630   43.3310 H   0  0  0  0  0  0  0  0  0  0  0  0
   36.2200   28.2030   41.7850 N   0  0  0  0  0  0  0  0  0  0  0  0
  1  6  2  0  0  0  0
  1  2  1  0  0  0  0
  2  3  2  0  0  0  0
  3  4  1  0  0  0  0
  3 23  1  0  0  0  0
  5 10  1  0  0  0  0
  5  4  2  0  0  0  0
  6  5  1  0  0  0  0
  7  1  1  0  0  0  0
  8  2  1  0  0  0  0
  9 17  2  0  0  0  0
  9 10  1  0  0  0  0
 10 11  2  0  0  0  0
 11 12  1  0  0  0  0
 11 19  1  0  0  0  0
 12 13  1  0  0  0  0
 13 20  1  0  0  0  0
 14 13  1  0  0  0  0
 14 21  1  0  0  0  0
 15 14  2  0  0  0  0
 16 15  1  0  0  0  0
 16 12  2  0  0  0  0
 17 16  1  0  0  0  0
 18  9  1  0  0  0  0
 22 17  1  0  0  0  0
 23 30  2  0  0  0  0
 23 24  1  0  0  0  0
 24 25  1  0  0  0  0
 24 26  2  0  0  0  0
 26 27  1  0  0  0  0
 28 29  1  0  0  0  0
 28 26  1  0  0  0  0
 30 28  1  0  0  0  0
M  END
>  <minimizedAffinity>
-5.21567392

$$$$

 OpenBabel03242513023D

 30 33  0  0  0  0  0  0  0  0999 V2000
   37.4440   27.9620   43.6800 C   0  0  0  0  0  0  0  0  0  0  0  0
   37.4980   29.2730   43.2060 C   0  0  0  0  0  0  0  0  0  0  0  0
   37.4020   29.4730   41.8230 C   0  0  0  0  0  0  0  0  0  0  0  0
   37.2600   28.3830   41.0030 N   0  0  0  0  0  0  0  0  0  0  0  0
   37.2100   27.1280   41.5050 C   0  0  0  0  0  0  0  0  0  0  0  0
   37.3030   26.9340   42.8260 N   0  0  0  0  0  0  0  0  0  0  0  0
   37.5180   27.8250   44.7490 H   0  0  0  0  0  0  0  0  0  0  0  0
   37.6100   30.1320   43.8550 H   0  0  0  0  0  0  0  0  0  0  0  0
   36.3880   26.1740   39.3920 C   0  0  0  0  0  0  0  0  0  0  0  0
   37.0570   26.0110   40.5770 C   0  0  0  0  0  0  0  0  0  0  0  0
   37.6190   24.7970   40.9560 C   0  0  0  0  0  0  0  0  0  0  0  0
   37.5110   23.6890   40.1200 C   0  0  0  0  0  0  0  0  0  0  0  0
   37.9190   22.3900   40.1570 N   0  0  0  0  0  0  0  0  0  0  0  0
   37.4930   21.7860   39.0000 C   0  0  0  0  0  0  0  0  0  0  0  0
   36.8350   22.7210   38.2800 N   0  0  0  0  0  0  0  0  0  0  0  0
   36.8280   23.8930   38.9320 C   0  0  0  0  0  0  0  0  0  0  0  0
   36.2670   25.0850   38.5410 C   0  0  0  0  0  0  0  0  0  0  0  0
   35.9510   27.1100   39.0900 H   0  0  0  0  0  0  0  0  0  0  0  0
   38.1580   24.6310   41.8890 H   0  0  0  0  0  0  0  0  0  0  0  0
   38.4600   22.0140   40.9770 H   0  0  0  0  0  0  0  0  0  0  0  0
   37.7180   20.7410   38.8340 H   0  0  0  0  0  0  0  0  0  0  0  0
   35.7410   25.1710   37.5850 H   0  0  0  0  0  0  0  0  0  0  0  0
   37.4480   30.8010   41.2180 C   0  0  0  0  0  0  0  0  0  0  0  0
   38.6410   31.4740   40.9800 C   0  0  0  0  0  0  0  0  0  0  0  0
   39.6280   31.1050   41.2080 H   0  0  0  0  0  0  0  0  0  0  0  0
   38.3580   32.7010   40.4020 C   0  0  0  0  0  0  0  0  0  0  0  0
   39.0800   33.4540   40.1000 H   0  0  0  0  0  0  0  0  0  0  0  0
   37.0040   32.7420   40.3040 N   0  0  0  0  0  0  0  0  0  0  0  0
   36.4530   33.5540   39.8980 H   0  0  0  0  0  0  0  0  0  0  0  0
   36.4800   31.6270   40.7820 N   0  0  0  0  0  0  0  0  0  0  0  0
  1  7  1  0  0  0  0
  2  1  1  0  0  0  0
  2  8  1  0  0  0  0
  3  2  2  0  0  0  0
  4  5  2  0  0  0  0
  4  3  1  0  0  0  0
  5  6  1  0  0  0  0
  6  1  2  0  0  0  0
  9 10  1  0  0  0  0
 10 11  2  0  0  0  0
 10  5  1  0  0  0  0
 11 19  1  0  0  0  0
 12 13  1  0  0  0  0
 12 11  1  0  0  0  0
 13 20  1  0  0  0  0
 14 13  1  0  0  0  0
 15 16  1  0  0  0  0
 15 14  2  0  0  0  0
 16 12  2  0  0  0  0
 17 16  1  0  0  0  0
 17  9  2  0  0  0  0
 18  9  1  0  0  0  0
 21 14  1  0  0  0  0
 22 17  1  0  0  0  0
 23  3  1  0  0  0  0
 24 25  1  0  0  0  0
 24 23  1  0  0  0  0
 26 24  2  0  0  0  0
 27 26  1  0  0  0  0
 28 26  1  0  0  0  0
 28 30  1  0  0  0  0
 29 28  1  0  0  0  0
 30 23  2  0  0  0  0
M  END
>  <minimizedAffinity>
-5.14176846

$$$$
