
 OpenBabel03252509283D

 20 21  0  0  0  0  0  0  0  0999 V2000
   46.8480   34.9700   41.9950 C   0  0  0  0  0  0  0  0  0  0  0  0
   47.9410   34.7990   42.2230 H   0  0  0  0  0  0  0  0  0  0  0  0
   46.8140   35.9730   41.5240 H   0  0  0  0  0  0  0  0  0  0  0  0
   44.5210   35.9310   44.7410 C   0  0  0  0  0  0  0  0  0  0  0  0
   45.2110   35.9760   43.5120 C   0  0  0  0  0  0  0  0  0  0  0  0
   46.1240   34.9370   43.2680 C   0  0  0  0  0  0  0  0  0  0  0  0
   46.2860   33.9670   44.2150 N   0  0  0  0  0  0  0  0  0  0  0  0
   45.6010   33.9710   45.3770 C   0  0  0  0  0  0  0  0  0  0  0  0
   44.7140   34.9650   45.6310 N   0  0  0  0  0  0  0  0  0  0  0  0
   43.8300   36.7600   44.8710 H   0  0  0  0  0  0  0  0  0  0  0  0
   45.0480   36.7650   42.7940 H   0  0  0  0  0  0  0  0  0  0  0  0
   45.8110   33.1510   46.0510 H   0  0  0  0  0  0  0  0  0  0  0  0
   46.4730   33.9000   41.0480 C   0  0  0  0  0  0  0  0  0  0  0  0
   45.2180   33.9430   40.4510 C   0  0  0  0  0  0  0  0  0  0  0  0
   44.4040   34.6710   40.5610 H   0  0  0  0  0  0  0  0  0  0  0  0
   45.0460   32.8660   39.6010 C   0  0  0  0  0  0  0  0  0  0  0  0
   44.2240   32.5740   38.9830 H   0  0  0  0  0  0  0  0  0  0  0  0
   46.2270   32.1920   39.7130 N   0  0  0  0  0  0  0  0  0  0  0  0
   46.5340   31.3060   39.2380 H   0  0  0  0  0  0  0  0  0  0  0  0
   47.0690   32.7990   40.5640 N   0  0  0  0  0  0  0  0  0  0  0  0
  1  2  1  0  0  0  0
  1  6  1  0  0  0  0
  3  1  1  0  0  0  0
  4 10  1  0  0  0  0
  4  9  1  0  0  0  0
  5  4  2  0  0  0  0
  6  5  1  0  0  0  0
  6  7  2  0  0  0  0
  7  8  1  0  0  0  0
  8  9  2  0  0  0  0
  8 12  1  0  0  0  0
 11  5  1  0  0  0  0
 13  1  1  0  0  0  0
 14 15  1  0  0  0  0
 14 13  1  0  0  0  0
 16 18  1  0  0  0  0
 16 14  2  0  0  0  0
 17 16  1  0  0  0  0
 18 20  1  0  0  0  0
 19 18  1  0  0  0  0
 20 13  2  0  0  0  0
M  END
>  <minimizedAffinity>
-3.54866242

>  <minimizedRMSD>
0.544351101

$$$$
