
 OpenBabel03252508163D

 36 39  0  0  1  0  0  0  0  0999 V2000
   38.4860   27.2560   43.7490 C   0  0  0  0  0  0  0  0  0  0  0  0
   37.6870   26.6310   44.1590 H   0  0  0  0  0  0  0  0  0  0  0  0
   39.0610   27.7810   44.5560 H   0  0  0  0  0  0  0  0  0  0  0  0
   39.5240   26.5140   42.9440 C   0  0  1  0  0  0  0  0  0  0  0  0
   40.0000   25.2210   43.4990 C   0  0  0  0  0  0  0  0  0  0  0  0
   39.1650   25.2220   42.3150 C   0  0  1  0  0  0  0  0  0  0  0  0
   40.2610   27.1410   42.3910 H   0  0  0  0  0  0  0  0  0  0  0  0
   39.6070   24.9020   44.4960 H   0  0  0  0  0  0  0  0  0  0  0  0
   41.0930   24.9680   43.4250 H   0  0  0  0  0  0  0  0  0  0  0  0
   39.7150   24.9710   41.3560 H   0  0  0  0  0  0  0  0  0  0  0  0
   37.7330   24.8430   42.2630 C   0  0  0  0  0  0  0  0  0  0  0  0
   37.3940   23.7570   41.2020 C   0  0  0  0  0  0  0  0  0  0  0  0
   37.0140   25.1560   40.9230 C   0  0  0  0  0  0  0  0  0  0  0  0
   37.1080   24.8840   43.1560 H   0  0  0  0  0  0  0  0  0  0  0  0
   38.2380   23.3120   40.6490 H   0  0  0  0  0  0  0  0  0  0  0  0
   36.5510   23.0830   41.5220 H   0  0  0  0  0  0  0  0  0  0  0  0
   37.6210   25.6860   40.1600 H   0  0  0  0  0  0  0  0  0  0  0  0
   35.9510   25.4580   41.0040 H   0  0  0  0  0  0  0  0  0  0  0  0
   38.7230   28.9850   42.1460 C   0  0  0  0  0  3  0  0  0  0  0  0
   37.9000   28.3880   42.9160 C   0  0  0  0  0  3  0  0  0  0  0  0
   36.5250   31.4970   40.5850 C   0  0  0  0  0  0  0  0  0  0  0  0
   37.3640   32.1430   39.6850 C   0  0  0  0  0  0  0  0  0  0  0  0
   38.6570   31.7140   39.6410 C   0  0  0  0  0  0  0  0  0  0  0  0
   39.0520   30.7040   40.4560 N   0  0  0  0  0  0  0  0  0  0  0  0
   38.2320   30.0850   41.3220 C   0  0  0  0  0  0  0  0  0  0  0  0
   36.9630   30.5130   41.3580 N   0  0  0  0  0  0  0  0  0  0  0  0
   35.5000   31.8310   40.6250 H   0  0  0  0  0  0  0  0  0  0  0  0
   37.0660   32.9370   39.0400 H   0  0  0  0  0  0  0  0  0  0  0  0
   39.6720   32.2790   38.7590 C   0  0  0  0  0  0  0  0  0  0  0  0
   40.6090   33.2190   39.2040 C   0  0  0  0  0  0  0  0  0  0  0  0
   40.7280   33.6500   40.1930 H   0  0  0  0  0  0  0  0  0  0  0  0
   41.4330   33.5550   38.1260 C   0  0  0  0  0  0  0  0  0  0  0  0
   42.2620   34.2590   38.1320 H   0  0  0  0  0  0  0  0  0  0  0  0
   40.9730   32.8160   37.0770 N   0  0  0  0  0  0  0  0  0  0  0  0
   41.4160   32.8750   36.1320 H   0  0  0  0  0  0  0  0  0  0  0  0
   39.9460   32.0790   37.4680 N   0  0  0  0  0  0  0  0  0  0  0  0
  1  2  1  0  0  0  0
  1  3  1  0  0  0  0
  4  7  1  6  0  0  0
  4  5  1  0  0  0  0
  4  1  1  0  0  0  0
  5  8  1  0  0  0  0
  6 10  1  6  0  0  0
  6  4  1  0  0  0  0
  6  5  1  0  0  0  0
  9  5  1  0  0  0  0
 11  6  1  0  0  0  0
 11 14  1  0  0  0  0
 12 16  1  0  0  0  0
 12 11  1  0  0  0  0
 13 18  1  0  0  0  0
 13 12  1  0  0  0  0
 13 11  1  0  0  0  0
 15 12  1  0  0  0  0
 17 13  1  0  0  0  0
 19 20  2  0  0  0  0
 20  1  1  0  0  0  0
 21 27  1  0  0  0  0
 21 26  1  0  0  0  0
 22 21  2  0  0  0  0
 23 22  1  0  0  0  0
 23 24  2  0  0  0  0
 24 25  1  0  0  0  0
 25 26  2  0  0  0  0
 25 19  1  0  0  0  0
 28 22  1  0  0  0  0
 29 30  1  0  0  0  0
 29 23  1  0  0  0  0
 30 31  1  0  0  0  0
 32 33  1  0  0  0  0
 32 30  2  0  0  0  0
 34 36  1  0  0  0  0
 34 32  1  0  0  0  0
 35 34  1  0  0  0  0
 36 29  2  0  0  0  0
M  END
>  <minimizedAffinity>
-5.35087919

$$$$

 OpenBabel03252508163D

 36 39  0  0  1  0  0  0  0  0999 V2000
   37.3570   28.8930   41.6490 C   0  0  0  0  0  0  0  0  0  0  0  0
   38.0400   28.2280   41.1120 H   0  0  0  0  0  0  0  0  0  0  0  0
   36.3280   28.8830   41.2040 H   0  0  0  0  0  0  0  0  0  0  0  0
   37.1590   28.5590   43.1070 C   0  0  1  0  0  0  0  0  0  0  0  0
   36.5980   27.2180   43.4140 C   0  0  0  0  0  0  0  0  0  0  0  0
   37.9860   27.4960   43.7250 C   0  0  1  0  0  0  0  0  0  0  0  0
   36.8700   29.4050   43.7720 H   0  0  0  0  0  0  0  0  0  0  0  0
   36.3070   26.5630   42.5570 H   0  0  0  0  0  0  0  0  0  0  0  0
   35.8380   27.1230   44.2370 H   0  0  0  0  0  0  0  0  0  0  0  0
   38.2000   27.6200   44.8320 H   0  0  0  0  0  0  0  0  0  0  0  0
   39.1600   26.9960   42.9720 C   0  0  0  0  0  0  0  0  0  0  0  0
   40.3330   26.5020   43.8660 C   0  0  0  0  0  0  0  0  0  0  0  0
   40.4710   27.8020   43.1810 C   0  0  0  0  0  0  0  0  0  0  0  0
   39.0430   26.5280   41.9940 H   0  0  0  0  0  0  0  0  0  0  0  0
   40.1650   26.4870   44.9560 H   0  0  0  0  0  0  0  0  0  0  0  0
   40.9050   25.6500   43.4040 H   0  0  0  0  0  0  0  0  0  0  0  0
   40.3890   28.7050   43.8210 H   0  0  0  0  0  0  0  0  0  0  0  0
   41.1330   27.8830   42.2960 H   0  0  0  0  0  0  0  0  0  0  0  0
   38.5490   30.5900   40.5030 C   0  0  0  0  0  3  0  0  0  0  0  0
   37.8070   30.3410   41.5090 C   0  0  0  0  0  3  0  0  0  0  0  0
   38.8190   34.2640   40.6030 C   0  0  0  0  0  0  0  0  0  0  0  0
   39.9580   34.5220   39.8510 C   0  0  0  0  0  0  0  0  0  0  0  0
   40.6110   33.4410   39.3390 C   0  0  0  0  0  0  0  0  0  0  0  0
   40.1280   32.1960   39.5810 N   0  0  0  0  0  0  0  0  0  0  0  0
   39.0240   31.9560   40.3100 C   0  0  0  0  0  0  0  0  0  0  0  0
   38.3910   33.0260   40.8090 N   0  0  0  0  0  0  0  0  0  0  0  0
   38.2980   35.1150   41.0120 H   0  0  0  0  0  0  0  0  0  0  0  0
   40.3480   35.4950   39.6540 H   0  0  0  0  0  0  0  0  0  0  0  0
   41.8210   33.5280   38.5290 C   0  0  0  0  0  0  0  0  0  0  0  0
   43.0570   33.8970   39.0710 C   0  0  0  0  0  0  0  0  0  0  0  0
   43.3040   34.1580   40.0960 H   0  0  0  0  0  0  0  0  0  0  0  0
   44.0040   33.8830   38.0440 C   0  0  0  0  0  0  0  0  0  0  0  0
   45.0620   34.1210   38.1260 H   0  0  0  0  0  0  0  0  0  0  0  0
   43.3170   33.5100   36.9260 N   0  0  0  0  0  0  0  0  0  0  0  0
   43.7910   33.4180   36.0000 H   0  0  0  0  0  0  0  0  0  0  0  0
   42.0460   33.3080   37.2320 N   0  0  0  0  0  0  0  0  0  0  0  0
  1  4  1  0  0  0  0
  2  1  1  0  0  0  0
  3  1  1  0  0  0  0
  4  5  1  0  0  0  0
  4  6  1  0  0  0  0
  4  7  1  1  0  0  0
  5  6  1  0  0  0  0
  5  9  1  0  0  0  0
  6 10  1  1  0  0  0
  8  5  1  0  0  0  0
 11 13  1  0  0  0  0
 11  6  1  0  0  0  0
 11 12  1  0  0  0  0
 12 15  1  0  0  0  0
 13 17  1  0  0  0  0
 13 12  1  0  0  0  0
 14 11  1  0  0  0  0
 16 12  1  0  0  0  0
 18 13  1  0  0  0  0
 19 20  2  0  0  0  0
 20  1  1  0  0  0  0
 21 26  1  0  0  0  0
 21 27  1  0  0  0  0
 22 21  2  0  0  0  0
 23 24  2  0  0  0  0
 23 22  1  0  0  0  0
 24 25  1  0  0  0  0
 25 19  1  0  0  0  0
 25 26  2  0  0  0  0
 28 22  1  0  0  0  0
 29 30  1  0  0  0  0
 29 23  1  0  0  0  0
 30 31  1  0  0  0  0
 32 33  1  0  0  0  0
 32 30  2  0  0  0  0
 34 36  1  0  0  0  0
 34 32  1  0  0  0  0
 35 34  1  0  0  0  0
 36 29  2  0  0  0  0
M  END
>  <minimizedAffinity>
-5.33343887

$$$$

 OpenBabel03252508163D

 36 39  0  0  1  0  0  0  0  0999 V2000
   36.4910   28.5170   41.1060 C   0  0  0  0  0  0  0  0  0  0  0  0
   36.6590   27.8480   40.2560 H   0  0  0  0  0  0  0  0  0  0  0  0
   35.4120   28.5450   41.4080 H   0  0  0  0  0  0  0  0  0  0  0  0
   37.2430   28.1520   42.3610 C   0  0  1  0  0  0  0  0  0  0  0  0
   36.4970   27.3720   43.3830 C   0  0  0  0  0  0  0  0  0  0  0  0
   37.5550   26.7290   42.6310 C   0  0  1  0  0  0  0  0  0  0  0  0
   37.9900   28.8950   42.7240 H   0  0  0  0  0  0  0  0  0  0  0  0
   35.4190   27.1500   43.1890 H   0  0  0  0  0  0  0  0  0  0  0  0
   36.6410   27.6220   44.4690 H   0  0  0  0  0  0  0  0  0  0  0  0
   38.5000   26.5360   43.2270 H   0  0  0  0  0  0  0  0  0  0  0  0
   37.3680   25.7520   41.5320 C   0  0  0  0  0  0  0  0  0  0  0  0
   37.1790   24.2820   42.0050 C   0  0  0  0  0  0  0  0  0  0  0  0
   38.4750   24.6690   41.4140 C   0  0  0  0  0  0  0  0  0  0  0  0
   36.8890   26.0430   40.5960 H   0  0  0  0  0  0  0  0  0  0  0  0
   37.1180   24.1060   43.0920 H   0  0  0  0  0  0  0  0  0  0  0  0
   36.4990   23.6900   41.3310 H   0  0  0  0  0  0  0  0  0  0  0  0
   39.3260   24.7670   42.1200 H   0  0  0  0  0  0  0  0  0  0  0  0
   38.7230   24.3430   40.3850 H   0  0  0  0  0  0  0  0  0  0  0  0
   37.9810   30.3560   41.0040 C   0  0  0  0  0  3  0  0  0  0  0  0
   36.8050   29.9560   40.7190 C   0  0  0  0  0  3  0  0  0  0  0  0
   37.8120   33.8820   39.9450 C   0  0  0  0  0  0  0  0  0  0  0  0
   39.1380   34.2950   39.9930 C   0  0  0  0  0  0  0  0  0  0  0  0
   40.0530   33.3670   40.3940 C   0  0  0  0  0  0  0  0  0  0  0  0
   39.6360   32.1180   40.7180 N   0  0  0  0  0  0  0  0  0  0  0  0
   38.3500   31.7270   40.6670 C   0  0  0  0  0  0  0  0  0  0  0  0
   37.4600   32.6460   40.2720 N   0  0  0  0  0  0  0  0  0  0  0  0
   37.0830   34.6100   39.6290 H   0  0  0  0  0  0  0  0  0  0  0  0
   39.4790   35.2730   39.7410 H   0  0  0  0  0  0  0  0  0  0  0  0
   41.4840   33.6290   40.5030 C   0  0  0  0  0  0  0  0  0  0  0  0
   42.2940   32.9710   41.4350 C   0  0  0  0  0  0  0  0  0  0  0  0
   42.0200   32.2210   42.1710 H   0  0  0  0  0  0  0  0  0  0  0  0
   43.6010   33.4410   41.2830 C   0  0  0  0  0  0  0  0  0  0  0  0
   44.4760   33.1360   41.8520 H   0  0  0  0  0  0  0  0  0  0  0  0
   43.5400   34.3580   40.2750 N   0  0  0  0  0  0  0  0  0  0  0  0
   44.3900   34.8710   39.9520 H   0  0  0  0  0  0  0  0  0  0  0  0
   42.2960   34.4510   39.8340 N   0  0  0  0  0  0  0  0  0  0  0  0
  1  3  1  0  0  0  0
  1  4  1  0  0  0  0
  2  1  1  0  0  0  0
  4  6  1  0  0  0  0
  4  7  1  1  0  0  0
  4  5  1  0  0  0  0
  5  9  1  0  0  0  0
  6 10  1  1  0  0  0
  6  5  1  0  0  0  0
  8  5  1  0  0  0  0
 11 12  1  0  0  0  0
 11  6  1  0  0  0  0
 12 15  1  0  0  0  0
 13 11  1  0  0  0  0
 13 12  1  0  0  0  0
 13 17  1  0  0  0  0
 14 11  1  0  0  0  0
 16 12  1  0  0  0  0
 18 13  1  0  0  0  0
 20 19  2  0  0  0  0
 20  1  1  0  0  0  0
 21 22  2  0  0  0  0
 21 26  1  0  0  0  0
 22 23  1  0  0  0  0
 23 29  1  0  0  0  0
 23 24  2  0  0  0  0
 25 24  1  0  0  0  0
 25 19  1  0  0  0  0
 26 25  2  0  0  0  0
 27 21  1  0  0  0  0
 28 22  1  0  0  0  0
 29 30  1  0  0  0  0
 30 31  1  0  0  0  0
 32 30  2  0  0  0  0
 32 33  1  0  0  0  0
 34 32  1  0  0  0  0
 35 34  1  0  0  0  0
 36 34  1  0  0  0  0
 36 29  2  0  0  0  0
M  END
>  <minimizedAffinity>
-5.17405558

$$$$

 OpenBabel03252508163D

 36 39  0  0  1  0  0  0  0  0999 V2000
   33.8860   28.9360   38.5260 C   0  0  0  0  0  0  0  0  0  0  0  0
   33.3200   29.7820   38.9260 H   0  0  0  0  0  0  0  0  0  0  0  0
   33.3530   27.9630   38.6890 H   0  0  0  0  0  0  0  0  0  0  0  0
   34.1550   28.9940   37.0430 C   0  0  1  0  0  0  0  0  0  0  0  0
   33.7450   27.8110   36.2430 C   0  0  0  0  0  0  0  0  0  0  0  0
   33.0130   29.0540   36.1010 C   0  0  1  0  0  0  0  0  0  0  0  0
   35.0780   29.5340   36.7290 H   0  0  0  0  0  0  0  0  0  0  0  0
   33.3150   26.9350   36.7870 H   0  0  0  0  0  0  0  0  0  0  0  0
   34.4200   27.4510   35.4200 H   0  0  0  0  0  0  0  0  0  0  0  0
   33.2050   29.6000   35.1260 H   0  0  0  0  0  0  0  0  0  0  0  0
   31.6660   29.3350   36.6520 C   0  0  0  0  0  0  0  0  0  0  0  0
   30.5870   29.6550   35.5790 C   0  0  0  0  0  0  0  0  0  0  0  0
   31.1280   30.7670   36.3860 C   0  0  0  0  0  0  0  0  0  0  0  0
   31.3280   28.8670   37.5780 H   0  0  0  0  0  0  0  0  0  0  0  0
   30.8860   29.5670   34.5200 H   0  0  0  0  0  0  0  0  0  0  0  0
   29.5600   29.3010   35.8730 H   0  0  0  0  0  0  0  0  0  0  0  0
   31.8240   31.4570   35.8650 H   0  0  0  0  0  0  0  0  0  0  0  0
   30.5070   31.2070   37.1910 H   0  0  0  0  0  0  0  0  0  0  0  0
   35.1370   28.9720   40.5380 C   0  0  0  0  0  3  0  0  0  0  0  0
   35.1980   28.7700   39.2810 C   0  0  0  0  0  3  0  0  0  0  0  0
   38.1680   29.7520   42.4830 C   0  0  0  0  0  0  0  0  0  0  0  0
   38.7010   28.5000   42.7630 C   0  0  0  0  0  0  0  0  0  0  0  0
   38.0110   27.4230   42.2920 C   0  0  0  0  0  0  0  0  0  0  0  0
   36.8670   27.6210   41.5900 N   0  0  0  0  0  0  0  0  0  0  0  0
   36.3590   28.8370   41.3240 C   0  0  0  0  0  0  0  0  0  0  0  0
   37.0450   29.8890   41.7920 N   0  0  0  0  0  0  0  0  0  0  0  0
   38.7080   30.6090   42.8530 H   0  0  0  0  0  0  0  0  0  0  0  0
   39.5990   28.3310   43.3130 H   0  0  0  0  0  0  0  0  0  0  0  0
   38.4240   26.0390   42.4930 C   0  0  0  0  0  0  0  0  0  0  0  0
   39.6410   25.7040   43.0980 C   0  0  0  0  0  0  0  0  0  0  0  0
   40.4150   26.3590   43.4860 H   0  0  0  0  0  0  0  0  0  0  0  0
   39.7350   24.3100   43.1420 C   0  0  0  0  0  0  0  0  0  0  0  0
   40.5550   23.7230   43.5490 H   0  0  0  0  0  0  0  0  0  0  0  0
   38.5850   23.8530   42.5680 N   0  0  0  0  0  0  0  0  0  0  0  0
   38.3930   22.8310   42.4700 H   0  0  0  0  0  0  0  0  0  0  0  0
   37.8350   24.8780   42.1970 N   0  0  0  0  0  0  0  0  0  0  0  0
  1  3  1  0  0  0  0
  1  2  1  0  0  0  0
  1 20  1  0  0  0  0
  4  7  1  6  0  0  0
  4  1  1  0  0  0  0
  5  8  1  0  0  0  0
  5  4  1  0  0  0  0
  6 10  1  6  0  0  0
  6  5  1  0  0  0  0
  6 11  1  0  0  0  0
  6  4  1  0  0  0  0
  9  5  1  0  0  0  0
 11 14  1  0  0  0  0
 12 16  1  0  0  0  0
 12 13  1  0  0  0  0
 12 11  1  0  0  0  0
 13 11  1  0  0  0  0
 13 18  1  0  0  0  0
 15 12  1  0  0  0  0
 17 13  1  0  0  0  0
 19 25  1  0  0  0  0
 20 19  2  0  0  0  0
 21 22  1  0  0  0  0
 21 27  1  0  0  0  0
 22 28  1  0  0  0  0
 23 29  1  0  0  0  0
 23 22  2  0  0  0  0
 24 23  1  0  0  0  0
 25 24  2  0  0  0  0
 25 26  1  0  0  0  0
 26 21  2  0  0  0  0
 29 30  1  0  0  0  0
 30 32  2  0  0  0  0
 30 31  1  0  0  0  0
 32 33  1  0  0  0  0
 34 32  1  0  0  0  0
 35 34  1  0  0  0  0
 36 29  2  0  0  0  0
 36 34  1  0  0  0  0
M  END
>  <minimizedAffinity>
-5.13035965

$$$$

 OpenBabel03252508163D

 36 39  0  0  1  0  0  0  0  0999 V2000
   37.2500   25.7360   42.4700 C   0  0  0  0  0  0  0  0  0  0  0  0
   36.4760   25.0990   42.0320 H   0  0  0  0  0  0  0  0  0  0  0  0
   37.2450   25.6900   43.5900 H   0  0  0  0  0  0  0  0  0  0  0  0
   38.6620   25.3890   42.0670 C   0  0  1  0  0  0  0  0  0  0  0  0
   39.3320   24.3160   42.8450 C   0  0  0  0  0  0  0  0  0  0  0  0
   38.9400   24.0620   41.4730 C   0  0  1  0  0  0  0  0  0  0  0  0
   39.2920   26.2320   41.7020 H   0  0  0  0  0  0  0  0  0  0  0  0
   38.7790   23.8690   43.7070 H   0  0  0  0  0  0  0  0  0  0  0  0
   40.4170   24.4360   43.1140 H   0  0  0  0  0  0  0  0  0  0  0  0
   39.8040   24.0200   40.7410 H   0  0  0  0  0  0  0  0  0  0  0  0
   37.7900   23.2340   41.0390 C   0  0  0  0  0  0  0  0  0  0  0  0
   38.1690   22.0340   40.1250 C   0  0  0  0  0  0  0  0  0  0  0  0
   37.5300   23.2130   39.5080 C   0  0  0  0  0  0  0  0  0  0  0  0
   36.9070   23.1240   41.6700 H   0  0  0  0  0  0  0  0  0  0  0  0
   39.2440   21.8550   39.9490 H   0  0  0  0  0  0  0  0  0  0  0  0
   37.4970   21.1430   40.2730 H   0  0  0  0  0  0  0  0  0  0  0  0
   38.1890   23.8630   38.8960 H   0  0  0  0  0  0  0  0  0  0  0  0
   36.4680   23.1560   39.2000 H   0  0  0  0  0  0  0  0  0  0  0  0
   37.6000   27.6780   41.1580 C   0  0  0  0  0  3  0  0  0  0  0  0
   36.9710   27.2010   42.1590 C   0  0  0  0  0  3  0  0  0  0  0  0
   36.2030   31.0830   40.9770 C   0  0  0  0  0  0  0  0  0  0  0  0
   37.0150   31.7130   40.0420 C   0  0  0  0  0  0  0  0  0  0  0  0
   38.0210   30.9670   39.5050 C   0  0  0  0  0  0  0  0  0  0  0  0
   38.1780   29.6790   39.8990 N   0  0  0  0  0  0  0  0  0  0  0  0
   37.3870   29.0780   40.8050 C   0  0  0  0  0  0  0  0  0  0  0  0
   36.4010   29.8190   41.3260 N   0  0  0  0  0  0  0  0  0  0  0  0
   35.4050   31.6670   41.4050 H   0  0  0  0  0  0  0  0  0  0  0  0
   36.9020   32.7250   39.7230 H   0  0  0  0  0  0  0  0  0  0  0  0
   38.9660   31.4680   38.5130 C   0  0  0  0  0  0  0  0  0  0  0  0
   40.3460   31.4970   38.7440 C   0  0  0  0  0  0  0  0  0  0  0  0
   40.8990   31.1810   39.6230 H   0  0  0  0  0  0  0  0  0  0  0  0
   40.9660   32.0270   37.6090 C   0  0  0  0  0  0  0  0  0  0  0  0
   42.0310   32.1870   37.4600 H   0  0  0  0  0  0  0  0  0  0  0  0
   39.9520   32.2980   36.7380 N   0  0  0  0  0  0  0  0  0  0  0  0
   40.1370   32.7080   35.7950 H   0  0  0  0  0  0  0  0  0  0  0  0
   38.7940   31.9640   37.2850 N   0  0  0  0  0  0  0  0  0  0  0  0
  1  3  1  0  0  0  0
  2  1  1  0  0  0  0
  4  7  1  6  0  0  0
  4  1  1  0  0  0  0
  4  5  1  0  0  0  0
  5  9  1  0  0  0  0
  5  8  1  0  0  0  0
  6 10  1  6  0  0  0
  6  4  1  0  0  0  0
  6  5  1  0  0  0  0
 11  6  1  0  0  0  0
 11 14  1  0  0  0  0
 12 16  1  0  0  0  0
 12 11  1  0  0  0  0
 13 12  1  0  0  0  0
 13 11  1  0  0  0  0
 15 12  1  0  0  0  0
 17 13  1  0  0  0  0
 18 13  1  0  0  0  0
 19 20  2  0  0  0  0
 20  1  1  0  0  0  0
 21 26  1  0  0  0  0
 21 27  1  0  0  0  0
 22 21  2  0  0  0  0
 23 24  2  0  0  0  0
 23 22  1  0  0  0  0
 24 25  1  0  0  0  0
 25 19  1  0  0  0  0
 25 26  2  0  0  0  0
 28 22  1  0  0  0  0
 29 30  1  0  0  0  0
 29 23  1  0  0  0  0
 30 31  1  0  0  0  0
 32 30  2  0  0  0  0
 33 32  1  0  0  0  0
 34 36  1  0  0  0  0
 34 32  1  0  0  0  0
 35 34  1  0  0  0  0
 36 29  2  0  0  0  0
M  END
>  <minimizedAffinity>
-5.12405825

$$$$

 OpenBabel03252508163D

 36 39  0  0  1  0  0  0  0  0999 V2000
   32.1780   29.6290   36.5050 C   0  0  0  0  0  0  0  0  0  0  0  0
   32.4510   30.6510   36.7850 H   0  0  0  0  0  0  0  0  0  0  0  0
   31.1430   29.3650   36.8430 H   0  0  0  0  0  0  0  0  0  0  0  0
   32.1910   29.3520   35.0220 C   0  0  1  0  0  0  0  0  0  0  0  0
   30.9090   28.9120   34.4140 C   0  0  0  0  0  0  0  0  0  0  0  0
   31.4210   30.2330   34.1130 C   0  0  1  0  0  0  0  0  0  0  0  0
   33.1320   28.9230   34.6080 H   0  0  0  0  0  0  0  0  0  0  0  0
   30.0330   28.7610   35.0920 H   0  0  0  0  0  0  0  0  0  0  0  0
   30.9270   28.1030   33.6340 H   0  0  0  0  0  0  0  0  0  0  0  0
   31.8370   30.3450   33.0650 H   0  0  0  0  0  0  0  0  0  0  0  0
   30.8990   31.5100   34.6540 C   0  0  0  0  0  0  0  0  0  0  0  0
   30.2730   32.4520   33.5870 C   0  0  0  0  0  0  0  0  0  0  0  0
   31.6040   32.7890   34.1280 C   0  0  0  0  0  0  0  0  0  0  0  0
   30.5040   31.5710   35.6700 H   0  0  0  0  0  0  0  0  0  0  0  0
   30.1970   32.0660   32.5560 H   0  0  0  0  0  0  0  0  0  0  0  0
   29.4190   33.0640   33.9910 H   0  0  0  0  0  0  0  0  0  0  0  0
   32.4660   32.6230   33.4490 H   0  0  0  0  0  0  0  0  0  0  0  0
   31.7010   33.6210   34.8550 H   0  0  0  0  0  0  0  0  0  0  0  0
   34.1610   29.0940   37.6880 C   0  0  0  0  0  3  0  0  0  0  0  0
   33.0700   28.6250   37.2230 C   0  0  0  0  0  3  0  0  0  0  0  0
   36.2850   26.1990   38.5140 C   0  0  0  0  0  0  0  0  0  0  0  0
   36.7480   26.4940   39.7900 C   0  0  0  0  0  0  0  0  0  0  0  0
   36.3340   27.6750   40.3320 C   0  0  0  0  0  0  0  0  0  0  0  0
   35.5120   28.4830   39.6170 N   0  0  0  0  0  0  0  0  0  0  0  0
   35.0680   28.1880   38.3830 C   0  0  0  0  0  0  0  0  0  0  0  0
   35.4800   27.0260   37.8600 N   0  0  0  0  0  0  0  0  0  0  0  0
   36.6080   25.2670   38.0790 H   0  0  0  0  0  0  0  0  0  0  0  0
   37.3940   25.8680   40.3620 H   0  0  0  0  0  0  0  0  0  0  0  0
   36.7230   28.1430   41.6570 C   0  0  0  0  0  0  0  0  0  0  0  0
   36.8100   27.2830   42.7570 C   0  0  0  0  0  0  0  0  0  0  0  0
   36.6200   26.2150   42.8080 H   0  0  0  0  0  0  0  0  0  0  0  0
   37.2050   28.0350   43.8670 C   0  0  0  0  0  0  0  0  0  0  0  0
   37.3660   27.6710   44.8800 H   0  0  0  0  0  0  0  0  0  0  0  0
   37.3430   29.3110   43.4070 N   0  0  0  0  0  0  0  0  0  0  0  0
   37.6340   30.0910   44.0390 H   0  0  0  0  0  0  0  0  0  0  0  0
   37.0570   29.3520   42.1160 N   0  0  0  0  0  0  0  0  0  0  0  0
  1  2  1  0  0  0  0
  1  3  1  0  0  0  0
  1 20  1  0  0  0  0
  4  7  1  6  0  0  0
  4  1  1  0  0  0  0
  5  4  1  0  0  0  0
  5  8  1  0  0  0  0
  6 10  1  6  0  0  0
  6  5  1  0  0  0  0
  6 11  1  0  0  0  0
  6  4  1  0  0  0  0
  9  5  1  0  0  0  0
 11 14  1  0  0  0  0
 12 16  1  0  0  0  0
 12 13  1  0  0  0  0
 12 11  1  0  0  0  0
 13 11  1  0  0  0  0
 13 18  1  0  0  0  0
 15 12  1  0  0  0  0
 17 13  1  0  0  0  0
 19 25  1  0  0  0  0
 20 19  2  0  0  0  0
 21 22  1  0  0  0  0
 22 23  2  0  0  0  0
 22 28  1  0  0  0  0
 23 29  1  0  0  0  0
 24 23  1  0  0  0  0
 25 24  2  0  0  0  0
 26 25  1  0  0  0  0
 26 21  2  0  0  0  0
 27 21  1  0  0  0  0
 29 36  2  0  0  0  0
 29 30  1  0  0  0  0
 30 31  1  0  0  0  0
 30 32  2  0  0  0  0
 32 33  1  0  0  0  0
 34 32  1  0  0  0  0
 34 35  1  0  0  0  0
 36 34  1  0  0  0  0
M  END
>  <minimizedAffinity>
-5.10355139

$$$$

 OpenBabel03252508163D

 36 39  0  0  1  0  0  0  0  0999 V2000
   37.7000   26.3610   42.9180 C   0  0  0  0  0  0  0  0  0  0  0  0
   36.8630   25.6560   42.9380 H   0  0  0  0  0  0  0  0  0  0  0  0
   37.9480   26.7450   43.9420 H   0  0  0  0  0  0  0  0  0  0  0  0
   38.9930   25.7980   42.3840 C   0  0  1  0  0  0  0  0  0  0  0  0
   39.5910   24.6670   43.1410 C   0  0  0  0  0  0  0  0  0  0  0  0
   39.0130   24.4220   41.8350 C   0  0  1  0  0  0  0  0  0  0  0  0
   39.6900   26.5250   41.9080 H   0  0  0  0  0  0  0  0  0  0  0  0
   39.0830   24.3390   44.0810 H   0  0  0  0  0  0  0  0  0  0  0  0
   40.7060   24.6390   43.2840 H   0  0  0  0  0  0  0  0  0  0  0  0
   39.7730   24.2280   41.0170 H   0  0  0  0  0  0  0  0  0  0  0  0
   37.7150   23.7550   41.5730 C   0  0  0  0  0  0  0  0  0  0  0  0
   37.7650   22.6630   40.4670 C   0  0  0  0  0  0  0  0  0  0  0  0
   37.1420   23.9620   40.1450 C   0  0  0  0  0  0  0  0  0  0  0  0
   36.9760   23.6310   42.3670 H   0  0  0  0  0  0  0  0  0  0  0  0
   38.7540   22.4240   40.0400 H   0  0  0  0  0  0  0  0  0  0  0  0
   37.0480   21.8170   40.6560 H   0  0  0  0  0  0  0  0  0  0  0  0
   37.7240   24.6340   39.4820 H   0  0  0  0  0  0  0  0  0  0  0  0
   36.0380   24.0320   40.0740 H   0  0  0  0  0  0  0  0  0  0  0  0
   37.5590   27.5670   40.8830 C   0  0  0  0  0  3  0  0  0  0  0  0
   37.3210   27.6110   42.1350 C   0  0  0  0  0  3  0  0  0  0  0  0
   36.2300   29.7210   38.2040 C   0  0  0  0  0  0  0  0  0  0  0  0
   36.6890   30.9850   38.5520 C   0  0  0  0  0  0  0  0  0  0  0  0
   37.4300   31.0740   39.6930 C   0  0  0  0  0  0  0  0  0  0  0  0
   37.6760   29.9520   40.4150 N   0  0  0  0  0  0  0  0  0  0  0  0
   37.2280   28.7330   40.0700 C   0  0  0  0  0  0  0  0  0  0  0  0
   36.5010   28.6570   38.9470 N   0  0  0  0  0  0  0  0  0  0  0  0
   35.6440   29.6430   37.3030 H   0  0  0  0  0  0  0  0  0  0  0  0
   36.5020   31.8740   37.9940 H   0  0  0  0  0  0  0  0  0  0  0  0
   37.9890   32.3190   40.2070 C   0  0  0  0  0  0  0  0  0  0  0  0
   37.7790   33.5490   39.5720 C   0  0  0  0  0  0  0  0  0  0  0  0
   37.2160   33.7660   38.6700 H   0  0  0  0  0  0  0  0  0  0  0  0
   38.4410   34.5360   40.3080 C   0  0  0  0  0  0  0  0  0  0  0  0
   38.4790   35.6000   40.0880 H   0  0  0  0  0  0  0  0  0  0  0  0
   39.0220   33.8780   41.3520 N   0  0  0  0  0  0  0  0  0  0  0  0
   39.5880   34.3850   42.0700 H   0  0  0  0  0  0  0  0  0  0  0  0
   38.7450   32.5870   41.2730 N   0  0  0  0  0  0  0  0  0  0  0  0
  1  2  1  0  0  0  0
  1  3  1  0  0  0  0
  4  7  1  6  0  0  0
  4  1  1  0  0  0  0
  4  5  1  0  0  0  0
  5  9  1  0  0  0  0
  5  8  1  0  0  0  0
  6 10  1  6  0  0  0
  6  4  1  0  0  0  0
  6  5  1  0  0  0  0
 11  6  1  0  0  0  0
 11 14  1  0  0  0  0
 12 16  1  0  0  0  0
 12 11  1  0  0  0  0
 13 12  1  0  0  0  0
 13 11  1  0  0  0  0
 15 12  1  0  0  0  0
 17 13  1  0  0  0  0
 18 13  1  0  0  0  0
 19 20  2  0  0  0  0
 20  1  1  0  0  0  0
 21 22  2  0  0  0  0
 21 26  1  0  0  0  0
 22 23  1  0  0  0  0
 23 29  1  0  0  0  0
 23 24  2  0  0  0  0
 25 24  1  0  0  0  0
 25 19  1  0  0  0  0
 26 25  2  0  0  0  0
 27 21  1  0  0  0  0
 28 22  1  0  0  0  0
 29 36  2  0  0  0  0
 30 29  1  0  0  0  0
 30 32  2  0  0  0  0
 31 30  1  0  0  0  0
 32 34  1  0  0  0  0
 33 32  1  0  0  0  0
 34 35  1  0  0  0  0
 36 34  1  0  0  0  0
M  END
>  <minimizedAffinity>
-5.06847095

$$$$

 OpenBabel03252508163D

 36 39  0  0  1  0  0  0  0  0999 V2000
   33.3760   28.5450   37.4910 C   0  0  0  0  0  0  0  0  0  0  0  0
   32.5100   28.9850   37.9950 H   0  0  0  0  0  0  0  0  0  0  0  0
   33.2780   27.4330   37.3860 H   0  0  0  0  0  0  0  0  0  0  0  0
   33.6250   29.0530   36.0930 C   0  0  1  0  0  0  0  0  0  0  0  0
   32.9800   28.3010   34.9850 C   0  0  0  0  0  0  0  0  0  0  0  0
   32.4990   29.6260   35.3190 C   0  0  1  0  0  0  0  0  0  0  0  0
   34.6290   29.4970   35.9000 H   0  0  0  0  0  0  0  0  0  0  0  0
   32.4000   27.3820   35.2440 H   0  0  0  0  0  0  0  0  0  0  0  0
   33.5600   28.1280   34.0370 H   0  0  0  0  0  0  0  0  0  0  0  0
   32.7750   30.4270   34.5660 H   0  0  0  0  0  0  0  0  0  0  0  0
   31.2410   29.9360   36.0400 C   0  0  0  0  0  0  0  0  0  0  0  0
   30.1470   30.6100   35.1630 C   0  0  0  0  0  0  0  0  0  0  0  0
   30.8860   31.4440   36.1320 C   0  0  0  0  0  0  0  0  0  0  0  0
   30.9050   29.3190   36.8740 H   0  0  0  0  0  0  0  0  0  0  0  0
   30.3630   30.7230   34.0870 H   0  0  0  0  0  0  0  0  0  0  0  0
   29.1030   30.3240   35.4710 H   0  0  0  0  0  0  0  0  0  0  0  0
   31.6330   32.1450   35.7060 H   0  0  0  0  0  0  0  0  0  0  0  0
   30.3840   31.7660   37.0660 H   0  0  0  0  0  0  0  0  0  0  0  0
   34.4330   29.1060   39.5370 C   0  0  0  0  0  3  0  0  0  0  0  0
   34.6300   28.7280   38.3360 C   0  0  0  0  0  3  0  0  0  0  0  0
   37.0080   28.6310   42.1290 C   0  0  0  0  0  0  0  0  0  0  0  0
   37.7660   29.7920   42.0440 C   0  0  0  0  0  0  0  0  0  0  0  0
   37.3880   30.7020   41.1020 C   0  0  0  0  0  0  0  0  0  0  0  0
   36.3180   30.4360   40.3130 N   0  0  0  0  0  0  0  0  0  0  0  0
   35.5900   29.3090   40.4020 C   0  0  0  0  0  0  0  0  0  0  0  0
   35.9700   28.4220   41.3310 N   0  0  0  0  0  0  0  0  0  0  0  0
   37.3020   27.9070   42.8720 H   0  0  0  0  0  0  0  0  0  0  0  0
   38.6100   30.0130   42.6580 H   0  0  0  0  0  0  0  0  0  0  0  0
   38.0700   31.9710   40.8750 C   0  0  0  0  0  0  0  0  0  0  0  0
   37.5270   32.9760   40.0660 C   0  0  0  0  0  0  0  0  0  0  0  0
   36.5900   32.9810   39.5180 H   0  0  0  0  0  0  0  0  0  0  0  0
   38.4170   34.0540   40.0560 C   0  0  0  0  0  0  0  0  0  0  0  0
   38.2970   34.9950   39.5250 H   0  0  0  0  0  0  0  0  0  0  0  0
   39.4560   33.6700   40.8510 N   0  0  0  0  0  0  0  0  0  0  0  0
   40.2750   34.2970   41.0200 H   0  0  0  0  0  0  0  0  0  0  0  0
   39.2340   32.4520   41.3180 N   0  0  0  0  0  0  0  0  0  0  0  0
  1  2  1  0  0  0  0
  1 20  1  0  0  0  0
  3  1  1  0  0  0  0
  4  7  1  6  0  0  0
  4  1  1  0  0  0  0
  5  8  1  0  0  0  0
  5  6  1  0  0  0  0
  5  4  1  0  0  0  0
  6 10  1  6  0  0  0
  6 11  1  0  0  0  0
  6  4  1  0  0  0  0
  9  5  1  0  0  0  0
 11 13  1  0  0  0  0
 11 14  1  0  0  0  0
 12 16  1  0  0  0  0
 12 11  1  0  0  0  0
 12 13  1  0  0  0  0
 13 18  1  0  0  0  0
 15 12  1  0  0  0  0
 17 13  1  0  0  0  0
 19 25  1  0  0  0  0
 20 19  2  0  0  0  0
 21 27  1  0  0  0  0
 22 21  1  0  0  0  0
 22 28  1  0  0  0  0
 23 22  2  0  0  0  0
 24 25  2  0  0  0  0
 24 23  1  0  0  0  0
 25 26  1  0  0  0  0
 26 21  2  0  0  0  0
 29 23  1  0  0  0  0
 29 36  2  0  0  0  0
 30 29  1  0  0  0  0
 31 30  1  0  0  0  0
 32 30  2  0  0  0  0
 32 34  1  0  0  0  0
 33 32  1  0  0  0  0
 34 35  1  0  0  0  0
 34 36  1  0  0  0  0
M  END
>  <minimizedAffinity>
-5.00769854

$$$$

 OpenBabel03252508163D

 36 39  0  0  1  0  0  0  0  0999 V2000
   36.3760   28.5410   41.2940 C   0  0  0  0  0  0  0  0  0  0  0  0
   36.3150   27.8290   40.4660 H   0  0  0  0  0  0  0  0  0  0  0  0
   35.3670   28.7640   41.7280 H   0  0  0  0  0  0  0  0  0  0  0  0
   37.2170   28.0880   42.4620 C   0  0  1  0  0  0  0  0  0  0  0  0
   36.5030   27.4060   43.5720 C   0  0  0  0  0  0  0  0  0  0  0  0
   37.3840   26.6390   42.7150 C   0  0  1  0  0  0  0  0  0  0  0  0
   38.0840   28.7360   42.7260 H   0  0  0  0  0  0  0  0  0  0  0  0
   35.3920   27.3170   43.5050 H   0  0  0  0  0  0  0  0  0  0  0  0
   36.8000   27.6390   44.6320 H   0  0  0  0  0  0  0  0  0  0  0  0
   38.3600   26.3330   43.2030 H   0  0  0  0  0  0  0  0  0  0  0  0
   36.9560   25.6900   41.6600 C   0  0  0  0  0  0  0  0  0  0  0  0
   37.4760   24.2370   41.8530 C   0  0  0  0  0  0  0  0  0  0  0  0
   38.1060   25.0770   40.8160 C   0  0  0  0  0  0  0  0  0  0  0  0
   36.0050   25.8170   41.1420 H   0  0  0  0  0  0  0  0  0  0  0  0
   38.0350   24.0200   42.7790 H   0  0  0  0  0  0  0  0  0  0  0  0
   36.7550   23.4610   41.4720 H   0  0  0  0  0  0  0  0  0  0  0  0
   39.1260   25.4520   41.0420 H   0  0  0  0  0  0  0  0  0  0  0  0
   37.8750   24.8890   39.7490 H   0  0  0  0  0  0  0  0  0  0  0  0
   38.1160   30.1140   40.9610 C   0  0  0  0  0  3  0  0  0  0  0  0
   36.8720   29.8920   40.7960 C   0  0  0  0  0  3  0  0  0  0  0  0
   38.6650   33.7280   40.4890 C   0  0  0  0  0  0  0  0  0  0  0  0
   39.7110   33.7760   39.5760 C   0  0  0  0  0  0  0  0  0  0  0  0
   40.2080   32.5800   39.1520 C   0  0  0  0  0  0  0  0  0  0  0  0
   39.6720   31.4300   39.6300 N   0  0  0  0  0  0  0  0  0  0  0  0
   38.6600   31.3930   40.5140 C   0  0  0  0  0  0  0  0  0  0  0  0
   38.1790   32.5730   40.9240 N   0  0  0  0  0  0  0  0  0  0  0  0
   38.2670   34.6700   40.8290 H   0  0  0  0  0  0  0  0  0  0  0  0
   40.1410   34.6740   39.1920 H   0  0  0  0  0  0  0  0  0  0  0  0
   41.3040   32.4460   38.1980 C   0  0  0  0  0  0  0  0  0  0  0  0
   41.8180   31.1990   37.8220 C   0  0  0  0  0  0  0  0  0  0  0  0
   41.5160   30.2080   38.1490 H   0  0  0  0  0  0  0  0  0  0  0  0
   42.8480   31.4130   36.9030 C   0  0  0  0  0  0  0  0  0  0  0  0
   43.4570   30.6560   36.4150 H   0  0  0  0  0  0  0  0  0  0  0  0
   42.9220   32.7670   36.7540 N   0  0  0  0  0  0  0  0  0  0  0  0
   43.6200   33.2080   36.1130 H   0  0  0  0  0  0  0  0  0  0  0  0
   42.0130   33.3490   37.5180 N   0  0  0  0  0  0  0  0  0  0  0  0
  1  3  1  0  0  0  0
  1  4  1  0  0  0  0
  2  1  1  0  0  0  0
  4  6  1  0  0  0  0
  4  7  1  1  0  0  0
  4  5  1  0  0  0  0
  5  9  1  0  0  0  0
  6 10  1  1  0  0  0
  6  5  1  0  0  0  0
  8  5  1  0  0  0  0
 11 12  1  0  0  0  0
 11  6  1  0  0  0  0
 12 15  1  0  0  0  0
 13 17  1  0  0  0  0
 13 11  1  0  0  0  0
 13 12  1  0  0  0  0
 14 11  1  0  0  0  0
 16 12  1  0  0  0  0
 18 13  1  0  0  0  0
 20 19  2  0  0  0  0
 20  1  1  0  0  0  0
 21 27  1  0  0  0  0
 21 26  1  0  0  0  0
 22 21  2  0  0  0  0
 23 22  1  0  0  0  0
 23 24  2  0  0  0  0
 24 25  1  0  0  0  0
 25 26  2  0  0  0  0
 25 19  1  0  0  0  0
 28 22  1  0  0  0  0
 29 23  1  0  0  0  0
 30 31  1  0  0  0  0
 30 29  1  0  0  0  0
 32 30  2  0  0  0  0
 33 32  1  0  0  0  0
 34 32  1  0  0  0  0
 34 36  1  0  0  0  0
 35 34  1  0  0  0  0
 36 29  2  0  0  0  0
M  END
>  <minimizedAffinity>
-4.98309612

$$$$
