
 OpenBabel03252504503D

 23 24  0  0  0  0  0  0  0  0999 V2000
   37.0170   26.6540   40.6880 C   0  0  0  0  0  0  0  0  0  0  0  0
   37.0510   26.1790   41.9990 C   0  0  0  0  0  0  0  0  0  0  0  0
   37.1600   27.1240   43.0230 C   0  0  0  0  0  0  0  0  0  0  0  0
   37.2260   28.4390   42.6770 N   0  0  0  0  0  0  0  0  0  0  0  0
   37.1900   28.8700   41.4040 C   0  0  0  0  0  0  0  0  0  0  0  0
   37.0850   27.9700   40.3930 N   0  0  0  0  0  0  0  0  0  0  0  0
   36.9340   25.9770   39.8590 H   0  0  0  0  0  0  0  0  0  0  0  0
   37.1880   26.7760   44.0320 H   0  0  0  0  0  0  0  0  0  0  0  0
   37.2620   30.2830   41.0490 C   0  0  0  0  0  0  0  0  0  0  0  0
   38.4040   31.0100   40.8720 C   0  0  0  0  0  0  0  0  0  0  0  0
   39.4130   30.6660   40.9630 H   0  0  0  0  0  0  0  0  0  0  0  0
   38.0030   32.2890   40.5470 C   0  0  0  0  0  0  0  0  0  0  0  0
   38.7040   33.0940   40.3490 H   0  0  0  0  0  0  0  0  0  0  0  0
   36.6590   32.2820   40.5420 N   0  0  0  0  0  0  0  0  0  0  0  0
   36.1670   33.1870   40.3120 H   0  0  0  0  0  0  0  0  0  0  0  0
   36.2010   31.0910   40.8400 N   0  0  0  0  0  0  0  0  0  0  0  0
   36.9720   24.7520   42.2220 C   0  0  0  0  0  0  0  0  0  0  0  0
   37.9850   24.3980   42.5500 H   0  0  0  0  0  0  0  0  0  0  0  0
   36.1840   24.5000   42.9340 H   0  0  0  0  0  0  0  0  0  0  0  0
   36.5850   24.0880   40.9110 C   0  0  0  0  0  0  0  0  0  0  0  0
   36.3770   23.0130   41.0290 H   0  0  0  0  0  0  0  0  0  0  0  0
   35.7470   24.6540   40.4940 H   0  0  0  0  0  0  0  0  0  0  0  0
   37.4720   24.1680   40.2540 H   0  0  0  0  0  0  0  0  0  0  0  0
  1  2  1  0  0  0  0
  2 17  1  0  0  0  0
  2  3  2  0  0  0  0
  3  8  1  0  0  0  0
  4  3  1  0  0  0  0
  5  4  2  0  0  0  0
  6  1  2  0  0  0  0
  6  5  1  0  0  0  0
  7  1  1  0  0  0  0
  9  5  1  0  0  0  0
 10 11  1  0  0  0  0
 10  9  1  0  0  0  0
 12 10  2  0  0  0  0
 13 12  1  0  0  0  0
 14 12  1  0  0  0  0
 14 16  1  0  0  0  0
 15 14  1  0  0  0  0
 16  9  2  0  0  0  0
 17 18  1  0  0  0  0
 17 19  1  0  0  0  0
 20 21  1  0  0  0  0
 20 17  1  0  0  0  0
 22 20  1  0  0  0  0
 23 20  1  0  0  0  0
M  END
>  <minimizedAffinity>
-4.4042449

$$$$

 OpenBabel03252504503D

 23 24  0  0  0  0  0  0  0  0999 V2000
   37.9620   29.0900   42.7180 C   0  0  0  0  0  0  0  0  0  0  0  0
   36.9150   28.2450   42.3490 C   0  0  0  0  0  0  0  0  0  0  0  0
   36.0800   28.6710   41.3140 C   0  0  0  0  0  0  0  0  0  0  0  0
   36.3390   29.8760   40.7350 N   0  0  0  0  0  0  0  0  0  0  0  0
   37.3560   30.6700   41.1100 C   0  0  0  0  0  0  0  0  0  0  0  0
   38.1800   30.2770   42.1150 N   0  0  0  0  0  0  0  0  0  0  0  0
   38.6380   28.8180   43.5080 H   0  0  0  0  0  0  0  0  0  0  0  0
   35.2730   28.0360   41.0200 H   0  0  0  0  0  0  0  0  0  0  0  0
   37.6210   31.9600   40.4800 C   0  0  0  0  0  0  0  0  0  0  0  0
   38.5760   32.8580   40.8610 C   0  0  0  0  0  0  0  0  0  0  0  0
   39.2710   32.7630   41.6700 H   0  0  0  0  0  0  0  0  0  0  0  0
   38.4720   33.9250   39.9930 C   0  0  0  0  0  0  0  0  0  0  0  0
   39.1120   34.8000   40.0570 H   0  0  0  0  0  0  0  0  0  0  0  0
   37.4770   33.6320   39.1390 N   0  0  0  0  0  0  0  0  0  0  0  0
   37.2500   34.3420   38.3930 H   0  0  0  0  0  0  0  0  0  0  0  0
   36.9600   32.4610   39.4170 N   0  0  0  0  0  0  0  0  0  0  0  0
   36.7570   26.9900   43.0510 C   0  0  0  0  0  0  0  0  0  0  0  0
   37.3980   27.0270   43.9710 H   0  0  0  0  0  0  0  0  0  0  0  0
   35.7090   26.7840   43.2750 H   0  0  0  0  0  0  0  0  0  0  0  0
   37.2230   25.8720   42.1350 C   0  0  0  0  0  0  0  0  0  0  0  0
   37.0110   24.8730   42.5490 H   0  0  0  0  0  0  0  0  0  0  0  0
   36.7690   26.0450   41.1540 H   0  0  0  0  0  0  0  0  0  0  0  0
   38.3230   25.9620   42.0750 H   0  0  0  0  0  0  0  0  0  0  0  0
  1  7  1  0  0  0  0
  2  1  1  0  0  0  0
  2 17  1  0  0  0  0
  3  2  2  0  0  0  0
  4  5  2  0  0  0  0
  4  3  1  0  0  0  0
  5  6  1  0  0  0  0
  6  1  2  0  0  0  0
  8  3  1  0  0  0  0
  9 10  1  0  0  0  0
  9  5  1  0  0  0  0
 10 11  1  0  0  0  0
 12 13  1  0  0  0  0
 12 10  2  0  0  0  0
 14 16  1  0  0  0  0
 14 12  1  0  0  0  0
 15 14  1  0  0  0  0
 16  9  2  0  0  0  0
 17 19  1  0  0  0  0
 17 18  1  0  0  0  0
 20 21  1  0  0  0  0
 20 17  1  0  0  0  0
 22 20  1  0  0  0  0
 23 20  1  0  0  0  0
M  END
>  <minimizedAffinity>
-4.33865499

$$$$

 OpenBabel03252504503D

 23 24  0  0  0  0  0  0  0  0999 V2000
   39.7720   29.0350   42.6760 C   0  0  0  0  0  0  0  0  0  0  0  0
   38.7620   28.1240   42.9870 C   0  0  0  0  0  0  0  0  0  0  0  0
   37.4590   28.4540   42.6080 C   0  0  0  0  0  0  0  0  0  0  0  0
   37.2590   29.6370   41.9630 N   0  0  0  0  0  0  0  0  0  0  0  0
   38.2510   30.4960   41.6760 C   0  0  0  0  0  0  0  0  0  0  0  0
   39.5250   30.1970   42.0350 N   0  0  0  0  0  0  0  0  0  0  0  0
   40.7940   28.8370   42.9420 H   0  0  0  0  0  0  0  0  0  0  0  0
   36.6750   27.7670   42.8390 H   0  0  0  0  0  0  0  0  0  0  0  0
   38.0210   31.7610   40.9840 C   0  0  0  0  0  0  0  0  0  0  0  0
   38.9050   32.7960   40.8890 C   0  0  0  0  0  0  0  0  0  0  0  0
   39.8930   32.8470   41.2990 H   0  0  0  0  0  0  0  0  0  0  0  0
   38.2750   33.7780   40.1520 C   0  0  0  0  0  0  0  0  0  0  0  0
   38.7440   34.7280   39.9140 H   0  0  0  0  0  0  0  0  0  0  0  0
   37.0580   33.3020   39.8380 N   0  0  0  0  0  0  0  0  0  0  0  0
   36.4230   33.9240   39.2690 H   0  0  0  0  0  0  0  0  0  0  0  0
   36.8910   32.0980   40.3280 N   0  0  0  0  0  0  0  0  0  0  0  0
   39.1190   26.9020   43.6760 C   0  0  0  0  0  0  0  0  0  0  0  0
   38.9430   27.0620   44.7730 H   0  0  0  0  0  0  0  0  0  0  0  0
   38.5730   26.0440   43.2800 H   0  0  0  0  0  0  0  0  0  0  0  0
   40.5900   26.6240   43.4170 C   0  0  0  0  0  0  0  0  0  0  0  0
   40.9060   25.6400   43.8010 H   0  0  0  0  0  0  0  0  0  0  0  0
   40.7620   26.7520   42.3440 H   0  0  0  0  0  0  0  0  0  0  0  0
   41.1510   27.3830   43.9930 H   0  0  0  0  0  0  0  0  0  0  0  0
  1  7  1  0  0  0  0
  1  2  1  0  0  0  0
  2 17  1  0  0  0  0
  3  8  1  0  0  0  0
  3  2  2  0  0  0  0
  4  3  1  0  0  0  0
  5  4  2  0  0  0  0
  5  6  1  0  0  0  0
  6  1  2  0  0  0  0
  9  5  1  0  0  0  0
 10  9  1  0  0  0  0
 10 11  1  0  0  0  0
 12 10  2  0  0  0  0
 13 12  1  0  0  0  0
 14 12  1  0  0  0  0
 14 16  1  0  0  0  0
 15 14  1  0  0  0  0
 16  9  2  0  0  0  0
 17 18  1  0  0  0  0
 19 17  1  0  0  0  0
 20 17  1  0  0  0  0
 20 21  1  0  0  0  0
 20 23  1  0  0  0  0
 22 20  1  0  0  0  0
M  END
>  <minimizedAffinity>
-4.16888523

$$$$

 OpenBabel03252504503D

 23 24  0  0  0  0  0  0  0  0999 V2000
   36.4340   28.4950   40.7900 C   0  0  0  0  0  0  0  0  0  0  0  0
   36.8110   29.6710   41.4390 C   0  0  0  0  0  0  0  0  0  0  0  0
   37.7660   29.5690   42.4530 C   0  0  0  0  0  0  0  0  0  0  0  0
   38.2650   28.3350   42.7410 N   0  0  0  0  0  0  0  0  0  0  0  0
   37.8840   27.2180   42.1000 C   0  0  0  0  0  0  0  0  0  0  0  0
   36.9570   27.2930   41.1110 N   0  0  0  0  0  0  0  0  0  0  0  0
   35.7040   28.5100   40.0020 H   0  0  0  0  0  0  0  0  0  0  0  0
   38.0640   30.4600   42.9590 H   0  0  0  0  0  0  0  0  0  0  0  0
   38.4290   25.9020   42.4200 C   0  0  0  0  0  0  0  0  0  0  0  0
   39.6430   25.6540   42.9910 C   0  0  0  0  0  0  0  0  0  0  0  0
   40.3800   26.3710   43.2900 H   0  0  0  0  0  0  0  0  0  0  0  0
   39.7420   24.2830   43.1110 C   0  0  0  0  0  0  0  0  0  0  0  0
   40.6110   23.7900   43.5360 H   0  0  0  0  0  0  0  0  0  0  0  0
   38.6020   23.7700   42.6180 N   0  0  0  0  0  0  0  0  0  0  0  0
   38.4950   22.7200   42.6260 H   0  0  0  0  0  0  0  0  0  0  0  0
   37.8070   24.7250   42.2010 N   0  0  0  0  0  0  0  0  0  0  0  0
   36.1980   30.9160   41.0280 C   0  0  0  0  0  0  0  0  0  0  0  0
   35.0900   30.7490   40.9620 H   0  0  0  0  0  0  0  0  0  0  0  0
   36.4630   31.7350   41.6980 H   0  0  0  0  0  0  0  0  0  0  0  0
   36.7520   31.2900   39.6630 C   0  0  0  0  0  0  0  0  0  0  0  0
   36.4320   32.2940   39.3400 H   0  0  0  0  0  0  0  0  0  0  0  0
   37.8390   31.1700   39.7090 H   0  0  0  0  0  0  0  0  0  0  0  0
   36.3120   30.5720   38.9470 H   0  0  0  0  0  0  0  0  0  0  0  0
  1  6  2  0  0  0  0
  1  2  1  0  0  0  0
  2  3  2  0  0  0  0
  3  4  1  0  0  0  0
  3  8  1  0  0  0  0
  5  9  1  0  0  0  0
  5  4  2  0  0  0  0
  6  5  1  0  0  0  0
  7  1  1  0  0  0  0
  9 10  1  0  0  0  0
 10 12  2  0  0  0  0
 10 11  1  0  0  0  0
 12 13  1  0  0  0  0
 14 15  1  0  0  0  0
 14 12  1  0  0  0  0
 16  9  2  0  0  0  0
 16 14  1  0  0  0  0
 17  2  1  0  0  0  0
 17 19  1  0  0  0  0
 18 17  1  0  0  0  0
 20 22  1  0  0  0  0
 20 17  1  0  0  0  0
 21 20  1  0  0  0  0
 23 20  1  0  0  0  0
M  END
>  <minimizedAffinity>
-4.06285334

$$$$

 OpenBabel03252504503D

 23 24  0  0  0  0  0  0  0  0999 V2000
   37.6550   29.3080   41.1660 C   0  0  0  0  0  0  0  0  0  0  0  0
   38.2410   29.5290   42.4130 C   0  0  0  0  0  0  0  0  0  0  0  0
   39.3250   30.4090   42.4670 C   0  0  0  0  0  0  0  0  0  0  0  0
   39.7360   30.9910   41.3070 N   0  0  0  0  0  0  0  0  0  0  0  0
   39.1520   30.7610   40.1190 C   0  0  0  0  0  0  0  0  0  0  0  0
   38.0980   29.9090   40.0420 N   0  0  0  0  0  0  0  0  0  0  0  0
   36.8190   28.6420   41.0610 H   0  0  0  0  0  0  0  0  0  0  0  0
   39.7850   30.5880   43.4130 H   0  0  0  0  0  0  0  0  0  0  0  0
   39.6050   31.3920   38.8830 C   0  0  0  0  0  0  0  0  0  0  0  0
   40.8950   31.7130   38.5720 C   0  0  0  0  0  0  0  0  0  0  0  0
   41.7670   31.5570   39.1730 H   0  0  0  0  0  0  0  0  0  0  0  0
   40.8600   32.2860   37.3170 C   0  0  0  0  0  0  0  0  0  0  0  0
   41.7490   32.6440   36.8080 H   0  0  0  0  0  0  0  0  0  0  0  0
   39.5730   32.2860   36.9300 N   0  0  0  0  0  0  0  0  0  0  0  0
   39.3480   32.6920   35.9820 H   0  0  0  0  0  0  0  0  0  0  0  0
   38.8110   31.7550   37.8550 N   0  0  0  0  0  0  0  0  0  0  0  0
   37.6990   28.8420   43.5650 C   0  0  0  0  0  0  0  0  0  0  0  0
   38.5600   28.5160   44.2070 H   0  0  0  0  0  0  0  0  0  0  0  0
   36.9830   29.4650   44.1030 H   0  0  0  0  0  0  0  0  0  0  0  0
   36.9240   27.6310   43.0750 C   0  0  0  0  0  0  0  0  0  0  0  0
   36.3710   27.1290   43.8850 H   0  0  0  0  0  0  0  0  0  0  0  0
   36.2870   27.9650   42.2500 H   0  0  0  0  0  0  0  0  0  0  0  0
   37.6790   26.9090   42.7140 H   0  0  0  0  0  0  0  0  0  0  0  0
  1  2  1  0  0  0  0
  2  3  2  0  0  0  0
  2 17  1  0  0  0  0
  3  8  1  0  0  0  0
  4  3  1  0  0  0  0
  5  4  2  0  0  0  0
  6  5  1  0  0  0  0
  6  1  2  0  0  0  0
  7  1  1  0  0  0  0
  9  5  1  0  0  0  0
 10  9  1  0  0  0  0
 10 11  1  0  0  0  0
 12 10  2  0  0  0  0
 13 12  1  0  0  0  0
 14 12  1  0  0  0  0
 14 16  1  0  0  0  0
 15 14  1  0  0  0  0
 16  9  2  0  0  0  0
 17 19  1  0  0  0  0
 17 18  1  0  0  0  0
 20 17  1  0  0  0  0
 20 21  1  0  0  0  0
 22 20  1  0  0  0  0
 23 20  1  0  0  0  0
M  END
>  <minimizedAffinity>
-4.02177191

$$$$

 OpenBabel03252504503D

 23 24  0  0  0  0  0  0  0  0999 V2000
   38.1400   26.6330   41.2410 C   0  0  0  0  0  0  0  0  0  0  0  0
   37.2310   26.2670   42.2340 C   0  0  0  0  0  0  0  0  0  0  0  0
   36.7850   27.2700   43.0990 C   0  0  0  0  0  0  0  0  0  0  0  0
   37.2640   28.5310   42.9180 N   0  0  0  0  0  0  0  0  0  0  0  0
   38.1400   28.8560   41.9530 C   0  0  0  0  0  0  0  0  0  0  0  0
   38.5870   27.8980   41.1010 N   0  0  0  0  0  0  0  0  0  0  0  0
   38.5190   25.9060   40.5470 H   0  0  0  0  0  0  0  0  0  0  0  0
   36.0890   27.0050   43.8650 H   0  0  0  0  0  0  0  0  0  0  0  0
   38.6440   30.2140   41.7720 C   0  0  0  0  0  0  0  0  0  0  0  0
   38.1750   31.1310   40.8770 C   0  0  0  0  0  0  0  0  0  0  0  0
   37.3760   31.0060   40.1750 H   0  0  0  0  0  0  0  0  0  0  0  0
   38.9380   32.2680   41.0510 C   0  0  0  0  0  0  0  0  0  0  0  0
   38.7900   33.1720   40.4680 H   0  0  0  0  0  0  0  0  0  0  0  0
   39.8190   31.9940   42.0280 N   0  0  0  0  0  0  0  0  0  0  0  0
   40.4960   32.7560   42.3030 H   0  0  0  0  0  0  0  0  0  0  0  0
   39.6560   30.7710   42.4690 N   0  0  0  0  0  0  0  0  0  0  0  0
   36.8060   24.8860   42.3100 C   0  0  0  0  0  0  0  0  0  0  0  0
   37.5750   24.3210   42.9000 H   0  0  0  0  0  0  0  0  0  0  0  0
   35.8020   24.7970   42.7300 H   0  0  0  0  0  0  0  0  0  0  0  0
   36.7230   24.3370   40.8960 C   0  0  0  0  0  0  0  0  0  0  0  0
   36.2800   23.3290   40.8610 H   0  0  0  0  0  0  0  0  0  0  0  0
   36.1850   25.0730   40.2910 H   0  0  0  0  0  0  0  0  0  0  0  0
   37.7670   24.2350   40.5450 H   0  0  0  0  0  0  0  0  0  0  0  0
  1  2  1  0  0  0  0
  2 17  1  0  0  0  0
  2  3  2  0  0  0  0
  3  8  1  0  0  0  0
  4  3  1  0  0  0  0
  5  4  2  0  0  0  0
  6  1  2  0  0  0  0
  6  5  1  0  0  0  0
  7  1  1  0  0  0  0
  9  5  1  0  0  0  0
  9 16  2  0  0  0  0
 10 12  2  0  0  0  0
 10  9  1  0  0  0  0
 11 10  1  0  0  0  0
 12 14  1  0  0  0  0
 13 12  1  0  0  0  0
 14 15  1  0  0  0  0
 14 16  1  0  0  0  0
 17 19  1  0  0  0  0
 17 18  1  0  0  0  0
 20 17  1  0  0  0  0
 21 20  1  0  0  0  0
 22 20  1  0  0  0  0
 23 20  1  0  0  0  0
M  END
>  <minimizedAffinity>
-3.94117737

$$$$

 OpenBabel03252504503D

 23 24  0  0  0  0  0  0  0  0999 V2000
   40.0640   26.5110   41.3690 C   0  0  0  0  0  0  0  0  0  0  0  0
   40.3000   26.1840   42.7040 C   0  0  0  0  0  0  0  0  0  0  0  0
   39.4230   26.7040   43.6580 C   0  0  0  0  0  0  0  0  0  0  0  0
   38.4000   27.4930   43.2270 N   0  0  0  0  0  0  0  0  0  0  0  0
   38.1960   27.7920   41.9330 C   0  0  0  0  0  0  0  0  0  0  0  0
   39.0360   27.2980   40.9880 N   0  0  0  0  0  0  0  0  0  0  0  0
   40.7050   26.1410   40.5890 H   0  0  0  0  0  0  0  0  0  0  0  0
   39.5900   26.4630   44.6850 H   0  0  0  0  0  0  0  0  0  0  0  0
   37.0950   28.6390   41.4850 C   0  0  0  0  0  0  0  0  0  0  0  0
   36.1100   28.2800   40.6110 C   0  0  0  0  0  0  0  0  0  0  0  0
   35.9890   27.3360   40.1210 H   0  0  0  0  0  0  0  0  0  0  0  0
   35.2900   29.3810   40.4780 C   0  0  0  0  0  0  0  0  0  0  0  0
   34.4130   29.3880   39.8370 H   0  0  0  0  0  0  0  0  0  0  0  0
   35.8040   30.3420   41.2650 N   0  0  0  0  0  0  0  0  0  0  0  0
   35.3030   31.2700   41.2920 H   0  0  0  0  0  0  0  0  0  0  0  0
   36.8820   29.9140   41.8730 N   0  0  0  0  0  0  0  0  0  0  0  0
   41.4260   25.3320   43.0200 C   0  0  0  0  0  0  0  0  0  0  0  0
   41.9110   25.7340   43.9490 H   0  0  0  0  0  0  0  0  0  0  0  0
   41.1260   24.2880   43.1190 H   0  0  0  0  0  0  0  0  0  0  0  0
   42.4020   25.3840   41.8570 C   0  0  0  0  0  0  0  0  0  0  0  0
   43.2250   24.6590   41.9650 H   0  0  0  0  0  0  0  0  0  0  0  0
   41.8210   25.2540   40.9390 H   0  0  0  0  0  0  0  0  0  0  0  0
   42.8610   26.3900   41.8860 H   0  0  0  0  0  0  0  0  0  0  0  0
  1  2  1  0  0  0  0
  2 17  1  0  0  0  0
  2  3  2  0  0  0  0
  3  8  1  0  0  0  0
  4  3  1  0  0  0  0
  5  4  2  0  0  0  0
  6  1  2  0  0  0  0
  6  5  1  0  0  0  0
  7  1  1  0  0  0  0
  9 16  2  0  0  0  0
  9  5  1  0  0  0  0
 10  9  1  0  0  0  0
 11 10  1  0  0  0  0
 12 10  2  0  0  0  0
 12 14  1  0  0  0  0
 13 12  1  0  0  0  0
 14 15  1  0  0  0  0
 14 16  1  0  0  0  0
 17 19  1  0  0  0  0
 17 18  1  0  0  0  0
 20 23  1  0  0  0  0
 20 21  1  0  0  0  0
 20 17  1  0  0  0  0
 22 20  1  0  0  0  0
M  END
>  <minimizedAffinity>
-3.81169343

$$$$

 OpenBabel03252504503D

 23 24  0  0  0  0  0  0  0  0999 V2000
   35.7950   27.9480   38.2060 C   0  0  0  0  0  0  0  0  0  0  0  0
   35.9920   29.1510   37.5290 C   0  0  0  0  0  0  0  0  0  0  0  0
   36.4740   30.2340   38.2680 C   0  0  0  0  0  0  0  0  0  0  0  0
   36.7190   30.0460   39.5940 N   0  0  0  0  0  0  0  0  0  0  0  0
   36.5200   28.8750   40.2220 C   0  0  0  0  0  0  0  0  0  0  0  0
   36.0520   27.8090   39.5240 N   0  0  0  0  0  0  0  0  0  0  0  0
   35.4260   27.0800   37.6910 H   0  0  0  0  0  0  0  0  0  0  0  0
   36.6300   31.1620   37.7640 H   0  0  0  0  0  0  0  0  0  0  0  0
   36.7870   28.6890   41.6450 C   0  0  0  0  0  0  0  0  0  0  0  0
   36.5830   27.5420   42.3570 C   0  0  0  0  0  0  0  0  0  0  0  0
   36.2000   26.6110   41.9930 H   0  0  0  0  0  0  0  0  0  0  0  0
   36.9700   27.8160   43.6520 C   0  0  0  0  0  0  0  0  0  0  0  0
   36.9170   27.0820   44.4510 H   0  0  0  0  0  0  0  0  0  0  0  0
   37.3850   29.0940   43.6680 N   0  0  0  0  0  0  0  0  0  0  0  0
   37.7220   29.4870   44.5880 H   0  0  0  0  0  0  0  0  0  0  0  0
   37.2820   29.6290   42.4760 N   0  0  0  0  0  0  0  0  0  0  0  0
   35.6910   29.2080   36.1150 C   0  0  0  0  0  0  0  0  0  0  0  0
   34.8110   28.5390   35.9230 H   0  0  0  0  0  0  0  0  0  0  0  0
   35.5220   30.2340   35.7810 H   0  0  0  0  0  0  0  0  0  0  0  0
   36.9040   28.7080   35.3500 C   0  0  0  0  0  0  0  0  0  0  0  0
   36.8010   28.8440   34.2610 H   0  0  0  0  0  0  0  0  0  0  0  0
   37.7830   29.2050   35.7730 H   0  0  0  0  0  0  0  0  0  0  0  0
   36.9520   27.6180   35.5290 H   0  0  0  0  0  0  0  0  0  0  0  0
  1  6  1  0  0  0  0
  2  1  2  0  0  0  0
  2  3  1  0  0  0  0
  3  4  2  0  0  0  0
  4  5  1  0  0  0  0
  5  9  1  0  0  0  0
  6  5  2  0  0  0  0
  7  1  1  0  0  0  0
  8  3  1  0  0  0  0
  9 10  1  0  0  0  0
  9 16  2  0  0  0  0
 10 12  2  0  0  0  0
 11 10  1  0  0  0  0
 12 14  1  0  0  0  0
 12 13  1  0  0  0  0
 14 15  1  0  0  0  0
 16 14  1  0  0  0  0
 17  2  1  0  0  0  0
 18 17  1  0  0  0  0
 19 17  1  0  0  0  0
 20 23  1  0  0  0  0
 20 22  1  0  0  0  0
 20 17  1  0  0  0  0
 21 20  1  0  0  0  0
M  END
>  <minimizedAffinity>
-3.79611158

$$$$

 OpenBabel03252504503D

 23 24  0  0  0  0  0  0  0  0999 V2000
   36.5140   25.4920   39.4090 C   0  0  0  0  0  0  0  0  0  0  0  0
   36.8760   24.6530   40.4630 C   0  0  0  0  0  0  0  0  0  0  0  0
   37.1430   25.2500   41.6980 C   0  0  0  0  0  0  0  0  0  0  0  0
   37.0340   26.6040   41.7920 N   0  0  0  0  0  0  0  0  0  0  0  0
   36.6830   27.3890   40.7590 C   0  0  0  0  0  0  0  0  0  0  0  0
   36.4190   26.8310   39.5500 N   0  0  0  0  0  0  0  0  0  0  0  0
   36.2970   25.0920   38.4360 H   0  0  0  0  0  0  0  0  0  0  0  0
   37.4220   24.6220   42.5150 H   0  0  0  0  0  0  0  0  0  0  0  0
   36.5700   28.8390   40.8760 C   0  0  0  0  0  0  0  0  0  0  0  0
   37.6080   29.7180   40.9980 C   0  0  0  0  0  0  0  0  0  0  0  0
   38.6530   29.4890   41.0280 H   0  0  0  0  0  0  0  0  0  0  0  0
   37.0450   30.9750   41.0760 C   0  0  0  0  0  0  0  0  0  0  0  0
   37.6360   31.8800   41.1800 H   0  0  0  0  0  0  0  0  0  0  0  0
   35.7130   30.8060   40.9990 N   0  0  0  0  0  0  0  0  0  0  0  0
   35.1080   31.6690   41.0440 H   0  0  0  0  0  0  0  0  0  0  0  0
   35.4150   29.5360   40.8790 N   0  0  0  0  0  0  0  0  0  0  0  0
   36.9520   23.2290   40.2210 C   0  0  0  0  0  0  0  0  0  0  0  0
   36.3560   22.7120   41.0180 H   0  0  0  0  0  0  0  0  0  0  0  0
   36.6200   22.9750   39.2130 H   0  0  0  0  0  0  0  0  0  0  0  0
   38.4100   22.8100   40.3050 C   0  0  0  0  0  0  0  0  0  0  0  0
   38.5650   21.7620   40.0020 H   0  0  0  0  0  0  0  0  0  0  0  0
   38.9890   23.5270   39.7140 H   0  0  0  0  0  0  0  0  0  0  0  0
   38.6870   22.8740   41.3730 H   0  0  0  0  0  0  0  0  0  0  0  0
  1  6  2  0  0  0  0
  1  2  1  0  0  0  0
  2  3  2  0  0  0  0
  3  4  1  0  0  0  0
  3  8  1  0  0  0  0
  5  9  1  0  0  0  0
  5  4  2  0  0  0  0
  6  5  1  0  0  0  0
  7  1  1  0  0  0  0
  9 16  2  0  0  0  0
  9 10  1  0  0  0  0
 10 11  1  0  0  0  0
 10 12  2  0  0  0  0
 12 13  1  0  0  0  0
 14 15  1  0  0  0  0
 14 12  1  0  0  0  0
 16 14  1  0  0  0  0
 17 20  1  0  0  0  0
 17  2  1  0  0  0  0
 17 18  1  0  0  0  0
 19 17  1  0  0  0  0
 20 23  1  0  0  0  0
 21 20  1  0  0  0  0
 22 20  1  0  0  0  0
M  END
>  <minimizedAffinity>
-3.7756424

$$$$
