
 OpenBabel03252509283D

 20 21  0  0  0  0  0  0  0  0999 V2000
   47.0630   34.9840   41.8840 C   0  0  0  0  0  0  0  0  0  0  0  0
   48.1510   35.0230   42.1850 H   0  0  0  0  0  0  0  0  0  0  0  0
   46.9020   35.9090   41.2950 H   0  0  0  0  0  0  0  0  0  0  0  0
   44.5720   35.9790   44.4710 C   0  0  0  0  0  0  0  0  0  0  0  0
   45.3300   36.0030   43.2810 C   0  0  0  0  0  0  0  0  0  0  0  0
   46.2690   34.9720   43.1150 C   0  0  0  0  0  0  0  0  0  0  0  0
   46.3900   34.0270   44.0930 N   0  0  0  0  0  0  0  0  0  0  0  0
   45.6400   34.0500   45.2150 C   0  0  0  0  0  0  0  0  0  0  0  0
   44.7280   35.0380   45.3940 N   0  0  0  0  0  0  0  0  0  0  0  0
   43.8650   36.8010   44.5420 H   0  0  0  0  0  0  0  0  0  0  0  0
   45.1980   36.7720   42.5360 H   0  0  0  0  0  0  0  0  0  0  0  0
   45.8220   33.2500   45.9210 H   0  0  0  0  0  0  0  0  0  0  0  0
   46.9280   33.7690   41.0560 C   0  0  0  0  0  0  0  0  0  0  0  0
   45.8180   33.6430   40.2280 C   0  0  0  0  0  0  0  0  0  0  0  0
   44.9710   34.3210   40.0670 H   0  0  0  0  0  0  0  0  0  0  0  0
   45.8630   32.4470   39.5330 C   0  0  0  0  0  0  0  0  0  0  0  0
   45.1940   32.0170   38.8190 H   0  0  0  0  0  0  0  0  0  0  0  0
   47.0220   31.8780   39.9710 N   0  0  0  0  0  0  0  0  0  0  0  0
   47.4530   30.9580   39.7050 H   0  0  0  0  0  0  0  0  0  0  0  0
   47.6520   32.6540   40.8680 N   0  0  0  0  0  0  0  0  0  0  0  0
  1  2  1  0  0  0  0
  1  6  1  0  0  0  0
  3  1  1  0  0  0  0
  4 10  1  0  0  0  0
  4  9  1  0  0  0  0
  5  4  2  0  0  0  0
  6  5  1  0  0  0  0
  6  7  2  0  0  0  0
  7  8  1  0  0  0  0
  8  9  2  0  0  0  0
  8 12  1  0  0  0  0
 11  5  1  0  0  0  0
 13  1  1  0  0  0  0
 14 13  1  0  0  0  0
 15 14  1  0  0  0  0
 16 18  1  0  0  0  0
 16 14  2  0  0  0  0
 17 16  1  0  0  0  0
 18 20  1  0  0  0  0
 19 18  1  0  0  0  0
 20 13  2  0  0  0  0
M  END
>  <minimizedAffinity>
-3.52452183

>  <minimizedRMSD>
0.919021845

$$$$
