
 OpenBabel03252500523D

 23 24  0  0  0  0  0  0  0  0999 V2000
   46.9870   32.2670   44.3970 C   0  0  0  0  0  0  0  0  0  0  0  0
   46.2700   33.2990   44.9630 C   0  0  0  0  0  0  0  0  0  0  0  0
   46.0100   33.2010   46.3590 C   0  0  0  0  0  0  0  0  0  0  0  0
   46.4690   32.1230   47.0280 N   0  0  0  0  0  0  0  0  0  0  0  0
   47.1600   31.1440   46.4370 C   0  0  0  0  0  0  0  0  0  0  0  0
   47.4130   31.2190   45.1430 N   0  0  0  0  0  0  0  0  0  0  0  0
   45.4800   33.8840   46.9890 H   0  0  0  0  0  0  0  0  0  0  0  0
   47.5340   30.2730   46.9560 H   0  0  0  0  0  0  0  0  0  0  0  0
   45.7220   34.4830   44.3430 C   0  0  0  0  0  0  0  0  0  0  0  0
   45.8400   35.1570   43.1570 C   0  0  0  0  0  0  0  0  0  0  0  0
   46.4890   34.8780   42.3520 H   0  0  0  0  0  0  0  0  0  0  0  0
   45.0090   36.2440   43.0590 C   0  0  0  0  0  0  0  0  0  0  0  0
   44.9180   36.9290   42.2340 H   0  0  0  0  0  0  0  0  0  0  0  0
   44.3620   36.2310   44.2270 N   0  0  0  0  0  0  0  0  0  0  0  0
   43.6270   36.9020   44.5590 H   0  0  0  0  0  0  0  0  0  0  0  0
   44.7780   35.2210   44.9510 N   0  0  0  0  0  0  0  0  0  0  0  0
   47.3360   32.3150   42.9780 C   0  0  0  0  0  0  0  0  0  0  0  0
   47.3950   31.2790   42.5710 H   0  0  0  0  0  0  0  0  0  0  0  0
   46.6710   32.9310   42.3450 H   0  0  0  0  0  0  0  0  0  0  0  0
   48.7540   32.8490   42.8250 C   0  0  0  0  0  0  0  0  0  0  0  0
   49.4650   31.9960   42.5980 H   0  0  0  0  0  0  0  0  0  0  0  0
   49.1610   33.2420   43.7980 H   0  0  0  0  0  0  0  0  0  0  0  0
   48.8540   33.5750   42.0050 H   0  0  0  0  0  0  0  0  0  0  0  0
  1  2  2  0  0  0  0
  1  6  1  0  0  0  0
  2  3  1  0  0  0  0
  3  7  1  0  0  0  0
  3  4  2  0  0  0  0
  5  8  1  0  0  0  0
  5  4  1  0  0  0  0
  6  5  2  0  0  0  0
  9 16  2  0  0  0  0
  9  2  1  0  0  0  0
 10  9  1  0  0  0  0
 11 10  1  0  0  0  0
 12 10  2  0  0  0  0
 12 14  1  0  0  0  0
 13 12  1  0  0  0  0
 14 15  1  0  0  0  0
 14 16  1  0  0  0  0
 17  1  1  0  0  0  0
 18 17  1  0  0  0  0
 19 17  1  0  0  0  0
 20 17  1  0  0  0  0
 20 22  1  0  0  0  0
 21 20  1  0  0  0  0
 23 20  1  0  0  0  0
M  END
>  <minimizedAffinity>
-3.89380336

>  <minimizedRMSD>
3.81893539

$$$$
