
 OpenBabel03252509103D

 30 33  0  0  0  0  0  0  0  0999 V2000
   47.1100   31.0770   44.4900 C   0  0  0  0  0  0  0  0  0  0  0  0
   46.5070   32.2950   44.2030 C   0  0  0  0  0  0  0  0  0  0  0  0
   45.9770   33.1020   45.1910 C   0  0  0  0  0  0  0  0  0  0  0  0
   46.0320   32.7090   46.5240 C   0  0  0  0  0  0  0  0  0  0  0  0
   45.6160   33.2520   47.7100 N   0  0  0  0  0  0  0  0  0  0  0  0
   45.9630   32.3720   48.7040 C   0  0  0  0  0  0  0  0  0  0  0  0
   46.5830   31.3110   48.1060 N   0  0  0  0  0  0  0  0  0  0  0  0
   46.6390   31.4940   46.7740 C   0  0  0  0  0  0  0  0  0  0  0  0
   47.1730   30.6730   45.8210 C   0  0  0  0  0  0  0  0  0  0  0  0
   47.5090   30.4850   43.6750 H   0  0  0  0  0  0  0  0  0  0  0  0
   45.1260   34.1760   47.7780 H   0  0  0  0  0  0  0  0  0  0  0  0
   45.7400   32.5770   49.7400 H   0  0  0  0  0  0  0  0  0  0  0  0
   47.6390   29.7350   46.0230 H   0  0  0  0  0  0  0  0  0  0  0  0
   45.2230   32.9730   40.8340 C   0  0  0  0  0  0  0  0  0  0  0  0
   46.3150   33.6190   40.2200 C   0  0  0  0  0  0  0  0  0  0  0  0
   47.4810   33.8140   40.9710 C   0  0  0  0  0  0  0  0  0  0  0  0
   47.4770   33.3610   42.2620 N   0  0  0  0  0  0  0  0  0  0  0  0
   46.4220   32.7480   42.8240 C   0  0  0  0  0  0  0  0  0  0  0  0
   45.2870   32.5470   42.1210 N   0  0  0  0  0  0  0  0  0  0  0  0
   44.3160   32.8200   40.2530 H   0  0  0  0  0  0  0  0  0  0  0  0
   46.2080   33.9410   39.1810 H   0  0  0  0  0  0  0  0  0  0  0  0
   48.3110   34.3000   40.5200 H   0  0  0  0  0  0  0  0  0  0  0  0
   45.3280   34.3920   44.9650 C   0  0  0  0  0  0  0  0  0  0  0  0
   45.6950   35.0750   43.7980 C   0  0  0  0  0  0  0  0  0  0  0  0
   46.3950   34.8260   42.9900 H   0  0  0  0  0  0  0  0  0  0  0  0
   45.0040   36.2770   43.7170 C   0  0  0  0  0  0  0  0  0  0  0  0
   45.0240   37.0570   42.9730 H   0  0  0  0  0  0  0  0  0  0  0  0
   44.2480   36.2850   44.8300 N   0  0  0  0  0  0  0  0  0  0  0  0
   43.5780   37.0380   45.1300 H   0  0  0  0  0  0  0  0  0  0  0  0
   44.4440   35.1940   45.5380 N   0  0  0  0  0  0  0  0  0  0  0  0
  1  9  1  0  0  0  0
  2  1  2  0  0  0  0
  2  3  1  0  0  0  0
  3  4  2  0  0  0  0
  4  8  1  0  0  0  0
  4  5  1  0  0  0  0
  5 11  1  0  0  0  0
  5  6  1  0  0  0  0
  6 12  1  0  0  0  0
  7  6  2  0  0  0  0
  8  7  1  0  0  0  0
  9 13  1  0  0  0  0
  9  8  2  0  0  0  0
 10  1  1  0  0  0  0
 14 19  1  0  0  0  0
 15 14  2  0  0  0  0
 15 16  1  0  0  0  0
 16 17  2  0  0  0  0
 17 18  1  0  0  0  0
 18  2  1  0  0  0  0
 19 18  2  0  0  0  0
 20 14  1  0  0  0  0
 21 15  1  0  0  0  0
 22 16  1  0  0  0  0
 23  3  1  0  0  0  0
 23 30  2  0  0  0  0
 24 23  1  0  0  0  0
 25 24  1  0  0  0  0
 26 24  2  0  0  0  0
 26 28  1  0  0  0  0
 27 26  1  0  0  0  0
 28 29  1  0  0  0  0
 28 30  1  0  0  0  0
M  END
>  <minimizedAffinity>
-5.31179762

>  <minimizedRMSD>
1.60083854

$$$$
