
 OpenBabel03252509283D

 20 21  0  0  0  0  0  0  0  0999 V2000
   47.2100   34.9140   41.9390 C   0  0  0  0  0  0  0  0  0  0  0  0
   48.1040   34.2790   42.2100 H   0  0  0  0  0  0  0  0  0  0  0  0
   47.6360   35.9070   41.6940 H   0  0  0  0  0  0  0  0  0  0  0  0
   44.6270   36.0950   44.3510 C   0  0  0  0  0  0  0  0  0  0  0  0
   45.4620   36.0590   43.2140 C   0  0  0  0  0  0  0  0  0  0  0  0
   46.3370   34.9660   43.1150 C   0  0  0  0  0  0  0  0  0  0  0  0
   46.3300   34.0230   44.1020 N   0  0  0  0  0  0  0  0  0  0  0  0
   45.5100   34.1060   45.1720 C   0  0  0  0  0  0  0  0  0  0  0  0
   44.6570   35.1540   45.2860 N   0  0  0  0  0  0  0  0  0  0  0  0
   43.9740   36.9640   44.3710 H   0  0  0  0  0  0  0  0  0  0  0  0
   45.4310   36.8290   42.4580 H   0  0  0  0  0  0  0  0  0  0  0  0
   45.5910   33.3010   45.8910 H   0  0  0  0  0  0  0  0  0  0  0  0
   46.6090   34.2620   40.7580 C   0  0  0  0  0  0  0  0  0  0  0  0
   45.2570   33.9420   40.7840 C   0  0  0  0  0  0  0  0  0  0  0  0
   44.5060   34.0930   41.5700 H   0  0  0  0  0  0  0  0  0  0  0  0
   44.8750   33.3420   39.5970 C   0  0  0  0  0  0  0  0  0  0  0  0
   43.9310   32.9670   39.2630 H   0  0  0  0  0  0  0  0  0  0  0  0
   46.0330   33.3180   38.8780 N   0  0  0  0  0  0  0  0  0  0  0  0
   46.2070   32.9470   37.9100 H   0  0  0  0  0  0  0  0  0  0  0  0
   47.0560   33.8590   39.5580 N   0  0  0  0  0  0  0  0  0  0  0  0
  1  2  1  0  0  0  0
  1  6  1  0  0  0  0
  3  1  1  0  0  0  0
  4 10  1  0  0  0  0
  4  9  1  0  0  0  0
  5  4  2  0  0  0  0
  6  5  1  0  0  0  0
  6  7  2  0  0  0  0
  7  8  1  0  0  0  0
  8  9  2  0  0  0  0
  8 12  1  0  0  0  0
 11  5  1  0  0  0  0
 13 14  1  0  0  0  0
 13  1  1  0  0  0  0
 14 15  1  0  0  0  0
 16 14  2  0  0  0  0
 17 16  1  0  0  0  0
 18 20  1  0  0  0  0
 18 16  1  0  0  0  0
 19 18  1  0  0  0  0
 20 13  2  0  0  0  0
M  END
>  <minimizedAffinity>
-3.86441398

>  <minimizedRMSD>
0.663637757

$$$$
