
 OpenBabel03252506593D

 23 24  0  0  0  0  0  0  0  0999 V2000
   37.6120   27.9510   43.4370 C   0  0  0  0  0  0  0  0  0  0  0  0
   36.5780   27.7930   43.1260 H   0  0  0  0  0  0  0  0  0  0  0  0
   37.6030   28.3370   44.4710 H   0  0  0  0  0  0  0  0  0  0  0  0
   38.4440   26.7670   43.2170 C   0  0  0  0  0  0  0  0  0  0  0  0
   39.7520   26.6890   43.6800 C   0  0  0  0  0  0  0  0  0  0  0  0
   40.5080   25.5250   43.4390 C   0  0  0  0  0  0  0  0  0  0  0  0
   39.8880   24.5350   42.7520 N   0  0  0  0  0  0  0  0  0  0  0  0
   38.6110   24.6340   42.3100 C   0  0  0  0  0  0  0  0  0  0  0  0
   37.9140   25.7450   42.5490 N   0  0  0  0  0  0  0  0  0  0  0  0
   40.2040   27.4950   44.2190 H   0  0  0  0  0  0  0  0  0  0  0  0
   41.5090   25.4620   43.7920 H   0  0  0  0  0  0  0  0  0  0  0  0
   38.1480   23.8220   41.7640 H   0  0  0  0  0  0  0  0  0  0  0  0
   38.1290   29.0680   42.5470 C   0  0  0  0  0  0  0  0  0  0  0  0
   39.0050   28.8040   41.9560 H   0  0  0  0  0  0  0  0  0  0  0  0
   38.3050   29.9470   43.2320 H   0  0  0  0  0  0  0  0  0  0  0  0
   36.9670   29.5020   41.7030 C   0  0  0  0  0  0  0  0  0  0  0  0
   36.1700   28.5860   41.0460 C   0  0  0  0  0  0  0  0  0  0  0  0
   36.2740   27.5040   41.0570 H   0  0  0  0  0  0  0  0  0  0  0  0
   35.1780   29.2650   40.3460 C   0  0  0  0  0  0  0  0  0  0  0  0
   34.3850   28.9210   39.7290 H   0  0  0  0  0  0  0  0  0  0  0  0
   35.4510   30.5580   40.6310 N   0  0  0  0  0  0  0  0  0  0  0  0
   34.9430   31.4070   40.3040 H   0  0  0  0  0  0  0  0  0  0  0  0
   36.4980   30.7370   41.4280 N   0  0  0  0  0  0  0  0  0  0  0  0
  1  3  1  0  0  0  0
  2  1  1  0  0  0  0
  4  1  1  0  0  0  0
  4  5  1  0  0  0  0
  5 10  1  0  0  0  0
  6  5  2  0  0  0  0
  6 11  1  0  0  0  0
  7  6  1  0  0  0  0
  8  9  1  0  0  0  0
  8  7  2  0  0  0  0
  9  4  2  0  0  0  0
 12  8  1  0  0  0  0
 13 15  1  0  0  0  0
 13  1  1  0  0  0  0
 14 13  1  0  0  0  0
 16 13  1  0  0  0  0
 17 18  1  0  0  0  0
 17 16  1  0  0  0  0
 19 21  1  0  0  0  0
 19 17  2  0  0  0  0
 20 19  1  0  0  0  0
 21 23  1  0  0  0  0
 22 21  1  0  0  0  0
 23 16  2  0  0  0  0
M  END
>  <minimizedAffinity>
-4.23146725

$$$$

 OpenBabel03252506593D

 23 24  0  0  0  0  0  0  0  0999 V2000
   35.5620   28.8640   40.7720 C   0  0  0  0  0  0  0  0  0  0  0  0
   34.6740   28.3040   40.4720 H   0  0  0  0  0  0  0  0  0  0  0  0
   35.2310   29.7700   41.3090 H   0  0  0  0  0  0  0  0  0  0  0  0
   36.5290   28.0290   41.4850 C   0  0  0  0  0  0  0  0  0  0  0  0
   36.9760   26.8180   40.9720 C   0  0  0  0  0  0  0  0  0  0  0  0
   37.9090   26.0530   41.7020 C   0  0  0  0  0  0  0  0  0  0  0  0
   38.3150   26.5700   42.8870 N   0  0  0  0  0  0  0  0  0  0  0  0
   37.8650   27.7540   43.3670 C   0  0  0  0  0  0  0  0  0  0  0  0
   36.9830   28.4610   42.6610 N   0  0  0  0  0  0  0  0  0  0  0  0
   36.6290   26.4450   40.0310 H   0  0  0  0  0  0  0  0  0  0  0  0
   38.2530   25.1260   41.3120 H   0  0  0  0  0  0  0  0  0  0  0  0
   38.2130   28.1360   44.3190 H   0  0  0  0  0  0  0  0  0  0  0  0
   36.1990   29.3250   39.4710 C   0  0  0  0  0  0  0  0  0  0  0  0
   35.5790   29.1740   38.5890 H   0  0  0  0  0  0  0  0  0  0  0  0
   37.1910   28.7920   39.4120 H   0  0  0  0  0  0  0  0  0  0  0  0
   36.5770   30.7620   39.6770 C   0  0  0  0  0  0  0  0  0  0  0  0
   37.0460   31.5410   38.6380 C   0  0  0  0  0  0  0  0  0  0  0  0
   37.1920   31.2330   37.6050 H   0  0  0  0  0  0  0  0  0  0  0  0
   37.3150   32.8200   39.1130 C   0  0  0  0  0  0  0  0  0  0  0  0
   37.6840   33.6920   38.6310 H   0  0  0  0  0  0  0  0  0  0  0  0
   36.9860   32.7220   40.4210 N   0  0  0  0  0  0  0  0  0  0  0  0
   37.0370   33.4630   41.1520 H   0  0  0  0  0  0  0  0  0  0  0  0
   36.5470   31.5250   40.7890 N   0  0  0  0  0  0  0  0  0  0  0  0
  1  3  1  0  0  0  0
  1  4  1  0  0  0  0
  2  1  1  0  0  0  0
  4  9  1  0  0  0  0
  5  4  2  0  0  0  0
  5  6  1  0  0  0  0
  6  7  2  0  0  0  0
  7  8  1  0  0  0  0
  8 12  1  0  0  0  0
  9  8  2  0  0  0  0
 10  5  1  0  0  0  0
 11  6  1  0  0  0  0
 13 16  1  0  0  0  0
 13  1  1  0  0  0  0
 14 13  1  0  0  0  0
 15 13  1  0  0  0  0
 16 23  2  0  0  0  0
 17 19  2  0  0  0  0
 17 16  1  0  0  0  0
 18 17  1  0  0  0  0
 19 21  1  0  0  0  0
 20 19  1  0  0  0  0
 21 23  1  0  0  0  0
 21 22  1  0  0  0  0
M  END
>  <minimizedAffinity>
-4.22214317

$$$$

 OpenBabel03252506593D

 23 24  0  0  0  0  0  0  0  0999 V2000
   37.2760   28.2030   42.9280 C   0  0  0  0  0  0  0  0  0  0  0  0
   36.4220   28.1590   43.6070 H   0  0  0  0  0  0  0  0  0  0  0  0
   37.8410   29.1260   43.1460 H   0  0  0  0  0  0  0  0  0  0  0  0
   38.0610   26.9670   42.9450 C   0  0  0  0  0  0  0  0  0  0  0  0
   39.2340   26.8510   43.6800 C   0  0  0  0  0  0  0  0  0  0  0  0
   39.9510   25.6370   43.6610 C   0  0  0  0  0  0  0  0  0  0  0  0
   39.4280   24.6420   42.9040 N   0  0  0  0  0  0  0  0  0  0  0  0
   38.2820   24.7790   42.1950 C   0  0  0  0  0  0  0  0  0  0  0  0
   37.6200   25.9360   42.2280 N   0  0  0  0  0  0  0  0  0  0  0  0
   39.6120   27.6630   44.2650 H   0  0  0  0  0  0  0  0  0  0  0  0
   40.8490   25.5440   44.2220 H   0  0  0  0  0  0  0  0  0  0  0  0
   37.8940   23.9610   41.6020 H   0  0  0  0  0  0  0  0  0  0  0  0
   36.6740   28.3650   41.5420 C   0  0  0  0  0  0  0  0  0  0  0  0
   35.6450   28.0190   41.4560 H   0  0  0  0  0  0  0  0  0  0  0  0
   37.3800   27.8360   40.8400 H   0  0  0  0  0  0  0  0  0  0  0  0
   36.8330   29.8130   41.1840 C   0  0  0  0  0  0  0  0  0  0  0  0
   38.0780   30.3800   41.0010 C   0  0  0  0  0  0  0  0  0  0  0  0
   39.0410   29.8820   41.0860 H   0  0  0  0  0  0  0  0  0  0  0  0
   37.9230   31.7230   40.6780 C   0  0  0  0  0  0  0  0  0  0  0  0
   38.6310   32.4870   40.4660 H   0  0  0  0  0  0  0  0  0  0  0  0
   36.5800   31.8750   40.6900 N   0  0  0  0  0  0  0  0  0  0  0  0
   36.0320   32.7410   40.4990 H   0  0  0  0  0  0  0  0  0  0  0  0
   35.9040   30.7710   40.9840 N   0  0  0  0  0  0  0  0  0  0  0  0
  1  4  1  0  0  0  0
  1  3  1  0  0  0  0
  1  2  1  0  0  0  0
  4  5  1  0  0  0  0
  5 10  1  0  0  0  0
  6  5  2  0  0  0  0
  6 11  1  0  0  0  0
  7  6  1  0  0  0  0
  8  9  1  0  0  0  0
  8  7  2  0  0  0  0
  9  4  2  0  0  0  0
 12  8  1  0  0  0  0
 13  1  1  0  0  0  0
 14 13  1  0  0  0  0
 15 13  1  0  0  0  0
 16 13  1  0  0  0  0
 17 18  1  0  0  0  0
 17 16  1  0  0  0  0
 19 21  1  0  0  0  0
 19 17  2  0  0  0  0
 20 19  1  0  0  0  0
 21 23  1  0  0  0  0
 22 21  1  0  0  0  0
 23 16  2  0  0  0  0
M  END
>  <minimizedAffinity>
-4.08843374

$$$$

 OpenBabel03252506593D

 23 24  0  0  0  0  0  0  0  0999 V2000
   37.7670   28.0710   43.3730 C   0  0  0  0  0  0  0  0  0  0  0  0
   38.7000   27.5530   43.6040 H   0  0  0  0  0  0  0  0  0  0  0  0
   37.2190   28.2260   44.3190 H   0  0  0  0  0  0  0  0  0  0  0  0
   37.9850   29.2740   42.5690 C   0  0  0  0  0  0  0  0  0  0  0  0
   39.1890   29.9680   42.5920 C   0  0  0  0  0  0  0  0  0  0  0  0
   39.3440   31.1210   41.7970 C   0  0  0  0  0  0  0  0  0  0  0  0
   38.2760   31.4820   41.0450 N   0  0  0  0  0  0  0  0  0  0  0  0
   37.1120   30.7900   41.0390 C   0  0  0  0  0  0  0  0  0  0  0  0
   36.9860   29.7020   41.7990 N   0  0  0  0  0  0  0  0  0  0  0  0
   40.0080   29.6480   43.2020 H   0  0  0  0  0  0  0  0  0  0  0  0
   40.2640   31.6540   41.8120 H   0  0  0  0  0  0  0  0  0  0  0  0
   36.2790   31.1090   40.4240 H   0  0  0  0  0  0  0  0  0  0  0  0
   36.9600   27.0850   42.5460 C   0  0  0  0  0  0  0  0  0  0  0  0
   36.7080   27.4370   41.5460 H   0  0  0  0  0  0  0  0  0  0  0  0
   36.0550   26.8330   43.1690 H   0  0  0  0  0  0  0  0  0  0  0  0
   37.7480   25.8080   42.5290 C   0  0  0  0  0  0  0  0  0  0  0  0
   39.0720   25.7720   42.9180 C   0  0  0  0  0  0  0  0  0  0  0  0
   39.6740   26.6090   43.2650 H   0  0  0  0  0  0  0  0  0  0  0  0
   39.5450   24.4690   42.8030 C   0  0  0  0  0  0  0  0  0  0  0  0
   40.4960   24.0410   43.0040 H   0  0  0  0  0  0  0  0  0  0  0  0
   38.4600   23.8030   42.3470 N   0  0  0  0  0  0  0  0  0  0  0  0
   38.3790   22.7890   42.1220 H   0  0  0  0  0  0  0  0  0  0  0  0
   37.3830   24.5590   42.1730 N   0  0  0  0  0  0  0  0  0  0  0  0
  1  2  1  0  0  0  0
  1  3  1  0  0  0  0
  4  5  1  0  0  0  0
  4  1  1  0  0  0  0
  5 10  1  0  0  0  0
  6 11  1  0  0  0  0
  6  5  2  0  0  0  0
  7  6  1  0  0  0  0
  8  7  2  0  0  0  0
  8  9  1  0  0  0  0
  9  4  2  0  0  0  0
 12  8  1  0  0  0  0
 13 15  1  0  0  0  0
 13  1  1  0  0  0  0
 14 13  1  0  0  0  0
 16 13  1  0  0  0  0
 16 17  1  0  0  0  0
 17 18  1  0  0  0  0
 19 17  2  0  0  0  0
 19 20  1  0  0  0  0
 21 19  1  0  0  0  0
 22 21  1  0  0  0  0
 23 21  1  0  0  0  0
 23 16  2  0  0  0  0
M  END
>  <minimizedAffinity>
-4.04051924

$$$$

 OpenBabel03252506593D

 23 24  0  0  0  0  0  0  0  0999 V2000
   36.6970   27.3590   42.7600 C   0  0  0  0  0  0  0  0  0  0  0  0
   36.4090   27.5670   43.7930 H   0  0  0  0  0  0  0  0  0  0  0  0
   36.0900   26.5100   42.4000 H   0  0  0  0  0  0  0  0  0  0  0  0
   36.6590   28.5580   41.9220 C   0  0  0  0  0  0  0  0  0  0  0  0
   35.6800   28.7500   40.9550 C   0  0  0  0  0  0  0  0  0  0  0  0
   35.6920   29.9240   40.1760 C   0  0  0  0  0  0  0  0  0  0  0  0
   36.6880   30.8070   40.4310 N   0  0  0  0  0  0  0  0  0  0  0  0
   37.6320   30.5970   41.3790 C   0  0  0  0  0  0  0  0  0  0  0  0
   37.6020   29.4800   42.1050 N   0  0  0  0  0  0  0  0  0  0  0  0
   34.9100   28.0270   40.7850 H   0  0  0  0  0  0  0  0  0  0  0  0
   34.9440   30.0750   39.4350 H   0  0  0  0  0  0  0  0  0  0  0  0
   38.4140   31.3260   41.5560 H   0  0  0  0  0  0  0  0  0  0  0  0
   38.1360   26.8780   42.8390 C   0  0  0  0  0  0  0  0  0  0  0  0
   38.5840   26.9600   43.8280 H   0  0  0  0  0  0  0  0  0  0  0  0
   38.6950   27.4570   42.0500 H   0  0  0  0  0  0  0  0  0  0  0  0
   38.1360   25.4710   42.3160 C   0  0  0  0  0  0  0  0  0  0  0  0
   37.1010   24.9890   41.5410 C   0  0  0  0  0  0  0  0  0  0  0  0
   36.2110   25.5300   41.2300 H   0  0  0  0  0  0  0  0  0  0  0  0
   37.3660   23.6660   41.2010 C   0  0  0  0  0  0  0  0  0  0  0  0
   36.8200   22.9610   40.6240 H   0  0  0  0  0  0  0  0  0  0  0  0
   38.5560   23.4420   41.8020 N   0  0  0  0  0  0  0  0  0  0  0  0
   39.1190   22.5640   41.8000 H   0  0  0  0  0  0  0  0  0  0  0  0
   39.0410   24.4820   42.4690 N   0  0  0  0  0  0  0  0  0  0  0  0
  1 13  1  0  0  0  0
  1  2  1  0  0  0  0
  3  1  1  0  0  0  0
  4  9  1  0  0  0  0
  4  1  1  0  0  0  0
  5  4  2  0  0  0  0
  6  7  2  0  0  0  0
  6  5  1  0  0  0  0
  7  8  1  0  0  0  0
  8 12  1  0  0  0  0
  8  9  2  0  0  0  0
 10  5  1  0  0  0  0
 11  6  1  0  0  0  0
 13 14  1  0  0  0  0
 15 13  1  0  0  0  0
 16 23  2  0  0  0  0
 16 13  1  0  0  0  0
 17 16  1  0  0  0  0
 18 17  1  0  0  0  0
 19 17  2  0  0  0  0
 19 21  1  0  0  0  0
 20 19  1  0  0  0  0
 21 23  1  0  0  0  0
 22 21  1  0  0  0  0
M  END
>  <minimizedAffinity>
-3.98874307

$$$$

 OpenBabel03252506593D

 23 24  0  0  0  0  0  0  0  0999 V2000
   36.2020   30.5110   41.1610 C   0  0  0  0  0  0  0  0  0  0  0  0
   35.1110   30.5290   41.1170 H   0  0  0  0  0  0  0  0  0  0  0  0
   36.5320   31.3440   41.8050 H   0  0  0  0  0  0  0  0  0  0  0  0
   36.7190   29.1920   41.5270 C   0  0  0  0  0  0  0  0  0  0  0  0
   36.5970   28.0930   40.6850 C   0  0  0  0  0  0  0  0  0  0  0  0
   37.1140   26.8450   41.0870 C   0  0  0  0  0  0  0  0  0  0  0  0
   37.7100   26.8050   42.3040 N   0  0  0  0  0  0  0  0  0  0  0  0
   37.8180   27.8900   43.1080 C   0  0  0  0  0  0  0  0  0  0  0  0
   37.3220   29.0600   42.7070 N   0  0  0  0  0  0  0  0  0  0  0  0
   36.1170   28.1690   39.7310 H   0  0  0  0  0  0  0  0  0  0  0  0
   37.0220   26.0030   40.4460 H   0  0  0  0  0  0  0  0  0  0  0  0
   38.3020   27.8200   44.0740 H   0  0  0  0  0  0  0  0  0  0  0  0
   36.6620   30.8280   39.7480 C   0  0  0  0  0  0  0  0  0  0  0  0
   35.8680   30.8140   39.0030 H   0  0  0  0  0  0  0  0  0  0  0  0
   37.4910   30.0960   39.5260 H   0  0  0  0  0  0  0  0  0  0  0  0
   37.3650   32.1510   39.8240 C   0  0  0  0  0  0  0  0  0  0  0  0
   38.4250   32.3570   40.6830 C   0  0  0  0  0  0  0  0  0  0  0  0
   38.8590   31.6350   41.3700 H   0  0  0  0  0  0  0  0  0  0  0  0
   38.8780   33.6650   40.5410 C   0  0  0  0  0  0  0  0  0  0  0  0
   39.6630   34.1980   41.0190 H   0  0  0  0  0  0  0  0  0  0  0  0
   38.0490   34.1610   39.5960 N   0  0  0  0  0  0  0  0  0  0  0  0
   38.0430   35.1210   39.1900 H   0  0  0  0  0  0  0  0  0  0  0  0
   37.1450   33.2990   39.1490 N   0  0  0  0  0  0  0  0  0  0  0  0
  1  4  1  0  0  0  0
  1  3  1  0  0  0  0
  2  1  1  0  0  0  0
  4  9  1  0  0  0  0
  5  6  1  0  0  0  0
  5  4  2  0  0  0  0
  6  7  2  0  0  0  0
  7  8  1  0  0  0  0
  8 12  1  0  0  0  0
  9  8  2  0  0  0  0
 10  5  1  0  0  0  0
 11  6  1  0  0  0  0
 13 16  1  0  0  0  0
 13  1  1  0  0  0  0
 14 13  1  0  0  0  0
 15 13  1  0  0  0  0
 16 17  1  0  0  0  0
 17 18  1  0  0  0  0
 19 17  2  0  0  0  0
 19 20  1  0  0  0  0
 21 19  1  0  0  0  0
 22 21  1  0  0  0  0
 23 21  1  0  0  0  0
 23 16  2  0  0  0  0
M  END
>  <minimizedAffinity>
-3.96209264

$$$$

 OpenBabel03252506593D

 23 24  0  0  0  0  0  0  0  0999 V2000
   35.8940   29.9950   40.4470 C   0  0  0  0  0  0  0  0  0  0  0  0
   35.8110   29.3920   39.5410 H   0  0  0  0  0  0  0  0  0  0  0  0
   34.8800   30.3190   40.7370 H   0  0  0  0  0  0  0  0  0  0  0  0
   36.6610   29.3200   41.4940 C   0  0  0  0  0  0  0  0  0  0  0  0
   37.7910   29.8930   42.0650 C   0  0  0  0  0  0  0  0  0  0  0  0
   38.4920   29.1970   43.0710 C   0  0  0  0  0  0  0  0  0  0  0  0
   38.0000   27.9830   43.4170 N   0  0  0  0  0  0  0  0  0  0  0  0
   36.8970   27.4440   42.8460 C   0  0  0  0  0  0  0  0  0  0  0  0
   36.2490   28.1190   41.8970 N   0  0  0  0  0  0  0  0  0  0  0  0
   38.1460   30.8550   41.7610 H   0  0  0  0  0  0  0  0  0  0  0  0
   39.3570   29.6330   43.5100 H   0  0  0  0  0  0  0  0  0  0  0  0
   36.5330   26.4710   43.1490 H   0  0  0  0  0  0  0  0  0  0  0  0
   36.6570   31.2400   40.0260 C   0  0  0  0  0  0  0  0  0  0  0  0
   37.5390   31.4530   40.6280 H   0  0  0  0  0  0  0  0  0  0  0  0
   35.9020   32.0780   40.0340 H   0  0  0  0  0  0  0  0  0  0  0  0
   36.9770   31.0630   38.5710 C   0  0  0  0  0  0  0  0  0  0  0  0
   36.4910   29.9900   37.8500 C   0  0  0  0  0  0  0  0  0  0  0  0
   35.8560   29.1890   38.2190 H   0  0  0  0  0  0  0  0  0  0  0  0
   36.9440   30.0820   36.5380 C   0  0  0  0  0  0  0  0  0  0  0  0
   36.7900   29.4590   35.6910 H   0  0  0  0  0  0  0  0  0  0  0  0
   37.6790   31.2150   36.5600 N   0  0  0  0  0  0  0  0  0  0  0  0
   38.2030   31.6550   35.7720 H   0  0  0  0  0  0  0  0  0  0  0  0
   37.7220   31.8210   37.7400 N   0  0  0  0  0  0  0  0  0  0  0  0
  1  3  1  0  0  0  0
  1  4  1  0  0  0  0
  2  1  1  0  0  0  0
  4  9  2  0  0  0  0
  4  5  1  0  0  0  0
  5  6  2  0  0  0  0
  6  7  1  0  0  0  0
  6 11  1  0  0  0  0
  8 12  1  0  0  0  0
  8  7  2  0  0  0  0
  9  8  1  0  0  0  0
 10  5  1  0  0  0  0
 13 15  1  0  0  0  0
 13  1  1  0  0  0  0
 13 14  1  0  0  0  0
 16 13  1  0  0  0  0
 17 18  1  0  0  0  0
 17 16  1  0  0  0  0
 19 21  1  0  0  0  0
 19 17  2  0  0  0  0
 20 19  1  0  0  0  0
 21 23  1  0  0  0  0
 22 21  1  0  0  0  0
 23 16  2  0  0  0  0
M  END
>  <minimizedAffinity>
-3.91145349

$$$$

 OpenBabel03252506593D

 23 24  0  0  0  0  0  0  0  0999 V2000
   35.4580   29.1980   40.5600 C   0  0  0  0  0  0  0  0  0  0  0  0
   35.3810   29.3290   41.6410 H   0  0  0  0  0  0  0  0  0  0  0  0
   34.4440   29.0190   40.1630 H   0  0  0  0  0  0  0  0  0  0  0  0
   36.2000   30.2860   39.9220 C   0  0  0  0  0  0  0  0  0  0  0  0
   36.5990   31.4160   40.6240 C   0  0  0  0  0  0  0  0  0  0  0  0
   37.3120   32.4340   39.9600 C   0  0  0  0  0  0  0  0  0  0  0  0
   37.5640   32.2320   38.6440 N   0  0  0  0  0  0  0  0  0  0  0  0
   37.1640   31.1220   37.9790 C   0  0  0  0  0  0  0  0  0  0  0  0
   36.4910   30.1710   38.6280 N   0  0  0  0  0  0  0  0  0  0  0  0
   36.3790   31.5360   41.6650 H   0  0  0  0  0  0  0  0  0  0  0  0
   37.6190   33.3010   40.4940 H   0  0  0  0  0  0  0  0  0  0  0  0
   37.3840   30.9940   36.9270 H   0  0  0  0  0  0  0  0  0  0  0  0
   36.2440   27.9110   40.3720 C   0  0  0  0  0  0  0  0  0  0  0  0
   36.7220   27.8150   39.3980 H   0  0  0  0  0  0  0  0  0  0  0  0
   35.5200   27.0760   40.5950 H   0  0  0  0  0  0  0  0  0  0  0  0
   37.2220   27.8480   41.5080 C   0  0  0  0  0  0  0  0  0  0  0  0
   36.8210   27.5270   42.7890 C   0  0  0  0  0  0  0  0  0  0  0  0
   35.8120   27.2930   43.1180 H   0  0  0  0  0  0  0  0  0  0  0  0
   37.9290   27.5430   43.6300 C   0  0  0  0  0  0  0  0  0  0  0  0
   38.0310   27.3530   44.6700 H   0  0  0  0  0  0  0  0  0  0  0  0
   38.9320   27.8770   42.7870 N   0  0  0  0  0  0  0  0  0  0  0  0
   39.9420   28.0000   43.0110 H   0  0  0  0  0  0  0  0  0  0  0  0
   38.5540   28.0650   41.5290 N   0  0  0  0  0  0  0  0  0  0  0  0
  1  2  1  0  0  0  0
  3  1  1  0  0  0  0
  4  1  1  0  0  0  0
  4  5  1  0  0  0  0
  5 10  1  0  0  0  0
  6 11  1  0  0  0  0
  6  5  2  0  0  0  0
  7  6  1  0  0  0  0
  8  9  1  0  0  0  0
  8  7  2  0  0  0  0
  9  4  2  0  0  0  0
 12  8  1  0  0  0  0
 13  1  1  0  0  0  0
 13 15  1  0  0  0  0
 13 16  1  0  0  0  0
 14 13  1  0  0  0  0
 16 23  2  0  0  0  0
 16 17  1  0  0  0  0
 17 18  1  0  0  0  0
 17 19  2  0  0  0  0
 19 20  1  0  0  0  0
 21 22  1  0  0  0  0
 21 19  1  0  0  0  0
 23 21  1  0  0  0  0
M  END
>  <minimizedAffinity>
-3.76842618

$$$$

 OpenBabel03252506593D

 23 24  0  0  0  0  0  0  0  0999 V2000
   36.4150   30.5470   39.3100 C   0  0  0  0  0  0  0  0  0  0  0  0
   36.8160   30.2000   38.3560 H   0  0  0  0  0  0  0  0  0  0  0  0
   35.3400   30.7600   39.1730 H   0  0  0  0  0  0  0  0  0  0  0  0
   36.7390   29.6390   40.4110 C   0  0  0  0  0  0  0  0  0  0  0  0
   37.2000   30.1020   41.6370 C   0  0  0  0  0  0  0  0  0  0  0  0
   37.4970   29.1820   42.6630 C   0  0  0  0  0  0  0  0  0  0  0  0
   37.3060   27.8720   42.3700 N   0  0  0  0  0  0  0  0  0  0  0  0
   36.8560   27.4440   41.1670 C   0  0  0  0  0  0  0  0  0  0  0  0
   36.5810   28.3310   40.2110 N   0  0  0  0  0  0  0  0  0  0  0  0
   37.3370   31.1460   41.8260 H   0  0  0  0  0  0  0  0  0  0  0  0
   37.8500   29.5330   43.6020 H   0  0  0  0  0  0  0  0  0  0  0  0
   36.7150   26.3890   40.9700 H   0  0  0  0  0  0  0  0  0  0  0  0
   37.1030   31.8760   39.5720 C   0  0  0  0  0  0  0  0  0  0  0  0
   37.4740   31.9990   40.5880 H   0  0  0  0  0  0  0  0  0  0  0  0
   36.3600   32.6690   39.2720 H   0  0  0  0  0  0  0  0  0  0  0  0
   38.1870   31.9950   38.5410 C   0  0  0  0  0  0  0  0  0  0  0  0
   39.5000   32.2320   38.8970 C   0  0  0  0  0  0  0  0  0  0  0  0
   39.8910   32.3540   39.9040 H   0  0  0  0  0  0  0  0  0  0  0  0
   40.2790   32.2940   37.7460 C   0  0  0  0  0  0  0  0  0  0  0  0
   41.3190   32.4570   37.6040 H   0  0  0  0  0  0  0  0  0  0  0  0
   39.3710   32.0880   36.7660 N   0  0  0  0  0  0  0  0  0  0  0  0
   39.5360   32.0560   35.7370 H   0  0  0  0  0  0  0  0  0  0  0  0
   38.1290   31.9080   37.1960 N   0  0  0  0  0  0  0  0  0  0  0  0
  1 13  1  0  0  0  0
  1  4  1  0  0  0  0
  2  1  1  0  0  0  0
  3  1  1  0  0  0  0
  4  5  1  0  0  0  0
  5 10  1  0  0  0  0
  5  6  2  0  0  0  0
  6 11  1  0  0  0  0
  7  6  1  0  0  0  0
  8  7  2  0  0  0  0
  9  4  2  0  0  0  0
  9  8  1  0  0  0  0
 12  8  1  0  0  0  0
 13 14  1  0  0  0  0
 15 13  1  0  0  0  0
 16 17  1  0  0  0  0
 16 13  1  0  0  0  0
 17 18  1  0  0  0  0
 19 17  2  0  0  0  0
 20 19  1  0  0  0  0
 21 23  1  0  0  0  0
 21 19  1  0  0  0  0
 22 21  1  0  0  0  0
 23 16  2  0  0  0  0
M  END
>  <minimizedAffinity>
-3.7232244

$$$$
