
 OpenBabel03242521403D

 20 21  0  0  0  0  0  0  0  0999 V2000
   37.7060   28.2740   42.9280 C   0  0  0  0  0  0  0  0  0  0  0  0
   37.3340   29.4570   42.2580 C   0  0  0  0  0  0  0  0  0  0  0  0
   38.3680   30.2830   41.8060 C   0  0  0  0  0  0  0  0  0  0  0  0
   39.6460   29.9120   42.0310 N   0  0  0  0  0  0  0  0  0  0  0  0
   39.9610   28.7680   42.6780 C   0  0  0  0  0  0  0  0  0  0  0  0
   38.9800   27.9520   43.1250 N   0  0  0  0  0  0  0  0  0  0  0  0
   36.2940   29.7280   42.0920 H   0  0  0  0  0  0  0  0  0  0  0  0
   40.9850   28.4870   42.8490 H   0  0  0  0  0  0  0  0  0  0  0  0
   38.0790   31.5270   41.1030 C   0  0  0  0  0  0  0  0  0  0  0  0
   38.9850   32.5430   40.8830 C   0  0  0  0  0  0  0  0  0  0  0  0
   40.0040   32.5520   41.1950 H   0  0  0  0  0  0  0  0  0  0  0  0
   38.2510   33.5050   40.1810 C   0  0  0  0  0  0  0  0  0  0  0  0
   38.7040   34.4380   39.8600 H   0  0  0  0  0  0  0  0  0  0  0  0
   36.9890   33.0650   40.0050 N   0  0  0  0  0  0  0  0  0  0  0  0
   36.2330   33.5960   39.5080 H   0  0  0  0  0  0  0  0  0  0  0  0
   36.8990   31.8680   40.5670 N   0  0  0  0  0  0  0  0  0  0  0  0
   36.6050   27.3900   43.4130 C   0  0  0  0  0  0  0  0  0  0  0  0
   37.0280   26.7570   44.2370 H   0  0  0  0  0  0  0  0  0  0  0  0
   36.3410   26.7270   42.5540 H   0  0  0  0  0  0  0  0  0  0  0  0
   35.7220   27.9480   43.7370 H   0  0  0  0  0  0  0  0  0  0  0  0
  1  6  1  0  0  0  0
  1 17  1  0  0  0  0
  2  1  2  0  0  0  0
  3  4  2  0  0  0  0
  3  2  1  0  0  0  0
  4  5  1  0  0  0  0
  5  8  1  0  0  0  0
  5  6  2  0  0  0  0
  7  2  1  0  0  0  0
  9  3  1  0  0  0  0
 10  9  1  0  0  0  0
 10 11  1  0  0  0  0
 12 10  2  0  0  0  0
 13 12  1  0  0  0  0
 14 12  1  0  0  0  0
 14 16  1  0  0  0  0
 15 14  1  0  0  0  0
 16  9  2  0  0  0  0
 17 20  1  0  0  0  0
 17 18  1  0  0  0  0
 19 17  1  0  0  0  0
M  END
>  <minimizedAffinity>
-4.22447348

$$$$

 OpenBabel03242521403D

 20 21  0  0  0  0  0  0  0  0999 V2000
   39.1020   27.6900   43.1270 C   0  0  0  0  0  0  0  0  0  0  0  0
   39.0440   28.9550   42.5060 C   0  0  0  0  0  0  0  0  0  0  0  0
   37.8040   29.3580   42.0020 C   0  0  0  0  0  0  0  0  0  0  0  0
   36.7450   28.5310   42.1320 N   0  0  0  0  0  0  0  0  0  0  0  0
   36.8430   27.3250   42.7340 C   0  0  0  0  0  0  0  0  0  0  0  0
   38.0310   26.9110   43.2300 N   0  0  0  0  0  0  0  0  0  0  0  0
   39.9160   29.5990   42.4180 H   0  0  0  0  0  0  0  0  0  0  0  0
   35.9900   26.6780   42.8290 H   0  0  0  0  0  0  0  0  0  0  0  0
   37.6480   30.6500   41.3450 C   0  0  0  0  0  0  0  0  0  0  0  0
   38.6770   31.5220   41.0540 C   0  0  0  0  0  0  0  0  0  0  0  0
   39.7090   31.3670   41.2690 H   0  0  0  0  0  0  0  0  0  0  0  0
   38.0400   32.6040   40.4370 C   0  0  0  0  0  0  0  0  0  0  0  0
   38.6020   33.4650   40.0880 H   0  0  0  0  0  0  0  0  0  0  0  0
   36.7150   32.3670   40.3750 N   0  0  0  0  0  0  0  0  0  0  0  0
   36.0080   33.0200   39.9570 H   0  0  0  0  0  0  0  0  0  0  0  0
   36.4920   31.1830   40.9270 N   0  0  0  0  0  0  0  0  0  0  0  0
   40.4240   27.2550   43.6660 C   0  0  0  0  0  0  0  0  0  0  0  0
   40.4000   26.1360   43.7370 H   0  0  0  0  0  0  0  0  0  0  0  0
   40.4910   27.6770   44.6980 H   0  0  0  0  0  0  0  0  0  0  0  0
   41.2680   27.6100   43.0640 H   0  0  0  0  0  0  0  0  0  0  0  0
  1  6  1  0  0  0  0
  1 17  1  0  0  0  0
  2  1  2  0  0  0  0
  3  4  2  0  0  0  0
  3  2  1  0  0  0  0
  4  5  1  0  0  0  0
  5  8  1  0  0  0  0
  5  6  2  0  0  0  0
  7  2  1  0  0  0  0
  9  3  1  0  0  0  0
 10 11  1  0  0  0  0
 10  9  1  0  0  0  0
 12 10  2  0  0  0  0
 13 12  1  0  0  0  0
 14 12  1  0  0  0  0
 14 16  1  0  0  0  0
 15 14  1  0  0  0  0
 16  9  2  0  0  0  0
 17 18  1  0  0  0  0
 17 19  1  0  0  0  0
 20 17  1  0  0  0  0
M  END
>  <minimizedAffinity>
-4.1983242

$$$$

 OpenBabel03242521403D

 20 21  0  0  0  0  0  0  0  0999 V2000
   37.2440   28.9310   42.1980 C   0  0  0  0  0  0  0  0  0  0  0  0
   37.7800   30.1870   41.8440 C   0  0  0  0  0  0  0  0  0  0  0  0
   37.1030   30.9100   40.8570 C   0  0  0  0  0  0  0  0  0  0  0  0
   35.9930   30.3800   40.3030 N   0  0  0  0  0  0  0  0  0  0  0  0
   35.5110   29.1710   40.6720 C   0  0  0  0  0  0  0  0  0  0  0  0
   36.1460   28.4510   41.6230 N   0  0  0  0  0  0  0  0  0  0  0  0
   38.6780   30.5870   42.3100 H   0  0  0  0  0  0  0  0  0  0  0  0
   34.6250   28.7630   40.2200 H   0  0  0  0  0  0  0  0  0  0  0  0
   37.5830   32.2180   40.4270 C   0  0  0  0  0  0  0  0  0  0  0  0
   38.6900   32.8640   40.9370 C   0  0  0  0  0  0  0  0  0  0  0  0
   39.3320   32.4960   41.7040 H   0  0  0  0  0  0  0  0  0  0  0  0
   38.7410   34.0650   40.2200 C   0  0  0  0  0  0  0  0  0  0  0  0
   39.5210   34.7980   40.4030 H   0  0  0  0  0  0  0  0  0  0  0  0
   37.7190   34.1070   39.3430 N   0  0  0  0  0  0  0  0  0  0  0  0
   37.5280   34.8980   38.6820 H   0  0  0  0  0  0  0  0  0  0  0  0
   37.0270   32.9840   39.4790 N   0  0  0  0  0  0  0  0  0  0  0  0
   37.9640   28.1560   43.2510 C   0  0  0  0  0  0  0  0  0  0  0  0
   37.6790   27.0780   43.1200 H   0  0  0  0  0  0  0  0  0  0  0  0
   37.5610   28.5150   44.2280 H   0  0  0  0  0  0  0  0  0  0  0  0
   39.0490   28.2990   43.2190 H   0  0  0  0  0  0  0  0  0  0  0  0
  1 17  1  0  0  0  0
  2  1  1  0  0  0  0
  2  7  1  0  0  0  0
  3  2  2  0  0  0  0
  4  5  2  0  0  0  0
  4  3  1  0  0  0  0
  5  6  1  0  0  0  0
  6  1  2  0  0  0  0
  8  5  1  0  0  0  0
  9  3  1  0  0  0  0
  9 10  1  0  0  0  0
 10 11  1  0  0  0  0
 12 13  1  0  0  0  0
 12 10  2  0  0  0  0
 14 16  1  0  0  0  0
 14 12  1  0  0  0  0
 15 14  1  0  0  0  0
 16  9  2  0  0  0  0
 17 19  1  0  0  0  0
 18 17  1  0  0  0  0
 20 17  1  0  0  0  0
M  END
>  <minimizedAffinity>
-4.18296719

$$$$

 OpenBabel03242521403D

 20 21  0  0  0  0  0  0  0  0999 V2000
   37.2570   26.8360   41.5560 C   0  0  0  0  0  0  0  0  0  0  0  0
   37.2270   28.1100   40.9520 C   0  0  0  0  0  0  0  0  0  0  0  0
   37.4760   29.2100   41.7780 C   0  0  0  0  0  0  0  0  0  0  0  0
   37.7280   29.0010   43.0880 N   0  0  0  0  0  0  0  0  0  0  0  0
   37.7480   27.7620   43.6280 C   0  0  0  0  0  0  0  0  0  0  0  0
   37.5100   26.6810   42.8520 N   0  0  0  0  0  0  0  0  0  0  0  0
   37.0210   28.2450   39.8930 H   0  0  0  0  0  0  0  0  0  0  0  0
   37.9500   27.6130   44.6730 H   0  0  0  0  0  0  0  0  0  0  0  0
   37.4660   30.5650   41.2410 C   0  0  0  0  0  0  0  0  0  0  0  0
   38.5830   31.3530   41.0550 C   0  0  0  0  0  0  0  0  0  0  0  0
   39.5880   31.0770   41.2770 H   0  0  0  0  0  0  0  0  0  0  0  0
   38.0730   32.5450   40.5280 C   0  0  0  0  0  0  0  0  0  0  0  0
   38.7260   33.3740   40.2730 H   0  0  0  0  0  0  0  0  0  0  0  0
   36.7340   32.4470   40.4160 N   0  0  0  0  0  0  0  0  0  0  0  0
   36.1060   33.2020   40.0460 H   0  0  0  0  0  0  0  0  0  0  0  0
   36.3800   31.2460   40.8500 N   0  0  0  0  0  0  0  0  0  0  0  0
   36.9910   25.6580   40.6780 C   0  0  0  0  0  0  0  0  0  0  0  0
   36.6520   24.8200   41.3430 H   0  0  0  0  0  0  0  0  0  0  0  0
   37.9740   25.3810   40.2270 H   0  0  0  0  0  0  0  0  0  0  0  0
   36.2650   25.8720   39.8870 H   0  0  0  0  0  0  0  0  0  0  0  0
  1  6  1  0  0  0  0
  2  1  2  0  0  0  0
  2  3  1  0  0  0  0
  3  4  2  0  0  0  0
  4  5  1  0  0  0  0
  5  8  1  0  0  0  0
  6  5  2  0  0  0  0
  7  2  1  0  0  0  0
  9  3  1  0  0  0  0
 10  9  1  0  0  0  0
 10 11  1  0  0  0  0
 12 10  2  0  0  0  0
 13 12  1  0  0  0  0
 14 12  1  0  0  0  0
 14 16  1  0  0  0  0
 15 14  1  0  0  0  0
 16  9  2  0  0  0  0
 17 18  1  0  0  0  0
 17  1  1  0  0  0  0
 19 17  1  0  0  0  0
 20 17  1  0  0  0  0
M  END
>  <minimizedAffinity>
-4.17359781

$$$$

 OpenBabel03242521403D

 20 21  0  0  0  0  0  0  0  0999 V2000
   38.3470   25.4690   42.2530 C   0  0  0  0  0  0  0  0  0  0  0  0
   37.4780   26.4130   41.6670 C   0  0  0  0  0  0  0  0  0  0  0  0
   37.5990   27.7380   42.0960 C   0  0  0  0  0  0  0  0  0  0  0  0
   38.5230   28.0410   43.0310 N   0  0  0  0  0  0  0  0  0  0  0  0
   39.3380   27.1050   43.5680 C   0  0  0  0  0  0  0  0  0  0  0  0
   39.2420   25.8170   43.1720 N   0  0  0  0  0  0  0  0  0  0  0  0
   36.7430   26.1360   40.9150 H   0  0  0  0  0  0  0  0  0  0  0  0
   40.0690   27.3640   44.3120 H   0  0  0  0  0  0  0  0  0  0  0  0
   36.7430   28.7830   41.5460 C   0  0  0  0  0  0  0  0  0  0  0  0
   35.7770   28.5900   40.5810 C   0  0  0  0  0  0  0  0  0  0  0  0
   35.5310   27.6630   40.1160 H   0  0  0  0  0  0  0  0  0  0  0  0
   35.2350   29.8650   40.3850 C   0  0  0  0  0  0  0  0  0  0  0  0
   34.4360   30.0350   39.6700 H   0  0  0  0  0  0  0  0  0  0  0  0
   35.8560   30.7450   41.1950 N   0  0  0  0  0  0  0  0  0  0  0  0
   35.6390   31.7700   41.2470 H   0  0  0  0  0  0  0  0  0  0  0  0
   36.7660   30.0770   41.8910 N   0  0  0  0  0  0  0  0  0  0  0  0
   38.2210   24.0520   41.7990 C   0  0  0  0  0  0  0  0  0  0  0  0
   38.6520   23.4060   42.6090 H   0  0  0  0  0  0  0  0  0  0  0  0
   38.8620   23.9620   40.8900 H   0  0  0  0  0  0  0  0  0  0  0  0
   37.1900   23.7720   41.5570 H   0  0  0  0  0  0  0  0  0  0  0  0
  1  6  1  0  0  0  0
  2  3  1  0  0  0  0
  2  1  2  0  0  0  0
  3  4  2  0  0  0  0
  4  5  1  0  0  0  0
  5  8  1  0  0  0  0
  6  5  2  0  0  0  0
  7  2  1  0  0  0  0
  9 16  2  0  0  0  0
  9  3  1  0  0  0  0
 10  9  1  0  0  0  0
 11 10  1  0  0  0  0
 12 10  2  0  0  0  0
 12 14  1  0  0  0  0
 13 12  1  0  0  0  0
 14 15  1  0  0  0  0
 14 16  1  0  0  0  0
 17  1  1  0  0  0  0
 17 18  1  0  0  0  0
 19 17  1  0  0  0  0
 20 17  1  0  0  0  0
M  END
>  <minimizedAffinity>
-4.12778187

$$$$

 OpenBabel03242521403D

 20 21  0  0  0  0  0  0  0  0999 V2000
   36.3830   28.8340   41.3130 C   0  0  0  0  0  0  0  0  0  0  0  0
   36.8120   27.5020   41.4900 C   0  0  0  0  0  0  0  0  0  0  0  0
   37.9490   27.3020   42.2790 C   0  0  0  0  0  0  0  0  0  0  0  0
   38.5670   28.3730   42.8200 N   0  0  0  0  0  0  0  0  0  0  0  0
   38.1220   29.6350   42.6260 C   0  0  0  0  0  0  0  0  0  0  0  0
   37.0260   29.8560   41.8670 N   0  0  0  0  0  0  0  0  0  0  0  0
   36.2910   26.6600   41.0410 H   0  0  0  0  0  0  0  0  0  0  0  0
   38.6270   30.4770   43.0640 H   0  0  0  0  0  0  0  0  0  0  0  0
   38.4650   25.9600   42.5180 C   0  0  0  0  0  0  0  0  0  0  0  0
   39.6640   25.6690   43.1360 C   0  0  0  0  0  0  0  0  0  0  0  0
   40.3610   26.3800   43.5160 H   0  0  0  0  0  0  0  0  0  0  0  0
   39.7170   24.2710   43.1320 C   0  0  0  0  0  0  0  0  0  0  0  0
   40.5600   23.7370   43.5600 H   0  0  0  0  0  0  0  0  0  0  0  0
   38.6080   23.7830   42.5430 N   0  0  0  0  0  0  0  0  0  0  0  0
   38.3980   22.7630   42.4110 H   0  0  0  0  0  0  0  0  0  0  0  0
   37.8600   24.8140   42.1770 N   0  0  0  0  0  0  0  0  0  0  0  0
   35.1690   29.0530   40.4720 C   0  0  0  0  0  0  0  0  0  0  0  0
   35.2090   30.1130   40.1040 H   0  0  0  0  0  0  0  0  0  0  0  0
   34.2950   28.9450   41.1570 H   0  0  0  0  0  0  0  0  0  0  0  0
   35.0870   28.3370   39.6480 H   0  0  0  0  0  0  0  0  0  0  0  0
  1  2  2  0  0  0  0
  1  6  1  0  0  0  0
  2  3  1  0  0  0  0
  3  9  1  0  0  0  0
  3  4  2  0  0  0  0
  5  4  1  0  0  0  0
  5  8  1  0  0  0  0
  6  5  2  0  0  0  0
  7  2  1  0  0  0  0
  9 10  1  0  0  0  0
 10 11  1  0  0  0  0
 12 10  2  0  0  0  0
 12 13  1  0  0  0  0
 14 12  1  0  0  0  0
 15 14  1  0  0  0  0
 16  9  2  0  0  0  0
 16 14  1  0  0  0  0
 17 19  1  0  0  0  0
 17  1  1  0  0  0  0
 18 17  1  0  0  0  0
 20 17  1  0  0  0  0
M  END
>  <minimizedAffinity>
-4.10621738

$$$$

 OpenBabel03242521403D

 20 21  0  0  0  0  0  0  0  0999 V2000
   35.9060   29.4450   38.1080 C   0  0  0  0  0  0  0  0  0  0  0  0
   36.7160   30.5590   38.4160 C   0  0  0  0  0  0  0  0  0  0  0  0
   36.6950   31.0110   39.7390 C   0  0  0  0  0  0  0  0  0  0  0  0
   35.9160   30.3730   40.6370 N   0  0  0  0  0  0  0  0  0  0  0  0
   35.1540   29.3080   40.3010 C   0  0  0  0  0  0  0  0  0  0  0  0
   35.1550   28.8500   39.0290 N   0  0  0  0  0  0  0  0  0  0  0  0
   37.3330   31.0520   37.6690 H   0  0  0  0  0  0  0  0  0  0  0  0
   34.5390   28.8110   41.0290 H   0  0  0  0  0  0  0  0  0  0  0  0
   37.5000   32.1550   40.1500 C   0  0  0  0  0  0  0  0  0  0  0  0
   37.4030   33.4250   39.6200 C   0  0  0  0  0  0  0  0  0  0  0  0
   36.7340   33.7330   38.8500 H   0  0  0  0  0  0  0  0  0  0  0  0
   38.3640   34.1600   40.3240 C   0  0  0  0  0  0  0  0  0  0  0  0
   38.5240   35.2160   40.1250 H   0  0  0  0  0  0  0  0  0  0  0  0
   38.9800   33.3560   41.2120 N   0  0  0  0  0  0  0  0  0  0  0  0
   39.7410   33.6590   41.8680 H   0  0  0  0  0  0  0  0  0  0  0  0
   38.4490   32.1470   41.0970 N   0  0  0  0  0  0  0  0  0  0  0  0
   35.9240   28.9590   36.6980 C   0  0  0  0  0  0  0  0  0  0  0  0
   34.9750   28.3830   36.5340 H   0  0  0  0  0  0  0  0  0  0  0  0
   36.7860   28.2530   36.6260 H   0  0  0  0  0  0  0  0  0  0  0  0
   36.0440   29.7670   35.9690 H   0  0  0  0  0  0  0  0  0  0  0  0
  1  2  2  0  0  0  0
  1  6  1  0  0  0  0
  2  3  1  0  0  0  0
  3  9  1  0  0  0  0
  3  4  2  0  0  0  0
  5  4  1  0  0  0  0
  5  8  1  0  0  0  0
  6  5  2  0  0  0  0
  7  2  1  0  0  0  0
  9 16  2  0  0  0  0
 10  9  1  0  0  0  0
 10 12  2  0  0  0  0
 11 10  1  0  0  0  0
 12 14  1  0  0  0  0
 13 12  1  0  0  0  0
 14 15  1  0  0  0  0
 16 14  1  0  0  0  0
 17  1  1  0  0  0  0
 18 17  1  0  0  0  0
 19 17  1  0  0  0  0
 20 17  1  0  0  0  0
M  END
>  <minimizedAffinity>
-3.95355296

$$$$

 OpenBabel03242521403D

 20 21  0  0  0  0  0  0  0  0999 V2000
   37.2300   32.2880   39.3900 C   0  0  0  0  0  0  0  0  0  0  0  0
   37.1500   31.5170   40.5690 C   0  0  0  0  0  0  0  0  0  0  0  0
   37.0690   30.1300   40.4160 C   0  0  0  0  0  0  0  0  0  0  0  0
   37.0720   29.6080   39.1710 N   0  0  0  0  0  0  0  0  0  0  0  0
   37.1500   30.3830   38.0660 C   0  0  0  0  0  0  0  0  0  0  0  0
   37.2290   31.7270   38.1860 N   0  0  0  0  0  0  0  0  0  0  0  0
   37.1500   31.9690   41.5590 H   0  0  0  0  0  0  0  0  0  0  0  0
   37.1510   29.9500   37.0820 H   0  0  0  0  0  0  0  0  0  0  0  0
   36.9840   29.2530   41.5780 C   0  0  0  0  0  0  0  0  0  0  0  0
   36.3770   28.0150   41.5940 C   0  0  0  0  0  0  0  0  0  0  0  0
   35.8970   27.5410   40.7690 H   0  0  0  0  0  0  0  0  0  0  0  0
   36.5500   27.5700   42.9090 C   0  0  0  0  0  0  0  0  0  0  0  0
   36.1710   26.6050   43.2340 H   0  0  0  0  0  0  0  0  0  0  0  0
   37.2210   28.5040   43.6130 N   0  0  0  0  0  0  0  0  0  0  0  0
   37.4820   28.4190   44.6250 H   0  0  0  0  0  0  0  0  0  0  0  0
   37.4770   29.5160   42.7960 N   0  0  0  0  0  0  0  0  0  0  0  0
   37.3160   33.7690   39.5490 C   0  0  0  0  0  0  0  0  0  0  0  0
   36.9660   34.2260   38.5850 H   0  0  0  0  0  0  0  0  0  0  0  0
   38.3990   34.0030   39.6820 H   0  0  0  0  0  0  0  0  0  0  0  0
   36.7460   34.1400   40.4080 H   0  0  0  0  0  0  0  0  0  0  0  0
  1 17  1  0  0  0  0
  1  2  1  0  0  0  0
  2  7  1  0  0  0  0
  3  2  2  0  0  0  0
  3  9  1  0  0  0  0
  4  3  1  0  0  0  0
  5  6  1  0  0  0  0
  5  4  2  0  0  0  0
  6  1  2  0  0  0  0
  8  5  1  0  0  0  0
  9 10  1  0  0  0  0
  9 16  2  0  0  0  0
 10 12  2  0  0  0  0
 11 10  1  0  0  0  0
 12 13  1  0  0  0  0
 12 14  1  0  0  0  0
 14 15  1  0  0  0  0
 16 14  1  0  0  0  0
 17 19  1  0  0  0  0
 17 20  1  0  0  0  0
 18 17  1  0  0  0  0
M  END
>  <minimizedAffinity>
-3.9259963

$$$$

 OpenBabel03242521403D

 20 21  0  0  0  0  0  0  0  0999 V2000
   38.0730   24.9130   41.7500 C   0  0  0  0  0  0  0  0  0  0  0  0
   37.3960   26.0890   41.3640 C   0  0  0  0  0  0  0  0  0  0  0  0
   37.7590   27.2720   42.0150 C   0  0  0  0  0  0  0  0  0  0  0  0
   38.7190   27.2300   42.9620 N   0  0  0  0  0  0  0  0  0  0  0  0
   39.3450   26.0810   43.3030 C   0  0  0  0  0  0  0  0  0  0  0  0
   39.0140   24.9230   42.6890 N   0  0  0  0  0  0  0  0  0  0  0  0
   36.6260   26.0900   40.5970 H   0  0  0  0  0  0  0  0  0  0  0  0
   40.1080   26.0650   44.0600 H   0  0  0  0  0  0  0  0  0  0  0  0
   37.1130   28.5360   41.6820 C   0  0  0  0  0  0  0  0  0  0  0  0
   37.7100   29.7770   41.7620 C   0  0  0  0  0  0  0  0  0  0  0  0
   38.7110   29.9720   42.0730 H   0  0  0  0  0  0  0  0  0  0  0  0
   36.7090   30.6620   41.3480 C   0  0  0  0  0  0  0  0  0  0  0  0
   36.8850   31.7330   41.3040 H   0  0  0  0  0  0  0  0  0  0  0  0
   35.5940   29.9670   41.0450 N   0  0  0  0  0  0  0  0  0  0  0  0
   34.6960   30.3910   40.7080 H   0  0  0  0  0  0  0  0  0  0  0  0
   35.8520   28.6840   41.2520 N   0  0  0  0  0  0  0  0  0  0  0  0
   37.6900   23.6480   41.0580 C   0  0  0  0  0  0  0  0  0  0  0  0
   37.9910   22.8000   41.7290 H   0  0  0  0  0  0  0  0  0  0  0  0
   38.3070   23.6050   40.1290 H   0  0  0  0  0  0  0  0  0  0  0  0
   36.6260   23.6080   40.8000 H   0  0  0  0  0  0  0  0  0  0  0  0
  1  6  1  0  0  0  0
  2  1  2  0  0  0  0
  2  3  1  0  0  0  0
  3  4  2  0  0  0  0
  4  5  1  0  0  0  0
  5  8  1  0  0  0  0
  6  5  2  0  0  0  0
  7  2  1  0  0  0  0
  9 10  1  0  0  0  0
  9  3  1  0  0  0  0
 10 11  1  0  0  0  0
 12 10  2  0  0  0  0
 13 12  1  0  0  0  0
 14 16  1  0  0  0  0
 14 12  1  0  0  0  0
 15 14  1  0  0  0  0
 16  9  2  0  0  0  0
 17 18  1  0  0  0  0
 17  1  1  0  0  0  0
 19 17  1  0  0  0  0
 20 17  1  0  0  0  0
M  END
>  <minimizedAffinity>
-3.87619472

$$$$
