
 OpenBabel03252509283D

 20 21  0  0  0  0  0  0  0  0999 V2000
   47.1820   34.9260   41.9880 C   0  0  0  0  0  0  0  0  0  0  0  0
   48.0920   34.3020   42.2250 H   0  0  0  0  0  0  0  0  0  0  0  0
   47.5840   35.9330   41.7590 H   0  0  0  0  0  0  0  0  0  0  0  0
   44.5960   35.9750   44.4580 C   0  0  0  0  0  0  0  0  0  0  0  0
   45.4080   35.9830   43.3040 C   0  0  0  0  0  0  0  0  0  0  0  0
   46.3320   34.9320   43.1820 C   0  0  0  0  0  0  0  0  0  0  0  0
   46.3900   33.9880   44.1650 N   0  0  0  0  0  0  0  0  0  0  0  0
   45.5900   34.0270   45.2520 C   0  0  0  0  0  0  0  0  0  0  0  0
   44.6910   35.0330   45.3880 N   0  0  0  0  0  0  0  0  0  0  0  0
   43.9030   36.8110   44.4950 H   0  0  0  0  0  0  0  0  0  0  0  0
   45.3250   36.7520   42.5520 H   0  0  0  0  0  0  0  0  0  0  0  0
   45.7250   33.2250   45.9660 H   0  0  0  0  0  0  0  0  0  0  0  0
   46.5680   34.2930   40.8030 C   0  0  0  0  0  0  0  0  0  0  0  0
   47.3920   33.8800   39.7620 C   0  0  0  0  0  0  0  0  0  0  0  0
   48.4820   33.9430   39.6510 H   0  0  0  0  0  0  0  0  0  0  0  0
   46.6460   33.3130   38.7440 C   0  0  0  0  0  0  0  0  0  0  0  0
   46.9320   32.8920   37.8040 H   0  0  0  0  0  0  0  0  0  0  0  0
   45.3680   33.4020   39.2130 N   0  0  0  0  0  0  0  0  0  0  0  0
   44.4710   33.0910   38.7620 H   0  0  0  0  0  0  0  0  0  0  0  0
   45.3200   33.9780   40.4240 N   0  0  0  0  0  0  0  0  0  0  0  0
  1  2  1  0  0  0  0
  1  6  1  0  0  0  0
  3  1  1  0  0  0  0
  4 10  1  0  0  0  0
  4  9  1  0  0  0  0
  5  4  2  0  0  0  0
  6  5  1  0  0  0  0
  6  7  2  0  0  0  0
  7  8  1  0  0  0  0
  8  9  2  0  0  0  0
  8 12  1  0  0  0  0
 11  5  1  0  0  0  0
 13  1  1  0  0  0  0
 14 13  1  0  0  0  0
 15 14  1  0  0  0  0
 16 18  1  0  0  0  0
 16 14  2  0  0  0  0
 17 16  1  0  0  0  0
 18 20  1  0  0  0  0
 19 18  1  0  0  0  0
 20 13  2  0  0  0  0
M  END
>  <minimizedAffinity>
-3.94753528

>  <minimizedRMSD>
0.46522519

$$$$
