
 OpenBabel03252509283D

 20 21  0  0  0  0  0  0  0  0999 V2000
   46.8260   35.0210   41.8770 C   0  0  0  0  0  0  0  0  0  0  0  0
   47.9120   34.8120   42.1040 H   0  0  0  0  0  0  0  0  0  0  0  0
   46.8240   36.0250   41.4100 H   0  0  0  0  0  0  0  0  0  0  0  0
   44.5300   36.0460   44.6270 C   0  0  0  0  0  0  0  0  0  0  0  0
   45.2210   36.0730   43.3970 C   0  0  0  0  0  0  0  0  0  0  0  0
   46.1010   35.0070   43.1510 C   0  0  0  0  0  0  0  0  0  0  0  0
   46.2340   34.0300   44.0950 N   0  0  0  0  0  0  0  0  0  0  0  0
   45.5490   34.0520   45.2570 C   0  0  0  0  0  0  0  0  0  0  0  0
   44.6940   35.0730   45.5140 N   0  0  0  0  0  0  0  0  0  0  0  0
   43.8650   36.8960   44.7590 H   0  0  0  0  0  0  0  0  0  0  0  0
   45.0820   36.8680   42.6810 H   0  0  0  0  0  0  0  0  0  0  0  0
   45.7350   33.2250   45.9300 H   0  0  0  0  0  0  0  0  0  0  0  0
   46.4140   33.9670   40.9270 C   0  0  0  0  0  0  0  0  0  0  0  0
   45.0970   33.9420   40.4820 C   0  0  0  0  0  0  0  0  0  0  0  0
   44.2540   34.6020   40.7220 H   0  0  0  0  0  0  0  0  0  0  0  0
   44.9000   32.8920   39.6030 C   0  0  0  0  0  0  0  0  0  0  0  0
   44.0330   32.5670   39.0700 H   0  0  0  0  0  0  0  0  0  0  0  0
   46.1290   32.3040   39.5440 N   0  0  0  0  0  0  0  0  0  0  0  0
   46.4390   31.4660   38.9920 H   0  0  0  0  0  0  0  0  0  0  0  0
   47.0220   32.9340   40.3220 N   0  0  0  0  0  0  0  0  0  0  0  0
  1  2  1  0  0  0  0
  1  6  1  0  0  0  0
  3  1  1  0  0  0  0
  4 10  1  0  0  0  0
  4  9  1  0  0  0  0
  5  4  2  0  0  0  0
  6  5  1  0  0  0  0
  6  7  2  0  0  0  0
  7  8  1  0  0  0  0
  8  9  2  0  0  0  0
  8 12  1  0  0  0  0
 11  5  1  0  0  0  0
 13  1  1  0  0  0  0
 14 15  1  0  0  0  0
 14 13  1  0  0  0  0
 16 14  2  0  0  0  0
 17 16  1  0  0  0  0
 18 16  1  0  0  0  0
 18 20  1  0  0  0  0
 19 18  1  0  0  0  0
 20 13  2  0  0  0  0
M  END
>  <minimizedAffinity>
-3.57215261

>  <minimizedRMSD>
0.365045071

$$$$
