
 OpenBabel03252504483D

 23 24  0  0  0  0  0  0  0  0999 V2000
   46.8650   33.4330   44.1910 C   0  0  0  0  0  0  0  0  0  0  0  0
   46.1590   34.5050   43.6440 C   0  0  0  0  0  0  0  0  0  0  0  0
   46.6780   35.0940   42.4890 C   0  0  0  0  0  0  0  0  0  0  0  0
   47.8330   34.5880   41.9740 N   0  0  0  0  0  0  0  0  0  0  0  0
   48.4930   33.5540   42.5220 C   0  0  0  0  0  0  0  0  0  0  0  0
   48.0080   32.9660   43.6450 N   0  0  0  0  0  0  0  0  0  0  0  0
   46.5170   32.9390   45.0790 H   0  0  0  0  0  0  0  0  0  0  0  0
   46.1490   35.9150   42.0580 H   0  0  0  0  0  0  0  0  0  0  0  0
   49.7300   33.0230   41.9590 C   0  0  0  0  0  0  0  0  0  0  0  0
   49.8260   32.0420   41.0150 C   0  0  0  0  0  0  0  0  0  0  0  0
   49.0230   31.5120   40.5440 H   0  0  0  0  0  0  0  0  0  0  0  0
   51.1730   31.8600   40.7800 C   0  0  0  0  0  0  0  0  0  0  0  0
   51.5540   31.1340   40.0680 H   0  0  0  0  0  0  0  0  0  0  0  0
   51.8240   32.7250   41.5770 N   0  0  0  0  0  0  0  0  0  0  0  0
   52.8780   32.7300   41.5350 H   0  0  0  0  0  0  0  0  0  0  0  0
   50.9750   33.4270   42.2870 N   0  0  0  0  0  0  0  0  0  0  0  0
   44.9430   34.9380   44.2960 C   0  0  0  0  0  0  0  0  0  0  0  0
   44.0880   34.3690   43.8440 H   0  0  0  0  0  0  0  0  0  0  0  0
   45.0030   34.8200   45.3800 H   0  0  0  0  0  0  0  0  0  0  0  0
   44.7720   36.4260   44.0420 C   0  0  0  0  0  0  0  0  0  0  0  0
   43.9370   36.8580   44.6170 H   0  0  0  0  0  0  0  0  0  0  0  0
   45.7360   36.9030   44.2440 H   0  0  0  0  0  0  0  0  0  0  0  0
   44.5060   36.5260   42.9740 H   0  0  0  0  0  0  0  0  0  0  0  0
  1  7  1  0  0  0  0
  2  1  2  0  0  0  0
  2 17  1  0  0  0  0
  3  2  1  0  0  0  0
  4  3  2  0  0  0  0
  4  5  1  0  0  0  0
  5  6  2  0  0  0  0
  6  1  1  0  0  0  0
  8  3  1  0  0  0  0
  9 16  2  0  0  0  0
  9  5  1  0  0  0  0
 10  9  1  0  0  0  0
 11 10  1  0  0  0  0
 12 10  2  0  0  0  0
 12 14  1  0  0  0  0
 13 12  1  0  0  0  0
 14 16  1  0  0  0  0
 15 14  1  0  0  0  0
 17 19  1  0  0  0  0
 18 17  1  0  0  0  0
 20 22  1  0  0  0  0
 20 17  1  0  0  0  0
 20 21  1  0  0  0  0
 23 20  1  0  0  0  0
M  END
>  <minimizedAffinity>
-4.02121496

>  <minimizedRMSD>
6.34482145

$$$$
