
 OpenBabel03252508133D

 36 39  0  0  1  0  0  0  0  0999 V2000
   46.2520   30.8700   46.7090 C   0  0  0  0  0  0  0  0  0  0  0  0
   47.2250   30.3780   46.6130 H   0  0  0  0  0  0  0  0  0  0  0  0
   45.4050   30.1550   46.5400 H   0  0  0  0  0  0  0  0  0  0  0  0
   45.9820   31.4910   48.0570 C   0  0  1  0  0  0  0  0  0  0  0  0
   45.7240   30.5560   49.1820 C   0  0  0  0  0  0  0  0  0  0  0  0
   46.9640   31.3040   49.1500 C   0  0  1  0  0  0  0  0  0  0  0  0
   45.4300   32.4590   48.0530 H   0  0  0  0  0  0  0  0  0  0  0  0
   45.6920   29.4610   48.9570 H   0  0  0  0  0  0  0  0  0  0  0  0
   44.9240   30.8120   49.9290 H   0  0  0  0  0  0  0  0  0  0  0  0
   47.0230   32.1440   49.9090 H   0  0  0  0  0  0  0  0  0  0  0  0
   48.2980   30.7580   48.8060 C   0  0  0  0  0  0  0  0  0  0  0  0
   49.1930   30.4250   50.0340 C   0  0  0  0  0  0  0  0  0  0  0  0
   49.5040   31.6320   49.2440 C   0  0  0  0  0  0  0  0  0  0  0  0
   48.4470   30.1650   47.9020 H   0  0  0  0  0  0  0  0  0  0  0  0
   48.7400   30.5420   51.0340 H   0  0  0  0  0  0  0  0  0  0  0  0
   49.8700   29.5440   49.8560 H   0  0  0  0  0  0  0  0  0  0  0  0
   49.2520   32.6050   49.7150 H   0  0  0  0  0  0  0  0  0  0  0  0
   50.3780   31.6260   48.5630 H   0  0  0  0  0  0  0  0  0  0  0  0
   45.8730   33.1070   46.0240 C   0  0  0  0  0  0  0  0  0  0  0  0
   46.0770   31.9160   45.6160 C   0  0  0  0  0  0  0  0  0  0  0  0
   44.5770   36.0450   44.2180 C   0  0  0  0  0  0  0  0  0  0  0  0
   45.3680   36.0960   43.0780 C   0  0  0  0  0  0  0  0  0  0  0  0
   46.3290   35.1360   42.9580 C   0  0  0  0  0  0  0  0  0  0  0  0
   46.4610   34.2020   43.9320 N   0  0  0  0  0  0  0  0  0  0  0  0
   45.6890   34.1610   45.0320 C   0  0  0  0  0  0  0  0  0  0  0  0
   44.7490   35.1080   45.1410 N   0  0  0  0  0  0  0  0  0  0  0  0
   43.8150   36.8020   44.3200 H   0  0  0  0  0  0  0  0  0  0  0  0
   45.2740   36.8240   42.3050 H   0  0  0  0  0  0  0  0  0  0  0  0
   47.2470   35.0390   41.8290 C   0  0  0  0  0  0  0  0  0  0  0  0
   46.9700   34.2510   40.7060 C   0  0  0  0  0  0  0  0  0  0  0  0
   46.1010   33.6320   40.5020 H   0  0  0  0  0  0  0  0  0  0  0  0
   48.0380   34.3750   39.8130 C   0  0  0  0  0  0  0  0  0  0  0  0
   48.1390   33.8920   38.8440 H   0  0  0  0  0  0  0  0  0  0  0  0
   48.9160   35.2250   40.4180 N   0  0  0  0  0  0  0  0  0  0  0  0
   49.8170   35.4940   39.9620 H   0  0  0  0  0  0  0  0  0  0  0  0
   48.4350   35.6000   41.5920 N   0  0  0  0  0  0  0  0  0  0  0  0
  1  4  1  0  0  0  0
  2  1  1  0  0  0  0
  3  1  1  0  0  0  0
  4  7  1  1  0  0  0
  4  6  1  0  0  0  0
  4  5  1  0  0  0  0
  5  9  1  0  0  0  0
  6  5  1  0  0  0  0
  6 10  1  1  0  0  0
  8  5  1  0  0  0  0
 11  6  1  0  0  0  0
 11 13  1  0  0  0  0
 11 12  1  0  0  0  0
 12 15  1  0  0  0  0
 13 17  1  0  0  0  0
 13 12  1  0  0  0  0
 14 11  1  0  0  0  0
 16 12  1  0  0  0  0
 18 13  1  0  0  0  0
 20 19  2  0  0  0  0
 20  1  1  0  0  0  0
 21 27  1  0  0  0  0
 21 26  1  0  0  0  0
 22 21  2  0  0  0  0
 23 22  1  0  0  0  0
 23 24  2  0  0  0  0
 24 25  1  0  0  0  0
 25 26  2  0  0  0  0
 25 19  1  0  0  0  0
 28 22  1  0  0  0  0
 29 23  1  0  0  0  0
 30 29  1  0  0  0  0
 31 30  1  0  0  0  0
 32 34  1  0  0  0  0
 32 30  2  0  0  0  0
 33 32  1  0  0  0  0
 34 36  1  0  0  0  0
 35 34  1  0  0  0  0
 36 29  2  0  0  0  0
M  END
>  <minimizedAffinity>
-6.01559877

>  <minimizedRMSD>
0.801229596

$$$$
