
 OpenBabel03252509213D

 24 26  0  0  0  0  0  0  0  0999 V2000
   36.5700   27.0760   39.7480 C   0  0  0  0  0  0  0  0  0  0  0  0
   37.0290   27.8020   40.8610 C   0  0  0  0  0  0  0  0  0  0  0  0
   37.5550   27.0270   41.8750 C   0  0  0  0  0  0  0  0  0  0  0  0
   37.5910   25.6490   41.7400 N   0  0  0  0  0  0  0  0  0  0  0  0
   37.1380   25.0130   40.6590 C   0  0  0  0  0  0  0  0  0  0  0  0
   36.6280   25.7500   39.6650 N   0  0  0  0  0  0  0  0  0  0  0  0
   36.1290   27.5250   38.8560 H   0  0  0  0  0  0  0  0  0  0  0  0
   37.2750   23.9530   40.7910 H   0  0  0  0  0  0  0  0  0  0  0  0
   38.2050   27.7020   43.0630 C   0  0  0  0  0  0  0  0  0  0  0  0
   39.2590   26.7750   43.6800 C   0  0  0  0  0  0  0  0  0  0  0  0
   39.5940   28.1020   42.9330 C   0  0  0  0  0  0  0  0  0  0  0  0
   37.5080   27.9720   43.8620 H   0  0  0  0  0  0  0  0  0  0  0  0
   39.5700   25.8710   43.1250 H   0  0  0  0  0  0  0  0  0  0  0  0
   39.4450   26.7840   44.7540 H   0  0  0  0  0  0  0  0  0  0  0  0
   39.9390   28.9280   43.6090 H   0  0  0  0  0  0  0  0  0  0  0  0
   40.1430   28.0270   41.9880 H   0  0  0  0  0  0  0  0  0  0  0  0
   36.8930   29.2410   40.8120 C   0  0  0  0  0  0  0  0  0  0  0  0
   37.7030   30.3120   40.5800 C   0  0  0  0  0  0  0  0  0  0  0  0
   38.7300   30.2900   40.3430 H   0  0  0  0  0  0  0  0  0  0  0  0
   37.0300   31.5000   40.7260 C   0  0  0  0  0  0  0  0  0  0  0  0
   37.4130   32.4980   40.6050 H   0  0  0  0  0  0  0  0  0  0  0  0
   35.7950   31.1350   41.0520 N   0  0  0  0  0  0  0  0  0  0  0  0
   34.9550   31.7470   41.2550 H   0  0  0  0  0  0  0  0  0  0  0  0
   35.7190   29.8300   41.1010 N   0  0  0  0  0  0  0  0  0  0  0  0
  1  2  1  0  0  0  0
  2  3  2  0  0  0  0
  3  9  1  0  0  0  0
  4  3  1  0  0  0  0
  5  8  1  0  0  0  0
  5  4  2  0  0  0  0
  6  1  2  0  0  0  0
  6  5  1  0  0  0  0
  7  1  1  0  0  0  0
  9 10  1  0  0  0  0
  9 12  1  0  0  0  0
 10 14  1  0  0  0  0
 11  9  1  0  0  0  0
 11 15  1  0  0  0  0
 11 10  1  0  0  0  0
 13 10  1  0  0  0  0
 16 11  1  0  0  0  0
 17  2  1  0  0  0  0
 17 24  2  0  0  0  0
 18 20  2  0  0  0  0
 18 17  1  0  0  0  0
 19 18  1  0  0  0  0
 20 22  1  0  0  0  0
 21 20  1  0  0  0  0
 22 24  1  0  0  0  0
 22 23  1  0  0  0  0
M  END
>  <minimizedAffinity>
-4.32807016

$$$$

 OpenBabel03252509213D

 24 26  0  0  0  0  0  0  0  0999 V2000
   37.1600   28.7280   38.9840 C   0  0  0  0  0  0  0  0  0  0  0  0
   37.2760   29.2530   40.2830 C   0  0  0  0  0  0  0  0  0  0  0  0
   37.0620   28.3370   41.2940 C   0  0  0  0  0  0  0  0  0  0  0  0
   36.7580   27.0230   40.9790 N   0  0  0  0  0  0  0  0  0  0  0  0
   36.6600   26.5810   39.7250 C   0  0  0  0  0  0  0  0  0  0  0  0
   36.8670   27.4550   38.7330 N   0  0  0  0  0  0  0  0  0  0  0  0
   37.3000   29.3060   38.0690 H   0  0  0  0  0  0  0  0  0  0  0  0
   36.4170   25.5320   39.7390 H   0  0  0  0  0  0  0  0  0  0  0  0
   37.2930   28.7520   42.7310 C   0  0  0  0  0  0  0  0  0  0  0  0
   36.8330   27.6360   43.6770 C   0  0  0  0  0  0  0  0  0  0  0  0
   38.3230   28.0520   43.4760 C   0  0  0  0  0  0  0  0  0  0  0  0
   36.7620   29.6620   43.0260 H   0  0  0  0  0  0  0  0  0  0  0  0
   36.5970   26.6400   43.2590 H   0  0  0  0  0  0  0  0  0  0  0  0
   36.4100   27.8770   44.6520 H   0  0  0  0  0  0  0  0  0  0  0  0
   38.7620   28.5990   44.3510 H   0  0  0  0  0  0  0  0  0  0  0  0
   38.9940   27.3220   43.0100 H   0  0  0  0  0  0  0  0  0  0  0  0
   37.5910   30.6590   40.4010 C   0  0  0  0  0  0  0  0  0  0  0  0
   38.6860   31.4140   40.6960 C   0  0  0  0  0  0  0  0  0  0  0  0
   39.6570   31.0640   40.9100 H   0  0  0  0  0  0  0  0  0  0  0  0
   38.3880   32.7540   40.7250 C   0  0  0  0  0  0  0  0  0  0  0  0
   39.0510   33.5770   40.9290 H   0  0  0  0  0  0  0  0  0  0  0  0
   37.0910   32.8030   40.4450 N   0  0  0  0  0  0  0  0  0  0  0  0
   36.4610   33.6520   40.3670 H   0  0  0  0  0  0  0  0  0  0  0  0
   36.6340   31.5930   40.2580 N   0  0  0  0  0  0  0  0  0  0  0  0
  1  2  1  0  0  0  0
  2 17  1  0  0  0  0
  2  3  2  0  0  0  0
  3  9  1  0  0  0  0
  4  3  1  0  0  0  0
  5  8  1  0  0  0  0
  5  4  2  0  0  0  0
  6  1  2  0  0  0  0
  6  5  1  0  0  0  0
  7  1  1  0  0  0  0
  9 12  1  0  0  0  0
  9 11  1  0  0  0  0
  9 10  1  0  0  0  0
 10 14  1  0  0  0  0
 11 10  1  0  0  0  0
 11 15  1  0  0  0  0
 13 10  1  0  0  0  0
 16 11  1  0  0  0  0
 17 18  1  0  0  0  0
 18 20  2  0  0  0  0
 18 19  1  0  0  0  0
 20 21  1  0  0  0  0
 22 20  1  0  0  0  0
 23 22  1  0  0  0  0
 24 17  2  0  0  0  0
 24 22  1  0  0  0  0
M  END
>  <minimizedAffinity>
-4.30293989

$$$$

 OpenBabel03252509213D

 24 26  0  0  0  0  0  0  0  0999 V2000
   37.6600   29.0750   42.9380 C   0  0  0  0  0  0  0  0  0  0  0  0
   37.4840   29.2770   41.5580 C   0  0  0  0  0  0  0  0  0  0  0  0
   37.2150   28.1300   40.8390 C   0  0  0  0  0  0  0  0  0  0  0  0
   37.1420   26.9100   41.4920 N   0  0  0  0  0  0  0  0  0  0  0  0
   37.3180   26.7780   42.8070 C   0  0  0  0  0  0  0  0  0  0  0  0
   37.5780   27.8810   43.5190 N   0  0  0  0  0  0  0  0  0  0  0  0
   37.8750   29.8680   43.6570 H   0  0  0  0  0  0  0  0  0  0  0  0
   37.2130   25.7400   43.0740 H   0  0  0  0  0  0  0  0  0  0  0  0
   36.8730   28.2390   39.3690 C   0  0  0  0  0  0  0  0  0  0  0  0
   36.1860   26.9530   38.8950 C   0  0  0  0  0  0  0  0  0  0  0  0
   35.4710   28.3340   39.0100 C   0  0  0  0  0  0  0  0  0  0  0  0
   37.7380   28.4000   38.7180 H   0  0  0  0  0  0  0  0  0  0  0  0
   35.8420   26.2190   39.6470 H   0  0  0  0  0  0  0  0  0  0  0  0
   36.3350   26.5880   37.8780 H   0  0  0  0  0  0  0  0  0  0  0  0
   35.2420   28.8090   38.0200 H   0  0  0  0  0  0  0  0  0  0  0  0
   34.6760   28.4320   39.7580 H   0  0  0  0  0  0  0  0  0  0  0  0
   37.6110   30.6320   41.0680 C   0  0  0  0  0  0  0  0  0  0  0  0
   38.6230   31.4970   40.7790 C   0  0  0  0  0  0  0  0  0  0  0  0
   39.6580   31.3090   40.8540 H   0  0  0  0  0  0  0  0  0  0  0  0
   38.1480   32.7250   40.3900 C   0  0  0  0  0  0  0  0  0  0  0  0
   38.7130   33.5940   40.1030 H   0  0  0  0  0  0  0  0  0  0  0  0
   36.8280   32.5940   40.4480 N   0  0  0  0  0  0  0  0  0  0  0  0
   36.0800   33.3110   40.2260 H   0  0  0  0  0  0  0  0  0  0  0  0
   36.5210   31.3850   40.8390 N   0  0  0  0  0  0  0  0  0  0  0  0
  1  6  1  0  0  0  0
  1  7  1  0  0  0  0
  2  1  2  0  0  0  0
  3  4  2  0  0  0  0
  3  2  1  0  0  0  0
  4  5  1  0  0  0  0
  5  8  1  0  0  0  0
  5  6  2  0  0  0  0
  9  3  1  0  0  0  0
 10 11  1  0  0  0  0
 10  9  1  0  0  0  0
 10 13  1  0  0  0  0
 11  9  1  0  0  0  0
 11 16  1  0  0  0  0
 12  9  1  0  0  0  0
 14 10  1  0  0  0  0
 15 11  1  0  0  0  0
 17  2  1  0  0  0  0
 18 19  1  0  0  0  0
 18 17  1  0  0  0  0
 20 22  1  0  0  0  0
 20 18  2  0  0  0  0
 21 20  1  0  0  0  0
 22 24  1  0  0  0  0
 23 22  1  0  0  0  0
 24 17  2  0  0  0  0
M  END
>  <minimizedAffinity>
-4.28942633

$$$$

 OpenBabel03252509213D

 24 26  0  0  0  0  0  0  0  0999 V2000
   39.4840   28.7390   42.5580 C   0  0  0  0  0  0  0  0  0  0  0  0
   38.3040   28.0970   42.1450 C   0  0  0  0  0  0  0  0  0  0  0  0
   38.2530   26.7480   42.4320 C   0  0  0  0  0  0  0  0  0  0  0  0
   39.3200   26.1410   43.0740 N   0  0  0  0  0  0  0  0  0  0  0  0
   40.4170   26.8020   43.4420 C   0  0  0  0  0  0  0  0  0  0  0  0
   40.4820   28.1110   43.1740 N   0  0  0  0  0  0  0  0  0  0  0  0
   39.6930   29.8010   42.4160 H   0  0  0  0  0  0  0  0  0  0  0  0
   41.0970   26.1160   43.9210 H   0  0  0  0  0  0  0  0  0  0  0  0
   36.9790   25.9790   42.1590 C   0  0  0  0  0  0  0  0  0  0  0  0
   37.0680   25.2850   40.7950 C   0  0  0  0  0  0  0  0  0  0  0  0
   37.0530   24.5300   42.1600 C   0  0  0  0  0  0  0  0  0  0  0  0
   36.0760   26.5980   42.1460 H   0  0  0  0  0  0  0  0  0  0  0  0
   38.0450   25.2360   40.2800 H   0  0  0  0  0  0  0  0  0  0  0  0
   36.1770   25.1540   40.1800 H   0  0  0  0  0  0  0  0  0  0  0  0
   36.0950   23.9830   42.3640 H   0  0  0  0  0  0  0  0  0  0  0  0
   37.9600   23.9860   42.4480 H   0  0  0  0  0  0  0  0  0  0  0  0
   37.3090   28.9090   41.4780 C   0  0  0  0  0  0  0  0  0  0  0  0
   36.7500   28.9820   40.2390 C   0  0  0  0  0  0  0  0  0  0  0  0
   36.9550   28.3580   39.4130 H   0  0  0  0  0  0  0  0  0  0  0  0
   35.8650   30.0260   40.1400 C   0  0  0  0  0  0  0  0  0  0  0  0
   35.2800   30.3220   39.2860 H   0  0  0  0  0  0  0  0  0  0  0  0
   35.8940   30.5900   41.3420 N   0  0  0  0  0  0  0  0  0  0  0  0
   35.3550   31.4320   41.6930 H   0  0  0  0  0  0  0  0  0  0  0  0
   36.7290   29.9430   42.1120 N   0  0  0  0  0  0  0  0  0  0  0  0
  1  6  1  0  0  0  0
  2  3  1  0  0  0  0
  2  1  2  0  0  0  0
  3  4  2  0  0  0  0
  4  5  1  0  0  0  0
  5  8  1  0  0  0  0
  6  5  2  0  0  0  0
  7  1  1  0  0  0  0
  9 11  1  0  0  0  0
  9  3  1  0  0  0  0
 10  9  1  0  0  0  0
 10 11  1  0  0  0  0
 11 15  1  0  0  0  0
 11 16  1  0  0  0  0
 12  9  1  0  0  0  0
 13 10  1  0  0  0  0
 14 10  1  0  0  0  0
 17 24  2  0  0  0  0
 17  2  1  0  0  0  0
 18 17  1  0  0  0  0
 19 18  1  0  0  0  0
 20 18  2  0  0  0  0
 20 22  1  0  0  0  0
 21 20  1  0  0  0  0
 22 23  1  0  0  0  0
 22 24  1  0  0  0  0
M  END
>  <minimizedAffinity>
-4.25482702

$$$$

 OpenBabel03252509213D

 24 26  0  0  0  0  0  0  0  0999 V2000
   36.6770   28.8310   41.6850 C   0  0  0  0  0  0  0  0  0  0  0  0
   37.8460   29.6070   41.7610 C   0  0  0  0  0  0  0  0  0  0  0  0
   38.8870   29.0150   42.4470 C   0  0  0  0  0  0  0  0  0  0  0  0
   38.7190   27.7540   42.9960 N   0  0  0  0  0  0  0  0  0  0  0  0
   37.5840   27.0620   42.8930 C   0  0  0  0  0  0  0  0  0  0  0  0
   36.5660   27.6210   42.2280 N   0  0  0  0  0  0  0  0  0  0  0  0
   35.7600   29.1400   41.1790 H   0  0  0  0  0  0  0  0  0  0  0  0
   37.7000   26.1170   43.3970 H   0  0  0  0  0  0  0  0  0  0  0  0
   40.2380   29.6950   42.4770 C   0  0  0  0  0  0  0  0  0  0  0  0
   41.3110   28.7050   42.9470 C   0  0  0  0  0  0  0  0  0  0  0  0
   41.2240   29.2760   41.4980 C   0  0  0  0  0  0  0  0  0  0  0  0
   40.2880   30.5630   43.1420 H   0  0  0  0  0  0  0  0  0  0  0  0
   41.0610   27.6300   43.0080 H   0  0  0  0  0  0  0  0  0  0  0  0
   42.1630   29.0490   43.5330 H   0  0  0  0  0  0  0  0  0  0  0  0
   42.0290   30.0190   41.2550 H   0  0  0  0  0  0  0  0  0  0  0  0
   40.9910   28.5740   40.6900 H   0  0  0  0  0  0  0  0  0  0  0  0
   37.8160   30.9080   41.1290 C   0  0  0  0  0  0  0  0  0  0  0  0
   38.7180   31.8630   40.7690 C   0  0  0  0  0  0  0  0  0  0  0  0
   39.7650   31.8210   40.8860 H   0  0  0  0  0  0  0  0  0  0  0  0
   38.1040   32.9700   40.2380 C   0  0  0  0  0  0  0  0  0  0  0  0
   38.5640   33.8710   39.8710 H   0  0  0  0  0  0  0  0  0  0  0  0
   36.8100   32.6750   40.2820 N   0  0  0  0  0  0  0  0  0  0  0  0
   35.9850   33.2610   39.9680 H   0  0  0  0  0  0  0  0  0  0  0  0
   36.6470   31.4840   40.7970 N   0  0  0  0  0  0  0  0  0  0  0  0
  1  2  2  0  0  0  0
  1  6  1  0  0  0  0
  2  3  1  0  0  0  0
  3  9  1  0  0  0  0
  3  4  2  0  0  0  0
  5  4  1  0  0  0  0
  5  8  1  0  0  0  0
  6  5  2  0  0  0  0
  7  1  1  0  0  0  0
  9 10  1  0  0  0  0
  9 12  1  0  0  0  0
 10 13  1  0  0  0  0
 10 14  1  0  0  0  0
 11  9  1  0  0  0  0
 11 10  1  0  0  0  0
 15 11  1  0  0  0  0
 16 11  1  0  0  0  0
 17  2  1  0  0  0  0
 18 19  1  0  0  0  0
 18 17  1  0  0  0  0
 20 22  1  0  0  0  0
 20 18  2  0  0  0  0
 21 20  1  0  0  0  0
 22 24  1  0  0  0  0
 23 22  1  0  0  0  0
 24 17  2  0  0  0  0
M  END
>  <minimizedAffinity>
-4.12216663

$$$$

 OpenBabel03252509213D

 24 26  0  0  0  0  0  0  0  0999 V2000
   37.3030   28.8870   38.6900 C   0  0  0  0  0  0  0  0  0  0  0  0
   37.3050   29.8800   39.6860 C   0  0  0  0  0  0  0  0  0  0  0  0
   37.3290   31.1740   39.2080 C   0  0  0  0  0  0  0  0  0  0  0  0
   37.3520   31.4030   37.8420 N   0  0  0  0  0  0  0  0  0  0  0  0
   37.3480   30.4200   36.9410 C   0  0  0  0  0  0  0  0  0  0  0  0
   37.3230   29.1590   37.3870 N   0  0  0  0  0  0  0  0  0  0  0  0
   37.2820   27.8140   38.8850 H   0  0  0  0  0  0  0  0  0  0  0  0
   37.3680   30.8480   35.9520 H   0  0  0  0  0  0  0  0  0  0  0  0
   37.1970   32.3260   40.1800 C   0  0  0  0  0  0  0  0  0  0  0  0
   38.5730   32.9490   40.4430 C   0  0  0  0  0  0  0  0  0  0  0  0
   37.4230   33.6650   39.6710 C   0  0  0  0  0  0  0  0  0  0  0  0
   36.7800   32.0460   41.1530 H   0  0  0  0  0  0  0  0  0  0  0  0
   39.4230   32.6670   39.7950 H   0  0  0  0  0  0  0  0  0  0  0  0
   38.8130   33.3710   41.4190 H   0  0  0  0  0  0  0  0  0  0  0  0
   36.9450   34.5030   40.2450 H   0  0  0  0  0  0  0  0  0  0  0  0
   37.5790   33.8740   38.6070 H   0  0  0  0  0  0  0  0  0  0  0  0
   37.2900   29.4330   41.0610 C   0  0  0  0  0  0  0  0  0  0  0  0
   38.1090   29.5180   42.1460 C   0  0  0  0  0  0  0  0  0  0  0  0
   39.0390   30.0120   42.2000 H   0  0  0  0  0  0  0  0  0  0  0  0
   37.6030   28.8320   43.2220 C   0  0  0  0  0  0  0  0  0  0  0  0
   38.0310   28.7270   44.2030 H   0  0  0  0  0  0  0  0  0  0  0  0
   36.4600   28.3250   42.7740 N   0  0  0  0  0  0  0  0  0  0  0  0
   35.7540   27.7250   43.2870 H   0  0  0  0  0  0  0  0  0  0  0  0
   36.2820   28.6740   41.5260 N   0  0  0  0  0  0  0  0  0  0  0  0
  1  7  1  0  0  0  0
  1  2  1  0  0  0  0
  2 17  1  0  0  0  0
  3  2  2  0  0  0  0
  3  9  1  0  0  0  0
  4  3  1  0  0  0  0
  5  6  1  0  0  0  0
  5  4  2  0  0  0  0
  6  1  2  0  0  0  0
  8  5  1  0  0  0  0
  9 10  1  0  0  0  0
  9 12  1  0  0  0  0
 10 14  1  0  0  0  0
 11  9  1  0  0  0  0
 11 15  1  0  0  0  0
 11 10  1  0  0  0  0
 13 10  1  0  0  0  0
 16 11  1  0  0  0  0
 17 24  2  0  0  0  0
 17 18  1  0  0  0  0
 18 19  1  0  0  0  0
 18 20  2  0  0  0  0
 20 21  1  0  0  0  0
 22 20  1  0  0  0  0
 22 23  1  0  0  0  0
 24 22  1  0  0  0  0
M  END
>  <minimizedAffinity>
-4.11009645

$$$$

 OpenBabel03252509213D

 24 26  0  0  0  0  0  0  0  0999 V2000
   36.9740   30.4870   39.4960 C   0  0  0  0  0  0  0  0  0  0  0  0
   37.7280   30.4400   40.6820 C   0  0  0  0  0  0  0  0  0  0  0  0
   37.2340   29.5830   41.6440 C   0  0  0  0  0  0  0  0  0  0  0  0
   36.0790   28.8600   41.3940 N   0  0  0  0  0  0  0  0  0  0  0  0
   35.4030   28.9450   40.2470 C   0  0  0  0  0  0  0  0  0  0  0  0
   35.8700   29.7700   39.3030 N   0  0  0  0  0  0  0  0  0  0  0  0
   37.2190   31.1060   38.6310 H   0  0  0  0  0  0  0  0  0  0  0  0
   34.5480   28.2910   40.2930 H   0  0  0  0  0  0  0  0  0  0  0  0
   38.0330   29.3450   42.9060 C   0  0  0  0  0  0  0  0  0  0  0  0
   37.4500   28.1550   43.6780 C   0  0  0  0  0  0  0  0  0  0  0  0
   38.8410   28.1420   42.9740 C   0  0  0  0  0  0  0  0  0  0  0  0
   38.0490   30.1970   43.5940 H   0  0  0  0  0  0  0  0  0  0  0  0
   36.7040   27.5070   43.1830 H   0  0  0  0  0  0  0  0  0  0  0  0
   37.4780   28.1350   44.7680 H   0  0  0  0  0  0  0  0  0  0  0  0
   39.7090   28.1660   43.6860 H   0  0  0  0  0  0  0  0  0  0  0  0
   38.9710   27.4690   42.1200 H   0  0  0  0  0  0  0  0  0  0  0  0
   38.9010   31.2830   40.7510 C   0  0  0  0  0  0  0  0  0  0  0  0
   40.2490   31.1270   40.6340 C   0  0  0  0  0  0  0  0  0  0  0  0
   40.7670   30.2330   40.4240 H   0  0  0  0  0  0  0  0  0  0  0  0
   40.9200   32.3030   40.8610 C   0  0  0  0  0  0  0  0  0  0  0  0
   41.9810   32.4770   40.8360 H   0  0  0  0  0  0  0  0  0  0  0  0
   39.9570   33.1800   41.1210 N   0  0  0  0  0  0  0  0  0  0  0  0
   40.0430   34.2110   41.3510 H   0  0  0  0  0  0  0  0  0  0  0  0
   38.7920   32.5890   41.0560 N   0  0  0  0  0  0  0  0  0  0  0  0
  1  2  1  0  0  0  0
  2 17  1  0  0  0  0
  2  3  2  0  0  0  0
  3  9  1  0  0  0  0
  4  3  1  0  0  0  0
  5  8  1  0  0  0  0
  5  4  2  0  0  0  0
  6  1  2  0  0  0  0
  6  5  1  0  0  0  0
  7  1  1  0  0  0  0
  9 11  1  0  0  0  0
  9 12  1  0  0  0  0
  9 10  1  0  0  0  0
 10 14  1  0  0  0  0
 11 10  1  0  0  0  0
 11 15  1  0  0  0  0
 13 10  1  0  0  0  0
 16 11  1  0  0  0  0
 17 24  2  0  0  0  0
 18 17  1  0  0  0  0
 18 20  2  0  0  0  0
 19 18  1  0  0  0  0
 20 22  1  0  0  0  0
 21 20  1  0  0  0  0
 22 23  1  0  0  0  0
 24 22  1  0  0  0  0
M  END
>  <minimizedAffinity>
-4.07433796

$$$$

 OpenBabel03252509213D

 24 26  0  0  0  0  0  0  0  0999 V2000
   39.3040   30.1000   42.3450 C   0  0  0  0  0  0  0  0  0  0  0  0
   38.3660   30.6080   41.4290 C   0  0  0  0  0  0  0  0  0  0  0  0
   37.2000   29.8760   41.3350 C   0  0  0  0  0  0  0  0  0  0  0  0
   37.0370   28.7390   42.1100 N   0  0  0  0  0  0  0  0  0  0  0  0
   37.9630   28.3030   42.9640 C   0  0  0  0  0  0  0  0  0  0  0  0
   39.0990   29.0030   43.0690 N   0  0  0  0  0  0  0  0  0  0  0  0
   40.2760   30.5520   42.5500 H   0  0  0  0  0  0  0  0  0  0  0  0
   37.6050   27.4080   43.4450 H   0  0  0  0  0  0  0  0  0  0  0  0
   36.0630   30.3990   40.4850 C   0  0  0  0  0  0  0  0  0  0  0  0
   36.1430   29.7980   39.0770 C   0  0  0  0  0  0  0  0  0  0  0  0
   35.0200   29.4640   40.1060 C   0  0  0  0  0  0  0  0  0  0  0  0
   36.0530   31.4870   40.3700 H   0  0  0  0  0  0  0  0  0  0  0  0
   36.8310   28.9530   38.8920 H   0  0  0  0  0  0  0  0  0  0  0  0
   35.8230   30.3750   38.2090 H   0  0  0  0  0  0  0  0  0  0  0  0
   34.0230   29.9080   39.8480 H   0  0  0  0  0  0  0  0  0  0  0  0
   34.9760   28.4400   40.4940 H   0  0  0  0  0  0  0  0  0  0  0  0
   38.7320   31.8060   40.7070 C   0  0  0  0  0  0  0  0  0  0  0  0
   38.6900   33.1510   40.9200 C   0  0  0  0  0  0  0  0  0  0  0  0
   38.3460   33.6440   41.7870 H   0  0  0  0  0  0  0  0  0  0  0  0
   39.1290   33.8550   39.8260 C   0  0  0  0  0  0  0  0  0  0  0  0
   39.2060   34.9220   39.7110 H   0  0  0  0  0  0  0  0  0  0  0  0
   39.4390   32.9150   38.9400 N   0  0  0  0  0  0  0  0  0  0  0  0
   39.8180   33.0290   37.9580 H   0  0  0  0  0  0  0  0  0  0  0  0
   39.2090   31.7330   39.4510 N   0  0  0  0  0  0  0  0  0  0  0  0
  1  7  1  0  0  0  0
  1  6  1  0  0  0  0
  2  1  2  0  0  0  0
  3  2  1  0  0  0  0
  3  4  2  0  0  0  0
  4  5  1  0  0  0  0
  5  6  2  0  0  0  0
  5  8  1  0  0  0  0
  9  3  1  0  0  0  0
 10 11  1  0  0  0  0
 10  9  1  0  0  0  0
 11  9  1  0  0  0  0
 11 16  1  0  0  0  0
 12  9  1  0  0  0  0
 13 10  1  0  0  0  0
 14 10  1  0  0  0  0
 15 11  1  0  0  0  0
 17 18  1  0  0  0  0
 17  2  1  0  0  0  0
 18 19  1  0  0  0  0
 20 18  2  0  0  0  0
 21 20  1  0  0  0  0
 22 24  1  0  0  0  0
 22 20  1  0  0  0  0
 23 22  1  0  0  0  0
 24 17  2  0  0  0  0
M  END
>  <minimizedAffinity>
-4.04411554

$$$$

 OpenBabel03252509213D

 24 26  0  0  0  0  0  0  0  0999 V2000
   36.0900   28.1160   39.3870 C   0  0  0  0  0  0  0  0  0  0  0  0
   36.7890   27.4100   40.3820 C   0  0  0  0  0  0  0  0  0  0  0  0
   36.9020   26.0540   40.1520 C   0  0  0  0  0  0  0  0  0  0  0  0
   36.3420   25.5000   39.0130 N   0  0  0  0  0  0  0  0  0  0  0  0
   35.6870   26.2200   38.1020 C   0  0  0  0  0  0  0  0  0  0  0  0
   35.5710   27.5380   38.3080 N   0  0  0  0  0  0  0  0  0  0  0  0
   35.9090   29.1930   39.4040 H   0  0  0  0  0  0  0  0  0  0  0  0
   35.3480   25.5680   37.3140 H   0  0  0  0  0  0  0  0  0  0  0  0
   37.7490   25.2130   41.0810 C   0  0  0  0  0  0  0  0  0  0  0  0
   36.8640   24.5620   42.1520 C   0  0  0  0  0  0  0  0  0  0  0  0
   37.5890   23.7720   41.0190 C   0  0  0  0  0  0  0  0  0  0  0  0
   38.5290   25.7730   41.6070 H   0  0  0  0  0  0  0  0  0  0  0  0
   35.7660   24.5910   42.0300 H   0  0  0  0  0  0  0  0  0  0  0  0
   37.2470   24.3920   43.1580 H   0  0  0  0  0  0  0  0  0  0  0  0
   38.4570   23.1590   41.3800 H   0  0  0  0  0  0  0  0  0  0  0  0
   36.9650   23.2800   40.2650 H   0  0  0  0  0  0  0  0  0  0  0  0
   37.2900   28.1730   41.5040 C   0  0  0  0  0  0  0  0  0  0  0  0
   38.4250   28.8580   41.8170 C   0  0  0  0  0  0  0  0  0  0  0  0
   39.2720   28.9930   41.2040 H   0  0  0  0  0  0  0  0  0  0  0  0
   38.3820   29.3580   43.0950 C   0  0  0  0  0  0  0  0  0  0  0  0
   39.1320   29.9350   43.6070 H   0  0  0  0  0  0  0  0  0  0  0  0
   37.2000   28.9660   43.5560 N   0  0  0  0  0  0  0  0  0  0  0  0
   36.7680   29.1420   44.5080 H   0  0  0  0  0  0  0  0  0  0  0  0
   36.5720   28.2820   42.6360 N   0  0  0  0  0  0  0  0  0  0  0  0
  1  7  1  0  0  0  0
  1  2  1  0  0  0  0
  2 17  1  0  0  0  0
  3  2  2  0  0  0  0
  3  9  1  0  0  0  0
  4  3  1  0  0  0  0
  5  6  1  0  0  0  0
  5  4  2  0  0  0  0
  6  1  2  0  0  0  0
  8  5  1  0  0  0  0
  9 12  1  0  0  0  0
  9 10  1  0  0  0  0
 10 14  1  0  0  0  0
 11  9  1  0  0  0  0
 11 15  1  0  0  0  0
 11 10  1  0  0  0  0
 13 10  1  0  0  0  0
 16 11  1  0  0  0  0
 17 18  1  0  0  0  0
 17 24  2  0  0  0  0
 18 20  2  0  0  0  0
 19 18  1  0  0  0  0
 20 22  1  0  0  0  0
 20 21  1  0  0  0  0
 22 23  1  0  0  0  0
 24 22  1  0  0  0  0
M  END
>  <minimizedAffinity>
-4.02676725

$$$$
