
 OpenBabel03252508193D

 33 35  0  0  0  0  0  0  0  0999 V2000
   45.9200   34.1180   41.2200 C   0  0  0  0  0  0  0  0  0  0  0  0
   46.8020   34.0890   40.1430 C   0  0  0  0  0  0  0  0  0  0  0  0
   48.1010   34.5870   40.1410 C   0  0  0  0  0  0  0  0  0  0  0  0
   48.5050   35.1500   41.3380 C   0  0  0  0  0  0  0  0  0  0  0  0
   47.6550   35.1900   42.4130 C   0  0  0  0  0  0  0  0  0  0  0  0
   46.3640   34.6890   42.3990 C   0  0  0  0  0  0  0  0  0  0  0  0
   46.4020   33.6280   39.2400 H   0  0  0  0  0  0  0  0  0  0  0  0
   48.6460   34.4830   39.2250 H   0  0  0  0  0  0  0  0  0  0  0  0
   49.5100   35.5380   41.3450 H   0  0  0  0  0  0  0  0  0  0  0  0
   48.1310   35.6640   43.2670 H   0  0  0  0  0  0  0  0  0  0  0  0
   45.6490   34.8460   43.6540 C   0  0  0  0  0  0  0  0  0  0  0  0
   45.6330   34.1770   44.8480 C   0  0  0  0  0  0  0  0  0  0  0  0
   46.2110   33.3100   45.0960 H   0  0  0  0  0  0  0  0  0  0  0  0
   44.8000   34.7190   45.7650 C   0  0  0  0  0  0  0  0  0  0  0  0
   44.5820   34.4200   46.7700 H   0  0  0  0  0  0  0  0  0  0  0  0
   44.2790   35.7660   45.1150 N   0  0  0  0  0  0  0  0  0  0  0  0
   43.5760   36.4880   45.4330 H   0  0  0  0  0  0  0  0  0  0  0  0
   44.7820   35.8180   43.9050 N   0  0  0  0  0  0  0  0  0  0  0  0
   44.5600   33.5950   41.1600 C   0  0  0  0  0  0  0  0  0  0  0  0
   43.8940   34.3880   41.5640 H   0  0  0  0  0  0  0  0  0  0  0  0
   44.4270   32.6380   41.6870 H   0  0  0  0  0  0  0  0  0  0  0  0
   44.0750   33.4510   39.7020 C   0  0  0  0  0  0  0  0  0  0  0  0
   44.6570   34.1870   39.1360 H   0  0  0  0  0  0  0  0  0  0  0  0
   44.1990   32.4250   39.3640 H   0  0  0  0  0  0  0  0  0  0  0  0
   40.9500   35.5680   39.4710 C   0  0  0  0  0  0  0  0  0  0  0  0
   42.3310   35.2220   39.4950 C   0  0  0  0  0  0  0  0  0  0  0  0
   42.6470   33.8840   39.6720 C   0  0  0  0  0  0  0  0  0  0  0  0
   41.6010   33.0040   39.8100 N   0  0  0  0  0  0  0  0  0  0  0  0
   40.3240   33.3550   39.7830 C   0  0  0  0  0  0  0  0  0  0  0  0
   39.9880   34.6370   39.6140 N   0  0  0  0  0  0  0  0  0  0  0  0
   40.7310   36.6200   39.3310 H   0  0  0  0  0  0  0  0  0  0  0  0
   43.0860   35.9830   39.3770 H   0  0  0  0  0  0  0  0  0  0  0  0
   39.5320   32.6310   39.8970 H   0  0  0  0  0  0  0  0  0  0  0  0
  1  6  1  0  0  0  0
  2  1  2  0  0  0  0
  3  2  1  0  0  0  0
  3  4  2  0  0  0  0
  4  9  1  0  0  0  0
  4  5  1  0  0  0  0
  5 10  1  0  0  0  0
  6  5  2  0  0  0  0
  6 11  1  0  0  0  0
  7  2  1  0  0  0  0
  8  3  1  0  0  0  0
 11 18  2  0  0  0  0
 11 12  1  0  0  0  0
 12 13  1  0  0  0  0
 12 14  2  0  0  0  0
 14 15  1  0  0  0  0
 16 17  1  0  0  0  0
 16 14  1  0  0  0  0
 18 16  1  0  0  0  0
 19  1  1  0  0  0  0
 19 20  1  0  0  0  0
 19 21  1  0  0  0  0
 22 19  1  0  0  0  0
 23 22  1  0  0  0  0
 24 22  1  0  0  0  0
 25 26  2  0  0  0  0
 25 30  1  0  0  0  0
 26 27  1  0  0  0  0
 27 22  1  0  0  0  0
 27 28  2  0  0  0  0
 29 28  1  0  0  0  0
 29 33  1  0  0  0  0
 30 29  2  0  0  0  0
 31 25  1  0  0  0  0
 32 26  1  0  0  0  0
M  END
>  <minimizedAffinity>
-5.58142853

>  <minimizedRMSD>
1.39992237

$$$$
