
 OpenBabel03242516513D

 42 45  0  0  1  0  0  0  0  0999 V2000
   36.7700   30.3930   39.3120 C   0  0  1  0  0  0  0  0  0  0  0  0
   36.9020   29.4460   38.1850 C   0  0  0  0  0  0  0  0  0  0  0  0
   35.4950   29.3280   37.5900 C   0  0  0  0  0  0  0  0  0  0  0  0
   34.6650   28.5660   38.6110 C   0  0  0  0  0  0  0  0  0  0  0  0
   34.6650   29.1770   39.9740 C   0  0  0  0  0  0  0  0  0  0  0  0
   35.8920   29.8510   40.4190 C   0  0  1  0  0  0  0  0  0  0  0  0
   36.2010   31.3000   38.9450 H   0  0  0  0  0  0  0  0  0  0  0  0
   37.2570   28.4500   38.4450 H   0  0  0  0  0  0  0  0  0  0  0  0
   37.5260   29.9200   37.3900 H   0  0  0  0  0  0  0  0  0  0  0  0
   35.5650   28.7020   36.6900 H   0  0  0  0  0  0  0  0  0  0  0  0
   35.0940   30.3290   37.4070 H   0  0  0  0  0  0  0  0  0  0  0  0
   33.6370   28.5330   38.2050 H   0  0  0  0  0  0  0  0  0  0  0  0
   35.0820   27.5330   38.6410 H   0  0  0  0  0  0  0  0  0  0  0  0
   33.7570   29.8380   40.0420 H   0  0  0  0  0  0  0  0  0  0  0  0
   34.4370   28.3490   40.6880 H   0  0  0  0  0  0  0  0  0  0  0  0
   35.5920   30.7670   41.0150 H   0  0  0  0  0  0  0  0  0  0  0  0
   39.2320   32.6790   41.0420 C   0  0  0  0  0  0  0  0  0  0  0  0
   38.0670   32.1340   40.5030 C   0  0  0  0  0  0  0  0  0  0  0  0
   38.0190   30.9040   39.8620 C   0  0  0  0  0  0  0  0  0  0  0  0
   39.1870   30.2450   39.7810 N   0  0  0  0  0  0  0  0  0  0  0  0
   40.3300   30.7570   40.2980 C   0  0  0  0  0  0  0  0  0  0  0  0
   40.3640   31.9380   40.9120 N   0  0  0  0  0  0  0  0  0  0  0  0
   39.1920   33.6470   41.5300 H   0  0  0  0  0  0  0  0  0  0  0  0
   37.1150   32.6780   40.5710 H   0  0  0  0  0  0  0  0  0  0  0  0
   41.2350   30.1680   40.1950 H   0  0  0  0  0  0  0  0  0  0  0  0
   36.6720   29.0450   41.3750 C   0  0  0  0  0  0  0  0  0  0  0  0
   37.3110   29.5070   42.5330 C   0  0  0  0  0  0  0  0  0  0  0  0
   37.9680   28.5260   43.2890 C   0  0  0  0  0  0  0  0  0  0  0  0
   37.9360   27.2170   42.8450 C   0  0  0  0  0  0  0  0  0  0  0  0
   37.3040   26.7910   41.7070 C   0  0  0  0  0  0  0  0  0  0  0  0
   36.6690   27.7340   40.9740 N   0  0  0  0  0  0  0  0  0  0  0  0
   37.2260   30.5590   42.7140 H   0  0  0  0  0  0  0  0  0  0  0  0
   38.4450   28.8950   44.1630 H   0  0  0  0  0  0  0  0  0  0  0  0
   38.4610   26.5000   43.4690 H   0  0  0  0  0  0  0  0  0  0  0  0
   37.3370   25.3780   41.3340 C   0  0  0  0  0  0  0  0  0  0  0  0
   36.6940   24.7890   40.2640 C   0  0  0  0  0  0  0  0  0  0  0  0
   36.0810   25.3410   39.5750 H   0  0  0  0  0  0  0  0  0  0  0  0
   37.0480   23.4400   40.3560 C   0  0  0  0  0  0  0  0  0  0  0  0
   36.6380   22.7660   39.5880 H   0  0  0  0  0  0  0  0  0  0  0  0
   37.8580   23.2560   41.4290 N   0  0  0  0  0  0  0  0  0  0  0  0
   38.1780   22.2720   41.5820 H   0  0  0  0  0  0  0  0  0  0  0  0
   38.0200   24.4570   42.0100 N   0  0  0  0  0  0  0  0  0  0  0  0
  1  7  1  6  0  0  0
  1 19  1  0  0  0  0
  1  6  1  0  0  0  0
  2  8  1  0  0  0  0
  2  1  1  0  0  0  0
  3  2  1  0  0  0  0
  3  4  1  0  0  0  0
  4 13  1  0  0  0  0
  4  5  1  0  0  0  0
  5 14  1  0  0  0  0
  5  6  1  0  0  0  0
  5 15  1  0  0  0  0
  6 16  1  1  0  0  0
  6 26  1  0  0  0  0
  9  2  1  0  0  0  0
 10  3  1  0  0  0  0
 11  3  1  0  0  0  0
 12  4  1  0  0  0  0
 17 23  1  0  0  0  0
 18 24  1  0  0  0  0
 18 17  2  0  0  0  0
 19 18  1  0  0  0  0
 20 19  2  0  0  0  0
 20 21  1  0  0  0  0
 21 22  2  0  0  0  0
 22 17  1  0  0  0  0
 25 21  1  0  0  0  0
 26 27  1  0  0  0  0
 27 32  1  0  0  0  0
 27 28  2  0  0  0  0
 28 33  1  0  0  0  0
 29 28  1  0  0  0  0
 29 34  1  0  0  0  0
 30 29  2  0  0  0  0
 31 26  2  0  0  0  0
 31 30  1  0  0  0  0
 35 30  1  0  0  0  0
 35 42  2  0  0  0  0
 36 38  2  0  0  0  0
 36 35  1  0  0  0  0
 37 36  1  0  0  0  0
 38 40  1  0  0  0  0
 39 38  1  0  0  0  0
 40 41  1  0  0  0  0
 40 42  1  0  0  0  0
M  END
>  <minimizedAffinity>
-6.17596245

$$$$

 OpenBabel03242516513D

 42 45  0  0  1  0  0  0  0  0999 V2000
   38.8870   24.8790   40.7110 C   0  0  1  0  0  0  0  0  0  0  0  0
   38.3590   23.6990   41.4270 C   0  0  0  0  0  0  0  0  0  0  0  0
   37.5260   22.9370   40.3910 C   0  0  0  0  0  0  0  0  0  0  0  0
   36.2920   23.7860   40.1310 C   0  0  0  0  0  0  0  0  0  0  0  0
   36.5940   25.1860   39.7100 C   0  0  0  0  0  0  0  0  0  0  0  0
   37.7890   25.8270   40.2780 C   0  0  1  0  0  0  0  0  0  0  0  0
   39.3310   24.5270   39.7310 H   0  0  0  0  0  0  0  0  0  0  0  0
   37.7330   23.9120   42.2920 H   0  0  0  0  0  0  0  0  0  0  0  0
   39.2120   23.0250   41.6820 H   0  0  0  0  0  0  0  0  0  0  0  0
   37.1890   22.0010   40.8570 H   0  0  0  0  0  0  0  0  0  0  0  0
   38.1190   22.7940   39.4830 H   0  0  0  0  0  0  0  0  0  0  0  0
   35.7220   23.2620   39.3410 H   0  0  0  0  0  0  0  0  0  0  0  0
   35.7040   23.7760   41.0770 H   0  0  0  0  0  0  0  0  0  0  0  0
   36.5850   25.2050   38.5850 H   0  0  0  0  0  0  0  0  0  0  0  0
   35.7010   25.7960   39.9870 H   0  0  0  0  0  0  0  0  0  0  0  0
   38.2650   26.4600   39.4670 H   0  0  0  0  0  0  0  0  0  0  0  0
   41.3580   25.9240   43.3720 C   0  0  0  0  0  0  0  0  0  0  0  0
   40.3530   25.2580   42.6690 C   0  0  0  0  0  0  0  0  0  0  0  0
   39.9480   25.6110   41.3890 C   0  0  0  0  0  0  0  0  0  0  0  0
   40.5880   26.6590   40.8450 N   0  0  0  0  0  0  0  0  0  0  0  0
   41.5650   27.3200   41.5110 C   0  0  0  0  0  0  0  0  0  0  0  0
   41.9470   26.9720   42.7380 N   0  0  0  0  0  0  0  0  0  0  0  0
   41.6210   25.5900   44.3700 H   0  0  0  0  0  0  0  0  0  0  0  0
   39.8330   24.4020   43.1190 H   0  0  0  0  0  0  0  0  0  0  0  0
   42.0390   28.1570   41.0080 H   0  0  0  0  0  0  0  0  0  0  0  0
   37.4660   26.7940   41.3420 C   0  0  0  0  0  0  0  0  0  0  0  0
   37.0970   26.4940   42.6600 C   0  0  0  0  0  0  0  0  0  0  0  0
   36.8680   27.6040   43.4870 C   0  0  0  0  0  0  0  0  0  0  0  0
   37.0200   28.8690   42.9520 C   0  0  0  0  0  0  0  0  0  0  0  0
   37.3830   29.1350   41.6590 C   0  0  0  0  0  0  0  0  0  0  0  0
   37.6040   28.0690   40.8570 N   0  0  0  0  0  0  0  0  0  0  0  0
   37.0300   25.4510   42.8910 H   0  0  0  0  0  0  0  0  0  0  0  0
   36.5900   27.3570   44.4810 H   0  0  0  0  0  0  0  0  0  0  0  0
   36.8300   29.6910   43.6380 H   0  0  0  0  0  0  0  0  0  0  0  0
   37.5130   30.5180   41.2020 C   0  0  0  0  0  0  0  0  0  0  0  0
   38.6840   31.2350   41.0570 C   0  0  0  0  0  0  0  0  0  0  0  0
   39.6520   30.8230   41.2760 H   0  0  0  0  0  0  0  0  0  0  0  0
   38.2600   32.4860   40.5990 C   0  0  0  0  0  0  0  0  0  0  0  0
   39.0430   33.2360   40.4110 H   0  0  0  0  0  0  0  0  0  0  0  0
   36.9080   32.4930   40.4850 N   0  0  0  0  0  0  0  0  0  0  0  0
   36.4940   33.3930   40.1460 H   0  0  0  0  0  0  0  0  0  0  0  0
   36.4750   31.2780   40.8590 N   0  0  0  0  0  0  0  0  0  0  0  0
  1  7  1  6  0  0  0
  1 19  1  0  0  0  0
  1  2  1  0  0  0  0
  2  9  1  0  0  0  0
  2  8  1  0  0  0  0
  3 10  1  0  0  0  0
  3  2  1  0  0  0  0
  4  3  1  0  0  0  0
  4 13  1  0  0  0  0
  5 15  1  0  0  0  0
  5  4  1  0  0  0  0
  5  6  1  0  0  0  0
  6 16  1  6  0  0  0
  6  1  1  0  0  0  0
  6 26  1  0  0  0  0
 11  3  1  0  0  0  0
 12  4  1  0  0  0  0
 14  5  1  0  0  0  0
 17 23  1  0  0  0  0
 18 24  1  0  0  0  0
 18 17  2  0  0  0  0
 19 18  1  0  0  0  0
 20 19  2  0  0  0  0
 20 21  1  0  0  0  0
 21 22  2  0  0  0  0
 22 17  1  0  0  0  0
 25 21  1  0  0  0  0
 26 27  1  0  0  0  0
 27 32  1  0  0  0  0
 27 28  2  0  0  0  0
 28 33  1  0  0  0  0
 29 28  1  0  0  0  0
 29 34  1  0  0  0  0
 30 29  2  0  0  0  0
 31 26  2  0  0  0  0
 31 30  1  0  0  0  0
 35 30  1  0  0  0  0
 36 35  1  0  0  0  0
 36 37  1  0  0  0  0
 38 36  2  0  0  0  0
 39 38  1  0  0  0  0
 40 38  1  0  0  0  0
 40 42  1  0  0  0  0
 41 40  1  0  0  0  0
 42 35  2  0  0  0  0
M  END
>  <minimizedAffinity>
-6.05524206

$$$$

 OpenBabel03242516513D

 42 45  0  0  1  0  0  0  0  0999 V2000
   38.2540   29.0680   41.4680 C   0  0  1  0  0  0  0  0  0  0  0  0
   37.6370   29.2520   42.7980 C   0  0  0  0  0  0  0  0  0  0  0  0
   37.9620   27.9720   43.5750 C   0  0  0  0  0  0  0  0  0  0  0  0
   37.1340   26.8680   42.9400 C   0  0  0  0  0  0  0  0  0  0  0  0
   37.3450   26.7170   41.4690 C   0  0  0  0  0  0  0  0  0  0  0  0
   37.6200   27.9340   40.6910 C   0  0  1  0  0  0  0  0  0  0  0  0
   39.3200   28.7180   41.6200 H   0  0  0  0  0  0  0  0  0  0  0  0
   36.5580   29.3990   42.8020 H   0  0  0  0  0  0  0  0  0  0  0  0
   38.1740   30.0730   43.3320 H   0  0  0  0  0  0  0  0  0  0  0  0
   37.5990   28.1060   44.6040 H   0  0  0  0  0  0  0  0  0  0  0  0
   39.0340   27.7680   43.5040 H   0  0  0  0  0  0  0  0  0  0  0  0
   37.4140   25.9350   43.4650 H   0  0  0  0  0  0  0  0  0  0  0  0
   36.0700   27.1100   43.1630 H   0  0  0  0  0  0  0  0  0  0  0  0
   38.1290   25.9240   41.3240 H   0  0  0  0  0  0  0  0  0  0  0  0
   36.4180   26.2430   41.0660 H   0  0  0  0  0  0  0  0  0  0  0  0
   38.3830   27.6760   39.8950 H   0  0  0  0  0  0  0  0  0  0  0  0
   37.5350   32.5120   40.0910 C   0  0  0  0  0  0  0  0  0  0  0  0
   37.5030   31.3460   40.8550 C   0  0  0  0  0  0  0  0  0  0  0  0
   38.3430   30.2620   40.6380 C   0  0  0  0  0  0  0  0  0  0  0  0
   39.2120   30.3950   39.6230 N   0  0  0  0  0  0  0  0  0  0  0  0
   39.2580   31.5190   38.8680 C   0  0  0  0  0  0  0  0  0  0  0  0
   38.4480   32.5530   39.0860 N   0  0  0  0  0  0  0  0  0  0  0  0
   36.8460   33.3190   40.3210 H   0  0  0  0  0  0  0  0  0  0  0  0
   36.7900   31.2430   41.6840 H   0  0  0  0  0  0  0  0  0  0  0  0
   39.9870   31.5550   38.0650 H   0  0  0  0  0  0  0  0  0  0  0  0
   36.4500   28.4000   39.9260 C   0  0  0  0  0  0  0  0  0  0  0  0
   35.2080   28.7830   40.4490 C   0  0  0  0  0  0  0  0  0  0  0  0
   34.2650   29.2140   39.5040 C   0  0  0  0  0  0  0  0  0  0  0  0
   34.6250   29.2260   38.1690 C   0  0  0  0  0  0  0  0  0  0  0  0
   35.8470   28.8450   37.6840 C   0  0  0  0  0  0  0  0  0  0  0  0
   36.7600   28.4280   38.5910 N   0  0  0  0  0  0  0  0  0  0  0  0
   35.1150   28.7060   41.5130 H   0  0  0  0  0  0  0  0  0  0  0  0
   33.3310   29.5010   39.9190 H   0  0  0  0  0  0  0  0  0  0  0  0
   33.8560   29.5680   37.4820 H   0  0  0  0  0  0  0  0  0  0  0  0
   36.1160   28.8980   36.2470 C   0  0  0  0  0  0  0  0  0  0  0  0
   35.2140   29.2000   35.2480 C   0  0  0  0  0  0  0  0  0  0  0  0
   34.1830   29.4350   35.4420 H   0  0  0  0  0  0  0  0  0  0  0  0
   35.9680   29.1140   34.0740 C   0  0  0  0  0  0  0  0  0  0  0  0
   35.4400   29.3200   33.1300 H   0  0  0  0  0  0  0  0  0  0  0  0
   37.2460   28.7780   34.3800 N   0  0  0  0  0  0  0  0  0  0  0  0
   37.8920   28.6890   33.5610 H   0  0  0  0  0  0  0  0  0  0  0  0
   37.3110   28.6520   35.7150 N   0  0  0  0  0  0  0  0  0  0  0  0
  1  7  1  1  0  0  0
  1  2  1  0  0  0  0
  2  8  1  0  0  0  0
  2  9  1  0  0  0  0
  2  3  1  0  0  0  0
  3 10  1  0  0  0  0
  4 13  1  0  0  0  0
  4 12  1  0  0  0  0
  4  3  1  0  0  0  0
  5  4  1  0  0  0  0
  6 16  1  6  0  0  0
  6  1  1  0  0  0  0
  6  5  1  0  0  0  0
 11  3  1  0  0  0  0
 14  5  1  0  0  0  0
 15  5  1  0  0  0  0
 17 23  1  0  0  0  0
 17 18  1  0  0  0  0
 18 24  1  0  0  0  0
 19 18  2  0  0  0  0
 19  1  1  0  0  0  0
 20 19  1  0  0  0  0
 21 22  1  0  0  0  0
 21 20  2  0  0  0  0
 22 17  2  0  0  0  0
 25 21  1  0  0  0  0
 26 27  1  0  0  0  0
 26  6  1  0  0  0  0
 27 32  1  0  0  0  0
 28 33  1  0  0  0  0
 28 27  2  0  0  0  0
 29 28  1  0  0  0  0
 30 29  2  0  0  0  0
 30 31  1  0  0  0  0
 31 26  2  0  0  0  0
 34 29  1  0  0  0  0
 35 30  1  0  0  0  0
 36 37  1  0  0  0  0
 36 35  1  0  0  0  0
 38 40  1  0  0  0  0
 38 36  2  0  0  0  0
 39 38  1  0  0  0  0
 40 42  1  0  0  0  0
 41 40  1  0  0  0  0
 42 35  2  0  0  0  0
M  END
>  <minimizedAffinity>
-5.96128035

$$$$

 OpenBabel03242516513D

 42 45  0  0  1  0  0  0  0  0999 V2000
   36.8440   30.1870   39.2400 C   0  0  1  0  0  0  0  0  0  0  0  0
   36.8430   29.1820   38.1560 C   0  0  0  0  0  0  0  0  0  0  0  0
   35.4120   29.1850   37.6040 C   0  0  0  0  0  0  0  0  0  0  0  0
   34.5420   28.5590   38.6810 C   0  0  0  0  0  0  0  0  0  0  0  0
   34.6460   29.2260   40.0140 C   0  0  0  0  0  0  0  0  0  0  0  0
   35.9500   29.7890   40.3940 C   0  0  1  0  0  0  0  0  0  0  0  0
   36.3590   31.1310   38.8450 H   0  0  0  0  0  0  0  0  0  0  0  0
   37.1020   28.1670   38.4520 H   0  0  0  0  0  0  0  0  0  0  0  0
   37.4870   29.5530   37.3230 H   0  0  0  0  0  0  0  0  0  0  0  0
   35.3910   28.5160   36.7330 H   0  0  0  0  0  0  0  0  0  0  0  0
   35.1110   30.2130   37.3850 H   0  0  0  0  0  0  0  0  0  0  0  0
   33.5030   28.6150   38.3050 H   0  0  0  0  0  0  0  0  0  0  0  0
   34.8510   27.4910   38.7490 H   0  0  0  0  0  0  0  0  0  0  0  0
   33.8140   29.9810   40.0750 H   0  0  0  0  0  0  0  0  0  0  0  0
   34.3580   28.4590   40.7710 H   0  0  0  0  0  0  0  0  0  0  0  0
   35.7640   30.7560   40.9540 H   0  0  0  0  0  0  0  0  0  0  0  0
   40.5510   30.1200   39.9690 C   0  0  0  0  0  0  0  0  0  0  0  0
   39.2720   29.7920   39.5180 C   0  0  0  0  0  0  0  0  0  0  0  0
   38.1550   30.5890   39.7310 C   0  0  0  0  0  0  0  0  0  0  0  0
   38.3720   31.7230   40.4160 N   0  0  0  0  0  0  0  0  0  0  0  0
   39.6060   32.0580   40.8640 C   0  0  0  0  0  0  0  0  0  0  0  0
   40.6710   31.2880   40.6530 N   0  0  0  0  0  0  0  0  0  0  0  0
   41.3770   29.4470   39.7640 H   0  0  0  0  0  0  0  0  0  0  0  0
   39.1000   28.8630   38.9580 H   0  0  0  0  0  0  0  0  0  0  0  0
   39.7060   32.9910   41.4110 H   0  0  0  0  0  0  0  0  0  0  0  0
   36.6730   28.9490   41.3650 C   0  0  0  0  0  0  0  0  0  0  0  0
   37.2610   29.3730   42.5640 C   0  0  0  0  0  0  0  0  0  0  0  0
   37.8680   28.3650   43.3260 C   0  0  0  0  0  0  0  0  0  0  0  0
   37.8400   27.0680   42.8480 C   0  0  0  0  0  0  0  0  0  0  0  0
   37.2580   26.6790   41.6710 C   0  0  0  0  0  0  0  0  0  0  0  0
   36.6710   27.6470   40.9330 N   0  0  0  0  0  0  0  0  0  0  0  0
   37.1810   30.4220   42.7660 H   0  0  0  0  0  0  0  0  0  0  0  0
   38.3070   28.7060   44.2300 H   0  0  0  0  0  0  0  0  0  0  0  0
   38.3260   26.3290   43.4790 H   0  0  0  0  0  0  0  0  0  0  0  0
   37.2910   25.2740   41.2660 C   0  0  0  0  0  0  0  0  0  0  0  0
   36.6850   24.7190   40.1570 C   0  0  0  0  0  0  0  0  0  0  0  0
   36.1060   25.2950   39.4570 H   0  0  0  0  0  0  0  0  0  0  0  0
   37.0200   23.3640   40.2310 C   0  0  0  0  0  0  0  0  0  0  0  0
   36.6350   22.7140   39.4300 H   0  0  0  0  0  0  0  0  0  0  0  0
   37.7840   23.1450   41.3300 N   0  0  0  0  0  0  0  0  0  0  0  0
   38.0870   22.1540   41.4720 H   0  0  0  0  0  0  0  0  0  0  0  0
   37.9360   24.3290   41.9460 N   0  0  0  0  0  0  0  0  0  0  0  0
  1  7  1  6  0  0  0
  1 19  1  0  0  0  0
  1  6  1  0  0  0  0
  2  8  1  0  0  0  0
  2  1  1  0  0  0  0
  3  2  1  0  0  0  0
  3  4  1  0  0  0  0
  4 13  1  0  0  0  0
  4  5  1  0  0  0  0
  5 14  1  0  0  0  0
  5  6  1  0  0  0  0
  5 15  1  0  0  0  0
  6 16  1  1  0  0  0
  6 26  1  0  0  0  0
  9  2  1  0  0  0  0
 10  3  1  0  0  0  0
 11  3  1  0  0  0  0
 12  4  1  0  0  0  0
 17 22  1  0  0  0  0
 18 19  1  0  0  0  0
 18 17  2  0  0  0  0
 19 20  2  0  0  0  0
 20 21  1  0  0  0  0
 21 25  1  0  0  0  0
 22 21  2  0  0  0  0
 23 17  1  0  0  0  0
 24 18  1  0  0  0  0
 26 27  1  0  0  0  0
 27 32  1  0  0  0  0
 27 28  2  0  0  0  0
 28 33  1  0  0  0  0
 29 28  1  0  0  0  0
 29 34  1  0  0  0  0
 30 29  2  0  0  0  0
 31 26  2  0  0  0  0
 31 30  1  0  0  0  0
 35 30  1  0  0  0  0
 35 42  2  0  0  0  0
 36 38  2  0  0  0  0
 36 35  1  0  0  0  0
 37 36  1  0  0  0  0
 38 40  1  0  0  0  0
 39 38  1  0  0  0  0
 40 41  1  0  0  0  0
 40 42  1  0  0  0  0
M  END
>  <minimizedAffinity>
-5.90543747

$$$$

 OpenBabel03242516513D

 42 45  0  0  1  0  0  0  0  0999 V2000
   36.8030   27.0300   40.3960 C   0  0  1  0  0  0  0  0  0  0  0  0
   37.4850   25.7760   40.0140 C   0  0  0  0  0  0  0  0  0  0  0  0
   36.6840   24.6580   40.6900 C   0  0  0  0  0  0  0  0  0  0  0  0
   36.9590   24.7810   42.1800 C   0  0  0  0  0  0  0  0  0  0  0  0
   36.6550   26.1300   42.7460 C   0  0  0  0  0  0  0  0  0  0  0  0
   36.8840   27.2980   41.8840 C   0  0  1  0  0  0  0  0  0  0  0  0
   35.6930   26.8980   40.2140 H   0  0  0  0  0  0  0  0  0  0  0  0
   38.5270   25.6940   40.3180 H   0  0  0  0  0  0  0  0  0  0  0  0
   37.3550   25.6180   38.9160 H   0  0  0  0  0  0  0  0  0  0  0  0
   37.1040   23.6990   40.3560 H   0  0  0  0  0  0  0  0  0  0  0  0
   35.6220   24.7830   40.4610 H   0  0  0  0  0  0  0  0  0  0  0  0
   36.3350   24.0100   42.6700 H   0  0  0  0  0  0  0  0  0  0  0  0
   38.0340   24.5270   42.3200 H   0  0  0  0  0  0  0  0  0  0  0  0
   35.6080   26.0910   43.1560 H   0  0  0  0  0  0  0  0  0  0  0  0
   37.2880   26.2350   43.6590 H   0  0  0  0  0  0  0  0  0  0  0  0
   36.0560   28.0460   42.0820 H   0  0  0  0  0  0  0  0  0  0  0  0
   36.6120   30.4300   38.7570 C   0  0  0  0  0  0  0  0  0  0  0  0
   36.3020   29.2710   39.4700 C   0  0  0  0  0  0  0  0  0  0  0  0
   37.1900   28.2180   39.6470 C   0  0  0  0  0  0  0  0  0  0  0  0
   38.3960   28.3730   39.0780 N   0  0  0  0  0  0  0  0  0  0  0  0
   38.7160   29.4900   38.3820 C   0  0  0  0  0  0  0  0  0  0  0  0
   37.8580   30.4950   38.2190 N   0  0  0  0  0  0  0  0  0  0  0  0
   35.8660   31.2120   38.6610 H   0  0  0  0  0  0  0  0  0  0  0  0
   35.3140   29.1490   39.9320 H   0  0  0  0  0  0  0  0  0  0  0  0
   39.7110   29.5450   37.9500 H   0  0  0  0  0  0  0  0  0  0  0  0
   38.1150   28.0300   42.2290 C   0  0  0  0  0  0  0  0  0  0  0  0
   38.2600   29.4190   42.3380 C   0  0  0  0  0  0  0  0  0  0  0  0
   39.5370   29.8640   42.7080 C   0  0  0  0  0  0  0  0  0  0  0  0
   40.5260   28.9240   42.9300 C   0  0  0  0  0  0  0  0  0  0  0  0
   40.3580   27.5690   42.8160 C   0  0  0  0  0  0  0  0  0  0  0  0
   39.1290   27.1350   42.4590 N   0  0  0  0  0  0  0  0  0  0  0  0
   37.3780   29.9890   42.1270 H   0  0  0  0  0  0  0  0  0  0  0  0
   39.6260   30.9190   42.7860 H   0  0  0  0  0  0  0  0  0  0  0  0
   41.4950   29.3240   43.2130 H   0  0  0  0  0  0  0  0  0  0  0  0
   41.4800   26.6670   43.0740 C   0  0  0  0  0  0  0  0  0  0  0  0
   42.7710   27.0250   43.4040 C   0  0  0  0  0  0  0  0  0  0  0  0
   43.0860   28.0480   43.5040 H   0  0  0  0  0  0  0  0  0  0  0  0
   43.4370   25.8030   43.5420 C   0  0  0  0  0  0  0  0  0  0  0  0
   44.5040   25.8480   43.8080 H   0  0  0  0  0  0  0  0  0  0  0  0
   42.5710   24.7860   43.3040 N   0  0  0  0  0  0  0  0  0  0  0  0
   42.9790   23.8260   43.3850 H   0  0  0  0  0  0  0  0  0  0  0  0
   41.3800   25.3400   43.0210 N   0  0  0  0  0  0  0  0  0  0  0  0
  1  7  1  6  0  0  0
  1  6  1  0  0  0  0
  2  8  1  0  0  0  0
  2  1  1  0  0  0  0
  2  3  1  0  0  0  0
  3  4  1  0  0  0  0
  4 13  1  0  0  0  0
  4 12  1  0  0  0  0
  4  5  1  0  0  0  0
  5 14  1  0  0  0  0
  5 15  1  0  0  0  0
  6 16  1  1  0  0  0
  6 26  1  0  0  0  0
  6  5  1  0  0  0  0
  9  2  1  0  0  0  0
 10  3  1  0  0  0  0
 11  3  1  0  0  0  0
 17 18  1  0  0  0  0
 18 19  2  0  0  0  0
 18 24  1  0  0  0  0
 19  1  1  0  0  0  0
 20 19  1  0  0  0  0
 21 20  2  0  0  0  0
 22 21  1  0  0  0  0
 22 17  2  0  0  0  0
 23 17  1  0  0  0  0
 25 21  1  0  0  0  0
 26 27  2  0  0  0  0
 26 31  1  0  0  0  0
 27 28  1  0  0  0  0
 28 33  1  0  0  0  0
 28 29  2  0  0  0  0
 29 34  1  0  0  0  0
 30 29  1  0  0  0  0
 30 35  1  0  0  0  0
 31 30  2  0  0  0  0
 32 27  1  0  0  0  0
 35 36  1  0  0  0  0
 36 37  1  0  0  0  0
 36 38  2  0  0  0  0
 38 39  1  0  0  0  0
 40 41  1  0  0  0  0
 40 38  1  0  0  0  0
 42 35  2  0  0  0  0
 42 40  1  0  0  0  0
M  END
>  <minimizedAffinity>
-5.74007511

$$$$

 OpenBabel03242516513D

 42 45  0  0  1  0  0  0  0  0999 V2000
   36.5680   26.7660   40.2030 C   0  0  1  0  0  0  0  0  0  0  0  0
   37.3010   25.4890   40.0760 C   0  0  0  0  0  0  0  0  0  0  0  0
   36.7620   24.6000   41.2010 C   0  0  0  0  0  0  0  0  0  0  0  0
   37.2880   25.1930   42.4980 C   0  0  0  0  0  0  0  0  0  0  0  0
   36.9480   26.6340   42.6910 C   0  0  0  0  0  0  0  0  0  0  0  0
   36.8880   27.4870   41.4950 C   0  0  1  0  0  0  0  0  0  0  0  0
   35.4650   26.5310   40.3000 H   0  0  0  0  0  0  0  0  0  0  0  0
   38.3840   25.5550   40.1690 H   0  0  0  0  0  0  0  0  0  0  0  0
   36.9920   24.9920   39.1250 H   0  0  0  0  0  0  0  0  0  0  0  0
   37.2160   23.6060   41.0860 H   0  0  0  0  0  0  0  0  0  0  0  0
   35.6690   24.5970   41.1700 H   0  0  0  0  0  0  0  0  0  0  0  0
   36.8510   24.5840   43.3120 H   0  0  0  0  0  0  0  0  0  0  0  0
   38.3920   25.0460   42.4830 H   0  0  0  0  0  0  0  0  0  0  0  0
   36.0030   26.6760   43.3010 H   0  0  0  0  0  0  0  0  0  0  0  0
   37.7210   27.0490   43.3820 H   0  0  0  0  0  0  0  0  0  0  0  0
   36.0330   28.2190   41.6290 H   0  0  0  0  0  0  0  0  0  0  0  0
   35.7090   29.4650   37.7010 C   0  0  0  0  0  0  0  0  0  0  0  0
   35.6620   28.5720   38.7730 C   0  0  0  0  0  0  0  0  0  0  0  0
   36.6810   27.6790   39.0740 C   0  0  0  0  0  0  0  0  0  0  0  0
   37.7460   27.7150   38.2560 N   0  0  0  0  0  0  0  0  0  0  0  0
   37.8110   28.5740   37.2100 C   0  0  0  0  0  0  0  0  0  0  0  0
   36.8280   29.4280   36.9310 N   0  0  0  0  0  0  0  0  0  0  0  0
   34.8730   30.1350   37.5280 H   0  0  0  0  0  0  0  0  0  0  0  0
   34.7880   28.5470   39.4380 H   0  0  0  0  0  0  0  0  0  0  0  0
   38.7040   28.5470   36.5930 H   0  0  0  0  0  0  0  0  0  0  0  0
   38.0750   28.3470   41.3470 C   0  0  0  0  0  0  0  0  0  0  0  0
   39.4140   27.9530   41.4680 C   0  0  0  0  0  0  0  0  0  0  0  0
   40.3600   28.9650   41.2540 C   0  0  0  0  0  0  0  0  0  0  0  0
   39.9110   30.2360   40.9490 C   0  0  0  0  0  0  0  0  0  0  0  0
   38.5950   30.5960   40.8370 C   0  0  0  0  0  0  0  0  0  0  0  0
   37.6780   29.6240   41.0430 N   0  0  0  0  0  0  0  0  0  0  0  0
   39.5670   26.9210   41.7110 H   0  0  0  0  0  0  0  0  0  0  0  0
   41.3690   28.6470   41.3490 H   0  0  0  0  0  0  0  0  0  0  0  0
   40.6880   30.9800   40.7930 H   0  0  0  0  0  0  0  0  0  0  0  0
   38.2360   31.9760   40.5090 C   0  0  0  0  0  0  0  0  0  0  0  0
   37.3070   32.3890   39.5770 C   0  0  0  0  0  0  0  0  0  0  0  0
   36.7350   31.7040   38.9770 H   0  0  0  0  0  0  0  0  0  0  0  0
   37.3470   33.7850   39.6550 C   0  0  0  0  0  0  0  0  0  0  0  0
   36.6720   34.3390   38.9840 H   0  0  0  0  0  0  0  0  0  0  0  0
   38.2560   34.1600   40.5890 N   0  0  0  0  0  0  0  0  0  0  0  0
   38.3590   35.1940   40.7210 H   0  0  0  0  0  0  0  0  0  0  0  0
   38.7860   33.0360   41.0980 N   0  0  0  0  0  0  0  0  0  0  0  0
  1  7  1  1  0  0  0
  1  6  1  0  0  0  0
  2  8  1  0  0  0  0
  2  1  1  0  0  0  0
  2  3  1  0  0  0  0
  3  4  1  0  0  0  0
  4  5  1  0  0  0  0
  4 12  1  0  0  0  0
  5 14  1  0  0  0  0
  5 15  1  0  0  0  0
  6 16  1  1  0  0  0
  6  5  1  0  0  0  0
  9  2  1  0  0  0  0
 10  3  1  0  0  0  0
 11  3  1  0  0  0  0
 13  4  1  0  0  0  0
 17 18  1  0  0  0  0
 18 19  2  0  0  0  0
 18 24  1  0  0  0  0
 19  1  1  0  0  0  0
 20 19  1  0  0  0  0
 21 20  2  0  0  0  0
 22 21  1  0  0  0  0
 22 17  2  0  0  0  0
 23 17  1  0  0  0  0
 25 21  1  0  0  0  0
 26 27  1  0  0  0  0
 26  6  1  0  0  0  0
 27 32  1  0  0  0  0
 28 33  1  0  0  0  0
 28 27  2  0  0  0  0
 29 28  1  0  0  0  0
 30 29  2  0  0  0  0
 30 31  1  0  0  0  0
 31 26  2  0  0  0  0
 34 29  1  0  0  0  0
 35 30  1  0  0  0  0
 35 42  2  0  0  0  0
 36 38  2  0  0  0  0
 36 35  1  0  0  0  0
 37 36  1  0  0  0  0
 38 40  1  0  0  0  0
 39 38  1  0  0  0  0
 40 41  1  0  0  0  0
 40 42  1  0  0  0  0
M  END
>  <minimizedAffinity>
-5.73520422

$$$$

 OpenBabel03242516513D

 42 45  0  0  1  0  0  0  0  0999 V2000
   37.6890   26.6930   41.9880 C   0  0  1  0  0  0  0  0  0  0  0  0
   38.2880   25.4000   41.5940 C   0  0  0  0  0  0  0  0  0  0  0  0
   38.7690   24.7630   42.9020 C   0  0  0  0  0  0  0  0  0  0  0  0
   39.9580   25.5890   43.3650 C   0  0  0  0  0  0  0  0  0  0  0  0
   39.6680   27.0470   43.5080 C   0  0  0  0  0  0  0  0  0  0  0  0
   38.7110   27.6470   42.5680 C   0  0  1  0  0  0  0  0  0  0  0  0
   36.9840   26.5050   42.8530 H   0  0  0  0  0  0  0  0  0  0  0  0
   39.1290   25.4600   40.9040 H   0  0  0  0  0  0  0  0  0  0  0  0
   37.4790   24.7320   41.2130 H   0  0  0  0  0  0  0  0  0  0  0  0
   39.1400   23.7560   42.6650 H   0  0  0  0  0  0  0  0  0  0  0  0
   37.9550   24.7770   43.6330 H   0  0  0  0  0  0  0  0  0  0  0  0
   40.2660   25.1610   44.3370 H   0  0  0  0  0  0  0  0  0  0  0  0
   40.7650   25.4180   42.6160 H   0  0  0  0  0  0  0  0  0  0  0  0
   39.3920   27.2280   44.5830 H   0  0  0  0  0  0  0  0  0  0  0  0
   40.6470   27.5720   43.3990 H   0  0  0  0  0  0  0  0  0  0  0  0
   38.0940   28.4100   43.1360 H   0  0  0  0  0  0  0  0  0  0  0  0
   35.2010   29.0340   40.3730 C   0  0  0  0  0  0  0  0  0  0  0  0
   35.9940   28.3620   41.3040 C   0  0  0  0  0  0  0  0  0  0  0  0
   36.8950   27.3620   40.9660 C   0  0  0  0  0  0  0  0  0  0  0  0
   36.9660   27.0620   39.6600 N   0  0  0  0  0  0  0  0  0  0  0  0
   36.2050   27.7020   38.7400 C   0  0  0  0  0  0  0  0  0  0  0  0
   35.3440   28.6610   39.0750 N   0  0  0  0  0  0  0  0  0  0  0  0
   34.5180   29.8070   40.7130 H   0  0  0  0  0  0  0  0  0  0  0  0
   35.9310   28.6120   42.3720 H   0  0  0  0  0  0  0  0  0  0  0  0
   36.3170   27.4060   37.7010 H   0  0  0  0  0  0  0  0  0  0  0  0
   39.3670   28.4360   41.5100 C   0  0  0  0  0  0  0  0  0  0  0  0
   40.3520   27.9860   40.6220 C   0  0  0  0  0  0  0  0  0  0  0  0
   40.7960   28.9330   39.6870 C   0  0  0  0  0  0  0  0  0  0  0  0
   40.2430   30.1990   39.7150 C   0  0  0  0  0  0  0  0  0  0  0  0
   39.2790   30.6140   40.5950 C   0  0  0  0  0  0  0  0  0  0  0  0
   38.8480   29.7050   41.4990 N   0  0  0  0  0  0  0  0  0  0  0  0
   40.6590   26.9690   40.7540 H   0  0  0  0  0  0  0  0  0  0  0  0
   41.5420   28.5740   39.0220 H   0  0  0  0  0  0  0  0  0  0  0  0
   40.6240   30.8910   38.9690 H   0  0  0  0  0  0  0  0  0  0  0  0
   38.7660   31.9820   40.5320 C   0  0  0  0  0  0  0  0  0  0  0  0
   39.4920   33.1460   40.6890 C   0  0  0  0  0  0  0  0  0  0  0  0
   40.5490   33.1530   40.8810 H   0  0  0  0  0  0  0  0  0  0  0  0
   38.5410   34.1600   40.5380 C   0  0  0  0  0  0  0  0  0  0  0  0
   38.9040   35.1960   40.6260 H   0  0  0  0  0  0  0  0  0  0  0  0
   37.3240   33.6090   40.3040 N   0  0  0  0  0  0  0  0  0  0  0  0
   36.5420   34.2930   40.1760 H   0  0  0  0  0  0  0  0  0  0  0  0
   37.4880   32.2760   40.3050 N   0  0  0  0  0  0  0  0  0  0  0  0
  1  6  1  0  0  0  0
  1  7  1  1  0  0  0
  2  1  1  0  0  0  0
  2  3  1  0  0  0  0
  3  4  1  0  0  0  0
  3 11  1  0  0  0  0
  4  5  1  0  0  0  0
  4 12  1  0  0  0  0
  5 14  1  0  0  0  0
  6 16  1  1  0  0  0
  6  5  1  0  0  0  0
  8  2  1  0  0  0  0
  9  2  1  0  0  0  0
 10  3  1  0  0  0  0
 13  4  1  0  0  0  0
 15  5  1  0  0  0  0
 17 23  1  0  0  0  0
 17 18  1  0  0  0  0
 18 24  1  0  0  0  0
 19 18  2  0  0  0  0
 19  1  1  0  0  0  0
 20 19  1  0  0  0  0
 21 22  1  0  0  0  0
 21 20  2  0  0  0  0
 22 17  2  0  0  0  0
 25 21  1  0  0  0  0
 26  6  1  0  0  0  0
 27 32  1  0  0  0  0
 27 26  2  0  0  0  0
 28 29  2  0  0  0  0
 28 27  1  0  0  0  0
 29 30  1  0  0  0  0
 30 31  2  0  0  0  0
 31 26  1  0  0  0  0
 33 28  1  0  0  0  0
 34 29  1  0  0  0  0
 35 30  1  0  0  0  0
 35 36  1  0  0  0  0
 36 37  1  0  0  0  0
 38 39  1  0  0  0  0
 38 36  2  0  0  0  0
 40 42  1  0  0  0  0
 40 38  1  0  0  0  0
 41 40  1  0  0  0  0
 42 35  2  0  0  0  0
M  END
>  <minimizedAffinity>
-5.73282242

$$$$

 OpenBabel03242516513D

 42 45  0  0  1  0  0  0  0  0999 V2000
   38.3370   26.6980   41.2730 C   0  0  1  0  0  0  0  0  0  0  0  0
   39.3370   27.4860   42.0230 C   0  0  0  0  0  0  0  0  0  0  0  0
   38.9470   27.3350   43.4970 C   0  0  0  0  0  0  0  0  0  0  0  0
   37.6570   28.1180   43.6780 C   0  0  0  0  0  0  0  0  0  0  0  0
   36.5620   27.7100   42.7480 C   0  0  0  0  0  0  0  0  0  0  0  0
   36.9420   27.2710   41.3980 C   0  0  1  0  0  0  0  0  0  0  0  0
   38.2490   25.6820   41.7640 H   0  0  0  0  0  0  0  0  0  0  0  0
   39.3820   28.5470   41.7800 H   0  0  0  0  0  0  0  0  0  0  0  0
   40.3320   26.9910   41.9220 H   0  0  0  0  0  0  0  0  0  0  0  0
   39.7210   27.8320   44.0990 H   0  0  0  0  0  0  0  0  0  0  0  0
   38.8150   26.2740   43.7300 H   0  0  0  0  0  0  0  0  0  0  0  0
   37.3480   27.9590   44.7280 H   0  0  0  0  0  0  0  0  0  0  0  0
   37.9220   29.1900   43.5310 H   0  0  0  0  0  0  0  0  0  0  0  0
   35.9300   26.9520   43.2890 H   0  0  0  0  0  0  0  0  0  0  0  0
   35.8850   28.5930   42.6550 H   0  0  0  0  0  0  0  0  0  0  0  0
   36.2580   26.4160   41.1020 H   0  0  0  0  0  0  0  0  0  0  0  0
   39.9300   27.0110   37.8600 C   0  0  0  0  0  0  0  0  0  0  0  0
   39.5900   27.2070   39.1990 C   0  0  0  0  0  0  0  0  0  0  0  0
   38.6530   26.4370   39.8750 C   0  0  0  0  0  0  0  0  0  0  0  0
   38.0700   25.4660   39.1540 N   0  0  0  0  0  0  0  0  0  0  0  0
   38.3860   25.2590   37.8520 C   0  0  0  0  0  0  0  0  0  0  0  0
   39.2860   26.0030   37.2140 N   0  0  0  0  0  0  0  0  0  0  0  0
   40.6730   27.6530   37.3990 H   0  0  0  0  0  0  0  0  0  0  0  0
   40.0700   28.0030   39.7840 H   0  0  0  0  0  0  0  0  0  0  0  0
   37.8740   24.4550   37.3330 H   0  0  0  0  0  0  0  0  0  0  0  0
   36.6920   28.2980   40.3720 C   0  0  0  0  0  0  0  0  0  0  0  0
   35.9250   28.1500   39.2090 C   0  0  0  0  0  0  0  0  0  0  0  0
   35.8210   29.2950   38.4060 C   0  0  0  0  0  0  0  0  0  0  0  0
   36.4650   30.4480   38.8140 C   0  0  0  0  0  0  0  0  0  0  0  0
   37.2100   30.5670   39.9570 C   0  0  0  0  0  0  0  0  0  0  0  0
   37.3140   29.4650   40.7340 N   0  0  0  0  0  0  0  0  0  0  0  0
   35.5010   27.1770   39.0610 H   0  0  0  0  0  0  0  0  0  0  0  0
   35.2350   29.1630   37.5300 H   0  0  0  0  0  0  0  0  0  0  0  0
   36.3510   31.3040   38.1540 H   0  0  0  0  0  0  0  0  0  0  0  0
   37.8490   31.8400   40.2870 C   0  0  0  0  0  0  0  0  0  0  0  0
   37.5580   33.0770   39.7470 C   0  0  0  0  0  0  0  0  0  0  0  0
   36.8010   33.2240   38.9980 H   0  0  0  0  0  0  0  0  0  0  0  0
   38.4410   33.9450   40.3950 C   0  0  0  0  0  0  0  0  0  0  0  0
   38.3860   35.0090   40.1140 H   0  0  0  0  0  0  0  0  0  0  0  0
   39.2060   33.2450   41.2700 N   0  0  0  0  0  0  0  0  0  0  0  0
   39.9020   33.8130   41.8070 H   0  0  0  0  0  0  0  0  0  0  0  0
   38.8240   31.9600   41.1850 N   0  0  0  0  0  0  0  0  0  0  0  0
  1  6  1  0  0  0  0
  1  7  1  1  0  0  0
  1  2  1  0  0  0  0
  2  3  1  0  0  0  0
  3  4  1  0  0  0  0
  3 11  1  0  0  0  0
  3 10  1  0  0  0  0
  4 12  1  0  0  0  0
  5 14  1  0  0  0  0
  5  4  1  0  0  0  0
  6 16  1  6  0  0  0
  6  5  1  0  0  0  0
  8  2  1  0  0  0  0
  9  2  1  0  0  0  0
 13  4  1  0  0  0  0
 15  5  1  0  0  0  0
 17 18  1  0  0  0  0
 18 24  1  0  0  0  0
 18 19  2  0  0  0  0
 19  1  1  0  0  0  0
 20 19  1  0  0  0  0
 21 20  2  0  0  0  0
 22 21  1  0  0  0  0
 22 17  2  0  0  0  0
 23 17  1  0  0  0  0
 25 21  1  0  0  0  0
 26 31  1  0  0  0  0
 26  6  1  0  0  0  0
 27 26  2  0  0  0  0
 28 29  2  0  0  0  0
 28 27  1  0  0  0  0
 29 30  1  0  0  0  0
 30 35  1  0  0  0  0
 30 31  2  0  0  0  0
 32 27  1  0  0  0  0
 33 28  1  0  0  0  0
 34 29  1  0  0  0  0
 35 42  2  0  0  0  0
 36 35  1  0  0  0  0
 36 38  2  0  0  0  0
 37 36  1  0  0  0  0
 38 40  1  0  0  0  0
 39 38  1  0  0  0  0
 40 41  1  0  0  0  0
 42 40  1  0  0  0  0
M  END
>  <minimizedAffinity>
-5.68679285

$$$$

 OpenBabel03242516513D

 42 45  0  0  1  0  0  0  0  0999 V2000
   37.2130   27.1470   40.9750 C   0  0  1  0  0  0  0  0  0  0  0  0
   38.5980   26.7780   41.3340 C   0  0  0  0  0  0  0  0  0  0  0  0
   38.5040   26.1720   42.7390 C   0  0  0  0  0  0  0  0  0  0  0  0
   38.1790   27.3230   43.6760 C   0  0  0  0  0  0  0  0  0  0  0  0
   36.9560   28.0920   43.2980 C   0  0  0  0  0  0  0  0  0  0  0  0
   36.6590   28.2390   41.8660 C   0  0  1  0  0  0  0  0  0  0  0  0
   36.5440   26.2620   41.1980 H   0  0  0  0  0  0  0  0  0  0  0  0
   39.3160   27.5980   41.3540 H   0  0  0  0  0  0  0  0  0  0  0  0
   38.9310   25.9460   40.6690 H   0  0  0  0  0  0  0  0  0  0  0  0
   39.5020   25.7990   43.0080 H   0  0  0  0  0  0  0  0  0  0  0  0
   37.7230   25.4060   42.7510 H   0  0  0  0  0  0  0  0  0  0  0  0
   38.0550   26.8740   44.6800 H   0  0  0  0  0  0  0  0  0  0  0  0
   39.0760   27.9840   43.6790 H   0  0  0  0  0  0  0  0  0  0  0  0
   36.0960   27.6550   43.8770 H   0  0  0  0  0  0  0  0  0  0  0  0
   37.0760   29.1090   43.7400 H   0  0  0  0  0  0  0  0  0  0  0  0
   35.5360   28.1700   41.7320 H   0  0  0  0  0  0  0  0  0  0  0  0
   37.8810   28.1850   37.4040 C   0  0  0  0  0  0  0  0  0  0  0  0
   38.0370   27.8530   38.7500 C   0  0  0  0  0  0  0  0  0  0  0  0
   36.9860   27.4740   39.5740 C   0  0  0  0  0  0  0  0  0  0  0  0
   35.7750   27.4440   38.9950 N   0  0  0  0  0  0  0  0  0  0  0  0
   35.6030   27.7630   37.6890 C   0  0  0  0  0  0  0  0  0  0  0  0
   36.6180   28.1240   36.9070 N   0  0  0  0  0  0  0  0  0  0  0  0
   38.7510   28.4710   36.8220 H   0  0  0  0  0  0  0  0  0  0  0  0
   39.0290   27.8800   39.2190 H   0  0  0  0  0  0  0  0  0  0  0  0
   34.5940   27.7150   37.2890 H   0  0  0  0  0  0  0  0  0  0  0  0
   36.9980   29.5760   41.3470 C   0  0  0  0  0  0  0  0  0  0  0  0
   36.1620   30.4230   40.6080 C   0  0  0  0  0  0  0  0  0  0  0  0
   36.7200   31.6600   40.2550 C   0  0  0  0  0  0  0  0  0  0  0  0
   38.0140   31.9390   40.6530 C   0  0  0  0  0  0  0  0  0  0  0  0
   38.8110   31.0920   41.3760 C   0  0  0  0  0  0  0  0  0  0  0  0
   38.2780   29.8980   41.7180 N   0  0  0  0  0  0  0  0  0  0  0  0
   35.1880   30.0310   40.3930 H   0  0  0  0  0  0  0  0  0  0  0  0
   36.0710   32.2880   39.6960 H   0  0  0  0  0  0  0  0  0  0  0  0
   38.3950   32.9110   40.3520 H   0  0  0  0  0  0  0  0  0  0  0  0
   40.1690   31.4950   41.7410 C   0  0  0  0  0  0  0  0  0  0  0  0
   41.0510   32.2240   40.9690 C   0  0  0  0  0  0  0  0  0  0  0  0
   40.8100   32.5780   39.9830 H   0  0  0  0  0  0  0  0  0  0  0  0
   42.1920   32.3330   41.7700 C   0  0  0  0  0  0  0  0  0  0  0  0
   43.0440   32.8870   41.3470 H   0  0  0  0  0  0  0  0  0  0  0  0
   41.9790   31.6980   42.9500 N   0  0  0  0  0  0  0  0  0  0  0  0
   42.7810   31.7250   43.6220 H   0  0  0  0  0  0  0  0  0  0  0  0
   40.7340   31.1940   42.9080 N   0  0  0  0  0  0  0  0  0  0  0  0
  1  7  1  1  0  0  0
  1  2  1  0  0  0  0
  1  6  1  0  0  0  0
  2  8  1  0  0  0  0
  2  3  1  0  0  0  0
  3 11  1  0  0  0  0
  3 10  1  0  0  0  0
  3  4  1  0  0  0  0
  4 13  1  0  0  0  0
  4 12  1  0  0  0  0
  5  4  1  0  0  0  0
  5 15  1  0  0  0  0
  5 14  1  0  0  0  0
  6 16  1  6  0  0  0
  6  5  1  0  0  0  0
  9  2  1  0  0  0  0
 17 18  1  0  0  0  0
 18 24  1  0  0  0  0
 18 19  2  0  0  0  0
 19  1  1  0  0  0  0
 20 19  1  0  0  0  0
 21 20  2  0  0  0  0
 22 17  2  0  0  0  0
 22 21  1  0  0  0  0
 23 17  1  0  0  0  0
 25 21  1  0  0  0  0
 26 31  1  0  0  0  0
 26  6  1  0  0  0  0
 27 26  2  0  0  0  0
 28 27  1  0  0  0  0
 28 29  2  0  0  0  0
 29 30  1  0  0  0  0
 30 31  2  0  0  0  0
 30 35  1  0  0  0  0
 32 27  1  0  0  0  0
 33 28  1  0  0  0  0
 34 29  1  0  0  0  0
 35 42  2  0  0  0  0
 36 35  1  0  0  0  0
 36 38  2  0  0  0  0
 37 36  1  0  0  0  0
 38 40  1  0  0  0  0
 39 38  1  0  0  0  0
 40 41  1  0  0  0  0
 42 40  1  0  0  0  0
M  END
>  <minimizedAffinity>
-5.56930065

$$$$
