
 OpenBabel03242523013D

 30 32  0  0  0  0  0  0  0  0999 V2000
   36.2100   30.8060   40.9670 C   0  0  0  0  0  0  0  0  0  0  0  0
   36.4180   29.4840   41.3730 C   0  0  0  0  0  0  0  0  0  0  0  0
   37.4620   28.7330   40.8780 C   0  0  0  0  0  0  0  0  0  0  0  0
   38.2670   29.3510   39.9820 N   0  0  0  0  0  0  0  0  0  0  0  0
   38.0740   30.6250   39.5850 C   0  0  0  0  0  0  0  0  0  0  0  0
   37.0370   31.3510   40.0860 N   0  0  0  0  0  0  0  0  0  0  0  0
   35.3720   31.3200   41.4040 H   0  0  0  0  0  0  0  0  0  0  0  0
   35.7530   29.0310   42.0890 H   0  0  0  0  0  0  0  0  0  0  0  0
   39.3830   28.3970   43.1330 Cl  0  0  0  0  0  0  0  0  0  0  0  0
   38.5810   27.1030   42.2920 C   0  0  0  0  0  0  0  0  0  0  0  0
   37.7190   27.3420   41.2740 C   0  0  0  0  0  0  0  0  0  0  0  0
   37.1490   26.2400   40.6880 C   0  0  0  0  0  0  0  0  0  0  0  0
   37.3930   24.9750   41.0600 C   0  0  0  0  0  0  0  0  0  0  0  0
   38.2660   24.7290   42.0910 C   0  0  0  0  0  0  0  0  0  0  0  0
   38.8620   25.8130   42.7080 C   0  0  0  0  0  0  0  0  0  0  0  0
   36.4450   26.4150   39.8590 H   0  0  0  0  0  0  0  0  0  0  0  0
   38.5200   23.7360   42.4550 H   0  0  0  0  0  0  0  0  0  0  0  0
   39.5540   25.6360   43.5230 H   0  0  0  0  0  0  0  0  0  0  0  0
   36.7710   23.7890   40.4200 C   0  0  0  0  0  0  0  0  0  0  0  0
   37.4610   22.6780   40.8020 F   0  0  0  0  0  0  0  0  0  0  0  0
   36.7510   23.9180   39.0340 F   0  0  0  0  0  0  0  0  0  0  0  0
   35.4580   23.6930   40.8420 F   0  0  0  0  0  0  0  0  0  0  0  0
   38.9830   31.2250   38.6150 C   0  0  0  0  0  0  0  0  0  0  0  0
   40.3630   31.3810   38.6670 C   0  0  0  0  0  0  0  0  0  0  0  0
   40.9870   31.0570   39.4900 H   0  0  0  0  0  0  0  0  0  0  0  0
   40.6920   32.0100   37.4820 C   0  0  0  0  0  0  0  0  0  0  0  0
   41.6990   32.2900   37.1840 H   0  0  0  0  0  0  0  0  0  0  0  0
   39.5890   32.2300   36.7440 N   0  0  0  0  0  0  0  0  0  0  0  0
   39.4650   32.6770   35.8060 H   0  0  0  0  0  0  0  0  0  0  0  0
   38.5670   31.7550   37.4310 N   0  0  0  0  0  0  0  0  0  0  0  0
  1  2  1  0  0  0  0
  1  7  1  0  0  0  0
  2  8  1  0  0  0  0
  3 11  1  0  0  0  0
  3  2  2  0  0  0  0
  4  3  1  0  0  0  0
  5  4  2  0  0  0  0
  5  6  1  0  0  0  0
  6  1  2  0  0  0  0
 10 15  1  0  0  0  0
 10  9  1  0  0  0  0
 11 10  2  0  0  0  0
 12 13  2  0  0  0  0
 12 11  1  0  0  0  0
 13 14  1  0  0  0  0
 14 17  1  0  0  0  0
 14 15  2  0  0  0  0
 15 18  1  0  0  0  0
 16 12  1  0  0  0  0
 19 20  1  0  0  0  0
 19 22  1  0  0  0  0
 19 13  1  0  0  0  0
 21 19  1  0  0  0  0
 23 24  1  0  0  0  0
 23  5  1  0  0  0  0
 24 25  1  0  0  0  0
 26 24  2  0  0  0  0
 27 26  1  0  0  0  0
 28 30  1  0  0  0  0
 28 26  1  0  0  0  0
 29 28  1  0  0  0  0
 30 23  2  0  0  0  0
M  END
>  <minimizedAffinity>
-5.87518311

$$$$

 OpenBabel03242523013D

 30 32  0  0  0  0  0  0  0  0999 V2000
   36.5130   29.8380   37.0380 C   0  0  0  0  0  0  0  0  0  0  0  0
   36.3580   28.9560   38.1120 C   0  0  0  0  0  0  0  0  0  0  0  0
   37.1930   28.9990   39.2070 C   0  0  0  0  0  0  0  0  0  0  0  0
   38.1650   29.9410   39.1780 N   0  0  0  0  0  0  0  0  0  0  0  0
   38.3220   30.7950   38.1460 C   0  0  0  0  0  0  0  0  0  0  0  0
   37.4870   30.7380   37.0730 N   0  0  0  0  0  0  0  0  0  0  0  0
   35.8180   29.7360   36.2240 H   0  0  0  0  0  0  0  0  0  0  0  0
   35.5710   28.2220   38.0950 H   0  0  0  0  0  0  0  0  0  0  0  0
   36.5510   30.3300   41.7970 Cl  0  0  0  0  0  0  0  0  0  0  0  0
   36.7780   28.6190   41.5720 C   0  0  0  0  0  0  0  0  0  0  0  0
   37.0690   28.0940   40.3580 C   0  0  0  0  0  0  0  0  0  0  0  0
   37.2250   26.7320   40.3060 C   0  0  0  0  0  0  0  0  0  0  0  0
   37.1080   25.9170   41.3650 C   0  0  0  0  0  0  0  0  0  0  0  0
   36.8150   26.4470   42.5970 C   0  0  0  0  0  0  0  0  0  0  0  0
   36.6490   27.8160   42.6910 C   0  0  0  0  0  0  0  0  0  0  0  0
   37.4610   26.2860   39.3270 H   0  0  0  0  0  0  0  0  0  0  0  0
   36.7030   25.8590   43.5060 H   0  0  0  0  0  0  0  0  0  0  0  0
   36.4170   28.2490   43.6570 H   0  0  0  0  0  0  0  0  0  0  0  0
   37.2800   24.4440   41.3000 C   0  0  0  0  0  0  0  0  0  0  0  0
   38.2190   24.1580   40.3550 F   0  0  0  0  0  0  0  0  0  0  0  0
   36.0720   23.8100   41.0190 F   0  0  0  0  0  0  0  0  0  0  0  0
   37.7030   23.9900   42.5350 F   0  0  0  0  0  0  0  0  0  0  0  0
   39.3930   31.7850   38.1850 C   0  0  0  0  0  0  0  0  0  0  0  0
   39.8600   32.5490   39.2470 C   0  0  0  0  0  0  0  0  0  0  0  0
   39.4640   32.5090   40.2530 H   0  0  0  0  0  0  0  0  0  0  0  0
   40.8810   33.3100   38.7110 C   0  0  0  0  0  0  0  0  0  0  0  0
   41.4780   34.0300   39.2660 H   0  0  0  0  0  0  0  0  0  0  0  0
   41.0370   33.0350   37.4030 N   0  0  0  0  0  0  0  0  0  0  0  0
   41.7040   33.4170   36.6930 H   0  0  0  0  0  0  0  0  0  0  0  0
   40.1390   32.1180   37.0950 N   0  0  0  0  0  0  0  0  0  0  0  0
  1  6  2  0  0  0  0
  1  2  1  0  0  0  0
  2  3  2  0  0  0  0
  3 11  1  0  0  0  0
  4  3  1  0  0  0  0
  5 23  1  0  0  0  0
  5  4  2  0  0  0  0
  6  5  1  0  0  0  0
  7  1  1  0  0  0  0
  8  2  1  0  0  0  0
 10  9  1  0  0  0  0
 10 15  1  0  0  0  0
 11 10  2  0  0  0  0
 12 11  1  0  0  0  0
 12 13  2  0  0  0  0
 13 14  1  0  0  0  0
 14 15  2  0  0  0  0
 14 17  1  0  0  0  0
 15 18  1  0  0  0  0
 16 12  1  0  0  0  0
 19 13  1  0  0  0  0
 19 22  1  0  0  0  0
 20 19  1  0  0  0  0
 21 19  1  0  0  0  0
 23 24  1  0  0  0  0
 24 25  1  0  0  0  0
 26 24  2  0  0  0  0
 26 27  1  0  0  0  0
 28 26  1  0  0  0  0
 29 28  1  0  0  0  0
 30 28  1  0  0  0  0
 30 23  2  0  0  0  0
M  END
>  <minimizedAffinity>
-5.70826006

$$$$

 OpenBabel03242523013D

 30 32  0  0  0  0  0  0  0  0999 V2000
   36.2130   30.8450   41.0280 C   0  0  0  0  0  0  0  0  0  0  0  0
   36.0530   29.4660   40.8620 C   0  0  0  0  0  0  0  0  0  0  0  0
   36.8390   28.7490   39.9860 C   0  0  0  0  0  0  0  0  0  0  0  0
   37.7680   29.4580   39.3030 N   0  0  0  0  0  0  0  0  0  0  0  0
   37.9290   30.7870   39.4560 C   0  0  0  0  0  0  0  0  0  0  0  0
   37.1440   31.4790   40.3260 N   0  0  0  0  0  0  0  0  0  0  0  0
   35.5590   31.3270   41.7320 H   0  0  0  0  0  0  0  0  0  0  0  0
   35.3020   28.9400   41.4260 H   0  0  0  0  0  0  0  0  0  0  0  0
   35.2770   27.9560   37.5740 Cl  0  0  0  0  0  0  0  0  0  0  0  0
   36.0120   26.8560   38.7040 C   0  0  0  0  0  0  0  0  0  0  0  0
   36.7070   27.3000   39.7780 C   0  0  0  0  0  0  0  0  0  0  0  0
   37.2400   26.3370   40.5980 C   0  0  0  0  0  0  0  0  0  0  0  0
   37.1120   25.0180   40.3960 C   0  0  0  0  0  0  0  0  0  0  0  0
   36.4080   24.5650   39.3080 C   0  0  0  0  0  0  0  0  0  0  0  0
   35.8540   25.5040   38.4570 C   0  0  0  0  0  0  0  0  0  0  0  0
   37.8100   26.6790   41.4770 H   0  0  0  0  0  0  0  0  0  0  0  0
   36.2550   23.5140   39.0700 H   0  0  0  0  0  0  0  0  0  0  0  0
   35.2950   25.1620   37.5940 H   0  0  0  0  0  0  0  0  0  0  0  0
   37.6930   23.9830   41.2880 C   0  0  0  0  0  0  0  0  0  0  0  0
   37.3510   22.7550   40.8080 F   0  0  0  0  0  0  0  0  0  0  0  0
   37.2580   24.1500   42.6000 F   0  0  0  0  0  0  0  0  0  0  0  0
   39.0680   24.1190   41.2910 F   0  0  0  0  0  0  0  0  0  0  0  0
   38.9520   31.4850   38.6850 C   0  0  0  0  0  0  0  0  0  0  0  0
   40.1570   32.0380   39.1010 C   0  0  0  0  0  0  0  0  0  0  0  0
   40.5190   32.0240   40.1200 H   0  0  0  0  0  0  0  0  0  0  0  0
   40.7170   32.5660   37.9540 C   0  0  0  0  0  0  0  0  0  0  0  0
   41.6740   33.0810   37.9080 H   0  0  0  0  0  0  0  0  0  0  0  0
   39.9130   32.3530   36.8960 N   0  0  0  0  0  0  0  0  0  0  0  0
   40.0170   32.6120   35.8880 H   0  0  0  0  0  0  0  0  0  0  0  0
   38.8550   31.7030   37.3440 N   0  0  0  0  0  0  0  0  0  0  0  0
  1  7  1  0  0  0  0
  2  1  1  0  0  0  0
  2  8  1  0  0  0  0
  3  2  2  0  0  0  0
  4  5  2  0  0  0  0
  4  3  1  0  0  0  0
  5  6  1  0  0  0  0
  6  1  2  0  0  0  0
  9 10  1  0  0  0  0
 10 11  1  0  0  0  0
 11  3  1  0  0  0  0
 11 12  2  0  0  0  0
 12 16  1  0  0  0  0
 13 12  1  0  0  0  0
 13 19  1  0  0  0  0
 14 13  2  0  0  0  0
 15 10  2  0  0  0  0
 15 14  1  0  0  0  0
 17 14  1  0  0  0  0
 18 15  1  0  0  0  0
 19 22  1  0  0  0  0
 19 21  1  0  0  0  0
 20 19  1  0  0  0  0
 23 24  1  0  0  0  0
 23  5  1  0  0  0  0
 24 25  1  0  0  0  0
 26 24  2  0  0  0  0
 27 26  1  0  0  0  0
 28 30  1  0  0  0  0
 28 26  1  0  0  0  0
 29 28  1  0  0  0  0
 30 23  2  0  0  0  0
M  END
>  <minimizedAffinity>
-5.68971205

$$$$

 OpenBabel03242523013D

 30 32  0  0  0  0  0  0  0  0999 V2000
   37.0730   31.6550   38.9390 C   0  0  0  0  0  0  0  0  0  0  0  0
   37.0400   30.6110   39.8690 C   0  0  0  0  0  0  0  0  0  0  0  0
   38.1510   29.8380   40.1250 C   0  0  0  0  0  0  0  0  0  0  0  0
   39.2670   30.1500   39.4250 N   0  0  0  0  0  0  0  0  0  0  0  0
   39.3070   31.1530   38.5260 C   0  0  0  0  0  0  0  0  0  0  0  0
   38.2000   31.9070   38.2870 N   0  0  0  0  0  0  0  0  0  0  0  0
   36.1610   32.2080   38.8010 H   0  0  0  0  0  0  0  0  0  0  0  0
   36.1310   30.3970   40.4050 H   0  0  0  0  0  0  0  0  0  0  0  0
   39.3380   30.4960   42.7800 Cl  0  0  0  0  0  0  0  0  0  0  0  0
   38.6870   28.9490   42.3230 C   0  0  0  0  0  0  0  0  0  0  0  0
   38.1650   28.7320   41.0930 C   0  0  0  0  0  0  0  0  0  0  0  0
   37.6820   27.4700   40.8500 C   0  0  0  0  0  0  0  0  0  0  0  0
   37.7010   26.4700   41.7430 C   0  0  0  0  0  0  0  0  0  0  0  0
   38.2300   26.6860   42.9910 C   0  0  0  0  0  0  0  0  0  0  0  0
   38.7270   27.9450   43.2750 C   0  0  0  0  0  0  0  0  0  0  0  0
   37.2530   27.2750   39.8540 H   0  0  0  0  0  0  0  0  0  0  0  0
   38.2850   25.9320   43.7730 H   0  0  0  0  0  0  0  0  0  0  0  0
   39.1480   28.1310   44.2560 H   0  0  0  0  0  0  0  0  0  0  0  0
   37.1770   25.1080   41.4720 C   0  0  0  0  0  0  0  0  0  0  0  0
   38.2320   24.2640   41.2930 F   0  0  0  0  0  0  0  0  0  0  0  0
   36.3350   25.1050   40.3630 F   0  0  0  0  0  0  0  0  0  0  0  0
   36.4250   24.6960   42.5570 F   0  0  0  0  0  0  0  0  0  0  0  0
   40.5470   31.4320   37.8090 C   0  0  0  0  0  0  0  0  0  0  0  0
   41.5480   30.5630   37.3920 C   0  0  0  0  0  0  0  0  0  0  0  0
   41.5410   29.4940   37.5570 H   0  0  0  0  0  0  0  0  0  0  0  0
   42.4770   31.3700   36.7650 C   0  0  0  0  0  0  0  0  0  0  0  0
   43.4020   31.0210   36.3120 H   0  0  0  0  0  0  0  0  0  0  0  0
   42.0780   32.6550   36.7900 N   0  0  0  0  0  0  0  0  0  0  0  0
   42.5250   33.5230   36.4160 H   0  0  0  0  0  0  0  0  0  0  0  0
   40.9170   32.6830   37.4190 N   0  0  0  0  0  0  0  0  0  0  0  0
  1  2  1  0  0  0  0
  2  3  2  0  0  0  0
  2  8  1  0  0  0  0
  3 11  1  0  0  0  0
  4  3  1  0  0  0  0
  5  4  2  0  0  0  0
  6  5  1  0  0  0  0
  6  1  2  0  0  0  0
  7  1  1  0  0  0  0
 10  9  1  0  0  0  0
 10 15  1  0  0  0  0
 11 10  2  0  0  0  0
 12 11  1  0  0  0  0
 12 13  2  0  0  0  0
 13 14  1  0  0  0  0
 14 15  2  0  0  0  0
 14 17  1  0  0  0  0
 15 18  1  0  0  0  0
 16 12  1  0  0  0  0
 19 13  1  0  0  0  0
 19 22  1  0  0  0  0
 20 19  1  0  0  0  0
 21 19  1  0  0  0  0
 23  5  1  0  0  0  0
 24 25  1  0  0  0  0
 24 23  1  0  0  0  0
 26 28  1  0  0  0  0
 26 24  2  0  0  0  0
 27 26  1  0  0  0  0
 28 30  1  0  0  0  0
 29 28  1  0  0  0  0
 30 23  2  0  0  0  0
M  END
>  <minimizedAffinity>
-5.61652851

$$$$

 OpenBabel03242523013D

 30 32  0  0  0  0  0  0  0  0999 V2000
   37.6200   33.4660   39.9270 C   0  0  0  0  0  0  0  0  0  0  0  0
   37.1430   32.1580   40.0630 C   0  0  0  0  0  0  0  0  0  0  0  0
   38.0000   31.0860   40.1820 C   0  0  0  0  0  0  0  0  0  0  0  0
   39.3220   31.3770   40.1590 N   0  0  0  0  0  0  0  0  0  0  0  0
   39.7910   32.6340   40.0280 C   0  0  0  0  0  0  0  0  0  0  0  0
   38.9280   33.6800   39.9120 N   0  0  0  0  0  0  0  0  0  0  0  0
   36.8820   34.2430   39.8400 H   0  0  0  0  0  0  0  0  0  0  0  0
   36.0820   31.9720   40.0770 H   0  0  0  0  0  0  0  0  0  0  0  0
   37.2430   29.7340   37.6350 Cl  0  0  0  0  0  0  0  0  0  0  0  0
   37.1830   29.0100   39.2170 C   0  0  0  0  0  0  0  0  0  0  0  0
   37.5460   29.6960   40.3270 C   0  0  0  0  0  0  0  0  0  0  0  0
   37.4560   29.0190   41.5170 C   0  0  0  0  0  0  0  0  0  0  0  0
   37.0390   27.7500   41.6340 C   0  0  0  0  0  0  0  0  0  0  0  0
   36.6700   27.0520   40.5110 C   0  0  0  0  0  0  0  0  0  0  0  0
   36.7470   27.6990   39.2920 C   0  0  0  0  0  0  0  0  0  0  0  0
   37.7470   29.5620   42.4310 H   0  0  0  0  0  0  0  0  0  0  0  0
   36.3210   26.0220   40.5170 H   0  0  0  0  0  0  0  0  0  0  0  0
   36.4590   27.1620   38.3960 H   0  0  0  0  0  0  0  0  0  0  0  0
   36.9450   27.0260   42.9270 C   0  0  0  0  0  0  0  0  0  0  0  0
   36.8850   25.6890   42.6710 F   0  0  0  0  0  0  0  0  0  0  0  0
   35.8410   27.4490   43.6610 F   0  0  0  0  0  0  0  0  0  0  0  0
   38.0700   27.3090   43.6790 F   0  0  0  0  0  0  0  0  0  0  0  0
   41.2300   32.8700   40.0110 C   0  0  0  0  0  0  0  0  0  0  0  0
   41.9350   34.0680   39.9860 C   0  0  0  0  0  0  0  0  0  0  0  0
   41.4790   35.0480   39.9720 H   0  0  0  0  0  0  0  0  0  0  0  0
   43.2650   33.6930   39.9810 C   0  0  0  0  0  0  0  0  0  0  0  0
   44.1060   34.3830   39.9630 H   0  0  0  0  0  0  0  0  0  0  0  0
   43.3780   32.3530   40.0030 N   0  0  0  0  0  0  0  0  0  0  0  0
   44.2190   31.7310   40.0070 H   0  0  0  0  0  0  0  0  0  0  0  0
   42.1510   31.8660   40.0220 N   0  0  0  0  0  0  0  0  0  0  0  0
  1  2  1  0  0  0  0
  2  8  1  0  0  0  0
  2  3  2  0  0  0  0
  3 11  1  0  0  0  0
  4  3  1  0  0  0  0
  5  4  2  0  0  0  0
  6  1  2  0  0  0  0
  6  5  1  0  0  0  0
  7  1  1  0  0  0  0
  9 10  1  0  0  0  0
 10 15  2  0  0  0  0
 10 11  1  0  0  0  0
 11 12  2  0  0  0  0
 12 13  1  0  0  0  0
 12 16  1  0  0  0  0
 13 19  1  0  0  0  0
 14 17  1  0  0  0  0
 14 13  2  0  0  0  0
 15 14  1  0  0  0  0
 18 15  1  0  0  0  0
 19 21  1  0  0  0  0
 19 22  1  0  0  0  0
 20 19  1  0  0  0  0
 23 30  2  0  0  0  0
 23  5  1  0  0  0  0
 24 23  1  0  0  0  0
 25 24  1  0  0  0  0
 26 24  2  0  0  0  0
 26 28  1  0  0  0  0
 27 26  1  0  0  0  0
 28 29  1  0  0  0  0
 28 30  1  0  0  0  0
M  END
>  <minimizedAffinity>
-5.57858038

$$$$

 OpenBabel03242523013D

 30 32  0  0  0  0  0  0  0  0999 V2000
   40.7540   28.3710   37.0790 C   0  0  0  0  0  0  0  0  0  0  0  0
   39.6770   28.1040   37.9310 C   0  0  0  0  0  0  0  0  0  0  0  0
   39.1190   29.0870   38.7180 C   0  0  0  0  0  0  0  0  0  0  0  0
   39.6750   30.3180   38.6150 N   0  0  0  0  0  0  0  0  0  0  0  0
   40.7120   30.5840   37.7970 C   0  0  0  0  0  0  0  0  0  0  0  0
   41.2500   29.5990   37.0260 N   0  0  0  0  0  0  0  0  0  0  0  0
   41.1280   27.5460   36.4990 H   0  0  0  0  0  0  0  0  0  0  0  0
   39.2660   27.1100   37.9820 H   0  0  0  0  0  0  0  0  0  0  0  0
   36.5090   30.1930   37.7960 Cl  0  0  0  0  0  0  0  0  0  0  0  0
   36.7670   29.3250   39.2820 C   0  0  0  0  0  0  0  0  0  0  0  0
   37.9890   28.8550   39.6280 C   0  0  0  0  0  0  0  0  0  0  0  0
   38.0680   28.1860   40.8230 C   0  0  0  0  0  0  0  0  0  0  0  0
   37.0270   27.9810   41.6440 C   0  0  0  0  0  0  0  0  0  0  0  0
   35.7870   28.4570   41.2970 C   0  0  0  0  0  0  0  0  0  0  0  0
   35.6660   29.1360   40.0990 C   0  0  0  0  0  0  0  0  0  0  0  0
   39.0540   27.7960   41.1210 H   0  0  0  0  0  0  0  0  0  0  0  0
   34.8920   28.3350   41.9030 H   0  0  0  0  0  0  0  0  0  0  0  0
   34.6940   29.5180   39.8110 H   0  0  0  0  0  0  0  0  0  0  0  0
   37.1220   27.2570   42.9360 C   0  0  0  0  0  0  0  0  0  0  0  0
   35.9560   27.4330   43.6190 F   0  0  0  0  0  0  0  0  0  0  0  0
   38.2140   27.6970   43.6800 F   0  0  0  0  0  0  0  0  0  0  0  0
   37.3160   25.9120   42.6790 F   0  0  0  0  0  0  0  0  0  0  0  0
   41.2580   31.9350   37.7390 C   0  0  0  0  0  0  0  0  0  0  0  0
   41.0310   33.0240   38.5730 C   0  0  0  0  0  0  0  0  0  0  0  0
   40.3730   33.0120   39.4320 H   0  0  0  0  0  0  0  0  0  0  0  0
   41.8070   34.0380   38.0470 C   0  0  0  0  0  0  0  0  0  0  0  0
   41.8740   35.0450   38.4530 H   0  0  0  0  0  0  0  0  0  0  0  0
   42.4730   33.6080   36.9600 N   0  0  0  0  0  0  0  0  0  0  0  0
   43.1400   34.0980   36.3210 H   0  0  0  0  0  0  0  0  0  0  0  0
   42.1380   32.3430   36.7820 N   0  0  0  0  0  0  0  0  0  0  0  0
  1  2  1  0  0  0  0
  2  8  1  0  0  0  0
  2  3  2  0  0  0  0
  3 11  1  0  0  0  0
  4  3  1  0  0  0  0
  5  4  2  0  0  0  0
  6  1  2  0  0  0  0
  6  5  1  0  0  0  0
  7  1  1  0  0  0  0
  9 10  1  0  0  0  0
 10 11  2  0  0  0  0
 10 15  1  0  0  0  0
 11 12  1  0  0  0  0
 12 16  1  0  0  0  0
 12 13  2  0  0  0  0
 13 19  1  0  0  0  0
 14 13  1  0  0  0  0
 14 17  1  0  0  0  0
 15 14  2  0  0  0  0
 18 15  1  0  0  0  0
 19 20  1  0  0  0  0
 19 21  1  0  0  0  0
 22 19  1  0  0  0  0
 23  5  1  0  0  0  0
 23 24  1  0  0  0  0
 24 25  1  0  0  0  0
 26 27  1  0  0  0  0
 26 24  2  0  0  0  0
 28 26  1  0  0  0  0
 29 28  1  0  0  0  0
 30 28  1  0  0  0  0
 30 23  2  0  0  0  0
M  END
>  <minimizedAffinity>
-5.55930901

$$$$

 OpenBabel03242523013D

 30 32  0  0  0  0  0  0  0  0999 V2000
   37.6810   28.4920   43.6730 C   0  0  0  0  0  0  0  0  0  0  0  0
   37.7690   29.4330   42.6420 C   0  0  0  0  0  0  0  0  0  0  0  0
   37.8760   29.0500   41.3230 C   0  0  0  0  0  0  0  0  0  0  0  0
   37.8890   27.7170   41.0890 N   0  0  0  0  0  0  0  0  0  0  0  0
   37.8040   26.8030   42.0760 C   0  0  0  0  0  0  0  0  0  0  0  0
   37.6990   27.2000   43.3740 N   0  0  0  0  0  0  0  0  0  0  0  0
   37.6000   28.8760   44.6730 H   0  0  0  0  0  0  0  0  0  0  0  0
   37.7550   30.4850   42.8720 H   0  0  0  0  0  0  0  0  0  0  0  0
   35.3070   29.6090   39.9160 Cl  0  0  0  0  0  0  0  0  0  0  0  0
   36.8490   30.3110   39.5150 C   0  0  0  0  0  0  0  0  0  0  0  0
   37.9720   30.0020   40.2070 C   0  0  0  0  0  0  0  0  0  0  0  0
   39.1270   30.6190   39.7980 C   0  0  0  0  0  0  0  0  0  0  0  0
   39.2000   31.4860   38.7780 C   0  0  0  0  0  0  0  0  0  0  0  0
   38.0640   31.8000   38.0740 C   0  0  0  0  0  0  0  0  0  0  0  0
   36.8790   31.2000   38.4560 C   0  0  0  0  0  0  0  0  0  0  0  0
   40.0510   30.3800   40.3490 H   0  0  0  0  0  0  0  0  0  0  0  0
   38.0340   32.4920   37.2350 H   0  0  0  0  0  0  0  0  0  0  0  0
   35.9730   31.4370   37.9100 H   0  0  0  0  0  0  0  0  0  0  0  0
   40.4550   32.1480   38.3420 C   0  0  0  0  0  0  0  0  0  0  0  0
   41.5060   31.3440   38.6670 F   0  0  0  0  0  0  0  0  0  0  0  0
   40.5850   33.4080   38.9210 F   0  0  0  0  0  0  0  0  0  0  0  0
   40.4090   32.3300   36.9720 F   0  0  0  0  0  0  0  0  0  0  0  0
   37.8240   25.3810   41.7480 C   0  0  0  0  0  0  0  0  0  0  0  0
   36.9960   24.6510   40.9030 C   0  0  0  0  0  0  0  0  0  0  0  0
   36.1720   25.0680   40.3410 H   0  0  0  0  0  0  0  0  0  0  0  0
   37.4740   23.3570   40.9750 C   0  0  0  0  0  0  0  0  0  0  0  0
   37.0590   22.5090   40.4340 H   0  0  0  0  0  0  0  0  0  0  0  0
   38.5290   23.2890   41.8070 N   0  0  0  0  0  0  0  0  0  0  0  0
   39.1290   22.4820   42.0950 H   0  0  0  0  0  0  0  0  0  0  0  0
   38.7320   24.5090   42.2670 N   0  0  0  0  0  0  0  0  0  0  0  0
  1  7  1  0  0  0  0
  2  8  1  0  0  0  0
  2  1  2  0  0  0  0
  3  2  1  0  0  0  0
  4  3  2  0  0  0  0
  4  5  1  0  0  0  0
  5  6  2  0  0  0  0
  6  1  1  0  0  0  0
 10  9  1  0  0  0  0
 10 11  1  0  0  0  0
 11  3  1  0  0  0  0
 12 11  2  0  0  0  0
 12 16  1  0  0  0  0
 13 12  1  0  0  0  0
 14 15  1  0  0  0  0
 14 13  2  0  0  0  0
 15 10  2  0  0  0  0
 17 14  1  0  0  0  0
 18 15  1  0  0  0  0
 19 20  1  0  0  0  0
 19 13  1  0  0  0  0
 19 21  1  0  0  0  0
 22 19  1  0  0  0  0
 23  5  1  0  0  0  0
 23 30  2  0  0  0  0
 24 26  2  0  0  0  0
 24 23  1  0  0  0  0
 25 24  1  0  0  0  0
 26 28  1  0  0  0  0
 27 26  1  0  0  0  0
 28 29  1  0  0  0  0
 28 30  1  0  0  0  0
M  END
>  <minimizedAffinity>
-5.49719906

$$$$

 OpenBabel03242523013D

 30 32  0  0  0  0  0  0  0  0999 V2000
   40.7080   32.7390   40.3170 C   0  0  0  0  0  0  0  0  0  0  0  0
   39.5980   31.9960   40.7320 C   0  0  0  0  0  0  0  0  0  0  0  0
   39.2390   30.8230   40.1040 C   0  0  0  0  0  0  0  0  0  0  0  0
   40.0230   30.4390   39.0690 N   0  0  0  0  0  0  0  0  0  0  0  0
   41.0950   31.1480   38.6630 C   0  0  0  0  0  0  0  0  0  0  0  0
   41.4340   32.3040   39.2960 N   0  0  0  0  0  0  0  0  0  0  0  0
   40.9170   33.6410   40.8630 H   0  0  0  0  0  0  0  0  0  0  0  0
   39.0010   32.3380   41.5600 H   0  0  0  0  0  0  0  0  0  0  0  0
   36.7270   31.3770   38.5980 Cl  0  0  0  0  0  0  0  0  0  0  0  0
   36.9020   30.2000   39.8680 C   0  0  0  0  0  0  0  0  0  0  0  0
   38.0820   30.0100   40.5040 C   0  0  0  0  0  0  0  0  0  0  0  0
   38.0960   29.0540   41.4880 C   0  0  0  0  0  0  0  0  0  0  0  0
   37.0320   28.3190   41.8420 C   0  0  0  0  0  0  0  0  0  0  0  0
   35.8340   28.5090   41.2000 C   0  0  0  0  0  0  0  0  0  0  0  0
   35.7780   29.4640   40.2020 C   0  0  0  0  0  0  0  0  0  0  0  0
   39.0490   28.8850   42.0160 H   0  0  0  0  0  0  0  0  0  0  0  0
   34.9240   27.9580   41.4240 H   0  0  0  0  0  0  0  0  0  0  0  0
   34.8390   29.6270   39.6850 H   0  0  0  0  0  0  0  0  0  0  0  0
   37.0570   27.2860   42.9080 C   0  0  0  0  0  0  0  0  0  0  0  0
   38.1620   27.4850   43.6800 F   0  0  0  0  0  0  0  0  0  0  0  0
   37.0450   26.0040   42.3660 F   0  0  0  0  0  0  0  0  0  0  0  0
   35.9170   27.4160   43.6790 F   0  0  0  0  0  0  0  0  0  0  0  0
   41.8930   30.6710   37.5390 C   0  0  0  0  0  0  0  0  0  0  0  0
   42.9520   31.2810   36.8770 C   0  0  0  0  0  0  0  0  0  0  0  0
   43.3490   32.2570   37.1230 H   0  0  0  0  0  0  0  0  0  0  0  0
   43.3250   30.3770   35.9010 C   0  0  0  0  0  0  0  0  0  0  0  0
   44.1320   30.5280   35.1880 H   0  0  0  0  0  0  0  0  0  0  0  0
   42.5490   29.2790   35.9550 N   0  0  0  0  0  0  0  0  0  0  0  0
   42.5480   28.4070   35.3770 H   0  0  0  0  0  0  0  0  0  0  0  0
   41.6920   29.4630   36.9420 N   0  0  0  0  0  0  0  0  0  0  0  0
  1  2  1  0  0  0  0
  1  7  1  0  0  0  0
  2  8  1  0  0  0  0
  3 11  1  0  0  0  0
  3  2  2  0  0  0  0
  4  3  1  0  0  0  0
  5  4  2  0  0  0  0
  5  6  1  0  0  0  0
  6  1  2  0  0  0  0
  9 10  1  0  0  0  0
 10 15  2  0  0  0  0
 10 11  1  0  0  0  0
 11 12  2  0  0  0  0
 12 13  1  0  0  0  0
 12 16  1  0  0  0  0
 13 19  1  0  0  0  0
 14 17  1  0  0  0  0
 14 13  2  0  0  0  0
 15 14  1  0  0  0  0
 18 15  1  0  0  0  0
 19 22  1  0  0  0  0
 19 20  1  0  0  0  0
 21 19  1  0  0  0  0
 23  5  1  0  0  0  0
 24 25  1  0  0  0  0
 24 23  1  0  0  0  0
 26 28  1  0  0  0  0
 26 24  2  0  0  0  0
 27 26  1  0  0  0  0
 28 30  1  0  0  0  0
 29 28  1  0  0  0  0
 30 23  2  0  0  0  0
M  END
>  <minimizedAffinity>
-5.46749783

$$$$

 OpenBabel03242523013D

 30 32  0  0  0  0  0  0  0  0999 V2000
   39.3820   34.1500   40.4120 C   0  0  0  0  0  0  0  0  0  0  0  0
   38.4680   33.1230   40.6690 C   0  0  0  0  0  0  0  0  0  0  0  0
   38.6750   31.8410   40.2080 C   0  0  0  0  0  0  0  0  0  0  0  0
   39.8090   31.6410   39.4960 N   0  0  0  0  0  0  0  0  0  0  0  0
   40.6950   32.6250   39.2430 C   0  0  0  0  0  0  0  0  0  0  0  0
   40.4740   33.8850   39.7080 N   0  0  0  0  0  0  0  0  0  0  0  0
   39.1430   35.1200   40.8090 H   0  0  0  0  0  0  0  0  0  0  0  0
   37.5780   33.3260   41.2400 H   0  0  0  0  0  0  0  0  0  0  0  0
   39.1290   30.3510   42.7490 Cl  0  0  0  0  0  0  0  0  0  0  0  0
   37.8830   30.0020   41.5860 C   0  0  0  0  0  0  0  0  0  0  0  0
   37.7440   30.7310   40.4530 C   0  0  0  0  0  0  0  0  0  0  0  0
   36.7240   30.3610   39.6130 C   0  0  0  0  0  0  0  0  0  0  0  0
   35.8820   29.3450   39.8490 C   0  0  0  0  0  0  0  0  0  0  0  0
   36.0200   28.6040   40.9970 C   0  0  0  0  0  0  0  0  0  0  0  0
   37.0360   28.9450   41.8700 C   0  0  0  0  0  0  0  0  0  0  0  0
   36.5970   30.9420   38.6850 H   0  0  0  0  0  0  0  0  0  0  0  0
   35.3810   27.7650   41.2660 H   0  0  0  0  0  0  0  0  0  0  0  0
   37.1580   28.3700   42.7800 H   0  0  0  0  0  0  0  0  0  0  0  0
   34.7810   28.9510   38.9340 C   0  0  0  0  0  0  0  0  0  0  0  0
   33.5930   29.1780   39.5610 F   0  0  0  0  0  0  0  0  0  0  0  0
   34.9020   27.6200   38.5470 F   0  0  0  0  0  0  0  0  0  0  0  0
   34.8600   29.7200   37.7870 F   0  0  0  0  0  0  0  0  0  0  0  0
   41.8960   32.3340   38.4680 C   0  0  0  0  0  0  0  0  0  0  0  0
   43.2080   32.1560   38.8930 C   0  0  0  0  0  0  0  0  0  0  0  0
   43.5320   32.2150   39.9230 H   0  0  0  0  0  0  0  0  0  0  0  0
   43.9210   31.9060   37.7370 C   0  0  0  0  0  0  0  0  0  0  0  0
   44.9920   31.7180   37.6950 H   0  0  0  0  0  0  0  0  0  0  0  0
   43.1070   31.9260   36.6660 N   0  0  0  0  0  0  0  0  0  0  0  0
   43.3020   31.7810   35.6490 H   0  0  0  0  0  0  0  0  0  0  0  0
   41.8920   32.1840   37.1150 N   0  0  0  0  0  0  0  0  0  0  0  0
  1  2  1  0  0  0  0
  1  7  1  0  0  0  0
  2  8  1  0  0  0  0
  3 11  1  0  0  0  0
  3  2  2  0  0  0  0
  4  3  1  0  0  0  0
  5  4  2  0  0  0  0
  5  6  1  0  0  0  0
  6  1  2  0  0  0  0
 10 15  1  0  0  0  0
 10  9  1  0  0  0  0
 11 10  2  0  0  0  0
 12 13  2  0  0  0  0
 12 11  1  0  0  0  0
 13 14  1  0  0  0  0
 14 17  1  0  0  0  0
 14 15  2  0  0  0  0
 15 18  1  0  0  0  0
 16 12  1  0  0  0  0
 19 20  1  0  0  0  0
 19 13  1  0  0  0  0
 21 19  1  0  0  0  0
 22 19  1  0  0  0  0
 23 24  1  0  0  0  0
 23  5  1  0  0  0  0
 24 25  1  0  0  0  0
 26 24  2  0  0  0  0
 27 26  1  0  0  0  0
 28 30  1  0  0  0  0
 28 26  1  0  0  0  0
 29 28  1  0  0  0  0
 30 23  2  0  0  0  0
M  END
>  <minimizedAffinity>
-5.45274067

$$$$
