
 OpenBabel03252506513D

 30 33  0  0  0  0  0  0  0  0999 V2000
   47.3050   31.5050   44.8040 C   0  0  0  0  0  0  0  0  0  0  0  0
   46.9930   32.8370   44.7140 C   0  0  0  0  0  0  0  0  0  0  0  0
   46.2080   33.4950   45.6590 C   0  0  0  0  0  0  0  0  0  0  0  0
   45.7100   32.7760   46.7530 C   0  0  0  0  0  0  0  0  0  0  0  0
   44.9440   33.0500   47.8370 N   0  0  0  0  0  0  0  0  0  0  0  0
   44.7970   31.9130   48.5610 C   0  0  0  0  0  0  0  0  0  0  0  0
   45.4780   30.9370   47.9160 N   0  0  0  0  0  0  0  0  0  0  0  0
   46.0500   31.4360   46.8010 C   0  0  0  0  0  0  0  0  0  0  0  0
   46.8190   30.7730   45.8840 C   0  0  0  0  0  0  0  0  0  0  0  0
   47.9180   31.0440   44.0430 H   0  0  0  0  0  0  0  0  0  0  0  0
   45.9580   34.5470   45.5940 H   0  0  0  0  0  0  0  0  0  0  0  0
   44.5600   34.0250   48.0140 H   0  0  0  0  0  0  0  0  0  0  0  0
   44.2080   31.9510   49.4690 H   0  0  0  0  0  0  0  0  0  0  0  0
   47.1850   35.3210   42.0000 C   0  0  0  0  0  0  0  0  0  0  0  0
   48.4570   35.0930   41.4760 C   0  0  0  0  0  0  0  0  0  0  0  0
   49.2450   34.0900   42.0530 C   0  0  0  0  0  0  0  0  0  0  0  0
   48.7190   33.3860   43.1050 N   0  0  0  0  0  0  0  0  0  0  0  0
   47.4890   33.6220   43.5960 C   0  0  0  0  0  0  0  0  0  0  0  0
   46.7300   34.5890   43.0380 N   0  0  0  0  0  0  0  0  0  0  0  0
   46.5970   36.1060   41.5310 H   0  0  0  0  0  0  0  0  0  0  0  0
   48.8920   35.6360   40.6470 H   0  0  0  0  0  0  0  0  0  0  0  0
   50.2360   33.8120   41.7490 H   0  0  0  0  0  0  0  0  0  0  0  0
   47.1270   29.3530   46.0180 C   0  0  0  0  0  0  0  0  0  0  0  0
   46.4990   28.3400   45.3240 C   0  0  0  0  0  0  0  0  0  0  0  0
   45.7150   28.5000   44.6080 H   0  0  0  0  0  0  0  0  0  0  0  0
   47.0740   27.1540   45.7330 C   0  0  0  0  0  0  0  0  0  0  0  0
   46.7470   26.2070   45.3270 H   0  0  0  0  0  0  0  0  0  0  0  0
   48.0220   27.4730   46.6550 N   0  0  0  0  0  0  0  0  0  0  0  0
   48.5820   26.6910   47.0940 H   0  0  0  0  0  0  0  0  0  0  0  0
   48.0500   28.7970   46.8220 N   0  0  0  0  0  0  0  0  0  0  0  0
  1  9  1  0  0  0  0
  2  1  2  0  0  0  0
  2  3  1  0  0  0  0
  3  4  2  0  0  0  0
  4  8  1  0  0  0  0
  4  5  1  0  0  0  0
  5 12  1  0  0  0  0
  5  6  1  0  0  0  0
  6 13  1  0  0  0  0
  7  6  2  0  0  0  0
  8  7  1  0  0  0  0
  9 23  1  0  0  0  0
  9  8  2  0  0  0  0
 10  1  1  0  0  0  0
 11  3  1  0  0  0  0
 14 19  1  0  0  0  0
 15 14  2  0  0  0  0
 15 16  1  0  0  0  0
 16 17  2  0  0  0  0
 17 18  1  0  0  0  0
 18  2  1  0  0  0  0
 19 18  2  0  0  0  0
 20 14  1  0  0  0  0
 21 15  1  0  0  0  0
 22 16  1  0  0  0  0
 23 30  2  0  0  0  0
 24 26  2  0  0  0  0
 24 23  1  0  0  0  0
 25 24  1  0  0  0  0
 26 28  1  0  0  0  0
 27 26  1  0  0  0  0
 28 30  1  0  0  0  0
 28 29  1  0  0  0  0
M  END
>  <minimizedAffinity>
-5.06062651

>  <minimizedRMSD>
0.897758007

$$$$
