
 OpenBabel03252500113D

 30 32  0  0  0  0  0  0  0  0999 V2000
   37.5250   29.8530   37.2930 Cl  0  0  0  0  0  0  0  0  0  0  0  0
   35.8360   29.4420   37.3990 C   0  0  0  0  0  0  0  0  0  0  0  0
   35.2260   29.2600   38.6130 C   0  0  0  0  0  0  0  0  0  0  0  0
   33.8840   28.9320   38.7340 C   0  0  0  0  0  0  0  0  0  0  0  0
   33.1870   28.7970   37.5460 C   0  0  0  0  0  0  0  0  0  0  0  0
   33.7860   28.9760   36.3270 C   0  0  0  0  0  0  0  0  0  0  0  0
   35.0940   29.2950   36.2420 C   0  0  0  0  0  0  0  0  0  0  0  0
   33.4170   28.7920   39.7170 H   0  0  0  0  0  0  0  0  0  0  0  0
   32.1370   28.5410   37.6430 H   0  0  0  0  0  0  0  0  0  0  0  0
   33.2370   28.8690   35.3990 H   0  0  0  0  0  0  0  0  0  0  0  0
   37.3750   30.7230   41.2370 C   0  0  0  0  0  0  0  0  0  0  0  0
   37.5020   29.6570   42.1510 C   0  0  0  0  0  0  0  0  0  0  0  0
   36.8580   28.4700   41.8590 C   0  0  0  0  0  0  0  0  0  0  0  0
   36.1380   28.3810   40.7130 N   0  0  0  0  0  0  0  0  0  0  0  0
   36.0220   29.4180   39.8380 C   0  0  0  0  0  0  0  0  0  0  0  0
   36.6470   30.5850   40.1130 N   0  0  0  0  0  0  0  0  0  0  0  0
   37.8920   31.6300   41.5030 H   0  0  0  0  0  0  0  0  0  0  0  0
   38.0720   29.7100   43.0700 H   0  0  0  0  0  0  0  0  0  0  0  0
   36.9210   27.2630   42.7580 C   0  0  0  0  0  0  0  0  0  0  0  0
   38.1000   27.2360   43.4590 F   0  0  0  0  0  0  0  0  0  0  0  0
   35.8610   27.3260   43.6580 F   0  0  0  0  0  0  0  0  0  0  0  0
   36.7950   26.1670   41.9550 F   0  0  0  0  0  0  0  0  0  0  0  0
   35.7730   29.4940   34.9670 C   0  0  0  0  0  0  0  0  0  0  0  0
   35.8020   30.6830   34.2480 C   0  0  0  0  0  0  0  0  0  0  0  0
   35.3480   31.6450   34.4800 H   0  0  0  0  0  0  0  0  0  0  0  0
   36.5290   30.5100   33.0990 C   0  0  0  0  0  0  0  0  0  0  0  0
   36.8180   31.1150   32.2650 H   0  0  0  0  0  0  0  0  0  0  0  0
   36.9430   29.2220   33.1170 N   0  0  0  0  0  0  0  0  0  0  0  0
   37.5000   28.5660   32.5340 H   0  0  0  0  0  0  0  0  0  0  0  0
   36.4930   28.6410   34.2160 N   0  0  0  0  0  0  0  0  0  0  0  0
  1  2  1  0  0  0  0
  2  3  1  0  0  0  0
  3  4  2  0  0  0  0
  3 15  1  0  0  0  0
  4  8  1  0  0  0  0
  5  9  1  0  0  0  0
  5  4  1  0  0  0  0
  6  5  2  0  0  0  0
  7  6  1  0  0  0  0
  7  2  2  0  0  0  0
 10  6  1  0  0  0  0
 11 17  1  0  0  0  0
 11 12  1  0  0  0  0
 12 18  1  0  0  0  0
 13 12  2  0  0  0  0
 13 19  1  0  0  0  0
 14 13  1  0  0  0  0
 15 16  1  0  0  0  0
 15 14  2  0  0  0  0
 16 11  2  0  0  0  0
 19 20  1  0  0  0  0
 19 21  1  0  0  0  0
 22 19  1  0  0  0  0
 23  7  1  0  0  0  0
 24 25  1  0  0  0  0
 24 23  1  0  0  0  0
 26 28  1  0  0  0  0
 26 24  2  0  0  0  0
 27 26  1  0  0  0  0
 28 30  1  0  0  0  0
 29 28  1  0  0  0  0
 30 23  2  0  0  0  0
M  END
>  <minimizedAffinity>
-5.92159557

$$$$

 OpenBabel03252500113D

 30 32  0  0  0  0  0  0  0  0999 V2000
   40.3440   29.4000   39.9840 Cl  0  0  0  0  0  0  0  0  0  0  0  0
   38.7910   30.1010   40.3480 C   0  0  0  0  0  0  0  0  0  0  0  0
   37.9520   29.5240   41.2640 C   0  0  0  0  0  0  0  0  0  0  0  0
   36.7090   30.0540   41.5770 C   0  0  0  0  0  0  0  0  0  0  0  0
   36.3620   31.2130   40.9050 C   0  0  0  0  0  0  0  0  0  0  0  0
   37.1930   31.7980   39.9870 C   0  0  0  0  0  0  0  0  0  0  0  0
   38.3960   31.2580   39.7040 C   0  0  0  0  0  0  0  0  0  0  0  0
   36.0530   29.5750   42.3150 H   0  0  0  0  0  0  0  0  0  0  0  0
   35.3890   31.6260   41.1510 H   0  0  0  0  0  0  0  0  0  0  0  0
   36.9170   32.7050   39.4620 H   0  0  0  0  0  0  0  0  0  0  0  0
   39.6760   27.2040   43.5650 C   0  0  0  0  0  0  0  0  0  0  0  0
   39.1460   25.9550   43.1850 C   0  0  0  0  0  0  0  0  0  0  0  0
   38.2190   25.9250   42.1610 C   0  0  0  0  0  0  0  0  0  0  0  0
   37.8610   27.0920   41.5680 N   0  0  0  0  0  0  0  0  0  0  0  0
   38.3800   28.2940   41.9440 C   0  0  0  0  0  0  0  0  0  0  0  0
   39.2870   28.3360   42.9450 N   0  0  0  0  0  0  0  0  0  0  0  0
   40.3950   27.1830   44.3670 H   0  0  0  0  0  0  0  0  0  0  0  0
   39.4190   25.0140   43.6460 H   0  0  0  0  0  0  0  0  0  0  0  0
   37.5840   24.6510   41.6680 C   0  0  0  0  0  0  0  0  0  0  0  0
   36.3980   24.4130   42.3160 F   0  0  0  0  0  0  0  0  0  0  0  0
   37.3370   24.7790   40.3050 F   0  0  0  0  0  0  0  0  0  0  0  0
   38.4830   23.6500   41.8940 F   0  0  0  0  0  0  0  0  0  0  0  0
   39.3130   31.8460   38.7340 C   0  0  0  0  0  0  0  0  0  0  0  0
   40.3860   32.6740   39.0410 C   0  0  0  0  0  0  0  0  0  0  0  0
   40.7330   33.0280   40.0100 H   0  0  0  0  0  0  0  0  0  0  0  0
   41.0300   33.0410   37.8880 C   0  0  0  0  0  0  0  0  0  0  0  0
   41.8750   33.6440   37.6300 H   0  0  0  0  0  0  0  0  0  0  0  0
   40.3540   32.4400   36.8820 N   0  0  0  0  0  0  0  0  0  0  0  0
   40.3870   32.3630   35.8460 H   0  0  0  0  0  0  0  0  0  0  0  0
   39.3520   31.7440   37.3930 N   0  0  0  0  0  0  0  0  0  0  0  0
  1  2  1  0  0  0  0
  2  3  1  0  0  0  0
  3  4  2  0  0  0  0
  3 15  1  0  0  0  0
  4  8  1  0  0  0  0
  5  9  1  0  0  0  0
  5  4  1  0  0  0  0
  6  5  2  0  0  0  0
  7  6  1  0  0  0  0
  7  2  2  0  0  0  0
 10  6  1  0  0  0  0
 11 17  1  0  0  0  0
 12 11  1  0  0  0  0
 12 18  1  0  0  0  0
 13 12  2  0  0  0  0
 14 15  2  0  0  0  0
 14 13  1  0  0  0  0
 15 16  1  0  0  0  0
 16 11  2  0  0  0  0
 19 22  1  0  0  0  0
 19 13  1  0  0  0  0
 19 20  1  0  0  0  0
 21 19  1  0  0  0  0
 23 24  1  0  0  0  0
 23  7  1  0  0  0  0
 24 25  1  0  0  0  0
 26 24  2  0  0  0  0
 27 26  1  0  0  0  0
 28 30  1  0  0  0  0
 28 26  1  0  0  0  0
 29 28  1  0  0  0  0
 30 23  2  0  0  0  0
M  END
>  <minimizedAffinity>
-5.88588476

$$$$

 OpenBabel03252500113D

 30 32  0  0  0  0  0  0  0  0999 V2000
   39.4950   28.5630   38.9730 Cl  0  0  0  0  0  0  0  0  0  0  0  0
   38.2080   29.4050   39.7920 C   0  0  0  0  0  0  0  0  0  0  0  0
   37.3580   28.7460   40.6400 C   0  0  0  0  0  0  0  0  0  0  0  0
   36.3230   29.3840   41.3080 C   0  0  0  0  0  0  0  0  0  0  0  0
   36.1980   30.7400   41.0660 C   0  0  0  0  0  0  0  0  0  0  0  0
   37.0420   31.4100   40.2210 C   0  0  0  0  0  0  0  0  0  0  0  0
   38.0390   30.7610   39.5850 C   0  0  0  0  0  0  0  0  0  0  0  0
   35.6550   28.8350   41.9830 H   0  0  0  0  0  0  0  0  0  0  0  0
   35.3880   31.2380   41.5900 H   0  0  0  0  0  0  0  0  0  0  0  0
   36.9390   32.4730   40.0340 H   0  0  0  0  0  0  0  0  0  0  0  0
   36.9090   25.0830   40.4580 C   0  0  0  0  0  0  0  0  0  0  0  0
   37.9440   24.6110   41.2900 C   0  0  0  0  0  0  0  0  0  0  0  0
   38.7690   25.5410   41.8930 C   0  0  0  0  0  0  0  0  0  0  0  0
   38.5490   26.8600   41.6610 N   0  0  0  0  0  0  0  0  0  0  0  0
   37.5450   27.3040   40.8540 C   0  0  0  0  0  0  0  0  0  0  0  0
   36.7320   26.4040   40.2580 N   0  0  0  0  0  0  0  0  0  0  0  0
   36.2890   24.3260   40.0080 H   0  0  0  0  0  0  0  0  0  0  0  0
   38.1350   23.5650   41.4880 H   0  0  0  0  0  0  0  0  0  0  0  0
   39.9070   25.1580   42.8030 C   0  0  0  0  0  0  0  0  0  0  0  0
   41.0480   24.9110   42.0810 F   0  0  0  0  0  0  0  0  0  0  0  0
   40.1460   26.2120   43.6800 F   0  0  0  0  0  0  0  0  0  0  0  0
   39.5050   24.0510   43.4920 F   0  0  0  0  0  0  0  0  0  0  0  0
   38.9600   31.4330   38.6760 C   0  0  0  0  0  0  0  0  0  0  0  0
   40.1530   32.0420   39.0450 C   0  0  0  0  0  0  0  0  0  0  0  0
   40.6090   32.1360   40.0290 H   0  0  0  0  0  0  0  0  0  0  0  0
   40.7630   32.5720   37.9380 C   0  0  0  0  0  0  0  0  0  0  0  0
   41.6630   33.1130   37.7310 H   0  0  0  0  0  0  0  0  0  0  0  0
   39.9460   32.2860   36.8970 N   0  0  0  0  0  0  0  0  0  0  0  0
   39.9000   32.4330   35.8690 H   0  0  0  0  0  0  0  0  0  0  0  0
   38.8960   31.6200   37.3450 N   0  0  0  0  0  0  0  0  0  0  0  0
  1  2  1  0  0  0  0
  2  3  1  0  0  0  0
  3 15  1  0  0  0  0
  3  4  2  0  0  0  0
  4  8  1  0  0  0  0
  5  4  1  0  0  0  0
  5  9  1  0  0  0  0
  6  5  2  0  0  0  0
  7  2  2  0  0  0  0
  7  6  1  0  0  0  0
 10  6  1  0  0  0  0
 11 12  1  0  0  0  0
 12 18  1  0  0  0  0
 12 13  2  0  0  0  0
 13 19  1  0  0  0  0
 14 13  1  0  0  0  0
 15 14  2  0  0  0  0
 16 11  2  0  0  0  0
 16 15  1  0  0  0  0
 17 11  1  0  0  0  0
 19 22  1  0  0  0  0
 19 21  1  0  0  0  0
 20 19  1  0  0  0  0
 23 24  1  0  0  0  0
 23  7  1  0  0  0  0
 24 25  1  0  0  0  0
 26 24  2  0  0  0  0
 27 26  1  0  0  0  0
 28 30  1  0  0  0  0
 28 26  1  0  0  0  0
 29 28  1  0  0  0  0
 30 23  2  0  0  0  0
M  END
>  <minimizedAffinity>
-5.6399045

$$$$

 OpenBabel03252500113D

 30 32  0  0  0  0  0  0  0  0999 V2000
   38.7750   26.9020   39.7560 Cl  0  0  0  0  0  0  0  0  0  0  0  0
   38.0280   27.2850   41.2830 C   0  0  0  0  0  0  0  0  0  0  0  0
   37.9940   28.5720   41.7510 C   0  0  0  0  0  0  0  0  0  0  0  0
   37.4080   28.9120   42.9620 C   0  0  0  0  0  0  0  0  0  0  0  0
   36.8530   27.8660   43.6770 C   0  0  0  0  0  0  0  0  0  0  0  0
   36.8800   26.5750   43.2180 C   0  0  0  0  0  0  0  0  0  0  0  0
   37.4580   26.2760   42.0360 C   0  0  0  0  0  0  0  0  0  0  0  0
   37.3930   29.9500   43.3170 H   0  0  0  0  0  0  0  0  0  0  0  0
   36.3940   28.1340   44.6230 H   0  0  0  0  0  0  0  0  0  0  0  0
   36.4440   25.7590   43.7810 H   0  0  0  0  0  0  0  0  0  0  0  0
   40.4030   31.0610   40.4660 C   0  0  0  0  0  0  0  0  0  0  0  0
   39.6930   31.6400   39.3950 C   0  0  0  0  0  0  0  0  0  0  0  0
   38.4180   31.1770   39.1320 C   0  0  0  0  0  0  0  0  0  0  0  0
   37.9070   30.1910   39.9120 N   0  0  0  0  0  0  0  0  0  0  0  0
   38.6020   29.6380   40.9440 C   0  0  0  0  0  0  0  0  0  0  0  0
   39.8510   30.0830   41.2100 N   0  0  0  0  0  0  0  0  0  0  0  0
   41.3920   31.4500   40.6360 H   0  0  0  0  0  0  0  0  0  0  0  0
   40.0840   32.4270   38.7630 H   0  0  0  0  0  0  0  0  0  0  0  0
   37.5640   31.7190   38.0160 C   0  0  0  0  0  0  0  0  0  0  0  0
   38.3160   31.9410   36.8890 F   0  0  0  0  0  0  0  0  0  0  0  0
   36.5750   30.7850   37.7230 F   0  0  0  0  0  0  0  0  0  0  0  0
   37.0030   32.8750   38.4740 F   0  0  0  0  0  0  0  0  0  0  0  0
   37.5110   24.9180   41.5090 C   0  0  0  0  0  0  0  0  0  0  0  0
   36.6040   24.3660   40.6120 C   0  0  0  0  0  0  0  0  0  0  0  0
   35.7230   24.8130   40.1540 H   0  0  0  0  0  0  0  0  0  0  0  0
   36.9590   23.0720   40.3340 C   0  0  0  0  0  0  0  0  0  0  0  0
   36.5800   22.2780   39.7240 H   0  0  0  0  0  0  0  0  0  0  0  0
   38.0780   22.8350   41.0560 N   0  0  0  0  0  0  0  0  0  0  0  0
   38.7540   22.0640   41.2310 H   0  0  0  0  0  0  0  0  0  0  0  0
   38.3880   23.9240   41.7390 N   0  0  0  0  0  0  0  0  0  0  0  0
  1  2  1  0  0  0  0
  2  3  2  0  0  0  0
  2  7  1  0  0  0  0
  3  4  1  0  0  0  0
  4  8  1  0  0  0  0
  4  5  2  0  0  0  0
  5  9  1  0  0  0  0
  6  5  1  0  0  0  0
  6 10  1  0  0  0  0
  7  6  2  0  0  0  0
 11 17  1  0  0  0  0
 11 16  1  0  0  0  0
 12 11  2  0  0  0  0
 13 12  1  0  0  0  0
 13 14  2  0  0  0  0
 14 15  1  0  0  0  0
 15 16  2  0  0  0  0
 15  3  1  0  0  0  0
 18 12  1  0  0  0  0
 19 22  1  0  0  0  0
 19 13  1  0  0  0  0
 20 19  1  0  0  0  0
 21 19  1  0  0  0  0
 23 30  2  0  0  0  0
 23  7  1  0  0  0  0
 24 23  1  0  0  0  0
 25 24  1  0  0  0  0
 26 24  2  0  0  0  0
 26 28  1  0  0  0  0
 27 26  1  0  0  0  0
 28 29  1  0  0  0  0
 28 30  1  0  0  0  0
M  END
>  <minimizedAffinity>
-5.6110568

$$$$

 OpenBabel03252500113D

 30 32  0  0  0  0  0  0  0  0999 V2000
   38.5430   28.3560   37.8740 Cl  0  0  0  0  0  0  0  0  0  0  0  0
   37.4700   29.1550   38.9900 C   0  0  0  0  0  0  0  0  0  0  0  0
   36.5430   28.4490   39.7100 C   0  0  0  0  0  0  0  0  0  0  0  0
   35.6740   29.0520   40.6060 C   0  0  0  0  0  0  0  0  0  0  0  0
   35.7970   30.4240   40.7340 C   0  0  0  0  0  0  0  0  0  0  0  0
   36.7200   31.1410   40.0190 C   0  0  0  0  0  0  0  0  0  0  0  0
   37.5520   30.5250   39.1550 C   0  0  0  0  0  0  0  0  0  0  0  0
   34.9390   28.4650   41.1730 H   0  0  0  0  0  0  0  0  0  0  0  0
   35.1160   30.8950   41.4360 H   0  0  0  0  0  0  0  0  0  0  0  0
   36.8130   32.2160   40.1220 H   0  0  0  0  0  0  0  0  0  0  0  0
   35.7370   25.1250   38.3120 C   0  0  0  0  0  0  0  0  0  0  0  0
   36.3450   24.2540   39.2380 C   0  0  0  0  0  0  0  0  0  0  0  0
   37.0120   24.8090   40.3130 C   0  0  0  0  0  0  0  0  0  0  0  0
   37.0530   26.1610   40.4310 N   0  0  0  0  0  0  0  0  0  0  0  0
   36.4630   26.9920   39.5280 C   0  0  0  0  0  0  0  0  0  0  0  0
   35.8070   26.4610   38.4730 N   0  0  0  0  0  0  0  0  0  0  0  0
   35.2270   24.6510   37.4900 H   0  0  0  0  0  0  0  0  0  0  0  0
   36.3220   23.1750   39.1620 H   0  0  0  0  0  0  0  0  0  0  0  0
   37.6990   23.9800   41.3670 C   0  0  0  0  0  0  0  0  0  0  0  0
   39.0270   24.3140   41.4630 F   0  0  0  0  0  0  0  0  0  0  0  0
   37.0820   24.2220   42.5900 F   0  0  0  0  0  0  0  0  0  0  0  0
   37.5400   22.6740   41.0060 F   0  0  0  0  0  0  0  0  0  0  0  0
   38.5490   31.2480   38.3730 C   0  0  0  0  0  0  0  0  0  0  0  0
   39.8390   31.5490   38.7950 C   0  0  0  0  0  0  0  0  0  0  0  0
   40.3310   31.3200   39.7380 H   0  0  0  0  0  0  0  0  0  0  0  0
   40.4980   32.2340   37.8080 C   0  0  0  0  0  0  0  0  0  0  0  0
   41.4710   32.6600   37.6770 H   0  0  0  0  0  0  0  0  0  0  0  0
   39.6160   32.3500   36.7890 N   0  0  0  0  0  0  0  0  0  0  0  0
   39.5670   32.7540   35.8320 H   0  0  0  0  0  0  0  0  0  0  0  0
   38.4810   31.7680   37.1340 N   0  0  0  0  0  0  0  0  0  0  0  0
  1  2  1  0  0  0  0
  2  7  2  0  0  0  0
  2  3  1  0  0  0  0
  3  4  2  0  0  0  0
  4  5  1  0  0  0  0
  4  8  1  0  0  0  0
  5  9  1  0  0  0  0
  6 10  1  0  0  0  0
  6  5  2  0  0  0  0
  7  6  1  0  0  0  0
 11 16  2  0  0  0  0
 11 12  1  0  0  0  0
 12 13  2  0  0  0  0
 13 14  1  0  0  0  0
 13 19  1  0  0  0  0
 15  3  1  0  0  0  0
 15 14  2  0  0  0  0
 16 15  1  0  0  0  0
 17 11  1  0  0  0  0
 18 12  1  0  0  0  0
 19 20  1  0  0  0  0
 19 21  1  0  0  0  0
 22 19  1  0  0  0  0
 23 24  1  0  0  0  0
 23  7  1  0  0  0  0
 24 25  1  0  0  0  0
 26 24  2  0  0  0  0
 27 26  1  0  0  0  0
 28 30  1  0  0  0  0
 28 26  1  0  0  0  0
 29 28  1  0  0  0  0
 30 23  2  0  0  0  0
M  END
>  <minimizedAffinity>
-5.54376268

$$$$

 OpenBabel03252500113D

 30 32  0  0  0  0  0  0  0  0999 V2000
   39.8900   30.0480   38.7840 Cl  0  0  0  0  0  0  0  0  0  0  0  0
   39.5050   31.6410   39.3750 C   0  0  0  0  0  0  0  0  0  0  0  0
   38.3510   31.8760   40.0760 C   0  0  0  0  0  0  0  0  0  0  0  0
   38.0130   33.1300   40.5610 C   0  0  0  0  0  0  0  0  0  0  0  0
   38.9170   34.1430   40.2940 C   0  0  0  0  0  0  0  0  0  0  0  0
   40.0740   33.9200   39.5940 C   0  0  0  0  0  0  0  0  0  0  0  0
   40.3740   32.6880   39.1350 C   0  0  0  0  0  0  0  0  0  0  0  0
   37.0830   33.2950   41.1210 H   0  0  0  0  0  0  0  0  0  0  0  0
   38.6510   35.1240   40.6740 H   0  0  0  0  0  0  0  0  0  0  0  0
   40.7790   34.7160   39.3870 H   0  0  0  0  0  0  0  0  0  0  0  0
   35.5000   29.5440   39.7880 C   0  0  0  0  0  0  0  0  0  0  0  0
   35.7440   28.6400   40.8420 C   0  0  0  0  0  0  0  0  0  0  0  0
   36.8650   28.8390   41.6250 C   0  0  0  0  0  0  0  0  0  0  0  0
   37.6780   29.8900   41.3480 N   0  0  0  0  0  0  0  0  0  0  0  0
   37.4320   30.7560   40.3270 C   0  0  0  0  0  0  0  0  0  0  0  0
   36.3390   30.5710   39.5540 N   0  0  0  0  0  0  0  0  0  0  0  0
   34.6170   29.3520   39.2030 H   0  0  0  0  0  0  0  0  0  0  0  0
   35.1070   27.7970   41.0780 H   0  0  0  0  0  0  0  0  0  0  0  0
   37.2280   27.9410   42.7780 C   0  0  0  0  0  0  0  0  0  0  0  0
   38.0350   28.5970   43.6740 F   0  0  0  0  0  0  0  0  0  0  0  0
   36.0570   27.5540   43.4230 F   0  0  0  0  0  0  0  0  0  0  0  0
   37.8580   26.8530   42.2470 F   0  0  0  0  0  0  0  0  0  0  0  0
   41.5930   32.4050   38.3860 C   0  0  0  0  0  0  0  0  0  0  0  0
   42.8190   32.0620   38.9430 C   0  0  0  0  0  0  0  0  0  0  0  0
   43.0970   31.9460   39.9890 H   0  0  0  0  0  0  0  0  0  0  0  0
   43.7400   31.8670   37.9470 C   0  0  0  0  0  0  0  0  0  0  0  0
   44.7750   31.6010   37.8880 H   0  0  0  0  0  0  0  0  0  0  0  0
   43.0790   32.0880   36.7870 N   0  0  0  0  0  0  0  0  0  0  0  0
   43.2620   32.0840   35.7640 H   0  0  0  0  0  0  0  0  0  0  0  0
   41.8240   32.4020   37.0600 N   0  0  0  0  0  0  0  0  0  0  0  0
  1  2  1  0  0  0  0
  2  3  1  0  0  0  0
  3 15  1  0  0  0  0
  3  4  2  0  0  0  0
  4  8  1  0  0  0  0
  5  4  1  0  0  0  0
  5  9  1  0  0  0  0
  6  5  2  0  0  0  0
  7  2  2  0  0  0  0
  7  6  1  0  0  0  0
 10  6  1  0  0  0  0
 11 12  1  0  0  0  0
 12 18  1  0  0  0  0
 12 13  2  0  0  0  0
 13 19  1  0  0  0  0
 14 13  1  0  0  0  0
 15 14  2  0  0  0  0
 16 11  2  0  0  0  0
 16 15  1  0  0  0  0
 17 11  1  0  0  0  0
 19 21  1  0  0  0  0
 19 20  1  0  0  0  0
 22 19  1  0  0  0  0
 23 24  1  0  0  0  0
 23  7  1  0  0  0  0
 24 25  1  0  0  0  0
 26 24  2  0  0  0  0
 27 26  1  0  0  0  0
 28 30  1  0  0  0  0
 28 26  1  0  0  0  0
 29 28  1  0  0  0  0
 30 23  2  0  0  0  0
M  END
>  <minimizedAffinity>
-5.51836681

$$$$

 OpenBabel03252500113D

 30 32  0  0  0  0  0  0  0  0999 V2000
   37.4480   28.3390   39.2740 Cl  0  0  0  0  0  0  0  0  0  0  0  0
   37.5810   28.0640   40.9890 C   0  0  0  0  0  0  0  0  0  0  0  0
   37.7040   26.7970   41.4950 C   0  0  0  0  0  0  0  0  0  0  0  0
   37.8120   26.5410   42.8540 C   0  0  0  0  0  0  0  0  0  0  0  0
   37.7880   27.6520   43.6790 C   0  0  0  0  0  0  0  0  0  0  0  0
   37.6660   28.9230   43.1840 C   0  0  0  0  0  0  0  0  0  0  0  0
   37.5630   29.1390   41.8570 C   0  0  0  0  0  0  0  0  0  0  0  0
   37.9100   25.5170   43.2370 H   0  0  0  0  0  0  0  0  0  0  0  0
   37.8730   27.4500   44.7420 H   0  0  0  0  0  0  0  0  0  0  0  0
   37.6470   29.7900   43.8350 H   0  0  0  0  0  0  0  0  0  0  0  0
   38.8970   24.1650   39.1930 C   0  0  0  0  0  0  0  0  0  0  0  0
   37.6980   23.5210   38.8250 C   0  0  0  0  0  0  0  0  0  0  0  0
   36.5160   23.9910   39.3640 C   0  0  0  0  0  0  0  0  0  0  0  0
   36.5580   25.0460   40.2170 N   0  0  0  0  0  0  0  0  0  0  0  0
   37.7230   25.6590   40.5650 C   0  0  0  0  0  0  0  0  0  0  0  0
   38.8860   25.2080   40.0450 N   0  0  0  0  0  0  0  0  0  0  0  0
   39.7950   23.7670   38.7510 H   0  0  0  0  0  0  0  0  0  0  0  0
   37.6440   22.6800   38.1470 H   0  0  0  0  0  0  0  0  0  0  0  0
   35.1730   23.3860   39.0450 C   0  0  0  0  0  0  0  0  0  0  0  0
   34.4550   23.1580   40.1920 F   0  0  0  0  0  0  0  0  0  0  0  0
   34.4690   24.2730   38.2380 F   0  0  0  0  0  0  0  0  0  0  0  0
   35.4150   22.2240   38.3710 F   0  0  0  0  0  0  0  0  0  0  0  0
   37.4310   30.4750   41.2860 C   0  0  0  0  0  0  0  0  0  0  0  0
   38.4840   31.3270   40.9790 C   0  0  0  0  0  0  0  0  0  0  0  0
   39.5560   31.1760   41.1000 H   0  0  0  0  0  0  0  0  0  0  0  0
   37.9950   32.4970   40.4600 C   0  0  0  0  0  0  0  0  0  0  0  0
   38.4060   33.4140   40.0930 H   0  0  0  0  0  0  0  0  0  0  0  0
   36.6490   32.3600   40.4490 N   0  0  0  0  0  0  0  0  0  0  0  0
   35.8050   32.9010   40.1760 H   0  0  0  0  0  0  0  0  0  0  0  0
   36.3340   31.1710   40.9350 N   0  0  0  0  0  0  0  0  0  0  0  0
  1  2  1  0  0  0  0
  2  3  2  0  0  0  0
  2  7  1  0  0  0  0
  3  4  1  0  0  0  0
  4  8  1  0  0  0  0
  4  5  2  0  0  0  0
  5  9  1  0  0  0  0
  6  5  1  0  0  0  0
  6 10  1  0  0  0  0
  7  6  2  0  0  0  0
 11 16  1  0  0  0  0
 12 11  2  0  0  0  0
 12 13  1  0  0  0  0
 13 14  2  0  0  0  0
 14 15  1  0  0  0  0
 15  3  1  0  0  0  0
 16 15  2  0  0  0  0
 17 11  1  0  0  0  0
 18 12  1  0  0  0  0
 19 13  1  0  0  0  0
 19 20  1  0  0  0  0
 21 19  1  0  0  0  0
 22 19  1  0  0  0  0
 23  7  1  0  0  0  0
 24 25  1  0  0  0  0
 24 23  1  0  0  0  0
 26 24  2  0  0  0  0
 27 26  1  0  0  0  0
 28 26  1  0  0  0  0
 28 30  1  0  0  0  0
 29 28  1  0  0  0  0
 30 23  2  0  0  0  0
M  END
>  <minimizedAffinity>
-5.47356319

$$$$

 OpenBabel03252500113D

 30 32  0  0  0  0  0  0  0  0999 V2000
   40.2600   29.9520   38.8660 Cl  0  0  0  0  0  0  0  0  0  0  0  0
   39.3280   31.3390   39.3610 C   0  0  0  0  0  0  0  0  0  0  0  0
   38.0950   31.1920   39.9390 C   0  0  0  0  0  0  0  0  0  0  0  0
   37.3250   32.2730   40.3450 C   0  0  0  0  0  0  0  0  0  0  0  0
   37.8820   33.5210   40.1310 C   0  0  0  0  0  0  0  0  0  0  0  0
   39.1140   33.6800   39.5540 C   0  0  0  0  0  0  0  0  0  0  0  0
   39.8380   32.6090   39.1700 C   0  0  0  0  0  0  0  0  0  0  0  0
   36.3400   32.1310   40.8060 H   0  0  0  0  0  0  0  0  0  0  0  0
   37.2790   34.3660   40.4490 H   0  0  0  0  0  0  0  0  0  0  0  0
   39.5460   34.6600   39.3880 H   0  0  0  0  0  0  0  0  0  0  0  0
   36.4610   27.9370   39.3190 C   0  0  0  0  0  0  0  0  0  0  0  0
   36.5770   27.2990   40.5700 C   0  0  0  0  0  0  0  0  0  0  0  0
   37.2040   27.9830   41.5940 C   0  0  0  0  0  0  0  0  0  0  0  0
   37.6780   29.2320   41.3520 N   0  0  0  0  0  0  0  0  0  0  0  0
   37.5600   29.8380   40.1390 C   0  0  0  0  0  0  0  0  0  0  0  0
   36.9490   29.1780   39.1290 N   0  0  0  0  0  0  0  0  0  0  0  0
   35.9660   27.3690   38.5490 H   0  0  0  0  0  0  0  0  0  0  0  0
   36.2060   26.3050   40.7810 H   0  0  0  0  0  0  0  0  0  0  0  0
   37.3870   27.4050   42.9730 C   0  0  0  0  0  0  0  0  0  0  0  0
   37.9060   26.1370   42.9070 F   0  0  0  0  0  0  0  0  0  0  0  0
   38.2670   28.2180   43.6800 F   0  0  0  0  0  0  0  0  0  0  0  0
   36.1590   27.4090   43.5670 F   0  0  0  0  0  0  0  0  0  0  0  0
   41.1530   32.7300   38.5520 C   0  0  0  0  0  0  0  0  0  0  0  0
   42.3590   32.8260   39.2370 C   0  0  0  0  0  0  0  0  0  0  0  0
   42.5480   32.8310   40.3090 H   0  0  0  0  0  0  0  0  0  0  0  0
   43.3920   32.9260   38.3420 C   0  0  0  0  0  0  0  0  0  0  0  0
   44.4560   33.0170   38.3930 H   0  0  0  0  0  0  0  0  0  0  0  0
   42.8200   32.8900   37.1160 N   0  0  0  0  0  0  0  0  0  0  0  0
   43.0990   32.9260   36.1150 H   0  0  0  0  0  0  0  0  0  0  0  0
   41.5100   32.7760   37.2550 N   0  0  0  0  0  0  0  0  0  0  0  0
  1  2  1  0  0  0  0
  2  3  1  0  0  0  0
  3 15  1  0  0  0  0
  3  4  2  0  0  0  0
  4  8  1  0  0  0  0
  5  4  1  0  0  0  0
  5  9  1  0  0  0  0
  6  5  2  0  0  0  0
  7  2  2  0  0  0  0
  7  6  1  0  0  0  0
 10  6  1  0  0  0  0
 11 12  1  0  0  0  0
 12 18  1  0  0  0  0
 12 13  2  0  0  0  0
 13 19  1  0  0  0  0
 14 13  1  0  0  0  0
 15 14  2  0  0  0  0
 16 11  2  0  0  0  0
 16 15  1  0  0  0  0
 17 11  1  0  0  0  0
 19 22  1  0  0  0  0
 19 21  1  0  0  0  0
 20 19  1  0  0  0  0
 23  7  1  0  0  0  0
 23 24  1  0  0  0  0
 24 25  1  0  0  0  0
 26 27  1  0  0  0  0
 26 24  2  0  0  0  0
 28 30  1  0  0  0  0
 28 26  1  0  0  0  0
 29 28  1  0  0  0  0
 30 23  2  0  0  0  0
M  END
>  <minimizedAffinity>
-5.40116739

$$$$

 OpenBabel03252500113D

 30 32  0  0  0  0  0  0  0  0999 V2000
   38.1460   27.1770   39.4310 Cl  0  0  0  0  0  0  0  0  0  0  0  0
   37.8260   27.6240   41.0850 C   0  0  0  0  0  0  0  0  0  0  0  0
   37.7030   28.9390   41.4510 C   0  0  0  0  0  0  0  0  0  0  0  0
   37.4490   29.3310   42.7570 C   0  0  0  0  0  0  0  0  0  0  0  0
   37.3250   28.3070   43.6800 C   0  0  0  0  0  0  0  0  0  0  0  0
   37.4460   26.9890   43.3250 C   0  0  0  0  0  0  0  0  0  0  0  0
   37.6940   26.6400   42.0460 C   0  0  0  0  0  0  0  0  0  0  0  0
   37.3540   30.3900   43.0270 H   0  0  0  0  0  0  0  0  0  0  0  0
   37.1270   28.6150   44.7010 H   0  0  0  0  0  0  0  0  0  0  0  0
   37.3490   26.1900   44.0510 H   0  0  0  0  0  0  0  0  0  0  0  0
   36.9820   31.1850   38.6080 C   0  0  0  0  0  0  0  0  0  0  0  0
   38.1670   31.9430   38.5150 C   0  0  0  0  0  0  0  0  0  0  0  0
   39.1820   31.6760   39.4150 C   0  0  0  0  0  0  0  0  0  0  0  0
   38.9960   30.7030   40.3420 N   0  0  0  0  0  0  0  0  0  0  0  0
   37.8450   29.9790   40.4230 C   0  0  0  0  0  0  0  0  0  0  0  0
   36.8460   30.2300   39.5490 N   0  0  0  0  0  0  0  0  0  0  0  0
   36.2170   31.4250   37.8890 H   0  0  0  0  0  0  0  0  0  0  0  0
   38.3340   32.7220   37.7830 H   0  0  0  0  0  0  0  0  0  0  0  0
   40.4930   32.4190   39.4130 C   0  0  0  0  0  0  0  0  0  0  0  0
   41.3950   31.8150   38.5740 F   0  0  0  0  0  0  0  0  0  0  0  0
   40.2640   33.7180   38.9720 F   0  0  0  0  0  0  0  0  0  0  0  0
   40.9420   32.4280   40.7020 F   0  0  0  0  0  0  0  0  0  0  0  0
   37.8310   25.2510   41.6230 C   0  0  0  0  0  0  0  0  0  0  0  0
   36.8120   24.4650   41.0970 C   0  0  0  0  0  0  0  0  0  0  0  0
   35.7690   24.7160   40.9100 H   0  0  0  0  0  0  0  0  0  0  0  0
   37.2940   23.2150   40.8100 C   0  0  0  0  0  0  0  0  0  0  0  0
   36.9010   22.3060   40.4070 H   0  0  0  0  0  0  0  0  0  0  0  0
   38.6020   23.2370   41.1580 N   0  0  0  0  0  0  0  0  0  0  0  0
   39.4270   22.6040   41.1630 H   0  0  0  0  0  0  0  0  0  0  0  0
   38.9010   24.4350   41.6310 N   0  0  0  0  0  0  0  0  0  0  0  0
  1  2  1  0  0  0  0
  2  3  2  0  0  0  0
  2  7  1  0  0  0  0
  3  4  1  0  0  0  0
  4  8  1  0  0  0  0
  4  5  2  0  0  0  0
  5  9  1  0  0  0  0
  6  5  1  0  0  0  0
  6 10  1  0  0  0  0
  7  6  2  0  0  0  0
 11 16  1  0  0  0  0
 12 11  2  0  0  0  0
 12 13  1  0  0  0  0
 13 14  2  0  0  0  0
 14 15  1  0  0  0  0
 15  3  1  0  0  0  0
 16 15  2  0  0  0  0
 17 11  1  0  0  0  0
 18 12  1  0  0  0  0
 19 13  1  0  0  0  0
 19 22  1  0  0  0  0
 20 19  1  0  0  0  0
 21 19  1  0  0  0  0
 23 30  2  0  0  0  0
 23  7  1  0  0  0  0
 24 23  1  0  0  0  0
 25 24  1  0  0  0  0
 26 24  2  0  0  0  0
 26 28  1  0  0  0  0
 27 26  1  0  0  0  0
 28 29  1  0  0  0  0
 28 30  1  0  0  0  0
M  END
>  <minimizedAffinity>
-5.32549572

$$$$
