
 OpenBabel03252506513D

 30 33  0  0  0  0  0  0  0  0999 V2000
   47.2590   31.4270   45.3640 C   0  0  0  0  0  0  0  0  0  0  0  0
   46.6950   32.6770   45.3170 C   0  0  0  0  0  0  0  0  0  0  0  0
   45.9120   33.1910   46.3490 C   0  0  0  0  0  0  0  0  0  0  0  0
   45.6820   32.4090   47.4880 C   0  0  0  0  0  0  0  0  0  0  0  0
   45.0050   32.5530   48.6520 N   0  0  0  0  0  0  0  0  0  0  0  0
   45.1540   31.4190   49.3810 C   0  0  0  0  0  0  0  0  0  0  0  0
   45.9290   30.5770   48.6580 N   0  0  0  0  0  0  0  0  0  0  0  0
   46.2700   31.1570   47.4890 C   0  0  0  0  0  0  0  0  0  0  0  0
   47.0420   30.6340   46.4870 C   0  0  0  0  0  0  0  0  0  0  0  0
   47.8580   31.0760   44.5360 H   0  0  0  0  0  0  0  0  0  0  0  0
   45.4650   34.1770   46.3180 H   0  0  0  0  0  0  0  0  0  0  0  0
   44.4690   33.4420   48.8770 H   0  0  0  0  0  0  0  0  0  0  0  0
   44.6730   31.3600   50.3500 H   0  0  0  0  0  0  0  0  0  0  0  0
   46.1810   35.2290   42.7110 C   0  0  0  0  0  0  0  0  0  0  0  0
   47.3400   35.1130   41.9460 C   0  0  0  0  0  0  0  0  0  0  0  0
   48.2960   34.1610   42.3240 C   0  0  0  0  0  0  0  0  0  0  0  0
   48.0350   33.3950   43.4300 N   0  0  0  0  0  0  0  0  0  0  0  0
   46.9090   33.5240   44.1550 C   0  0  0  0  0  0  0  0  0  0  0  0
   45.9890   34.4400   43.7880 N   0  0  0  0  0  0  0  0  0  0  0  0
   45.4580   35.9760   42.3920 H   0  0  0  0  0  0  0  0  0  0  0  0
   47.5670   35.7070   41.0700 H   0  0  0  0  0  0  0  0  0  0  0  0
   49.2270   33.9680   41.8270 H   0  0  0  0  0  0  0  0  0  0  0  0
   47.6210   29.2980   46.5770 C   0  0  0  0  0  0  0  0  0  0  0  0
   46.9800   28.1330   46.2120 C   0  0  0  0  0  0  0  0  0  0  0  0
   45.9820   28.0950   45.8200 H   0  0  0  0  0  0  0  0  0  0  0  0
   47.8610   27.0970   46.4490 C   0  0  0  0  0  0  0  0  0  0  0  0
   47.5860   26.0730   46.2390 H   0  0  0  0  0  0  0  0  0  0  0  0
   48.9990   27.6520   46.9470 N   0  0  0  0  0  0  0  0  0  0  0  0
   49.8040   27.0140   47.1970 H   0  0  0  0  0  0  0  0  0  0  0  0
   48.8480   28.9780   47.0220 N   0  0  0  0  0  0  0  0  0  0  0  0
  1  9  1  0  0  0  0
  2  1  2  0  0  0  0
  2  3  1  0  0  0  0
  3  4  2  0  0  0  0
  4  8  1  0  0  0  0
  4  5  1  0  0  0  0
  5 12  1  0  0  0  0
  5  6  1  0  0  0  0
  6 13  1  0  0  0  0
  7  6  2  0  0  0  0
  8  7  1  0  0  0  0
  9 23  1  0  0  0  0
  9  8  2  0  0  0  0
 10  1  1  0  0  0  0
 11  3  1  0  0  0  0
 14 19  1  0  0  0  0
 15 16  1  0  0  0  0
 15 14  2  0  0  0  0
 16 17  2  0  0  0  0
 17 18  1  0  0  0  0
 18  2  1  0  0  0  0
 19 18  2  0  0  0  0
 20 14  1  0  0  0  0
 21 15  1  0  0  0  0
 22 16  1  0  0  0  0
 23 30  2  0  0  0  0
 24 26  2  0  0  0  0
 24 23  1  0  0  0  0
 25 24  1  0  0  0  0
 26 28  1  0  0  0  0
 27 26  1  0  0  0  0
 28 30  1  0  0  0  0
 28 29  1  0  0  0  0
M  END
>  <minimizedAffinity>
-5.04277325

>  <minimizedRMSD>
0.674483716

$$$$
