
 OpenBabel03242516483D

 42 45  0  0  1  0  0  0  0  0999 V2000
   47.8340   32.8910   41.8200 C   0  0  1  0  0  0  0  0  0  0  0  0
   47.5130   32.2090   40.5480 C   0  0  0  0  0  0  0  0  0  0  0  0
   48.5510   32.7210   39.5430 C   0  0  0  0  0  0  0  0  0  0  0  0
   48.2000   34.1750   39.2740 C   0  0  0  0  0  0  0  0  0  0  0  0
   48.1240   35.0210   40.5020 C   0  0  0  0  0  0  0  0  0  0  0  0
   47.6330   34.3890   41.7360 C   0  0  1  0  0  0  0  0  0  0  0  0
   48.9460   32.7860   42.0050 H   0  0  0  0  0  0  0  0  0  0  0  0
   46.5170   32.3970   40.1500 H   0  0  0  0  0  0  0  0  0  0  0  0
   47.7190   31.1180   40.6650 H   0  0  0  0  0  0  0  0  0  0  0  0
   48.4050   32.1680   38.6040 H   0  0  0  0  0  0  0  0  0  0  0  0
   49.5520   32.6170   39.9700 H   0  0  0  0  0  0  0  0  0  0  0  0
   48.9830   34.5570   38.5930 H   0  0  0  0  0  0  0  0  0  0  0  0
   47.2220   34.1650   38.7400 H   0  0  0  0  0  0  0  0  0  0  0  0
   49.1300   35.5070   40.6350 H   0  0  0  0  0  0  0  0  0  0  0  0
   47.4530   35.8760   40.2520 H   0  0  0  0  0  0  0  0  0  0  0  0
   48.2320   34.8040   42.6040 H   0  0  0  0  0  0  0  0  0  0  0  0
   45.4050   30.9910   44.0020 C   0  0  0  0  0  0  0  0  0  0  0  0
   46.0770   31.5250   42.9020 C   0  0  0  0  0  0  0  0  0  0  0  0
   47.1810   32.3590   43.0080 C   0  0  0  0  0  0  0  0  0  0  0  0
   47.5810   32.6370   44.2590 N   0  0  0  0  0  0  0  0  0  0  0  0
   46.9420   32.1290   45.3400 C   0  0  0  0  0  0  0  0  0  0  0  0
   45.8840   31.3290   45.2280 N   0  0  0  0  0  0  0  0  0  0  0  0
   44.5480   30.3450   43.8410 H   0  0  0  0  0  0  0  0  0  0  0  0
   45.7440   31.2940   41.8810 H   0  0  0  0  0  0  0  0  0  0  0  0
   47.3230   32.3970   46.3210 H   0  0  0  0  0  0  0  0  0  0  0  0
   46.2420   34.7600   42.0520 C   0  0  0  0  0  0  0  0  0  0  0  0
   45.7790   35.3230   43.2490 C   0  0  0  0  0  0  0  0  0  0  0  0
   44.4070   35.6090   43.2870 C   0  0  0  0  0  0  0  0  0  0  0  0
   43.6410   35.3220   42.1730 C   0  0  0  0  0  0  0  0  0  0  0  0
   44.1190   34.7710   41.0140 C   0  0  0  0  0  0  0  0  0  0  0  0
   45.4410   34.4930   40.9720 N   0  0  0  0  0  0  0  0  0  0  0  0
   46.5240   35.4730   44.0030 H   0  0  0  0  0  0  0  0  0  0  0  0
   44.0750   36.0350   44.2010 H   0  0  0  0  0  0  0  0  0  0  0  0
   42.5850   35.5640   42.2580 H   0  0  0  0  0  0  0  0  0  0  0  0
   43.2120   34.5100   39.8960 C   0  0  0  0  0  0  0  0  0  0  0  0
   41.9720   35.0780   39.6870 C   0  0  0  0  0  0  0  0  0  0  0  0
   41.5380   35.7970   40.3580 H   0  0  0  0  0  0  0  0  0  0  0  0
   41.5300   34.4960   38.4950 C   0  0  0  0  0  0  0  0  0  0  0  0
   40.5400   34.8090   38.1280 H   0  0  0  0  0  0  0  0  0  0  0  0
   42.4700   33.6330   38.0360 N   0  0  0  0  0  0  0  0  0  0  0  0
   42.2290   33.1450   37.1420 H   0  0  0  0  0  0  0  0  0  0  0  0
   43.4900   33.6590   38.9110 N   0  0  0  0  0  0  0  0  0  0  0  0
  1  7  1  1  0  0  0
  1 19  1  0  0  0  0
  2  9  1  0  0  0  0
  2  1  1  0  0  0  0
  3 11  1  0  0  0  0
  3  2  1  0  0  0  0
  4  3  1  0  0  0  0
  4  5  1  0  0  0  0
  5 14  1  0  0  0  0
  5  6  1  0  0  0  0
  6  1  1  0  0  0  0
  6 26  1  0  0  0  0
  6 16  1  1  0  0  0
  8  2  1  0  0  0  0
 10  3  1  0  0  0  0
 12  4  1  0  0  0  0
 13  4  1  0  0  0  0
 15  5  1  0  0  0  0
 17 22  1  0  0  0  0
 18 19  1  0  0  0  0
 18 17  2  0  0  0  0
 19 20  2  0  0  0  0
 20 21  1  0  0  0  0
 21 25  1  0  0  0  0
 22 21  2  0  0  0  0
 23 17  1  0  0  0  0
 24 18  1  0  0  0  0
 26 27  1  0  0  0  0
 27 28  2  0  0  0  0
 27 32  1  0  0  0  0
 28 33  1  0  0  0  0
 29 34  1  0  0  0  0
 29 28  1  0  0  0  0
 30 29  2  0  0  0  0
 31 30  1  0  0  0  0
 31 26  2  0  0  0  0
 35 30  1  0  0  0  0
 36 35  1  0  0  0  0
 36 37  1  0  0  0  0
 38 36  2  0  0  0  0
 39 38  1  0  0  0  0
 40 38  1  0  0  0  0
 40 42  1  0  0  0  0
 41 40  1  0  0  0  0
 42 35  2  0  0  0  0
M  END
>  <minimizedAffinity>
-5.61214113

>  <minimizedRMSD>
0.198620021

$$$$
