
 OpenBabel03252503423D

 20 21  0  0  0  0  0  0  0  0999 V2000
   37.1810   26.6280   40.7170 C   0  0  0  0  0  0  0  0  0  0  0  0
   37.0210   26.1780   42.0350 C   0  0  0  0  0  0  0  0  0  0  0  0
   36.9450   27.1200   43.0480 C   0  0  0  0  0  0  0  0  0  0  0  0
   37.0320   28.4330   42.6930 N   0  0  0  0  0  0  0  0  0  0  0  0
   37.1860   28.8340   41.4220 C   0  0  0  0  0  0  0  0  0  0  0  0
   37.2640   27.9390   40.4010 N   0  0  0  0  0  0  0  0  0  0  0  0
   37.2480   25.9510   39.8770 H   0  0  0  0  0  0  0  0  0  0  0  0
   36.8240   26.7250   44.0240 H   0  0  0  0  0  0  0  0  0  0  0  0
   37.2740   30.2560   41.1000 C   0  0  0  0  0  0  0  0  0  0  0  0
   38.4240   31.0100   40.9940 C   0  0  0  0  0  0  0  0  0  0  0  0
   39.4480   30.6500   41.1360 H   0  0  0  0  0  0  0  0  0  0  0  0
   38.0100   32.2720   40.6800 C   0  0  0  0  0  0  0  0  0  0  0  0
   38.7270   33.0890   40.5330 H   0  0  0  0  0  0  0  0  0  0  0  0
   36.6650   32.2860   40.5980 N   0  0  0  0  0  0  0  0  0  0  0  0
   36.0850   33.1410   40.3670 H   0  0  0  0  0  0  0  0  0  0  0  0
   36.1990   31.0600   40.8530 N   0  0  0  0  0  0  0  0  0  0  0  0
   36.9500   24.6970   42.1790 C   0  0  0  0  0  0  0  0  0  0  0  0
   36.7680   24.4020   43.2160 H   0  0  0  0  0  0  0  0  0  0  0  0
   37.8320   24.1820   41.7350 H   0  0  0  0  0  0  0  0  0  0  0  0
   36.0720   24.3560   41.5910 H   0  0  0  0  0  0  0  0  0  0  0  0
  1  2  1  0  0  0  0
  2 17  1  0  0  0  0
  2  3  2  0  0  0  0
  3  8  1  0  0  0  0
  4  3  1  0  0  0  0
  5  4  2  0  0  0  0
  6  1  2  0  0  0  0
  6  5  1  0  0  0  0
  7  1  1  0  0  0  0
  9  5  1  0  0  0  0
 10  9  1  0  0  0  0
 10 11  1  0  0  0  0
 12 10  2  0  0  0  0
 13 12  1  0  0  0  0
 14 12  1  0  0  0  0
 14 16  1  0  0  0  0
 15 14  1  0  0  0  0
 16  9  2  0  0  0  0
 17 18  1  0  0  0  0
 19 17  1  0  0  0  0
 20 17  1  0  0  0  0
M  END
>  <minimizedAffinity>
-4.24110031

$$$$

 OpenBabel03252503423D

 20 21  0  0  0  0  0  0  0  0999 V2000
   37.9960   29.0290   42.6150 C   0  0  0  0  0  0  0  0  0  0  0  0
   36.8870   28.2630   42.2320 C   0  0  0  0  0  0  0  0  0  0  0  0
   36.0370   28.7740   41.2650 C   0  0  0  0  0  0  0  0  0  0  0  0
   36.3380   29.9980   40.7460 N   0  0  0  0  0  0  0  0  0  0  0  0
   37.4080   30.7080   41.1330 C   0  0  0  0  0  0  0  0  0  0  0  0
   38.2640   30.2400   42.0800 N   0  0  0  0  0  0  0  0  0  0  0  0
   38.7020   28.6940   43.3630 H   0  0  0  0  0  0  0  0  0  0  0  0
   35.2140   28.1540   41.0120 H   0  0  0  0  0  0  0  0  0  0  0  0
   37.6810   32.0160   40.5430 C   0  0  0  0  0  0  0  0  0  0  0  0
   38.6930   32.8850   40.8920 C   0  0  0  0  0  0  0  0  0  0  0  0
   39.4470   32.7210   41.6690 H   0  0  0  0  0  0  0  0  0  0  0  0
   38.5490   33.9680   40.0720 C   0  0  0  0  0  0  0  0  0  0  0  0
   39.2300   34.8250   40.1320 H   0  0  0  0  0  0  0  0  0  0  0  0
   37.4930   33.7660   39.2590 N   0  0  0  0  0  0  0  0  0  0  0  0
   37.1600   34.4510   38.5250 H   0  0  0  0  0  0  0  0  0  0  0  0
   36.9510   32.5770   39.5350 N   0  0  0  0  0  0  0  0  0  0  0  0
   36.7630   26.9560   42.9370 C   0  0  0  0  0  0  0  0  0  0  0  0
   35.9170   26.3750   42.5600 H   0  0  0  0  0  0  0  0  0  0  0  0
   36.7490   27.0680   44.0440 H   0  0  0  0  0  0  0  0  0  0  0  0
   37.6790   26.3740   42.7030 H   0  0  0  0  0  0  0  0  0  0  0  0
  1  7  1  0  0  0  0
  2  1  1  0  0  0  0
  2 17  1  0  0  0  0
  3  2  2  0  0  0  0
  4  5  2  0  0  0  0
  4  3  1  0  0  0  0
  5  6  1  0  0  0  0
  6  1  2  0  0  0  0
  8  3  1  0  0  0  0
  9 10  1  0  0  0  0
  9  5  1  0  0  0  0
 10 11  1  0  0  0  0
 12 13  1  0  0  0  0
 12 10  2  0  0  0  0
 14 16  1  0  0  0  0
 14 12  1  0  0  0  0
 15 14  1  0  0  0  0
 16  9  2  0  0  0  0
 17 19  1  0  0  0  0
 18 17  1  0  0  0  0
 20 17  1  0  0  0  0
M  END
>  <minimizedAffinity>
-4.16154146

$$$$

 OpenBabel03252503423D

 20 21  0  0  0  0  0  0  0  0999 V2000
   39.4680   26.7820   42.9310 C   0  0  0  0  0  0  0  0  0  0  0  0
   38.9050   25.5290   42.6530 C   0  0  0  0  0  0  0  0  0  0  0  0
   37.6960   25.4850   41.9790 C   0  0  0  0  0  0  0  0  0  0  0  0
   37.1280   26.6740   41.6280 N   0  0  0  0  0  0  0  0  0  0  0  0
   37.6900   27.8580   41.9080 C   0  0  0  0  0  0  0  0  0  0  0  0
   38.8760   27.9420   42.5680 N   0  0  0  0  0  0  0  0  0  0  0  0
   40.4090   26.8940   43.4520 H   0  0  0  0  0  0  0  0  0  0  0  0
   37.3160   24.5120   41.7950 H   0  0  0  0  0  0  0  0  0  0  0  0
   37.0350   29.1010   41.5080 C   0  0  0  0  0  0  0  0  0  0  0  0
   37.6230   30.3430   41.3850 C   0  0  0  0  0  0  0  0  0  0  0  0
   38.6750   30.5810   41.5710 H   0  0  0  0  0  0  0  0  0  0  0  0
   36.6240   31.1860   40.9900 C   0  0  0  0  0  0  0  0  0  0  0  0
   36.8130   32.2520   40.8130 H   0  0  0  0  0  0  0  0  0  0  0  0
   35.4780   30.4870   40.8770 N   0  0  0  0  0  0  0  0  0  0  0  0
   34.5480   30.9000   40.5850 H   0  0  0  0  0  0  0  0  0  0  0  0
   35.7120   29.2100   41.1910 N   0  0  0  0  0  0  0  0  0  0  0  0
   39.7080   24.3700   43.1340 C   0  0  0  0  0  0  0  0  0  0  0  0
   39.2560   23.4180   42.8420 H   0  0  0  0  0  0  0  0  0  0  0  0
   39.9280   24.4250   44.2240 H   0  0  0  0  0  0  0  0  0  0  0  0
   40.6930   24.4250   42.6240 H   0  0  0  0  0  0  0  0  0  0  0  0
  1  7  1  0  0  0  0
  2  1  1  0  0  0  0
  2 17  1  0  0  0  0
  3  2  2  0  0  0  0
  4  5  2  0  0  0  0
  4  3  1  0  0  0  0
  5  6  1  0  0  0  0
  6  1  2  0  0  0  0
  8  3  1  0  0  0  0
  9  5  1  0  0  0  0
 10  9  1  0  0  0  0
 10 11  1  0  0  0  0
 12 10  2  0  0  0  0
 13 12  1  0  0  0  0
 14 12  1  0  0  0  0
 14 16  1  0  0  0  0
 15 14  1  0  0  0  0
 16  9  2  0  0  0  0
 17 19  1  0  0  0  0
 18 17  1  0  0  0  0
 20 17  1  0  0  0  0
M  END
>  <minimizedAffinity>
-3.9684217

$$$$

 OpenBabel03252503423D

 20 21  0  0  0  0  0  0  0  0999 V2000
   39.3120   27.7470   41.3960 C   0  0  0  0  0  0  0  0  0  0  0  0
   38.8400   27.3570   42.6570 C   0  0  0  0  0  0  0  0  0  0  0  0
   38.0690   28.2540   43.3770 C   0  0  0  0  0  0  0  0  0  0  0  0
   37.8190   29.4670   42.8080 N   0  0  0  0  0  0  0  0  0  0  0  0
   38.2840   29.8120   41.5990 C   0  0  0  0  0  0  0  0  0  0  0  0
   39.0440   28.9590   40.8620 N   0  0  0  0  0  0  0  0  0  0  0  0
   39.9180   27.0990   40.7770 H   0  0  0  0  0  0  0  0  0  0  0  0
   37.7380   27.9070   44.3240 H   0  0  0  0  0  0  0  0  0  0  0  0
   37.9850   31.1270   41.0390 C   0  0  0  0  0  0  0  0  0  0  0  0
   38.8830   32.1440   40.7890 C   0  0  0  0  0  0  0  0  0  0  0  0
   39.9620   32.1130   40.9750 H   0  0  0  0  0  0  0  0  0  0  0  0
   38.1450   33.1690   40.2710 C   0  0  0  0  0  0  0  0  0  0  0  0
   38.6110   34.1170   39.9760 H   0  0  0  0  0  0  0  0  0  0  0  0
   36.8530   32.7930   40.2080 N   0  0  0  0  0  0  0  0  0  0  0  0
   36.0660   33.4000   39.8440 H   0  0  0  0  0  0  0  0  0  0  0  0
   36.7380   31.5460   40.6740 N   0  0  0  0  0  0  0  0  0  0  0  0
   39.2410   25.9830   43.0700 C   0  0  0  0  0  0  0  0  0  0  0  0
   38.8000   25.7070   44.0320 H   0  0  0  0  0  0  0  0  0  0  0  0
   40.3440   25.8340   43.0450 H   0  0  0  0  0  0  0  0  0  0  0  0
   38.8240   25.2830   42.3160 H   0  0  0  0  0  0  0  0  0  0  0  0
  1  2  1  0  0  0  0
  2 17  1  0  0  0  0
  2  3  2  0  0  0  0
  3  8  1  0  0  0  0
  4  3  1  0  0  0  0
  5  4  2  0  0  0  0
  6  1  2  0  0  0  0
  6  5  1  0  0  0  0
  7  1  1  0  0  0  0
  9  5  1  0  0  0  0
 10 11  1  0  0  0  0
 10  9  1  0  0  0  0
 12 10  2  0  0  0  0
 13 12  1  0  0  0  0
 14 12  1  0  0  0  0
 14 16  1  0  0  0  0
 15 14  1  0  0  0  0
 16  9  2  0  0  0  0
 17 18  1  0  0  0  0
 19 17  1  0  0  0  0
 20 17  1  0  0  0  0
M  END
>  <minimizedAffinity>
-3.95649743

$$$$

 OpenBabel03252503423D

 20 21  0  0  0  0  0  0  0  0999 V2000
   36.3890   28.4780   40.8600 C   0  0  0  0  0  0  0  0  0  0  0  0
   36.8770   29.6640   41.4250 C   0  0  0  0  0  0  0  0  0  0  0  0
   37.9150   29.5800   42.3380 C   0  0  0  0  0  0  0  0  0  0  0  0
   38.3970   28.3390   42.6300 N   0  0  0  0  0  0  0  0  0  0  0  0
   37.9100   27.2210   42.0730 C   0  0  0  0  0  0  0  0  0  0  0  0
   36.8910   27.2630   41.1730 N   0  0  0  0  0  0  0  0  0  0  0  0
   35.5820   28.4660   40.1410 H   0  0  0  0  0  0  0  0  0  0  0  0
   38.2450   30.5080   42.7340 H   0  0  0  0  0  0  0  0  0  0  0  0
   38.4660   25.9160   42.4240 C   0  0  0  0  0  0  0  0  0  0  0  0
   39.6620   25.6730   43.0660 C   0  0  0  0  0  0  0  0  0  0  0  0
   40.3760   26.4290   43.4100 H   0  0  0  0  0  0  0  0  0  0  0  0
   39.7530   24.3150   43.1740 C   0  0  0  0  0  0  0  0  0  0  0  0
   40.6170   23.8370   43.6520 H   0  0  0  0  0  0  0  0  0  0  0  0
   38.6590   23.7560   42.6200 N   0  0  0  0  0  0  0  0  0  0  0  0
   38.4760   22.7140   42.5700 H   0  0  0  0  0  0  0  0  0  0  0  0
   37.8620   24.7220   42.1570 N   0  0  0  0  0  0  0  0  0  0  0  0
   36.1930   30.9010   40.9530 C   0  0  0  0  0  0  0  0  0  0  0  0
   36.6490   31.7990   41.3790 H   0  0  0  0  0  0  0  0  0  0  0  0
   35.0910   30.8650   41.1050 H   0  0  0  0  0  0  0  0  0  0  0  0
   36.3450   30.9560   39.8550 H   0  0  0  0  0  0  0  0  0  0  0  0
  1  6  2  0  0  0  0
  1  2  1  0  0  0  0
  2  3  2  0  0  0  0
  3  4  1  0  0  0  0
  3  8  1  0  0  0  0
  5  9  1  0  0  0  0
  5  4  2  0  0  0  0
  6  5  1  0  0  0  0
  7  1  1  0  0  0  0
  9 10  1  0  0  0  0
 10 12  2  0  0  0  0
 10 11  1  0  0  0  0
 12 13  1  0  0  0  0
 14 12  1  0  0  0  0
 15 14  1  0  0  0  0
 16  9  2  0  0  0  0
 16 14  1  0  0  0  0
 17 19  1  0  0  0  0
 17 18  1  0  0  0  0
 17  2  1  0  0  0  0
 20 17  1  0  0  0  0
M  END
>  <minimizedAffinity>
-3.910285

$$$$

 OpenBabel03252503423D

 20 21  0  0  0  0  0  0  0  0999 V2000
   37.6900   25.2900   41.7940 C   0  0  0  0  0  0  0  0  0  0  0  0
   37.3200   24.5490   40.6630 C   0  0  0  0  0  0  0  0  0  0  0  0
   36.6760   25.2070   39.6280 C   0  0  0  0  0  0  0  0  0  0  0  0
   36.4420   26.5420   39.7790 N   0  0  0  0  0  0  0  0  0  0  0  0
   36.8090   27.2240   40.8740 C   0  0  0  0  0  0  0  0  0  0  0  0
   37.4430   26.6130   41.9100 N   0  0  0  0  0  0  0  0  0  0  0  0
   38.1960   24.8440   42.6390 H   0  0  0  0  0  0  0  0  0  0  0  0
   36.4180   24.5990   38.7970 H   0  0  0  0  0  0  0  0  0  0  0  0
   36.5320   28.6540   40.9810 C   0  0  0  0  0  0  0  0  0  0  0  0
   37.4240   29.6440   41.3380 C   0  0  0  0  0  0  0  0  0  0  0  0
   38.4780   29.5010   41.5950 H   0  0  0  0  0  0  0  0  0  0  0  0
   36.7150   30.8100   41.3010 C   0  0  0  0  0  0  0  0  0  0  0  0
   37.1830   31.7720   41.5430 H   0  0  0  0  0  0  0  0  0  0  0  0
   35.4450   30.5410   40.9360 N   0  0  0  0  0  0  0  0  0  0  0  0
   34.6830   31.2680   40.8290 H   0  0  0  0  0  0  0  0  0  0  0  0
   35.3170   29.2260   40.7370 N   0  0  0  0  0  0  0  0  0  0  0  0
   37.6800   23.1050   40.7230 C   0  0  0  0  0  0  0  0  0  0  0  0
   37.4220   22.5870   39.7950 H   0  0  0  0  0  0  0  0  0  0  0  0
   37.2690   22.6000   41.6260 H   0  0  0  0  0  0  0  0  0  0  0  0
   38.7850   23.0510   40.8220 H   0  0  0  0  0  0  0  0  0  0  0  0
  1  6  1  0  0  0  0
  1  7  1  0  0  0  0
  2 17  1  0  0  0  0
  2  1  2  0  0  0  0
  3  4  2  0  0  0  0
  3  2  1  0  0  0  0
  4  5  1  0  0  0  0
  5  9  1  0  0  0  0
  5  6  2  0  0  0  0
  8  3  1  0  0  0  0
  9 10  1  0  0  0  0
 10 11  1  0  0  0  0
 12 10  2  0  0  0  0
 12 13  1  0  0  0  0
 14 12  1  0  0  0  0
 15 14  1  0  0  0  0
 16 14  1  0  0  0  0
 16  9  2  0  0  0  0
 17 20  1  0  0  0  0
 17 19  1  0  0  0  0
 18 17  1  0  0  0  0
M  END
>  <minimizedAffinity>
-3.81592846

$$$$

 OpenBabel03252503423D

 20 21  0  0  0  0  0  0  0  0999 V2000
   36.8590   29.1940   41.8040 C   0  0  0  0  0  0  0  0  0  0  0  0
   37.5020   28.3260   42.6970 C   0  0  0  0  0  0  0  0  0  0  0  0
   38.7740   28.6570   43.1350 C   0  0  0  0  0  0  0  0  0  0  0  0
   39.3210   29.8130   42.6640 N   0  0  0  0  0  0  0  0  0  0  0  0
   38.6810   30.6240   41.8090 C   0  0  0  0  0  0  0  0  0  0  0  0
   37.4320   30.3340   41.3570 N   0  0  0  0  0  0  0  0  0  0  0  0
   35.8660   29.0020   41.4210 H   0  0  0  0  0  0  0  0  0  0  0  0
   39.2130   27.9660   43.8090 H   0  0  0  0  0  0  0  0  0  0  0  0
   39.3170   31.8510   41.3370 C   0  0  0  0  0  0  0  0  0  0  0  0
   38.6890   32.9470   40.7810 C   0  0  0  0  0  0  0  0  0  0  0  0
   37.6130   33.0580   40.6110 H   0  0  0  0  0  0  0  0  0  0  0  0
   39.6840   33.8380   40.4980 C   0  0  0  0  0  0  0  0  0  0  0  0
   39.4670   34.8120   40.0430 H   0  0  0  0  0  0  0  0  0  0  0  0
   40.8670   33.3070   40.8650 N   0  0  0  0  0  0  0  0  0  0  0  0
   41.8030   33.7900   40.7570 H   0  0  0  0  0  0  0  0  0  0  0  0
   40.6590   32.0920   41.3800 N   0  0  0  0  0  0  0  0  0  0  0  0
   36.7070   27.1240   43.0720 C   0  0  0  0  0  0  0  0  0  0  0  0
   37.2290   26.5120   43.8130 H   0  0  0  0  0  0  0  0  0  0  0  0
   36.3760   26.5370   42.1860 H   0  0  0  0  0  0  0  0  0  0  0  0
   35.7770   27.4890   43.5570 H   0  0  0  0  0  0  0  0  0  0  0  0
  1  2  1  0  0  0  0
  2 17  1  0  0  0  0
  2  3  2  0  0  0  0
  3  8  1  0  0  0  0
  4  3  1  0  0  0  0
  5  4  2  0  0  0  0
  6  1  2  0  0  0  0
  6  5  1  0  0  0  0
  7  1  1  0  0  0  0
  9 16  2  0  0  0  0
  9  5  1  0  0  0  0
 10  9  1  0  0  0  0
 11 10  1  0  0  0  0
 12 10  2  0  0  0  0
 12 14  1  0  0  0  0
 13 12  1  0  0  0  0
 14 16  1  0  0  0  0
 15 14  1  0  0  0  0
 17 20  1  0  0  0  0
 17 18  1  0  0  0  0
 19 17  1  0  0  0  0
M  END
>  <minimizedAffinity>
-3.7931633

$$$$

 OpenBabel03252503423D

 20 21  0  0  0  0  0  0  0  0999 V2000
   36.0010   29.6590   37.6940 C   0  0  0  0  0  0  0  0  0  0  0  0
   35.3000   28.8060   38.5570 C   0  0  0  0  0  0  0  0  0  0  0  0
   35.3210   29.0820   39.9150 C   0  0  0  0  0  0  0  0  0  0  0  0
   36.0290   30.1730   40.3240 N   0  0  0  0  0  0  0  0  0  0  0  0
   36.6910   30.9700   39.4730 C   0  0  0  0  0  0  0  0  0  0  0  0
   36.6930   30.7320   38.1350 N   0  0  0  0  0  0  0  0  0  0  0  0
   36.0280   29.5060   36.6230 H   0  0  0  0  0  0  0  0  0  0  0  0
   34.7740   28.4060   40.5220 H   0  0  0  0  0  0  0  0  0  0  0  0
   37.4350   32.1260   39.9690 C   0  0  0  0  0  0  0  0  0  0  0  0
   37.3460   33.4240   39.5120 C   0  0  0  0  0  0  0  0  0  0  0  0
   36.7000   33.7820   38.7040 H   0  0  0  0  0  0  0  0  0  0  0  0
   38.2210   34.1440   40.2730 C   0  0  0  0  0  0  0  0  0  0  0  0
   38.3560   35.2220   40.1240 H   0  0  0  0  0  0  0  0  0  0  0  0
   38.8180   33.3190   41.1560 N   0  0  0  0  0  0  0  0  0  0  0  0
   39.5420   33.6200   41.8670 H   0  0  0  0  0  0  0  0  0  0  0  0
   38.3480   32.0810   40.9830 N   0  0  0  0  0  0  0  0  0  0  0  0
   34.5990   27.6790   37.8810 C   0  0  0  0  0  0  0  0  0  0  0  0
   34.0220   27.0810   38.5910 H   0  0  0  0  0  0  0  0  0  0  0  0
   35.2840   27.0630   37.2560 H   0  0  0  0  0  0  0  0  0  0  0  0
   33.8690   28.1290   37.1750 H   0  0  0  0  0  0  0  0  0  0  0  0
  1  6  2  0  0  0  0
  1  2  1  0  0  0  0
  2  3  2  0  0  0  0
  3  4  1  0  0  0  0
  3  8  1  0  0  0  0
  5  9  1  0  0  0  0
  5  4  2  0  0  0  0
  6  5  1  0  0  0  0
  7  1  1  0  0  0  0
  9 16  2  0  0  0  0
 10  9  1  0  0  0  0
 10 12  2  0  0  0  0
 11 10  1  0  0  0  0
 12 14  1  0  0  0  0
 13 12  1  0  0  0  0
 14 15  1  0  0  0  0
 16 14  1  0  0  0  0
 17  2  1  0  0  0  0
 17 18  1  0  0  0  0
 19 17  1  0  0  0  0
 20 17  1  0  0  0  0
M  END
>  <minimizedAffinity>
-3.75381708

$$$$

 OpenBabel03252503423D

 20 21  0  0  0  0  0  0  0  0999 V2000
   39.3210   32.1450   41.3060 C   0  0  0  0  0  0  0  0  0  0  0  0
   38.2670   32.7100   40.5740 C   0  0  0  0  0  0  0  0  0  0  0  0
   37.0940   31.9850   40.4440 C   0  0  0  0  0  0  0  0  0  0  0  0
   37.0420   30.7600   41.0410 N   0  0  0  0  0  0  0  0  0  0  0  0
   38.0670   30.2460   41.7350 C   0  0  0  0  0  0  0  0  0  0  0  0
   39.2340   30.9270   41.8850 N   0  0  0  0  0  0  0  0  0  0  0  0
   40.2650   32.6530   41.4500 H   0  0  0  0  0  0  0  0  0  0  0  0
   36.3300   32.4590   39.8810 H   0  0  0  0  0  0  0  0  0  0  0  0
   37.9550   28.9270   42.3530 C   0  0  0  0  0  0  0  0  0  0  0  0
   38.9400   28.2500   43.0410 C   0  0  0  0  0  0  0  0  0  0  0  0
   39.9590   28.6050   43.2260 H   0  0  0  0  0  0  0  0  0  0  0  0
   38.3740   27.0690   43.4290 C   0  0  0  0  0  0  0  0  0  0  0  0
   38.9400   26.3250   44.0020 H   0  0  0  0  0  0  0  0  0  0  0  0
   37.0990   27.0300   42.9960 N   0  0  0  0  0  0  0  0  0  0  0  0
   36.4320   26.2250   43.1610 H   0  0  0  0  0  0  0  0  0  0  0  0
   36.8270   28.1590   42.3360 N   0  0  0  0  0  0  0  0  0  0  0  0
   38.5550   34.0600   40.0150 C   0  0  0  0  0  0  0  0  0  0  0  0
   37.6840   34.4780   39.5040 H   0  0  0  0  0  0  0  0  0  0  0  0
   39.4720   34.0730   39.3820 H   0  0  0  0  0  0  0  0  0  0  0  0
   38.7720   34.7270   40.8750 H   0  0  0  0  0  0  0  0  0  0  0  0
  1  7  1  0  0  0  0
  1  6  1  0  0  0  0
  2  1  2  0  0  0  0
  3  2  1  0  0  0  0
  3  4  2  0  0  0  0
  4  5  1  0  0  0  0
  5  6  2  0  0  0  0
  5  9  1  0  0  0  0
  8  3  1  0  0  0  0
  9 10  1  0  0  0  0
 10 11  1  0  0  0  0
 10 12  2  0  0  0  0
 12 13  1  0  0  0  0
 14 15  1  0  0  0  0
 14 12  1  0  0  0  0
 16  9  2  0  0  0  0
 16 14  1  0  0  0  0
 17  2  1  0  0  0  0
 17 20  1  0  0  0  0
 18 17  1  0  0  0  0
 19 17  1  0  0  0  0
M  END
>  <minimizedAffinity>
-3.7531836

$$$$
