
 OpenBabel03252508203D

 33 35  0  0  0  0  0  0  0  0999 V2000
   44.4890   33.9550   40.5430 C   0  0  0  0  0  0  0  0  0  0  0  0
   44.6490   35.0030   41.4470 C   0  0  0  0  0  0  0  0  0  0  0  0
   43.6230   35.7180   42.0540 C   0  0  0  0  0  0  0  0  0  0  0  0
   42.3480   35.3140   41.6980 C   0  0  0  0  0  0  0  0  0  0  0  0
   42.1650   34.2860   40.8100 C   0  0  0  0  0  0  0  0  0  0  0  0
   43.1980   33.5820   40.2140 C   0  0  0  0  0  0  0  0  0  0  0  0
   45.6860   35.2550   41.6720 H   0  0  0  0  0  0  0  0  0  0  0  0
   43.9220   36.4960   42.7270 H   0  0  0  0  0  0  0  0  0  0  0  0
   41.5470   35.8630   42.1640 H   0  0  0  0  0  0  0  0  0  0  0  0
   41.1080   34.1010   40.6430 H   0  0  0  0  0  0  0  0  0  0  0  0
   42.7620   32.5360   39.3050 C   0  0  0  0  0  0  0  0  0  0  0  0
   42.4200   32.4850   37.9820 C   0  0  0  0  0  0  0  0  0  0  0  0
   42.4060   33.3110   37.2990 H   0  0  0  0  0  0  0  0  0  0  0  0
   42.0950   31.2460   37.5500 C   0  0  0  0  0  0  0  0  0  0  0  0
   41.7910   30.9040   36.5810 H   0  0  0  0  0  0  0  0  0  0  0  0
   42.2410   30.4980   38.6500 N   0  0  0  0  0  0  0  0  0  0  0  0
   42.0960   29.4610   38.7950 H   0  0  0  0  0  0  0  0  0  0  0  0
   42.6250   31.2600   39.6440 N   0  0  0  0  0  0  0  0  0  0  0  0
   45.6050   33.2510   39.9220 C   0  0  0  0  0  0  0  0  0  0  0  0
   45.4790   33.3570   38.8230 H   0  0  0  0  0  0  0  0  0  0  0  0
   45.6920   32.1970   40.2270 H   0  0  0  0  0  0  0  0  0  0  0  0
   46.9430   33.9730   40.1830 C   0  0  0  0  0  0  0  0  0  0  0  0
   46.7400   35.0300   39.9750 H   0  0  0  0  0  0  0  0  0  0  0  0
   47.2870   33.7740   41.1960 H   0  0  0  0  0  0  0  0  0  0  0  0
   48.9370   33.6110   36.9920 C   0  0  0  0  0  0  0  0  0  0  0  0
   47.9920   34.1210   37.9260 C   0  0  0  0  0  0  0  0  0  0  0  0
   47.9100   33.4880   39.1560 C   0  0  0  0  0  0  0  0  0  0  0  0
   48.7490   32.4210   39.3700 N   0  0  0  0  0  0  0  0  0  0  0  0
   49.6200   31.9690   38.4810 C   0  0  0  0  0  0  0  0  0  0  0  0
   49.7220   32.5580   37.2870 N   0  0  0  0  0  0  0  0  0  0  0  0
   48.9810   34.1250   36.0380 H   0  0  0  0  0  0  0  0  0  0  0  0
   47.3720   34.9670   37.6690 H   0  0  0  0  0  0  0  0  0  0  0  0
   50.2610   31.1260   38.6910 H   0  0  0  0  0  0  0  0  0  0  0  0
  1  2  1  0  0  0  0
  2  7  1  0  0  0  0
  2  3  2  0  0  0  0
  3  8  1  0  0  0  0
  4  3  1  0  0  0  0
  4  9  1  0  0  0  0
  5  4  2  0  0  0  0
  6  1  2  0  0  0  0
  6  5  1  0  0  0  0
 10  5  1  0  0  0  0
 11 18  2  0  0  0  0
 11  6  1  0  0  0  0
 12 11  1  0  0  0  0
 13 12  1  0  0  0  0
 14 12  2  0  0  0  0
 14 16  1  0  0  0  0
 15 14  1  0  0  0  0
 16 17  1  0  0  0  0
 16 18  1  0  0  0  0
 19 22  1  0  0  0  0
 19 21  1  0  0  0  0
 19  1  1  0  0  0  0
 20 19  1  0  0  0  0
 22 24  1  0  0  0  0
 23 22  1  0  0  0  0
 25 30  2  0  0  0  0
 25 26  1  0  0  0  0
 26 27  2  0  0  0  0
 27 28  1  0  0  0  0
 27 22  1  0  0  0  0
 29 33  1  0  0  0  0
 29 28  2  0  0  0  0
 30 29  1  0  0  0  0
 31 25  1  0  0  0  0
 32 26  1  0  0  0  0
M  END
>  <minimizedAffinity>
-3.67004848

>  <minimizedRMSD>
7.10715103

$$$$
