
 OpenBabel03252505043D

 33 35  0  0  1  0  0  0  0  0999 V2000
   37.5380   30.0090   40.0720 C   0  0  2  0  0  0  0  0  0  0  0  0
   38.8990   30.2060   39.4900 C   0  0  0  0  0  0  0  0  0  0  0  0
   39.5460   31.4980   39.7820 C   0  0  0  0  0  0  0  0  0  0  0  0
   38.5670   32.5640   39.3060 C   0  0  0  0  0  0  0  0  0  0  0  0
   37.3360   32.5670   40.0940 C   0  0  0  0  0  0  0  0  0  0  0  0
   36.8230   31.2080   40.4830 C   0  0  0  0  0  0  0  0  0  0  0  0
   36.9130   29.4490   39.3360 H   0  0  0  0  0  0  0  0  0  0  0  0
   38.8150   30.1300   38.3730 H   0  0  0  0  0  0  0  0  0  0  0  0
   39.5970   29.3800   39.7570 H   0  0  0  0  0  0  0  0  0  0  0  0
   40.4250   31.6010   39.0950 H   0  0  0  0  0  0  0  0  0  0  0  0
   39.9130   31.6580   40.7940 H   0  0  0  0  0  0  0  0  0  0  0  0
   38.4100   32.4140   38.2390 H   0  0  0  0  0  0  0  0  0  0  0  0
   39.0680   33.5250   39.5340 H   0  0  0  0  0  0  0  0  0  0  0  0
   36.6610   33.2700   40.4990 H   0  0  0  0  0  0  0  0  0  0  0  0
   37.9810   28.6840   43.5030 C   0  0  0  0  0  0  0  0  0  0  0  0
   38.0030   27.2830   43.2820 C   0  0  0  0  0  0  0  0  0  0  0  0
   37.8670   26.8320   41.9460 C   0  0  0  0  0  0  0  0  0  0  0  0
   37.7240   27.7520   40.9590 N   0  0  0  0  0  0  0  0  0  0  0  0
   37.7080   29.0680   41.2090 C   0  0  0  0  0  0  0  0  0  0  0  0
   37.8360   29.5560   42.4850 N   0  0  0  0  0  0  0  0  0  0  0  0
   38.0870   28.9900   44.5360 H   0  0  0  0  0  0  0  0  0  0  0  0
   38.1190   26.5890   44.0990 H   0  0  0  0  0  0  0  0  0  0  0  0
   37.8880   25.3940   41.6980 C   0  0  0  0  0  0  0  0  0  0  0  0
   37.0040   24.6910   40.9460 C   0  0  0  0  0  0  0  0  0  0  0  0
   36.1690   25.1420   40.4390 H   0  0  0  0  0  0  0  0  0  0  0  0
   37.4500   23.3790   41.0210 C   0  0  0  0  0  0  0  0  0  0  0  0
   36.9290   22.5650   40.5050 H   0  0  0  0  0  0  0  0  0  0  0  0
   38.5650   23.3420   41.8020 N   0  0  0  0  0  0  0  0  0  0  0  0
   39.0090   22.3900   41.9410 H   0  0  0  0  0  0  0  0  0  0  0  0
   38.8070   24.5840   42.2000 N   0  0  0  0  0  0  0  0  0  0  0  0
   35.6330   31.0660   41.2580 N   0  0  0  0  0  0  0  0  0  0  0  0
   34.9280   30.6840   40.5700 H   0  0  0  0  0  0  0  0  0  0  0  0
   35.8840   31.3910   42.2370 H   0  0  0  0  0  0  0  0  0  0  0  0
  1  7  1  6  0  0  0
  1  6  1  0  0  0  0
  1 19  1  0  0  0  0
  2  9  1  0  0  0  0
  2  3  1  0  0  0  0
  2  1  1  0  0  0  0
  3 11  1  0  0  0  0
  4 13  1  0  0  0  0
  4  3  1  0  0  0  0
  4  5  1  0  0  0  0
  5  6  2  0  0  0  0
  5 14  1  0  0  0  0
  6 31  1  0  0  0  0
  8  2  1  0  0  0  0
 10  3  1  0  0  0  0
 12  4  1  0  0  0  0
 15 21  1  0  0  0  0
 16 15  1  0  0  0  0
 16 22  1  0  0  0  0
 17 16  2  0  0  0  0
 18 19  2  0  0  0  0
 18 17  1  0  0  0  0
 19 20  1  0  0  0  0
 20 15  2  0  0  0  0
 23 17  1  0  0  0  0
 23 30  2  0  0  0  0
 24 26  2  0  0  0  0
 24 23  1  0  0  0  0
 25 24  1  0  0  0  0
 26 28  1  0  0  0  0
 27 26  1  0  0  0  0
 28 29  1  0  0  0  0
 28 30  1  0  0  0  0
 31 33  1  0  0  0  0
 32 31  1  0  0  0  0
M  END
>  <minimizedAffinity>
-5.74102449

$$$$

 OpenBabel03252505043D

 33 35  0  0  1  0  0  0  0  0999 V2000
   40.9570   32.0930   39.1860 C   0  0  2  0  0  0  0  0  0  0  0  0
   41.7290   32.7440   40.2850 C   0  0  0  0  0  0  0  0  0  0  0  0
   42.1120   34.1500   40.0600 C   0  0  0  0  0  0  0  0  0  0  0  0
   42.8810   34.1610   38.7440 C   0  0  0  0  0  0  0  0  0  0  0  0
   42.0280   33.8120   37.6110 C   0  0  0  0  0  0  0  0  0  0  0  0
   41.0250   32.7240   37.8760 C   0  0  0  0  0  0  0  0  0  0  0  0
   41.2910   31.0320   39.0940 H   0  0  0  0  0  0  0  0  0  0  0  0
   42.6810   32.1680   40.4310 H   0  0  0  0  0  0  0  0  0  0  0  0
   41.2170   32.6590   41.2710 H   0  0  0  0  0  0  0  0  0  0  0  0
   42.8780   34.4210   40.8320 H   0  0  0  0  0  0  0  0  0  0  0  0
   41.3250   34.9000   40.1170 H   0  0  0  0  0  0  0  0  0  0  0  0
   43.7470   33.5120   38.8640 H   0  0  0  0  0  0  0  0  0  0  0  0
   43.1580   35.2220   38.5930 H   0  0  0  0  0  0  0  0  0  0  0  0
   41.8910   34.1080   36.6070 H   0  0  0  0  0  0  0  0  0  0  0  0
   37.3620   32.8240   39.6990 C   0  0  0  0  0  0  0  0  0  0  0  0
   36.9650   31.7770   40.5690 C   0  0  0  0  0  0  0  0  0  0  0  0
   37.9560   30.8430   40.9600 C   0  0  0  0  0  0  0  0  0  0  0  0
   39.2180   30.9980   40.4870 N   0  0  0  0  0  0  0  0  0  0  0  0
   39.5540   32.0010   39.6660 C   0  0  0  0  0  0  0  0  0  0  0  0
   38.6310   32.9310   39.2580 N   0  0  0  0  0  0  0  0  0  0  0  0
   36.5780   33.5180   39.4230 H   0  0  0  0  0  0  0  0  0  0  0  0
   35.9490   31.6960   40.9200 H   0  0  0  0  0  0  0  0  0  0  0  0
   37.5670   29.7590   41.8550 C   0  0  0  0  0  0  0  0  0  0  0  0
   38.2140   29.3710   42.9830 C   0  0  0  0  0  0  0  0  0  0  0  0
   39.1110   29.8440   43.3420 H   0  0  0  0  0  0  0  0  0  0  0  0
   37.4590   28.3140   43.4700 C   0  0  0  0  0  0  0  0  0  0  0  0
   37.7380   27.7840   44.3890 H   0  0  0  0  0  0  0  0  0  0  0  0
   36.4060   28.1070   42.6330 N   0  0  0  0  0  0  0  0  0  0  0  0
   35.7460   27.3200   42.8930 H   0  0  0  0  0  0  0  0  0  0  0  0
   36.4980   29.0030   41.6580 N   0  0  0  0  0  0  0  0  0  0  0  0
   40.1260   32.2880   36.8570 N   0  0  0  0  0  0  0  0  0  0  0  0
   40.4850   31.3300   36.5950 H   0  0  0  0  0  0  0  0  0  0  0  0
   39.4250   33.0770   36.7320 H   0  0  0  0  0  0  0  0  0  0  0  0
  1  7  1  6  0  0  0
  1 19  1  0  0  0  0
  1  2  1  0  0  0  0
  2  8  1  0  0  0  0
  2  9  1  0  0  0  0
  3 11  1  0  0  0  0
  3  2  1  0  0  0  0
  3 10  1  0  0  0  0
  4 12  1  0  0  0  0
  4  3  1  0  0  0  0
  5  6  2  0  0  0  0
  5  4  1  0  0  0  0
  6  1  1  0  0  0  0
 13  4  1  0  0  0  0
 14  5  1  0  0  0  0
 15 16  1  0  0  0  0
 16 22  1  0  0  0  0
 16 17  2  0  0  0  0
 17 23  1  0  0  0  0
 18 17  1  0  0  0  0
 19 18  2  0  0  0  0
 20 19  1  0  0  0  0
 20 15  2  0  0  0  0
 21 15  1  0  0  0  0
 23 24  1  0  0  0  0
 24 25  1  0  0  0  0
 24 26  2  0  0  0  0
 26 27  1  0  0  0  0
 28 29  1  0  0  0  0
 28 26  1  0  0  0  0
 30 23  2  0  0  0  0
 30 28  1  0  0  0  0
 31  6  1  0  0  0  0
 32 31  1  0  0  0  0
 33 31  1  0  0  0  0
M  END
>  <minimizedAffinity>
-5.65116405

$$$$

 OpenBabel03252505043D

 33 35  0  0  1  0  0  0  0  0999 V2000
   37.2620   27.3120   42.6710 C   0  0  2  0  0  0  0  0  0  0  0  0
   38.2310   27.8400   43.6750 C   0  0  0  0  0  0  0  0  0  0  0  0
   39.6430   27.4660   43.4700 C   0  0  0  0  0  0  0  0  0  0  0  0
   39.6600   25.9430   43.4130 C   0  0  0  0  0  0  0  0  0  0  0  0
   38.9550   25.4330   42.2390 C   0  0  0  0  0  0  0  0  0  0  0  0
   37.7010   26.1760   41.8730 C   0  0  0  0  0  0  0  0  0  0  0  0
   36.3150   27.0410   43.1960 H   0  0  0  0  0  0  0  0  0  0  0  0
   37.9350   27.4490   44.6850 H   0  0  0  0  0  0  0  0  0  0  0  0
   38.1610   28.9450   43.7920 H   0  0  0  0  0  0  0  0  0  0  0  0
   40.2000   27.7150   44.4100 H   0  0  0  0  0  0  0  0  0  0  0  0
   40.1740   27.9440   42.6490 H   0  0  0  0  0  0  0  0  0  0  0  0
   39.2700   25.5740   44.3600 H   0  0  0  0  0  0  0  0  0  0  0  0
   40.7240   25.6820   43.2580 H   0  0  0  0  0  0  0  0  0  0  0  0
   39.0650   24.6610   41.5280 H   0  0  0  0  0  0  0  0  0  0  0  0
   35.4080   29.4880   40.3150 C   0  0  0  0  0  0  0  0  0  0  0  0
   36.2480   30.6290   40.2380 C   0  0  0  0  0  0  0  0  0  0  0  0
   37.4400   30.6130   41.0020 C   0  0  0  0  0  0  0  0  0  0  0  0
   37.7130   29.5210   41.7610 N   0  0  0  0  0  0  0  0  0  0  0  0
   36.8930   28.4640   41.8080 C   0  0  0  0  0  0  0  0  0  0  0  0
   35.7270   28.4290   41.0860 N   0  0  0  0  0  0  0  0  0  0  0  0
   34.5070   29.5370   39.7180 H   0  0  0  0  0  0  0  0  0  0  0  0
   35.9890   31.4730   39.6200 H   0  0  0  0  0  0  0  0  0  0  0  0
   38.3180   31.7760   40.9350 C   0  0  0  0  0  0  0  0  0  0  0  0
   38.0350   32.9700   40.3550 C   0  0  0  0  0  0  0  0  0  0  0  0
   37.0990   33.1840   39.8700 H   0  0  0  0  0  0  0  0  0  0  0  0
   39.1770   33.7320   40.5550 C   0  0  0  0  0  0  0  0  0  0  0  0
   39.2500   34.7640   40.1900 H   0  0  0  0  0  0  0  0  0  0  0  0
   40.0890   32.9840   41.2340 N   0  0  0  0  0  0  0  0  0  0  0  0
   41.0140   33.4530   41.4520 H   0  0  0  0  0  0  0  0  0  0  0  0
   39.5370   31.7960   41.4520 N   0  0  0  0  0  0  0  0  0  0  0  0
   36.9180   25.7860   40.7460 N   0  0  0  0  0  0  0  0  0  0  0  0
   36.0510   25.3590   41.1740 H   0  0  0  0  0  0  0  0  0  0  0  0
   37.4830   26.0640   39.8900 H   0  0  0  0  0  0  0  0  0  0  0  0
  1  7  1  1  0  0  0
  1  2  1  0  0  0  0
  2  9  1  0  0  0  0
  2  8  1  0  0  0  0
  3  2  1  0  0  0  0
  3 10  1  0  0  0  0
  4  3  1  0  0  0  0
  4 12  1  0  0  0  0
  5  4  1  0  0  0  0
  6  5  2  0  0  0  0
  6  1  1  0  0  0  0
 11  3  1  0  0  0  0
 13  4  1  0  0  0  0
 14  5  1  0  0  0  0
 15 20  1  0  0  0  0
 16 15  2  0  0  0  0
 16 17  1  0  0  0  0
 17 18  2  0  0  0  0
 18 19  1  0  0  0  0
 19  1  1  0  0  0  0
 20 19  2  0  0  0  0
 21 15  1  0  0  0  0
 22 16  1  0  0  0  0
 23 17  1  0  0  0  0
 23 30  2  0  0  0  0
 24 26  2  0  0  0  0
 24 23  1  0  0  0  0
 25 24  1  0  0  0  0
 26 28  1  0  0  0  0
 27 26  1  0  0  0  0
 28 29  1  0  0  0  0
 28 30  1  0  0  0  0
 31 32  1  0  0  0  0
 31  6  1  0  0  0  0
 33 31  1  0  0  0  0
M  END
>  <minimizedAffinity>
-5.57575703

$$$$

 OpenBabel03252505043D

 33 35  0  0  1  0  0  0  0  0999 V2000
   38.4480   28.4560   41.6260 C   0  0  2  0  0  0  0  0  0  0  0  0
   38.4660   27.3880   40.5840 C   0  0  0  0  0  0  0  0  0  0  0  0
   37.3250   26.4540   40.5970 C   0  0  0  0  0  0  0  0  0  0  0  0
   37.2860   25.8720   42.0050 C   0  0  0  0  0  0  0  0  0  0  0  0
   36.9620   26.8850   43.0070 C   0  0  0  0  0  0  0  0  0  0  0  0
   37.5850   28.2330   42.7770 C   0  0  0  0  0  0  0  0  0  0  0  0
   39.4920   28.6240   41.9840 H   0  0  0  0  0  0  0  0  0  0  0  0
   39.3920   26.7710   40.7330 H   0  0  0  0  0  0  0  0  0  0  0  0
   38.5880   27.8000   39.5570 H   0  0  0  0  0  0  0  0  0  0  0  0
   37.5910   25.5840   39.9430 H   0  0  0  0  0  0  0  0  0  0  0  0
   36.3640   26.8310   40.2500 H   0  0  0  0  0  0  0  0  0  0  0  0
   38.2350   25.3650   42.1770 H   0  0  0  0  0  0  0  0  0  0  0  0
   36.4250   25.1760   41.9950 H   0  0  0  0  0  0  0  0  0  0  0  0
   36.3890   26.9640   43.8890 H   0  0  0  0  0  0  0  0  0  0  0  0
   36.4990   31.3310   40.3370 C   0  0  0  0  0  0  0  0  0  0  0  0
   37.4800   32.0570   39.6140 C   0  0  0  0  0  0  0  0  0  0  0  0
   38.7940   31.5300   39.5890 C   0  0  0  0  0  0  0  0  0  0  0  0
   39.0440   30.3710   40.2500 N   0  0  0  0  0  0  0  0  0  0  0  0
   38.0890   29.7140   40.9220 C   0  0  0  0  0  0  0  0  0  0  0  0
   36.8010   30.1830   40.9770 N   0  0  0  0  0  0  0  0  0  0  0  0
   35.5070   31.7640   40.3340 H   0  0  0  0  0  0  0  0  0  0  0  0
   37.2340   32.9740   39.1040 H   0  0  0  0  0  0  0  0  0  0  0  0
   39.8170   32.2620   38.8500 C   0  0  0  0  0  0  0  0  0  0  0  0
   40.6960   33.1600   39.3610 C   0  0  0  0  0  0  0  0  0  0  0  0
   40.7260   33.4320   40.4020 H   0  0  0  0  0  0  0  0  0  0  0  0
   41.4480   33.5700   38.2700 C   0  0  0  0  0  0  0  0  0  0  0  0
   42.2530   34.3070   38.3720 H   0  0  0  0  0  0  0  0  0  0  0  0
   41.0030   32.9150   37.1620 N   0  0  0  0  0  0  0  0  0  0  0  0
   41.4980   33.1400   36.2530 H   0  0  0  0  0  0  0  0  0  0  0  0
   40.0090   32.1250   37.5470 N   0  0  0  0  0  0  0  0  0  0  0  0
   37.3470   29.3150   43.6760 N   0  0  0  0  0  0  0  0  0  0  0  0
   38.2680   29.4300   44.1830 H   0  0  0  0  0  0  0  0  0  0  0  0
   36.3410   29.6120   43.5130 H   0  0  0  0  0  0  0  0  0  0  0  0
  1  7  1  1  0  0  0
  1  6  1  0  0  0  0
  2  3  1  0  0  0  0
  2  8  1  0  0  0  0
  2  1  1  0  0  0  0
  3  4  1  0  0  0  0
  4 12  1  0  0  0  0
  4  5  1  0  0  0  0
  5 14  1  0  0  0  0
  6  5  2  0  0  0  0
  6 31  1  0  0  0  0
  9  2  1  0  0  0  0
 10  3  1  0  0  0  0
 11  3  1  0  0  0  0
 13  4  1  0  0  0  0
 15 20  1  0  0  0  0
 16 15  2  0  0  0  0
 17 16  1  0  0  0  0
 17 18  2  0  0  0  0
 18 19  1  0  0  0  0
 19 20  2  0  0  0  0
 19  1  1  0  0  0  0
 21 15  1  0  0  0  0
 22 16  1  0  0  0  0
 23 24  1  0  0  0  0
 23 17  1  0  0  0  0
 24 25  1  0  0  0  0
 26 27  1  0  0  0  0
 26 24  2  0  0  0  0
 28 30  1  0  0  0  0
 28 26  1  0  0  0  0
 29 28  1  0  0  0  0
 30 23  2  0  0  0  0
 31 32  1  0  0  0  0
 33 31  1  0  0  0  0
M  END
>  <minimizedAffinity>
-5.56443167

$$$$

 OpenBabel03252505043D

 33 35  0  0  1  0  0  0  0  0999 V2000
   37.8630   27.3640   41.8200 C   0  0  2  0  0  0  0  0  0  0  0  0
   38.4280   26.5950   40.6720 C   0  0  0  0  0  0  0  0  0  0  0  0
   37.7020   25.3660   40.2980 C   0  0  0  0  0  0  0  0  0  0  0  0
   37.6370   24.5250   41.5670 C   0  0  0  0  0  0  0  0  0  0  0  0
   36.8160   25.1550   42.5990 C   0  0  0  0  0  0  0  0  0  0  0  0
   36.9550   26.6480   42.7040 C   0  0  0  0  0  0  0  0  0  0  0  0
   38.7060   27.7750   42.4240 H   0  0  0  0  0  0  0  0  0  0  0  0
   39.4730   26.2850   40.9400 H   0  0  0  0  0  0  0  0  0  0  0  0
   38.5660   27.2260   39.7660 H   0  0  0  0  0  0  0  0  0  0  0  0
   38.3620   24.7790   39.6080 H   0  0  0  0  0  0  0  0  0  0  0  0
   36.7430   25.4840   39.7970 H   0  0  0  0  0  0  0  0  0  0  0  0
   38.6610   24.3200   41.8780 H   0  0  0  0  0  0  0  0  0  0  0  0
   37.0900   23.6110   41.2670 H   0  0  0  0  0  0  0  0  0  0  0  0
   36.1140   24.8660   43.3310 H   0  0  0  0  0  0  0  0  0  0  0  0
   35.3520   29.5660   40.2170 C   0  0  0  0  0  0  0  0  0  0  0  0
   36.0330   30.8100   40.1690 C   0  0  0  0  0  0  0  0  0  0  0  0
   37.3490   30.8540   40.6910 C   0  0  0  0  0  0  0  0  0  0  0  0
   37.8840   29.7160   41.2050 N   0  0  0  0  0  0  0  0  0  0  0  0
   37.2080   28.5610   41.2320 C   0  0  0  0  0  0  0  0  0  0  0  0
   35.9310   28.4660   40.7390 N   0  0  0  0  0  0  0  0  0  0  0  0
   34.3500   29.5720   39.8090 H   0  0  0  0  0  0  0  0  0  0  0  0
   35.5670   31.6870   39.7500 H   0  0  0  0  0  0  0  0  0  0  0  0
   38.0660   32.1230   40.6500 C   0  0  0  0  0  0  0  0  0  0  0  0
   37.7020   33.2350   39.9620 C   0  0  0  0  0  0  0  0  0  0  0  0
   36.8150   33.2910   39.3550 H   0  0  0  0  0  0  0  0  0  0  0  0
   38.6980   34.1590   40.2430 C   0  0  0  0  0  0  0  0  0  0  0  0
   38.6780   35.1710   39.8210 H   0  0  0  0  0  0  0  0  0  0  0  0
   39.6080   33.5810   41.0750 N   0  0  0  0  0  0  0  0  0  0  0  0
   40.4270   34.1860   41.3690 H   0  0  0  0  0  0  0  0  0  0  0  0
   39.1960   32.3400   41.3050 N   0  0  0  0  0  0  0  0  0  0  0  0
   36.2060   27.3900   43.6660 N   0  0  0  0  0  0  0  0  0  0  0  0
   36.9300   27.6830   44.3780 H   0  0  0  0  0  0  0  0  0  0  0  0
   35.2010   27.3800   43.3210 H   0  0  0  0  0  0  0  0  0  0  0  0
  1  7  1  1  0  0  0
  1  6  1  0  0  0  0
  2  8  1  0  0  0  0
  2  1  1  0  0  0  0
  3  2  1  0  0  0  0
  3  4  1  0  0  0  0
  4 12  1  0  0  0  0
  4  5  1  0  0  0  0
  5  6  2  0  0  0  0
  5 14  1  0  0  0  0
  6 31  1  0  0  0  0
  9  2  1  0  0  0  0
 10  3  1  0  0  0  0
 11  3  1  0  0  0  0
 13  4  1  0  0  0  0
 15 20  1  0  0  0  0
 16 15  2  0  0  0  0
 16 17  1  0  0  0  0
 17 18  2  0  0  0  0
 18 19  1  0  0  0  0
 19  1  1  0  0  0  0
 20 19  2  0  0  0  0
 21 15  1  0  0  0  0
 22 16  1  0  0  0  0
 23 17  1  0  0  0  0
 23 30  2  0  0  0  0
 24 26  2  0  0  0  0
 24 23  1  0  0  0  0
 25 24  1  0  0  0  0
 26 28  1  0  0  0  0
 27 26  1  0  0  0  0
 28 30  1  0  0  0  0
 28 29  1  0  0  0  0
 31 32  1  0  0  0  0
 33 31  1  0  0  0  0
M  END
>  <minimizedAffinity>
-5.41849089

$$$$

 OpenBabel03252505043D

 33 35  0  0  1  0  0  0  0  0999 V2000
   36.1490   29.8190   40.1370 C   0  0  2  0  0  0  0  0  0  0  0  0
   34.8280   29.1960   39.8320 C   0  0  0  0  0  0  0  0  0  0  0  0
   34.7450   28.4410   38.5670 C   0  0  0  0  0  0  0  0  0  0  0  0
   35.1770   29.4170   37.4790 C   0  0  0  0  0  0  0  0  0  0  0  0
   36.5830   29.7940   37.6080 C   0  0  0  0  0  0  0  0  0  0  0  0
   37.0640   29.9940   39.0180 C   0  0  0  0  0  0  0  0  0  0  0  0
   35.9750   30.8100   40.6190 H   0  0  0  0  0  0  0  0  0  0  0  0
   34.0620   30.0140   39.7720 H   0  0  0  0  0  0  0  0  0  0  0  0
   34.4600   28.5530   40.6640 H   0  0  0  0  0  0  0  0  0  0  0  0
   33.6620   28.2500   38.3560 H   0  0  0  0  0  0  0  0  0  0  0  0
   35.2530   27.4790   38.5230 H   0  0  0  0  0  0  0  0  0  0  0  0
   34.4880   30.2600   37.5010 H   0  0  0  0  0  0  0  0  0  0  0  0
   35.1100   28.8340   36.5400 H   0  0  0  0  0  0  0  0  0  0  0  0
   37.4100   29.9750   36.9790 H   0  0  0  0  0  0  0  0  0  0  0  0
   37.6910   28.7940   43.3460 C   0  0  0  0  0  0  0  0  0  0  0  0
   37.8740   27.4000   43.1570 C   0  0  0  0  0  0  0  0  0  0  0  0
   37.4620   26.8500   41.9190 C   0  0  0  0  0  0  0  0  0  0  0  0
   36.9180   27.6750   40.9890 N   0  0  0  0  0  0  0  0  0  0  0  0
   36.7610   28.9870   41.2050 C   0  0  0  0  0  0  0  0  0  0  0  0
   37.1450   29.5690   42.3870 N   0  0  0  0  0  0  0  0  0  0  0  0
   38.0180   29.1780   44.3040 H   0  0  0  0  0  0  0  0  0  0  0  0
   38.3120   26.7850   43.9270 H   0  0  0  0  0  0  0  0  0  0  0  0
   37.6430   25.4180   41.7060 C   0  0  0  0  0  0  0  0  0  0  0  0
   36.9360   24.6320   40.8560 C   0  0  0  0  0  0  0  0  0  0  0  0
   36.1430   25.0010   40.2310 H   0  0  0  0  0  0  0  0  0  0  0  0
   37.4820   23.3660   41.0180 C   0  0  0  0  0  0  0  0  0  0  0  0
   37.1100   22.5040   40.4530 H   0  0  0  0  0  0  0  0  0  0  0  0
   38.4780   23.4360   41.9440 N   0  0  0  0  0  0  0  0  0  0  0  0
   38.9810   22.5290   42.1620 H   0  0  0  0  0  0  0  0  0  0  0  0
   38.5530   24.6990   42.3450 N   0  0  0  0  0  0  0  0  0  0  0  0
   38.4170   30.3580   39.2880 N   0  0  0  0  0  0  0  0  0  0  0  0
   38.3500   31.3650   39.6020 H   0  0  0  0  0  0  0  0  0  0  0  0
   38.9980   29.4940   39.0780 H   0  0  0  0  0  0  0  0  0  0  0  0
  1  7  1  1  0  0  0
  1 19  1  0  0  0  0
  2  1  1  0  0  0  0
  2  9  1  0  0  0  0
  3  2  1  0  0  0  0
  4 12  1  0  0  0  0
  4  5  1  0  0  0  0
  4  3  1  0  0  0  0
  5  6  2  0  0  0  0
  6 31  1  0  0  0  0
  6  1  1  0  0  0  0
  8  2  1  0  0  0  0
 10  3  1  0  0  0  0
 11  3  1  0  0  0  0
 13  4  1  0  0  0  0
 14  5  1  0  0  0  0
 15 21  1  0  0  0  0
 16 15  1  0  0  0  0
 16 22  1  0  0  0  0
 17 16  2  0  0  0  0
 18 19  2  0  0  0  0
 18 17  1  0  0  0  0
 19 20  1  0  0  0  0
 20 15  2  0  0  0  0
 23 17  1  0  0  0  0
 23 30  2  0  0  0  0
 24 26  2  0  0  0  0
 24 23  1  0  0  0  0
 25 24  1  0  0  0  0
 26 28  1  0  0  0  0
 27 26  1  0  0  0  0
 28 29  1  0  0  0  0
 28 30  1  0  0  0  0
 31 32  1  0  0  0  0
 33 31  1  0  0  0  0
M  END
>  <minimizedAffinity>
-5.2991333

$$$$

 OpenBabel03252505043D

 33 35  0  0  1  0  0  0  0  0999 V2000
   37.4630   28.3050   42.3830 C   0  0  2  0  0  0  0  0  0  0  0  0
   38.4860   29.2380   42.9400 C   0  0  0  0  0  0  0  0  0  0  0  0
   39.8900   28.8020   42.8240 C   0  0  0  0  0  0  0  0  0  0  0  0
   39.9500   27.4320   43.4890 C   0  0  0  0  0  0  0  0  0  0  0  0
   39.1780   26.4330   42.7550 C   0  0  0  0  0  0  0  0  0  0  0  0
   37.8770   26.9240   42.1830 C   0  0  0  0  0  0  0  0  0  0  0  0
   36.5660   28.3200   43.0470 H   0  0  0  0  0  0  0  0  0  0  0  0
   38.2770   29.3720   44.0350 H   0  0  0  0  0  0  0  0  0  0  0  0
   38.3890   30.2680   42.5270 H   0  0  0  0  0  0  0  0  0  0  0  0
   40.5060   29.4610   43.4870 H   0  0  0  0  0  0  0  0  0  0  0  0
   40.3440   28.8320   41.8350 H   0  0  0  0  0  0  0  0  0  0  0  0
   39.6420   27.5570   44.5260 H   0  0  0  0  0  0  0  0  0  0  0  0
   41.0080   27.1220   43.3920 H   0  0  0  0  0  0  0  0  0  0  0  0
   39.2600   25.4160   42.4850 H   0  0  0  0  0  0  0  0  0  0  0  0
   35.2870   29.3250   39.5640 C   0  0  0  0  0  0  0  0  0  0  0  0
   36.1780   30.0790   38.7570 C   0  0  0  0  0  0  0  0  0  0  0  0
   37.5130   30.2120   39.2090 C   0  0  0  0  0  0  0  0  0  0  0  0
   37.8670   29.6190   40.3780 N   0  0  0  0  0  0  0  0  0  0  0  0
   36.9960   28.9150   41.1110 C   0  0  0  0  0  0  0  0  0  0  0  0
   35.6920   28.7560   40.7170 N   0  0  0  0  0  0  0  0  0  0  0  0
   34.2760   29.2450   39.1860 H   0  0  0  0  0  0  0  0  0  0  0  0
   35.8500   30.5320   37.8350 H   0  0  0  0  0  0  0  0  0  0  0  0
   38.4440   30.9830   38.3920 C   0  0  0  0  0  0  0  0  0  0  0  0
   39.7620   31.1860   38.6430 C   0  0  0  0  0  0  0  0  0  0  0  0
   40.2690   30.7820   39.5020 H   0  0  0  0  0  0  0  0  0  0  0  0
   40.1990   31.9730   37.5870 C   0  0  0  0  0  0  0  0  0  0  0  0
   41.2410   32.3060   37.5120 H   0  0  0  0  0  0  0  0  0  0  0  0
   39.1480   32.2110   36.7560 N   0  0  0  0  0  0  0  0  0  0  0  0
   39.3490   32.8060   35.9020 H   0  0  0  0  0  0  0  0  0  0  0  0
   38.0920   31.5950   37.2720 N   0  0  0  0  0  0  0  0  0  0  0  0
   37.0270   26.0530   41.4380 N   0  0  0  0  0  0  0  0  0  0  0  0
   36.2080   25.8850   42.0850 H   0  0  0  0  0  0  0  0  0  0  0  0
   37.5190   25.8900   40.5110 H   0  0  0  0  0  0  0  0  0  0  0  0
  1  2  1  0  0  0  0
  1  7  1  1  0  0  0
  2  8  1  0  0  0  0
  3  2  1  0  0  0  0
  3 10  1  0  0  0  0
  3  4  1  0  0  0  0
  4 12  1  0  0  0  0
  5  4  1  0  0  0  0
  6  1  1  0  0  0  0
  6  5  2  0  0  0  0
  9  2  1  0  0  0  0
 11  3  1  0  0  0  0
 13  4  1  0  0  0  0
 14  5  1  0  0  0  0
 15 20  1  0  0  0  0
 16 17  1  0  0  0  0
 16 15  2  0  0  0  0
 17 18  2  0  0  0  0
 18 19  1  0  0  0  0
 19  1  1  0  0  0  0
 20 19  2  0  0  0  0
 21 15  1  0  0  0  0
 22 16  1  0  0  0  0
 23 24  1  0  0  0  0
 23 17  1  0  0  0  0
 24 25  1  0  0  0  0
 26 24  2  0  0  0  0
 27 26  1  0  0  0  0
 28 30  1  0  0  0  0
 28 26  1  0  0  0  0
 29 28  1  0  0  0  0
 30 23  2  0  0  0  0
 31 32  1  0  0  0  0
 31  6  1  0  0  0  0
 33 31  1  0  0  0  0
M  END
>  <minimizedAffinity>
-5.27265882

$$$$

 OpenBabel03252505043D

 33 35  0  0  1  0  0  0  0  0999 V2000
   38.2030   25.8760   40.5290 C   0  0  2  0  0  0  0  0  0  0  0  0
   36.8180   25.3940   40.2480 C   0  0  0  0  0  0  0  0  0  0  0  0
   36.4240   24.1380   40.9120 C   0  0  0  0  0  0  0  0  0  0  0  0
   37.4740   23.1120   40.5060 C   0  0  0  0  0  0  0  0  0  0  0  0
   38.7920   23.4340   41.0500 C   0  0  0  0  0  0  0  0  0  0  0  0
   39.1430   24.8950   41.0500 C   0  0  0  0  0  0  0  0  0  0  0  0
   38.6230   26.3200   39.5950 H   0  0  0  0  0  0  0  0  0  0  0  0
   36.7280   25.2190   39.1430 H   0  0  0  0  0  0  0  0  0  0  0  0
   36.0490   26.1720   40.4540 H   0  0  0  0  0  0  0  0  0  0  0  0
   35.4810   23.7780   40.4260 H   0  0  0  0  0  0  0  0  0  0  0  0
   36.2350   24.1750   41.9830 H   0  0  0  0  0  0  0  0  0  0  0  0
   37.4500   23.0290   39.4210 H   0  0  0  0  0  0  0  0  0  0  0  0
   37.1630   22.1790   41.0140 H   0  0  0  0  0  0  0  0  0  0  0  0
   39.6170   22.9260   41.4680 H   0  0  0  0  0  0  0  0  0  0  0  0
   37.9270   27.8770   43.6350 C   0  0  0  0  0  0  0  0  0  0  0  0
   37.8050   29.1970   43.1300 C   0  0  0  0  0  0  0  0  0  0  0  0
   37.8180   29.3610   41.7230 C   0  0  0  0  0  0  0  0  0  0  0  0
   37.9460   28.2590   40.9400 N   0  0  0  0  0  0  0  0  0  0  0  0
   38.0580   27.0280   41.4560 C   0  0  0  0  0  0  0  0  0  0  0  0
   38.0510   26.8160   42.8110 N   0  0  0  0  0  0  0  0  0  0  0  0
   37.9130   27.7910   44.7140 H   0  0  0  0  0  0  0  0  0  0  0  0
   37.7060   30.0420   43.7920 H   0  0  0  0  0  0  0  0  0  0  0  0
   37.6930   30.7110   41.1850 C   0  0  0  0  0  0  0  0  0  0  0  0
   38.7100   31.5580   40.8830 C   0  0  0  0  0  0  0  0  0  0  0  0
   39.7470   31.3070   41.0170 H   0  0  0  0  0  0  0  0  0  0  0  0
   38.0810   32.7010   40.4100 C   0  0  0  0  0  0  0  0  0  0  0  0
   38.6520   33.5770   40.0830 H   0  0  0  0  0  0  0  0  0  0  0  0
   36.7340   32.5030   40.4440 N   0  0  0  0  0  0  0  0  0  0  0  0
   36.1320   33.3080   40.1060 H   0  0  0  0  0  0  0  0  0  0  0  0
   36.5280   31.2820   40.9200 N   0  0  0  0  0  0  0  0  0  0  0  0
   40.3970   25.3500   41.5580 N   0  0  0  0  0  0  0  0  0  0  0  0
   40.9300   25.6420   40.6930 H   0  0  0  0  0  0  0  0  0  0  0  0
   40.3430   25.2320   42.6130 H   0  0  0  0  0  0  0  0  0  0  0  0
  1  7  1  6  0  0  0
  1  6  1  0  0  0  0
  1 19  1  0  0  0  0
  2  9  1  0  0  0  0
  2  1  1  0  0  0  0
  2  3  1  0  0  0  0
  3 11  1  0  0  0  0
  4  3  1  0  0  0  0
  4 13  1  0  0  0  0
  4  5  1  0  0  0  0
  5 14  1  0  0  0  0
  6  5  2  0  0  0  0
  6 31  1  0  0  0  0
  8  2  1  0  0  0  0
 10  3  1  0  0  0  0
 12  4  1  0  0  0  0
 15 21  1  0  0  0  0
 16 15  1  0  0  0  0
 16 22  1  0  0  0  0
 17 16  2  0  0  0  0
 18 19  2  0  0  0  0
 18 17  1  0  0  0  0
 19 20  1  0  0  0  0
 20 15  2  0  0  0  0
 23 17  1  0  0  0  0
 24 25  1  0  0  0  0
 24 23  1  0  0  0  0
 26 28  1  0  0  0  0
 26 24  2  0  0  0  0
 27 26  1  0  0  0  0
 28 30  1  0  0  0  0
 29 28  1  0  0  0  0
 30 23  2  0  0  0  0
 31 33  1  0  0  0  0
 32 31  1  0  0  0  0
M  END
>  <minimizedAffinity>
-5.2672925

$$$$

 OpenBabel03252505043D

 33 35  0  0  1  0  0  0  0  0999 V2000
   36.7790   28.7200   40.9290 C   0  0  2  0  0  0  0  0  0  0  0  0
   36.9840   27.5700   40.0010 C   0  0  0  0  0  0  0  0  0  0  0  0
   36.4210   27.7240   38.6460 C   0  0  0  0  0  0  0  0  0  0  0  0
   34.9430   28.0320   38.8490 C   0  0  0  0  0  0  0  0  0  0  0  0
   34.7380   29.3250   39.4980 C   0  0  0  0  0  0  0  0  0  0  0  0
   35.7210   29.6580   40.5840 C   0  0  0  0  0  0  0  0  0  0  0  0
   36.5900   28.3220   41.9550 H   0  0  0  0  0  0  0  0  0  0  0  0
   36.4980   26.6650   40.4530 H   0  0  0  0  0  0  0  0  0  0  0  0
   38.0560   27.2770   39.9180 H   0  0  0  0  0  0  0  0  0  0  0  0
   36.4310   26.7160   38.1570 H   0  0  0  0  0  0  0  0  0  0  0  0
   36.9260   28.4110   37.9690 H   0  0  0  0  0  0  0  0  0  0  0  0
   34.5030   27.1920   39.3850 H   0  0  0  0  0  0  0  0  0  0  0  0
   34.5390   28.1450   37.8250 H   0  0  0  0  0  0  0  0  0  0  0  0
   34.0750   30.1440   39.4310 H   0  0  0  0  0  0  0  0  0  0  0  0
   40.0360   29.9000   42.2440 C   0  0  0  0  0  0  0  0  0  0  0  0
   40.5260   30.6830   41.1680 C   0  0  0  0  0  0  0  0  0  0  0  0
   39.7130   30.7860   40.0130 C   0  0  0  0  0  0  0  0  0  0  0  0
   38.5210   30.1370   39.9960 N   0  0  0  0  0  0  0  0  0  0  0  0
   38.0930   29.4060   41.0330 C   0  0  0  0  0  0  0  0  0  0  0  0
   38.8430   29.2750   42.1740 N   0  0  0  0  0  0  0  0  0  0  0  0
   40.6840   29.8450   43.1090 H   0  0  0  0  0  0  0  0  0  0  0  0
   41.4800   31.1810   41.2280 H   0  0  0  0  0  0  0  0  0  0  0  0
   40.2000   31.5880   38.8960 C   0  0  0  0  0  0  0  0  0  0  0  0
   41.3100   32.3680   38.8840 C   0  0  0  0  0  0  0  0  0  0  0  0
   41.9660   32.4750   39.7300 H   0  0  0  0  0  0  0  0  0  0  0  0
   41.3380   32.9140   37.6090 C   0  0  0  0  0  0  0  0  0  0  0  0
   42.1330   33.6000   37.2950 H   0  0  0  0  0  0  0  0  0  0  0  0
   40.2620   32.4530   36.9130 N   0  0  0  0  0  0  0  0  0  0  0  0
   40.1640   32.7980   35.9160 H   0  0  0  0  0  0  0  0  0  0  0  0
   39.5870   31.6470   37.7230 N   0  0  0  0  0  0  0  0  0  0  0  0
   35.6400   30.8930   41.2960 N   0  0  0  0  0  0  0  0  0  0  0  0
   35.2990   30.6090   42.2560 H   0  0  0  0  0  0  0  0  0  0  0  0
   35.9490   31.6440   40.6120 H   0  0  0  0  0  0  0  0  0  0  0  0
  1 19  1  0  0  0  0
  1  7  1  1  0  0  0
  2  8  1  0  0  0  0
  2  1  1  0  0  0  0
  3  4  1  0  0  0  0
  3  2  1  0  0  0  0
  4 12  1  0  0  0  0
  4  5  1  0  0  0  0
  5  6  2  0  0  0  0
  6  1  1  0  0  0  0
  6 31  1  0  0  0  0
  9  2  1  0  0  0  0
 10  3  1  0  0  0  0
 11  3  1  0  0  0  0
 13  4  1  0  0  0  0
 14  5  1  0  0  0  0
 15 21  1  0  0  0  0
 16 22  1  0  0  0  0
 16 15  2  0  0  0  0
 17 16  1  0  0  0  0
 18 17  2  0  0  0  0
 18 19  1  0  0  0  0
 19 20  2  0  0  0  0
 20 15  1  0  0  0  0
 23 17  1  0  0  0  0
 24 23  1  0  0  0  0
 24 25  1  0  0  0  0
 26 24  2  0  0  0  0
 27 26  1  0  0  0  0
 28 26  1  0  0  0  0
 28 30  1  0  0  0  0
 29 28  1  0  0  0  0
 30 23  2  0  0  0  0
 31 32  1  0  0  0  0
 33 31  1  0  0  0  0
M  END
>  <minimizedAffinity>
-5.20793724

$$$$
