
 OpenBabel03242518563D

 41 43  0  0  1  0  0  0  0  0999 V2000
   37.8380   31.4140   39.4690 C   0  0  2  0  0  0  0  0  0  0  0  0
   37.2360   32.7440   39.1510 C   0  0  0  0  0  0  0  0  0  0  0  0
   37.9990   33.7630   39.9260 C   0  0  0  0  0  0  0  0  0  0  0  0
   39.0490   33.2330   40.8350 C   0  0  0  0  0  0  0  0  0  0  0  0
   40.0120   32.3630   40.0610 C   0  0  0  0  0  0  0  0  0  0  0  0
   39.3210   31.4580   39.1540 C   0  0  2  0  0  0  0  0  0  0  0  0
   37.8020   31.2540   40.5690 H   0  0  0  0  0  0  0  0  0  0  0  0
   36.1350   32.7450   39.4170 H   0  0  0  0  0  0  0  0  0  0  0  0
   37.2330   32.9460   38.0560 H   0  0  0  0  0  0  0  0  0  0  0  0
   37.2550   34.2920   40.5960 H   0  0  0  0  0  0  0  0  0  0  0  0
   38.4110   34.6050   39.3180 H   0  0  0  0  0  0  0  0  0  0  0  0
   39.5860   34.1030   41.2530 H   0  0  0  0  0  0  0  0  0  0  0  0
   38.6270   32.7130   41.7330 H   0  0  0  0  0  0  0  0  0  0  0  0
   40.7410   33.0860   39.6060 H   0  0  0  0  0  0  0  0  0  0  0  0
   40.6080   31.7850   40.8150 H   0  0  0  0  0  0  0  0  0  0  0  0
   39.6690   30.4050   39.1450 H   0  0  0  0  0  0  0  0  0  0  0  0
   39.5500   32.0220   37.7970 C   0  0  0  0  0  0  0  0  0  0  0  0
   39.3350   33.1030   37.7100 H   0  0  0  0  0  0  0  0  0  0  0  0
   38.8920   31.5240   37.0520 H   0  0  0  0  0  0  0  0  0  0  0  0
   40.9800   31.8700   37.4290 C   0  0  0  0  0  0  0  0  0  0  0  0
   41.9030   30.8670   37.2160 C   0  0  0  0  0  0  0  0  0  0  0  0
   41.5730   29.8540   37.3320 H   0  0  0  0  0  0  0  0  0  0  0  0
   43.1210   31.4150   36.8750 C   0  0  0  0  0  0  0  0  0  0  0  0
   43.9700   30.7770   36.6700 H   0  0  0  0  0  0  0  0  0  0  0  0
   42.9340   32.7470   36.8820 N   0  0  0  0  0  0  0  0  0  0  0  0
   43.7140   33.4030   36.6540 H   0  0  0  0  0  0  0  0  0  0  0  0
   41.6840   33.0180   37.2060 N   0  0  0  0  0  0  0  0  0  0  0  0
   37.1560   30.2650   38.8220 C   0  0  0  0  0  0  0  0  0  0  0  0
   36.6490   30.3220   37.6800 O   0  0  0  0  0  0  0  0  0  0  0  0
   36.7830   26.7310   39.6800 C   0  0  0  0  0  0  0  0  0  0  0  0
   36.9410   26.6890   41.0890 C   0  0  0  0  0  0  0  0  0  0  0  0
   37.1830   27.9070   41.7140 C   0  0  0  0  0  0  0  0  0  0  0  0
   37.2380   28.9690   40.9070 N   0  0  0  0  0  0  0  0  0  0  0  0
   37.0900   29.0130   39.5990 C   0  0  0  0  0  0  0  0  0  0  0  0
   36.8550   27.8480   38.9690 N   0  0  0  0  0  0  0  0  0  0  0  0
   36.5930   25.7530   39.2090 H   0  0  0  0  0  0  0  0  0  0  0  0
   36.8730   25.7530   41.6240 H   0  0  0  0  0  0  0  0  0  0  0  0
   37.3420   27.8790   43.1590 C   0  0  0  0  0  0  0  0  0  0  0  0
   38.3780   27.0210   43.4970 F   0  0  0  0  0  0  0  0  0  0  0  0
   36.1810   27.3970   43.6730 F   0  0  0  0  0  0  0  0  0  0  0  0
   37.6950   29.1200   43.6740 F   0  0  0  0  0  0  0  0  0  0  0  0
  1  7  1  1  0  0  0
  2  8  1  0  0  0  0
  2  1  1  0  0  0  0
  2  3  1  0  0  0  0
  3 10  1  0  0  0  0
  3  4  1  0  0  0  0
  4 12  1  0  0  0  0
  4 13  1  0  0  0  0
  5 15  1  0  0  0  0
  5  4  1  0  0  0  0
  6 16  1  1  0  0  0
  6  1  1  0  0  0  0
  6  5  1  0  0  0  0
  9  2  1  0  0  0  0
 11  3  1  0  0  0  0
 14  5  1  0  0  0  0
 17  6  1  0  0  0  0
 18 17  1  0  0  0  0
 19 17  1  0  0  0  0
 20 17  1  0  0  0  0
 21 22  1  0  0  0  0
 21 20  1  0  0  0  0
 23 25  1  0  0  0  0
 23 21  2  0  0  0  0
 24 23  1  0  0  0  0
 25 27  1  0  0  0  0
 26 25  1  0  0  0  0
 27 20  2  0  0  0  0
 28  1  1  0  0  0  0
 28 34  1  0  0  0  0
 29 28  2  0  0  0  0
 30 31  1  0  0  0  0
 31 37  1  0  0  0  0
 31 32  2  0  0  0  0
 32 38  1  0  0  0  0
 33 32  1  0  0  0  0
 34 33  2  0  0  0  0
 35 34  1  0  0  0  0
 35 30  2  0  0  0  0
 36 30  1  0  0  0  0
 38 39  1  0  0  0  0
 38 40  1  0  0  0  0
 38 41  1  0  0  0  0
M  END
>  <minimizedAffinity>
-5.89759111

$$$$

 OpenBabel03242518563D

 41 43  0  0  1  0  0  0  0  0999 V2000
   38.8800   31.1850   40.5810 C   0  0  2  0  0  0  0  0  0  0  0  0
   37.8920   30.9420   39.4870 C   0  0  0  0  0  0  0  0  0  0  0  0
   37.3110   32.2650   39.1240 C   0  0  0  0  0  0  0  0  0  0  0  0
   37.7630   33.4190   39.9460 C   0  0  0  0  0  0  0  0  0  0  0  0
   39.2710   33.5080   39.9270 C   0  0  0  0  0  0  0  0  0  0  0  0
   39.8960   32.2060   40.1080 C   0  0  2  0  0  0  0  0  0  0  0  0
   38.3660   31.6910   41.4270 H   0  0  0  0  0  0  0  0  0  0  0  0
   37.0990   30.2110   39.8350 H   0  0  0  0  0  0  0  0  0  0  0  0
   38.3550   30.4210   38.6190 H   0  0  0  0  0  0  0  0  0  0  0  0
   36.1940   32.1920   39.2920 H   0  0  0  0  0  0  0  0  0  0  0  0
   37.3710   32.5250   38.0390 H   0  0  0  0  0  0  0  0  0  0  0  0
   37.3300   34.3300   39.4940 H   0  0  0  0  0  0  0  0  0  0  0  0
   37.3470   33.4030   40.9860 H   0  0  0  0  0  0  0  0  0  0  0  0
   39.5080   34.0630   38.9800 H   0  0  0  0  0  0  0  0  0  0  0  0
   39.5670   34.2050   40.7550 H   0  0  0  0  0  0  0  0  0  0  0  0
   40.7430   32.1580   40.8230 H   0  0  0  0  0  0  0  0  0  0  0  0
   40.4180   31.8390   38.7640 C   0  0  0  0  0  0  0  0  0  0  0  0
   39.6730   31.9050   37.9510 H   0  0  0  0  0  0  0  0  0  0  0  0
   40.7750   30.7860   38.7600 H   0  0  0  0  0  0  0  0  0  0  0  0
   41.5080   32.7710   38.3810 C   0  0  0  0  0  0  0  0  0  0  0  0
   42.6300   33.3510   38.9360 C   0  0  0  0  0  0  0  0  0  0  0  0
   42.8610   33.1130   39.9550 H   0  0  0  0  0  0  0  0  0  0  0  0
   43.2520   34.1560   38.0050 C   0  0  0  0  0  0  0  0  0  0  0  0
   44.1530   34.6950   38.2630 H   0  0  0  0  0  0  0  0  0  0  0  0
   42.5060   34.0620   36.8890 N   0  0  0  0  0  0  0  0  0  0  0  0
   42.7640   34.5840   36.0230 H   0  0  0  0  0  0  0  0  0  0  0  0
   41.4860   33.2540   37.1040 N   0  0  0  0  0  0  0  0  0  0  0  0
   39.5180   29.9540   41.1100 C   0  0  0  0  0  0  0  0  0  0  0  0
   40.7330   29.6940   40.9680 O   0  0  0  0  0  0  0  0  0  0  0  0
   37.3290   28.5110   43.6590 C   0  0  0  0  0  0  0  0  0  0  0  0
   37.0280   27.2120   43.1740 C   0  0  0  0  0  0  0  0  0  0  0  0
   37.5960   26.8680   41.9530 C   0  0  0  0  0  0  0  0  0  0  0  0
   38.3570   27.8060   41.3850 N   0  0  0  0  0  0  0  0  0  0  0  0
   38.6410   29.0120   41.8330 C   0  0  0  0  0  0  0  0  0  0  0  0
   38.1040   29.3710   43.0120 N   0  0  0  0  0  0  0  0  0  0  0  0
   36.8670   28.7590   44.6280 H   0  0  0  0  0  0  0  0  0  0  0  0
   36.3910   26.5470   43.7390 H   0  0  0  0  0  0  0  0  0  0  0  0
   37.3000   25.5370   41.4480 C   0  0  0  0  0  0  0  0  0  0  0  0
   36.4100   25.6290   40.3880 F   0  0  0  0  0  0  0  0  0  0  0  0
   36.7120   24.8520   42.4630 F   0  0  0  0  0  0  0  0  0  0  0  0
   38.4280   24.9030   40.9410 F   0  0  0  0  0  0  0  0  0  0  0  0
  1 28  1  0  0  0  0
  1  7  1  1  0  0  0
  2  8  1  0  0  0  0
  2  1  1  0  0  0  0
  3 10  1  0  0  0  0
  3  2  1  0  0  0  0
  3  4  1  0  0  0  0
  4 13  1  0  0  0  0
  5  4  1  0  0  0  0
  5  6  1  0  0  0  0
  5 15  1  0  0  0  0
  6  1  1  0  0  0  0
  6 16  1  1  0  0  0
  9  2  1  0  0  0  0
 11  3  1  0  0  0  0
 12  4  1  0  0  0  0
 14  5  1  0  0  0  0
 17  6  1  0  0  0  0
 18 17  1  0  0  0  0
 19 17  1  0  0  0  0
 20 17  1  0  0  0  0
 20 21  1  0  0  0  0
 21 22  1  0  0  0  0
 23 24  1  0  0  0  0
 23 21  2  0  0  0  0
 25 27  1  0  0  0  0
 25 23  1  0  0  0  0
 26 25  1  0  0  0  0
 27 20  2  0  0  0  0
 28 34  1  0  0  0  0
 29 28  2  0  0  0  0
 30 36  1  0  0  0  0
 31 30  1  0  0  0  0
 31 37  1  0  0  0  0
 32 31  2  0  0  0  0
 33 34  2  0  0  0  0
 33 32  1  0  0  0  0
 34 35  1  0  0  0  0
 35 30  2  0  0  0  0
 38 32  1  0  0  0  0
 38 40  1  0  0  0  0
 39 38  1  0  0  0  0
 41 38  1  0  0  0  0
M  END
>  <minimizedAffinity>
-5.87988806

$$$$

 OpenBabel03242518563D

 41 43  0  0  1  0  0  0  0  0999 V2000
   38.8370   28.4880   42.1840 C   0  0  2  0  0  0  0  0  0  0  0  0
   37.9550   28.7710   43.3550 C   0  0  0  0  0  0  0  0  0  0  0  0
   36.9210   27.6980   43.3910 C   0  0  0  0  0  0  0  0  0  0  0  0
   36.9650   26.7200   42.2720 C   0  0  0  0  0  0  0  0  0  0  0  0
   38.3370   26.0950   42.1850 C   0  0  0  0  0  0  0  0  0  0  0  0
   39.3970   27.0850   42.3170 C   0  0  2  0  0  0  0  0  0  0  0  0
   38.2140   28.4420   41.2640 H   0  0  0  0  0  0  0  0  0  0  0  0
   37.4930   29.8010   43.2550 H   0  0  0  0  0  0  0  0  0  0  0  0
   38.5350   28.8440   44.3020 H   0  0  0  0  0  0  0  0  0  0  0  0
   35.9140   28.2080   43.3090 H   0  0  0  0  0  0  0  0  0  0  0  0
   36.8350   27.1580   44.3650 H   0  0  0  0  0  0  0  0  0  0  0  0
   36.2140   25.9400   42.4930 H   0  0  0  0  0  0  0  0  0  0  0  0
   36.6290   27.1560   41.2970 H   0  0  0  0  0  0  0  0  0  0  0  0
   38.3170   25.2630   42.9400 H   0  0  0  0  0  0  0  0  0  0  0  0
   38.4010   25.5820   41.1890 H   0  0  0  0  0  0  0  0  0  0  0  0
   40.2350   27.0130   41.5950 H   0  0  0  0  0  0  0  0  0  0  0  0
   39.9550   26.8730   43.6800 C   0  0  0  0  0  0  0  0  0  0  0  0
   39.4320   26.1010   44.2720 H   0  0  0  0  0  0  0  0  0  0  0  0
   39.8860   27.8080   44.2770 H   0  0  0  0  0  0  0  0  0  0  0  0
   41.3620   26.4100   43.5750 C   0  0  0  0  0  0  0  0  0  0  0  0
   42.6390   26.9200   43.6780 C   0  0  0  0  0  0  0  0  0  0  0  0
   42.7430   27.9640   43.8950 H   0  0  0  0  0  0  0  0  0  0  0  0
   43.5630   25.9170   43.4700 C   0  0  0  0  0  0  0  0  0  0  0  0
   44.6220   26.1320   43.5130 H   0  0  0  0  0  0  0  0  0  0  0  0
   42.8430   24.8040   43.2440 N   0  0  0  0  0  0  0  0  0  0  0  0
   43.3100   23.8890   43.0550 H   0  0  0  0  0  0  0  0  0  0  0  0
   41.5560   25.0870   43.3040 N   0  0  0  0  0  0  0  0  0  0  0  0
   39.8980   29.5020   41.9610 C   0  0  0  0  0  0  0  0  0  0  0  0
   40.7860   29.7630   42.8010 O   0  0  0  0  0  0  0  0  0  0  0  0
   40.9790   31.1420   38.8770 C   0  0  0  0  0  0  0  0  0  0  0  0
   39.7760   31.5890   38.2720 C   0  0  0  0  0  0  0  0  0  0  0  0
   38.6020   31.2990   38.9580 C   0  0  0  0  0  0  0  0  0  0  0  0
   38.7530   30.6330   40.1040 N   0  0  0  0  0  0  0  0  0  0  0  0
   39.8680   30.2180   40.6710 C   0  0  0  0  0  0  0  0  0  0  0  0
   41.0180   30.4850   40.0280 N   0  0  0  0  0  0  0  0  0  0  0  0
   41.8940   31.3840   38.3130 H   0  0  0  0  0  0  0  0  0  0  0  0
   39.7970   32.1220   37.3320 H   0  0  0  0  0  0  0  0  0  0  0  0
   37.3620   31.7560   38.3510 C   0  0  0  0  0  0  0  0  0  0  0  0
   36.9740   32.9550   38.9310 F   0  0  0  0  0  0  0  0  0  0  0  0
   36.4240   30.8110   38.6130 F   0  0  0  0  0  0  0  0  0  0  0  0
   37.5070   32.0220   36.9940 F   0  0  0  0  0  0  0  0  0  0  0  0
  1  7  1  6  0  0  0
  1  6  1  0  0  0  0
  1  2  1  0  0  0  0
  2  3  1  0  0  0  0
  2  9  1  0  0  0  0
  3 11  1  0  0  0  0
  4 12  1  0  0  0  0
  4  3  1  0  0  0  0
  5  4  1  0  0  0  0
  5  6  1  0  0  0  0
  5 14  1  0  0  0  0
  6 16  1  6  0  0  0
  6 17  1  0  0  0  0
  8  2  1  0  0  0  0
 10  3  1  0  0  0  0
 13  4  1  0  0  0  0
 15  5  1  0  0  0  0
 17 18  1  0  0  0  0
 17 19  1  0  0  0  0
 20 21  1  0  0  0  0
 20 17  1  0  0  0  0
 21 22  1  0  0  0  0
 23 24  1  0  0  0  0
 23 21  2  0  0  0  0
 25 27  1  0  0  0  0
 25 23  1  0  0  0  0
 26 25  1  0  0  0  0
 27 20  2  0  0  0  0
 28  1  1  0  0  0  0
 28 29  2  0  0  0  0
 30 35  1  0  0  0  0
 31 30  2  0  0  0  0
 31 32  1  0  0  0  0
 32 33  2  0  0  0  0
 33 34  1  0  0  0  0
 34 28  1  0  0  0  0
 35 34  2  0  0  0  0
 36 30  1  0  0  0  0
 37 31  1  0  0  0  0
 38 40  1  0  0  0  0
 38 39  1  0  0  0  0
 38 32  1  0  0  0  0
 41 38  1  0  0  0  0
M  END
>  <minimizedAffinity>
-5.78840303

$$$$

 OpenBabel03242518563D

 41 43  0  0  1  0  0  0  0  0999 V2000
   37.3720   26.2820   41.7740 C   0  0  2  0  0  0  0  0  0  0  0  0
   36.6430   25.0390   42.1660 C   0  0  0  0  0  0  0  0  0  0  0  0
   36.9750   23.9990   41.1510 C   0  0  0  0  0  0  0  0  0  0  0  0
   37.8270   24.4490   40.0190 C   0  0  0  0  0  0  0  0  0  0  0  0
   39.1020   25.0660   40.5450 C   0  0  0  0  0  0  0  0  0  0  0  0
   38.8520   25.9680   41.6600 C   0  0  2  0  0  0  0  0  0  0  0  0
   37.0790   26.5620   40.7380 H   0  0  0  0  0  0  0  0  0  0  0  0
   35.5290   25.2420   42.2170 H   0  0  0  0  0  0  0  0  0  0  0  0
   36.8910   24.7240   43.2050 H   0  0  0  0  0  0  0  0  0  0  0  0
   35.9980   23.6710   40.6840 H   0  0  0  0  0  0  0  0  0  0  0  0
   37.3720   23.0420   41.5690 H   0  0  0  0  0  0  0  0  0  0  0  0
   38.0670   23.5540   39.4170 H   0  0  0  0  0  0  0  0  0  0  0  0
   37.2870   25.1230   39.3060 H   0  0  0  0  0  0  0  0  0  0  0  0
   39.7810   24.1920   40.7360 H   0  0  0  0  0  0  0  0  0  0  0  0
   39.5750   25.6190   39.6900 H   0  0  0  0  0  0  0  0  0  0  0  0
   39.3770   26.9440   41.6350 H   0  0  0  0  0  0  0  0  0  0  0  0
   39.3230   25.2320   42.8650 C   0  0  0  0  0  0  0  0  0  0  0  0
   39.3260   24.1330   42.7550 H   0  0  0  0  0  0  0  0  0  0  0  0
   38.6640   25.4470   43.7340 H   0  0  0  0  0  0  0  0  0  0  0  0
   40.7300   25.6060   43.1590 C   0  0  0  0  0  0  0  0  0  0  0  0
   41.4460   26.6840   43.6350 C   0  0  0  0  0  0  0  0  0  0  0  0
   40.8990   27.5690   43.8960 H   0  0  0  0  0  0  0  0  0  0  0  0
   42.7880   26.3730   43.6790 C   0  0  0  0  0  0  0  0  0  0  0  0
   43.5070   27.1010   44.0290 H   0  0  0  0  0  0  0  0  0  0  0  0
   42.8820   25.1090   43.2300 N   0  0  0  0  0  0  0  0  0  0  0  0
   43.8060   24.6270   43.1640 H   0  0  0  0  0  0  0  0  0  0  0  0
   41.6810   24.6560   42.9240 N   0  0  0  0  0  0  0  0  0  0  0  0
   37.1070   27.4490   42.6510 C   0  0  0  0  0  0  0  0  0  0  0  0
   36.3840   27.3910   43.6700 O   0  0  0  0  0  0  0  0  0  0  0  0
   39.3290   30.3520   42.6390 C   0  0  0  0  0  0  0  0  0  0  0  0
   38.8890   31.1310   41.5370 C   0  0  0  0  0  0  0  0  0  0  0  0
   37.8210   30.6170   40.8130 C   0  0  0  0  0  0  0  0  0  0  0  0
   37.3390   29.4490   41.2440 N   0  0  0  0  0  0  0  0  0  0  0  0
   37.7430   28.7230   42.2670 C   0  0  0  0  0  0  0  0  0  0  0  0
   38.7760   29.1980   42.9850 N   0  0  0  0  0  0  0  0  0  0  0  0
   40.1770   30.7810   43.1960 H   0  0  0  0  0  0  0  0  0  0  0  0
   39.3740   32.0660   41.2960 H   0  0  0  0  0  0  0  0  0  0  0  0
   37.3570   31.4080   39.6840 C   0  0  0  0  0  0  0  0  0  0  0  0
   37.0470   32.6910   40.1110 F   0  0  0  0  0  0  0  0  0  0  0  0
   36.2300   30.8100   39.2200 F   0  0  0  0  0  0  0  0  0  0  0  0
   38.3370   31.5590   38.7100 F   0  0  0  0  0  0  0  0  0  0  0  0
  1  7  1  6  0  0  0
  1  2  1  0  0  0  0
  1 28  1  0  0  0  0
  2  8  1  0  0  0  0
  2  9  1  0  0  0  0
  3 11  1  0  0  0  0
  3  2  1  0  0  0  0
  4  5  1  0  0  0  0
  4  3  1  0  0  0  0
  5 14  1  0  0  0  0
  5  6  1  0  0  0  0
  6 16  1  6  0  0  0
  6  1  1  0  0  0  0
  6 17  1  0  0  0  0
 10  3  1  0  0  0  0
 12  4  1  0  0  0  0
 13  4  1  0  0  0  0
 15  5  1  0  0  0  0
 17 20  1  0  0  0  0
 17 19  1  0  0  0  0
 18 17  1  0  0  0  0
 20 21  1  0  0  0  0
 21 23  2  0  0  0  0
 21 22  1  0  0  0  0
 23 24  1  0  0  0  0
 25 23  1  0  0  0  0
 26 25  1  0  0  0  0
 27 20  2  0  0  0  0
 27 25  1  0  0  0  0
 28 29  2  0  0  0  0
 30 35  1  0  0  0  0
 30 36  1  0  0  0  0
 31 30  2  0  0  0  0
 32 33  2  0  0  0  0
 32 31  1  0  0  0  0
 33 34  1  0  0  0  0
 34 28  1  0  0  0  0
 34 35  2  0  0  0  0
 37 31  1  0  0  0  0
 38 39  1  0  0  0  0
 38 32  1  0  0  0  0
 40 38  1  0  0  0  0
 41 38  1  0  0  0  0
M  END
>  <minimizedAffinity>
-5.59727478

$$$$

 OpenBabel03242518563D

 41 43  0  0  1  0  0  0  0  0999 V2000
   37.5790   30.9500   40.4500 C   0  0  2  0  0  0  0  0  0  0  0  0
   36.8100   32.2090   40.2160 C   0  0  0  0  0  0  0  0  0  0  0  0
   37.7900   33.2430   39.7790 C   0  0  0  0  0  0  0  0  0  0  0  0
   39.2150   32.8200   39.7680 C   0  0  0  0  0  0  0  0  0  0  0  0
   39.3800   31.5800   38.9210 C   0  0  0  0  0  0  0  0  0  0  0  0
   38.3390   30.5970   39.1860 C   0  0  2  0  0  0  0  0  0  0  0  0
   38.3790   31.1470   41.1980 H   0  0  0  0  0  0  0  0  0  0  0  0
   36.2660   32.5130   41.1630 H   0  0  0  0  0  0  0  0  0  0  0  0
   35.9840   32.0600   39.4860 H   0  0  0  0  0  0  0  0  0  0  0  0
   37.7310   34.0910   40.5280 H   0  0  0  0  0  0  0  0  0  0  0  0
   37.5370   33.7560   38.8200 H   0  0  0  0  0  0  0  0  0  0  0  0
   39.7970   33.6510   39.3280 H   0  0  0  0  0  0  0  0  0  0  0  0
   39.6430   32.6980   40.7950 H   0  0  0  0  0  0  0  0  0  0  0  0
   39.4630   31.9650   37.8690 H   0  0  0  0  0  0  0  0  0  0  0  0
   40.3910   31.1550   39.1560 H   0  0  0  0  0  0  0  0  0  0  0  0
   38.6700   29.5450   39.3050 H   0  0  0  0  0  0  0  0  0  0  0  0
   37.4400   30.6570   38.0030 C   0  0  0  0  0  0  0  0  0  0  0  0
   37.5920   31.5420   37.3590 H   0  0  0  0  0  0  0  0  0  0  0  0
   36.3760   30.6970   38.3240 H   0  0  0  0  0  0  0  0  0  0  0  0
   37.6880   29.4820   37.1290 C   0  0  0  0  0  0  0  0  0  0  0  0
   38.3010   28.2480   37.1870 C   0  0  0  0  0  0  0  0  0  0  0  0
   38.7720   27.9690   38.1080 H   0  0  0  0  0  0  0  0  0  0  0  0
   38.1650   27.5990   35.9780 C   0  0  0  0  0  0  0  0  0  0  0  0
   38.5850   26.6130   35.8360 H   0  0  0  0  0  0  0  0  0  0  0  0
   37.4700   28.4410   35.1920 N   0  0  0  0  0  0  0  0  0  0  0  0
   37.2290   28.1850   34.2080 H   0  0  0  0  0  0  0  0  0  0  0  0
   37.1890   29.5430   35.8600 N   0  0  0  0  0  0  0  0  0  0  0  0
   36.7590   29.8190   40.9530 C   0  0  0  0  0  0  0  0  0  0  0  0
   35.5240   29.7360   40.7800 O   0  0  0  0  0  0  0  0  0  0  0  0
   39.0990   28.1350   43.2020 C   0  0  0  0  0  0  0  0  0  0  0  0
   38.8170   26.7540   43.0380 C   0  0  0  0  0  0  0  0  0  0  0  0
   37.8020   26.4390   42.1430 C   0  0  0  0  0  0  0  0  0  0  0  0
   37.2150   27.4780   41.5460 N   0  0  0  0  0  0  0  0  0  0  0  0
   37.4750   28.7620   41.6930 C   0  0  0  0  0  0  0  0  0  0  0  0
   38.4520   29.0950   42.5540 N   0  0  0  0  0  0  0  0  0  0  0  0
   39.9070   28.3580   43.9170 H   0  0  0  0  0  0  0  0  0  0  0  0
   39.3730   26.0090   43.5900 H   0  0  0  0  0  0  0  0  0  0  0  0
   37.5070   25.0260   41.9620 C   0  0  0  0  0  0  0  0  0  0  0  0
   36.3400   24.7040   42.6390 F   0  0  0  0  0  0  0  0  0  0  0  0
   38.5420   24.3350   42.5060 F   0  0  0  0  0  0  0  0  0  0  0  0
   37.2740   24.7040   40.6300 F   0  0  0  0  0  0  0  0  0  0  0  0
  1 28  1  0  0  0  0
  1  7  1  1  0  0  0
  2  1  1  0  0  0  0
  2  8  1  0  0  0  0
  3  2  1  0  0  0  0
  3 10  1  0  0  0  0
  4  3  1  0  0  0  0
  4 13  1  0  0  0  0
  5 15  1  0  0  0  0
  5  6  1  0  0  0  0
  5  4  1  0  0  0  0
  6 16  1  1  0  0  0
  6  1  1  0  0  0  0
  9  2  1  0  0  0  0
 11  3  1  0  0  0  0
 12  4  1  0  0  0  0
 14  5  1  0  0  0  0
 17 19  1  0  0  0  0
 17  6  1  0  0  0  0
 18 17  1  0  0  0  0
 20 21  1  0  0  0  0
 20 17  1  0  0  0  0
 21 22  1  0  0  0  0
 23 21  2  0  0  0  0
 24 23  1  0  0  0  0
 25 27  1  0  0  0  0
 25 23  1  0  0  0  0
 26 25  1  0  0  0  0
 27 20  2  0  0  0  0
 28 34  1  0  0  0  0
 29 28  2  0  0  0  0
 30 36  1  0  0  0  0
 31 30  1  0  0  0  0
 31 37  1  0  0  0  0
 32 31  2  0  0  0  0
 33 34  2  0  0  0  0
 33 32  1  0  0  0  0
 34 35  1  0  0  0  0
 35 30  2  0  0  0  0
 38 32  1  0  0  0  0
 38 40  1  0  0  0  0
 38 39  1  0  0  0  0
 41 38  1  0  0  0  0
M  END
>  <minimizedAffinity>
-5.53122473

$$$$

 OpenBabel03242518563D

 41 43  0  0  1  0  0  0  0  0999 V2000
   35.8510   27.1850   37.4380 C   0  0  2  0  0  0  0  0  0  0  0  0
   35.9420   27.5620   35.9950 C   0  0  0  0  0  0  0  0  0  0  0  0
   34.5610   27.8960   35.5440 C   0  0  0  0  0  0  0  0  0  0  0  0
   33.4860   27.7020   36.5530 C   0  0  0  0  0  0  0  0  0  0  0  0
   33.8090   28.4780   37.8090 C   0  0  0  0  0  0  0  0  0  0  0  0
   35.2020   28.3230   38.2020 C   0  0  2  0  0  0  0  0  0  0  0  0
   35.1320   26.3440   37.5480 H   0  0  0  0  0  0  0  0  0  0  0  0
   36.3870   26.7070   35.3980 H   0  0  0  0  0  0  0  0  0  0  0  0
   36.6640   28.3920   35.8280 H   0  0  0  0  0  0  0  0  0  0  0  0
   34.3120   27.1910   34.6950 H   0  0  0  0  0  0  0  0  0  0  0  0
   34.4530   28.8980   35.0610 H   0  0  0  0  0  0  0  0  0  0  0  0
   32.5500   28.0860   36.1080 H   0  0  0  0  0  0  0  0  0  0  0  0
   33.2700   26.6230   36.7590 H   0  0  0  0  0  0  0  0  0  0  0  0
   33.4510   29.5210   37.5960 H   0  0  0  0  0  0  0  0  0  0  0  0
   33.1280   28.0950   38.6140 H   0  0  0  0  0  0  0  0  0  0  0  0
   35.3940   28.1260   39.2770 H   0  0  0  0  0  0  0  0  0  0  0  0
   35.8470   29.6180   37.8570 C   0  0  0  0  0  0  0  0  0  0  0  0
   35.2000   30.3140   37.2930 H   0  0  0  0  0  0  0  0  0  0  0  0
   36.7390   29.4500   37.2150 H   0  0  0  0  0  0  0  0  0  0  0  0
   36.2160   30.3380   39.1020 C   0  0  0  0  0  0  0  0  0  0  0  0
   37.1240   31.2840   39.5320 C   0  0  0  0  0  0  0  0  0  0  0  0
   37.8170   31.6710   38.8120 H   0  0  0  0  0  0  0  0  0  0  0  0
   36.9310   31.5450   40.8720 C   0  0  0  0  0  0  0  0  0  0  0  0
   37.5550   32.2640   41.3850 H   0  0  0  0  0  0  0  0  0  0  0  0
   35.9080   30.7580   41.2500 N   0  0  0  0  0  0  0  0  0  0  0  0
   35.5570   30.7650   42.2340 H   0  0  0  0  0  0  0  0  0  0  0  0
   35.4870   30.0510   40.2190 N   0  0  0  0  0  0  0  0  0  0  0  0
   37.1400   26.7610   38.0400 C   0  0  0  0  0  0  0  0  0  0  0  0
   38.2340   26.8280   37.4390 O   0  0  0  0  0  0  0  0  0  0  0  0
   36.7050   24.4870   40.8700 C   0  0  0  0  0  0  0  0  0  0  0  0
   36.9580   25.2900   42.0120 C   0  0  0  0  0  0  0  0  0  0  0  0
   37.2830   26.6180   41.7660 C   0  0  0  0  0  0  0  0  0  0  0  0
   37.3190   26.9760   40.4810 N   0  0  0  0  0  0  0  0  0  0  0  0
   37.0840   26.2340   39.4170 C   0  0  0  0  0  0  0  0  0  0  0  0
   36.7670   24.9440   39.6270 N   0  0  0  0  0  0  0  0  0  0  0  0
   36.4500   23.4380   41.0920 H   0  0  0  0  0  0  0  0  0  0  0  0
   36.8940   24.8700   43.0060 H   0  0  0  0  0  0  0  0  0  0  0  0
   37.5390   27.4530   42.9290 C   0  0  0  0  0  0  0  0  0  0  0  0
   38.5690   26.9060   43.6780 F   0  0  0  0  0  0  0  0  0  0  0  0
   36.4020   27.4540   43.6710 F   0  0  0  0  0  0  0  0  0  0  0  0
   37.9630   28.7290   42.5780 F   0  0  0  0  0  0  0  0  0  0  0  0
  1  7  1  1  0  0  0
  1 28  1  0  0  0  0
  1  6  1  0  0  0  0
  2  1  1  0  0  0  0
  3  2  1  0  0  0  0
  3  4  1  0  0  0  0
  4 13  1  0  0  0  0
  4  5  1  0  0  0  0
  5  6  1  0  0  0  0
  5 15  1  0  0  0  0
  6 16  1  1  0  0  0
  8  2  1  0  0  0  0
  9  2  1  0  0  0  0
 10  3  1  0  0  0  0
 11  3  1  0  0  0  0
 12  4  1  0  0  0  0
 14  5  1  0  0  0  0
 17  6  1  0  0  0  0
 17 20  1  0  0  0  0
 18 17  1  0  0  0  0
 19 17  1  0  0  0  0
 20 21  1  0  0  0  0
 20 27  2  0  0  0  0
 21 23  2  0  0  0  0
 22 21  1  0  0  0  0
 23 25  1  0  0  0  0
 23 24  1  0  0  0  0
 25 26  1  0  0  0  0
 27 25  1  0  0  0  0
 28 34  1  0  0  0  0
 29 28  2  0  0  0  0
 30 36  1  0  0  0  0
 30 31  1  0  0  0  0
 31 37  1  0  0  0  0
 32 31  2  0  0  0  0
 32 38  1  0  0  0  0
 33 32  1  0  0  0  0
 34 35  1  0  0  0  0
 34 33  2  0  0  0  0
 35 30  2  0  0  0  0
 38 40  1  0  0  0  0
 38 39  1  0  0  0  0
 41 38  1  0  0  0  0
M  END
>  <minimizedAffinity>
-5.52178288

$$$$

 OpenBabel03242518563D

 41 43  0  0  1  0  0  0  0  0999 V2000
   38.2950   30.0770   39.6410 C   0  0  2  0  0  0  0  0  0  0  0  0
   37.2170   30.1060   40.6740 C   0  0  0  0  0  0  0  0  0  0  0  0
   36.6280   31.4750   40.6510 C   0  0  0  0  0  0  0  0  0  0  0  0
   37.2740   32.4420   39.7240 C   0  0  0  0  0  0  0  0  0  0  0  0
   37.2970   31.8790   38.3230 C   0  0  0  0  0  0  0  0  0  0  0  0
   37.7040   30.4810   38.3030 C   0  0  2  0  0  0  0  0  0  0  0  0
   39.0310   30.8810   39.8620 H   0  0  0  0  0  0  0  0  0  0  0  0
   37.6460   29.8460   41.6900 H   0  0  0  0  0  0  0  0  0  0  0  0
   36.4600   29.3070   40.5060 H   0  0  0  0  0  0  0  0  0  0  0  0
   36.7640   31.9100   41.6870 H   0  0  0  0  0  0  0  0  0  0  0  0
   35.5190   31.5090   40.5230 H   0  0  0  0  0  0  0  0  0  0  0  0
   36.6680   33.3660   39.7450 H   0  0  0  0  0  0  0  0  0  0  0  0
   38.2870   32.7700   40.0720 H   0  0  0  0  0  0  0  0  0  0  0  0
   36.2830   32.1220   37.9040 H   0  0  0  0  0  0  0  0  0  0  0  0
   38.0140   32.5050   37.7300 H   0  0  0  0  0  0  0  0  0  0  0  0
   38.4490   30.1920   37.5330 H   0  0  0  0  0  0  0  0  0  0  0  0
   36.4560   29.7190   38.0330 C   0  0  0  0  0  0  0  0  0  0  0  0
   35.5260   30.2800   38.2340 H   0  0  0  0  0  0  0  0  0  0  0  0
   36.4060   28.8130   38.6760 H   0  0  0  0  0  0  0  0  0  0  0  0
   36.3960   29.3540   36.5950 C   0  0  0  0  0  0  0  0  0  0  0  0
   35.4840   29.3300   35.5600 C   0  0  0  0  0  0  0  0  0  0  0  0
   34.4840   29.6550   35.7700 H   0  0  0  0  0  0  0  0  0  0  0  0
   36.0900   28.8690   34.4110 C   0  0  0  0  0  0  0  0  0  0  0  0
   35.5260   28.7810   33.4920 H   0  0  0  0  0  0  0  0  0  0  0  0
   37.3670   28.6160   34.7510 N   0  0  0  0  0  0  0  0  0  0  0  0
   38.0490   28.2510   34.0500 H   0  0  0  0  0  0  0  0  0  0  0  0
   37.5500   28.8980   36.0270 N   0  0  0  0  0  0  0  0  0  0  0  0
   39.0360   28.7920   39.5680 C   0  0  0  0  0  0  0  0  0  0  0  0
   39.7350   28.4580   38.5870 O   0  0  0  0  0  0  0  0  0  0  0  0
   39.4910   27.3290   42.8870 C   0  0  0  0  0  0  0  0  0  0  0  0
   38.6810   26.1630   42.8750 C   0  0  0  0  0  0  0  0  0  0  0  0
   37.9830   25.9160   41.6990 C   0  0  0  0  0  0  0  0  0  0  0  0
   38.1600   26.8090   40.7230 N   0  0  0  0  0  0  0  0  0  0  0  0
   38.9120   27.8910   40.7290 C   0  0  0  0  0  0  0  0  0  0  0  0
   39.5980   28.1550   41.8550 N   0  0  0  0  0  0  0  0  0  0  0  0
   40.0330   27.5020   43.8300 H   0  0  0  0  0  0  0  0  0  0  0  0
   38.6280   25.5210   43.7420 H   0  0  0  0  0  0  0  0  0  0  0  0
   37.1540   24.7210   41.6720 C   0  0  0  0  0  0  0  0  0  0  0  0
   36.3930   24.7080   40.5130 F   0  0  0  0  0  0  0  0  0  0  0  0
   36.3260   24.7930   42.7460 F   0  0  0  0  0  0  0  0  0  0  0  0
   37.9110   23.5560   41.6420 F   0  0  0  0  0  0  0  0  0  0  0  0
  1  7  1  1  0  0  0
  1  2  1  0  0  0  0
  2  8  1  0  0  0  0
  3  2  1  0  0  0  0
  3 10  1  0  0  0  0
  4 12  1  0  0  0  0
  4 13  1  0  0  0  0
  4  3  1  0  0  0  0
  5  4  1  0  0  0  0
  6 16  1  6  0  0  0
  6  5  1  0  0  0  0
  6  1  1  0  0  0  0
  9  2  1  0  0  0  0
 11  3  1  0  0  0  0
 14  5  1  0  0  0  0
 15  5  1  0  0  0  0
 17 18  1  0  0  0  0
 17  6  1  0  0  0  0
 17 19  1  0  0  0  0
 20 17  1  0  0  0  0
 21 22  1  0  0  0  0
 21 20  1  0  0  0  0
 23 25  1  0  0  0  0
 23 21  2  0  0  0  0
 24 23  1  0  0  0  0
 25 27  1  0  0  0  0
 26 25  1  0  0  0  0
 27 20  2  0  0  0  0
 28  1  1  0  0  0  0
 28 34  1  0  0  0  0
 29 28  2  0  0  0  0
 30 36  1  0  0  0  0
 31 30  1  0  0  0  0
 31 37  1  0  0  0  0
 32 31  2  0  0  0  0
 33 34  2  0  0  0  0
 33 32  1  0  0  0  0
 34 35  1  0  0  0  0
 35 30  2  0  0  0  0
 38 32  1  0  0  0  0
 38 40  1  0  0  0  0
 39 38  1  0  0  0  0
 41 38  1  0  0  0  0
M  END
>  <minimizedAffinity>
-5.50103807

$$$$

 OpenBabel03242518563D

 41 43  0  0  1  0  0  0  0  0999 V2000
   37.8260   28.4260   37.9480 C   0  0  2  0  0  0  0  0  0  0  0  0
   38.3690   28.4460   36.5570 C   0  0  0  0  0  0  0  0  0  0  0  0
   37.2000   28.5190   35.6350 C   0  0  0  0  0  0  0  0  0  0  0  0
   35.8620   28.4700   36.2810 C   0  0  0  0  0  0  0  0  0  0  0  0
   35.7500   29.5570   37.3230 C   0  0  0  0  0  0  0  0  0  0  0  0
   36.9460   29.6450   38.1500 C   0  0  2  0  0  0  0  0  0  0  0  0
   37.1250   27.5690   38.0520 H   0  0  0  0  0  0  0  0  0  0  0  0
   38.9980   27.5220   36.3720 H   0  0  0  0  0  0  0  0  0  0  0  0
   39.0910   29.2790   36.4060 H   0  0  0  0  0  0  0  0  0  0  0  0
   37.2490   27.6060   34.9670 H   0  0  0  0  0  0  0  0  0  0  0  0
   37.2350   29.3560   34.8950 H   0  0  0  0  0  0  0  0  0  0  0  0
   35.1120   28.6370   35.4860 H   0  0  0  0  0  0  0  0  0  0  0  0
   35.6100   27.4570   36.6880 H   0  0  0  0  0  0  0  0  0  0  0  0
   35.4610   30.4750   36.7440 H   0  0  0  0  0  0  0  0  0  0  0  0
   34.8540   29.3160   37.9530 H   0  0  0  0  0  0  0  0  0  0  0  0
   36.7860   29.7370   39.2440 H   0  0  0  0  0  0  0  0  0  0  0  0
   37.6440   30.8750   37.6900 C   0  0  0  0  0  0  0  0  0  0  0  0
   37.0640   31.4900   36.9780 H   0  0  0  0  0  0  0  0  0  0  0  0
   38.5870   30.6120   37.1620 H   0  0  0  0  0  0  0  0  0  0  0  0
   37.9140   31.7590   38.8520 C   0  0  0  0  0  0  0  0  0  0  0  0
   38.9100   31.9940   39.7760 C   0  0  0  0  0  0  0  0  0  0  0  0
   39.7990   31.3990   39.7120 H   0  0  0  0  0  0  0  0  0  0  0  0
   38.5270   33.0060   40.6310 C   0  0  0  0  0  0  0  0  0  0  0  0
   39.1860   33.3290   41.4260 H   0  0  0  0  0  0  0  0  0  0  0  0
   37.3020   33.3810   40.2230 N   0  0  0  0  0  0  0  0  0  0  0  0
   36.7810   34.1430   40.7100 H   0  0  0  0  0  0  0  0  0  0  0  0
   36.9390   32.6550   39.1830 N   0  0  0  0  0  0  0  0  0  0  0  0
   38.8610   28.2940   39.0050 C   0  0  0  0  0  0  0  0  0  0  0  0
   40.0690   28.5570   38.8200 O   0  0  0  0  0  0  0  0  0  0  0  0
   38.0400   28.2140   42.5670 C   0  0  0  0  0  0  0  0  0  0  0  0
   37.5600   26.8980   42.7910 C   0  0  0  0  0  0  0  0  0  0  0  0
   37.5270   26.0610   41.6810 C   0  0  0  0  0  0  0  0  0  0  0  0
   37.9520   26.6020   40.5380 N   0  0  0  0  0  0  0  0  0  0  0  0
   38.4000   27.8230   40.3250 C   0  0  0  0  0  0  0  0  0  0  0  0
   38.4420   28.6530   41.3820 N   0  0  0  0  0  0  0  0  0  0  0  0
   38.0550   28.8560   43.4620 H   0  0  0  0  0  0  0  0  0  0  0  0
   37.2440   26.5870   43.7770 H   0  0  0  0  0  0  0  0  0  0  0  0
   37.0420   24.7080   41.8990 C   0  0  0  0  0  0  0  0  0  0  0  0
   36.3750   24.2640   40.7670 F   0  0  0  0  0  0  0  0  0  0  0  0
   36.1680   24.7650   42.9370 F   0  0  0  0  0  0  0  0  0  0  0  0
   38.0780   23.8050   42.1060 F   0  0  0  0  0  0  0  0  0  0  0  0
  1  7  1  1  0  0  0
  1  6  1  0  0  0  0
  1 28  1  0  0  0  0
  2  1  1  0  0  0  0
  3  4  1  0  0  0  0
  3  2  1  0  0  0  0
  4 13  1  0  0  0  0
  4  5  1  0  0  0  0
  5 15  1  0  0  0  0
  5  6  1  0  0  0  0
  6 16  1  1  0  0  0
  8  2  1  0  0  0  0
  9  2  1  0  0  0  0
 10  3  1  0  0  0  0
 11  3  1  0  0  0  0
 12  4  1  0  0  0  0
 14  5  1  0  0  0  0
 17  6  1  0  0  0  0
 17 20  1  0  0  0  0
 18 17  1  0  0  0  0
 19 17  1  0  0  0  0
 20 27  2  0  0  0  0
 20 21  1  0  0  0  0
 21 23  2  0  0  0  0
 22 21  1  0  0  0  0
 23 24  1  0  0  0  0
 25 23  1  0  0  0  0
 25 26  1  0  0  0  0
 27 25  1  0  0  0  0
 28 34  1  0  0  0  0
 29 28  2  0  0  0  0
 30 31  1  0  0  0  0
 30 36  1  0  0  0  0
 31 37  1  0  0  0  0
 32 38  1  0  0  0  0
 32 31  2  0  0  0  0
 33 32  1  0  0  0  0
 34 33  2  0  0  0  0
 34 35  1  0  0  0  0
 35 30  2  0  0  0  0
 38 41  1  0  0  0  0
 38 40  1  0  0  0  0
 39 38  1  0  0  0  0
M  END
>  <minimizedAffinity>
-5.48032427

$$$$

 OpenBabel03242518563D

 41 43  0  0  1  0  0  0  0  0999 V2000
   36.5610   30.5340   38.6530 C   0  0  2  0  0  0  0  0  0  0  0  0
   37.8810   30.8200   38.0170 C   0  0  0  0  0  0  0  0  0  0  0  0
   38.3970   32.0760   38.6310 C   0  0  0  0  0  0  0  0  0  0  0  0
   37.4890   32.7430   39.6020 C   0  0  0  0  0  0  0  0  0  0  0  0
   37.0960   31.7730   40.6920 C   0  0  0  0  0  0  0  0  0  0  0  0
   36.7440   30.4650   40.1570 C   0  0  2  0  0  0  0  0  0  0  0  0
   35.8900   31.4090   38.5050 H   0  0  0  0  0  0  0  0  0  0  0  0
   37.7590   30.9160   36.8940 H   0  0  0  0  0  0  0  0  0  0  0  0
   38.5860   29.9660   38.1230 H   0  0  0  0  0  0  0  0  0  0  0  0
   38.5410   32.8200   37.7900 H   0  0  0  0  0  0  0  0  0  0  0  0
   39.4260   32.0030   39.0610 H   0  0  0  0  0  0  0  0  0  0  0  0
   38.0480   33.5900   40.0410 H   0  0  0  0  0  0  0  0  0  0  0  0
   36.6030   33.2220   39.1140 H   0  0  0  0  0  0  0  0  0  0  0  0
   37.9460   31.8130   41.4250 H   0  0  0  0  0  0  0  0  0  0  0  0
   36.2240   32.2250   41.2320 H   0  0  0  0  0  0  0  0  0  0  0  0
   35.8250   29.9960   40.5620 H   0  0  0  0  0  0  0  0  0  0  0  0
   37.8920   29.5850   40.5030 C   0  0  0  0  0  0  0  0  0  0  0  0
   38.8250   30.1250   40.7450 H   0  0  0  0  0  0  0  0  0  0  0  0
   38.1430   28.9200   39.6480 H   0  0  0  0  0  0  0  0  0  0  0  0
   37.5650   28.7920   41.7150 C   0  0  0  0  0  0  0  0  0  0  0  0
   37.6220   28.9120   43.0880 C   0  0  0  0  0  0  0  0  0  0  0  0
   38.0110   29.8250   43.4920 H   0  0  0  0  0  0  0  0  0  0  0  0
   37.1330   27.7670   43.6800 C   0  0  0  0  0  0  0  0  0  0  0  0
   37.1000   27.6790   44.7570 H   0  0  0  0  0  0  0  0  0  0  0  0
   36.7810   26.9570   42.6650 N   0  0  0  0  0  0  0  0  0  0  0  0
   36.3770   26.0110   42.8450 H   0  0  0  0  0  0  0  0  0  0  0  0
   37.0320   27.5520   41.5150 N   0  0  0  0  0  0  0  0  0  0  0  0
   35.8690   29.3370   38.1120 C   0  0  0  0  0  0  0  0  0  0  0  0
   35.2160   28.5420   38.8210 O   0  0  0  0  0  0  0  0  0  0  0  0
   36.1750   27.6570   34.8780 C   0  0  0  0  0  0  0  0  0  0  0  0
   36.2340   28.7150   33.9330 C   0  0  0  0  0  0  0  0  0  0  0  0
   36.1580   30.0020   34.4510 C   0  0  0  0  0  0  0  0  0  0  0  0
   36.0380   30.0860   35.7770 N   0  0  0  0  0  0  0  0  0  0  0  0
   35.9850   29.1070   36.6590 C   0  0  0  0  0  0  0  0  0  0  0  0
   36.0560   27.8510   36.1850 N   0  0  0  0  0  0  0  0  0  0  0  0
   36.2370   26.6480   34.4430 H   0  0  0  0  0  0  0  0  0  0  0  0
   36.3320   28.5050   32.8780 H   0  0  0  0  0  0  0  0  0  0  0  0
   36.2220   31.0950   33.4930 C   0  0  0  0  0  0  0  0  0  0  0  0
   37.1530   32.0310   33.9160 F   0  0  0  0  0  0  0  0  0  0  0  0
   34.9920   31.6700   33.4690 F   0  0  0  0  0  0  0  0  0  0  0  0
   36.6520   30.6720   32.2410 F   0  0  0  0  0  0  0  0  0  0  0  0
  1  7  1  6  0  0  0
  1  6  1  0  0  0  0
  2  9  1  0  0  0  0
  2  3  1  0  0  0  0
  2  1  1  0  0  0  0
  3 11  1  0  0  0  0
  3  4  1  0  0  0  0
  4 12  1  0  0  0  0
  4  5  1  0  0  0  0
  5 15  1  0  0  0  0
  5 14  1  0  0  0  0
  6 17  1  0  0  0  0
  6 16  1  1  0  0  0
  6  5  1  0  0  0  0
  8  2  1  0  0  0  0
 10  3  1  0  0  0  0
 13  4  1  0  0  0  0
 17 18  1  0  0  0  0
 17 20  1  0  0  0  0
 19 17  1  0  0  0  0
 20 21  1  0  0  0  0
 21 22  1  0  0  0  0
 21 23  2  0  0  0  0
 23 24  1  0  0  0  0
 25 26  1  0  0  0  0
 25 23  1  0  0  0  0
 27 20  2  0  0  0  0
 27 25  1  0  0  0  0
 28  1  1  0  0  0  0
 28 29  2  0  0  0  0
 30 35  1  0  0  0  0
 31 32  1  0  0  0  0
 31 30  2  0  0  0  0
 32 33  2  0  0  0  0
 33 34  1  0  0  0  0
 34 28  1  0  0  0  0
 35 34  2  0  0  0  0
 36 30  1  0  0  0  0
 37 31  1  0  0  0  0
 38 39  1  0  0  0  0
 38 32  1  0  0  0  0
 40 38  1  0  0  0  0
 41 38  1  0  0  0  0
M  END
>  <minimizedAffinity>
-5.46488857

$$$$
