
 OpenBabel03252505023D

 33 35  0  0  1  0  0  0  0  0999 V2000
   46.4380   33.0280   46.3830 C   0  0  2  0  0  0  0  0  0  0  0  0
   46.9850   31.8040   45.7280 C   0  0  0  0  0  0  0  0  0  0  0  0
   46.1180   30.6110   45.7580 C   0  0  0  0  0  0  0  0  0  0  0  0
   45.8000   30.3720   47.2290 C   0  0  0  0  0  0  0  0  0  0  0  0
   44.9890   31.4490   47.7950 C   0  0  0  0  0  0  0  0  0  0  0  0
   45.3470   32.8320   47.3280 C   0  0  0  0  0  0  0  0  0  0  0  0
   47.2710   33.5610   46.8990 H   0  0  0  0  0  0  0  0  0  0  0  0
   47.9380   31.5250   46.2510 H   0  0  0  0  0  0  0  0  0  0  0  0
   47.3080   31.9930   44.6790 H   0  0  0  0  0  0  0  0  0  0  0  0
   46.7430   29.7300   45.4610 H   0  0  0  0  0  0  0  0  0  0  0  0
   45.2420   30.6120   45.1120 H   0  0  0  0  0  0  0  0  0  0  0  0
   46.7430   30.2080   47.7470 H   0  0  0  0  0  0  0  0  0  0  0  0
   45.1490   29.4770   47.2310 H   0  0  0  0  0  0  0  0  0  0  0  0
   44.1820   31.5580   48.4660 H   0  0  0  0  0  0  0  0  0  0  0  0
   44.5930   35.5720   44.4210 C   0  0  0  0  0  0  0  0  0  0  0  0
   45.3460   35.6260   43.2200 C   0  0  0  0  0  0  0  0  0  0  0  0
   46.4750   34.7760   43.1180 C   0  0  0  0  0  0  0  0  0  0  0  0
   46.7730   33.9630   44.1640 N   0  0  0  0  0  0  0  0  0  0  0  0
   46.0370   33.9410   45.2820 C   0  0  0  0  0  0  0  0  0  0  0  0
   44.9350   34.7450   45.4290 N   0  0  0  0  0  0  0  0  0  0  0  0
   43.7390   36.2350   44.4610 H   0  0  0  0  0  0  0  0  0  0  0  0
   45.0690   36.2890   42.4160 H   0  0  0  0  0  0  0  0  0  0  0  0
   47.2620   34.8170   41.8910 C   0  0  0  0  0  0  0  0  0  0  0  0
   46.9920   34.1590   40.7350 C   0  0  0  0  0  0  0  0  0  0  0  0
   46.1380   33.5170   40.6070 H   0  0  0  0  0  0  0  0  0  0  0  0
   48.0230   34.5210   39.8800 C   0  0  0  0  0  0  0  0  0  0  0  0
   48.0780   34.1390   38.8540 H   0  0  0  0  0  0  0  0  0  0  0  0
   48.8600   35.3670   40.5400 N   0  0  0  0  0  0  0  0  0  0  0  0
   49.6970   35.7210   39.9940 H   0  0  0  0  0  0  0  0  0  0  0  0
   48.3700   35.5290   41.7630 N   0  0  0  0  0  0  0  0  0  0  0  0
   44.6320   33.9740   47.7970 N   0  0  0  0  0  0  0  0  0  0  0  0
   45.3190   34.4560   48.4390 H   0  0  0  0  0  0  0  0  0  0  0  0
   43.6770   33.9290   47.3350 H   0  0  0  0  0  0  0  0  0  0  0  0
  1  7  1  1  0  0  0
  1  6  1  0  0  0  0
  2  3  1  0  0  0  0
  2  8  1  0  0  0  0
  2  1  1  0  0  0  0
  3  4  1  0  0  0  0
  4 13  1  0  0  0  0
  4 12  1  0  0  0  0
  4  5  1  0  0  0  0
  5 14  1  0  0  0  0
  6  5  2  0  0  0  0
  6 31  1  0  0  0  0
  9  2  1  0  0  0  0
 10  3  1  0  0  0  0
 11  3  1  0  0  0  0
 15 21  1  0  0  0  0
 15 20  1  0  0  0  0
 16 15  2  0  0  0  0
 17 16  1  0  0  0  0
 17 18  2  0  0  0  0
 18 19  1  0  0  0  0
 19 20  2  0  0  0  0
 19  1  1  0  0  0  0
 22 16  1  0  0  0  0
 23 17  1  0  0  0  0
 24 23  1  0  0  0  0
 25 24  1  0  0  0  0
 26 28  1  0  0  0  0
 26 24  2  0  0  0  0
 27 26  1  0  0  0  0
 28 30  1  0  0  0  0
 29 28  1  0  0  0  0
 30 23  2  0  0  0  0
 31 32  1  0  0  0  0
 33 31  1  0  0  0  0
M  END
>  <minimizedAffinity>
-6.63658285

>  <minimizedRMSD>
1.02083337

$$$$
