
 OpenBabel03252508203D

 33 35  0  0  0  0  0  0  0  0999 V2000
   41.7860   33.3140   40.1820 C   0  0  0  0  0  0  0  0  0  0  0  0
   42.5850   34.4540   40.1650 C   0  0  0  0  0  0  0  0  0  0  0  0
   42.3210   35.6420   40.8380 C   0  0  0  0  0  0  0  0  0  0  0  0
   41.1500   35.6400   41.5750 C   0  0  0  0  0  0  0  0  0  0  0  0
   40.3470   34.5300   41.6070 C   0  0  0  0  0  0  0  0  0  0  0  0
   40.6240   33.3530   40.9320 C   0  0  0  0  0  0  0  0  0  0  0  0
   43.4870   34.3690   39.5600 H   0  0  0  0  0  0  0  0  0  0  0  0
   43.0420   36.4240   40.7170 H   0  0  0  0  0  0  0  0  0  0  0  0
   40.9380   36.5570   42.0990 H   0  0  0  0  0  0  0  0  0  0  0  0
   39.4740   34.7000   42.2300 H   0  0  0  0  0  0  0  0  0  0  0  0
   39.6270   32.3120   41.1120 C   0  0  0  0  0  0  0  0  0  0  0  0
   39.6230   31.0640   41.6750 C   0  0  0  0  0  0  0  0  0  0  0  0
   40.4580   30.5730   42.1330 H   0  0  0  0  0  0  0  0  0  0  0  0
   38.4180   30.4510   41.6310 C   0  0  0  0  0  0  0  0  0  0  0  0
   38.1150   29.4870   41.9860 H   0  0  0  0  0  0  0  0  0  0  0  0
   37.6460   31.3540   41.0170 N   0  0  0  0  0  0  0  0  0  0  0  0
   36.6210   31.3150   40.7620 H   0  0  0  0  0  0  0  0  0  0  0  0
   38.3620   32.4130   40.7280 N   0  0  0  0  0  0  0  0  0  0  0  0
   42.1040   32.0990   39.4410 C   0  0  0  0  0  0  0  0  0  0  0  0
   42.0150   32.3490   38.3610 H   0  0  0  0  0  0  0  0  0  0  0  0
   41.4810   31.2330   39.7140 H   0  0  0  0  0  0  0  0  0  0  0  0
   43.5940   31.7250   39.5820 C   0  0  0  0  0  0  0  0  0  0  0  0
   43.7630   30.9460   38.8300 H   0  0  0  0  0  0  0  0  0  0  0  0
   44.2170   32.6090   39.4610 H   0  0  0  0  0  0  0  0  0  0  0  0
   43.2860   29.3850   42.5370 C   0  0  0  0  0  0  0  0  0  0  0  0
   43.0790   29.9340   41.2400 C   0  0  0  0  0  0  0  0  0  0  0  0
   43.7620   31.0980   40.9260 C   0  0  0  0  0  0  0  0  0  0  0  0
   44.5840   31.6240   41.8930 N   0  0  0  0  0  0  0  0  0  0  0  0
   44.7580   31.0910   43.0930 C   0  0  0  0  0  0  0  0  0  0  0  0
   44.1120   29.9700   43.4250 N   0  0  0  0  0  0  0  0  0  0  0  0
   42.7400   28.4750   42.7560 H   0  0  0  0  0  0  0  0  0  0  0  0
   42.4120   29.4500   40.5420 H   0  0  0  0  0  0  0  0  0  0  0  0
   45.4130   31.5380   43.8250 H   0  0  0  0  0  0  0  0  0  0  0  0
  1  6  1  0  0  0  0
  2  1  2  0  0  0  0
  2  3  1  0  0  0  0
  3  4  2  0  0  0  0
  4  5  1  0  0  0  0
  4  9  1  0  0  0  0
  5 10  1  0  0  0  0
  6 11  1  0  0  0  0
  6  5  2  0  0  0  0
  7  2  1  0  0  0  0
  8  3  1  0  0  0  0
 11 12  1  0  0  0  0
 12 13  1  0  0  0  0
 14 12  2  0  0  0  0
 14 15  1  0  0  0  0
 16 14  1  0  0  0  0
 17 16  1  0  0  0  0
 18 16  1  0  0  0  0
 18 11  2  0  0  0  0
 19 22  1  0  0  0  0
 19 21  1  0  0  0  0
 19  1  1  0  0  0  0
 20 19  1  0  0  0  0
 22 27  1  0  0  0  0
 23 22  1  0  0  0  0
 24 22  1  0  0  0  0
 25 31  1  0  0  0  0
 25 30  1  0  0  0  0
 26 25  2  0  0  0  0
 27 26  1  0  0  0  0
 27 28  2  0  0  0  0
 28 29  1  0  0  0  0
 29 30  2  0  0  0  0
 29 33  1  0  0  0  0
 32 26  1  0  0  0  0
M  END
>  <minimizedAffinity>
-3.48887873

>  <minimizedRMSD>
6.6497879

$$$$
