
 OpenBabel03252508203D

 33 35  0  0  0  0  0  0  0  0999 V2000
   41.8700   32.0670   40.1520 C   0  0  0  0  0  0  0  0  0  0  0  0
   42.4450   31.4990   41.2860 C   0  0  0  0  0  0  0  0  0  0  0  0
   41.7610   31.0840   42.4240 C   0  0  0  0  0  0  0  0  0  0  0  0
   40.3910   31.2720   42.3750 C   0  0  0  0  0  0  0  0  0  0  0  0
   39.8020   31.8300   41.2700 C   0  0  0  0  0  0  0  0  0  0  0  0
   40.4980   32.2380   40.1440 C   0  0  0  0  0  0  0  0  0  0  0  0
   43.5280   31.3870   41.2400 H   0  0  0  0  0  0  0  0  0  0  0  0
   42.3580   30.6660   43.2090 H   0  0  0  0  0  0  0  0  0  0  0  0
   39.8540   30.9540   43.2530 H   0  0  0  0  0  0  0  0  0  0  0  0
   38.7270   31.9050   41.3990 H   0  0  0  0  0  0  0  0  0  0  0  0
   39.6620   32.8020   39.0980 C   0  0  0  0  0  0  0  0  0  0  0  0
   39.3800   34.0680   38.6640 C   0  0  0  0  0  0  0  0  0  0  0  0
   39.7680   34.9790   39.0740 H   0  0  0  0  0  0  0  0  0  0  0  0
   38.5380   34.1060   37.6060 C   0  0  0  0  0  0  0  0  0  0  0  0
   38.1440   34.9400   37.0620 H   0  0  0  0  0  0  0  0  0  0  0  0
   38.2890   32.8130   37.3750 N   0  0  0  0  0  0  0  0  0  0  0  0
   37.6800   32.3550   36.6420 H   0  0  0  0  0  0  0  0  0  0  0  0
   38.9460   32.0840   38.2430 N   0  0  0  0  0  0  0  0  0  0  0  0
   42.6410   32.5010   38.9930 C   0  0  0  0  0  0  0  0  0  0  0  0
   42.4100   33.5780   38.8390 H   0  0  0  0  0  0  0  0  0  0  0  0
   42.4530   31.9070   38.0850 H   0  0  0  0  0  0  0  0  0  0  0  0
   44.1540   32.5160   39.2930 C   0  0  0  0  0  0  0  0  0  0  0  0
   44.3980   33.5700   39.4630 H   0  0  0  0  0  0  0  0  0  0  0  0
   44.3760   31.8620   40.1350 H   0  0  0  0  0  0  0  0  0  0  0  0
   45.8670   32.5450   35.9230 C   0  0  0  0  0  0  0  0  0  0  0  0
   45.1990   33.0210   37.0860 C   0  0  0  0  0  0  0  0  0  0  0  0
   44.8520   32.0850   38.0470 C   0  0  0  0  0  0  0  0  0  0  0  0
   45.1810   30.7750   37.7950 N   0  0  0  0  0  0  0  0  0  0  0  0
   45.8040   30.3600   36.7020 C   0  0  0  0  0  0  0  0  0  0  0  0
   46.1510   31.2390   35.7580 N   0  0  0  0  0  0  0  0  0  0  0  0
   46.1270   33.2980   35.1880 H   0  0  0  0  0  0  0  0  0  0  0  0
   44.9810   34.0720   37.1990 H   0  0  0  0  0  0  0  0  0  0  0  0
   46.0430   29.3200   36.5430 H   0  0  0  0  0  0  0  0  0  0  0  0
  1  2  1  0  0  0  0
  2  3  2  0  0  0  0
  3  8  1  0  0  0  0
  4  3  1  0  0  0  0
  4  9  1  0  0  0  0
  5 10  1  0  0  0  0
  5  4  2  0  0  0  0
  6  1  2  0  0  0  0
  6  5  1  0  0  0  0
  7  2  1  0  0  0  0
 11  6  1  0  0  0  0
 12 13  1  0  0  0  0
 12 11  1  0  0  0  0
 14 12  2  0  0  0  0
 15 14  1  0  0  0  0
 16 14  1  0  0  0  0
 16 18  1  0  0  0  0
 17 16  1  0  0  0  0
 18 11  2  0  0  0  0
 19 22  1  0  0  0  0
 19  1  1  0  0  0  0
 20 19  1  0  0  0  0
 21 19  1  0  0  0  0
 22 23  1  0  0  0  0
 22 24  1  0  0  0  0
 25 26  1  0  0  0  0
 26 32  1  0  0  0  0
 26 27  2  0  0  0  0
 27 22  1  0  0  0  0
 28 27  1  0  0  0  0
 29 28  2  0  0  0  0
 30 25  2  0  0  0  0
 30 29  1  0  0  0  0
 31 25  1  0  0  0  0
 33 29  1  0  0  0  0
M  END
>  <minimizedAffinity>
-3.20174599

>  <minimizedRMSD>
7.76884079

$$$$
