
 OpenBabel03242519593D

 27 29  0  0  0  0  0  0  0  0999 V2000
   40.4150   29.0880   39.8970 Br  0  0  0  0  0  0  0  0  0  0  0  0
   38.7100   29.8160   40.3500 C   0  0  0  0  0  0  0  0  0  0  0  0
   37.8580   29.2010   41.2480 C   0  0  0  0  0  0  0  0  0  0  0  0
   36.6380   29.8060   41.5160 C   0  0  0  0  0  0  0  0  0  0  0  0
   36.2580   30.9910   40.9150 C   0  0  0  0  0  0  0  0  0  0  0  0
   37.0990   31.6130   40.0190 C   0  0  0  0  0  0  0  0  0  0  0  0
   38.3070   31.0010   39.7630 C   0  0  0  0  0  0  0  0  0  0  0  0
   35.9860   29.2990   42.2280 H   0  0  0  0  0  0  0  0  0  0  0  0
   35.2890   31.4240   41.1600 H   0  0  0  0  0  0  0  0  0  0  0  0
   36.8050   32.5430   39.5450 H   0  0  0  0  0  0  0  0  0  0  0  0
   39.3840   26.7000   43.6490 C   0  0  0  0  0  0  0  0  0  0  0  0
   38.9600   27.9070   43.0760 C   0  0  0  0  0  0  0  0  0  0  0  0
   38.3040   27.9520   41.8560 C   0  0  0  0  0  0  0  0  0  0  0  0
   38.1000   26.7470   41.2520 N   0  0  0  0  0  0  0  0  0  0  0  0
   38.5130   25.5910   41.8150 C   0  0  0  0  0  0  0  0  0  0  0  0
   39.1430   25.5630   42.9910 N   0  0  0  0  0  0  0  0  0  0  0  0
   39.8960   26.6670   44.6020 H   0  0  0  0  0  0  0  0  0  0  0  0
   39.1580   28.8130   43.6130 H   0  0  0  0  0  0  0  0  0  0  0  0
   38.2600   24.7450   41.1860 H   0  0  0  0  0  0  0  0  0  0  0  0
   39.2200   31.6470   38.8090 C   0  0  0  0  0  0  0  0  0  0  0  0
   40.3190   32.4210   39.0940 C   0  0  0  0  0  0  0  0  0  0  0  0
   40.6630   32.6600   40.0930 H   0  0  0  0  0  0  0  0  0  0  0  0
   40.9060   32.8380   37.9070 C   0  0  0  0  0  0  0  0  0  0  0  0
   41.7890   33.4600   37.9020 H   0  0  0  0  0  0  0  0  0  0  0  0
   40.1420   32.3010   36.9160 N   0  0  0  0  0  0  0  0  0  0  0  0
   40.3910   32.4790   35.9200 H   0  0  0  0  0  0  0  0  0  0  0  0
   39.1600   31.6070   37.4680 N   0  0  0  0  0  0  0  0  0  0  0  0
  1  2  1  0  0  0  0
  2  3  1  0  0  0  0
  3  4  2  0  0  0  0
  3 13  1  0  0  0  0
  4  8  1  0  0  0  0
  5  9  1  0  0  0  0
  5  4  1  0  0  0  0
  6  5  2  0  0  0  0
  7  6  1  0  0  0  0
  7  2  2  0  0  0  0
 10  6  1  0  0  0  0
 11 17  1  0  0  0  0
 12 18  1  0  0  0  0
 12 11  1  0  0  0  0
 13 12  2  0  0  0  0
 14 15  2  0  0  0  0
 14 13  1  0  0  0  0
 15 16  1  0  0  0  0
 16 11  2  0  0  0  0
 19 15  1  0  0  0  0
 20 21  1  0  0  0  0
 20  7  1  0  0  0  0
 21 22  1  0  0  0  0
 23 21  2  0  0  0  0
 24 23  1  0  0  0  0
 25 27  1  0  0  0  0
 25 23  1  0  0  0  0
 26 25  1  0  0  0  0
 27 20  2  0  0  0  0
M  END
>  <minimizedAffinity>
-5.08118582

$$$$

 OpenBabel03242519593D

 27 29  0  0  0  0  0  0  0  0999 V2000
   37.4720   28.3550   39.0550 Br  0  0  0  0  0  0  0  0  0  0  0  0
   37.5320   27.9850   40.9260 C   0  0  0  0  0  0  0  0  0  0  0  0
   37.6020   26.6980   41.4240 C   0  0  0  0  0  0  0  0  0  0  0  0
   37.6420   26.5260   42.8000 C   0  0  0  0  0  0  0  0  0  0  0  0
   37.6130   27.5960   43.6750 C   0  0  0  0  0  0  0  0  0  0  0  0
   37.5430   28.8840   43.1910 C   0  0  0  0  0  0  0  0  0  0  0  0
   37.5040   29.0380   41.8210 C   0  0  0  0  0  0  0  0  0  0  0  0
   37.6970   25.5000   43.1650 H   0  0  0  0  0  0  0  0  0  0  0  0
   37.6470   27.4080   44.7470 H   0  0  0  0  0  0  0  0  0  0  0  0
   37.5210   29.7270   43.8730 H   0  0  0  0  0  0  0  0  0  0  0  0
   36.5240   23.8970   39.1130 C   0  0  0  0  0  0  0  0  0  0  0  0
   36.4830   24.9490   40.0380 C   0  0  0  0  0  0  0  0  0  0  0  0
   37.6300   25.6020   40.4610 C   0  0  0  0  0  0  0  0  0  0  0  0
   38.7980   25.1540   39.9180 N   0  0  0  0  0  0  0  0  0  0  0  0
   38.8230   24.1390   39.0270 C   0  0  0  0  0  0  0  0  0  0  0  0
   37.7110   23.5200   38.6290 N   0  0  0  0  0  0  0  0  0  0  0  0
   35.6270   23.3880   38.7840 H   0  0  0  0  0  0  0  0  0  0  0  0
   35.5260   25.2430   40.4190 H   0  0  0  0  0  0  0  0  0  0  0  0
   39.8390   23.9290   38.7120 H   0  0  0  0  0  0  0  0  0  0  0  0
   37.4290   30.4040   41.2820 C   0  0  0  0  0  0  0  0  0  0  0  0
   38.4730   31.2520   40.9990 C   0  0  0  0  0  0  0  0  0  0  0  0
   39.5200   31.0110   41.1430 H   0  0  0  0  0  0  0  0  0  0  0  0
   37.9710   32.4480   40.5060 C   0  0  0  0  0  0  0  0  0  0  0  0
   38.6240   33.2590   40.2190 H   0  0  0  0  0  0  0  0  0  0  0  0
   36.6180   32.2990   40.4990 N   0  0  0  0  0  0  0  0  0  0  0  0
   36.0150   33.0790   40.1640 H   0  0  0  0  0  0  0  0  0  0  0  0
   36.3230   31.0930   40.9580 N   0  0  0  0  0  0  0  0  0  0  0  0
  1  2  1  0  0  0  0
  2  3  2  0  0  0  0
  2  7  1  0  0  0  0
  3  4  1  0  0  0  0
  4  8  1  0  0  0  0
  4  5  2  0  0  0  0
  5  9  1  0  0  0  0
  6  5  1  0  0  0  0
  6 10  1  0  0  0  0
  7  6  2  0  0  0  0
 11 12  1  0  0  0  0
 12 18  1  0  0  0  0
 12 13  2  0  0  0  0
 13  3  1  0  0  0  0
 14 13  1  0  0  0  0
 15 14  2  0  0  0  0
 16 15  1  0  0  0  0
 16 11  2  0  0  0  0
 17 11  1  0  0  0  0
 19 15  1  0  0  0  0
 20  7  1  0  0  0  0
 21 22  1  0  0  0  0
 21 20  1  0  0  0  0
 23 21  2  0  0  0  0
 24 23  1  0  0  0  0
 25 23  1  0  0  0  0
 25 27  1  0  0  0  0
 26 25  1  0  0  0  0
 27 20  2  0  0  0  0
M  END
>  <minimizedAffinity>
-5.05837727

$$$$

 OpenBabel03242519593D

 27 29  0  0  0  0  0  0  0  0999 V2000
   38.2810   27.1300   39.2500 Br  0  0  0  0  0  0  0  0  0  0  0  0
   37.9110   27.7140   41.0280 C   0  0  0  0  0  0  0  0  0  0  0  0
   37.8260   29.0510   41.3660 C   0  0  0  0  0  0  0  0  0  0  0  0
   37.5520   29.3800   42.6860 C   0  0  0  0  0  0  0  0  0  0  0  0
   37.3660   28.4170   43.6590 C   0  0  0  0  0  0  0  0  0  0  0  0
   37.4480   27.0800   43.3350 C   0  0  0  0  0  0  0  0  0  0  0  0
   37.7200   26.7690   42.0190 C   0  0  0  0  0  0  0  0  0  0  0  0
   37.4910   30.4430   42.9240 H   0  0  0  0  0  0  0  0  0  0  0  0
   37.1530   28.7280   44.6810 H   0  0  0  0  0  0  0  0  0  0  0  0
   37.3020   26.3200   44.0950 H   0  0  0  0  0  0  0  0  0  0  0  0
   37.1950   31.5020   38.5480 C   0  0  0  0  0  0  0  0  0  0  0  0
   36.9850   30.5620   39.5660 C   0  0  0  0  0  0  0  0  0  0  0  0
   38.0310   30.0300   40.3030 C   0  0  0  0  0  0  0  0  0  0  0  0
   39.2750   30.4800   39.9730 N   0  0  0  0  0  0  0  0  0  0  0  0
   39.4630   31.3870   38.9890 C   0  0  0  0  0  0  0  0  0  0  0  0
   38.4470   31.8910   38.2880 N   0  0  0  0  0  0  0  0  0  0  0  0
   36.3770   31.9170   37.9740 H   0  0  0  0  0  0  0  0  0  0  0  0
   35.9780   30.2580   39.7670 H   0  0  0  0  0  0  0  0  0  0  0  0
   40.5160   31.6180   38.8760 H   0  0  0  0  0  0  0  0  0  0  0  0
   37.8130   25.3490   41.6510 C   0  0  0  0  0  0  0  0  0  0  0  0
   36.8510   24.5760   41.0470 C   0  0  0  0  0  0  0  0  0  0  0  0
   35.8680   24.9290   40.7560 H   0  0  0  0  0  0  0  0  0  0  0  0
   37.3400   23.2880   40.8750 C   0  0  0  0  0  0  0  0  0  0  0  0
   36.7420   22.5140   40.4150 H   0  0  0  0  0  0  0  0  0  0  0  0
   38.6030   23.3080   41.3820 N   0  0  0  0  0  0  0  0  0  0  0  0
   39.1800   22.4410   41.3640 H   0  0  0  0  0  0  0  0  0  0  0  0
   38.8590   24.5260   41.8320 N   0  0  0  0  0  0  0  0  0  0  0  0
  1  2  1  0  0  0  0
  2  3  2  0  0  0  0
  2  7  1  0  0  0  0
  3  4  1  0  0  0  0
  4  8  1  0  0  0  0
  4  5  2  0  0  0  0
  5  9  1  0  0  0  0
  6  5  1  0  0  0  0
  6 10  1  0  0  0  0
  7  6  2  0  0  0  0
 11 12  1  0  0  0  0
 12 18  1  0  0  0  0
 12 13  2  0  0  0  0
 13  3  1  0  0  0  0
 14 13  1  0  0  0  0
 15 14  2  0  0  0  0
 16 11  2  0  0  0  0
 16 15  1  0  0  0  0
 17 11  1  0  0  0  0
 19 15  1  0  0  0  0
 20 27  2  0  0  0  0
 20  7  1  0  0  0  0
 21 20  1  0  0  0  0
 22 21  1  0  0  0  0
 23 21  2  0  0  0  0
 23 25  1  0  0  0  0
 24 23  1  0  0  0  0
 25 27  1  0  0  0  0
 26 25  1  0  0  0  0
M  END
>  <minimizedAffinity>
-4.89820766

$$$$

 OpenBabel03242519593D

 27 29  0  0  0  0  0  0  0  0999 V2000
   39.2100   28.3980   38.5510 Br  0  0  0  0  0  0  0  0  0  0  0  0
   37.9150   29.3660   39.5640 C   0  0  0  0  0  0  0  0  0  0  0  0
   36.9940   28.7380   40.3800 C   0  0  0  0  0  0  0  0  0  0  0  0
   36.0900   29.5250   41.0800 C   0  0  0  0  0  0  0  0  0  0  0  0
   36.0870   30.9040   40.9810 C   0  0  0  0  0  0  0  0  0  0  0  0
   37.0000   31.5420   40.1710 C   0  0  0  0  0  0  0  0  0  0  0  0
   37.8920   30.7460   39.4820 C   0  0  0  0  0  0  0  0  0  0  0  0
   35.3750   29.0030   41.7170 H   0  0  0  0  0  0  0  0  0  0  0  0
   35.3560   31.4760   41.5520 H   0  0  0  0  0  0  0  0  0  0  0  0
   37.0020   32.6230   40.0900 H   0  0  0  0  0  0  0  0  0  0  0  0
   37.7340   25.2010   41.5160 C   0  0  0  0  0  0  0  0  0  0  0  0
   37.7000   26.6010   41.4610 C   0  0  0  0  0  0  0  0  0  0  0  0
   37.0370   27.2810   40.4510 C   0  0  0  0  0  0  0  0  0  0  0  0
   36.4220   26.4990   39.5190 N   0  0  0  0  0  0  0  0  0  0  0  0
   36.4620   25.1510   39.5850 C   0  0  0  0  0  0  0  0  0  0  0  0
   37.1040   24.5090   40.5630 N   0  0  0  0  0  0  0  0  0  0  0  0
   38.2520   24.6720   42.3060 H   0  0  0  0  0  0  0  0  0  0  0  0
   38.2080   27.1450   42.2300 H   0  0  0  0  0  0  0  0  0  0  0  0
   35.9170   24.7090   38.7580 H   0  0  0  0  0  0  0  0  0  0  0  0
   38.8750   31.4060   38.6110 C   0  0  0  0  0  0  0  0  0  0  0  0
   40.1300   31.8490   38.9500 C   0  0  0  0  0  0  0  0  0  0  0  0
   40.5690   31.7650   39.9380 H   0  0  0  0  0  0  0  0  0  0  0  0
   40.7330   32.4130   37.8340 C   0  0  0  0  0  0  0  0  0  0  0  0
   41.7300   32.8270   37.8800 H   0  0  0  0  0  0  0  0  0  0  0  0
   39.8210   32.2980   36.8300 N   0  0  0  0  0  0  0  0  0  0  0  0
   40.0510   32.6570   35.8810 H   0  0  0  0  0  0  0  0  0  0  0  0
   38.7390   31.7040   37.3090 N   0  0  0  0  0  0  0  0  0  0  0  0
  1  2  1  0  0  0  0
  2  3  1  0  0  0  0
  3 13  1  0  0  0  0
  3  4  2  0  0  0  0
  4  8  1  0  0  0  0
  5  4  1  0  0  0  0
  5  9  1  0  0  0  0
  6  5  2  0  0  0  0
  7  2  2  0  0  0  0
  7  6  1  0  0  0  0
 10  6  1  0  0  0  0
 11 17  1  0  0  0  0
 12 11  1  0  0  0  0
 12 18  1  0  0  0  0
 13 12  2  0  0  0  0
 14 15  2  0  0  0  0
 14 13  1  0  0  0  0
 15 16  1  0  0  0  0
 16 11  2  0  0  0  0
 19 15  1  0  0  0  0
 20 21  1  0  0  0  0
 20  7  1  0  0  0  0
 21 22  1  0  0  0  0
 23 24  1  0  0  0  0
 23 21  2  0  0  0  0
 25 27  1  0  0  0  0
 25 23  1  0  0  0  0
 26 25  1  0  0  0  0
 27 20  2  0  0  0  0
M  END
>  <minimizedAffinity>
-4.82017756

$$$$

 OpenBabel03242519593D

 27 29  0  0  0  0  0  0  0  0999 V2000
   38.1850   27.1260   39.2010 Br  0  0  0  0  0  0  0  0  0  0  0  0
   37.8610   27.6930   40.9930 C   0  0  0  0  0  0  0  0  0  0  0  0
   37.7860   29.0270   41.3450 C   0  0  0  0  0  0  0  0  0  0  0  0
   37.5460   29.3440   42.6750 C   0  0  0  0  0  0  0  0  0  0  0  0
   37.3820   28.3720   43.6440 C   0  0  0  0  0  0  0  0  0  0  0  0
   37.4540   27.0380   43.3050 C   0  0  0  0  0  0  0  0  0  0  0  0
   37.6930   26.7390   41.9800 C   0  0  0  0  0  0  0  0  0  0  0  0
   37.4920   30.4040   42.9250 H   0  0  0  0  0  0  0  0  0  0  0  0
   37.1960   28.6730   44.6730 H   0  0  0  0  0  0  0  0  0  0  0  0
   37.3260   26.2710   44.0610 H   0  0  0  0  0  0  0  0  0  0  0  0
   39.3520   31.5400   38.9840 C   0  0  0  0  0  0  0  0  0  0  0  0
   39.1940   30.5910   40.0030 C   0  0  0  0  0  0  0  0  0  0  0  0
   37.9660   30.0160   40.2870 C   0  0  0  0  0  0  0  0  0  0  0  0
   36.9240   30.4340   39.5130 N   0  0  0  0  0  0  0  0  0  0  0  0
   37.0910   31.3490   38.5340 C   0  0  0  0  0  0  0  0  0  0  0  0
   38.2800   31.8950   38.2700 N   0  0  0  0  0  0  0  0  0  0  0  0
   40.3120   31.9880   38.7630 H   0  0  0  0  0  0  0  0  0  0  0  0
   40.0600   30.3140   40.5680 H   0  0  0  0  0  0  0  0  0  0  0  0
   36.1520   31.5510   38.0320 H   0  0  0  0  0  0  0  0  0  0  0  0
   37.7740   25.3220   41.5960 C   0  0  0  0  0  0  0  0  0  0  0  0
   36.7960   24.5560   41.0100 C   0  0  0  0  0  0  0  0  0  0  0  0
   35.8060   24.9120   40.7480 H   0  0  0  0  0  0  0  0  0  0  0  0
   37.2790   23.2700   40.8130 C   0  0  0  0  0  0  0  0  0  0  0  0
   36.6690   22.5000   40.3620 H   0  0  0  0  0  0  0  0  0  0  0  0
   38.5550   23.2840   41.2870 N   0  0  0  0  0  0  0  0  0  0  0  0
   39.1300   22.4160   41.2460 H   0  0  0  0  0  0  0  0  0  0  0  0
   38.8240   24.4970   41.7420 N   0  0  0  0  0  0  0  0  0  0  0  0
  1  2  1  0  0  0  0
  2  3  2  0  0  0  0
  2  7  1  0  0  0  0
  3  4  1  0  0  0  0
  4  8  1  0  0  0  0
  4  5  2  0  0  0  0
  5  9  1  0  0  0  0
  6  5  1  0  0  0  0
  6 10  1  0  0  0  0
  7  6  2  0  0  0  0
 11 12  1  0  0  0  0
 12 13  2  0  0  0  0
 12 18  1  0  0  0  0
 13  3  1  0  0  0  0
 14 13  1  0  0  0  0
 15 14  2  0  0  0  0
 16 15  1  0  0  0  0
 16 11  2  0  0  0  0
 17 11  1  0  0  0  0
 19 15  1  0  0  0  0
 20 27  2  0  0  0  0
 20  7  1  0  0  0  0
 21 20  1  0  0  0  0
 22 21  1  0  0  0  0
 23 21  2  0  0  0  0
 23 25  1  0  0  0  0
 24 23  1  0  0  0  0
 25 27  1  0  0  0  0
 26 25  1  0  0  0  0
M  END
>  <minimizedAffinity>
-4.81731606

$$$$

 OpenBabel03242519593D

 27 29  0  0  0  0  0  0  0  0999 V2000
   38.3970   28.8240   41.0360 Br  0  0  0  0  0  0  0  0  0  0  0  0
   37.0500   28.3020   39.7900 C   0  0  0  0  0  0  0  0  0  0  0  0
   36.7600   26.9770   39.5250 C   0  0  0  0  0  0  0  0  0  0  0  0
   35.7620   26.6940   38.6030 C   0  0  0  0  0  0  0  0  0  0  0  0
   35.0620   27.6900   37.9490 C   0  0  0  0  0  0  0  0  0  0  0  0
   35.3430   29.0150   38.2030 C   0  0  0  0  0  0  0  0  0  0  0  0
   36.3360   29.2800   39.1230 C   0  0  0  0  0  0  0  0  0  0  0  0
   35.5540   25.6400   38.4140 H   0  0  0  0  0  0  0  0  0  0  0  0
   34.2890   27.4140   37.2330 H   0  0  0  0  0  0  0  0  0  0  0  0
   34.7960   29.8000   37.6930 H   0  0  0  0  0  0  0  0  0  0  0  0
   39.4410   24.4680   40.4520 C   0  0  0  0  0  0  0  0  0  0  0  0
   38.7150   25.4430   39.7540 C   0  0  0  0  0  0  0  0  0  0  0  0
   37.5260   25.9620   40.2410 C   0  0  0  0  0  0  0  0  0  0  0  0
   37.1100   25.4630   41.4390 N   0  0  0  0  0  0  0  0  0  0  0  0
   37.8200   24.5230   42.1010 C   0  0  0  0  0  0  0  0  0  0  0  0
   38.9640   24.0320   41.6210 N   0  0  0  0  0  0  0  0  0  0  0  0
   40.3700   24.0640   40.0700 H   0  0  0  0  0  0  0  0  0  0  0  0
   39.1080   25.7850   38.8180 H   0  0  0  0  0  0  0  0  0  0  0  0
   37.3300   24.2540   43.0300 H   0  0  0  0  0  0  0  0  0  0  0  0
   36.6520   30.6870   39.4100 C   0  0  0  0  0  0  0  0  0  0  0  0
   37.2940   31.5850   38.5920 C   0  0  0  0  0  0  0  0  0  0  0  0
   37.6610   31.3610   37.5970 H   0  0  0  0  0  0  0  0  0  0  0  0
   37.3920   32.8070   39.2420 C   0  0  0  0  0  0  0  0  0  0  0  0
   37.8650   33.6590   38.7750 H   0  0  0  0  0  0  0  0  0  0  0  0
   36.8000   32.6230   40.4540 N   0  0  0  0  0  0  0  0  0  0  0  0
   36.7520   33.4140   41.1300 H   0  0  0  0  0  0  0  0  0  0  0  0
   36.3740   31.3720   40.5310 N   0  0  0  0  0  0  0  0  0  0  0  0
  2  1  1  0  0  0  0
  3  2  1  0  0  0  0
  3 13  1  0  0  0  0
  4  3  2  0  0  0  0
  5  6  2  0  0  0  0
  5  4  1  0  0  0  0
  6  7  1  0  0  0  0
  7 20  1  0  0  0  0
  7  2  2  0  0  0  0
  8  4  1  0  0  0  0
  9  5  1  0  0  0  0
 10  6  1  0  0  0  0
 11 16  1  0  0  0  0
 12 13  1  0  0  0  0
 12 11  2  0  0  0  0
 13 14  2  0  0  0  0
 14 15  1  0  0  0  0
 15 19  1  0  0  0  0
 16 15  2  0  0  0  0
 17 11  1  0  0  0  0
 18 12  1  0  0  0  0
 20 27  2  0  0  0  0
 21 23  2  0  0  0  0
 21 20  1  0  0  0  0
 22 21  1  0  0  0  0
 23 25  1  0  0  0  0
 24 23  1  0  0  0  0
 25 27  1  0  0  0  0
 25 26  1  0  0  0  0
M  END
>  <minimizedAffinity>
-4.76264858

$$$$

 OpenBabel03242519593D

 27 29  0  0  0  0  0  0  0  0999 V2000
   38.5200   29.8210   39.7730 Br  0  0  0  0  0  0  0  0  0  0  0  0
   37.8400   28.9200   41.3100 C   0  0  0  0  0  0  0  0  0  0  0  0
   36.6840   28.1630   41.2730 C   0  0  0  0  0  0  0  0  0  0  0  0
   36.2660   27.5430   42.4430 C   0  0  0  0  0  0  0  0  0  0  0  0
   36.9660   27.6630   43.6280 C   0  0  0  0  0  0  0  0  0  0  0  0
   38.1200   28.4150   43.6780 C   0  0  0  0  0  0  0  0  0  0  0  0
   38.5220   29.0240   42.5080 C   0  0  0  0  0  0  0  0  0  0  0  0
   35.3510   26.9520   42.3850 H   0  0  0  0  0  0  0  0  0  0  0  0
   36.5950   27.1570   44.5180 H   0  0  0  0  0  0  0  0  0  0  0  0
   38.6730   28.5120   44.6060 H   0  0  0  0  0  0  0  0  0  0  0  0
   35.5640   26.9910   37.8510 C   0  0  0  0  0  0  0  0  0  0  0  0
   36.2470   27.0710   39.0720 C   0  0  0  0  0  0  0  0  0  0  0  0
   35.9800   28.0660   39.9990 C   0  0  0  0  0  0  0  0  0  0  0  0
   35.0120   28.9590   39.6450 N   0  0  0  0  0  0  0  0  0  0  0  0
   34.3610   28.8680   38.4650 C   0  0  0  0  0  0  0  0  0  0  0  0
   34.6280   27.9050   37.5820 N   0  0  0  0  0  0  0  0  0  0  0  0
   35.7730   26.2130   37.1280 H   0  0  0  0  0  0  0  0  0  0  0  0
   36.9950   26.3330   39.2770 H   0  0  0  0  0  0  0  0  0  0  0  0
   33.6310   29.6640   38.3670 H   0  0  0  0  0  0  0  0  0  0  0  0
   39.7510   29.8320   42.5380 C   0  0  0  0  0  0  0  0  0  0  0  0
   41.0440   29.3960   42.3780 C   0  0  0  0  0  0  0  0  0  0  0  0
   41.3310   28.3660   42.2030 H   0  0  0  0  0  0  0  0  0  0  0  0
   41.9070   30.4790   42.4750 C   0  0  0  0  0  0  0  0  0  0  0  0
   42.9760   30.3590   42.3790 H   0  0  0  0  0  0  0  0  0  0  0  0
   41.1100   31.5610   42.6940 N   0  0  0  0  0  0  0  0  0  0  0  0
   41.5390   32.5040   42.8020 H   0  0  0  0  0  0  0  0  0  0  0  0
   39.8500   31.1580   42.7270 N   0  0  0  0  0  0  0  0  0  0  0  0
  1  2  1  0  0  0  0
  2  7  1  0  0  0  0
  3  2  2  0  0  0  0
  3  4  1  0  0  0  0
  4  5  2  0  0  0  0
  5  6  1  0  0  0  0
  5  9  1  0  0  0  0
  6 10  1  0  0  0  0
  7 20  1  0  0  0  0
  7  6  2  0  0  0  0
  8  4  1  0  0  0  0
 11 12  1  0  0  0  0
 12 18  1  0  0  0  0
 12 13  2  0  0  0  0
 13  3  1  0  0  0  0
 14 13  1  0  0  0  0
 15 14  2  0  0  0  0
 16 11  2  0  0  0  0
 16 15  1  0  0  0  0
 17 11  1  0  0  0  0
 19 15  1  0  0  0  0
 20 27  2  0  0  0  0
 21 23  2  0  0  0  0
 21 20  1  0  0  0  0
 22 21  1  0  0  0  0
 23 25  1  0  0  0  0
 24 23  1  0  0  0  0
 25 27  1  0  0  0  0
 25 26  1  0  0  0  0
M  END
>  <minimizedAffinity>
-4.75638866

$$$$

 OpenBabel03242519593D

 27 29  0  0  0  0  0  0  0  0999 V2000
   38.2510   28.2880   39.1750 Br  0  0  0  0  0  0  0  0  0  0  0  0
   37.7350   28.0610   40.9980 C   0  0  0  0  0  0  0  0  0  0  0  0
   37.6680   29.1170   41.8850 C   0  0  0  0  0  0  0  0  0  0  0  0
   37.2820   28.8550   43.1930 C   0  0  0  0  0  0  0  0  0  0  0  0
   36.9670   27.5800   43.6240 C   0  0  0  0  0  0  0  0  0  0  0  0
   37.0300   26.5180   42.7480 C   0  0  0  0  0  0  0  0  0  0  0  0
   37.4150   26.7950   41.4530 C   0  0  0  0  0  0  0  0  0  0  0  0
   37.2380   29.7080   43.8710 H   0  0  0  0  0  0  0  0  0  0  0  0
   36.6700   27.4280   44.6600 H   0  0  0  0  0  0  0  0  0  0  0  0
   36.7840   25.5160   43.0820 H   0  0  0  0  0  0  0  0  0  0  0  0
   37.4360   32.5250   40.2490 C   0  0  0  0  0  0  0  0  0  0  0  0
   37.0950   31.2530   40.7270 C   0  0  0  0  0  0  0  0  0  0  0  0
   38.0090   30.4440   41.3830 C   0  0  0  0  0  0  0  0  0  0  0  0
   39.2590   30.9670   41.5320 N   0  0  0  0  0  0  0  0  0  0  0  0
   39.5750   32.1950   41.0660 C   0  0  0  0  0  0  0  0  0  0  0  0
   38.6840   32.9630   40.4370 N   0  0  0  0  0  0  0  0  0  0  0  0
   36.7200   33.1550   39.7370 H   0  0  0  0  0  0  0  0  0  0  0  0
   36.0920   30.9120   40.5710 H   0  0  0  0  0  0  0  0  0  0  0  0
   40.6110   32.4330   41.2790 H   0  0  0  0  0  0  0  0  0  0  0  0
   37.4890   25.6760   40.5020 C   0  0  0  0  0  0  0  0  0  0  0  0
   36.4800   25.1780   39.7140 C   0  0  0  0  0  0  0  0  0  0  0  0
   35.4660   25.5600   39.6950 H   0  0  0  0  0  0  0  0  0  0  0  0
   36.9680   24.1200   38.9600 C   0  0  0  0  0  0  0  0  0  0  0  0
   36.3360   23.5810   38.2680 H   0  0  0  0  0  0  0  0  0  0  0  0
   38.2780   23.9980   39.3080 N   0  0  0  0  0  0  0  0  0  0  0  0
   38.8630   23.2590   38.8660 H   0  0  0  0  0  0  0  0  0  0  0  0
   38.5610   24.9210   40.2140 N   0  0  0  0  0  0  0  0  0  0  0  0
  1  2  1  0  0  0  0
  2  7  2  0  0  0  0
  2  3  1  0  0  0  0
  3  4  2  0  0  0  0
  4  5  1  0  0  0  0
  4  8  1  0  0  0  0
  5  9  1  0  0  0  0
  6 10  1  0  0  0  0
  6  5  2  0  0  0  0
  7  6  1  0  0  0  0
 11 16  2  0  0  0  0
 11 12  1  0  0  0  0
 12 13  2  0  0  0  0
 13 14  1  0  0  0  0
 13  3  1  0  0  0  0
 15 19  1  0  0  0  0
 15 14  2  0  0  0  0
 16 15  1  0  0  0  0
 17 11  1  0  0  0  0
 18 12  1  0  0  0  0
 20  7  1  0  0  0  0
 21 20  1  0  0  0  0
 22 21  1  0  0  0  0
 23 25  1  0  0  0  0
 23 21  2  0  0  0  0
 24 23  1  0  0  0  0
 25 27  1  0  0  0  0
 26 25  1  0  0  0  0
 27 20  2  0  0  0  0
M  END
>  <minimizedAffinity>
-4.73892069

$$$$

 OpenBabel03242519593D

 27 29  0  0  0  0  0  0  0  0999 V2000
   37.2600   27.3290   38.8700 Br  0  0  0  0  0  0  0  0  0  0  0  0
   37.2160   29.2130   39.1670 C   0  0  0  0  0  0  0  0  0  0  0  0
   37.3610   29.7670   40.4250 C   0  0  0  0  0  0  0  0  0  0  0  0
   37.3160   31.1490   40.5430 C   0  0  0  0  0  0  0  0  0  0  0  0
   37.1320   31.9750   39.4500 C   0  0  0  0  0  0  0  0  0  0  0  0
   36.9870   31.4340   38.1910 C   0  0  0  0  0  0  0  0  0  0  0  0
   37.0340   30.0590   38.0890 C   0  0  0  0  0  0  0  0  0  0  0  0
   37.4330   31.5600   41.5470 H   0  0  0  0  0  0  0  0  0  0  0  0
   37.1050   33.0540   39.5970 H   0  0  0  0  0  0  0  0  0  0  0  0
   36.8430   32.0770   37.3300 H   0  0  0  0  0  0  0  0  0  0  0  0
   36.6930   27.3790   43.2870 C   0  0  0  0  0  0  0  0  0  0  0  0
   36.4940   28.2530   42.2100 C   0  0  0  0  0  0  0  0  0  0  0  0
   37.5530   28.8550   41.5470 C   0  0  0  0  0  0  0  0  0  0  0  0
   38.7950   28.5410   42.0120 N   0  0  0  0  0  0  0  0  0  0  0  0
   38.9720   27.6960   43.0510 C   0  0  0  0  0  0  0  0  0  0  0  0
   37.9440   27.1230   43.6800 N   0  0  0  0  0  0  0  0  0  0  0  0
   35.8660   26.9090   43.8040 H   0  0  0  0  0  0  0  0  0  0  0  0
   35.4870   28.4500   41.9040 H   0  0  0  0  0  0  0  0  0  0  0  0
   40.0260   27.5730   43.2710 H   0  0  0  0  0  0  0  0  0  0  0  0
   36.8810   29.4600   36.7560 C   0  0  0  0  0  0  0  0  0  0  0  0
   35.7150   29.2510   36.0600 C   0  0  0  0  0  0  0  0  0  0  0  0
   34.7260   29.5100   36.4210 H   0  0  0  0  0  0  0  0  0  0  0  0
   36.0100   28.6610   34.8390 C   0  0  0  0  0  0  0  0  0  0  0  0
   35.2330   28.4090   34.1310 H   0  0  0  0  0  0  0  0  0  0  0  0
   37.3640   28.5250   34.8180 N   0  0  0  0  0  0  0  0  0  0  0  0
   37.8270   28.1000   33.9880 H   0  0  0  0  0  0  0  0  0  0  0  0
   37.8540   29.0000   35.9520 N   0  0  0  0  0  0  0  0  0  0  0  0
  1  2  1  0  0  0  0
  2  3  1  0  0  0  0
  3  4  2  0  0  0  0
  3 13  1  0  0  0  0
  4  8  1  0  0  0  0
  5  9  1  0  0  0  0
  5  4  1  0  0  0  0
  6  5  2  0  0  0  0
  7  6  1  0  0  0  0
  7  2  2  0  0  0  0
 10  6  1  0  0  0  0
 11 16  1  0  0  0  0
 11 17  1  0  0  0  0
 12 11  2  0  0  0  0
 13 14  2  0  0  0  0
 13 12  1  0  0  0  0
 14 15  1  0  0  0  0
 15 19  1  0  0  0  0
 15 16  2  0  0  0  0
 18 12  1  0  0  0  0
 20  7  1  0  0  0  0
 21 22  1  0  0  0  0
 21 20  1  0  0  0  0
 23 21  2  0  0  0  0
 24 23  1  0  0  0  0
 25 23  1  0  0  0  0
 25 27  1  0  0  0  0
 26 25  1  0  0  0  0
 27 20  2  0  0  0  0
M  END
>  <minimizedAffinity>
-4.70105648

$$$$
