
 OpenBabel03242518543D

 41 43  0  0  1  0  0  0  0  0999 V2000
   45.7670   31.2560   46.6210 C   0  0  2  0  0  0  0  0  0  0  0  0
   45.8370   30.4920   47.9030 C   0  0  0  0  0  0  0  0  0  0  0  0
   45.0450   29.2440   47.7090 C   0  0  0  0  0  0  0  0  0  0  0  0
   44.3520   29.1140   46.4000 C   0  0  0  0  0  0  0  0  0  0  0  0
   45.3450   29.2620   45.2710 C   0  0  0  0  0  0  0  0  0  0  0  0
   46.2620   30.3710   45.4940 C   0  0  2  0  0  0  0  0  0  0  0  0
   44.7000   31.4420   46.3680 H   0  0  0  0  0  0  0  0  0  0  0  0
   45.4330   31.1220   48.7540 H   0  0  0  0  0  0  0  0  0  0  0  0
   46.8880   30.2930   48.2100 H   0  0  0  0  0  0  0  0  0  0  0  0
   44.2240   29.2490   48.4880 H   0  0  0  0  0  0  0  0  0  0  0  0
   45.5910   28.2980   47.9450 H   0  0  0  0  0  0  0  0  0  0  0  0
   43.9010   28.1050   46.3700 H   0  0  0  0  0  0  0  0  0  0  0  0
   43.4790   29.8080   46.2970 H   0  0  0  0  0  0  0  0  0  0  0  0
   45.7970   28.2400   45.1580 H   0  0  0  0  0  0  0  0  0  0  0  0
   44.7520   29.4240   44.3330 H   0  0  0  0  0  0  0  0  0  0  0  0
   46.4470   31.0410   44.6290 H   0  0  0  0  0  0  0  0  0  0  0  0
   47.5560   29.7350   45.8590 C   0  0  0  0  0  0  0  0  0  0  0  0
   47.5010   28.6420   46.0090 H   0  0  0  0  0  0  0  0  0  0  0  0
   47.9370   30.1520   46.8160 H   0  0  0  0  0  0  0  0  0  0  0  0
   48.5370   29.9370   44.7620 C   0  0  0  0  0  0  0  0  0  0  0  0
   49.7470   29.4290   44.3370 C   0  0  0  0  0  0  0  0  0  0  0  0
   50.1900   28.6450   44.9180 H   0  0  0  0  0  0  0  0  0  0  0  0
   50.1480   30.0740   43.1860 C   0  0  0  0  0  0  0  0  0  0  0  0
   51.0790   29.8060   42.7050 H   0  0  0  0  0  0  0  0  0  0  0  0
   49.1810   30.9700   42.9170 N   0  0  0  0  0  0  0  0  0  0  0  0
   49.2430   31.5960   42.0840 H   0  0  0  0  0  0  0  0  0  0  0  0
   48.2380   30.8940   43.8360 N   0  0  0  0  0  0  0  0  0  0  0  0
   46.4590   32.5690   46.6560 C   0  0  0  0  0  0  0  0  0  0  0  0
   47.3900   32.8340   47.4470 O   0  0  0  0  0  0  0  0  0  0  0  0
   44.5970   35.3440   45.1730 C   0  0  0  0  0  0  0  0  0  0  0  0
   45.1220   35.4620   43.8590 C   0  0  0  0  0  0  0  0  0  0  0  0
   46.1280   34.5650   43.5200 C   0  0  0  0  0  0  0  0  0  0  0  0
   46.4790   33.7010   44.4750 N   0  0  0  0  0  0  0  0  0  0  0  0
   45.9930   33.5870   45.6950 C   0  0  0  0  0  0  0  0  0  0  0  0
   45.0190   34.4430   46.0500 N   0  0  0  0  0  0  0  0  0  0  0  0
   43.8020   36.0660   45.4160 H   0  0  0  0  0  0  0  0  0  0  0  0
   44.7450   36.2130   43.1810 H   0  0  0  0  0  0  0  0  0  0  0  0
   46.6710   34.6720   42.1750 C   0  0  0  0  0  0  0  0  0  0  0  0
   47.3670   33.5140   41.8600 F   0  0  0  0  0  0  0  0  0  0  0  0
   47.5330   35.7210   42.1800 F   0  0  0  0  0  0  0  0  0  0  0  0
   45.6740   34.7880   41.2140 F   0  0  0  0  0  0  0  0  0  0  0  0
  1  7  1  6  0  0  0
  1 28  1  0  0  0  0
  1  2  1  0  0  0  0
  2  9  1  0  0  0  0
  2  8  1  0  0  0  0
  3  2  1  0  0  0  0
  3 11  1  0  0  0  0
  3 10  1  0  0  0  0
  4  3  1  0  0  0  0
  5  6  1  0  0  0  0
  5  4  1  0  0  0  0
  6 16  1  6  0  0  0
  6 17  1  0  0  0  0
  6  1  1  0  0  0  0
 12  4  1  0  0  0  0
 13  4  1  0  0  0  0
 14  5  1  0  0  0  0
 15  5  1  0  0  0  0
 17 18  1  0  0  0  0
 17 19  1  0  0  0  0
 20 17  1  0  0  0  0
 21 20  1  0  0  0  0
 21 22  1  0  0  0  0
 23 21  2  0  0  0  0
 24 23  1  0  0  0  0
 25 23  1  0  0  0  0
 25 27  1  0  0  0  0
 26 25  1  0  0  0  0
 27 20  2  0  0  0  0
 28 29  2  0  0  0  0
 30 36  1  0  0  0  0
 30 35  1  0  0  0  0
 31 30  2  0  0  0  0
 32 31  1  0  0  0  0
 32 33  2  0  0  0  0
 33 34  1  0  0  0  0
 34 35  2  0  0  0  0
 34 28  1  0  0  0  0
 37 31  1  0  0  0  0
 38 40  1  0  0  0  0
 38 32  1  0  0  0  0
 39 38  1  0  0  0  0
 41 38  1  0  0  0  0
M  END
>  <minimizedAffinity>
-5.25747585

>  <minimizedRMSD>
1.08380425

$$$$
