
 OpenBabel03252508203D

 33 35  0  0  0  0  0  0  0  0999 V2000
   46.2550   30.3650   38.1780 C   0  0  0  0  0  0  0  0  0  0  0  0
   45.9170   29.0330   37.9550 C   0  0  0  0  0  0  0  0  0  0  0  0
   46.2750   28.2770   36.8430 C   0  0  0  0  0  0  0  0  0  0  0  0
   47.0360   28.9540   35.9060 C   0  0  0  0  0  0  0  0  0  0  0  0
   47.3820   30.2660   36.1040 C   0  0  0  0  0  0  0  0  0  0  0  0
   47.0170   31.0050   37.2170 C   0  0  0  0  0  0  0  0  0  0  0  0
   45.3170   28.5780   38.7430 H   0  0  0  0  0  0  0  0  0  0  0  0
   45.9310   27.2640   36.8290 H   0  0  0  0  0  0  0  0  0  0  0  0
   47.3180   28.3760   35.0420 H   0  0  0  0  0  0  0  0  0  0  0  0
   47.9760   30.6390   35.2750 H   0  0  0  0  0  0  0  0  0  0  0  0
   47.4970   32.3760   37.2070 C   0  0  0  0  0  0  0  0  0  0  0  0
   48.6930   32.9840   37.4740 C   0  0  0  0  0  0  0  0  0  0  0  0
   49.5960   32.4970   37.7830 H   0  0  0  0  0  0  0  0  0  0  0  0
   48.6730   34.3250   37.3010 C   0  0  0  0  0  0  0  0  0  0  0  0
   49.4460   35.0550   37.4330 H   0  0  0  0  0  0  0  0  0  0  0  0
   47.4150   34.5580   36.9110 N   0  0  0  0  0  0  0  0  0  0  0  0
   46.9350   35.4660   36.6600 H   0  0  0  0  0  0  0  0  0  0  0  0
   46.7590   33.4240   36.8640 N   0  0  0  0  0  0  0  0  0  0  0  0
   45.8350   31.1150   39.3560 C   0  0  0  0  0  0  0  0  0  0  0  0
   44.9000   30.6370   39.7230 H   0  0  0  0  0  0  0  0  0  0  0  0
   45.7020   32.1920   39.1750 H   0  0  0  0  0  0  0  0  0  0  0  0
   46.8100   30.9080   40.5340 C   0  0  0  0  0  0  0  0  0  0  0  0
   46.1700   30.6670   41.3910 H   0  0  0  0  0  0  0  0  0  0  0  0
   47.5390   30.1380   40.2880 H   0  0  0  0  0  0  0  0  0  0  0  0
   47.4040   34.6210   40.9260 C   0  0  0  0  0  0  0  0  0  0  0  0
   46.7320   33.3970   40.6460 C   0  0  0  0  0  0  0  0  0  0  0  0
   47.4530   32.2250   40.8060 C   0  0  0  0  0  0  0  0  0  0  0  0
   48.7580   32.3430   41.2230 N   0  0  0  0  0  0  0  0  0  0  0  0
   49.3580   33.4960   41.4770 C   0  0  0  0  0  0  0  0  0  0  0  0
   48.6880   34.6430   41.3310 N   0  0  0  0  0  0  0  0  0  0  0  0
   46.8160   35.5220   40.7930 H   0  0  0  0  0  0  0  0  0  0  0  0
   45.7020   33.4020   40.3230 H   0  0  0  0  0  0  0  0  0  0  0  0
   50.3860   33.5440   41.8010 H   0  0  0  0  0  0  0  0  0  0  0  0
  1 19  1  0  0  0  0
  2  1  1  0  0  0  0
  2  7  1  0  0  0  0
  3  2  2  0  0  0  0
  4  5  2  0  0  0  0
  4  3  1  0  0  0  0
  5  6  1  0  0  0  0
  6  1  2  0  0  0  0
  8  3  1  0  0  0  0
  9  4  1  0  0  0  0
 10  5  1  0  0  0  0
 11  6  1  0  0  0  0
 11 12  1  0  0  0  0
 12 13  1  0  0  0  0
 14 15  1  0  0  0  0
 14 12  2  0  0  0  0
 16 14  1  0  0  0  0
 17 16  1  0  0  0  0
 18 16  1  0  0  0  0
 18 11  2  0  0  0  0
 19 20  1  0  0  0  0
 19 22  1  0  0  0  0
 21 19  1  0  0  0  0
 22 27  1  0  0  0  0
 22 23  1  0  0  0  0
 24 22  1  0  0  0  0
 25 30  1  0  0  0  0
 26 27  1  0  0  0  0
 26 25  2  0  0  0  0
 27 28  2  0  0  0  0
 28 29  1  0  0  0  0
 29 33  1  0  0  0  0
 30 29  2  0  0  0  0
 31 25  1  0  0  0  0
 32 26  1  0  0  0  0
M  END
>  <minimizedAffinity>
-3.05512094

>  <minimizedRMSD>
7.12333012

$$$$
