
 OpenBabel03252507223D

 46 49  0  0  1  0  0  0  0  0999 V2000
   47.3310   33.7160   42.8380 C   0  0  0  0  0  0  0  0  0  0  0  0
   48.4530   33.5370   43.4300 O   0  0  0  0  0  0  0  0  0  0  0  0
   47.0350   33.1920   41.5490 N   0  0  0  0  0  0  0  0  0  0  0  0
   45.8240   32.5250   41.0530 C   0  0  0  0  0  0  0  0  0  0  0  0
   45.3710   33.1940   39.7640 C   0  0  0  0  0  0  0  0  0  0  0  0
   46.4100   33.0680   38.6910 C   0  0  0  0  0  0  0  0  0  0  0  0
   47.7060   32.5720   39.3060 C   0  0  0  0  0  0  0  0  0  0  0  0
   48.0540   33.3130   40.5450 C   0  0  2  0  0  0  0  0  0  0  0  0
   45.9750   31.4470   40.9300 H   0  0  0  0  0  0  0  0  0  0  0  0
   45.0090   32.7360   41.7990 H   0  0  0  0  0  0  0  0  0  0  0  0
   45.1130   34.2410   40.0230 H   0  0  0  0  0  0  0  0  0  0  0  0
   44.4460   32.6430   39.4530 H   0  0  0  0  0  0  0  0  0  0  0  0
   46.1270   32.4370   37.8440 H   0  0  0  0  0  0  0  0  0  0  0  0
   46.5720   34.1030   38.2700 H   0  0  0  0  0  0  0  0  0  0  0  0
   48.5350   32.6340   38.5780 H   0  0  0  0  0  0  0  0  0  0  0  0
   47.5550   31.4770   39.4790 H   0  0  0  0  0  0  0  0  0  0  0  0
   48.0980   34.3960   40.2770 H   0  0  0  0  0  0  0  0  0  0  0  0
   45.9390   35.7250   42.9590 C   0  0  0  0  0  0  0  0  0  0  0  0
   46.3230   34.4920   43.5250 C   0  0  0  0  0  0  0  0  0  0  0  0
   45.7450   34.0500   44.7020 C   0  0  0  0  0  0  0  0  0  0  0  0
   44.8110   34.8430   45.2730 N   0  0  0  0  0  0  0  0  0  0  0  0
   44.4250   36.0390   44.7440 C   0  0  0  0  0  0  0  0  0  0  0  0
   45.0020   36.4570   43.5890 N   0  0  0  0  0  0  0  0  0  0  0  0
   46.3960   36.0590   42.0410 H   0  0  0  0  0  0  0  0  0  0  0  0
   43.6870   36.6580   45.2010 H   0  0  0  0  0  0  0  0  0  0  0  0
   46.1600   32.7870   45.2530 C   0  0  0  0  0  0  0  0  0  0  0  0
   45.8040   31.6220   44.6610 C   0  0  0  0  0  0  0  0  0  0  0  0
   46.2190   30.4280   45.2160 C   0  0  0  0  0  0  0  0  0  0  0  0
   46.9970   30.3650   46.3710 C   0  0  0  0  0  0  0  0  0  0  0  0
   47.3370   31.5960   46.9420 C   0  0  0  0  0  0  0  0  0  0  0  0
   46.9150   32.7240   46.3740 N   0  0  0  0  0  0  0  0  0  0  0  0
   45.2050   31.5450   43.7640 H   0  0  0  0  0  0  0  0  0  0  0  0
   45.9700   29.4530   44.7940 H   0  0  0  0  0  0  0  0  0  0  0  0
   47.3530   29.4900   46.8560 H   0  0  0  0  0  0  0  0  0  0  0  0
   47.9380   31.7340   47.8450 H   0  0  0  0  0  0  0  0  0  0  0  0
   49.4330   32.9530   41.0050 C   0  0  0  0  0  0  0  0  0  0  0  0
   49.7850   33.4390   41.9130 H   0  0  0  0  0  0  0  0  0  0  0  0
   50.0940   33.3910   40.2060 H   0  0  0  0  0  0  0  0  0  0  0  0
   49.7070   31.4920   40.9490 C   0  0  0  0  0  0  0  0  0  0  0  0
   50.7430   31.0460   40.1510 C   0  0  0  0  0  0  0  0  0  0  0  0
   51.4740   31.5290   39.4930 H   0  0  0  0  0  0  0  0  0  0  0  0
   50.7680   29.6560   40.2910 C   0  0  0  0  0  0  0  0  0  0  0  0
   51.4230   28.9140   39.8390 H   0  0  0  0  0  0  0  0  0  0  0  0
   49.7680   29.3120   41.1540 N   0  0  0  0  0  0  0  0  0  0  0  0
   49.5490   28.3300   41.4480 H   0  0  0  0  0  0  0  0  0  0  0  0
   49.1540   30.4340   41.5260 N   0  0  0  0  0  0  0  0  0  0  0  0
  1  2  2  0  0  0  0
  1 19  1  0  0  0  0
  3  1  1  0  0  0  0
  4  3  1  0  0  0  0
  4 10  1  0  0  0  0
  5 11  1  0  0  0  0
  5  4  1  0  0  0  0
  6  7  1  0  0  0  0
  6  5  1  0  0  0  0
  7 16  1  0  0  0  0
  7  8  1  0  0  0  0
  8 17  1  6  0  0  0
  8 36  1  0  0  0  0
  8  3  1  0  0  0  0
  9  4  1  0  0  0  0
 12  5  1  0  0  0  0
 13  6  1  0  0  0  0
 14  6  1  0  0  0  0
 15  7  1  0  0  0  0
 18 19  2  0  0  0  0
 18 23  1  0  0  0  0
 19 20  1  0  0  0  0
 20 26  1  0  0  0  0
 20 21  2  0  0  0  0
 22 25  1  0  0  0  0
 22 21  1  0  0  0  0
 23 22  2  0  0  0  0
 24 18  1  0  0  0  0
 26 31  1  0  0  0  0
 27 28  1  0  0  0  0
 27 26  2  0  0  0  0
 28 29  2  0  0  0  0
 29 34  1  0  0  0  0
 29 30  1  0  0  0  0
 30 35  1  0  0  0  0
 31 30  2  0  0  0  0
 32 27  1  0  0  0  0
 33 28  1  0  0  0  0
 36 37  1  0  0  0  0
 38 36  1  0  0  0  0
 39 36  1  0  0  0  0
 39 46  2  0  0  0  0
 40 42  2  0  0  0  0
 40 39  1  0  0  0  0
 41 40  1  0  0  0  0
 42 44  1  0  0  0  0
 43 42  1  0  0  0  0
 44 45  1  0  0  0  0
 44 46  1  0  0  0  0
M  END
>  <minimizedAffinity>
-4.86713505

>  <minimizedRMSD>
0.568599641

$$$$
