
 OpenBabel03252507233D

 46 49  0  0  1  0  0  0  0  0999 V2000
   39.0080   29.2570   40.3820 C   0  0  0  0  0  0  0  0  0  0  0  0
   39.5810   28.7610   39.3500 O   0  0  0  0  0  0  0  0  0  0  0  0
   38.5440   28.4710   41.4720 N   0  0  0  0  0  0  0  0  0  0  0  0
   38.6670   28.6910   42.9200 C   0  0  0  0  0  0  0  0  0  0  0  0
   37.2970   28.5610   43.5680 C   0  0  0  0  0  0  0  0  0  0  0  0
   36.7350   27.1850   43.3820 C   0  0  0  0  0  0  0  0  0  0  0  0
   37.5690   26.4380   42.3580 C   0  0  0  0  0  0  0  0  0  0  0  0
   37.8390   27.2610   41.1510 C   0  0  2  0  0  0  0  0  0  0  0  0
   39.4050   28.0200   43.3710 H   0  0  0  0  0  0  0  0  0  0  0  0
   38.9610   29.7670   43.0590 H   0  0  0  0  0  0  0  0  0  0  0  0
   36.6660   29.3690   43.1440 H   0  0  0  0  0  0  0  0  0  0  0  0
   37.4670   28.7490   44.6590 H   0  0  0  0  0  0  0  0  0  0  0  0
   36.6420   26.5940   44.2970 H   0  0  0  0  0  0  0  0  0  0  0  0
   35.6860   27.3120   42.9830 H   0  0  0  0  0  0  0  0  0  0  0  0
   37.0820   25.4880   42.0700 H   0  0  0  0  0  0  0  0  0  0  0  0
   38.5010   26.1320   42.8960 H   0  0  0  0  0  0  0  0  0  0  0  0
   36.8500   27.5780   40.7430 H   0  0  0  0  0  0  0  0  0  0  0  0
   39.9040   31.4750   40.8970 C   0  0  0  0  0  0  0  0  0  0  0  0
   38.8290   30.6920   40.4290 C   0  0  0  0  0  0  0  0  0  0  0  0
   37.6460   31.2890   40.0300 C   0  0  0  0  0  0  0  0  0  0  0  0
   37.5710   32.6360   40.1100 N   0  0  0  0  0  0  0  0  0  0  0  0
   38.5970   33.4140   40.5590 C   0  0  0  0  0  0  0  0  0  0  0  0
   39.7500   32.8110   40.9470 N   0  0  0  0  0  0  0  0  0  0  0  0
   40.8210   31.0000   41.2050 H   0  0  0  0  0  0  0  0  0  0  0  0
   38.5290   34.4760   40.6180 H   0  0  0  0  0  0  0  0  0  0  0  0
   36.5690   30.4590   39.5590 C   0  0  0  0  0  0  0  0  0  0  0  0
   35.6310   29.9890   40.4140 C   0  0  0  0  0  0  0  0  0  0  0  0
   34.6110   29.1950   39.9290 C   0  0  0  0  0  0  0  0  0  0  0  0
   34.5010   28.8500   38.5830 C   0  0  0  0  0  0  0  0  0  0  0  0
   35.4960   29.3620   37.7420 C   0  0  0  0  0  0  0  0  0  0  0  0
   36.4610   30.1230   38.2520 N   0  0  0  0  0  0  0  0  0  0  0  0
   35.6110   30.1880   41.4770 H   0  0  0  0  0  0  0  0  0  0  0  0
   33.8220   28.7820   40.5600 H   0  0  0  0  0  0  0  0  0  0  0  0
   33.7490   28.2480   38.1360 H   0  0  0  0  0  0  0  0  0  0  0  0
   35.5650   29.1930   36.6650 H   0  0  0  0  0  0  0  0  0  0  0  0
   38.4740   26.4320   40.0780 C   0  0  0  0  0  0  0  0  0  0  0  0
   39.0550   25.5730   40.4090 H   0  0  0  0  0  0  0  0  0  0  0  0
   39.2560   27.1200   39.6490 H   0  0  0  0  0  0  0  0  0  0  0  0
   37.5630   26.1510   38.9360 C   0  0  0  0  0  0  0  0  0  0  0  0
   36.3610   25.5210   39.1900 C   0  0  0  0  0  0  0  0  0  0  0  0
   35.8630   25.1420   40.0910 H   0  0  0  0  0  0  0  0  0  0  0  0
   35.7250   25.3900   37.9540 C   0  0  0  0  0  0  0  0  0  0  0  0
   34.7620   24.9530   37.7010 H   0  0  0  0  0  0  0  0  0  0  0  0
   36.5450   25.9340   37.0090 N   0  0  0  0  0  0  0  0  0  0  0  0
   36.3250   25.9780   35.9860 H   0  0  0  0  0  0  0  0  0  0  0  0
   37.6360   26.3800   37.6320 N   0  0  0  0  0  0  0  0  0  0  0  0
  1 19  1  0  0  0  0
  1  3  1  0  0  0  0
  2  1  2  0  0  0  0
  3  4  1  0  0  0  0
  4 10  1  0  0  0  0
  4  9  1  0  0  0  0
  4  5  1  0  0  0  0
  5 12  1  0  0  0  0
  6  5  1  0  0  0  0
  6 13  1  0  0  0  0
  7 16  1  0  0  0  0
  7  6  1  0  0  0  0
  8 17  1  6  0  0  0
  8  3  1  0  0  0  0
  8  7  1  0  0  0  0
 11  5  1  0  0  0  0
 14  6  1  0  0  0  0
 15  7  1  0  0  0  0
 18 23  1  0  0  0  0
 18 24  1  0  0  0  0
 19 18  2  0  0  0  0
 20 21  2  0  0  0  0
 20 19  1  0  0  0  0
 21 22  1  0  0  0  0
 22 25  1  0  0  0  0
 22 23  2  0  0  0  0
 26 20  1  0  0  0  0
 26 27  1  0  0  0  0
 27 32  1  0  0  0  0
 28 27  2  0  0  0  0
 28 33  1  0  0  0  0
 29 28  1  0  0  0  0
 30 31  1  0  0  0  0
 30 29  2  0  0  0  0
 31 26  2  0  0  0  0
 34 29  1  0  0  0  0
 35 30  1  0  0  0  0
 36 37  1  0  0  0  0
 36  8  1  0  0  0  0
 38 36  1  0  0  0  0
 39 40  1  0  0  0  0
 39 36  1  0  0  0  0
 40 41  1  0  0  0  0
 42 40  2  0  0  0  0
 43 42  1  0  0  0  0
 44 46  1  0  0  0  0
 44 42  1  0  0  0  0
 45 44  1  0  0  0  0
 46 39  2  0  0  0  0
M  END
>  <minimizedAffinity>
-5.84497213

$$$$

 OpenBabel03252507233D

 46 49  0  0  1  0  0  0  0  0999 V2000
   39.1420   28.0360   41.6670 C   0  0  0  0  0  0  0  0  0  0  0  0
   39.0710   28.8090   42.6860 O   0  0  0  0  0  0  0  0  0  0  0  0
   39.6950   28.4360   40.4200 N   0  0  0  0  0  0  0  0  0  0  0  0
   40.6130   27.7250   39.5180 C   0  0  0  0  0  0  0  0  0  0  0  0
   40.0420   27.7310   38.1090 C   0  0  0  0  0  0  0  0  0  0  0  0
   39.9070   29.1280   37.5820 C   0  0  0  0  0  0  0  0  0  0  0  0
   40.1050   30.1120   38.7200 C   0  0  0  0  0  0  0  0  0  0  0  0
   39.3260   29.7330   39.9260 C   0  0  2  0  0  0  0  0  0  0  0  0
   41.6250   28.1410   39.5580 H   0  0  0  0  0  0  0  0  0  0  0  0
   40.6070   26.6460   39.8370 H   0  0  0  0  0  0  0  0  0  0  0  0
   39.0860   27.1690   38.1500 H   0  0  0  0  0  0  0  0  0  0  0  0
   40.7830   27.1680   37.4860 H   0  0  0  0  0  0  0  0  0  0  0  0
   40.5700   29.3740   36.7490 H   0  0  0  0  0  0  0  0  0  0  0  0
   38.8550   29.2270   37.1850 H   0  0  0  0  0  0  0  0  0  0  0  0
   39.8420   31.1380   38.4020 H   0  0  0  0  0  0  0  0  0  0  0  0
   41.2090   30.1420   38.9020 H   0  0  0  0  0  0  0  0  0  0  0  0
   38.2580   29.6530   39.6150 H   0  0  0  0  0  0  0  0  0  0  0  0
   39.4050   25.7610   42.5270 C   0  0  0  0  0  0  0  0  0  0  0  0
   38.6290   26.6910   41.8050 C   0  0  0  0  0  0  0  0  0  0  0  0
   37.4180   26.3160   41.2520 C   0  0  0  0  0  0  0  0  0  0  0  0
   37.0200   25.0370   41.4330 N   0  0  0  0  0  0  0  0  0  0  0  0
   37.7530   24.1200   42.1270 C   0  0  0  0  0  0  0  0  0  0  0  0
   38.9400   24.5050   42.6630 N   0  0  0  0  0  0  0  0  0  0  0  0
   40.3470   26.0640   42.9550 H   0  0  0  0  0  0  0  0  0  0  0  0
   37.4310   23.1130   42.2650 H   0  0  0  0  0  0  0  0  0  0  0  0
   36.6520   27.2900   40.5210 C   0  0  0  0  0  0  0  0  0  0  0  0
   36.5690   27.2350   39.1700 C   0  0  0  0  0  0  0  0  0  0  0  0
   35.8260   28.1850   38.4990 C   0  0  0  0  0  0  0  0  0  0  0  0
   35.1500   29.2130   39.1550 C   0  0  0  0  0  0  0  0  0  0  0  0
   35.2690   29.2250   40.5490 C   0  0  0  0  0  0  0  0  0  0  0  0
   35.9960   28.2890   41.1560 N   0  0  0  0  0  0  0  0  0  0  0  0
   37.0490   26.4870   38.5530 H   0  0  0  0  0  0  0  0  0  0  0  0
   35.7160   28.2020   37.4130 H   0  0  0  0  0  0  0  0  0  0  0  0
   34.5620   29.9780   38.7110 H   0  0  0  0  0  0  0  0  0  0  0  0
   34.8080   29.9540   41.2200 H   0  0  0  0  0  0  0  0  0  0  0  0
   39.3710   30.8270   40.9480 C   0  0  0  0  0  0  0  0  0  0  0  0
   40.3490   31.0650   41.3620 H   0  0  0  0  0  0  0  0  0  0  0  0
   38.8210   30.3830   41.8250 H   0  0  0  0  0  0  0  0  0  0  0  0
   38.5610   32.0170   40.5700 C   0  0  0  0  0  0  0  0  0  0  0  0
   39.1900   33.2440   40.4900 C   0  0  0  0  0  0  0  0  0  0  0  0
   40.2160   33.5980   40.6470 H   0  0  0  0  0  0  0  0  0  0  0  0
   38.2030   34.1610   40.1220 C   0  0  0  0  0  0  0  0  0  0  0  0
   38.2670   35.2330   39.9500 H   0  0  0  0  0  0  0  0  0  0  0  0
   37.0310   33.4740   39.9930 N   0  0  0  0  0  0  0  0  0  0  0  0
   36.1160   33.9060   39.7230 H   0  0  0  0  0  0  0  0  0  0  0  0
   37.2820   32.1940   40.2680 N   0  0  0  0  0  0  0  0  0  0  0  0
  1 19  1  0  0  0  0
  1  2  2  0  0  0  0
  3  1  1  0  0  0  0
  4  9  1  0  0  0  0
  4 10  1  0  0  0  0
  4  3  1  0  0  0  0
  5 11  1  0  0  0  0
  5  4  1  0  0  0  0
  6  5  1  0  0  0  0
  6  7  1  0  0  0  0
  7 16  1  0  0  0  0
  7  8  1  0  0  0  0
  8 17  1  6  0  0  0
  8  3  1  0  0  0  0
  8 36  1  0  0  0  0
 12  5  1  0  0  0  0
 13  6  1  0  0  0  0
 14  6  1  0  0  0  0
 15  7  1  0  0  0  0
 18 23  1  0  0  0  0
 18 24  1  0  0  0  0
 19 18  2  0  0  0  0
 20 21  2  0  0  0  0
 20 19  1  0  0  0  0
 21 22  1  0  0  0  0
 22 25  1  0  0  0  0
 22 23  2  0  0  0  0
 26 31  1  0  0  0  0
 26 20  1  0  0  0  0
 27 26  2  0  0  0  0
 28 29  2  0  0  0  0
 28 27  1  0  0  0  0
 29 30  1  0  0  0  0
 30 31  2  0  0  0  0
 30 35  1  0  0  0  0
 32 27  1  0  0  0  0
 33 28  1  0  0  0  0
 34 29  1  0  0  0  0
 36 37  1  0  0  0  0
 36 38  1  0  0  0  0
 39 36  1  0  0  0  0
 40 39  1  0  0  0  0
 40 41  1  0  0  0  0
 42 40  2  0  0  0  0
 43 42  1  0  0  0  0
 44 42  1  0  0  0  0
 44 46  1  0  0  0  0
 45 44  1  0  0  0  0
 46 39  2  0  0  0  0
M  END
>  <minimizedAffinity>
-5.81125164

$$$$

 OpenBabel03252507233D

 46 49  0  0  1  0  0  0  0  0999 V2000
   39.2420   28.9840   40.1640 C   0  0  0  0  0  0  0  0  0  0  0  0
   40.4940   29.2470   40.2180 O   0  0  0  0  0  0  0  0  0  0  0  0
   38.4500   28.7120   41.3130 N   0  0  0  0  0  0  0  0  0  0  0  0
   37.1100   29.1930   41.6760 C   0  0  0  0  0  0  0  0  0  0  0  0
   36.2320   28.0080   42.0470 C   0  0  0  0  0  0  0  0  0  0  0  0
   36.7740   27.2810   43.2410 C   0  0  0  0  0  0  0  0  0  0  0  0
   38.1800   27.7740   43.5300 C   0  0  0  0  0  0  0  0  0  0  0  0
   39.0120   27.8340   42.3010 C   0  0  2  0  0  0  0  0  0  0  0  0
   37.1490   29.9450   42.4710 H   0  0  0  0  0  0  0  0  0  0  0  0
   36.6540   29.6180   40.7400 H   0  0  0  0  0  0  0  0  0  0  0  0
   36.1440   27.3790   41.1370 H   0  0  0  0  0  0  0  0  0  0  0  0
   35.2330   28.4460   42.3000 H   0  0  0  0  0  0  0  0  0  0  0  0
   36.1580   27.3470   44.1420 H   0  0  0  0  0  0  0  0  0  0  0  0
   36.8130   26.1870   42.9670 H   0  0  0  0  0  0  0  0  0  0  0  0
   38.6700   27.1400   44.2910 H   0  0  0  0  0  0  0  0  0  0  0  0
   38.0540   28.7700   44.0220 H   0  0  0  0  0  0  0  0  0  0  0  0
   39.0030   26.8140   41.8490 H   0  0  0  0  0  0  0  0  0  0  0  0
   38.4010   27.7150   38.2480 C   0  0  0  0  0  0  0  0  0  0  0  0
   38.6130   28.9670   38.8620 C   0  0  0  0  0  0  0  0  0  0  0  0
   38.2260   30.1340   38.2270 C   0  0  0  0  0  0  0  0  0  0  0  0
   37.6460   30.0190   37.0120 N   0  0  0  0  0  0  0  0  0  0  0  0
   37.4310   28.8200   36.3990 C   0  0  0  0  0  0  0  0  0  0  0  0
   37.8170   27.6840   37.0360 N   0  0  0  0  0  0  0  0  0  0  0  0
   38.7060   26.8120   38.7520 H   0  0  0  0  0  0  0  0  0  0  0  0
   36.9730   28.7380   35.4400 H   0  0  0  0  0  0  0  0  0  0  0  0
   38.4580   31.3940   38.8810 C   0  0  0  0  0  0  0  0  0  0  0  0
   37.4590   32.0250   39.5440 C   0  0  0  0  0  0  0  0  0  0  0  0
   37.7150   33.2330   40.1610 C   0  0  0  0  0  0  0  0  0  0  0  0
   38.9690   33.8420   40.1320 C   0  0  0  0  0  0  0  0  0  0  0  0
   39.9650   33.1490   39.4350 C   0  0  0  0  0  0  0  0  0  0  0  0
   39.6740   31.9870   38.8550 N   0  0  0  0  0  0  0  0  0  0  0  0
   36.4480   31.6520   39.6340 H   0  0  0  0  0  0  0  0  0  0  0  0
   36.9590   33.7970   40.7110 H   0  0  0  0  0  0  0  0  0  0  0  0
   39.2420   34.7660   40.5800 H   0  0  0  0  0  0  0  0  0  0  0  0
   40.9990   33.4780   39.3120 H   0  0  0  0  0  0  0  0  0  0  0  0
   40.4420   28.1140   42.6460 C   0  0  0  0  0  0  0  0  0  0  0  0
   40.6170   28.8130   43.4620 H   0  0  0  0  0  0  0  0  0  0  0  0
   40.8200   28.6720   41.7440 H   0  0  0  0  0  0  0  0  0  0  0  0
   41.2840   26.8880   42.7000 C   0  0  0  0  0  0  0  0  0  0  0  0
   42.4740   26.8750   42.0000 C   0  0  0  0  0  0  0  0  0  0  0  0
   43.0030   27.5920   41.3600 H   0  0  0  0  0  0  0  0  0  0  0  0
   43.0430   25.6200   42.2290 C   0  0  0  0  0  0  0  0  0  0  0  0
   43.9760   25.1930   41.8680 H   0  0  0  0  0  0  0  0  0  0  0  0
   42.1970   24.9280   43.0450 N   0  0  0  0  0  0  0  0  0  0  0  0
   42.3670   23.9520   43.3870 H   0  0  0  0  0  0  0  0  0  0  0  0
   41.1550   25.7170   43.3070 N   0  0  0  0  0  0  0  0  0  0  0  0
  1  2  2  0  0  0  0
  1  3  1  0  0  0  0
  3  4  1  0  0  0  0
  3  8  1  0  0  0  0
  4  5  1  0  0  0  0
  4  9  1  0  0  0  0
  5 12  1  0  0  0  0
  5  6  1  0  0  0  0
  6  7  1  0  0  0  0
  6 13  1  0  0  0  0
  7 16  1  0  0  0  0
  7 15  1  0  0  0  0
  8 17  1  6  0  0  0
  8 36  1  0  0  0  0
  8  7  1  0  0  0  0
 10  4  1  0  0  0  0
 11  5  1  0  0  0  0
 14  6  1  0  0  0  0
 18 24  1  0  0  0  0
 18 19  1  0  0  0  0
 19  1  1  0  0  0  0
 20 19  2  0  0  0  0
 20 26  1  0  0  0  0
 21 20  1  0  0  0  0
 22 21  2  0  0  0  0
 22 23  1  0  0  0  0
 23 18  2  0  0  0  0
 25 22  1  0  0  0  0
 26 27  1  0  0  0  0
 27 32  1  0  0  0  0
 27 28  2  0  0  0  0
 28 33  1  0  0  0  0
 29 28  1  0  0  0  0
 29 34  1  0  0  0  0
 30 29  2  0  0  0  0
 31 26  2  0  0  0  0
 31 30  1  0  0  0  0
 35 30  1  0  0  0  0
 36 39  1  0  0  0  0
 36 37  1  0  0  0  0
 38 36  1  0  0  0  0
 39 46  2  0  0  0  0
 40 42  2  0  0  0  0
 40 39  1  0  0  0  0
 41 40  1  0  0  0  0
 42 44  1  0  0  0  0
 43 42  1  0  0  0  0
 44 46  1  0  0  0  0
 44 45  1  0  0  0  0
M  END
>  <minimizedAffinity>
-5.73228502

$$$$

 OpenBabel03252507233D

 46 49  0  0  1  0  0  0  0  0999 V2000
   38.1330   27.6210   38.9790 C   0  0  0  0  0  0  0  0  0  0  0  0
   39.3340   27.5110   38.5490 O   0  0  0  0  0  0  0  0  0  0  0  0
   37.5540   28.8580   39.3740 N   0  0  0  0  0  0  0  0  0  0  0  0
   36.2270   29.4190   39.0870 C   0  0  0  0  0  0  0  0  0  0  0  0
   35.5750   29.8670   40.3860 C   0  0  0  0  0  0  0  0  0  0  0  0
   36.3720   30.9490   41.0490 C   0  0  0  0  0  0  0  0  0  0  0  0
   37.7270   31.0580   40.3740 C   0  0  0  0  0  0  0  0  0  0  0  0
   38.3620   29.7290   40.1820 C   0  0  2  0  0  0  0  0  0  0  0  0
   36.2770   30.2260   38.3480 H   0  0  0  0  0  0  0  0  0  0  0  0
   35.5910   28.5690   38.7130 H   0  0  0  0  0  0  0  0  0  0  0  0
   35.4440   28.9570   41.0070 H   0  0  0  0  0  0  0  0  0  0  0  0
   34.5720   30.2700   40.0910 H   0  0  0  0  0  0  0  0  0  0  0  0
   35.8860   31.9280   41.0820 H   0  0  0  0  0  0  0  0  0  0  0  0
   36.5180   30.6360   42.1240 H   0  0  0  0  0  0  0  0  0  0  0  0
   38.3990   31.7220   40.9470 H   0  0  0  0  0  0  0  0  0  0  0  0
   37.5400   31.5970   39.4120 H   0  0  0  0  0  0  0  0  0  0  0  0
   38.4250   29.2480   41.1870 H   0  0  0  0  0  0  0  0  0  0  0  0
   36.6770   25.9800   37.8950 C   0  0  0  0  0  0  0  0  0  0  0  0
   37.3340   26.4180   39.0630 C   0  0  0  0  0  0  0  0  0  0  0  0
   37.2100   25.7100   40.2450 C   0  0  0  0  0  0  0  0  0  0  0  0
   36.4430   24.5980   40.2280 N   0  0  0  0  0  0  0  0  0  0  0  0
   35.7980   24.1550   39.1100 C   0  0  0  0  0  0  0  0  0  0  0  0
   35.9300   24.8620   37.9590 N   0  0  0  0  0  0  0  0  0  0  0  0
   36.7810   26.5390   36.9780 H   0  0  0  0  0  0  0  0  0  0  0  0
   35.1950   23.2760   39.1060 H   0  0  0  0  0  0  0  0  0  0  0  0
   37.8940   26.1860   41.4190 C   0  0  0  0  0  0  0  0  0  0  0  0
   37.2520   26.9560   42.3300 C   0  0  0  0  0  0  0  0  0  0  0  0
   37.9370   27.3950   43.4450 C   0  0  0  0  0  0  0  0  0  0  0  0
   39.2750   27.0810   43.6800 C   0  0  0  0  0  0  0  0  0  0  0  0
   39.8900   26.2840   42.7080 C   0  0  0  0  0  0  0  0  0  0  0  0
   39.1920   25.8820   41.6480 N   0  0  0  0  0  0  0  0  0  0  0  0
   36.2180   27.2640   42.2570 H   0  0  0  0  0  0  0  0  0  0  0  0
   37.4840   28.0180   44.2190 H   0  0  0  0  0  0  0  0  0  0  0  0
   39.8670   27.3810   44.5090 H   0  0  0  0  0  0  0  0  0  0  0  0
   40.9280   25.9440   42.7300 H   0  0  0  0  0  0  0  0  0  0  0  0
   39.7760   29.8830   39.7160 C   0  0  0  0  0  0  0  0  0  0  0  0
   40.3260   28.9630   39.5220 H   0  0  0  0  0  0  0  0  0  0  0  0
   40.3000   30.3090   40.6170 H   0  0  0  0  0  0  0  0  0  0  0  0
   39.9390   30.9250   38.6670 C   0  0  0  0  0  0  0  0  0  0  0  0
   40.9780   31.8260   38.7890 C   0  0  0  0  0  0  0  0  0  0  0  0
   41.7800   31.9860   39.5200 H   0  0  0  0  0  0  0  0  0  0  0  0
   40.8880   32.6730   37.6820 C   0  0  0  0  0  0  0  0  0  0  0  0
   41.5070   33.5180   37.3890 H   0  0  0  0  0  0  0  0  0  0  0  0
   39.8190   32.2650   36.9390 N   0  0  0  0  0  0  0  0  0  0  0  0
   39.5090   32.7170   36.0460 H   0  0  0  0  0  0  0  0  0  0  0  0
   39.2750   31.2170   37.5570 N   0  0  0  0  0  0  0  0  0  0  0  0
  1 19  1  0  0  0  0
  1  3  1  0  0  0  0
  2  1  2  0  0  0  0
  3  8  1  0  0  0  0
  4  3  1  0  0  0  0
  4  5  1  0  0  0  0
  5 11  1  0  0  0  0
  5  6  1  0  0  0  0
  6 13  1  0  0  0  0
  6 14  1  0  0  0  0
  7 15  1  0  0  0  0
  7  6  1  0  0  0  0
  8  7  1  0  0  0  0
  8 17  1  1  0  0  0
  9  4  1  0  0  0  0
 10  4  1  0  0  0  0
 12  5  1  0  0  0  0
 16  7  1  0  0  0  0
 18 23  2  0  0  0  0
 18 19  1  0  0  0  0
 19 20  2  0  0  0  0
 20 26  1  0  0  0  0
 21 20  1  0  0  0  0
 22 21  2  0  0  0  0
 23 22  1  0  0  0  0
 24 18  1  0  0  0  0
 25 22  1  0  0  0  0
 26 31  2  0  0  0  0
 26 27  1  0  0  0  0
 27 28  2  0  0  0  0
 28 29  1  0  0  0  0
 28 33  1  0  0  0  0
 29 34  1  0  0  0  0
 30 35  1  0  0  0  0
 30 29  2  0  0  0  0
 31 30  1  0  0  0  0
 32 27  1  0  0  0  0
 36  8  1  0  0  0  0
 36 38  1  0  0  0  0
 37 36  1  0  0  0  0
 39 40  1  0  0  0  0
 39 36  1  0  0  0  0
 40 41  1  0  0  0  0
 42 40  2  0  0  0  0
 43 42  1  0  0  0  0
 44 46  1  0  0  0  0
 44 42  1  0  0  0  0
 45 44  1  0  0  0  0
 46 39  2  0  0  0  0
M  END
>  <minimizedAffinity>
-5.7308774

$$$$

 OpenBabel03252507233D

 46 49  0  0  1  0  0  0  0  0999 V2000
   37.8880   28.6710   41.4430 C   0  0  0  0  0  0  0  0  0  0  0  0
   37.8990   29.4820   42.4340 O   0  0  0  0  0  0  0  0  0  0  0  0
   37.6870   29.0840   40.0980 N   0  0  0  0  0  0  0  0  0  0  0  0
   38.3880   28.6870   38.8690 C   0  0  0  0  0  0  0  0  0  0  0  0
   37.3700   28.2680   37.8200 C   0  0  0  0  0  0  0  0  0  0  0  0
   36.4630   29.4040   37.4570 C   0  0  0  0  0  0  0  0  0  0  0  0
   36.6500   30.5320   38.4560 C   0  0  0  0  0  0  0  0  0  0  0  0
   36.6430   30.0410   39.8570 C   0  0  2  0  0  0  0  0  0  0  0  0
   39.0550   29.4770   38.5080 H   0  0  0  0  0  0  0  0  0  0  0  0
   38.9650   27.7530   39.1130 H   0  0  0  0  0  0  0  0  0  0  0  0
   36.8430   27.3800   38.2240 H   0  0  0  0  0  0  0  0  0  0  0  0
   37.9730   27.9720   36.9230 H   0  0  0  0  0  0  0  0  0  0  0  0
   36.5760   29.7800   36.4360 H   0  0  0  0  0  0  0  0  0  0  0  0
   35.4060   29.0150   37.5310 H   0  0  0  0  0  0  0  0  0  0  0  0
   35.8760   31.3090   38.3200 H   0  0  0  0  0  0  0  0  0  0  0  0
   37.6110   31.0290   38.1700 H   0  0  0  0  0  0  0  0  0  0  0  0
   35.6820   29.4940   40.0080 H   0  0  0  0  0  0  0  0  0  0  0  0
   36.9620   26.4250   41.7340 C   0  0  0  0  0  0  0  0  0  0  0  0
   38.0940   27.2660   41.7190 C   0  0  0  0  0  0  0  0  0  0  0  0
   39.3540   26.7510   41.9630 C   0  0  0  0  0  0  0  0  0  0  0  0
   39.4490   25.4260   42.2120 N   0  0  0  0  0  0  0  0  0  0  0  0
   38.3690   24.5940   42.2320 C   0  0  0  0  0  0  0  0  0  0  0  0
   37.1390   25.1150   41.9910 N   0  0  0  0  0  0  0  0  0  0  0  0
   35.9840   26.8360   41.5430 H   0  0  0  0  0  0  0  0  0  0  0  0
   38.4530   23.5490   42.4290 H   0  0  0  0  0  0  0  0  0  0  0  0
   40.4870   27.6390   41.9400 C   0  0  0  0  0  0  0  0  0  0  0  0
   40.9510   28.1990   43.0830 C   0  0  0  0  0  0  0  0  0  0  0  0
   42.0400   29.0460   43.0270 C   0  0  0  0  0  0  0  0  0  0  0  0
   42.6920   29.3550   41.8340 C   0  0  0  0  0  0  0  0  0  0  0  0
   42.1730   28.7500   40.6830 C   0  0  0  0  0  0  0  0  0  0  0  0
   41.1210   27.9400   40.7830 N   0  0  0  0  0  0  0  0  0  0  0  0
   40.5290   28.0350   44.0650 H   0  0  0  0  0  0  0  0  0  0  0  0
   42.4660   29.5320   43.9060 H   0  0  0  0  0  0  0  0  0  0  0  0
   43.5310   29.9940   41.7100 H   0  0  0  0  0  0  0  0  0  0  0  0
   42.5580   28.8800   39.6690 H   0  0  0  0  0  0  0  0  0  0  0  0
   36.6130   31.1890   40.8180 C   0  0  0  0  0  0  0  0  0  0  0  0
   36.6950   30.9400   41.8740 H   0  0  0  0  0  0  0  0  0  0  0  0
   35.5580   31.5740   40.7260 H   0  0  0  0  0  0  0  0  0  0  0  0
   37.4610   32.3340   40.3920 C   0  0  0  0  0  0  0  0  0  0  0  0
   38.7810   32.3640   40.7960 C   0  0  0  0  0  0  0  0  0  0  0  0
   39.4180   31.7080   41.4010 H   0  0  0  0  0  0  0  0  0  0  0  0
   39.3240   33.5330   40.2580 C   0  0  0  0  0  0  0  0  0  0  0  0
   40.3290   33.9410   40.3320 H   0  0  0  0  0  0  0  0  0  0  0  0
   38.3360   34.1610   39.5570 N   0  0  0  0  0  0  0  0  0  0  0  0
   38.4550   35.0660   39.0430 H   0  0  0  0  0  0  0  0  0  0  0  0
   37.2350   33.4160   39.6590 N   0  0  0  0  0  0  0  0  0  0  0  0
  1 19  1  0  0  0  0
  1  2  2  0  0  0  0
  3  1  1  0  0  0  0
  4 10  1  0  0  0  0
  4  3  1  0  0  0  0
  5 11  1  0  0  0  0
  5  4  1  0  0  0  0
  6 14  1  0  0  0  0
  6  5  1  0  0  0  0
  6  7  1  0  0  0  0
  7  8  1  0  0  0  0
  8 17  1  1  0  0  0
  8  3  1  0  0  0  0
  8 36  1  0  0  0  0
  9  4  1  0  0  0  0
 12  5  1  0  0  0  0
 13  6  1  0  0  0  0
 15  7  1  0  0  0  0
 16  7  1  0  0  0  0
 18 23  1  0  0  0  0
 19 18  2  0  0  0  0
 19 20  1  0  0  0  0
 20 21  2  0  0  0  0
 21 22  1  0  0  0  0
 22 25  1  0  0  0  0
 23 22  2  0  0  0  0
 24 18  1  0  0  0  0
 26 20  1  0  0  0  0
 26 27  1  0  0  0  0
 27 32  1  0  0  0  0
 28 27  2  0  0  0  0
 28 33  1  0  0  0  0
 29 28  1  0  0  0  0
 30 31  1  0  0  0  0
 30 29  2  0  0  0  0
 31 26  2  0  0  0  0
 34 29  1  0  0  0  0
 35 30  1  0  0  0  0
 36 37  1  0  0  0  0
 38 36  1  0  0  0  0
 39 40  1  0  0  0  0
 39 36  1  0  0  0  0
 40 41  1  0  0  0  0
 42 43  1  0  0  0  0
 42 40  2  0  0  0  0
 44 46  1  0  0  0  0
 44 42  1  0  0  0  0
 45 44  1  0  0  0  0
 46 39  2  0  0  0  0
M  END
>  <minimizedAffinity>
-5.58857012

$$$$

 OpenBabel03252507233D

 46 49  0  0  1  0  0  0  0  0999 V2000
   38.8860   30.0290   38.1740 C   0  0  0  0  0  0  0  0  0  0  0  0
   39.9270   29.5310   37.6190 O   0  0  0  0  0  0  0  0  0  0  0  0
   38.8690   31.3050   38.8010 N   0  0  0  0  0  0  0  0  0  0  0  0
   37.8740   32.3840   38.7280 C   0  0  0  0  0  0  0  0  0  0  0  0
   37.4970   32.8190   40.1350 C   0  0  0  0  0  0  0  0  0  0  0  0
   38.6820   33.3670   40.8710 C   0  0  0  0  0  0  0  0  0  0  0  0
   39.9450   33.0490   40.0920 C   0  0  0  0  0  0  0  0  0  0  0  0
   39.9830   31.6330   39.6470 C   0  0  2  0  0  0  0  0  0  0  0  0
   38.2250   33.2200   38.1150 H   0  0  0  0  0  0  0  0  0  0  0  0
   36.9380   31.9320   38.2960 H   0  0  0  0  0  0  0  0  0  0  0  0
   37.0270   31.9420   40.6260 H   0  0  0  0  0  0  0  0  0  0  0  0
   36.7350   33.6290   40.0020 H   0  0  0  0  0  0  0  0  0  0  0  0
   38.6350   34.4370   41.0940 H   0  0  0  0  0  0  0  0  0  0  0  0
   38.7200   32.8410   41.8690 H   0  0  0  0  0  0  0  0  0  0  0  0
   40.8450   33.2850   40.6890 H   0  0  0  0  0  0  0  0  0  0  0  0
   39.9650   33.7760   39.2420 H   0  0  0  0  0  0  0  0  0  0  0  0
   39.8750   30.9990   40.5590 H   0  0  0  0  0  0  0  0  0  0  0  0
   36.9480   29.1750   36.9480 C   0  0  0  0  0  0  0  0  0  0  0  0
   37.6720   29.2430   38.1560 C   0  0  0  0  0  0  0  0  0  0  0  0
   37.2240   28.5740   39.2820 C   0  0  0  0  0  0  0  0  0  0  0  0
   36.0790   27.8650   39.1700 N   0  0  0  0  0  0  0  0  0  0  0  0
   35.3630   27.7850   38.0130 C   0  0  0  0  0  0  0  0  0  0  0  0
   35.8160   28.4470   36.9180 N   0  0  0  0  0  0  0  0  0  0  0  0
   37.3060   29.6990   36.0770 H   0  0  0  0  0  0  0  0  0  0  0  0
   34.4600   27.2220   37.9340 H   0  0  0  0  0  0  0  0  0  0  0  0
   37.9870   28.6660   40.4980 C   0  0  0  0  0  0  0  0  0  0  0  0
   37.5720   29.4550   41.5190 C   0  0  0  0  0  0  0  0  0  0  0  0
   38.3280   29.5200   42.6720 C   0  0  0  0  0  0  0  0  0  0  0  0
   39.5120   28.8040   42.8380 C   0  0  0  0  0  0  0  0  0  0  0  0
   39.8950   28.0050   41.7550 C   0  0  0  0  0  0  0  0  0  0  0  0
   39.1370   27.9720   40.6610 N   0  0  0  0  0  0  0  0  0  0  0  0
   36.6730   30.0550   41.5060 H   0  0  0  0  0  0  0  0  0  0  0  0
   38.0550   30.1340   43.5320 H   0  0  0  0  0  0  0  0  0  0  0  0
   40.1450   28.8020   43.6910 H   0  0  0  0  0  0  0  0  0  0  0  0
   40.7910   27.3800   41.7120 H   0  0  0  0  0  0  0  0  0  0  0  0
   41.3240   31.2950   39.0740 C   0  0  0  0  0  0  0  0  0  0  0  0
   41.4270   30.3080   38.6280 H   0  0  0  0  0  0  0  0  0  0  0  0
   41.9850   31.2350   39.9840 H   0  0  0  0  0  0  0  0  0  0  0  0
   41.9110   32.3960   38.2640 C   0  0  0  0  0  0  0  0  0  0  0  0
   43.1070   32.9510   38.6750 C   0  0  0  0  0  0  0  0  0  0  0  0
   43.7930   32.7770   39.5130 H   0  0  0  0  0  0  0  0  0  0  0  0
   43.4140   33.9440   37.7410 C   0  0  0  0  0  0  0  0  0  0  0  0
   44.2630   34.6210   37.6860 H   0  0  0  0  0  0  0  0  0  0  0  0
   42.4140   33.9580   36.8130 N   0  0  0  0  0  0  0  0  0  0  0  0
   42.3770   34.6040   35.9890 H   0  0  0  0  0  0  0  0  0  0  0  0
   41.5320   33.0190   37.1570 N   0  0  0  0  0  0  0  0  0  0  0  0
  1  3  1  0  0  0  0
  2  1  2  0  0  0  0
  3  8  1  0  0  0  0
  4  3  1  0  0  0  0
  4  5  1  0  0  0  0
  5 11  1  0  0  0  0
  5  6  1  0  0  0  0
  6 13  1  0  0  0  0
  6 14  1  0  0  0  0
  7 15  1  0  0  0  0
  7  6  1  0  0  0  0
  8  7  1  0  0  0  0
  8 17  1  1  0  0  0
  9  4  1  0  0  0  0
 10  4  1  0  0  0  0
 12  5  1  0  0  0  0
 16  7  1  0  0  0  0
 18 19  1  0  0  0  0
 19  1  1  0  0  0  0
 19 20  2  0  0  0  0
 20 26  1  0  0  0  0
 21 20  1  0  0  0  0
 22 21  2  0  0  0  0
 23 18  2  0  0  0  0
 23 22  1  0  0  0  0
 24 18  1  0  0  0  0
 25 22  1  0  0  0  0
 26 31  2  0  0  0  0
 26 27  1  0  0  0  0
 27 28  2  0  0  0  0
 28 29  1  0  0  0  0
 28 33  1  0  0  0  0
 29 34  1  0  0  0  0
 30 29  2  0  0  0  0
 31 30  1  0  0  0  0
 32 27  1  0  0  0  0
 35 30  1  0  0  0  0
 36  8  1  0  0  0  0
 36 38  1  0  0  0  0
 37 36  1  0  0  0  0
 39 40  1  0  0  0  0
 39 36  1  0  0  0  0
 40 41  1  0  0  0  0
 42 40  2  0  0  0  0
 43 42  1  0  0  0  0
 44 46  1  0  0  0  0
 44 42  1  0  0  0  0
 45 44  1  0  0  0  0
 46 39  2  0  0  0  0
M  END
>  <minimizedAffinity>
-5.55336857

$$$$

 OpenBabel03252507233D

 46 49  0  0  1  0  0  0  0  0999 V2000
   37.4440   27.1690   41.6840 C   0  0  0  0  0  0  0  0  0  0  0  0
   36.5730   27.8850   42.2900 O   0  0  0  0  0  0  0  0  0  0  0  0
   38.8400   27.4370   41.7210 N   0  0  0  0  0  0  0  0  0  0  0  0
   39.9760   26.5230   41.9050 C   0  0  0  0  0  0  0  0  0  0  0  0
   40.9950   26.7570   40.8010 C   0  0  0  0  0  0  0  0  0  0  0  0
   41.5430   28.1520   40.8520 C   0  0  0  0  0  0  0  0  0  0  0  0
   40.7010   28.9850   41.8010 C   0  0  0  0  0  0  0  0  0  0  0  0
   39.2470   28.8050   41.5600 C   0  0  2  0  0  0  0  0  0  0  0  0
   40.4160   26.6180   42.9030 H   0  0  0  0  0  0  0  0  0  0  0  0
   39.5850   25.4830   41.7330 H   0  0  0  0  0  0  0  0  0  0  0  0
   40.4940   26.5040   39.8450 H   0  0  0  0  0  0  0  0  0  0  0  0
   41.8210   26.0260   40.9990 H   0  0  0  0  0  0  0  0  0  0  0  0
   42.6010   28.2240   41.1210 H   0  0  0  0  0  0  0  0  0  0  0  0
   41.4560   28.5760   39.8100 H   0  0  0  0  0  0  0  0  0  0  0  0
   40.9710   30.0540   41.7290 H   0  0  0  0  0  0  0  0  0  0  0  0
   41.0160   28.6770   42.8300 H   0  0  0  0  0  0  0  0  0  0  0  0
   39.0590   29.0590   40.4890 H   0  0  0  0  0  0  0  0  0  0  0  0
   36.9240   24.7810   41.5720 C   0  0  0  0  0  0  0  0  0  0  0  0
   36.9710   26.0320   40.9250 C   0  0  0  0  0  0  0  0  0  0  0  0
   36.5750   26.1550   39.6050 C   0  0  0  0  0  0  0  0  0  0  0  0
   36.1470   25.0380   38.9760 N   0  0  0  0  0  0  0  0  0  0  0  0
   36.0930   23.8170   39.5810 C   0  0  0  0  0  0  0  0  0  0  0  0
   36.4860   23.7140   40.8770 N   0  0  0  0  0  0  0  0  0  0  0  0
   37.2350   24.6960   42.6010 H   0  0  0  0  0  0  0  0  0  0  0  0
   35.7540   22.9410   39.0770 H   0  0  0  0  0  0  0  0  0  0  0  0
   36.6360   27.4480   38.9750 C   0  0  0  0  0  0  0  0  0  0  0  0
   35.5350   28.2330   38.8930 C   0  0  0  0  0  0  0  0  0  0  0  0
   35.6290   29.4670   38.2820 C   0  0  0  0  0  0  0  0  0  0  0  0
   36.8190   29.9490   37.7380 C   0  0  0  0  0  0  0  0  0  0  0  0
   37.9250   29.1000   37.8490 C   0  0  0  0  0  0  0  0  0  0  0  0
   37.7900   27.9170   38.4460 N   0  0  0  0  0  0  0  0  0  0  0  0
   34.5600   27.9670   39.2780 H   0  0  0  0  0  0  0  0  0  0  0  0
   34.7840   30.1500   38.1810 H   0  0  0  0  0  0  0  0  0  0  0  0
   36.9690   30.8820   37.2550 H   0  0  0  0  0  0  0  0  0  0  0  0
   38.9310   29.3150   37.4800 H   0  0  0  0  0  0  0  0  0  0  0  0
   38.4540   29.7930   42.3570 C   0  0  0  0  0  0  0  0  0  0  0  0
   38.9000   30.1340   43.2900 H   0  0  0  0  0  0  0  0  0  0  0  0
   37.5660   29.1920   42.7030 H   0  0  0  0  0  0  0  0  0  0  0  0
   37.8640   30.8780   41.5290 C   0  0  0  0  0  0  0  0  0  0  0  0
   38.7120   31.8010   40.9490 C   0  0  0  0  0  0  0  0  0  0  0  0
   39.7970   31.9540   40.9410 H   0  0  0  0  0  0  0  0  0  0  0  0
   37.8940   32.6860   40.2420 C   0  0  0  0  0  0  0  0  0  0  0  0
   38.1520   33.5580   39.6450 H   0  0  0  0  0  0  0  0  0  0  0  0
   36.6030   32.2790   40.4130 N   0  0  0  0  0  0  0  0  0  0  0  0
   35.7700   32.7570   39.9940 H   0  0  0  0  0  0  0  0  0  0  0  0
   36.6220   31.1950   41.1880 N   0  0  0  0  0  0  0  0  0  0  0  0
  1  3  1  0  0  0  0
  1  2  2  0  0  0  0
  3  4  1  0  0  0  0
  4  9  1  0  0  0  0
  5  6  1  0  0  0  0
  5 12  1  0  0  0  0
  5  4  1  0  0  0  0
  6 13  1  0  0  0  0
  6  7  1  0  0  0  0
  7 16  1  0  0  0  0
  8 17  1  6  0  0  0
  8  3  1  0  0  0  0
  8  7  1  0  0  0  0
  8 36  1  0  0  0  0
 10  4  1  0  0  0  0
 11  5  1  0  0  0  0
 14  6  1  0  0  0  0
 15  7  1  0  0  0  0
 18 24  1  0  0  0  0
 19 18  1  0  0  0  0
 19  1  1  0  0  0  0
 20 19  2  0  0  0  0
 21 22  2  0  0  0  0
 21 20  1  0  0  0  0
 22 23  1  0  0  0  0
 23 18  2  0  0  0  0
 25 22  1  0  0  0  0
 26 20  1  0  0  0  0
 27 26  1  0  0  0  0
 27 32  1  0  0  0  0
 28 27  2  0  0  0  0
 29 30  2  0  0  0  0
 29 28  1  0  0  0  0
 30 31  1  0  0  0  0
 31 26  2  0  0  0  0
 33 28  1  0  0  0  0
 34 29  1  0  0  0  0
 35 30  1  0  0  0  0
 36 38  1  0  0  0  0
 36 37  1  0  0  0  0
 39 36  1  0  0  0  0
 40 39  1  0  0  0  0
 41 40  1  0  0  0  0
 42 44  1  0  0  0  0
 42 40  2  0  0  0  0
 43 42  1  0  0  0  0
 44 46  1  0  0  0  0
 45 44  1  0  0  0  0
 46 39  2  0  0  0  0
M  END
>  <minimizedAffinity>
-5.55309486

$$$$

 OpenBabel03252507233D

 46 49  0  0  1  0  0  0  0  0999 V2000
   39.3910   30.0750   40.0920 C   0  0  0  0  0  0  0  0  0  0  0  0
   40.0180   29.6690   39.0520 O   0  0  0  0  0  0  0  0  0  0  0  0
   39.1090   29.2430   41.2100 N   0  0  0  0  0  0  0  0  0  0  0  0
   39.2280   29.5170   42.6490 C   0  0  0  0  0  0  0  0  0  0  0  0
   37.9240   29.1540   43.3410 C   0  0  0  0  0  0  0  0  0  0  0  0
   37.6200   27.6930   43.1980 C   0  0  0  0  0  0  0  0  0  0  0  0
   38.5510   27.0880   42.1630 C   0  0  0  0  0  0  0  0  0  0  0  0
   38.6320   27.9170   40.9340 C   0  0  2  0  0  0  0  0  0  0  0  0
   40.0890   29.0040   43.0900 H   0  0  0  0  0  0  0  0  0  0  0  0
   39.3230   30.6320   42.7590 H   0  0  0  0  0  0  0  0  0  0  0  0
   37.1440   29.8210   42.9210 H   0  0  0  0  0  0  0  0  0  0  0  0
   38.0850   29.3960   44.4230 H   0  0  0  0  0  0  0  0  0  0  0  0
   37.6620   27.1180   44.1270 H   0  0  0  0  0  0  0  0  0  0  0  0
   36.5560   27.6150   42.8290 H   0  0  0  0  0  0  0  0  0  0  0  0
   38.2390   26.0580   41.9080 H   0  0  0  0  0  0  0  0  0  0  0  0
   39.5370   26.9710   42.6780 H   0  0  0  0  0  0  0  0  0  0  0  0
   37.5910   28.0380   40.5500 H   0  0  0  0  0  0  0  0  0  0  0  0
   39.9030   32.4420   40.4430 C   0  0  0  0  0  0  0  0  0  0  0  0
   38.9520   31.4530   40.1180 C   0  0  0  0  0  0  0  0  0  0  0  0
   37.6440   31.8030   39.8340 C   0  0  0  0  0  0  0  0  0  0  0  0
   37.3260   33.1160   39.8830 N   0  0  0  0  0  0  0  0  0  0  0  0
   38.2280   34.0900   40.1950 C   0  0  0  0  0  0  0  0  0  0  0  0
   39.5080   33.7280   40.4710 N   0  0  0  0  0  0  0  0  0  0  0  0
   40.9200   32.1590   40.6620 H   0  0  0  0  0  0  0  0  0  0  0  0
   37.9690   35.1230   40.2310 H   0  0  0  0  0  0  0  0  0  0  0  0
   36.7000   30.7680   39.5060 C   0  0  0  0  0  0  0  0  0  0  0  0
   35.8740   30.2590   40.4510 C   0  0  0  0  0  0  0  0  0  0  0  0
   34.9800   29.2670   40.1030 C   0  0  0  0  0  0  0  0  0  0  0  0
   34.8860   28.7580   38.8090 C   0  0  0  0  0  0  0  0  0  0  0  0
   35.7600   29.3180   37.8710 C   0  0  0  0  0  0  0  0  0  0  0  0
   36.6070   30.2730   38.2500 N   0  0  0  0  0  0  0  0  0  0  0  0
   35.8550   30.5730   41.4860 H   0  0  0  0  0  0  0  0  0  0  0  0
   34.2860   28.8110   40.8120 H   0  0  0  0  0  0  0  0  0  0  0  0
   34.2270   27.9990   38.4660 H   0  0  0  0  0  0  0  0  0  0  0  0
   35.8230   29.0410   36.8160 H   0  0  0  0  0  0  0  0  0  0  0  0
   39.3800   27.1940   39.8570 C   0  0  0  0  0  0  0  0  0  0  0  0
   39.3910   27.6620   38.8750 H   0  0  0  0  0  0  0  0  0  0  0  0
   38.7620   26.2670   39.6920 H   0  0  0  0  0  0  0  0  0  0  0  0
   40.7020   26.6800   40.3050 C   0  0  0  0  0  0  0  0  0  0  0  0
   40.9800   25.3380   40.1340 C   0  0  0  0  0  0  0  0  0  0  0  0
   40.4320   24.4820   39.7220 H   0  0  0  0  0  0  0  0  0  0  0  0
   42.2690   25.1430   40.6360 C   0  0  0  0  0  0  0  0  0  0  0  0
   42.8720   24.2400   40.6960 H   0  0  0  0  0  0  0  0  0  0  0  0
   42.7220   26.3500   41.0840 N   0  0  0  0  0  0  0  0  0  0  0  0
   43.6650   26.5070   41.5130 H   0  0  0  0  0  0  0  0  0  0  0  0
   41.7600   27.2460   40.8700 N   0  0  0  0  0  0  0  0  0  0  0  0
  1 19  1  0  0  0  0
  1  3  1  0  0  0  0
  2  1  2  0  0  0  0
  3  4  1  0  0  0  0
  4 10  1  0  0  0  0
  4  9  1  0  0  0  0
  4  5  1  0  0  0  0
  5 12  1  0  0  0  0
  6  5  1  0  0  0  0
  6 13  1  0  0  0  0
  7 16  1  0  0  0  0
  7  6  1  0  0  0  0
  8 17  1  6  0  0  0
  8  3  1  0  0  0  0
  8  7  1  0  0  0  0
 11  5  1  0  0  0  0
 14  6  1  0  0  0  0
 15  7  1  0  0  0  0
 18 23  1  0  0  0  0
 18 24  1  0  0  0  0
 19 18  2  0  0  0  0
 20 21  2  0  0  0  0
 20 19  1  0  0  0  0
 21 22  1  0  0  0  0
 22 25  1  0  0  0  0
 22 23  2  0  0  0  0
 26 20  1  0  0  0  0
 26 27  1  0  0  0  0
 27 32  1  0  0  0  0
 28 27  2  0  0  0  0
 28 33  1  0  0  0  0
 29 28  1  0  0  0  0
 30 31  1  0  0  0  0
 30 29  2  0  0  0  0
 31 26  2  0  0  0  0
 34 29  1  0  0  0  0
 35 30  1  0  0  0  0
 36 39  1  0  0  0  0
 36  8  1  0  0  0  0
 37 36  1  0  0  0  0
 38 36  1  0  0  0  0
 39 46  2  0  0  0  0
 40 39  1  0  0  0  0
 40 42  2  0  0  0  0
 41 40  1  0  0  0  0
 42 43  1  0  0  0  0
 42 44  1  0  0  0  0
 44 45  1  0  0  0  0
 46 44  1  0  0  0  0
M  END
>  <minimizedAffinity>
-5.50277996

$$$$

 OpenBabel03252507233D

 46 49  0  0  1  0  0  0  0  0999 V2000
   41.0080   30.2130   40.1300 C   0  0  0  0  0  0  0  0  0  0  0  0
   40.9700   30.8320   41.2510 O   0  0  0  0  0  0  0  0  0  0  0  0
   40.4300   28.9300   39.9250 N   0  0  0  0  0  0  0  0  0  0  0  0
   39.6190   28.4230   38.8100 C   0  0  0  0  0  0  0  0  0  0  0  0
   40.2070   27.1120   38.3120 C   0  0  0  0  0  0  0  0  0  0  0  0
   40.1830   26.0630   39.3830 C   0  0  0  0  0  0  0  0  0  0  0  0
   39.8510   26.7140   40.7130 C   0  0  0  0  0  0  0  0  0  0  0  0
   40.6500   27.9440   40.9460 C   0  0  2  0  0  0  0  0  0  0  0  0
   38.5640   28.3260   39.0870 H   0  0  0  0  0  0  0  0  0  0  0  0
   39.7480   29.1480   37.9600 H   0  0  0  0  0  0  0  0  0  0  0  0
   41.2220   27.3430   37.9300 H   0  0  0  0  0  0  0  0  0  0  0  0
   39.5480   26.7940   37.4640 H   0  0  0  0  0  0  0  0  0  0  0  0
   39.5080   25.2240   39.1940 H   0  0  0  0  0  0  0  0  0  0  0  0
   41.2220   25.6250   39.4340 H   0  0  0  0  0  0  0  0  0  0  0  0
   39.9950   26.0030   41.5460 H   0  0  0  0  0  0  0  0  0  0  0  0
   38.7490   26.9070   40.6860 H   0  0  0  0  0  0  0  0  0  0  0  0
   41.7250   27.6560   40.8710 H   0  0  0  0  0  0  0  0  0  0  0  0
   42.9490   30.3900   38.6510 C   0  0  0  0  0  0  0  0  0  0  0  0
   41.6750   30.8640   39.0240 C   0  0  0  0  0  0  0  0  0  0  0  0
   41.0920   31.9190   38.3440 C   0  0  0  0  0  0  0  0  0  0  0  0
   41.7900   32.4640   37.3230 N   0  0  0  0  0  0  0  0  0  0  0  0
   43.0240   32.0230   36.9450 C   0  0  0  0  0  0  0  0  0  0  0  0
   43.5810   30.9870   37.6230 N   0  0  0  0  0  0  0  0  0  0  0  0
   43.3940   29.5670   39.1870 H   0  0  0  0  0  0  0  0  0  0  0  0
   43.5670   32.4590   36.1390 H   0  0  0  0  0  0  0  0  0  0  0  0
   39.7900   32.3770   38.7510 C   0  0  0  0  0  0  0  0  0  0  0  0
   38.6670   31.8090   38.2510 C   0  0  0  0  0  0  0  0  0  0  0  0
   37.4340   32.2730   38.6620 C   0  0  0  0  0  0  0  0  0  0  0  0
   37.2880   33.3130   39.5800 C   0  0  0  0  0  0  0  0  0  0  0  0
   38.4790   33.8650   40.0660 C   0  0  0  0  0  0  0  0  0  0  0  0
   39.6470   33.3860   39.6420 N   0  0  0  0  0  0  0  0  0  0  0  0
   38.6530   30.9990   37.5350 H   0  0  0  0  0  0  0  0  0  0  0  0
   36.4890   31.8640   38.3010 H   0  0  0  0  0  0  0  0  0  0  0  0
   36.3790   33.7230   39.9430 H   0  0  0  0  0  0  0  0  0  0  0  0
   38.5530   34.6820   40.7870 H   0  0  0  0  0  0  0  0  0  0  0  0
   40.4590   28.4400   42.3460 C   0  0  0  0  0  0  0  0  0  0  0  0
   41.0890   29.2720   42.6570 H   0  0  0  0  0  0  0  0  0  0  0  0
   40.8350   27.5850   42.9760 H   0  0  0  0  0  0  0  0  0  0  0  0
   39.0290   28.5790   42.7310 C   0  0  0  0  0  0  0  0  0  0  0  0
   38.4430   27.5680   43.4670 C   0  0  0  0  0  0  0  0  0  0  0  0
   38.7870   26.6100   43.8740 H   0  0  0  0  0  0  0  0  0  0  0  0
   37.1200   27.9620   43.6790 C   0  0  0  0  0  0  0  0  0  0  0  0
   36.3130   27.4620   44.2100 H   0  0  0  0  0  0  0  0  0  0  0  0
   36.9500   29.1750   43.0770 N   0  0  0  0  0  0  0  0  0  0  0  0
   36.0530   29.7160   43.0740 H   0  0  0  0  0  0  0  0  0  0  0  0
   38.1120   29.5140   42.5200 N   0  0  0  0  0  0  0  0  0  0  0  0
  1  2  2  0  0  0  0
  3  1  1  0  0  0  0
  3  8  1  0  0  0  0
  4  9  1  0  0  0  0
  4  3  1  0  0  0  0
  5  4  1  0  0  0  0
  5  6  1  0  0  0  0
  6 14  1  0  0  0  0
  6  7  1  0  0  0  0
  7  8  1  0  0  0  0
  7 15  1  0  0  0  0
  8 17  1  6  0  0  0
  8 36  1  0  0  0  0
 10  4  1  0  0  0  0
 11  5  1  0  0  0  0
 12  5  1  0  0  0  0
 13  6  1  0  0  0  0
 16  7  1  0  0  0  0
 18 19  1  0  0  0  0
 18 24  1  0  0  0  0
 19  1  1  0  0  0  0
 20 26  1  0  0  0  0
 20 19  2  0  0  0  0
 21 20  1  0  0  0  0
 22 21  2  0  0  0  0
 22 23  1  0  0  0  0
 23 18  2  0  0  0  0
 25 22  1  0  0  0  0
 26 31  1  0  0  0  0
 27 28  1  0  0  0  0
 27 26  2  0  0  0  0
 28 29  2  0  0  0  0
 29 34  1  0  0  0  0
 29 30  1  0  0  0  0
 30 35  1  0  0  0  0
 31 30  2  0  0  0  0
 32 27  1  0  0  0  0
 33 28  1  0  0  0  0
 36 37  1  0  0  0  0
 36 39  1  0  0  0  0
 36 38  1  0  0  0  0
 39 40  1  0  0  0  0
 40 42  2  0  0  0  0
 40 41  1  0  0  0  0
 42 43  1  0  0  0  0
 44 42  1  0  0  0  0
 45 44  1  0  0  0  0
 46 39  2  0  0  0  0
 46 44  1  0  0  0  0
M  END
>  <minimizedAffinity>
-5.45897532

$$$$
