
 OpenBabel03252507223D

 46 49  0  0  1  0  0  0  0  0999 V2000
   47.3320   33.7160   42.8370 C   0  0  0  0  0  0  0  0  0  0  0  0
   48.4530   33.5370   43.4290 O   0  0  0  0  0  0  0  0  0  0  0  0
   47.0360   33.1930   41.5480 N   0  0  0  0  0  0  0  0  0  0  0  0
   45.8250   32.5260   41.0510 C   0  0  0  0  0  0  0  0  0  0  0  0
   45.3720   33.1950   39.7630 C   0  0  0  0  0  0  0  0  0  0  0  0
   46.4110   33.0690   38.6900 C   0  0  0  0  0  0  0  0  0  0  0  0
   47.7070   32.5730   39.3050 C   0  0  0  0  0  0  0  0  0  0  0  0
   48.0560   33.3140   40.5440 C   0  0  2  0  0  0  0  0  0  0  0  0
   45.9760   31.4480   40.9280 H   0  0  0  0  0  0  0  0  0  0  0  0
   45.0100   32.7360   41.7970 H   0  0  0  0  0  0  0  0  0  0  0  0
   45.1140   34.2420   40.0210 H   0  0  0  0  0  0  0  0  0  0  0  0
   44.4470   32.6440   39.4510 H   0  0  0  0  0  0  0  0  0  0  0  0
   46.1280   32.4390   37.8430 H   0  0  0  0  0  0  0  0  0  0  0  0
   46.5730   34.1050   38.2690 H   0  0  0  0  0  0  0  0  0  0  0  0
   48.5360   32.6350   38.5770 H   0  0  0  0  0  0  0  0  0  0  0  0
   47.5570   31.4780   39.4770 H   0  0  0  0  0  0  0  0  0  0  0  0
   48.0990   34.3970   40.2770 H   0  0  0  0  0  0  0  0  0  0  0  0
   45.9400   35.7250   42.9580 C   0  0  0  0  0  0  0  0  0  0  0  0
   46.3230   34.4920   43.5240 C   0  0  0  0  0  0  0  0  0  0  0  0
   45.7450   34.0500   44.7010 C   0  0  0  0  0  0  0  0  0  0  0  0
   44.8110   34.8430   45.2720 N   0  0  0  0  0  0  0  0  0  0  0  0
   44.4250   36.0390   44.7430 C   0  0  0  0  0  0  0  0  0  0  0  0
   45.0030   36.4570   43.5880 N   0  0  0  0  0  0  0  0  0  0  0  0
   46.3960   36.0600   42.0400 H   0  0  0  0  0  0  0  0  0  0  0  0
   43.6870   36.6580   45.2000 H   0  0  0  0  0  0  0  0  0  0  0  0
   46.1600   32.7870   45.2510 C   0  0  0  0  0  0  0  0  0  0  0  0
   45.8040   31.6220   44.6600 C   0  0  0  0  0  0  0  0  0  0  0  0
   46.2190   30.4280   45.2140 C   0  0  0  0  0  0  0  0  0  0  0  0
   46.9970   30.3640   46.3700 C   0  0  0  0  0  0  0  0  0  0  0  0
   47.3370   31.5960   46.9410 C   0  0  0  0  0  0  0  0  0  0  0  0
   46.9150   32.7240   46.3730 N   0  0  0  0  0  0  0  0  0  0  0  0
   45.2050   31.5450   43.7630 H   0  0  0  0  0  0  0  0  0  0  0  0
   45.9700   29.4530   44.7920 H   0  0  0  0  0  0  0  0  0  0  0  0
   47.3540   29.4890   46.8540 H   0  0  0  0  0  0  0  0  0  0  0  0
   47.9380   31.7330   47.8430 H   0  0  0  0  0  0  0  0  0  0  0  0
   49.4340   32.9530   41.0040 C   0  0  0  0  0  0  0  0  0  0  0  0
   49.7850   33.4400   41.9120 H   0  0  0  0  0  0  0  0  0  0  0  0
   50.0950   33.3930   40.2050 H   0  0  0  0  0  0  0  0  0  0  0  0
   49.7090   31.4930   40.9480 C   0  0  0  0  0  0  0  0  0  0  0  0
   50.7420   31.0460   40.1490 C   0  0  0  0  0  0  0  0  0  0  0  0
   51.4740   31.5290   39.4910 H   0  0  0  0  0  0  0  0  0  0  0  0
   50.7680   29.6570   40.2910 C   0  0  0  0  0  0  0  0  0  0  0  0
   51.4220   28.9140   39.8390 H   0  0  0  0  0  0  0  0  0  0  0  0
   49.7670   29.3130   41.1540 N   0  0  0  0  0  0  0  0  0  0  0  0
   49.5480   28.3310   41.4480 H   0  0  0  0  0  0  0  0  0  0  0  0
   49.1540   30.4350   41.5260 N   0  0  0  0  0  0  0  0  0  0  0  0
  1  2  2  0  0  0  0
  1 19  1  0  0  0  0
  3  1  1  0  0  0  0
  4  3  1  0  0  0  0
  4 10  1  0  0  0  0
  5 11  1  0  0  0  0
  5  4  1  0  0  0  0
  6  7  1  0  0  0  0
  6  5  1  0  0  0  0
  7 16  1  0  0  0  0
  7  8  1  0  0  0  0
  8 17  1  6  0  0  0
  8 36  1  0  0  0  0
  8  3  1  0  0  0  0
  9  4  1  0  0  0  0
 12  5  1  0  0  0  0
 13  6  1  0  0  0  0
 14  6  1  0  0  0  0
 15  7  1  0  0  0  0
 18 19  2  0  0  0  0
 18 23  1  0  0  0  0
 19 20  1  0  0  0  0
 20 26  1  0  0  0  0
 20 21  2  0  0  0  0
 22 25  1  0  0  0  0
 22 21  1  0  0  0  0
 23 22  2  0  0  0  0
 24 18  1  0  0  0  0
 26 31  1  0  0  0  0
 27 28  1  0  0  0  0
 27 26  2  0  0  0  0
 28 29  2  0  0  0  0
 29 34  1  0  0  0  0
 29 30  1  0  0  0  0
 30 35  1  0  0  0  0
 31 30  2  0  0  0  0
 32 27  1  0  0  0  0
 33 28  1  0  0  0  0
 36 37  1  0  0  0  0
 38 36  1  0  0  0  0
 39 36  1  0  0  0  0
 39 46  2  0  0  0  0
 40 42  2  0  0  0  0
 40 39  1  0  0  0  0
 41 40  1  0  0  0  0
 42 44  1  0  0  0  0
 43 42  1  0  0  0  0
 44 45  1  0  0  0  0
 44 46  1  0  0  0  0
M  END
>  <minimizedAffinity>
-4.8694725

>  <minimizedRMSD>
0.810759425

$$$$
