
 OpenBabel03252507223D

 46 49  0  0  1  0  0  0  0  0999 V2000
   47.3240   33.7010   42.8410 C   0  0  0  0  0  0  0  0  0  0  0  0
   48.4460   33.5190   43.4310 O   0  0  0  0  0  0  0  0  0  0  0  0
   47.0240   33.1760   41.5540 N   0  0  0  0  0  0  0  0  0  0  0  0
   45.8090   32.5130   41.0610 C   0  0  0  0  0  0  0  0  0  0  0  0
   45.3560   33.1810   39.7720 C   0  0  0  0  0  0  0  0  0  0  0  0
   46.3930   33.0480   38.6970 C   0  0  0  0  0  0  0  0  0  0  0  0
   47.6880   32.5480   39.3110 C   0  0  0  0  0  0  0  0  0  0  0  0
   48.0420   33.2910   40.5470 C   0  0  2  0  0  0  0  0  0  0  0  0
   45.9550   31.4340   40.9410 H   0  0  0  0  0  0  0  0  0  0  0  0
   44.9970   32.7290   41.8090 H   0  0  0  0  0  0  0  0  0  0  0  0
   45.1030   34.2300   40.0280 H   0  0  0  0  0  0  0  0  0  0  0  0
   44.4290   32.6330   39.4640 H   0  0  0  0  0  0  0  0  0  0  0  0
   46.1060   32.4170   37.8520 H   0  0  0  0  0  0  0  0  0  0  0  0
   46.5580   34.0820   38.2740 H   0  0  0  0  0  0  0  0  0  0  0  0
   48.5160   32.6050   38.5810 H   0  0  0  0  0  0  0  0  0  0  0  0
   47.5330   31.4540   39.4860 H   0  0  0  0  0  0  0  0  0  0  0  0
   48.0890   34.3720   40.2770 H   0  0  0  0  0  0  0  0  0  0  0  0
   45.9380   35.7140   42.9570 C   0  0  0  0  0  0  0  0  0  0  0  0
   46.3210   34.4830   43.5280 C   0  0  0  0  0  0  0  0  0  0  0  0
   45.7460   34.0480   44.7090 C   0  0  0  0  0  0  0  0  0  0  0  0
   44.8160   34.8460   45.2800 N   0  0  0  0  0  0  0  0  0  0  0  0
   44.4310   36.0400   44.7470 C   0  0  0  0  0  0  0  0  0  0  0  0
   45.0050   36.4520   43.5870 N   0  0  0  0  0  0  0  0  0  0  0  0
   46.3920   36.0440   42.0360 H   0  0  0  0  0  0  0  0  0  0  0  0
   43.6960   36.6630   45.2040 H   0  0  0  0  0  0  0  0  0  0  0  0
   46.1600   32.7870   45.2640 C   0  0  0  0  0  0  0  0  0  0  0  0
   45.8100   31.6200   44.6710 C   0  0  0  0  0  0  0  0  0  0  0  0
   46.2240   30.4280   45.2300 C   0  0  0  0  0  0  0  0  0  0  0  0
   46.9940   30.3670   46.3910 C   0  0  0  0  0  0  0  0  0  0  0  0
   47.3270   31.6000   46.9630 C   0  0  0  0  0  0  0  0  0  0  0  0
   46.9070   32.7270   46.3910 N   0  0  0  0  0  0  0  0  0  0  0  0
   45.2180   31.5410   43.7700 H   0  0  0  0  0  0  0  0  0  0  0  0
   45.9800   29.4520   44.8070 H   0  0  0  0  0  0  0  0  0  0  0  0
   47.3490   29.4930   46.8790 H   0  0  0  0  0  0  0  0  0  0  0  0
   47.9210   31.7400   47.8700 H   0  0  0  0  0  0  0  0  0  0  0  0
   49.4190   32.9250   41.0060 C   0  0  0  0  0  0  0  0  0  0  0  0
   49.7380   33.3370   41.9620 H   0  0  0  0  0  0  0  0  0  0  0  0
   50.0860   33.4520   40.2650 H   0  0  0  0  0  0  0  0  0  0  0  0
   49.7360   31.4830   40.8250 C   0  0  0  0  0  0  0  0  0  0  0  0
   49.2930   30.5860   41.7770 C   0  0  0  0  0  0  0  0  0  0  0  0
   48.7210   30.6680   42.7080 H   0  0  0  0  0  0  0  0  0  0  0  0
   49.7290   29.3280   41.3540 C   0  0  0  0  0  0  0  0  0  0  0  0
   49.5980   28.3480   41.8080 H   0  0  0  0  0  0  0  0  0  0  0  0
   50.4090   29.5000   40.1840 N   0  0  0  0  0  0  0  0  0  0  0  0
   50.8510   28.7250   39.6340 H   0  0  0  0  0  0  0  0  0  0  0  0
   50.3940   30.8010   39.8970 N   0  0  0  0  0  0  0  0  0  0  0  0
  1  2  2  0  0  0  0
  1 19  1  0  0  0  0
  3  1  1  0  0  0  0
  4  3  1  0  0  0  0
  4 10  1  0  0  0  0
  5 11  1  0  0  0  0
  5  4  1  0  0  0  0
  6  7  1  0  0  0  0
  6  5  1  0  0  0  0
  7 16  1  0  0  0  0
  7  8  1  0  0  0  0
  8 17  1  6  0  0  0
  8 36  1  0  0  0  0
  8  3  1  0  0  0  0
  9  4  1  0  0  0  0
 12  5  1  0  0  0  0
 13  6  1  0  0  0  0
 14  6  1  0  0  0  0
 15  7  1  0  0  0  0
 18 19  2  0  0  0  0
 18 23  1  0  0  0  0
 19 20  1  0  0  0  0
 20 26  1  0  0  0  0
 20 21  2  0  0  0  0
 22 25  1  0  0  0  0
 22 21  1  0  0  0  0
 23 22  2  0  0  0  0
 24 18  1  0  0  0  0
 26 31  1  0  0  0  0
 27 28  1  0  0  0  0
 27 26  2  0  0  0  0
 28 29  2  0  0  0  0
 29 34  1  0  0  0  0
 29 30  1  0  0  0  0
 30 35  1  0  0  0  0
 31 30  2  0  0  0  0
 32 27  1  0  0  0  0
 33 28  1  0  0  0  0
 36 37  1  0  0  0  0
 38 36  1  0  0  0  0
 39 36  1  0  0  0  0
 39 40  1  0  0  0  0
 40 41  1  0  0  0  0
 42 40  2  0  0  0  0
 42 43  1  0  0  0  0
 44 42  1  0  0  0  0
 45 44  1  0  0  0  0
 46 44  1  0  0  0  0
 46 39  2  0  0  0  0
M  END
>  <minimizedAffinity>
-4.86741686

>  <minimizedRMSD>
0.611279368

$$$$
