
 OpenBabel03252502593D

 21 22  0  0  0  0  0  0  0  0999 V2000
   43.0840   33.8620   40.9890 C   0  0  0  0  0  0  0  0  0  0  0  0
   42.7310   33.1550   41.7880 H   0  0  0  0  0  0  0  0  0  0  0  0
   43.3300   33.2650   40.1110 H   0  0  0  0  0  0  0  0  0  0  0  0
   41.9680   34.7890   40.6610 C   0  0  0  0  0  0  0  0  0  0  0  0
   41.1210   35.5520   41.4370 C   0  0  0  0  0  0  0  0  0  0  0  0
   41.1840   35.5590   42.5110 H   0  0  0  0  0  0  0  0  0  0  0  0
   40.2590   36.2340   40.6010 C   0  0  0  0  0  0  0  0  0  0  0  0
   39.4800   36.9100   40.8920 H   0  0  0  0  0  0  0  0  0  0  0  0
   40.5900   35.8820   39.3450 N   0  0  0  0  0  0  0  0  0  0  0  0
   40.1770   36.1800   38.4370 H   0  0  0  0  0  0  0  0  0  0  0  0
   41.5840   35.0420   39.3840 N   0  0  0  0  0  0  0  0  0  0  0  0
   44.4940   34.8460   41.5270 S   0  0  0  0  0  0  0  0  0  0  0  0
   44.4090   35.6030   44.2230 C   0  0  0  0  0  0  0  0  0  0  0  0
   44.7700   34.6380   43.2860 C   0  0  0  0  0  0  0  0  0  0  0  0
   45.3700   33.4570   43.7140 C   0  0  0  0  0  0  0  0  0  0  0  0
   45.5830   33.2950   45.0670 N   0  0  0  0  0  0  0  0  0  0  0  0
   45.2180   34.2540   45.9250 C   0  0  0  0  0  0  0  0  0  0  0  0
   44.6390   35.3980   45.5370 N   0  0  0  0  0  0  0  0  0  0  0  0
   43.9480   36.4940   43.8100 H   0  0  0  0  0  0  0  0  0  0  0  0
   45.6780   32.6620   43.0440 H   0  0  0  0  0  0  0  0  0  0  0  0
   45.3860   34.1270   46.9920 H   0  0  0  0  0  0  0  0  0  0  0  0
  1 12  1  0  0  0  0
  1  2  1  0  0  0  0
  3  1  1  0  0  0  0
  4  1  1  0  0  0  0
  4  5  1  0  0  0  0
  5  6  1  0  0  0  0
  7  8  1  0  0  0  0
  7  5  2  0  0  0  0
  9 11  1  0  0  0  0
  9  7  1  0  0  0  0
 10  9  1  0  0  0  0
 11  4  2  0  0  0  0
 12 14  1  0  0  0  0
 13 18  1  0  0  0  0
 14 15  1  0  0  0  0
 14 13  2  0  0  0  0
 15 16  2  0  0  0  0
 16 17  1  0  0  0  0
 17 21  1  0  0  0  0
 18 17  2  0  0  0  0
 19 13  1  0  0  0  0
 20 15  1  0  0  0  0
M  END
>  <minimizedAffinity>
-3.90603137

>  <minimizedRMSD>
2.07219553

$$$$
