
 OpenBabel03252500303D

 27 29  0  0  1  0  0  0  0  0999 V2000
   36.2980   30.5930   41.0210 C   0  0  1  0  0  0  0  0  0  0  0  0
   36.9490   31.7930   40.5500 C   0  0  0  0  0  0  0  0  0  0  0  0
   36.6050   30.7730   39.5320 C   0  0  1  0  0  0  0  0  0  0  0  0
   35.2040   30.6170   41.2770 H   0  0  0  0  0  0  0  0  0  0  0  0
   38.0490   31.9050   40.7670 H   0  0  0  0  0  0  0  0  0  0  0  0
   36.4470   32.7950   40.5550 H   0  0  0  0  0  0  0  0  0  0  0  0
   35.7230   31.0560   38.8900 H   0  0  0  0  0  0  0  0  0  0  0  0
   36.4680   28.2160   41.8340 C   0  0  0  0  0  0  0  0  0  0  0  0
   37.0280   29.5280   41.7540 C   0  0  0  0  0  0  0  0  0  0  0  0
   38.2390   29.7670   42.3800 C   0  0  0  0  0  0  0  0  0  0  0  0
   38.8240   28.7230   43.0380 N   0  0  0  0  0  0  0  0  0  0  0  0
   38.2730   27.4890   43.0990 C   0  0  0  0  0  0  0  0  0  0  0  0
   37.0790   27.2100   42.4950 N   0  0  0  0  0  0  0  0  0  0  0  0
   35.5230   27.9820   41.3600 H   0  0  0  0  0  0  0  0  0  0  0  0
   38.6990   30.7430   42.3450 H   0  0  0  0  0  0  0  0  0  0  0  0
   38.7950   26.7130   43.6380 H   0  0  0  0  0  0  0  0  0  0  0  0
   37.6400   29.9250   38.9040 C   0  0  0  0  0  0  0  0  0  0  0  0
   38.2930   29.3820   39.6220 H   0  0  0  0  0  0  0  0  0  0  0  0
   37.2540   29.2040   38.1380 H   0  0  0  0  0  0  0  0  0  0  0  0
   38.5830   30.8380   38.1660 C   0  0  0  0  0  0  0  0  0  0  0  0
   39.9320   30.9920   38.4000 C   0  0  0  0  0  0  0  0  0  0  0  0
   40.4330   30.4350   39.1760 H   0  0  0  0  0  0  0  0  0  0  0  0
   40.4510   31.9190   37.5180 C   0  0  0  0  0  0  0  0  0  0  0  0
   41.4760   32.2500   37.4560 H   0  0  0  0  0  0  0  0  0  0  0  0
   39.3870   32.3030   36.7660 N   0  0  0  0  0  0  0  0  0  0  0  0
   39.4160   33.0120   35.9800 H   0  0  0  0  0  0  0  0  0  0  0  0
   38.2820   31.6690   37.1430 N   0  0  0  0  0  0  0  0  0  0  0  0
  1  4  1  1  0  0  0
  1  9  1  0  0  0  0
  2  6  1  0  0  0  0
  2  5  1  0  0  0  0
  2  1  1  0  0  0  0
  3  7  1  6  0  0  0
  3  2  1  0  0  0  0
  3  1  1  0  0  0  0
  8 13  1  0  0  0  0
  9  8  2  0  0  0  0
  9 10  1  0  0  0  0
 10 11  2  0  0  0  0
 11 12  1  0  0  0  0
 12 16  1  0  0  0  0
 13 12  2  0  0  0  0
 14  8  1  0  0  0  0
 15 10  1  0  0  0  0
 17  3  1  0  0  0  0
 17 18  1  0  0  0  0
 19 17  1  0  0  0  0
 20 21  1  0  0  0  0
 20 17  1  0  0  0  0
 21 22  1  0  0  0  0
 23 21  2  0  0  0  0
 24 23  1  0  0  0  0
 25 27  1  0  0  0  0
 25 23  1  0  0  0  0
 26 25  1  0  0  0  0
 27 20  2  0  0  0  0
M  END
>  <minimizedAffinity>
-4.61992693

$$$$

 OpenBabel03252500303D

 27 29  0  0  1  0  0  0  0  0999 V2000
   37.6850   28.4770   43.6730 C   0  0  1  0  0  0  0  0  0  0  0  0
   36.6340   27.5050   43.4860 C   0  0  0  0  0  0  0  0  0  0  0  0
   38.0270   27.0300   43.3050 C   0  0  1  0  0  0  0  0  0  0  0  0
   37.9870   28.7760   44.7120 H   0  0  0  0  0  0  0  0  0  0  0  0
   36.0240   27.5760   42.5410 H   0  0  0  0  0  0  0  0  0  0  0  0
   36.0020   27.1280   44.3300 H   0  0  0  0  0  0  0  0  0  0  0  0
   38.3990   26.3930   44.1580 H   0  0  0  0  0  0  0  0  0  0  0  0
   36.9790   29.9020   41.7210 C   0  0  0  0  0  0  0  0  0  0  0  0
   37.9800   29.5320   42.6710 C   0  0  0  0  0  0  0  0  0  0  0  0
   39.2080   30.1670   42.6160 C   0  0  0  0  0  0  0  0  0  0  0  0
   39.3830   31.1160   41.6490 N   0  0  0  0  0  0  0  0  0  0  0  0
   38.4190   31.4490   40.7600 C   0  0  0  0  0  0  0  0  0  0  0  0
   37.1930   30.8460   40.7790 N   0  0  0  0  0  0  0  0  0  0  0  0
   36.0040   29.4330   41.7250 H   0  0  0  0  0  0  0  0  0  0  0  0
   39.9940   29.9200   43.3130 H   0  0  0  0  0  0  0  0  0  0  0  0
   38.6310   32.2080   40.0230 H   0  0  0  0  0  0  0  0  0  0  0  0
   38.5790   26.7400   41.9660 C   0  0  0  0  0  0  0  0  0  0  0  0
   38.1620   27.3640   41.1460 H   0  0  0  0  0  0  0  0  0  0  0  0
   39.6980   26.7540   41.9080 H   0  0  0  0  0  0  0  0  0  0  0  0
   38.1710   25.3360   41.6050 C   0  0  0  0  0  0  0  0  0  0  0  0
   37.1110   24.9670   40.8050 C   0  0  0  0  0  0  0  0  0  0  0  0
   36.4640   25.7050   40.3570 H   0  0  0  0  0  0  0  0  0  0  0  0
   37.0600   23.5910   40.7100 C   0  0  0  0  0  0  0  0  0  0  0  0
   36.3430   23.0060   40.1550 H   0  0  0  0  0  0  0  0  0  0  0  0
   38.1050   23.1610   41.4650 N   0  0  0  0  0  0  0  0  0  0  0  0
   38.3730   22.1490   41.6210 H   0  0  0  0  0  0  0  0  0  0  0  0
   38.7630   24.1870   41.9950 N   0  0  0  0  0  0  0  0  0  0  0  0
  1  4  1  1  0  0  0
  2  1  1  0  0  0  0
  2  6  1  0  0  0  0
  3  2  1  0  0  0  0
  3  1  1  0  0  0  0
  3  7  1  1  0  0  0
  5  2  1  0  0  0  0
  8 14  1  0  0  0  0
  8  9  1  0  0  0  0
  9  1  1  0  0  0  0
 10  9  2  0  0  0  0
 10 15  1  0  0  0  0
 11 10  1  0  0  0  0
 12 13  1  0  0  0  0
 12 11  2  0  0  0  0
 13  8  2  0  0  0  0
 16 12  1  0  0  0  0
 17  3  1  0  0  0  0
 18 17  1  0  0  0  0
 19 17  1  0  0  0  0
 20 17  1  0  0  0  0
 20 27  2  0  0  0  0
 21 20  1  0  0  0  0
 22 21  1  0  0  0  0
 23 21  2  0  0  0  0
 23 25  1  0  0  0  0
 24 23  1  0  0  0  0
 25 26  1  0  0  0  0
 25 27  1  0  0  0  0
M  END
>  <minimizedAffinity>
-4.58759785

$$$$

 OpenBabel03252500303D

 27 29  0  0  1  0  0  0  0  0999 V2000
   36.8340   26.9270   43.1410 C   0  0  1  0  0  0  0  0  0  0  0  0
   37.4320   28.1660   43.5770 C   0  0  0  0  0  0  0  0  0  0  0  0
   36.5180   28.2360   42.4130 C   0  0  1  0  0  0  0  0  0  0  0  0
   35.9720   26.4930   43.7150 H   0  0  0  0  0  0  0  0  0  0  0  0
   38.5230   28.3270   43.3420 H   0  0  0  0  0  0  0  0  0  0  0  0
   37.1670   28.6570   44.5490 H   0  0  0  0  0  0  0  0  0  0  0  0
   35.5140   28.6900   42.6550 H   0  0  0  0  0  0  0  0  0  0  0  0
   36.9010   24.8260   41.7530 C   0  0  0  0  0  0  0  0  0  0  0  0
   37.5990   25.8920   42.4000 C   0  0  0  0  0  0  0  0  0  0  0  0
   38.9810   25.9170   42.3240 C   0  0  0  0  0  0  0  0  0  0  0  0
   39.5910   24.9120   41.6290 N   0  0  0  0  0  0  0  0  0  0  0  0
   38.9060   23.9130   41.0240 C   0  0  0  0  0  0  0  0  0  0  0  0
   37.5420   23.8510   41.0750 N   0  0  0  0  0  0  0  0  0  0  0  0
   35.8210   24.7650   41.7850 H   0  0  0  0  0  0  0  0  0  0  0  0
   39.5500   26.7020   42.7970 H   0  0  0  0  0  0  0  0  0  0  0  0
   39.4580   23.1530   40.4930 H   0  0  0  0  0  0  0  0  0  0  0  0
   37.0240   28.4360   41.0390 C   0  0  0  0  0  0  0  0  0  0  0  0
   38.0630   28.0750   40.8700 H   0  0  0  0  0  0  0  0  0  0  0  0
   36.3590   28.0360   40.2320 H   0  0  0  0  0  0  0  0  0  0  0  0
   37.1070   29.9210   40.8020 C   0  0  0  0  0  0  0  0  0  0  0  0
   38.2060   30.6230   40.3550 C   0  0  0  0  0  0  0  0  0  0  0  0
   39.1370   30.1250   40.1320 H   0  0  0  0  0  0  0  0  0  0  0  0
   37.8920   31.9640   40.2630 C   0  0  0  0  0  0  0  0  0  0  0  0
   38.5440   32.7620   39.9440 H   0  0  0  0  0  0  0  0  0  0  0  0
   36.5950   32.0350   40.6620 N   0  0  0  0  0  0  0  0  0  0  0  0
   36.0180   32.9210   40.7170 H   0  0  0  0  0  0  0  0  0  0  0  0
   36.1270   30.8330   40.9810 N   0  0  0  0  0  0  0  0  0  0  0  0
  1  2  1  0  0  0  0
  1  4  1  1  0  0  0
  2  6  1  0  0  0  0
  3  7  1  1  0  0  0
  3  1  1  0  0  0  0
  3  2  1  0  0  0  0
  5  2  1  0  0  0  0
  8 14  1  0  0  0  0
  8  9  1  0  0  0  0
  9  1  1  0  0  0  0
 10  9  2  0  0  0  0
 10 15  1  0  0  0  0
 11 10  1  0  0  0  0
 12 13  1  0  0  0  0
 12 11  2  0  0  0  0
 13  8  2  0  0  0  0
 16 12  1  0  0  0  0
 17  3  1  0  0  0  0
 18 17  1  0  0  0  0
 19 17  1  0  0  0  0
 20 27  2  0  0  0  0
 20 17  1  0  0  0  0
 21 20  1  0  0  0  0
 22 21  1  0  0  0  0
 23 21  2  0  0  0  0
 23 25  1  0  0  0  0
 24 23  1  0  0  0  0
 25 26  1  0  0  0  0
 25 27  1  0  0  0  0
M  END
>  <minimizedAffinity>
-4.57795095

$$$$

 OpenBabel03252500303D

 27 29  0  0  1  0  0  0  0  0999 V2000
   37.7250   28.7530   43.6580 C   0  0  1  0  0  0  0  0  0  0  0  0
   36.9100   27.5620   43.6770 C   0  0  0  0  0  0  0  0  0  0  0  0
   38.3780   27.3680   43.6190 C   0  0  1  0  0  0  0  0  0  0  0  0
   37.9000   29.3230   44.6100 H   0  0  0  0  0  0  0  0  0  0  0  0
   36.3520   27.3000   42.7340 H   0  0  0  0  0  0  0  0  0  0  0  0
   36.3210   27.2460   44.5770 H   0  0  0  0  0  0  0  0  0  0  0  0
   38.8250   27.0200   44.5940 H   0  0  0  0  0  0  0  0  0  0  0  0
   39.0370   30.3850   42.2590 C   0  0  0  0  0  0  0  0  0  0  0  0
   37.8530   29.6100   42.4520 C   0  0  0  0  0  0  0  0  0  0  0  0
   36.8470   29.6960   41.5050 C   0  0  0  0  0  0  0  0  0  0  0  0
   37.0560   30.5230   40.4380 N   0  0  0  0  0  0  0  0  0  0  0  0
   38.1890   31.2460   40.2780 C   0  0  0  0  0  0  0  0  0  0  0  0
   39.2050   31.1910   41.1890 N   0  0  0  0  0  0  0  0  0  0  0  0
   39.8500   30.3500   42.9730 H   0  0  0  0  0  0  0  0  0  0  0  0
   35.9350   29.1290   41.6100 H   0  0  0  0  0  0  0  0  0  0  0  0
   38.2820   31.8790   39.4080 H   0  0  0  0  0  0  0  0  0  0  0  0
   39.0530   26.9250   42.3820 C   0  0  0  0  0  0  0  0  0  0  0  0
   38.5090   26.1410   41.8100 H   0  0  0  0  0  0  0  0  0  0  0  0
   39.3440   27.7530   41.6860 H   0  0  0  0  0  0  0  0  0  0  0  0
   40.3420   26.2600   42.7860 C   0  0  0  0  0  0  0  0  0  0  0  0
   41.3680   26.8240   43.5110 C   0  0  0  0  0  0  0  0  0  0  0  0
   41.3130   27.8440   43.8600 H   0  0  0  0  0  0  0  0  0  0  0  0
   42.3790   25.9000   43.6800 C   0  0  0  0  0  0  0  0  0  0  0  0
   43.3110   26.0470   44.2030 H   0  0  0  0  0  0  0  0  0  0  0  0
   41.9290   24.7870   43.0430 N   0  0  0  0  0  0  0  0  0  0  0  0
   42.4520   23.8700   42.9680 H   0  0  0  0  0  0  0  0  0  0  0  0
   40.7270   24.9940   42.5140 N   0  0  0  0  0  0  0  0  0  0  0  0
  1  2  1  0  0  0  0
  1  4  1  1  0  0  0
  2  6  1  0  0  0  0
  3  1  1  0  0  0  0
  3  2  1  0  0  0  0
  3  7  1  1  0  0  0
  5  2  1  0  0  0  0
  8  9  1  0  0  0  0
  8 14  1  0  0  0  0
  9  1  1  0  0  0  0
 10 15  1  0  0  0  0
 10  9  2  0  0  0  0
 11 10  1  0  0  0  0
 12 11  2  0  0  0  0
 12 13  1  0  0  0  0
 13  8  2  0  0  0  0
 16 12  1  0  0  0  0
 17 20  1  0  0  0  0
 17  3  1  0  0  0  0
 18 17  1  0  0  0  0
 19 17  1  0  0  0  0
 20 21  1  0  0  0  0
 21 23  2  0  0  0  0
 21 22  1  0  0  0  0
 23 24  1  0  0  0  0
 25 23  1  0  0  0  0
 26 25  1  0  0  0  0
 27 20  2  0  0  0  0
 27 25  1  0  0  0  0
M  END
>  <minimizedAffinity>
-4.42119598

$$$$

 OpenBabel03252500303D

 27 29  0  0  1  0  0  0  0  0999 V2000
   36.2600   28.5490   40.1320 C   0  0  1  0  0  0  0  0  0  0  0  0
   34.9220   29.0780   40.2550 C   0  0  0  0  0  0  0  0  0  0  0  0
   35.9930   30.0390   39.9030 C   0  0  1  0  0  0  0  0  0  0  0  0
   36.5500   27.9800   39.2080 H   0  0  0  0  0  0  0  0  0  0  0  0
   34.5010   29.1870   41.2950 H   0  0  0  0  0  0  0  0  0  0  0  0
   34.1050   28.8330   39.5280 H   0  0  0  0  0  0  0  0  0  0  0  0
   35.9710   30.3620   38.8230 H   0  0  0  0  0  0  0  0  0  0  0  0
   38.4940   28.0580   41.1840 C   0  0  0  0  0  0  0  0  0  0  0  0
   37.0760   28.1660   41.3120 C   0  0  0  0  0  0  0  0  0  0  0  0
   36.5020   27.8950   42.5420 C   0  0  0  0  0  0  0  0  0  0  0  0
   37.3390   27.5400   43.5620 N   0  0  0  0  0  0  0  0  0  0  0  0
   38.6810   27.4450   43.4140 C   0  0  0  0  0  0  0  0  0  0  0  0
   39.2870   27.7040   42.2180 N   0  0  0  0  0  0  0  0  0  0  0  0
   38.9870   28.2610   40.2410 H   0  0  0  0  0  0  0  0  0  0  0  0
   35.4350   27.9640   42.6850 H   0  0  0  0  0  0  0  0  0  0  0  0
   39.2770   27.1580   44.2670 H   0  0  0  0  0  0  0  0  0  0  0  0
   36.5080   31.0200   40.8800 C   0  0  0  0  0  0  0  0  0  0  0  0
   35.7540   31.7530   41.2440 H   0  0  0  0  0  0  0  0  0  0  0  0
   37.0390   30.5710   41.7580 H   0  0  0  0  0  0  0  0  0  0  0  0
   37.5320   31.8670   40.1720 C   0  0  0  0  0  0  0  0  0  0  0  0
   38.6830   31.4240   39.5560 C   0  0  0  0  0  0  0  0  0  0  0  0
   38.9420   30.3770   39.5400 H   0  0  0  0  0  0  0  0  0  0  0  0
   39.3630   32.4990   39.0200 C   0  0  0  0  0  0  0  0  0  0  0  0
   40.2960   32.4700   38.4780 H   0  0  0  0  0  0  0  0  0  0  0  0
   38.5940   33.5750   39.3310 N   0  0  0  0  0  0  0  0  0  0  0  0
   38.8120   34.5780   39.0740 H   0  0  0  0  0  0  0  0  0  0  0  0
   37.5120   33.2080   40.0100 N   0  0  0  0  0  0  0  0  0  0  0  0
  1  4  1  6  0  0  0
  1  2  1  0  0  0  0
  1  9  1  0  0  0  0
  2  5  1  0  0  0  0
  3  7  1  6  0  0  0
  3  1  1  0  0  0  0
  3  2  1  0  0  0  0
  3 17  1  0  0  0  0
  6  2  1  0  0  0  0
  8  9  2  0  0  0  0
  8 13  1  0  0  0  0
  9 10  1  0  0  0  0
 10 15  1  0  0  0  0
 10 11  2  0  0  0  0
 12 11  1  0  0  0  0
 12 16  1  0  0  0  0
 13 12  2  0  0  0  0
 14  8  1  0  0  0  0
 17 18  1  0  0  0  0
 17 19  1  0  0  0  0
 20 17  1  0  0  0  0
 21 20  1  0  0  0  0
 22 21  1  0  0  0  0
 23 25  1  0  0  0  0
 23 21  2  0  0  0  0
 24 23  1  0  0  0  0
 25 27  1  0  0  0  0
 26 25  1  0  0  0  0
 27 20  2  0  0  0  0
M  END
>  <minimizedAffinity>
-4.31280661

$$$$

 OpenBabel03252500303D

 27 29  0  0  1  0  0  0  0  0999 V2000
   37.0170   30.7580   38.9140 C   0  0  1  0  0  0  0  0  0  0  0  0
   37.4030   29.3910   39.1710 C   0  0  0  0  0  0  0  0  0  0  0  0
   36.3150   29.9500   40.0080 C   0  0  1  0  0  0  0  0  0  0  0  0
   36.3730   30.9970   38.0250 H   0  0  0  0  0  0  0  0  0  0  0  0
   38.3810   29.2200   39.7050 H   0  0  0  0  0  0  0  0  0  0  0  0
   37.2050   28.5600   38.4460 H   0  0  0  0  0  0  0  0  0  0  0  0
   35.2930   29.5600   39.7360 H   0  0  0  0  0  0  0  0  0  0  0  0
   39.2550   31.7340   39.5330 C   0  0  0  0  0  0  0  0  0  0  0  0
   37.8510   31.9130   39.3350 C   0  0  0  0  0  0  0  0  0  0  0  0
   37.3080   33.1650   39.5580 C   0  0  0  0  0  0  0  0  0  0  0  0
   38.1580   34.1580   39.9550 N   0  0  0  0  0  0  0  0  0  0  0  0
   39.4850   33.9640   40.1350 C   0  0  0  0  0  0  0  0  0  0  0  0
   40.0610   32.7430   39.9260 N   0  0  0  0  0  0  0  0  0  0  0  0
   39.7240   30.7720   39.3700 H   0  0  0  0  0  0  0  0  0  0  0  0
   36.2520   33.3460   39.4210 H   0  0  0  0  0  0  0  0  0  0  0  0
   40.0930   34.7970   40.4510 H   0  0  0  0  0  0  0  0  0  0  0  0
   36.5340   30.3130   41.4230 C   0  0  0  0  0  0  0  0  0  0  0  0
   37.3260   31.0760   41.5890 H   0  0  0  0  0  0  0  0  0  0  0  0
   35.6090   30.6160   41.9770 H   0  0  0  0  0  0  0  0  0  0  0  0
   37.0490   29.0860   42.1280 C   0  0  0  0  0  0  0  0  0  0  0  0
   38.2290   28.9750   42.8320 C   0  0  0  0  0  0  0  0  0  0  0  0
   38.9030   29.8120   42.9300 H   0  0  0  0  0  0  0  0  0  0  0  0
   38.3500   27.6950   43.3330 C   0  0  0  0  0  0  0  0  0  0  0  0
   39.1640   27.3050   43.9240 H   0  0  0  0  0  0  0  0  0  0  0  0
   37.2240   27.0600   42.9130 N   0  0  0  0  0  0  0  0  0  0  0  0
   36.9780   26.0510   43.1160 H   0  0  0  0  0  0  0  0  0  0  0  0
   36.4530   27.8760   42.2020 N   0  0  0  0  0  0  0  0  0  0  0  0
  1  4  1  6  0  0  0
  1  2  1  0  0  0  0
  1  9  1  0  0  0  0
  1  3  1  0  0  0  0
  2  5  1  0  0  0  0
  2  3  1  0  0  0  0
  3  7  1  6  0  0  0
  3 17  1  0  0  0  0
  6  2  1  0  0  0  0
  8 13  1  0  0  0  0
  9  8  2  0  0  0  0
  9 10  1  0  0  0  0
 10 11  2  0  0  0  0
 11 12  1  0  0  0  0
 12 16  1  0  0  0  0
 13 12  2  0  0  0  0
 14  8  1  0  0  0  0
 15 10  1  0  0  0  0
 17 18  1  0  0  0  0
 17 19  1  0  0  0  0
 17 20  1  0  0  0  0
 20 27  2  0  0  0  0
 20 21  1  0  0  0  0
 21 22  1  0  0  0  0
 21 23  2  0  0  0  0
 23 24  1  0  0  0  0
 25 26  1  0  0  0  0
 25 23  1  0  0  0  0
 27 25  1  0  0  0  0
M  END
>  <minimizedAffinity>
-4.1976676

$$$$

 OpenBabel03252500303D

 27 29  0  0  1  0  0  0  0  0999 V2000
   35.6350   28.8500   40.8530 C   0  0  1  0  0  0  0  0  0  0  0  0
   35.6580   30.1330   40.1910 C   0  0  0  0  0  0  0  0  0  0  0  0
   35.9080   28.9400   39.3480 C   0  0  1  0  0  0  0  0  0  0  0  0
   34.6500   28.3800   41.1200 H   0  0  0  0  0  0  0  0  0  0  0  0
   36.5550   30.7920   40.3690 H   0  0  0  0  0  0  0  0  0  0  0  0
   34.7380   30.7570   40.0490 H   0  0  0  0  0  0  0  0  0  0  0  0
   35.0380   28.6670   38.6850 H   0  0  0  0  0  0  0  0  0  0  0  0
   36.9520   26.9870   41.9180 C   0  0  0  0  0  0  0  0  0  0  0  0
   36.7400   28.3870   41.7290 C   0  0  0  0  0  0  0  0  0  0  0  0
   37.5730   29.2740   42.3880 C   0  0  0  0  0  0  0  0  0  0  0  0
   38.5520   28.7470   43.1810 N   0  0  0  0  0  0  0  0  0  0  0  0
   38.7320   27.4160   43.3420 C   0  0  0  0  0  0  0  0  0  0  0  0
   37.9320   26.5060   42.7110 N   0  0  0  0  0  0  0  0  0  0  0  0
   36.3250   26.2550   41.4230 H   0  0  0  0  0  0  0  0  0  0  0  0
   37.4500   30.3400   42.2760 H   0  0  0  0  0  0  0  0  0  0  0  0
   39.5280   27.0740   43.9860 H   0  0  0  0  0  0  0  0  0  0  0  0
   37.2580   28.6170   38.8430 C   0  0  0  0  0  0  0  0  0  0  0  0
   38.0500   29.3390   39.1390 H   0  0  0  0  0  0  0  0  0  0  0  0
   37.6050   27.5750   39.0670 H   0  0  0  0  0  0  0  0  0  0  0  0
   37.2120   28.7170   37.3410 C   0  0  0  0  0  0  0  0  0  0  0  0
   36.2090   29.2830   36.5830 C   0  0  0  0  0  0  0  0  0  0  0  0
   35.3360   29.7180   37.0460 H   0  0  0  0  0  0  0  0  0  0  0  0
   36.5280   29.1820   35.2450 C   0  0  0  0  0  0  0  0  0  0  0  0
   35.9400   29.5330   34.4110 H   0  0  0  0  0  0  0  0  0  0  0  0
   37.7300   28.5510   35.2300 N   0  0  0  0  0  0  0  0  0  0  0  0
   38.2830   28.3050   34.3610 H   0  0  0  0  0  0  0  0  0  0  0  0
   38.1390   28.2740   36.4640 N   0  0  0  0  0  0  0  0  0  0  0  0
  1  4  1  1  0  0  0
  1  9  1  0  0  0  0
  2  5  1  0  0  0  0
  2  1  1  0  0  0  0
  3  7  1  6  0  0  0
  3  2  1  0  0  0  0
  3  1  1  0  0  0  0
  6  2  1  0  0  0  0
  8 13  1  0  0  0  0
  9  8  2  0  0  0  0
  9 10  1  0  0  0  0
 10 11  2  0  0  0  0
 11 12  1  0  0  0  0
 12 16  1  0  0  0  0
 13 12  2  0  0  0  0
 14  8  1  0  0  0  0
 15 10  1  0  0  0  0
 17 19  1  0  0  0  0
 17 18  1  0  0  0  0
 17  3  1  0  0  0  0
 20 17  1  0  0  0  0
 21 22  1  0  0  0  0
 21 20  1  0  0  0  0
 23 21  2  0  0  0  0
 24 23  1  0  0  0  0
 25 23  1  0  0  0  0
 25 27  1  0  0  0  0
 26 25  1  0  0  0  0
 27 20  2  0  0  0  0
M  END
>  <minimizedAffinity>
-4.16251993

$$$$

 OpenBabel03252500303D

 27 29  0  0  1  0  0  0  0  0999 V2000
   38.2430   25.0920   41.2580 C   0  0  1  0  0  0  0  0  0  0  0  0
   37.1180   24.7070   42.0780 C   0  0  0  0  0  0  0  0  0  0  0  0
   37.1120   26.0870   41.5360 C   0  0  1  0  0  0  0  0  0  0  0  0
   38.3010   24.7390   40.1930 H   0  0  0  0  0  0  0  0  0  0  0  0
   37.2890   24.6280   43.1890 H   0  0  0  0  0  0  0  0  0  0  0  0
   36.3570   23.9550   41.7470 H   0  0  0  0  0  0  0  0  0  0  0  0
   36.3840   26.2350   40.6890 H   0  0  0  0  0  0  0  0  0  0  0  0
   40.5060   26.1820   41.0880 C   0  0  0  0  0  0  0  0  0  0  0  0
   39.5800   25.3870   41.8310 C   0  0  0  0  0  0  0  0  0  0  0  0
   39.9710   24.9030   43.0670 C   0  0  0  0  0  0  0  0  0  0  0  0
   41.2270   25.2220   43.4990 N   0  0  0  0  0  0  0  0  0  0  0  0
   42.0850   25.9780   42.7760 C   0  0  0  0  0  0  0  0  0  0  0  0
   41.7400   26.4740   41.5510 N   0  0  0  0  0  0  0  0  0  0  0  0
   40.2450   26.5820   40.1160 H   0  0  0  0  0  0  0  0  0  0  0  0
   39.3040   24.2990   43.6630 H   0  0  0  0  0  0  0  0  0  0  0  0
   43.0620   26.1870   43.1830 H   0  0  0  0  0  0  0  0  0  0  0  0
   37.3820   27.2580   42.3950 C   0  0  0  0  0  0  0  0  0  0  0  0
   36.9390   27.1990   43.4140 H   0  0  0  0  0  0  0  0  0  0  0  0
   38.4630   27.5390   42.4780 H   0  0  0  0  0  0  0  0  0  0  0  0
   36.6990   28.4440   41.7660 C   0  0  0  0  0  0  0  0  0  0  0  0
   35.8550   28.4260   40.6760 C   0  0  0  0  0  0  0  0  0  0  0  0
   35.6130   27.5040   40.1710 H   0  0  0  0  0  0  0  0  0  0  0  0
   35.4310   29.7100   40.3990 C   0  0  0  0  0  0  0  0  0  0  0  0
   34.7650   30.0150   39.6070 H   0  0  0  0  0  0  0  0  0  0  0  0
   36.0370   30.4780   41.3420 N   0  0  0  0  0  0  0  0  0  0  0  0
   35.9370   31.5270   41.4350 H   0  0  0  0  0  0  0  0  0  0  0  0
   36.7870   29.7360   42.1510 N   0  0  0  0  0  0  0  0  0  0  0  0
  1  4  1  6  0  0  0
  1  3  1  0  0  0  0
  1  9  1  0  0  0  0
  1  2  1  0  0  0  0
  2  5  1  0  0  0  0
  3  7  1  6  0  0  0
  3  2  1  0  0  0  0
  3 17  1  0  0  0  0
  6  2  1  0  0  0  0
  8 13  2  0  0  0  0
  8  9  1  0  0  0  0
  9 10  2  0  0  0  0
 10 11  1  0  0  0  0
 10 15  1  0  0  0  0
 12 16  1  0  0  0  0
 12 11  2  0  0  0  0
 13 12  1  0  0  0  0
 14  8  1  0  0  0  0
 17 19  1  0  0  0  0
 17 18  1  0  0  0  0
 20 27  2  0  0  0  0
 20 17  1  0  0  0  0
 21 20  1  0  0  0  0
 22 21  1  0  0  0  0
 23 21  2  0  0  0  0
 23 25  1  0  0  0  0
 24 23  1  0  0  0  0
 25 26  1  0  0  0  0
 25 27  1  0  0  0  0
M  END
>  <minimizedAffinity>
-4.13312626

$$$$

 OpenBabel03252500303D

 27 29  0  0  1  0  0  0  0  0999 V2000
   39.9800   29.5450   42.6730 C   0  0  1  0  0  0  0  0  0  0  0  0
   40.9760   29.5860   41.6290 C   0  0  0  0  0  0  0  0  0  0  0  0
   39.9090   30.6130   41.5780 C   0  0  1  0  0  0  0  0  0  0  0  0
   40.2280   29.9410   43.6950 H   0  0  0  0  0  0  0  0  0  0  0  0
   40.9210   28.7950   40.8280 H   0  0  0  0  0  0  0  0  0  0  0  0
   42.0420   29.8720   41.8210 H   0  0  0  0  0  0  0  0  0  0  0  0
   40.2570   31.6400   41.8860 H   0  0  0  0  0  0  0  0  0  0  0  0
   39.0770   27.2950   41.9920 C   0  0  0  0  0  0  0  0  0  0  0  0
   38.9070   28.5190   42.7080 C   0  0  0  0  0  0  0  0  0  0  0  0
   37.7290   28.7150   43.4070 C   0  0  0  0  0  0  0  0  0  0  0  0
   36.7990   27.7150   43.3670 N   0  0  0  0  0  0  0  0  0  0  0  0
   36.9850   26.5640   42.6810 C   0  0  0  0  0  0  0  0  0  0  0  0
   38.1330   26.3300   41.9770 N   0  0  0  0  0  0  0  0  0  0  0  0
   39.9820   27.0970   41.4310 H   0  0  0  0  0  0  0  0  0  0  0  0
   37.5560   29.6250   43.9630 H   0  0  0  0  0  0  0  0  0  0  0  0
   36.2040   25.8190   42.6950 H   0  0  0  0  0  0  0  0  0  0  0  0
   38.8190   30.5500   40.5820 C   0  0  0  0  0  0  0  0  0  0  0  0
   39.1300   30.1940   39.5750 H   0  0  0  0  0  0  0  0  0  0  0  0
   37.9150   29.9780   40.9130 H   0  0  0  0  0  0  0  0  0  0  0  0
   38.3450   31.9590   40.3440 C   0  0  0  0  0  0  0  0  0  0  0  0
   37.3850   32.3640   39.4410 C   0  0  0  0  0  0  0  0  0  0  0  0
   36.8780   31.6540   38.8070 H   0  0  0  0  0  0  0  0  0  0  0  0
   37.2270   33.7330   39.5170 C   0  0  0  0  0  0  0  0  0  0  0  0
   36.5510   34.3400   38.9350 H   0  0  0  0  0  0  0  0  0  0  0  0
   38.1080   34.1230   40.4750 N   0  0  0  0  0  0  0  0  0  0  0  0
   38.2600   35.1190   40.8000 H   0  0  0  0  0  0  0  0  0  0  0  0
   38.7700   33.0800   40.9670 N   0  0  0  0  0  0  0  0  0  0  0  0
  1  9  1  0  0  0  0
  1  4  1  1  0  0  0
  2  6  1  0  0  0  0
  2  1  1  0  0  0  0
  3  2  1  0  0  0  0
  3  7  1  1  0  0  0
  3  1  1  0  0  0  0
  5  2  1  0  0  0  0
  8  9  1  0  0  0  0
  9 10  2  0  0  0  0
 10 15  1  0  0  0  0
 11 10  1  0  0  0  0
 12 16  1  0  0  0  0
 12 11  2  0  0  0  0
 13  8  2  0  0  0  0
 13 12  1  0  0  0  0
 14  8  1  0  0  0  0
 17 19  1  0  0  0  0
 17  3  1  0  0  0  0
 18 17  1  0  0  0  0
 20 17  1  0  0  0  0
 20 27  2  0  0  0  0
 21 23  2  0  0  0  0
 21 20  1  0  0  0  0
 22 21  1  0  0  0  0
 23 25  1  0  0  0  0
 24 23  1  0  0  0  0
 25 26  1  0  0  0  0
 25 27  1  0  0  0  0
M  END
>  <minimizedAffinity>
-4.10161734

$$$$
