
 OpenBabel03252502313D

 23 24  0  0  0  0  0  0  0  0999 V2000
   47.8140   34.7780   42.4250 C   0  0  0  0  0  0  0  0  0  0  0  0
   48.0720   33.5690   43.1240 C   0  0  0  0  0  0  0  0  0  0  0  0
   47.1140   33.1660   44.0710 C   0  0  0  0  0  0  0  0  0  0  0  0
   46.0170   33.9390   44.2570 N   0  0  0  0  0  0  0  0  0  0  0  0
   45.8100   35.0780   43.5730 C   0  0  0  0  0  0  0  0  0  0  0  0
   46.7020   35.4940   42.6630 N   0  0  0  0  0  0  0  0  0  0  0  0
   48.9640   33.0020   42.9280 H   0  0  0  0  0  0  0  0  0  0  0  0
   47.3130   31.9430   44.8210 C   0  0  0  0  0  0  0  0  0  0  0  0
   47.7510   30.7550   44.2900 C   0  0  0  0  0  0  0  0  0  0  0  0
   48.0130   30.5360   43.2610 H   0  0  0  0  0  0  0  0  0  0  0  0
   47.7770   29.9020   45.3990 C   0  0  0  0  0  0  0  0  0  0  0  0
   48.0780   28.8630   45.3540 H   0  0  0  0  0  0  0  0  0  0  0  0
   47.3770   30.5560   46.5070 N   0  0  0  0  0  0  0  0  0  0  0  0
   47.2920   30.1880   47.4800 H   0  0  0  0  0  0  0  0  0  0  0  0
   47.0980   31.8000   46.1360 N   0  0  0  0  0  0  0  0  0  0  0  0
   48.8350   35.1960   41.4250 C   0  0  0  0  0  0  0  0  0  0  0  0
   48.3690   35.0900   40.1380 F   0  0  0  0  0  0  0  0  0  0  0  0
   49.2360   36.4920   41.7130 F   0  0  0  0  0  0  0  0  0  0  0  0
   49.9840   34.4140   41.5910 F   0  0  0  0  0  0  0  0  0  0  0  0
   44.5940   35.9000   43.8060 C   0  0  0  0  0  0  0  0  0  0  0  0
   43.6120   35.6060   42.8860 F   0  0  0  0  0  0  0  0  0  0  0  0
   44.8980   37.2550   43.7790 F   0  0  0  0  0  0  0  0  0  0  0  0
   44.0550   35.6700   45.0600 F   0  0  0  0  0  0  0  0  0  0  0  0
  1  6  2  0  0  0  0
  1  2  1  0  0  0  0
  2  3  2  0  0  0  0
  3  4  1  0  0  0  0
  3  8  1  0  0  0  0
  5 20  1  0  0  0  0
  5  4  2  0  0  0  0
  6  5  1  0  0  0  0
  7  2  1  0  0  0  0
  8 15  2  0  0  0  0
  9  8  1  0  0  0  0
  9 11  2  0  0  0  0
 10  9  1  0  0  0  0
 11 13  1  0  0  0  0
 12 11  1  0  0  0  0
 13 14  1  0  0  0  0
 15 13  1  0  0  0  0
 16 19  1  0  0  0  0
 16 18  1  0  0  0  0
 16  1  1  0  0  0  0
 17 16  1  0  0  0  0
 20 23  1  0  0  0  0
 21 20  1  0  0  0  0
 22 20  1  0  0  0  0
M  END
>  <minimizedAffinity>
-5.50913048

>  <minimizedRMSD>
0.170536771

$$$$
