
 OpenBabel03252507223D

 46 49  0  0  1  0  0  0  0  0999 V2000
   47.3290   33.7180   42.8360 C   0  0  0  0  0  0  0  0  0  0  0  0
   48.4510   33.5400   43.4270 O   0  0  0  0  0  0  0  0  0  0  0  0
   47.0320   33.1950   41.5480 N   0  0  0  0  0  0  0  0  0  0  0  0
   45.8200   32.5270   41.0530 C   0  0  0  0  0  0  0  0  0  0  0  0
   45.3660   33.1950   39.7650 C   0  0  0  0  0  0  0  0  0  0  0  0
   46.4040   33.0700   38.6910 C   0  0  0  0  0  0  0  0  0  0  0  0
   47.7010   32.5740   39.3040 C   0  0  0  0  0  0  0  0  0  0  0  0
   48.0510   33.3160   40.5430 C   0  0  2  0  0  0  0  0  0  0  0  0
   45.9720   31.4490   40.9300 H   0  0  0  0  0  0  0  0  0  0  0  0
   45.0070   32.7370   41.8000 H   0  0  0  0  0  0  0  0  0  0  0  0
   45.1080   34.2430   40.0230 H   0  0  0  0  0  0  0  0  0  0  0  0
   44.4410   32.6440   39.4550 H   0  0  0  0  0  0  0  0  0  0  0  0
   46.1200   32.4390   37.8440 H   0  0  0  0  0  0  0  0  0  0  0  0
   46.5650   34.1050   38.2700 H   0  0  0  0  0  0  0  0  0  0  0  0
   48.5290   32.6360   38.5760 H   0  0  0  0  0  0  0  0  0  0  0  0
   47.5510   31.4790   39.4770 H   0  0  0  0  0  0  0  0  0  0  0  0
   48.0930   34.3980   40.2750 H   0  0  0  0  0  0  0  0  0  0  0  0
   45.9380   35.7270   42.9590 C   0  0  0  0  0  0  0  0  0  0  0  0
   46.3210   34.4940   43.5250 C   0  0  0  0  0  0  0  0  0  0  0  0
   45.7440   34.0520   44.7010 C   0  0  0  0  0  0  0  0  0  0  0  0
   44.8100   34.8440   45.2740 N   0  0  0  0  0  0  0  0  0  0  0  0
   44.4240   36.0400   44.7450 C   0  0  0  0  0  0  0  0  0  0  0  0
   45.0010   36.4590   43.5900 N   0  0  0  0  0  0  0  0  0  0  0  0
   46.3930   36.0620   42.0410 H   0  0  0  0  0  0  0  0  0  0  0  0
   43.6860   36.6590   45.2030 H   0  0  0  0  0  0  0  0  0  0  0  0
   46.1590   32.7890   45.2520 C   0  0  0  0  0  0  0  0  0  0  0  0
   45.8030   31.6240   44.6600 C   0  0  0  0  0  0  0  0  0  0  0  0
   46.2180   30.4300   45.2140 C   0  0  0  0  0  0  0  0  0  0  0  0
   46.9970   30.3650   46.3680 C   0  0  0  0  0  0  0  0  0  0  0  0
   47.3380   31.5970   46.9400 C   0  0  0  0  0  0  0  0  0  0  0  0
   46.9150   32.7250   46.3730 N   0  0  0  0  0  0  0  0  0  0  0  0
   45.2020   31.5470   43.7630 H   0  0  0  0  0  0  0  0  0  0  0  0
   45.9680   29.4550   44.7910 H   0  0  0  0  0  0  0  0  0  0  0  0
   47.3530   29.4900   46.8520 H   0  0  0  0  0  0  0  0  0  0  0  0
   47.9390   31.7330   47.8420 H   0  0  0  0  0  0  0  0  0  0  0  0
   49.4290   32.9560   41.0010 C   0  0  0  0  0  0  0  0  0  0  0  0
   49.7820   33.4430   41.9090 H   0  0  0  0  0  0  0  0  0  0  0  0
   50.0900   33.3940   40.2020 H   0  0  0  0  0  0  0  0  0  0  0  0
   49.7040   31.4950   40.9460 C   0  0  0  0  0  0  0  0  0  0  0  0
   50.7390   31.0480   40.1480 C   0  0  0  0  0  0  0  0  0  0  0  0
   51.4700   31.5320   39.4890 H   0  0  0  0  0  0  0  0  0  0  0  0
   50.7650   29.6590   40.2900 C   0  0  0  0  0  0  0  0  0  0  0  0
   51.4200   28.9170   39.8380 H   0  0  0  0  0  0  0  0  0  0  0  0
   49.7650   29.3150   41.1530 N   0  0  0  0  0  0  0  0  0  0  0  0
   49.5460   28.3340   41.4480 H   0  0  0  0  0  0  0  0  0  0  0  0
   49.1510   30.4370   41.5260 N   0  0  0  0  0  0  0  0  0  0  0  0
  1  2  2  0  0  0  0
  1 19  1  0  0  0  0
  3  1  1  0  0  0  0
  4  3  1  0  0  0  0
  4 10  1  0  0  0  0
  5 11  1  0  0  0  0
  5  4  1  0  0  0  0
  6  7  1  0  0  0  0
  6  5  1  0  0  0  0
  7 16  1  0  0  0  0
  7  8  1  0  0  0  0
  8 17  1  6  0  0  0
  8 36  1  0  0  0  0
  8  3  1  0  0  0  0
  9  4  1  0  0  0  0
 12  5  1  0  0  0  0
 13  6  1  0  0  0  0
 14  6  1  0  0  0  0
 15  7  1  0  0  0  0
 18 19  2  0  0  0  0
 18 23  1  0  0  0  0
 19 20  1  0  0  0  0
 20 26  1  0  0  0  0
 20 21  2  0  0  0  0
 22 25  1  0  0  0  0
 22 21  1  0  0  0  0
 23 22  2  0  0  0  0
 24 18  1  0  0  0  0
 26 31  1  0  0  0  0
 27 28  1  0  0  0  0
 27 26  2  0  0  0  0
 28 29  2  0  0  0  0
 29 34  1  0  0  0  0
 29 30  1  0  0  0  0
 30 35  1  0  0  0  0
 31 30  2  0  0  0  0
 32 27  1  0  0  0  0
 33 28  1  0  0  0  0
 36 37  1  0  0  0  0
 38 36  1  0  0  0  0
 39 36  1  0  0  0  0
 39 46  2  0  0  0  0
 40 42  2  0  0  0  0
 40 39  1  0  0  0  0
 41 40  1  0  0  0  0
 42 44  1  0  0  0  0
 43 42  1  0  0  0  0
 44 45  1  0  0  0  0
 44 46  1  0  0  0  0
M  END
>  <minimizedAffinity>
-4.86517382

>  <minimizedRMSD>
0.655987263

$$$$
