
 OpenBabel03252506463D

 41 44  0  0  1  0  0  0  0  0999 V2000
   49.5600   33.4420   41.3890 N   0  0  1  0  0  0  0  0  0  0  0  0
   50.7050   33.0090   42.1470 C   0  0  0  0  0  0  0  0  0  0  0  0
   51.2500   31.6890   41.6770 C   0  0  0  0  0  0  0  0  0  0  0  0
   50.2390   30.6120   42.0200 C   0  0  0  0  0  0  0  0  0  0  0  0
   48.8370   31.1170   41.8060 C   0  0  0  0  0  0  0  0  0  0  0  0
   48.8750   32.3050   40.8790 C   0  0  2  0  0  0  0  0  0  0  0  0
   51.4860   33.7830   42.1210 H   0  0  0  0  0  0  0  0  0  0  0  0
   50.4160   32.8820   43.2290 H   0  0  0  0  0  0  0  0  0  0  0  0
   51.5750   31.6830   40.6410 H   0  0  0  0  0  0  0  0  0  0  0  0
   52.1370   31.4820   42.3060 H   0  0  0  0  0  0  0  0  0  0  0  0
   50.4740   29.7370   41.3760 H   0  0  0  0  0  0  0  0  0  0  0  0
   50.3840   30.3070   43.0770 H   0  0  0  0  0  0  0  0  0  0  0  0
   48.1690   30.3760   41.3580 H   0  0  0  0  0  0  0  0  0  0  0  0
   48.4680   31.4920   42.7890 H   0  0  0  0  0  0  0  0  0  0  0  0
   47.8040   32.6220   40.7380 H   0  0  0  0  0  0  0  0  0  0  0  0
   47.3540   34.6550   41.9590 C   0  0  1  0  0  0  0  0  0  0  0  0
   48.4470   35.6340   41.7300 C   0  0  0  0  0  0  0  0  0  0  0  0
   48.7620   34.2710   42.2310 C   0  0  2  0  0  0  0  0  0  0  0  0
   46.8520   34.2930   41.0230 H   0  0  0  0  0  0  0  0  0  0  0  0
   48.7320   35.8830   40.6710 H   0  0  0  0  0  0  0  0  0  0  0  0
   48.5180   36.5160   42.3950 H   0  0  0  0  0  0  0  0  0  0  0  0
   49.0230   34.2040   43.3180 H   0  0  0  0  0  0  0  0  0  0  0  0
   45.5260   35.9510   43.0990 C   0  0  0  0  0  0  0  0  0  0  0  0
   46.4210   34.8760   43.0690 C   0  0  0  0  0  0  0  0  0  0  0  0
   46.3830   33.9870   44.1580 C   0  0  0  0  0  0  0  0  0  0  0  0
   45.5000   34.2030   45.1680 N   0  0  0  0  0  0  0  0  0  0  0  0
   44.6510   35.2630   45.1490 C   0  0  0  0  0  0  0  0  0  0  0  0
   44.6560   36.1430   44.1160 N   0  0  0  0  0  0  0  0  0  0  0  0
   45.5810   36.6220   42.2390 H   0  0  0  0  0  0  0  0  0  0  0  0
   47.0590   33.1380   44.1850 H   0  0  0  0  0  0  0  0  0  0  0  0
   43.9730   35.3860   45.9820 H   0  0  0  0  0  0  0  0  0  0  0  0
   49.3090   31.8720   39.5620 N   0  0  0  0  0  0  0  0  0  0  0  0
   50.1110   31.3090   39.1340 H   0  0  0  0  0  0  0  0  0  0  0  0
   48.3460   32.3670   38.6030 C   0  0  0  0  0  0  0  0  0  0  0  0
   47.1410   32.0490   38.0170 C   0  0  0  0  0  0  0  0  0  0  0  0
   46.7320   31.1250   38.3430 H   0  0  0  0  0  0  0  0  0  0  0  0
   46.8000   33.0260   37.1630 N   0  0  0  0  0  0  0  0  0  0  0  0
   45.9050   32.9570   36.6210 H   0  0  0  0  0  0  0  0  0  0  0  0
   47.7480   33.9790   37.1730 C   0  0  0  0  0  0  0  0  0  0  0  0
   47.6500   34.8530   36.5480 H   0  0  0  0  0  0  0  0  0  0  0  0
   48.7000   33.5700   38.0610 N   0  0  0  0  0  0  0  0  0  0  0  0
  1  2  1  1  0  0  0
  1 18  1  0  0  0  0
  2  8  1  0  0  0  0
  3  4  1  0  0  0  0
  3  2  1  0  0  0  0
  3 10  1  0  0  0  0
  4 12  1  0  0  0  0
  5  4  1  0  0  0  0
  5 14  1  0  0  0  0
  6 15  1  6  0  0  0
  6  1  1  0  0  0  0
  6  5  1  0  0  0  0
  7  2  1  0  0  0  0
  9  3  1  0  0  0  0
 11  4  1  0  0  0  0
 13  5  1  0  0  0  0
 16 19  1  6  0  0  0
 16 18  1  0  0  0  0
 16 24  1  0  0  0  0
 17 16  1  0  0  0  0
 17 18  1  0  0  0  0
 17 21  1  0  0  0  0
 18 22  1  1  0  0  0
 20 17  1  0  0  0  0
 23 28  1  0  0  0  0
 24 23  2  0  0  0  0
 24 25  1  0  0  0  0
 25 30  1  0  0  0  0
 25 26  2  0  0  0  0
 27 26  1  0  0  0  0
 27 31  1  0  0  0  0
 28 27  2  0  0  0  0
 29 23  1  0  0  0  0
 32  6  1  0  0  0  0
 33 32  1  0  0  0  0
 34 32  1  0  0  0  0
 35 36  1  0  0  0  0
 35 34  2  0  0  0  0
 37 39  1  0  0  0  0
 37 35  1  0  0  0  0
 38 37  1  0  0  0  0
 39 41  2  0  0  0  0
 40 39  1  0  0  0  0
 41 34  1  0  0  0  0
M  END
>  <minimizedAffinity>
-5.02948236

>  <minimizedRMSD>
2.48421168

$$$$
