
 OpenBabel03252502333D

 23 24  0  0  0  0  0  0  0  0999 V2000
   35.6160   29.1640   39.8750 C   0  0  0  0  0  0  0  0  0  0  0  0
   36.3130   30.3970   39.8010 C   0  0  0  0  0  0  0  0  0  0  0  0
   37.2610   30.6630   40.8050 C   0  0  0  0  0  0  0  0  0  0  0  0
   37.4540   29.7380   41.7750 N   0  0  0  0  0  0  0  0  0  0  0  0
   36.7700   28.5750   41.8080 C   0  0  0  0  0  0  0  0  0  0  0  0
   35.8620   28.2980   40.8660 N   0  0  0  0  0  0  0  0  0  0  0  0
   36.1250   31.0970   39.0130 H   0  0  0  0  0  0  0  0  0  0  0  0
   38.0010   31.9210   40.7670 C   0  0  0  0  0  0  0  0  0  0  0  0
   39.2240   32.1020   41.3830 C   0  0  0  0  0  0  0  0  0  0  0  0
   39.8390   31.4310   41.9650 H   0  0  0  0  0  0  0  0  0  0  0  0
   39.5370   33.3850   41.0980 N   0  0  0  0  0  0  0  0  0  0  0  0
   40.3780   33.9590   41.3600 H   0  0  0  0  0  0  0  0  0  0  0  0
   38.5510   33.9550   40.3450 C   0  0  0  0  0  0  0  0  0  0  0  0
   38.5250   34.9790   39.9650 H   0  0  0  0  0  0  0  0  0  0  0  0
   37.5820   33.0150   40.1420 N   0  0  0  0  0  0  0  0  0  0  0  0
   34.6180   28.9050   38.8010 C   0  0  0  0  0  0  0  0  0  0  0  0
   33.3460   29.2050   39.2140 F   0  0  0  0  0  0  0  0  0  0  0  0
   34.9750   29.6320   37.6780 F   0  0  0  0  0  0  0  0  0  0  0  0
   34.6960   27.5630   38.4080 F   0  0  0  0  0  0  0  0  0  0  0  0
   37.0080   27.5840   42.8890 C   0  0  0  0  0  0  0  0  0  0  0  0
   35.9020   27.4240   43.6800 F   0  0  0  0  0  0  0  0  0  0  0  0
   38.1290   27.9560   43.6500 F   0  0  0  0  0  0  0  0  0  0  0  0
   37.3420   26.3410   42.3750 F   0  0  0  0  0  0  0  0  0  0  0  0
  1  6  1  0  0  0  0
  2  1  2  0  0  0  0
  2  3  1  0  0  0  0
  3  4  2  0  0  0  0
  4  5  1  0  0  0  0
  5 20  1  0  0  0  0
  6  5  2  0  0  0  0
  7  2  1  0  0  0  0
  8  3  1  0  0  0  0
  8  9  2  0  0  0  0
  9 10  1  0  0  0  0
 11 12  1  0  0  0  0
 11  9  1  0  0  0  0
 13 11  1  0  0  0  0
 14 13  1  0  0  0  0
 15 13  2  0  0  0  0
 15  8  1  0  0  0  0
 16 17  1  0  0  0  0
 16  1  1  0  0  0  0
 18 16  1  0  0  0  0
 19 16  1  0  0  0  0
 20 22  1  0  0  0  0
 20 21  1  0  0  0  0
 23 20  1  0  0  0  0
M  END
>  <minimizedAffinity>
-5.63699007

$$$$

 OpenBabel03252502333D

 23 24  0  0  0  0  0  0  0  0999 V2000
   36.7030   28.4620   41.7480 C   0  0  0  0  0  0  0  0  0  0  0  0
   37.4670   29.6560   41.7960 C   0  0  0  0  0  0  0  0  0  0  0  0
   37.2610   30.5940   40.7680 C   0  0  0  0  0  0  0  0  0  0  0  0
   36.3560   30.3080   39.8020 N   0  0  0  0  0  0  0  0  0  0  0  0
   35.6480   29.1590   39.7950 C   0  0  0  0  0  0  0  0  0  0  0  0
   35.8250   28.2500   40.7600 N   0  0  0  0  0  0  0  0  0  0  0  0
   38.1710   29.8360   42.5810 H   0  0  0  0  0  0  0  0  0  0  0  0
   38.0260   31.8370   40.7770 C   0  0  0  0  0  0  0  0  0  0  0  0
   39.2840   31.9520   41.3340 C   0  0  0  0  0  0  0  0  0  0  0  0
   39.9150   31.2290   41.8320 H   0  0  0  0  0  0  0  0  0  0  0  0
   39.6100   33.2450   41.1230 N   0  0  0  0  0  0  0  0  0  0  0  0
   40.4760   33.7830   41.3770 H   0  0  0  0  0  0  0  0  0  0  0  0
   38.5960   33.8860   40.4680 C   0  0  0  0  0  0  0  0  0  0  0  0
   38.5730   34.9350   40.1630 H   0  0  0  0  0  0  0  0  0  0  0  0
   37.5970   32.9810   40.2550 N   0  0  0  0  0  0  0  0  0  0  0  0
   36.9380   27.4840   42.8470 C   0  0  0  0  0  0  0  0  0  0  0  0
   35.8520   27.3910   43.6780 F   0  0  0  0  0  0  0  0  0  0  0  0
   37.2610   26.2590   42.2890 F   0  0  0  0  0  0  0  0  0  0  0  0
   38.0730   27.8660   43.5730 F   0  0  0  0  0  0  0  0  0  0  0  0
   34.6640   28.8790   38.7180 C   0  0  0  0  0  0  0  0  0  0  0  0
   33.3870   29.1810   39.1100 F   0  0  0  0  0  0  0  0  0  0  0  0
   34.7660   27.5410   38.3010 F   0  0  0  0  0  0  0  0  0  0  0  0
   34.9370   29.6140   37.5750 F   0  0  0  0  0  0  0  0  0  0  0  0
  1  2  1  0  0  0  0
  1 16  1  0  0  0  0
  2  7  1  0  0  0  0
  3  8  1  0  0  0  0
  3  2  2  0  0  0  0
  4  3  1  0  0  0  0
  5  4  2  0  0  0  0
  5  6  1  0  0  0  0
  6  1  2  0  0  0  0
  8  9  2  0  0  0  0
  9 10  1  0  0  0  0
 11  9  1  0  0  0  0
 11 12  1  0  0  0  0
 13 11  1  0  0  0  0
 14 13  1  0  0  0  0
 15 13  2  0  0  0  0
 15  8  1  0  0  0  0
 16 19  1  0  0  0  0
 16 17  1  0  0  0  0
 18 16  1  0  0  0  0
 20 21  1  0  0  0  0
 20  5  1  0  0  0  0
 22 20  1  0  0  0  0
 23 20  1  0  0  0  0
M  END
>  <minimizedAffinity>
-5.49776983

$$$$

 OpenBabel03252502333D

 23 24  0  0  0  0  0  0  0  0999 V2000
   36.0220   28.9350   39.5710 C   0  0  0  0  0  0  0  0  0  0  0  0
   36.5190   30.2540   39.4220 C   0  0  0  0  0  0  0  0  0  0  0  0
   37.2870   30.7770   40.4790 C   0  0  0  0  0  0  0  0  0  0  0  0
   37.5050   30.0000   41.5670 N   0  0  0  0  0  0  0  0  0  0  0  0
   37.0140   28.7470   41.6670 C   0  0  0  0  0  0  0  0  0  0  0  0
   36.2810   28.2260   40.6770 N   0  0  0  0  0  0  0  0  0  0  0  0
   36.3190   30.8290   38.5430 H   0  0  0  0  0  0  0  0  0  0  0  0
   37.8190   32.1320   40.3680 C   0  0  0  0  0  0  0  0  0  0  0  0
   37.3220   33.0740   39.4900 C   0  0  0  0  0  0  0  0  0  0  0  0
   36.5190   33.0270   38.7680 H   0  0  0  0  0  0  0  0  0  0  0  0
   38.0910   34.1600   39.7190 N   0  0  0  0  0  0  0  0  0  0  0  0
   38.0750   35.1160   39.2800 H   0  0  0  0  0  0  0  0  0  0  0  0
   39.0120   33.8900   40.6920 C   0  0  0  0  0  0  0  0  0  0  0  0
   39.7670   34.5730   41.0870 H   0  0  0  0  0  0  0  0  0  0  0  0
   38.8270   32.5990   41.0950 N   0  0  0  0  0  0  0  0  0  0  0  0
   35.2130   28.4030   38.4390 C   0  0  0  0  0  0  0  0  0  0  0  0
   35.3710   27.0480   38.3010 F   0  0  0  0  0  0  0  0  0  0  0  0
   33.8870   28.7440   38.6440 F   0  0  0  0  0  0  0  0  0  0  0  0
   35.5810   29.0570   37.2580 F   0  0  0  0  0  0  0  0  0  0  0  0
   37.2750   27.9240   42.8770 C   0  0  0  0  0  0  0  0  0  0  0  0
   38.2290   28.4920   43.6780 F   0  0  0  0  0  0  0  0  0  0  0  0
   37.6330   26.6170   42.5060 F   0  0  0  0  0  0  0  0  0  0  0  0
   36.1280   27.7600   43.6380 F   0  0  0  0  0  0  0  0  0  0  0  0
  1  6  1  0  0  0  0
  2  1  2  0  0  0  0
  2  3  1  0  0  0  0
  3  4  2  0  0  0  0
  4  5  1  0  0  0  0
  5 20  1  0  0  0  0
  6  5  2  0  0  0  0
  7  2  1  0  0  0  0
  8  3  1  0  0  0  0
  8 15  1  0  0  0  0
  9 11  1  0  0  0  0
  9  8  2  0  0  0  0
 10  9  1  0  0  0  0
 11 13  1  0  0  0  0
 12 11  1  0  0  0  0
 13 14  1  0  0  0  0
 13 15  2  0  0  0  0
 16 18  1  0  0  0  0
 16  1  1  0  0  0  0
 17 16  1  0  0  0  0
 19 16  1  0  0  0  0
 20 23  1  0  0  0  0
 20 21  1  0  0  0  0
 22 20  1  0  0  0  0
M  END
>  <minimizedAffinity>
-5.24539518

$$$$

 OpenBabel03252502333D

 23 24  0  0  0  0  0  0  0  0999 V2000
   35.3810   29.0570   39.0080 C   0  0  0  0  0  0  0  0  0  0  0  0
   36.3160   29.8580   38.3060 C   0  0  0  0  0  0  0  0  0  0  0  0
   37.5290   30.1530   38.9560 C   0  0  0  0  0  0  0  0  0  0  0  0
   37.7320   29.6610   40.2010 N   0  0  0  0  0  0  0  0  0  0  0  0
   36.8140   28.9000   40.8340 C   0  0  0  0  0  0  0  0  0  0  0  0
   35.6540   28.6060   40.2390 N   0  0  0  0  0  0  0  0  0  0  0  0
   36.1090   30.2240   37.3220 H   0  0  0  0  0  0  0  0  0  0  0  0
   38.5210   30.9750   38.2700 C   0  0  0  0  0  0  0  0  0  0  0  0
   38.2560   31.6780   37.1120 C   0  0  0  0  0  0  0  0  0  0  0  0
   37.3570   31.7690   36.5190 H   0  0  0  0  0  0  0  0  0  0  0  0
   39.4290   32.2860   36.8320 N   0  0  0  0  0  0  0  0  0  0  0  0
   39.6980   32.9250   36.0420 H   0  0  0  0  0  0  0  0  0  0  0  0
   40.3630   31.9660   37.7760 C   0  0  0  0  0  0  0  0  0  0  0  0
   41.4010   32.3060   37.8140 H   0  0  0  0  0  0  0  0  0  0  0  0
   39.7730   31.1330   38.6830 N   0  0  0  0  0  0  0  0  0  0  0  0
   34.1050   28.7580   38.3000 C   0  0  0  0  0  0  0  0  0  0  0  0
   34.0060   27.4280   37.9820 F   0  0  0  0  0  0  0  0  0  0  0  0
   33.0490   29.1740   39.0930 F   0  0  0  0  0  0  0  0  0  0  0  0
   34.0230   29.5400   37.1420 F   0  0  0  0  0  0  0  0  0  0  0  0
   37.0730   28.3780   42.2010 C   0  0  0  0  0  0  0  0  0  0  0  0
   35.9700   27.7550   42.7200 F   0  0  0  0  0  0  0  0  0  0  0  0
   37.5160   29.4130   43.0410 F   0  0  0  0  0  0  0  0  0  0  0  0
   38.1150   27.4640   42.2080 F   0  0  0  0  0  0  0  0  0  0  0  0
  1  6  1  0  0  0  0
  2  3  1  0  0  0  0
  2  1  2  0  0  0  0
  3  4  2  0  0  0  0
  4  5  1  0  0  0  0
  5 20  1  0  0  0  0
  6  5  2  0  0  0  0
  7  2  1  0  0  0  0
  8 15  1  0  0  0  0
  8  3  1  0  0  0  0
  9  8  2  0  0  0  0
 10  9  1  0  0  0  0
 11  9  1  0  0  0  0
 11 13  1  0  0  0  0
 12 11  1  0  0  0  0
 13 14  1  0  0  0  0
 13 15  2  0  0  0  0
 16  1  1  0  0  0  0
 16 18  1  0  0  0  0
 17 16  1  0  0  0  0
 19 16  1  0  0  0  0
 20 23  1  0  0  0  0
 20 21  1  0  0  0  0
 20 22  1  0  0  0  0
M  END
>  <minimizedAffinity>
-5.0923934

$$$$

 OpenBabel03252502333D

 23 24  0  0  0  0  0  0  0  0999 V2000
   35.8180   29.1010   39.2150 C   0  0  0  0  0  0  0  0  0  0  0  0
   36.3930   30.3970   39.2540 C   0  0  0  0  0  0  0  0  0  0  0  0
   37.2000   30.7120   40.3620 C   0  0  0  0  0  0  0  0  0  0  0  0
   37.3800   29.7710   41.3200 N   0  0  0  0  0  0  0  0  0  0  0  0
   36.8150   28.5480   41.2440 C   0  0  0  0  0  0  0  0  0  0  0  0
   36.0430   28.2230   40.2010 N   0  0  0  0  0  0  0  0  0  0  0  0
   36.2200   31.1070   38.4720 H   0  0  0  0  0  0  0  0  0  0  0  0
   37.8110   32.0350   40.4430 C   0  0  0  0  0  0  0  0  0  0  0  0
   38.9470   32.3040   41.1810 C   0  0  0  0  0  0  0  0  0  0  0  0
   39.5690   31.6680   41.7950 H   0  0  0  0  0  0  0  0  0  0  0  0
   39.1560   33.6220   40.9750 N   0  0  0  0  0  0  0  0  0  0  0  0
   39.9080   34.2610   41.3390 H   0  0  0  0  0  0  0  0  0  0  0  0
   38.1930   34.1300   40.1500 C   0  0  0  0  0  0  0  0  0  0  0  0
   38.1010   35.1630   39.8070 H   0  0  0  0  0  0  0  0  0  0  0  0
   37.3460   33.1110   39.8200 N   0  0  0  0  0  0  0  0  0  0  0  0
   34.9690   28.7910   38.0320 C   0  0  0  0  0  0  0  0  0  0  0  0
   33.6500   29.0780   38.2720 F   0  0  0  0  0  0  0  0  0  0  0  0
   35.4540   29.4940   36.9420 F   0  0  0  0  0  0  0  0  0  0  0  0
   35.1180   27.4410   37.6940 F   0  0  0  0  0  0  0  0  0  0  0  0
   37.0360   27.5410   42.3140 C   0  0  0  0  0  0  0  0  0  0  0  0
   38.2110   27.7640   42.9820 F   0  0  0  0  0  0  0  0  0  0  0  0
   36.9930   26.2440   41.7760 F   0  0  0  0  0  0  0  0  0  0  0  0
   36.0110   27.5570   43.2470 F   0  0  0  0  0  0  0  0  0  0  0  0
  1  2  2  0  0  0  0
  1  6  1  0  0  0  0
  2  3  1  0  0  0  0
  3  8  1  0  0  0  0
  3  4  2  0  0  0  0
  5  4  1  0  0  0  0
  5 20  1  0  0  0  0
  6  5  2  0  0  0  0
  7  2  1  0  0  0  0
  8  9  2  0  0  0  0
  9 10  1  0  0  0  0
 11  9  1  0  0  0  0
 11 12  1  0  0  0  0
 13 11  1  0  0  0  0
 14 13  1  0  0  0  0
 15 13  2  0  0  0  0
 15  8  1  0  0  0  0
 16 17  1  0  0  0  0
 16  1  1  0  0  0  0
 18 16  1  0  0  0  0
 19 16  1  0  0  0  0
 20 21  1  0  0  0  0
 20 23  1  0  0  0  0
 22 20  1  0  0  0  0
M  END
>  <minimizedAffinity>
-5.07147503

$$$$

 OpenBabel03252502333D

 23 24  0  0  0  0  0  0  0  0999 V2000
   40.2020   29.1840   42.3790 C   0  0  0  0  0  0  0  0  0  0  0  0
   39.8530   30.4410   41.8250 C   0  0  0  0  0  0  0  0  0  0  0  0
   38.5190   30.6180   41.4150 C   0  0  0  0  0  0  0  0  0  0  0  0
   37.6520   29.5890   41.5710 N   0  0  0  0  0  0  0  0  0  0  0  0
   38.0250   28.4070   42.1050 C   0  0  0  0  0  0  0  0  0  0  0  0
   39.2880   28.2130   42.5020 N   0  0  0  0  0  0  0  0  0  0  0  0
   40.5750   31.2240   41.7210 H   0  0  0  0  0  0  0  0  0  0  0  0
   38.1160   31.8970   40.8390 C   0  0  0  0  0  0  0  0  0  0  0  0
   36.9390   32.0800   40.1410 C   0  0  0  0  0  0  0  0  0  0  0  0
   36.1410   31.3950   39.8920 H   0  0  0  0  0  0  0  0  0  0  0  0
   36.9710   33.3850   39.7970 N   0  0  0  0  0  0  0  0  0  0  0  0
   36.2830   33.9690   39.2570 H   0  0  0  0  0  0  0  0  0  0  0  0
   38.1150   33.9690   40.2640 C   0  0  0  0  0  0  0  0  0  0  0  0
   38.4180   35.0110   40.1400 H   0  0  0  0  0  0  0  0  0  0  0  0
   38.8330   33.0120   40.9230 N   0  0  0  0  0  0  0  0  0  0  0  0
   41.6190   29.0210   42.8050 C   0  0  0  0  0  0  0  0  0  0  0  0
   42.1100   30.1700   43.3690 F   0  0  0  0  0  0  0  0  0  0  0  0
   41.6990   27.9490   43.6790 F   0  0  0  0  0  0  0  0  0  0  0  0
   42.3970   28.6510   41.7010 F   0  0  0  0  0  0  0  0  0  0  0  0
   37.0460   27.3010   42.2610 C   0  0  0  0  0  0  0  0  0  0  0  0
   36.5300   26.9100   41.0540 F   0  0  0  0  0  0  0  0  0  0  0  0
   36.0280   27.6760   43.1540 F   0  0  0  0  0  0  0  0  0  0  0  0
   37.6240   26.1890   42.8520 F   0  0  0  0  0  0  0  0  0  0  0  0
  1  6  1  0  0  0  0
  1 16  1  0  0  0  0
  2  1  2  0  0  0  0
  3  4  2  0  0  0  0
  3  2  1  0  0  0  0
  4  5  1  0  0  0  0
  5 20  1  0  0  0  0
  5  6  2  0  0  0  0
  7  2  1  0  0  0  0
  8 15  1  0  0  0  0
  8  3  1  0  0  0  0
  9  8  2  0  0  0  0
 10  9  1  0  0  0  0
 11  9  1  0  0  0  0
 11 13  1  0  0  0  0
 12 11  1  0  0  0  0
 13 15  2  0  0  0  0
 14 13  1  0  0  0  0
 16 17  1  0  0  0  0
 16 18  1  0  0  0  0
 19 16  1  0  0  0  0
 20 23  1  0  0  0  0
 20 22  1  0  0  0  0
 21 20  1  0  0  0  0
M  END
>  <minimizedAffinity>
-5.04904795

$$$$

 OpenBabel03252502333D

 23 24  0  0  0  0  0  0  0  0999 V2000
   36.8520   28.8780   40.8910 C   0  0  0  0  0  0  0  0  0  0  0  0
   37.8840   29.6240   40.2680 C   0  0  0  0  0  0  0  0  0  0  0  0
   37.6460   30.0900   38.9620 C   0  0  0  0  0  0  0  0  0  0  0  0
   36.4570   29.8020   38.3790 N   0  0  0  0  0  0  0  0  0  0  0  0
   35.5000   29.0880   39.0080 C   0  0  0  0  0  0  0  0  0  0  0  0
   35.7020   28.6340   40.2500 N   0  0  0  0  0  0  0  0  0  0  0  0
   38.8070   29.8250   40.7710 H   0  0  0  0  0  0  0  0  0  0  0  0
   38.6810   30.8620   38.2830 C   0  0  0  0  0  0  0  0  0  0  0  0
   38.4120   31.8140   37.3210 C   0  0  0  0  0  0  0  0  0  0  0  0
   37.4790   32.1630   36.9010 H   0  0  0  0  0  0  0  0  0  0  0  0
   39.6340   32.2700   36.9710 N   0  0  0  0  0  0  0  0  0  0  0  0
   39.9180   33.0020   36.2720 H   0  0  0  0  0  0  0  0  0  0  0  0
   40.6010   31.6240   37.6890 C   0  0  0  0  0  0  0  0  0  0  0  0
   41.6810   31.7800   37.6230 H   0  0  0  0  0  0  0  0  0  0  0  0
   39.9820   30.7330   38.5180 N   0  0  0  0  0  0  0  0  0  0  0  0
   37.1270   28.3960   42.2730 C   0  0  0  0  0  0  0  0  0  0  0  0
   37.5050   29.4240   43.0980 F   0  0  0  0  0  0  0  0  0  0  0  0
   36.0000   27.7470   42.7490 F   0  0  0  0  0  0  0  0  0  0  0  0
   38.1250   27.4150   42.2320 F   0  0  0  0  0  0  0  0  0  0  0  0
   34.2080   28.7920   38.3360 C   0  0  0  0  0  0  0  0  0  0  0  0
   34.0850   27.4600   38.0450 F   0  0  0  0  0  0  0  0  0  0  0  0
   34.0690   29.5820   37.1830 F   0  0  0  0  0  0  0  0  0  0  0  0
   33.1290   29.1520   39.1280 F   0  0  0  0  0  0  0  0  0  0  0  0
  1 16  1  0  0  0  0
  2  7  1  0  0  0  0
  2  1  1  0  0  0  0
  3  2  2  0  0  0  0
  4  3  1  0  0  0  0
  4  5  2  0  0  0  0
  5  6  1  0  0  0  0
  6  1  2  0  0  0  0
  8 15  1  0  0  0  0
  8  3  1  0  0  0  0
  9  8  2  0  0  0  0
 10  9  1  0  0  0  0
 11  9  1  0  0  0  0
 11 13  1  0  0  0  0
 12 11  1  0  0  0  0
 13 15  2  0  0  0  0
 14 13  1  0  0  0  0
 16 18  1  0  0  0  0
 16 17  1  0  0  0  0
 19 16  1  0  0  0  0
 20  5  1  0  0  0  0
 20 23  1  0  0  0  0
 21 20  1  0  0  0  0
 22 20  1  0  0  0  0
M  END
>  <minimizedAffinity>
-4.95428467

$$$$

 OpenBabel03252502333D

 23 24  0  0  0  0  0  0  0  0999 V2000
   36.4720   29.5080   39.7330 C   0  0  0  0  0  0  0  0  0  0  0  0
   37.3140   30.3330   38.9450 C   0  0  0  0  0  0  0  0  0  0  0  0
   38.5140   30.7750   39.5310 C   0  0  0  0  0  0  0  0  0  0  0  0
   38.7950   30.3930   40.7990 N   0  0  0  0  0  0  0  0  0  0  0  0
   37.9650   29.6050   41.5150 C   0  0  0  0  0  0  0  0  0  0  0  0
   36.8180   29.1710   40.9820 N   0  0  0  0  0  0  0  0  0  0  0  0
   37.0480   30.6080   37.9460 H   0  0  0  0  0  0  0  0  0  0  0  0
   39.4110   31.6270   38.7560 C   0  0  0  0  0  0  0  0  0  0  0  0
   39.3590   31.7330   37.3800 C   0  0  0  0  0  0  0  0  0  0  0  0
   38.7160   31.2630   36.6500 H   0  0  0  0  0  0  0  0  0  0  0  0
   40.3460   32.6080   37.0900 N   0  0  0  0  0  0  0  0  0  0  0  0
   40.6740   32.9900   36.1670 H   0  0  0  0  0  0  0  0  0  0  0  0
   40.9680   33.0150   38.2360 C   0  0  0  0  0  0  0  0  0  0  0  0
   41.8010   33.7180   38.3170 H   0  0  0  0  0  0  0  0  0  0  0  0
   40.3640   32.3840   39.2860 N   0  0  0  0  0  0  0  0  0  0  0  0
   35.2080   29.0520   39.0910 C   0  0  0  0  0  0  0  0  0  0  0  0
   34.9850   29.6990   37.9030 F   0  0  0  0  0  0  0  0  0  0  0  0
   35.2660   27.6790   38.9220 F   0  0  0  0  0  0  0  0  0  0  0  0
   34.1380   29.2670   39.9690 F   0  0  0  0  0  0  0  0  0  0  0  0
   38.3070   29.2060   42.9050 C   0  0  0  0  0  0  0  0  0  0  0  0
   38.9520   30.2120   43.5740 F   0  0  0  0  0  0  0  0  0  0  0  0
   39.0700   28.0270   42.8970 F   0  0  0  0  0  0  0  0  0  0  0  0
   37.1740   28.8750   43.6320 F   0  0  0  0  0  0  0  0  0  0  0  0
  1  6  1  0  0  0  0
  2  3  1  0  0  0  0
  2  1  2  0  0  0  0
  3  4  2  0  0  0  0
  4  5  1  0  0  0  0
  5 20  1  0  0  0  0
  6  5  2  0  0  0  0
  7  2  1  0  0  0  0
  8 15  1  0  0  0  0
  8  3  1  0  0  0  0
  9  8  2  0  0  0  0
 10  9  1  0  0  0  0
 11  9  1  0  0  0  0
 11 13  1  0  0  0  0
 12 11  1  0  0  0  0
 13 14  1  0  0  0  0
 13 15  2  0  0  0  0
 16  1  1  0  0  0  0
 16 19  1  0  0  0  0
 17 16  1  0  0  0  0
 18 16  1  0  0  0  0
 20 21  1  0  0  0  0
 20 23  1  0  0  0  0
 22 20  1  0  0  0  0
M  END
>  <minimizedAffinity>
-4.92361832

$$$$

 OpenBabel03252502333D

 23 24  0  0  0  0  0  0  0  0999 V2000
   37.8410   28.5620   42.0540 C   0  0  0  0  0  0  0  0  0  0  0  0
   37.5110   29.8500   41.5620 C   0  0  0  0  0  0  0  0  0  0  0  0
   38.5760   30.7290   41.2920 C   0  0  0  0  0  0  0  0  0  0  0  0
   39.8410   30.3010   41.5150 N   0  0  0  0  0  0  0  0  0  0  0  0
   40.1120   29.0650   41.9840 C   0  0  0  0  0  0  0  0  0  0  0  0
   39.1180   28.2100   42.2490 N   0  0  0  0  0  0  0  0  0  0  0  0
   36.4940   30.1420   41.4030 H   0  0  0  0  0  0  0  0  0  0  0  0
   38.2820   32.0650   40.7840 C   0  0  0  0  0  0  0  0  0  0  0  0
   37.1340   32.3770   40.0830 C   0  0  0  0  0  0  0  0  0  0  0  0
   36.2900   31.7710   39.7860 H   0  0  0  0  0  0  0  0  0  0  0  0
   37.2720   33.6930   39.8130 N   0  0  0  0  0  0  0  0  0  0  0  0
   36.6390   34.3570   39.2990 H   0  0  0  0  0  0  0  0  0  0  0  0
   38.4490   34.1590   40.3270 C   0  0  0  0  0  0  0  0  0  0  0  0
   38.8320   35.1800   40.2670 H   0  0  0  0  0  0  0  0  0  0  0  0
   39.0800   33.1150   40.9400 N   0  0  0  0  0  0  0  0  0  0  0  0
   36.6980   27.6490   42.3330 C   0  0  0  0  0  0  0  0  0  0  0  0
   36.4730   27.5210   43.6790 F   0  0  0  0  0  0  0  0  0  0  0  0
   35.5780   28.1260   41.6710 F   0  0  0  0  0  0  0  0  0  0  0  0
   36.9540   26.3960   41.7620 F   0  0  0  0  0  0  0  0  0  0  0  0
   41.5140   28.6300   42.2160 C   0  0  0  0  0  0  0  0  0  0  0  0
   41.8140   28.5880   43.5510 F   0  0  0  0  0  0  0  0  0  0  0  0
   42.4020   29.4660   41.5190 F   0  0  0  0  0  0  0  0  0  0  0  0
   41.7490   27.3690   41.6910 F   0  0  0  0  0  0  0  0  0  0  0  0
  1  6  1  0  0  0  0
  1 16  1  0  0  0  0
  2  1  2  0  0  0  0
  3  4  2  0  0  0  0
  3  2  1  0  0  0  0
  4  5  1  0  0  0  0
  5 20  1  0  0  0  0
  5  6  2  0  0  0  0
  7  2  1  0  0  0  0
  8 15  1  0  0  0  0
  8  3  1  0  0  0  0
  9  8  2  0  0  0  0
 10  9  1  0  0  0  0
 11  9  1  0  0  0  0
 11 13  1  0  0  0  0
 12 11  1  0  0  0  0
 13 15  2  0  0  0  0
 14 13  1  0  0  0  0
 16 17  1  0  0  0  0
 18 16  1  0  0  0  0
 19 16  1  0  0  0  0
 20 21  1  0  0  0  0
 22 20  1  0  0  0  0
 23 20  1  0  0  0  0
M  END
>  <minimizedAffinity>
-4.92112017

$$$$
