
 OpenBabel03252505143D

 24 26  0  0  0  0  0  0  0  0999 V2000
   44.7120   35.8000   44.3530 C   0  0  0  0  0  0  0  0  0  0  0  0
   45.4150   35.9040   43.1390 C   0  0  0  0  0  0  0  0  0  0  0  0
   46.3320   34.8960   42.8870 C   0  0  0  0  0  0  0  0  0  0  0  0
   46.5190   33.8750   43.7870 N   0  0  0  0  0  0  0  0  0  0  0  0
   45.8100   33.8180   44.9510 C   0  0  0  0  0  0  0  0  0  0  0  0
   44.9130   34.7840   45.2220 N   0  0  0  0  0  0  0  0  0  0  0  0
   43.9800   36.5420   44.6280 H   0  0  0  0  0  0  0  0  0  0  0  0
   45.2560   36.7010   42.4590 H   0  0  0  0  0  0  0  0  0  0  0  0
   47.1270   34.8790   41.6140 C   0  0  0  0  0  0  0  0  0  0  0  0
   48.4920   35.5130   41.7540 C   0  0  0  0  0  0  0  0  0  0  0  0
   48.2780   33.9940   41.5120 C   0  0  0  0  0  0  0  0  0  0  0  0
   46.5330   35.1730   40.7350 H   0  0  0  0  0  0  0  0  0  0  0  0
   48.8570   35.8460   42.7230 H   0  0  0  0  0  0  0  0  0  0  0  0
   48.7990   36.1280   40.8940 H   0  0  0  0  0  0  0  0  0  0  0  0
   48.6890   33.3940   42.3210 H   0  0  0  0  0  0  0  0  0  0  0  0
   48.6160   33.6830   40.4860 H   0  0  0  0  0  0  0  0  0  0  0  0
   46.1370   32.6650   45.7840 C   0  0  0  0  0  0  0  0  0  0  0  0
   46.8110   32.8530   46.9930 C   0  0  0  0  0  0  0  0  0  0  0  0
   47.1550   33.7970   47.4390 H   0  0  0  0  0  0  0  0  0  0  0  0
   46.9930   31.6490   47.5670 N   0  0  0  0  0  0  0  0  0  0  0  0
   47.4740   31.5100   48.4830 H   0  0  0  0  0  0  0  0  0  0  0  0
   46.4440   30.7180   46.7350 C   0  0  0  0  0  0  0  0  0  0  0  0
   46.4900   29.6870   47.0240 H   0  0  0  0  0  0  0  0  0  0  0  0
   45.9190   31.3450   45.6420 N   0  0  0  0  0  0  0  0  0  0  0  0
  1  7  1  0  0  0  0
  1  6  1  0  0  0  0
  2  1  2  0  0  0  0
  3  2  1  0  0  0  0
  3  4  2  0  0  0  0
  4  5  1  0  0  0  0
  5  6  2  0  0  0  0
  5 17  1  0  0  0  0
  8  2  1  0  0  0  0
  9 10  1  0  0  0  0
  9  3  1  0  0  0  0
 10 13  1  0  0  0  0
 11  9  1  0  0  0  0
 11 10  1  0  0  0  0
 11 15  1  0  0  0  0
 12  9  1  0  0  0  0
 14 10  1  0  0  0  0
 16 11  1  0  0  0  0
 17 18  2  0  0  0  0
 18 19  1  0  0  0  0
 18 20  1  0  0  0  0
 20 21  1  0  0  0  0
 22 23  1  0  0  0  0
 22 20  1  0  0  0  0
 24 17  1  0  0  0  0
 24 22  2  0  0  0  0
M  END
>  <minimizedAffinity>
-4.56002855

>  <minimizedRMSD>
0.402129591

$$$$
