
 OpenBabel03242518283D

 20 21  0  0  0  0  0  0  0  0999 V2000
   46.9260   34.8950   42.1690 C   0  0  0  0  0  0  0  0  0  0  0  0
   47.9770   35.5540   41.9330 O   0  0  0  0  0  0  0  0  0  0  0  0
   46.1860   34.8570   43.3820 C   0  0  0  0  0  0  0  0  0  0  0  0
   45.2650   35.8770   43.5070 C   0  0  0  0  0  0  0  0  0  0  0  0
   44.4900   35.9150   44.6760 C   0  0  0  0  0  0  0  0  0  0  0  0
   44.6910   34.9460   45.6180 N   0  0  0  0  0  0  0  0  0  0  0  0
   45.6060   33.9710   45.4470 C   0  0  0  0  0  0  0  0  0  0  0  0
   46.3560   33.9240   44.3290 N   0  0  0  0  0  0  0  0  0  0  0  0
   45.0640   36.6650   42.7980 H   0  0  0  0  0  0  0  0  0  0  0  0
   43.7480   36.6610   44.8730 H   0  0  0  0  0  0  0  0  0  0  0  0
   45.7610   33.1970   46.2090 H   0  0  0  0  0  0  0  0  0  0  0  0
   46.4140   34.1010   41.1310 O   0  0  0  0  0  0  0  0  0  0  0  0
   47.0990   33.9900   39.9120 C   0  0  0  0  0  0  0  0  0  0  0  0
   48.3000   34.4540   39.4810 C   0  0  0  0  0  0  0  0  0  0  0  0
   48.9150   35.0410   40.1620 H   0  0  0  0  0  0  0  0  0  0  0  0
   48.4940   34.0610   38.2020 N   0  0  0  0  0  0  0  0  0  0  0  0
   49.3920   34.3460   37.7190 H   0  0  0  0  0  0  0  0  0  0  0  0
   47.4140   33.3440   37.8150 C   0  0  0  0  0  0  0  0  0  0  0  0
   47.3530   32.9300   36.8290 H   0  0  0  0  0  0  0  0  0  0  0  0
   46.5650   33.3020   38.8600 N   0  0  0  0  0  0  0  0  0  0  0  0
  1  3  1  0  0  0  0
  2  1  2  0  0  0  0
  3  4  2  0  0  0  0
  3  8  1  0  0  0  0
  4  5  1  0  0  0  0
  5 10  1  0  0  0  0
  5  6  2  0  0  0  0
  7  6  1  0  0  0  0
  7 11  1  0  0  0  0
  8  7  2  0  0  0  0
  9  4  1  0  0  0  0
 12  1  1  0  0  0  0
 13 12  1  0  0  0  0
 14 13  2  0  0  0  0
 14 15  1  0  0  0  0
 16 14  1  0  0  0  0
 17 16  1  0  0  0  0
 18 16  1  0  0  0  0
 18 20  2  0  0  0  0
 19 18  1  0  0  0  0
 20 13  1  0  0  0  0
M  END
>  <minimizedAffinity>
-4.11722231

>  <minimizedRMSD>
0.382955849

$$$$
