
 OpenBabel03252509123D

 31 34  0  0  0  0  0  0  0  0999 V2000
   47.3770   32.3290   44.4980 C   0  0  0  0  0  0  0  0  0  0  0  0
   47.7970   32.9860   43.3380 C   0  0  0  0  0  0  0  0  0  0  0  0
   47.2290   34.1550   42.9170 C   0  0  0  0  0  0  0  0  0  0  0  0
   46.1860   34.7450   43.6470 C   0  0  0  0  0  0  0  0  0  0  0  0
   45.4150   35.8570   43.5350 N   0  0  0  0  0  0  0  0  0  0  0  0
   44.5500   35.8940   44.5800 C   0  0  0  0  0  0  0  0  0  0  0  0
   44.8030   34.8020   45.3190 N   0  0  0  0  0  0  0  0  0  0  0  0
   45.7960   34.0790   44.7780 C   0  0  0  0  0  0  0  0  0  0  0  0
   46.3420   32.8960   45.2420 C   0  0  0  0  0  0  0  0  0  0  0  0
   47.8160   31.4090   44.8390 H   0  0  0  0  0  0  0  0  0  0  0  0
   45.5860   36.4820   42.7180 H   0  0  0  0  0  0  0  0  0  0  0  0
   43.8850   36.7410   44.5930 H   0  0  0  0  0  0  0  0  0  0  0  0
   45.9910   32.4110   46.1480 H   0  0  0  0  0  0  0  0  0  0  0  0
   49.6190   30.7940   41.0350 C   0  0  0  0  0  0  0  0  0  0  0  0
   50.9200   31.3180   41.0750 C   0  0  0  0  0  0  0  0  0  0  0  0
   51.1490   32.4230   41.8970 C   0  0  0  0  0  0  0  0  0  0  0  0
   50.1070   32.9420   42.6220 N   0  0  0  0  0  0  0  0  0  0  0  0
   48.8770   32.4040   42.5510 C   0  0  0  0  0  0  0  0  0  0  0  0
   48.6090   31.3300   41.7650 N   0  0  0  0  0  0  0  0  0  0  0  0
   49.3820   29.9380   40.4160 H   0  0  0  0  0  0  0  0  0  0  0  0
   51.6870   30.8510   40.4730 H   0  0  0  0  0  0  0  0  0  0  0  0
   52.1450   32.8270   41.9300 H   0  0  0  0  0  0  0  0  0  0  0  0
   47.7580   35.0020   41.4420 S   0  0  0  0  0  0  0  0  0  0  0  0
   47.2140   34.1960   39.9620 C   0  0  0  0  0  0  0  0  0  0  0  0
   47.9550   34.2820   38.7880 C   0  0  0  0  0  0  0  0  0  0  0  0
   48.8940   34.7890   38.5580 H   0  0  0  0  0  0  0  0  0  0  0  0
   47.2570   33.5600   37.8710 N   0  0  0  0  0  0  0  0  0  0  0  0
   47.4920   33.3870   36.8650 H   0  0  0  0  0  0  0  0  0  0  0  0
   46.1470   33.0530   38.4330 C   0  0  0  0  0  0  0  0  0  0  0  0
   45.3390   32.4370   38.0640 H   0  0  0  0  0  0  0  0  0  0  0  0
   46.1250   33.4450   39.7160 N   0  0  0  0  0  0  0  0  0  0  0  0
  1 10  1  0  0  0  0
  1  9  1  0  0  0  0
  2  1  2  0  0  0  0
  3  2  1  0  0  0  0
  3  4  2  0  0  0  0
  4  8  1  0  0  0  0
  5  4  1  0  0  0  0
  5  6  1  0  0  0  0
  6 12  1  0  0  0  0
  6  7  2  0  0  0  0
  8  9  2  0  0  0  0
  8  7  1  0  0  0  0
  9 13  1  0  0  0  0
 11  5  1  0  0  0  0
 14 15  2  0  0  0  0
 14 19  1  0  0  0  0
 15 16  1  0  0  0  0
 16 22  1  0  0  0  0
 16 17  2  0  0  0  0
 18 17  1  0  0  0  0
 18  2  1  0  0  0  0
 19 18  2  0  0  0  0
 20 14  1  0  0  0  0
 21 15  1  0  0  0  0
 23  3  1  0  0  0  0
 24 23  1  0  0  0  0
 25 24  2  0  0  0  0
 26 25  1  0  0  0  0
 27 29  1  0  0  0  0
 27 25  1  0  0  0  0
 28 27  1  0  0  0  0
 29 31  2  0  0  0  0
 30 29  1  0  0  0  0
 31 24  1  0  0  0  0
M  END
>  <minimizedAffinity>
-4.7730341

>  <minimizedRMSD>
4.63401604

$$$$
