
 OpenBabel03252502553D

 36 38  0  0  0  0  0  0  0  0999 V2000
   47.1270   31.3770   41.3710 Br  0  0  0  0  0  0  0  0  0  0  0  0
   47.9900   33.0670   41.6650 C   0  0  0  0  0  0  0  0  0  0  0  0
   49.3510   33.0120   41.8560 C   0  0  0  0  0  0  0  0  0  0  0  0
   49.9520   34.2630   42.0670 C   0  0  0  0  0  0  0  0  0  0  0  0
   49.2520   35.4510   42.0860 C   0  0  0  0  0  0  0  0  0  0  0  0
   47.8970   35.4140   41.8870 C   0  0  0  0  0  0  0  0  0  0  0  0
   47.2440   34.2280   41.6740 C   0  0  0  0  0  0  0  0  0  0  0  0
   51.0320   34.2960   42.2260 H   0  0  0  0  0  0  0  0  0  0  0  0
   49.8170   36.3670   42.2600 H   0  0  0  0  0  0  0  0  0  0  0  0
   47.4050   36.3780   41.9140 H   0  0  0  0  0  0  0  0  0  0  0  0
   50.2020   31.8260   41.8590 C   0  0  0  0  0  0  0  0  0  0  0  0
   50.8780   31.8870   42.7350 H   0  0  0  0  0  0  0  0  0  0  0  0
   49.5700   30.9290   42.0170 H   0  0  0  0  0  0  0  0  0  0  0  0
   51.1340   31.4720   38.2580 C   0  0  0  0  0  0  0  0  0  0  0  0
   52.5090   31.2720   38.3470 C   0  0  0  0  0  0  0  0  0  0  0  0
   53.0990   31.2610   39.6120 C   0  0  0  0  0  0  0  0  0  0  0  0
   52.3100   31.4420   40.6860 N   0  0  0  0  0  0  0  0  0  0  0  0
   50.9640   31.6370   40.5880 C   0  0  0  0  0  0  0  0  0  0  0  0
   50.4210   31.6430   39.3540 N   0  0  0  0  0  0  0  0  0  0  0  0
   50.6840   31.4780   37.2630 H   0  0  0  0  0  0  0  0  0  0  0  0
   53.0800   31.1330   37.4380 H   0  0  0  0  0  0  0  0  0  0  0  0
   54.1680   31.1060   39.6860 H   0  0  0  0  0  0  0  0  0  0  0  0
   45.8710   34.2150   41.4760 O   0  0  0  0  0  0  0  0  0  0  0  0
   45.5080   34.9430   43.9520 O   0  0  0  0  0  0  0  0  0  0  0  0
   44.7540   34.3560   42.7490 P   0  0  2  0  0  0  0  0  0  0  0  0
   44.2070   32.8260   43.1290 O   0  0  0  0  0  0  0  0  0  0  0  0
   43.6590   32.4860   42.3840 H   0  0  0  0  0  0  0  0  0  0  0  0
   43.5000   35.4130   42.4030 O   0  0  0  0  0  0  0  0  0  0  0  0
   42.6700   35.3560   41.3050 C   0  0  0  0  0  0  0  0  0  0  0  0
   41.3190   35.5470   41.5070 C   0  0  0  0  0  0  0  0  0  0  0  0
   40.7070   35.7470   42.3920 H   0  0  0  0  0  0  0  0  0  0  0  0
   40.7050   35.4480   40.2970 N   0  0  0  0  0  0  0  0  0  0  0  0
   39.6840   35.5330   40.0320 H   0  0  0  0  0  0  0  0  0  0  0  0
   41.6710   35.1990   39.3710 C   0  0  0  0  0  0  0  0  0  0  0  0
   41.5160   35.0640   38.2960 H   0  0  0  0  0  0  0  0  0  0  0  0
   42.8560   35.1480   40.0060 N   0  0  0  0  0  0  0  0  0  0  0  0
  1  2  1  0  0  0  0
  2  7  2  0  0  0  0
  2  3  1  0  0  0  0
  3 11  1  0  0  0  0
  3  4  2  0  0  0  0
  4  5  1  0  0  0  0
  4  8  1  0  0  0  0
  5  9  1  0  0  0  0
  6 10  1  0  0  0  0
  6  5  2  0  0  0  0
  7  6  1  0  0  0  0
 11 13  1  0  0  0  0
 11 12  1  0  0  0  0
 14 15  2  0  0  0  0
 14 19  1  0  0  0  0
 15 16  1  0  0  0  0
 16 22  1  0  0  0  0
 16 17  2  0  0  0  0
 18 17  1  0  0  0  0
 18 11  1  0  0  0  0
 19 18  2  0  0  0  0
 20 14  1  0  0  0  0
 21 15  1  0  0  0  0
 23  7  1  0  0  0  0
 23 25  1  0  0  0  0
 25 26  1  0  0  0  0
 25 24  2  1  0  0  0
 27 26  1  0  0  0  0
 28 25  1  0  0  0  0
 29 30  2  0  0  0  0
 29 28  1  0  0  0  0
 30 31  1  0  0  0  0
 32 30  1  0  0  0  0
 33 32  1  0  0  0  0
 34 36  2  0  0  0  0
 34 32  1  0  0  0  0
 35 34  1  0  0  0  0
 36 29  1  0  0  0  0
M  END
>  <minimizedAffinity>
-5.35252666

>  <minimizedRMSD>
9.83221817

$$$$
