
 OpenBabel03252508073D

 43 46  0  0  0  0  0  0  0  0999 V2000
   44.9700   35.4730   43.3910 C   0  0  0  0  0  0  0  0  0  0  0  0
   45.4250   34.1640   43.4120 C   0  0  0  0  0  0  0  0  0  0  0  0
   45.4660   33.4700   44.5970 C   0  0  0  0  0  0  0  0  0  0  0  0
   45.0370   34.1380   45.7290 N   0  0  0  0  0  0  0  0  0  0  0  0
   44.6010   35.3950   45.7010 C   0  0  0  0  0  0  0  0  0  0  0  0
   44.5730   36.0540   44.5220 N   0  0  0  0  0  0  0  0  0  0  0  0
   44.9250   36.0500   42.4780 H   0  0  0  0  0  0  0  0  0  0  0  0
   44.2690   35.9020   46.5970 H   0  0  0  0  0  0  0  0  0  0  0  0
   45.9010   32.1380   44.7860 C   0  0  0  0  0  0  0  0  0  0  0  0
   45.6390   31.0960   43.8930 C   0  0  0  0  0  0  0  0  0  0  0  0
   46.0010   29.7910   44.1050 C   0  0  0  0  0  0  0  0  0  0  0  0
   46.6660   29.4470   45.2580 C   0  0  0  0  0  0  0  0  0  0  0  0
   46.9440   30.4920   46.1810 C   0  0  0  0  0  0  0  0  0  0  0  0
   47.6040   30.1630   47.3360 C   0  0  0  0  0  0  0  0  0  0  0  0
   47.9070   31.1300   48.2750 C   0  0  0  0  0  0  0  0  0  0  0  0
   47.5340   32.4610   48.0330 C   0  0  0  0  0  0  0  0  0  0  0  0
   46.8570   32.7520   46.8340 C   0  0  0  0  0  0  0  0  0  0  0  0
   46.5670   31.7710   45.9270 C   0  0  0  0  0  0  0  0  0  0  0  0
   45.1130   31.3720   42.9810 H   0  0  0  0  0  0  0  0  0  0  0  0
   45.7800   29.0140   43.3890 H   0  0  0  0  0  0  0  0  0  0  0  0
   46.9900   28.4600   45.5200 H   0  0  0  0  0  0  0  0  0  0  0  0
   47.9060   29.1310   47.5440 H   0  0  0  0  0  0  0  0  0  0  0  0
   48.4320   30.8110   49.1750 H   0  0  0  0  0  0  0  0  0  0  0  0
   47.8120   33.1470   48.8170 H   0  0  0  0  0  0  0  0  0  0  0  0
   46.6820   33.8070   46.8260 H   0  0  0  0  0  0  0  0  0  0  0  0
   45.8140   33.6190   42.2230 O   0  0  0  0  0  0  0  0  0  0  0  0
   48.1950   32.6490   41.7180 O   0  0  0  0  0  0  0  0  0  0  0  0
   47.3350   33.8420   41.5140 P   0  0  1  0  0  0  0  0  0  0  0  0
   47.2000   34.0740   39.8420 O   0  0  0  0  0  0  0  0  0  0  0  0
   48.1070   33.5890   38.9110 C   0  0  0  0  0  0  0  0  0  0  0  0
   48.4920   34.4740   37.9370 C   0  0  0  0  0  0  0  0  0  0  0  0
   48.2460   35.5170   37.7060 H   0  0  0  0  0  0  0  0  0  0  0  0
   49.3710   33.8430   37.1210 N   0  0  0  0  0  0  0  0  0  0  0  0
   49.8830   34.1730   36.2740 H   0  0  0  0  0  0  0  0  0  0  0  0
   49.4980   32.6010   37.6120 C   0  0  0  0  0  0  0  0  0  0  0  0
   50.0950   31.7340   37.2900 H   0  0  0  0  0  0  0  0  0  0  0  0
   48.7290   32.4130   38.7200 N   0  0  0  0  0  0  0  0  0  0  0  0
   48.0380   35.2070   42.1890 O   0  0  0  0  0  0  0  0  0  0  0  0
   49.3570   35.6150   42.0590 C   0  0  0  0  0  0  0  0  0  0  0  0
   49.3470   36.4260   41.1200 O   0  0  0  0  0  0  0  0  0  0  0  0
   50.1950   34.9560   43.0360 N   0  0  0  0  0  0  0  0  0  0  0  0
   50.9810   34.2720   42.9320 H   0  0  0  0  0  0  0  0  0  0  0  0
   50.0060   35.1860   44.0570 H   0  0  0  0  0  0  0  0  0  0  0  0
  1  2  2  0  0  0  0
  1  6  1  0  0  0  0
  2  3  1  0  0  0  0
  3  9  1  0  0  0  0
  3  4  2  0  0  0  0
  5  4  1  0  0  0  0
  5  8  1  0  0  0  0
  6  5  2  0  0  0  0
  7  1  1  0  0  0  0
  9 18  1  0  0  0  0
 10 11  1  0  0  0  0
 10  9  2  0  0  0  0
 11 12  2  0  0  0  0
 12 21  1  0  0  0  0
 12 13  1  0  0  0  0
 13 14  1  0  0  0  0
 14 22  1  0  0  0  0
 14 15  2  0  0  0  0
 15 23  1  0  0  0  0
 16 15  1  0  0  0  0
 16 24  1  0  0  0  0
 17 16  2  0  0  0  0
 18 13  2  0  0  0  0
 18 17  1  0  0  0  0
 19 10  1  0  0  0  0
 20 11  1  0  0  0  0
 25 17  1  0  0  0  0
 26  2  1  0  0  0  0
 28 27  2  1  0  0  0
 28 38  1  0  0  0  0
 28 26  1  0  0  0  0
 29 28  1  0  0  0  0
 30 29  1  0  0  0  0
 31 30  2  0  0  0  0
 32 31  1  0  0  0  0
 33 35  1  0  0  0  0
 33 31  1  0  0  0  0
 34 33  1  0  0  0  0
 35 37  2  0  0  0  0
 36 35  1  0  0  0  0
 37 30  1  0  0  0  0
 39 38  1  0  0  0  0
 39 41  1  0  0  0  0
 40 39  2  0  0  0  0
 41 43  1  0  0  0  0
 42 41  1  0  0  0  0
M  END
>  <minimizedAffinity>
-6.6275425

>  <minimizedRMSD>
0.928213656

$$$$
