
 OpenBabel03252506463D

 41 44  0  0  1  0  0  0  0  0999 V2000
   49.6170   33.4320   41.4230 N   0  0  1  0  0  0  0  0  0  0  0  0
   50.7010   32.9400   42.2340 C   0  0  0  0  0  0  0  0  0  0  0  0
   51.2270   31.6140   41.7610 C   0  0  0  0  0  0  0  0  0  0  0  0
   50.1630   30.5650   42.0160 C   0  0  0  0  0  0  0  0  0  0  0  0
   48.7930   31.1240   41.7370 C   0  0  0  0  0  0  0  0  0  0  0  0
   48.9240   32.3320   40.8460 C   0  0  2  0  0  0  0  0  0  0  0  0
   51.5070   33.6870   42.2730 H   0  0  0  0  0  0  0  0  0  0  0  0
   50.3460   32.7970   43.2940 H   0  0  0  0  0  0  0  0  0  0  0  0
   51.6110   31.6220   40.7450 H   0  0  0  0  0  0  0  0  0  0  0  0
   52.0690   31.3610   42.4340 H   0  0  0  0  0  0  0  0  0  0  0  0
   50.4050   29.6980   41.3640 H   0  0  0  0  0  0  0  0  0  0  0  0
   50.2360   30.2290   43.0720 H   0  0  0  0  0  0  0  0  0  0  0  0
   48.1270   30.4180   41.2320 H   0  0  0  0  0  0  0  0  0  0  0  0
   48.3800   31.4880   42.7070 H   0  0  0  0  0  0  0  0  0  0  0  0
   47.8750   32.6900   40.6520 H   0  0  0  0  0  0  0  0  0  0  0  0
   47.3860   34.6180   41.9520 C   0  0  1  0  0  0  0  0  0  0  0  0
   48.4620   35.6110   41.7030 C   0  0  0  0  0  0  0  0  0  0  0  0
   48.8000   34.2680   42.2410 C   0  0  2  0  0  0  0  0  0  0  0  0
   46.8950   34.2240   41.0250 H   0  0  0  0  0  0  0  0  0  0  0  0
   48.7480   35.8380   40.6400 H   0  0  0  0  0  0  0  0  0  0  0  0
   48.5140   36.5110   42.3460 H   0  0  0  0  0  0  0  0  0  0  0  0
   49.0570   34.2320   43.3300 H   0  0  0  0  0  0  0  0  0  0  0  0
   45.5520   35.9280   43.0670 C   0  0  0  0  0  0  0  0  0  0  0  0
   46.4440   34.8510   43.0530 C   0  0  0  0  0  0  0  0  0  0  0  0
   46.3940   33.9700   44.1480 C   0  0  0  0  0  0  0  0  0  0  0  0
   45.5020   34.1960   45.1480 N   0  0  0  0  0  0  0  0  0  0  0  0
   44.6560   35.2580   45.1140 C   0  0  0  0  0  0  0  0  0  0  0  0
   44.6740   36.1310   44.0740 N   0  0  0  0  0  0  0  0  0  0  0  0
   45.6170   36.5930   42.2020 H   0  0  0  0  0  0  0  0  0  0  0  0
   47.0670   33.1200   44.1870 H   0  0  0  0  0  0  0  0  0  0  0  0
   43.9720   35.3900   45.9390 H   0  0  0  0  0  0  0  0  0  0  0  0
   49.4190   31.9170   39.5450 N   0  0  0  0  0  0  0  0  0  0  0  0
   50.2720   31.4130   39.1410 H   0  0  0  0  0  0  0  0  0  0  0  0
   48.4410   32.3200   38.5590 C   0  0  0  0  0  0  0  0  0  0  0  0
   47.3620   31.8440   37.8460 C   0  0  0  0  0  0  0  0  0  0  0  0
   47.1250   30.8290   38.0480 H   0  0  0  0  0  0  0  0  0  0  0  0
   46.8890   32.8260   37.0630 N   0  0  0  0  0  0  0  0  0  0  0  0
   46.0630   32.6470   36.4430 H   0  0  0  0  0  0  0  0  0  0  0  0
   47.6260   33.9350   37.2420 C   0  0  0  0  0  0  0  0  0  0  0  0
   47.3980   34.8370   36.6970 H   0  0  0  0  0  0  0  0  0  0  0  0
   48.5820   33.6200   38.1650 N   0  0  0  0  0  0  0  0  0  0  0  0
  1  2  1  1  0  0  0
  1 18  1  0  0  0  0
  2  7  1  0  0  0  0
  2  8  1  0  0  0  0
  3  4  1  0  0  0  0
  3  2  1  0  0  0  0
  3 10  1  0  0  0  0
  4 12  1  0  0  0  0
  5  4  1  0  0  0  0
  5 14  1  0  0  0  0
  6 15  1  6  0  0  0
  6  1  1  0  0  0  0
  6  5  1  0  0  0  0
  9  3  1  0  0  0  0
 11  4  1  0  0  0  0
 13  5  1  0  0  0  0
 16 19  1  6  0  0  0
 16 18  1  0  0  0  0
 16 24  1  0  0  0  0
 17 16  1  0  0  0  0
 17 18  1  0  0  0  0
 17 21  1  0  0  0  0
 18 22  1  1  0  0  0
 20 17  1  0  0  0  0
 23 28  1  0  0  0  0
 24 23  2  0  0  0  0
 24 25  1  0  0  0  0
 25 30  1  0  0  0  0
 25 26  2  0  0  0  0
 27 26  1  0  0  0  0
 27 31  1  0  0  0  0
 28 27  2  0  0  0  0
 29 23  1  0  0  0  0
 32  6  1  0  0  0  0
 33 32  1  0  0  0  0
 34 32  1  0  0  0  0
 35 36  1  0  0  0  0
 35 34  2  0  0  0  0
 37 39  1  0  0  0  0
 37 35  1  0  0  0  0
 38 37  1  0  0  0  0
 39 41  2  0  0  0  0
 40 39  1  0  0  0  0
 41 34  1  0  0  0  0
M  END
>  <minimizedAffinity>
-5.00193024

>  <minimizedRMSD>
2.37940621

$$$$
