
 OpenBabel03252505143D

 24 26  0  0  0  0  0  0  0  0999 V2000
   44.7120   35.8010   44.3550 C   0  0  0  0  0  0  0  0  0  0  0  0
   45.4130   35.9050   43.1410 C   0  0  0  0  0  0  0  0  0  0  0  0
   46.3300   34.8970   42.8880 C   0  0  0  0  0  0  0  0  0  0  0  0
   46.5170   33.8750   43.7880 N   0  0  0  0  0  0  0  0  0  0  0  0
   45.8090   33.8190   44.9520 C   0  0  0  0  0  0  0  0  0  0  0  0
   44.9130   34.7850   45.2240 N   0  0  0  0  0  0  0  0  0  0  0  0
   43.9800   36.5430   44.6300 H   0  0  0  0  0  0  0  0  0  0  0  0
   45.2540   36.7020   42.4610 H   0  0  0  0  0  0  0  0  0  0  0  0
   47.1240   34.8790   41.6140 C   0  0  0  0  0  0  0  0  0  0  0  0
   48.4910   35.5130   41.7540 C   0  0  0  0  0  0  0  0  0  0  0  0
   48.2750   33.9940   41.5120 C   0  0  0  0  0  0  0  0  0  0  0  0
   46.5300   35.1740   40.7360 H   0  0  0  0  0  0  0  0  0  0  0  0
   48.8550   35.8450   42.7230 H   0  0  0  0  0  0  0  0  0  0  0  0
   48.7970   36.1280   40.8940 H   0  0  0  0  0  0  0  0  0  0  0  0
   48.6860   33.3930   42.3200 H   0  0  0  0  0  0  0  0  0  0  0  0
   48.6120   33.6830   40.4860 H   0  0  0  0  0  0  0  0  0  0  0  0
   46.1360   32.6660   45.7850 C   0  0  0  0  0  0  0  0  0  0  0  0
   46.8100   32.8530   46.9950 C   0  0  0  0  0  0  0  0  0  0  0  0
   47.1510   33.7980   47.4420 H   0  0  0  0  0  0  0  0  0  0  0  0
   46.9920   31.6490   47.5680 N   0  0  0  0  0  0  0  0  0  0  0  0
   47.4720   31.5110   48.4840 H   0  0  0  0  0  0  0  0  0  0  0  0
   46.4440   30.7180   46.7350 C   0  0  0  0  0  0  0  0  0  0  0  0
   46.4900   29.6880   47.0230 H   0  0  0  0  0  0  0  0  0  0  0  0
   45.9200   31.3440   45.6420 N   0  0  0  0  0  0  0  0  0  0  0  0
  1  7  1  0  0  0  0
  1  6  1  0  0  0  0
  2  1  2  0  0  0  0
  3  2  1  0  0  0  0
  3  4  2  0  0  0  0
  4  5  1  0  0  0  0
  5  6  2  0  0  0  0
  5 17  1  0  0  0  0
  8  2  1  0  0  0  0
  9 10  1  0  0  0  0
  9  3  1  0  0  0  0
 10 13  1  0  0  0  0
 11  9  1  0  0  0  0
 11 10  1  0  0  0  0
 11 15  1  0  0  0  0
 12  9  1  0  0  0  0
 14 10  1  0  0  0  0
 16 11  1  0  0  0  0
 17 18  2  0  0  0  0
 18 19  1  0  0  0  0
 18 20  1  0  0  0  0
 20 21  1  0  0  0  0
 22 23  1  0  0  0  0
 22 20  1  0  0  0  0
 24 17  1  0  0  0  0
 24 22  2  0  0  0  0
M  END
>  <minimizedAffinity>
-4.56252337

>  <minimizedRMSD>
0.450023472

$$$$
