
 OpenBabel03242521583D

 32 34  0  0  0  0  0  0  0  0999 V2000
   46.4530   34.5330   42.0320 C   0  0  0  0  0  0  0  0  0  0  0  0
   47.6280   35.1260   41.6230 C   0  0  0  0  0  0  0  0  0  0  0  0
   48.2760   34.8660   40.4200 C   0  0  0  0  0  0  0  0  0  0  0  0
   47.7060   33.9500   39.5720 C   0  0  0  0  0  0  0  0  0  0  0  0
   46.5540   33.3720   39.9780 C   0  0  0  0  0  0  0  0  0  0  0  0
   45.9530   33.6390   41.1390 N   0  0  0  0  0  0  0  0  0  0  0  0
   48.0080   35.8450   42.3670 H   0  0  0  0  0  0  0  0  0  0  0  0
   49.1830   35.4520   40.3130 H   0  0  0  0  0  0  0  0  0  0  0  0
   48.3490   33.8690   38.7150 H   0  0  0  0  0  0  0  0  0  0  0  0
   44.4800   36.0010   44.8790 C   0  0  0  0  0  0  0  0  0  0  0  0
   45.0240   35.9000   43.5910 C   0  0  0  0  0  0  0  0  0  0  0  0
   45.8050   34.8100   43.3060 C   0  0  0  0  0  0  0  0  0  0  0  0
   46.0130   33.8790   44.2950 N   0  0  0  0  0  0  0  0  0  0  0  0
   45.4750   34.0020   45.5300 C   0  0  0  0  0  0  0  0  0  0  0  0
   44.7130   35.0670   45.8050 N   0  0  0  0  0  0  0  0  0  0  0  0
   43.8660   36.8670   45.0880 H   0  0  0  0  0  0  0  0  0  0  0  0
   44.8780   36.6160   42.7930 H   0  0  0  0  0  0  0  0  0  0  0  0
   45.6890   33.2220   46.2490 H   0  0  0  0  0  0  0  0  0  0  0  0
   45.9620   32.4480   39.1360 O   0  0  0  0  0  0  0  0  0  0  0  0
   45.2280   33.4910   36.8230 O   0  0  0  0  0  0  0  0  0  0  0  0
   44.6860   32.8470   38.0760 P   0  0  1  0  0  0  0  0  0  0  0  0
   43.8470   31.4400   37.6780 O   0  0  0  0  0  0  0  0  0  0  0  0
   42.9040   31.6810   37.4180 H   0  0  0  0  0  0  0  0  0  0  0  0
   43.6850   33.9600   38.8880 O   0  0  0  0  0  0  0  0  0  0  0  0
   42.6930   33.5310   39.7270 C   0  0  0  0  0  0  0  0  0  0  0  0
   42.4940   34.1670   40.9320 C   0  0  0  0  0  0  0  0  0  0  0  0
   43.0080   35.0050   41.3800 H   0  0  0  0  0  0  0  0  0  0  0  0
   41.4630   33.5600   41.5700 N   0  0  0  0  0  0  0  0  0  0  0  0
   41.0690   33.8170   42.5160 H   0  0  0  0  0  0  0  0  0  0  0  0
   41.0300   32.5570   40.7650 C   0  0  0  0  0  0  0  0  0  0  0  0
   40.2210   31.8600   40.9500 H   0  0  0  0  0  0  0  0  0  0  0  0
   41.7780   32.5280   39.6270 N   0  0  0  0  0  0  0  0  0  0  0  0
  1 12  1  0  0  0  0
  2  1  1  0  0  0  0
  2  7  1  0  0  0  0
  3  2  2  0  0  0  0
  4  5  2  0  0  0  0
  4  3  1  0  0  0  0
  5  6  1  0  0  0  0
  6  1  2  0  0  0  0
  8  3  1  0  0  0  0
  9  4  1  0  0  0  0
 10 16  1  0  0  0  0
 10 15  1  0  0  0  0
 11 10  2  0  0  0  0
 12 11  1  0  0  0  0
 12 13  2  0  0  0  0
 13 14  1  0  0  0  0
 14 15  2  0  0  0  0
 14 18  1  0  0  0  0
 17 11  1  0  0  0  0
 19  5  1  0  0  0  0
 21 20  2  6  0  0  0
 21 24  1  0  0  0  0
 21 19  1  0  0  0  0
 22 21  1  0  0  0  0
 23 22  1  0  0  0  0
 24 25  1  0  0  0  0
 25 26  2  0  0  0  0
 26 27  1  0  0  0  0
 26 28  1  0  0  0  0
 28 29  1  0  0  0  0
 30 31  1  0  0  0  0
 30 28  1  0  0  0  0
 32 25  1  0  0  0  0
 32 30  2  0  0  0  0
M  END
>  <minimizedAffinity>
-5.29340744

>  <minimizedRMSD>
2.13346076

$$$$
