
 OpenBabel03252506123D

 35 37  0  0  0  0  0  0  0  0999 V2000
   45.3870   33.2180   41.2320 F   0  0  0  0  0  0  0  0  0  0  0  0
   46.5060   33.9310   41.0830 C   0  0  0  0  0  0  0  0  0  0  0  0
   46.9100   34.7760   42.0940 C   0  0  0  0  0  0  0  0  0  0  0  0
   48.0680   35.5550   42.0200 C   0  0  0  0  0  0  0  0  0  0  0  0
   48.8590   35.4820   40.8740 C   0  0  0  0  0  0  0  0  0  0  0  0
   48.4200   34.6220   39.8820 C   0  0  0  0  0  0  0  0  0  0  0  0
   47.2970   33.8600   39.9410 C   0  0  0  0  0  0  0  0  0  0  0  0
   48.3180   36.1940   42.8550 H   0  0  0  0  0  0  0  0  0  0  0  0
   49.7380   36.0980   40.8610 H   0  0  0  0  0  0  0  0  0  0  0  0
   49.1270   34.6570   39.0580 H   0  0  0  0  0  0  0  0  0  0  0  0
   45.4910   33.9950   45.3870 C   0  0  0  0  0  0  0  0  0  0  0  0
   44.6270   35.0980   45.6000 C   0  0  0  0  0  0  0  0  0  0  0  0
   44.5400   36.1030   44.6060 C   0  0  0  0  0  0  0  0  0  0  0  0
   45.3110   35.9350   43.4900 N   0  0  0  0  0  0  0  0  0  0  0  0
   46.1140   34.8830   43.3220 C   0  0  0  0  0  0  0  0  0  0  0  0
   46.2000   33.9270   44.2620 N   0  0  0  0  0  0  0  0  0  0  0  0
   44.0380   35.1960   46.4870 H   0  0  0  0  0  0  0  0  0  0  0  0
   43.8900   36.9570   44.7380 H   0  0  0  0  0  0  0  0  0  0  0  0
   45.5670   32.9990   46.3900 N   0  0  0  0  0  0  0  0  0  0  0  0
   45.5410   31.9450   46.2490 H   0  0  0  0  0  0  0  0  0  0  0  0
   45.6610   33.3060   47.4040 H   0  0  0  0  0  0  0  0  0  0  0  0
   46.9560   33.0440   38.9000 O   0  0  0  0  0  0  0  0  0  0  0  0
   48.1240   34.4550   36.9870 O   0  0  0  0  0  0  0  0  0  0  0  0
   47.0720   33.4120   37.2650 P   0  0  2  0  0  0  0  0  0  0  0  0
   45.5340   33.9720   36.7450 O   0  0  0  0  0  0  0  0  0  0  0  0
   44.9510   33.1840   36.5390 H   0  0  0  0  0  0  0  0  0  0  0  0
   47.3780   32.0680   36.2890 O   0  0  0  0  0  0  0  0  0  0  0  0
   47.9700   30.8920   36.7310 C   0  0  0  0  0  0  0  0  0  0  0  0
   47.2290   29.7270   36.7610 C   0  0  0  0  0  0  0  0  0  0  0  0
   46.2060   29.4670   36.5050 H   0  0  0  0  0  0  0  0  0  0  0  0
   48.0470   28.7470   37.2310 N   0  0  0  0  0  0  0  0  0  0  0  0
   47.9220   27.7110   37.4220 H   0  0  0  0  0  0  0  0  0  0  0  0
   49.2580   29.2660   37.4880 C   0  0  0  0  0  0  0  0  0  0  0  0
   50.2260   28.9550   37.8550 H   0  0  0  0  0  0  0  0  0  0  0  0
   49.2230   30.5940   37.1830 N   0  0  0  0  0  0  0  0  0  0  0  0
  2  1  1  0  0  0  0
  2  3  1  0  0  0  0
  3 15  1  0  0  0  0
  4  3  2  0  0  0  0
  4  8  1  0  0  0  0
  5  4  1  0  0  0  0
  6  7  1  0  0  0  0
  6  5  2  0  0  0  0
  7  2  2  0  0  0  0
  9  5  1  0  0  0  0
 10  6  1  0  0  0  0
 11 12  1  0  0  0  0
 11 19  1  0  0  0  0
 12 17  1  0  0  0  0
 13 18  1  0  0  0  0
 13 12  2  0  0  0  0
 14 13  1  0  0  0  0
 15 14  2  0  0  0  0
 15 16  1  0  0  0  0
 16 11  2  0  0  0  0
 19 21  1  0  0  0  0
 20 19  1  0  0  0  0
 22  7  1  0  0  0  0
 24 23  2  6  0  0  0
 24 22  1  0  0  0  0
 25 24  1  0  0  0  0
 26 25  1  0  0  0  0
 27 28  1  0  0  0  0
 27 24  1  0  0  0  0
 28 29  2  0  0  0  0
 28 35  1  0  0  0  0
 29 31  1  0  0  0  0
 30 29  1  0  0  0  0
 31 32  1  0  0  0  0
 31 33  1  0  0  0  0
 33 34  1  0  0  0  0
 35 33  2  0  0  0  0
M  END
>  <minimizedAffinity>
-5.78148746

>  <minimizedRMSD>
1.23839748

$$$$
