
 OpenBabel03242516313D

 30 32  0  0  1  0  0  0  0  0999 V2000
   48.1430   34.8490   42.1530 C   0  0  2  0  0  0  0  0  0  0  0  0
   46.7680   34.1750   42.2370 C   0  0  1  0  0  0  0  0  0  0  0  0
   47.1760   32.8550   42.2900 O   0  0  0  0  0  0  0  0  0  0  0  0
   48.0430   32.7210   41.2110 C   0  0  0  0  0  0  0  0  0  0  0  0
   48.5990   34.0960   40.8890 C   0  0  1  0  0  0  0  0  0  0  0  0
   48.0710   35.9250   41.9970 H   0  0  0  0  0  0  0  0  0  0  0  0
   46.2350   34.4740   41.3300 H   0  0  0  0  0  0  0  0  0  0  0  0
   48.9110   32.1140   41.5790 H   0  0  0  0  0  0  0  0  0  0  0  0
   47.6220   32.2100   40.3450 H   0  0  0  0  0  0  0  0  0  0  0  0
   49.6920   34.0990   40.7790 H   0  0  0  0  0  0  0  0  0  0  0  0
   44.4910   35.9120   44.7320 C   0  0  0  0  0  0  0  0  0  0  0  0
   45.1440   35.7070   43.5110 C   0  0  0  0  0  0  0  0  0  0  0  0
   45.9920   34.6150   43.3960 C   0  0  0  0  0  0  0  0  0  0  0  0
   46.1440   33.7960   44.4860 N   0  0  0  0  0  0  0  0  0  0  0  0
   45.4990   34.0210   45.6520 C   0  0  0  0  0  0  0  0  0  0  0  0
   44.6760   35.0760   45.7720 N   0  0  0  0  0  0  0  0  0  0  0  0
   43.8480   36.7730   44.7600 H   0  0  0  0  0  0  0  0  0  0  0  0
   45.0730   36.3000   42.6270 H   0  0  0  0  0  0  0  0  0  0  0  0
   45.6450   33.3500   46.4930 H   0  0  0  0  0  0  0  0  0  0  0  0
   48.9570   34.4150   43.1580 O   0  0  0  0  0  0  0  0  0  0  0  0
   49.8380   34.8640   43.0340 H   0  0  0  0  0  0  0  0  0  0  0  0
   47.9220   34.6950   39.8200 O   0  0  0  0  0  0  0  0  0  0  0  0
   47.9670   34.2090   38.5170 C   0  0  0  0  0  0  0  0  0  0  0  0
   48.7700   34.2530   37.3930 C   0  0  0  0  0  0  0  0  0  0  0  0
   49.6680   34.8420   37.5080 H   0  0  0  0  0  0  0  0  0  0  0  0
   48.1850   33.5200   36.4270 N   0  0  0  0  0  0  0  0  0  0  0  0
   48.6610   33.4430   35.4980 H   0  0  0  0  0  0  0  0  0  0  0  0
   47.0370   33.0160   36.9140 C   0  0  0  0  0  0  0  0  0  0  0  0
   46.4110   32.3920   36.2910 H   0  0  0  0  0  0  0  0  0  0  0  0
   46.8920   33.4340   38.1980 N   0  0  0  0  0  0  0  0  0  0  0  0
  1  6  1  6  0  0  0
  1  2  1  0  0  0  0
  1 20  1  0  0  0  0
  2  7  1  6  0  0  0
  2  3  1  0  0  0  0
  2 13  1  0  0  0  0
  4  8  1  0  0  0  0
  4  3  1  0  0  0  0
  5 10  1  6  0  0  0
  5  4  1  0  0  0  0
  5  1  1  0  0  0  0
  9  4  1  0  0  0  0
 11 17  1  0  0  0  0
 11 16  1  0  0  0  0
 12 11  2  0  0  0  0
 13 12  1  0  0  0  0
 13 14  2  0  0  0  0
 14 15  1  0  0  0  0
 15 16  2  0  0  0  0
 15 19  1  0  0  0  0
 18 12  1  0  0  0  0
 21 20  1  0  0  0  0
 22  5  1  0  0  0  0
 23 22  1  0  0  0  0
 24 25  1  0  0  0  0
 24 23  2  0  0  0  0
 26 28  1  0  0  0  0
 26 24  1  0  0  0  0
 27 26  1  0  0  0  0
 28 30  2  0  0  0  0
 29 28  1  0  0  0  0
 30 23  1  0  0  0  0
M  END
>  <minimizedAffinity>
-5.20268154

>  <minimizedRMSD>
1.85944057

$$$$
