
 OpenBabel03242510103D

 27 29  0  0  0  0  0  0  0  0999 V2000
   37.8250   28.2960   39.1040 Br  0  0  0  0  0  0  0  0  0  0  0  0
   37.5750   28.0160   40.9860 C   0  0  0  0  0  0  0  0  0  0  0  0
   37.5190   26.7430   41.4720 C   0  0  0  0  0  0  0  0  0  0  0  0
   37.3370   26.5210   42.8490 C   0  0  0  0  0  0  0  0  0  0  0  0
   37.2190   27.6080   43.6660 C   0  0  0  0  0  0  0  0  0  0  0  0
   37.2820   28.8620   43.1210 C   0  0  0  0  0  0  0  0  0  0  0  0
   37.4580   29.1160   41.7940 C   0  0  0  0  0  0  0  0  0  0  0  0
   37.3060   25.4650   43.1410 H   0  0  0  0  0  0  0  0  0  0  0  0
   37.0800   27.4090   44.7150 H   0  0  0  0  0  0  0  0  0  0  0  0
   37.1810   29.6930   43.8170 H   0  0  0  0  0  0  0  0  0  0  0  0
   39.0210   24.0670   39.4940 C   0  0  0  0  0  0  0  0  0  0  0  0
   37.9280   23.4860   38.8260 C   0  0  0  0  0  0  0  0  0  0  0  0
   36.6690   24.0430   39.0760 C   0  0  0  0  0  0  0  0  0  0  0  0
   36.5710   25.0920   39.9340 N   0  0  0  0  0  0  0  0  0  0  0  0
   37.6510   25.6200   40.5570 C   0  0  0  0  0  0  0  0  0  0  0  0
   38.8720   25.0960   40.3280 N   0  0  0  0  0  0  0  0  0  0  0  0
   40.0480   23.7270   39.3850 H   0  0  0  0  0  0  0  0  0  0  0  0
   38.1390   22.6620   38.1730 H   0  0  0  0  0  0  0  0  0  0  0  0
   35.8510   23.5950   38.5640 H   0  0  0  0  0  0  0  0  0  0  0  0
   37.5170   30.4780   41.2700 C   0  0  0  0  0  0  0  0  0  0  0  0
   36.4230   31.2090   40.8740 C   0  0  0  0  0  0  0  0  0  0  0  0
   35.3890   30.9050   40.8860 H   0  0  0  0  0  0  0  0  0  0  0  0
   36.8410   32.4230   40.4450 N   0  0  0  0  0  0  0  0  0  0  0  0
   36.1840   33.1760   40.0840 H   0  0  0  0  0  0  0  0  0  0  0  0
   38.1900   32.4620   40.5680 C   0  0  0  0  0  0  0  0  0  0  0  0
   38.7620   33.3420   40.2850 H   0  0  0  0  0  0  0  0  0  0  0  0
   38.5960   31.2660   41.0740 N   0  0  0  0  0  0  0  0  0  0  0  0
  1  2  1  0  0  0  0
  2  3  2  0  0  0  0
  2  7  1  0  0  0  0
  3  4  1  0  0  0  0
  4  8  1  0  0  0  0
  4  5  2  0  0  0  0
  5  9  1  0  0  0  0
  6  5  1  0  0  0  0
  6 10  1  0  0  0  0
  7  6  2  0  0  0  0
 11 16  1  0  0  0  0
 12 13  1  0  0  0  0
 12 11  2  0  0  0  0
 13 14  2  0  0  0  0
 14 15  1  0  0  0  0
 15  3  1  0  0  0  0
 16 15  2  0  0  0  0
 17 11  1  0  0  0  0
 18 12  1  0  0  0  0
 19 13  1  0  0  0  0
 20  7  1  0  0  0  0
 21 22  1  0  0  0  0
 21 20  2  0  0  0  0
 23 25  1  0  0  0  0
 23 21  1  0  0  0  0
 24 23  1  0  0  0  0
 25 27  2  0  0  0  0
 26 25  1  0  0  0  0
 27 20  1  0  0  0  0
M  END
>  <minimizedAffinity>
-4.99681902

$$$$

 OpenBabel03242510103D

 27 29  0  0  0  0  0  0  0  0999 V2000
   40.5520   29.0760   39.9760 Br  0  0  0  0  0  0  0  0  0  0  0  0
   38.8410   29.8220   40.4180 C   0  0  0  0  0  0  0  0  0  0  0  0
   38.0420   29.1800   41.3180 C   0  0  0  0  0  0  0  0  0  0  0  0
   36.7840   29.7150   41.6520 C   0  0  0  0  0  0  0  0  0  0  0  0
   36.3990   30.8780   41.0530 C   0  0  0  0  0  0  0  0  0  0  0  0
   37.2430   31.4780   40.1560 C   0  0  0  0  0  0  0  0  0  0  0  0
   38.4670   30.9910   39.8070 C   0  0  0  0  0  0  0  0  0  0  0  0
   36.2180   29.1260   42.3840 H   0  0  0  0  0  0  0  0  0  0  0  0
   35.4320   31.2640   41.3260 H   0  0  0  0  0  0  0  0  0  0  0  0
   36.8860   32.4030   39.7060 H   0  0  0  0  0  0  0  0  0  0  0  0
   39.6020   26.8750   43.6800 C   0  0  0  0  0  0  0  0  0  0  0  0
   39.3820   25.6070   43.1100 C   0  0  0  0  0  0  0  0  0  0  0  0
   38.6860   25.5750   41.8960 C   0  0  0  0  0  0  0  0  0  0  0  0
   38.2680   26.7440   41.3440 N   0  0  0  0  0  0  0  0  0  0  0  0
   38.5010   27.9430   41.9280 C   0  0  0  0  0  0  0  0  0  0  0  0
   39.1700   27.9930   43.0980 N   0  0  0  0  0  0  0  0  0  0  0  0
   40.1290   27.0340   44.6170 H   0  0  0  0  0  0  0  0  0  0  0  0
   39.7650   24.7610   43.6450 H   0  0  0  0  0  0  0  0  0  0  0  0
   38.5270   24.6100   41.4760 H   0  0  0  0  0  0  0  0  0  0  0  0
   39.3240   31.6750   38.8430 C   0  0  0  0  0  0  0  0  0  0  0  0
   39.1430   31.6460   37.4810 C   0  0  0  0  0  0  0  0  0  0  0  0
   38.3710   31.1340   36.9310 H   0  0  0  0  0  0  0  0  0  0  0  0
   40.1140   32.3860   36.8960 N   0  0  0  0  0  0  0  0  0  0  0  0
   40.1960   32.5210   35.8460 H   0  0  0  0  0  0  0  0  0  0  0  0
   40.9060   32.8790   37.8790 C   0  0  0  0  0  0  0  0  0  0  0  0
   41.7630   33.5100   37.6560 H   0  0  0  0  0  0  0  0  0  0  0  0
   40.4140   32.4390   39.0690 N   0  0  0  0  0  0  0  0  0  0  0  0
  1  2  1  0  0  0  0
  2  3  1  0  0  0  0
  3  4  2  0  0  0  0
  3 15  1  0  0  0  0
  4  8  1  0  0  0  0
  5  9  1  0  0  0  0
  5  4  1  0  0  0  0
  6  5  2  0  0  0  0
  7  6  1  0  0  0  0
  7  2  2  0  0  0  0
 10  6  1  0  0  0  0
 11 17  1  0  0  0  0
 12 18  1  0  0  0  0
 12 11  1  0  0  0  0
 13 12  2  0  0  0  0
 14 13  1  0  0  0  0
 14 15  2  0  0  0  0
 15 16  1  0  0  0  0
 16 11  2  0  0  0  0
 19 13  1  0  0  0  0
 20 27  1  0  0  0  0
 20  7  1  0  0  0  0
 21 20  2  0  0  0  0
 22 21  1  0  0  0  0
 23 21  1  0  0  0  0
 23 25  1  0  0  0  0
 24 23  1  0  0  0  0
 25 27  2  0  0  0  0
 26 25  1  0  0  0  0
M  END
>  <minimizedAffinity>
-4.9655695

$$$$

 OpenBabel03242510103D

 27 29  0  0  0  0  0  0  0  0999 V2000
   40.5670   30.6210   40.8720 Br  0  0  0  0  0  0  0  0  0  0  0  0
   38.9650   30.6530   39.8160 C   0  0  0  0  0  0  0  0  0  0  0  0
   37.9170   29.8520   40.1630 C   0  0  0  0  0  0  0  0  0  0  0  0
   36.7360   29.8640   39.3990 C   0  0  0  0  0  0  0  0  0  0  0  0
   36.6780   30.6920   38.3160 C   0  0  0  0  0  0  0  0  0  0  0  0
   37.7610   31.4740   38.0150 C   0  0  0  0  0  0  0  0  0  0  0  0
   38.9210   31.4900   38.7310 C   0  0  0  0  0  0  0  0  0  0  0  0
   35.9530   29.1860   39.7590 H   0  0  0  0  0  0  0  0  0  0  0  0
   35.7630   30.6810   37.7490 H   0  0  0  0  0  0  0  0  0  0  0  0
   37.6630   32.1150   37.1410 H   0  0  0  0  0  0  0  0  0  0  0  0
   37.6480   28.6440   43.5980 C   0  0  0  0  0  0  0  0  0  0  0  0
   38.2340   27.3660   43.5540 C   0  0  0  0  0  0  0  0  0  0  0  0
   38.7210   26.9390   42.3130 C   0  0  0  0  0  0  0  0  0  0  0  0
   38.6040   27.7640   41.2390 N   0  0  0  0  0  0  0  0  0  0  0  0
   38.0310   28.9880   41.3270 C   0  0  0  0  0  0  0  0  0  0  0  0
   37.5570   29.4150   42.5140 N   0  0  0  0  0  0  0  0  0  0  0  0
   37.2340   29.0900   44.4990 H   0  0  0  0  0  0  0  0  0  0  0  0
   38.2660   26.8140   44.4720 H   0  0  0  0  0  0  0  0  0  0  0  0
   39.1620   25.9710   42.2930 H   0  0  0  0  0  0  0  0  0  0  0  0
   40.0450   32.3460   38.3610 C   0  0  0  0  0  0  0  0  0  0  0  0
   40.8370   32.1580   37.2540 C   0  0  0  0  0  0  0  0  0  0  0  0
   40.7580   31.3790   36.5130 H   0  0  0  0  0  0  0  0  0  0  0  0
   41.7760   33.1310   37.2190 N   0  0  0  0  0  0  0  0  0  0  0  0
   42.5140   33.2080   36.4580 H   0  0  0  0  0  0  0  0  0  0  0  0
   41.5820   33.9310   38.2960 C   0  0  0  0  0  0  0  0  0  0  0  0
   42.2180   34.7920   38.4870 H   0  0  0  0  0  0  0  0  0  0  0  0
   40.5190   33.4430   38.9900 N   0  0  0  0  0  0  0  0  0  0  0  0
  2  3  1  0  0  0  0
  2  1  1  0  0  0  0
  3 15  1  0  0  0  0
  4  8  1  0  0  0  0
  4  3  2  0  0  0  0
  5  4  1  0  0  0  0
  6  5  2  0  0  0  0
  6  7  1  0  0  0  0
  7  2  2  0  0  0  0
  9  5  1  0  0  0  0
 10  6  1  0  0  0  0
 11 17  1  0  0  0  0
 12 11  1  0  0  0  0
 12 18  1  0  0  0  0
 13 12  2  0  0  0  0
 14 15  2  0  0  0  0
 14 13  1  0  0  0  0
 15 16  1  0  0  0  0
 16 11  2  0  0  0  0
 19 13  1  0  0  0  0
 20  7  1  0  0  0  0
 20 27  1  0  0  0  0
 21 20  2  0  0  0  0
 22 21  1  0  0  0  0
 23 21  1  0  0  0  0
 23 25  1  0  0  0  0
 24 23  1  0  0  0  0
 25 26  1  0  0  0  0
 25 27  2  0  0  0  0
M  END
>  <minimizedAffinity>
-4.83640909

$$$$

 OpenBabel03242510103D

 27 29  0  0  0  0  0  0  0  0999 V2000
   39.5920   28.4180   39.0990 Br  0  0  0  0  0  0  0  0  0  0  0  0
   38.1650   29.4290   39.8890 C   0  0  0  0  0  0  0  0  0  0  0  0
   37.2790   28.8030   40.7170 C   0  0  0  0  0  0  0  0  0  0  0  0
   36.2280   29.5290   41.3040 C   0  0  0  0  0  0  0  0  0  0  0  0
   36.1270   30.8600   41.0190 C   0  0  0  0  0  0  0  0  0  0  0  0
   37.0440   31.4340   40.1800 C   0  0  0  0  0  0  0  0  0  0  0  0
   38.0750   30.7640   39.5940 C   0  0  0  0  0  0  0  0  0  0  0  0
   35.5710   28.9380   41.9530 H   0  0  0  0  0  0  0  0  0  0  0  0
   35.3120   31.3910   41.4810 H   0  0  0  0  0  0  0  0  0  0  0  0
   36.9170   32.4970   39.9860 H   0  0  0  0  0  0  0  0  0  0  0  0
   36.8940   25.1820   40.4510 C   0  0  0  0  0  0  0  0  0  0  0  0
   37.7100   24.6790   41.4810 C   0  0  0  0  0  0  0  0  0  0  0  0
   38.3900   25.6200   42.2630 C   0  0  0  0  0  0  0  0  0  0  0  0
   38.2290   26.9420   41.9910 N   0  0  0  0  0  0  0  0  0  0  0  0
   37.4330   27.3830   40.9880 C   0  0  0  0  0  0  0  0  0  0  0  0
   36.7710   26.4900   40.2250 N   0  0  0  0  0  0  0  0  0  0  0  0
   36.3150   24.5560   39.7760 H   0  0  0  0  0  0  0  0  0  0  0  0
   37.7500   23.6130   41.5920 H   0  0  0  0  0  0  0  0  0  0  0  0
   39.0030   25.2260   43.0380 H   0  0  0  0  0  0  0  0  0  0  0  0
   39.0240   31.4310   38.7060 C   0  0  0  0  0  0  0  0  0  0  0  0
   38.8150   31.6510   37.3660 C   0  0  0  0  0  0  0  0  0  0  0  0
   37.9520   31.3770   36.7810 H   0  0  0  0  0  0  0  0  0  0  0  0
   39.8930   32.2910   36.8550 N   0  0  0  0  0  0  0  0  0  0  0  0
   39.9780   32.5750   35.8350 H   0  0  0  0  0  0  0  0  0  0  0  0
   40.7800   32.4740   37.8630 C   0  0  0  0  0  0  0  0  0  0  0  0
   41.7330   32.9710   37.7000 H   0  0  0  0  0  0  0  0  0  0  0  0
   40.2390   31.9440   38.9940 N   0  0  0  0  0  0  0  0  0  0  0  0
  1  2  1  0  0  0  0
  2  3  1  0  0  0  0
  3 15  1  0  0  0  0
  3  4  2  0  0  0  0
  4  8  1  0  0  0  0
  5  4  1  0  0  0  0
  5  9  1  0  0  0  0
  6  5  2  0  0  0  0
  7  2  2  0  0  0  0
  7  6  1  0  0  0  0
 10  6  1  0  0  0  0
 11 12  1  0  0  0  0
 12 18  1  0  0  0  0
 12 13  2  0  0  0  0
 13 19  1  0  0  0  0
 14 13  1  0  0  0  0
 15 14  2  0  0  0  0
 16 11  2  0  0  0  0
 16 15  1  0  0  0  0
 17 11  1  0  0  0  0
 20 27  1  0  0  0  0
 20  7  1  0  0  0  0
 21 20  2  0  0  0  0
 22 21  1  0  0  0  0
 23 21  1  0  0  0  0
 23 25  1  0  0  0  0
 24 23  1  0  0  0  0
 25 27  2  0  0  0  0
 26 25  1  0  0  0  0
M  END
>  <minimizedAffinity>
-4.82156467

$$$$

 OpenBabel03242510103D

 27 29  0  0  0  0  0  0  0  0999 V2000
   38.0800   27.1970   39.1870 Br  0  0  0  0  0  0  0  0  0  0  0  0
   37.7850   27.6560   41.0270 C   0  0  0  0  0  0  0  0  0  0  0  0
   37.7390   28.9710   41.3900 C   0  0  0  0  0  0  0  0  0  0  0  0
   37.5230   29.3240   42.7340 C   0  0  0  0  0  0  0  0  0  0  0  0
   37.3640   28.3210   43.6460 C   0  0  0  0  0  0  0  0  0  0  0  0
   37.4200   27.0200   43.2230 C   0  0  0  0  0  0  0  0  0  0  0  0
   37.6270   26.6390   41.9310 C   0  0  0  0  0  0  0  0  0  0  0  0
   37.5030   30.4030   42.9250 H   0  0  0  0  0  0  0  0  0  0  0  0
   37.2000   28.6200   44.6670 H   0  0  0  0  0  0  0  0  0  0  0  0
   37.2880   26.2600   43.9910 H   0  0  0  0  0  0  0  0  0  0  0  0
   36.9630   31.4360   38.8120 C   0  0  0  0  0  0  0  0  0  0  0  0
   38.2190   31.9570   38.4530 C   0  0  0  0  0  0  0  0  0  0  0  0
   39.3320   31.4340   39.1220 C   0  0  0  0  0  0  0  0  0  0  0  0
   39.1440   30.4720   40.0630 N   0  0  0  0  0  0  0  0  0  0  0  0
   37.9140   30.0000   40.3780 C   0  0  0  0  0  0  0  0  0  0  0  0
   36.8320   30.4920   39.7440 N   0  0  0  0  0  0  0  0  0  0  0  0
   36.0240   31.7580   38.3670 H   0  0  0  0  0  0  0  0  0  0  0  0
   38.2330   32.7140   37.6940 H   0  0  0  0  0  0  0  0  0  0  0  0
   40.2770   31.8360   38.8410 H   0  0  0  0  0  0  0  0  0  0  0  0
   37.6770   25.2330   41.5400 C   0  0  0  0  0  0  0  0  0  0  0  0
   38.7430   24.3970   41.7700 C   0  0  0  0  0  0  0  0  0  0  0  0
   39.6740   24.6370   42.2570 H   0  0  0  0  0  0  0  0  0  0  0  0
   38.4500   23.1710   41.2790 N   0  0  0  0  0  0  0  0  0  0  0  0
   39.1140   22.3430   41.3310 H   0  0  0  0  0  0  0  0  0  0  0  0
   37.2080   23.2280   40.7400 C   0  0  0  0  0  0  0  0  0  0  0  0
   36.7470   22.3580   40.2780 H   0  0  0  0  0  0  0  0  0  0  0  0
   36.7420   24.4960   40.9040 N   0  0  0  0  0  0  0  0  0  0  0  0
  1  2  1  0  0  0  0
  2  3  2  0  0  0  0
  2  7  1  0  0  0  0
  3  4  1  0  0  0  0
  4  8  1  0  0  0  0
  4  5  2  0  0  0  0
  5  9  1  0  0  0  0
  6  5  1  0  0  0  0
  6 10  1  0  0  0  0
  7  6  2  0  0  0  0
 11 16  1  0  0  0  0
 12 11  2  0  0  0  0
 12 13  1  0  0  0  0
 13 14  2  0  0  0  0
 14 15  1  0  0  0  0
 15  3  1  0  0  0  0
 16 15  2  0  0  0  0
 17 11  1  0  0  0  0
 18 12  1  0  0  0  0
 19 13  1  0  0  0  0
 20 21  2  0  0  0  0
 20  7  1  0  0  0  0
 21 22  1  0  0  0  0
 23 24  1  0  0  0  0
 23 21  1  0  0  0  0
 25 27  2  0  0  0  0
 25 23  1  0  0  0  0
 26 25  1  0  0  0  0
 27 20  1  0  0  0  0
M  END
>  <minimizedAffinity>
-4.81657219

$$$$

 OpenBabel03242510103D

 27 29  0  0  0  0  0  0  0  0999 V2000
   40.4800   28.5020   40.7140 Br  0  0  0  0  0  0  0  0  0  0  0  0
   38.9060   28.0500   41.7140 C   0  0  0  0  0  0  0  0  0  0  0  0
   37.7360   28.7010   41.4530 C   0  0  0  0  0  0  0  0  0  0  0  0
   36.5740   28.3800   42.1770 C   0  0  0  0  0  0  0  0  0  0  0  0
   36.6580   27.4110   43.1340 C   0  0  0  0  0  0  0  0  0  0  0  0
   37.8600   26.7920   43.3520 C   0  0  0  0  0  0  0  0  0  0  0  0
   39.0060   27.0750   42.6720 C   0  0  0  0  0  0  0  0  0  0  0  0
   35.6860   28.9580   41.8940 H   0  0  0  0  0  0  0  0  0  0  0  0
   35.7540   27.1860   43.6730 H   0  0  0  0  0  0  0  0  0  0  0  0
   37.8720   26.0270   44.1270 H   0  0  0  0  0  0  0  0  0  0  0  0
   37.3550   30.2960   38.1910 C   0  0  0  0  0  0  0  0  0  0  0  0
   37.6260   31.6520   38.4440 C   0  0  0  0  0  0  0  0  0  0  0  0
   37.9420   31.9960   39.7640 C   0  0  0  0  0  0  0  0  0  0  0  0
   37.9700   31.0210   40.7100 N   0  0  0  0  0  0  0  0  0  0  0  0
   37.7010   29.7250   40.4220 C   0  0  0  0  0  0  0  0  0  0  0  0
   37.3950   29.3770   39.1560 N   0  0  0  0  0  0  0  0  0  0  0  0
   37.0980   29.9020   37.2110 H   0  0  0  0  0  0  0  0  0  0  0  0
   37.5720   32.3230   37.6100 H   0  0  0  0  0  0  0  0  0  0  0  0
   38.1460   33.0250   39.9420 H   0  0  0  0  0  0  0  0  0  0  0  0
   40.2600   26.3800   42.9490 C   0  0  0  0  0  0  0  0  0  0  0  0
   40.5760   25.1260   42.4840 C   0  0  0  0  0  0  0  0  0  0  0  0
   39.9720   24.4820   41.8660 H   0  0  0  0  0  0  0  0  0  0  0  0
   41.8100   24.7930   42.9300 N   0  0  0  0  0  0  0  0  0  0  0  0
   42.2850   23.8690   42.7080 H   0  0  0  0  0  0  0  0  0  0  0  0
   42.2730   25.8270   43.6730 C   0  0  0  0  0  0  0  0  0  0  0  0
   43.2530   25.7960   44.1430 H   0  0  0  0  0  0  0  0  0  0  0  0
   41.3170   26.7960   43.6800 N   0  0  0  0  0  0  0  0  0  0  0  0
  1  2  1  0  0  0  0
  2  7  1  0  0  0  0
  3  2  2  0  0  0  0
  3  4  1  0  0  0  0
  4  5  2  0  0  0  0
  5  6  1  0  0  0  0
  5  9  1  0  0  0  0
  6 10  1  0  0  0  0
  7 20  1  0  0  0  0
  7  6  2  0  0  0  0
  8  4  1  0  0  0  0
 11 12  2  0  0  0  0
 11 16  1  0  0  0  0
 12 13  1  0  0  0  0
 13 19  1  0  0  0  0
 13 14  2  0  0  0  0
 15 14  1  0  0  0  0
 15  3  1  0  0  0  0
 16 15  2  0  0  0  0
 17 11  1  0  0  0  0
 18 12  1  0  0  0  0
 20 27  1  0  0  0  0
 21 23  1  0  0  0  0
 21 20  2  0  0  0  0
 22 21  1  0  0  0  0
 23 25  1  0  0  0  0
 24 23  1  0  0  0  0
 25 27  2  0  0  0  0
 25 26  1  0  0  0  0
M  END
>  <minimizedAffinity>
-4.70781994

$$$$

 OpenBabel03242510103D

 27 29  0  0  0  0  0  0  0  0999 V2000
   37.4210   26.9460   39.5470 Br  0  0  0  0  0  0  0  0  0  0  0  0
   38.3030   26.9060   41.2500 C   0  0  0  0  0  0  0  0  0  0  0  0
   38.4800   28.0690   41.9410 C   0  0  0  0  0  0  0  0  0  0  0  0
   39.1250   28.0570   43.1910 C   0  0  0  0  0  0  0  0  0  0  0  0
   39.5600   26.8600   43.6790 C   0  0  0  0  0  0  0  0  0  0  0  0
   39.3560   25.7240   42.9410 C   0  0  0  0  0  0  0  0  0  0  0  0
   38.7360   25.6970   41.7280 C   0  0  0  0  0  0  0  0  0  0  0  0
   39.2180   29.0410   43.6650 H   0  0  0  0  0  0  0  0  0  0  0  0
   40.0510   26.8790   44.6370 H   0  0  0  0  0  0  0  0  0  0  0  0
   39.7230   24.7960   43.3760 H   0  0  0  0  0  0  0  0  0  0  0  0
   38.4120   31.2220   40.1010 C   0  0  0  0  0  0  0  0  0  0  0  0
   37.1010   31.6940   40.2880 C   0  0  0  0  0  0  0  0  0  0  0  0
   36.2490   30.8980   41.0610 C   0  0  0  0  0  0  0  0  0  0  0  0
   36.7240   29.7350   41.5800 N   0  0  0  0  0  0  0  0  0  0  0  0
   37.9960   29.3180   41.3750 C   0  0  0  0  0  0  0  0  0  0  0  0
   38.8300   30.0730   40.6320 N   0  0  0  0  0  0  0  0  0  0  0  0
   39.1690   31.7480   39.5230 H   0  0  0  0  0  0  0  0  0  0  0  0
   36.8500   32.6280   39.8250 H   0  0  0  0  0  0  0  0  0  0  0  0
   35.2590   31.2660   41.1950 H   0  0  0  0  0  0  0  0  0  0  0  0
   38.5460   24.4530   40.9860 C   0  0  0  0  0  0  0  0  0  0  0  0
   37.5140   23.5700   41.1960 C   0  0  0  0  0  0  0  0  0  0  0  0
   36.7130   23.6520   41.9130 H   0  0  0  0  0  0  0  0  0  0  0  0
   37.6460   22.5320   40.3380 N   0  0  0  0  0  0  0  0  0  0  0  0
   36.9720   21.7120   40.3000 H   0  0  0  0  0  0  0  0  0  0  0  0
   38.7540   22.7540   39.5890 C   0  0  0  0  0  0  0  0  0  0  0  0
   39.0720   22.0530   38.8210 H   0  0  0  0  0  0  0  0  0  0  0  0
   39.2990   23.9340   39.9930 N   0  0  0  0  0  0  0  0  0  0  0  0
  1  2  1  0  0  0  0
  2  7  2  0  0  0  0
  2  3  1  0  0  0  0
  3  4  2  0  0  0  0
  4  8  1  0  0  0  0
  4  5  1  0  0  0  0
  5  9  1  0  0  0  0
  6 10  1  0  0  0  0
  6  5  2  0  0  0  0
  7  6  1  0  0  0  0
 11 12  2  0  0  0  0
 11 16  1  0  0  0  0
 12 13  1  0  0  0  0
 13 19  1  0  0  0  0
 13 14  2  0  0  0  0
 15 14  1  0  0  0  0
 15  3  1  0  0  0  0
 16 15  2  0  0  0  0
 17 11  1  0  0  0  0
 18 12  1  0  0  0  0
 20 21  2  0  0  0  0
 20  7  1  0  0  0  0
 21 22  1  0  0  0  0
 23 21  1  0  0  0  0
 24 23  1  0  0  0  0
 25 27  2  0  0  0  0
 25 23  1  0  0  0  0
 26 25  1  0  0  0  0
 27 20  1  0  0  0  0
M  END
>  <minimizedAffinity>
-4.66061449

$$$$

 OpenBabel03242510103D

 27 29  0  0  0  0  0  0  0  0999 V2000
   39.7150   27.1730   39.8250 Br  0  0  0  0  0  0  0  0  0  0  0  0
   38.6340   27.3750   41.3970 C   0  0  0  0  0  0  0  0  0  0  0  0
   37.3950   27.9370   41.2910 C   0  0  0  0  0  0  0  0  0  0  0  0
   36.5910   28.0920   42.4340 C   0  0  0  0  0  0  0  0  0  0  0  0
   37.0860   27.6690   43.6330 C   0  0  0  0  0  0  0  0  0  0  0  0
   38.3370   27.1130   43.6790 C   0  0  0  0  0  0  0  0  0  0  0  0
   39.1450   26.9460   42.5940 C   0  0  0  0  0  0  0  0  0  0  0  0
   35.6140   28.5530   42.2450 H   0  0  0  0  0  0  0  0  0  0  0  0
   36.4500   27.8010   44.4910 H   0  0  0  0  0  0  0  0  0  0  0  0
   38.6850   26.7930   44.6600 H   0  0  0  0  0  0  0  0  0  0  0  0
   36.7360   30.0550   38.3910 C   0  0  0  0  0  0  0  0  0  0  0  0
   36.0150   29.2190   37.5190 C   0  0  0  0  0  0  0  0  0  0  0  0
   35.7660   27.9140   37.9600 C   0  0  0  0  0  0  0  0  0  0  0  0
   36.2240   27.5320   39.1810 N   0  0  0  0  0  0  0  0  0  0  0  0
   36.9150   28.3710   39.9890 C   0  0  0  0  0  0  0  0  0  0  0  0
   37.1640   29.6310   39.5800 N   0  0  0  0  0  0  0  0  0  0  0  0
   36.9930   31.0880   38.1670 H   0  0  0  0  0  0  0  0  0  0  0  0
   35.7090   29.6420   36.5830 H   0  0  0  0  0  0  0  0  0  0  0  0
   35.2200   27.2930   37.2910 H   0  0  0  0  0  0  0  0  0  0  0  0
   40.4720   26.3460   42.7050 C   0  0  0  0  0  0  0  0  0  0  0  0
   40.7130   24.9950   42.7750 C   0  0  0  0  0  0  0  0  0  0  0  0
   39.9900   24.1960   42.7600 H   0  0  0  0  0  0  0  0  0  0  0  0
   42.0480   24.7940   42.8700 N   0  0  0  0  0  0  0  0  0  0  0  0
   42.4940   23.8320   42.9380 H   0  0  0  0  0  0  0  0  0  0  0  0
   42.6500   26.0090   42.8600 C   0  0  0  0  0  0  0  0  0  0  0  0
   43.7310   26.1090   42.9270 H   0  0  0  0  0  0  0  0  0  0  0  0
   41.6760   26.9540   42.7590 N   0  0  0  0  0  0  0  0  0  0  0  0
  1  2  1  0  0  0  0
  2  7  1  0  0  0  0
  3  2  2  0  0  0  0
  3  4  1  0  0  0  0
  4  5  2  0  0  0  0
  5  6  1  0  0  0  0
  5  9  1  0  0  0  0
  6 10  1  0  0  0  0
  7 20  1  0  0  0  0
  7  6  2  0  0  0  0
  8  4  1  0  0  0  0
 11 16  1  0  0  0  0
 12 13  1  0  0  0  0
 12 11  2  0  0  0  0
 13 14  2  0  0  0  0
 14 15  1  0  0  0  0
 15  3  1  0  0  0  0
 16 15  2  0  0  0  0
 17 11  1  0  0  0  0
 18 12  1  0  0  0  0
 19 13  1  0  0  0  0
 20 27  1  0  0  0  0
 20 21  2  0  0  0  0
 21 23  1  0  0  0  0
 22 21  1  0  0  0  0
 23 24  1  0  0  0  0
 25 23  1  0  0  0  0
 25 26  1  0  0  0  0
 27 25  2  0  0  0  0
M  END
>  <minimizedAffinity>
-4.64376354

$$$$

 OpenBabel03242510103D

 27 29  0  0  0  0  0  0  0  0999 V2000
   38.5380   28.2620   39.3060 Br  0  0  0  0  0  0  0  0  0  0  0  0
   37.9100   27.9790   41.0970 C   0  0  0  0  0  0  0  0  0  0  0  0
   37.7820   29.0450   41.9380 C   0  0  0  0  0  0  0  0  0  0  0  0
   37.3230   28.8540   43.2540 C   0  0  0  0  0  0  0  0  0  0  0  0
   37.0160   27.5850   43.6510 C   0  0  0  0  0  0  0  0  0  0  0  0
   37.1650   26.5540   42.7630 C   0  0  0  0  0  0  0  0  0  0  0  0
   37.6060   26.7000   41.4820 C   0  0  0  0  0  0  0  0  0  0  0  0
   37.2540   29.7710   43.8510 H   0  0  0  0  0  0  0  0  0  0  0  0
   36.6670   27.4680   44.6630 H   0  0  0  0  0  0  0  0  0  0  0  0
   36.9070   25.5620   43.1310 H   0  0  0  0  0  0  0  0  0  0  0  0
   37.4640   32.3430   40.4040 C   0  0  0  0  0  0  0  0  0  0  0  0
   38.7420   32.9100   40.5550 C   0  0  0  0  0  0  0  0  0  0  0  0
   39.7080   32.1260   41.1970 C   0  0  0  0  0  0  0  0  0  0  0  0
   39.3670   30.8840   41.6310 N   0  0  0  0  0  0  0  0  0  0  0  0
   38.1220   30.3770   41.4640 C   0  0  0  0  0  0  0  0  0  0  0  0
   37.1800   31.1190   40.8490 N   0  0  0  0  0  0  0  0  0  0  0  0
   36.6300   32.8480   39.9240 H   0  0  0  0  0  0  0  0  0  0  0  0
   38.8840   33.9000   40.1680 H   0  0  0  0  0  0  0  0  0  0  0  0
   40.6710   32.5670   41.3050 H   0  0  0  0  0  0  0  0  0  0  0  0
   37.7450   25.5600   40.5790 C   0  0  0  0  0  0  0  0  0  0  0  0
   36.7290   25.0490   39.8070 C   0  0  0  0  0  0  0  0  0  0  0  0
   35.7100   25.3950   39.7470 H   0  0  0  0  0  0  0  0  0  0  0  0
   37.2070   24.0020   39.0950 N   0  0  0  0  0  0  0  0  0  0  0  0
   36.6160   23.4330   38.4200 H   0  0  0  0  0  0  0  0  0  0  0  0
   38.5150   23.8490   39.4130 C   0  0  0  0  0  0  0  0  0  0  0  0
   39.1220   23.0650   38.9660 H   0  0  0  0  0  0  0  0  0  0  0  0
   38.8370   24.8080   40.3230 N   0  0  0  0  0  0  0  0  0  0  0  0
  1  2  1  0  0  0  0
  2  7  2  0  0  0  0
  2  3  1  0  0  0  0
  3  4  2  0  0  0  0
  4  5  1  0  0  0  0
  4  8  1  0  0  0  0
  5  9  1  0  0  0  0
  6 10  1  0  0  0  0
  6  5  2  0  0  0  0
  7  6  1  0  0  0  0
 11 12  2  0  0  0  0
 11 16  1  0  0  0  0
 12 13  1  0  0  0  0
 13 19  1  0  0  0  0
 13 14  2  0  0  0  0
 15 14  1  0  0  0  0
 15  3  1  0  0  0  0
 16 15  2  0  0  0  0
 17 11  1  0  0  0  0
 18 12  1  0  0  0  0
 20  7  1  0  0  0  0
 21 20  2  0  0  0  0
 22 21  1  0  0  0  0
 23 25  1  0  0  0  0
 23 21  1  0  0  0  0
 24 23  1  0  0  0  0
 25 27  2  0  0  0  0
 26 25  1  0  0  0  0
 27 20  1  0  0  0  0
M  END
>  <minimizedAffinity>
-4.61915255

$$$$
