
 OpenBabel03252505283D

 23 24  0  0  0  0  0  0  0  0999 V2000
   36.5280   28.8140   40.0190 O   0  0  0  0  0  0  0  0  0  0  0  0
   36.7800   29.7460   41.2130 P   0  0  1  0  0  0  0  0  0  0  0  0
   35.5250   30.8310   41.4210 O   0  0  0  0  0  0  0  0  0  0  0  0
   35.8440   31.6720   41.8240 H   0  0  0  0  0  0  0  0  0  0  0  0
   36.9560   28.7500   42.5660 O   0  0  0  0  0  0  0  0  0  0  0  0
   40.0400   27.2380   43.4790 C   0  0  0  0  0  0  0  0  0  0  0  0
   39.8840   25.8740   43.1260 C   0  0  0  0  0  0  0  0  0  0  0  0
   38.6570   25.5250   42.5610 C   0  0  0  0  0  0  0  0  0  0  0  0
   37.7100   26.4690   42.3830 N   0  0  0  0  0  0  0  0  0  0  0  0
   37.9110   27.7610   42.7380 C   0  0  0  0  0  0  0  0  0  0  0  0
   39.0670   28.1370   43.2800 N   0  0  0  0  0  0  0  0  0  0  0  0
   41.0060   27.4580   43.9110 H   0  0  0  0  0  0  0  0  0  0  0  0
   40.6070   25.1090   43.2530 H   0  0  0  0  0  0  0  0  0  0  0  0
   38.3800   24.5120   42.2360 H   0  0  0  0  0  0  0  0  0  0  0  0
   38.1980   30.5910   40.8780 O   0  0  0  0  0  0  0  0  0  0  0  0
   38.2070   31.9580   40.6390 C   0  0  0  0  0  0  0  0  0  0  0  0
   38.8890   33.0820   41.0160 C   0  0  0  0  0  0  0  0  0  0  0  0
   39.6940   32.9270   41.7280 H   0  0  0  0  0  0  0  0  0  0  0  0
   38.3950   34.1610   40.4030 N   0  0  0  0  0  0  0  0  0  0  0  0
   38.7930   35.1060   40.5700 H   0  0  0  0  0  0  0  0  0  0  0  0
   37.3940   33.7200   39.6320 C   0  0  0  0  0  0  0  0  0  0  0  0
   36.8400   34.4560   39.0270 H   0  0  0  0  0  0  0  0  0  0  0  0
   37.2530   32.3680   39.7550 N   0  0  0  0  0  0  0  0  0  0  0  0
  2  1  2  6  0  0  0
  2  3  1  0  0  0  0
  2  5  1  0  0  0  0
  3  4  1  0  0  0  0
  5 10  1  0  0  0  0
  6 12  1  0  0  0  0
  7 13  1  0  0  0  0
  7  6  2  0  0  0  0
  8  7  1  0  0  0  0
  9  8  2  0  0  0  0
  9 10  1  0  0  0  0
 10 11  2  0  0  0  0
 11  6  1  0  0  0  0
 14  8  1  0  0  0  0
 15  2  1  0  0  0  0
 16 15  1  0  0  0  0
 16 17  2  0  0  0  0
 17 18  1  0  0  0  0
 19 20  1  0  0  0  0
 19 17  1  0  0  0  0
 21 23  2  0  0  0  0
 21 19  1  0  0  0  0
 22 21  1  0  0  0  0
 23 16  1  0  0  0  0
M  END
>  <minimizedAffinity>
-4.70533228

$$$$

 OpenBabel03252505283D

 23 24  0  0  0  0  0  0  0  0999 V2000
   36.4960   31.0510   38.7970 O   0  0  0  0  0  0  0  0  0  0  0  0
   37.2330   31.5830   40.0340 P   0  0  1  0  0  0  0  0  0  0  0  0
   37.0430   33.2360   40.1980 O   0  0  0  0  0  0  0  0  0  0  0  0
   37.8220   33.6420   40.6470 H   0  0  0  0  0  0  0  0  0  0  0  0
   36.5930   30.7600   41.3620 O   0  0  0  0  0  0  0  0  0  0  0  0
   36.8940   27.2260   41.5810 C   0  0  0  0  0  0  0  0  0  0  0  0
   37.7500   27.0110   42.6900 C   0  0  0  0  0  0  0  0  0  0  0  0
   38.2060   28.1570   43.3420 C   0  0  0  0  0  0  0  0  0  0  0  0
   37.8230   29.3730   42.9020 N   0  0  0  0  0  0  0  0  0  0  0  0
   37.0020   29.5230   41.8350 C   0  0  0  0  0  0  0  0  0  0  0  0
   36.5430   28.4560   41.1840 N   0  0  0  0  0  0  0  0  0  0  0  0
   36.5690   26.3090   41.1110 H   0  0  0  0  0  0  0  0  0  0  0  0
   38.0700   26.0700   43.0600 H   0  0  0  0  0  0  0  0  0  0  0  0
   38.8740   28.1600   44.2150 H   0  0  0  0  0  0  0  0  0  0  0  0
   38.8660   31.2290   39.8140 O   0  0  0  0  0  0  0  0  0  0  0  0
   39.6730   31.9610   38.9560 C   0  0  0  0  0  0  0  0  0  0  0  0
   40.0680   31.9740   37.6470 C   0  0  0  0  0  0  0  0  0  0  0  0
   39.6530   31.1870   37.0220 H   0  0  0  0  0  0  0  0  0  0  0  0
   40.9060   32.9870   37.4160 N   0  0  0  0  0  0  0  0  0  0  0  0
   41.3090   33.1510   36.4720 H   0  0  0  0  0  0  0  0  0  0  0  0
   41.0460   33.6230   38.5850 C   0  0  0  0  0  0  0  0  0  0  0  0
   41.7050   34.5050   38.6240 H   0  0  0  0  0  0  0  0  0  0  0  0
   40.2990   33.0150   39.5540 N   0  0  0  0  0  0  0  0  0  0  0  0
  2  1  2  6  0  0  0
  2  3  1  0  0  0  0
  2  5  1  0  0  0  0
  3  4  1  0  0  0  0
  5 10  1  0  0  0  0
  6  7  1  0  0  0  0
  7 13  1  0  0  0  0
  7  8  2  0  0  0  0
  8 14  1  0  0  0  0
  9  8  1  0  0  0  0
 10  9  2  0  0  0  0
 11  6  2  0  0  0  0
 11 10  1  0  0  0  0
 12  6  1  0  0  0  0
 15  2  1  0  0  0  0
 16 23  1  0  0  0  0
 16 15  1  0  0  0  0
 17 16  2  0  0  0  0
 18 17  1  0  0  0  0
 19 17  1  0  0  0  0
 19 21  1  0  0  0  0
 20 19  1  0  0  0  0
 21 22  1  0  0  0  0
 21 23  2  0  0  0  0
M  END
>  <minimizedAffinity>
-4.69909239

$$$$

 OpenBabel03252505283D

 23 24  0  0  0  0  0  0  0  0999 V2000
   37.3850   29.5690   39.6960 O   0  0  0  0  0  0  0  0  0  0  0  0
   37.1140   30.7720   40.6100 P   0  0  1  0  0  0  0  0  0  0  0  0
   35.5210   30.8140   41.1150 O   0  0  0  0  0  0  0  0  0  0  0  0
   35.2240   31.7390   41.2810 H   0  0  0  0  0  0  0  0  0  0  0  0
   38.1670   30.6210   41.9220 O   0  0  0  0  0  0  0  0  0  0  0  0
   38.0300   27.5340   43.6780 C   0  0  0  0  0  0  0  0  0  0  0  0
   39.3640   27.0550   43.6560 C   0  0  0  0  0  0  0  0  0  0  0  0
   40.2940   27.8630   43.0030 C   0  0  0  0  0  0  0  0  0  0  0  0
   39.8940   29.0220   42.4420 N   0  0  0  0  0  0  0  0  0  0  0  0
   38.6050   29.4350   42.4910 C   0  0  0  0  0  0  0  0  0  0  0  0
   37.6850   28.6940   43.1040 N   0  0  0  0  0  0  0  0  0  0  0  0
   37.3490   26.8730   44.1950 H   0  0  0  0  0  0  0  0  0  0  0  0
   39.7100   26.1490   44.0870 H   0  0  0  0  0  0  0  0  0  0  0  0
   41.3640   27.6330   42.8990 H   0  0  0  0  0  0  0  0  0  0  0  0
   37.4480   32.1540   39.7060 O   0  0  0  0  0  0  0  0  0  0  0  0
   38.3880   32.1610   38.6850 C   0  0  0  0  0  0  0  0  0  0  0  0
   38.4840   31.8880   37.3490 C   0  0  0  0  0  0  0  0  0  0  0  0
   37.5680   31.5520   36.8700 H   0  0  0  0  0  0  0  0  0  0  0  0
   39.7280   32.1010   36.9120 N   0  0  0  0  0  0  0  0  0  0  0  0
   39.9850   31.9440   35.9170 H   0  0  0  0  0  0  0  0  0  0  0  0
   40.4260   32.5130   37.9760 C   0  0  0  0  0  0  0  0  0  0  0  0
   41.4940   32.7500   37.8390 H   0  0  0  0  0  0  0  0  0  0  0  0
   39.6300   32.5610   39.0840 N   0  0  0  0  0  0  0  0  0  0  0  0
  2  1  2  6  0  0  0
  2  3  1  0  0  0  0
  2  5  1  0  0  0  0
  3  4  1  0  0  0  0
  5 10  1  0  0  0  0
  6 12  1  0  0  0  0
  7  6  1  0  0  0  0
  7 13  1  0  0  0  0
  8  7  2  0  0  0  0
  9 10  2  0  0  0  0
  9  8  1  0  0  0  0
 10 11  1  0  0  0  0
 11  6  2  0  0  0  0
 14  8  1  0  0  0  0
 15  2  1  0  0  0  0
 16 23  1  0  0  0  0
 16 15  1  0  0  0  0
 17 16  2  0  0  0  0
 18 17  1  0  0  0  0
 19 17  1  0  0  0  0
 19 21  1  0  0  0  0
 20 19  1  0  0  0  0
 21 23  2  0  0  0  0
 22 21  1  0  0  0  0
M  END
>  <minimizedAffinity>
-4.69028044

$$$$

 OpenBabel03252505283D

 23 24  0  0  0  0  0  0  0  0999 V2000
   34.7700   29.4380   38.9690 O   0  0  0  0  0  0  0  0  0  0  0  0
   35.9630   29.8300   39.8510 P   0  0  1  0  0  0  0  0  0  0  0  0
   35.4630   30.5480   41.2760 O   0  0  0  0  0  0  0  0  0  0  0  0
   36.1350   31.1890   41.6070 H   0  0  0  0  0  0  0  0  0  0  0  0
   36.8210   28.4060   40.1530 O   0  0  0  0  0  0  0  0  0  0  0  0
   39.2410   26.9450   42.3070 C   0  0  0  0  0  0  0  0  0  0  0  0
   38.8530   27.3570   43.6060 C   0  0  0  0  0  0  0  0  0  0  0  0
   37.7160   28.1620   43.6800 C   0  0  0  0  0  0  0  0  0  0  0  0
   37.0620   28.4980   42.5490 N   0  0  0  0  0  0  0  0  0  0  0  0
   37.4750   28.0760   41.3300 C   0  0  0  0  0  0  0  0  0  0  0  0
   38.5540   27.3060   41.2150 N   0  0  0  0  0  0  0  0  0  0  0  0
   40.1250   26.3240   42.3040 H   0  0  0  0  0  0  0  0  0  0  0  0
   39.3450   27.1110   44.5130 H   0  0  0  0  0  0  0  0  0  0  0  0
   37.2880   28.5640   44.6090 H   0  0  0  0  0  0  0  0  0  0  0  0
   36.8810   30.9300   38.9650 O   0  0  0  0  0  0  0  0  0  0  0  0
   37.3840   32.0960   39.5250 C   0  0  0  0  0  0  0  0  0  0  0  0
   37.2330   33.4510   39.4300 C   0  0  0  0  0  0  0  0  0  0  0  0
   36.5020   33.7940   38.7030 H   0  0  0  0  0  0  0  0  0  0  0  0
   38.0480   34.0780   40.2830 N   0  0  0  0  0  0  0  0  0  0  0  0
   38.0690   35.1150   40.3470 H   0  0  0  0  0  0  0  0  0  0  0  0
   38.7200   33.1150   40.9240 C   0  0  0  0  0  0  0  0  0  0  0  0
   39.4580   33.4130   41.6860 H   0  0  0  0  0  0  0  0  0  0  0  0
   38.3340   31.8830   40.4800 N   0  0  0  0  0  0  0  0  0  0  0  0
  2  1  2  6  0  0  0
  2  5  1  0  0  0  0
  2  3  1  0  0  0  0
  3  4  1  0  0  0  0
  5 10  1  0  0  0  0
  6  7  1  0  0  0  0
  7  8  2  0  0  0  0
  7 13  1  0  0  0  0
  8 14  1  0  0  0  0
  9  8  1  0  0  0  0
 10  9  2  0  0  0  0
 11 10  1  0  0  0  0
 11  6  2  0  0  0  0
 12  6  1  0  0  0  0
 15 16  1  0  0  0  0
 15  2  1  0  0  0  0
 16 23  1  0  0  0  0
 17 16  2  0  0  0  0
 17 19  1  0  0  0  0
 18 17  1  0  0  0  0
 19 20  1  0  0  0  0
 19 21  1  0  0  0  0
 21 22  1  0  0  0  0
 23 21  2  0  0  0  0
M  END
>  <minimizedAffinity>
-4.48155022

$$$$

 OpenBabel03252505283D

 23 24  0  0  0  0  0  0  0  0999 V2000
   34.7880   29.2500   39.5640 O   0  0  0  0  0  0  0  0  0  0  0  0
   35.9020   29.5670   40.5710 P   0  0  1  0  0  0  0  0  0  0  0  0
   35.6340   31.0240   41.3460 O   0  0  0  0  0  0  0  0  0  0  0  0
   36.4840   31.4500   41.6070 H   0  0  0  0  0  0  0  0  0  0  0  0
   35.9280   28.2860   41.6720 O   0  0  0  0  0  0  0  0  0  0  0  0
   39.0270   27.8590   43.3600 C   0  0  0  0  0  0  0  0  0  0  0  0
   39.3370   26.4870   43.1880 C   0  0  0  0  0  0  0  0  0  0  0  0
   38.4140   25.7360   42.4610 C   0  0  0  0  0  0  0  0  0  0  0  0
   37.3070   26.3320   41.9720 N   0  0  0  0  0  0  0  0  0  0  0  0
   37.0570   27.6490   42.1640 C   0  0  0  0  0  0  0  0  0  0  0  0
   37.9130   28.4020   42.8510 N   0  0  0  0  0  0  0  0  0  0  0  0
   39.7720   28.3970   43.9280 H   0  0  0  0  0  0  0  0  0  0  0  0
   40.1980   25.9900   43.5600 H   0  0  0  0  0  0  0  0  0  0  0  0
   38.5080   24.6630   42.2420 H   0  0  0  0  0  0  0  0  0  0  0  0
   37.3370   29.6580   39.6940 O   0  0  0  0  0  0  0  0  0  0  0  0
   37.3580   29.6780   38.3070 C   0  0  0  0  0  0  0  0  0  0  0  0
   37.2140   30.5580   37.2710 C   0  0  0  0  0  0  0  0  0  0  0  0
   37.0180   31.5890   37.5530 H   0  0  0  0  0  0  0  0  0  0  0  0
   37.3490   29.9340   36.0980 N   0  0  0  0  0  0  0  0  0  0  0  0
   37.2690   30.4490   35.1990 H   0  0  0  0  0  0  0  0  0  0  0  0
   37.5810   28.6490   36.3910 C   0  0  0  0  0  0  0  0  0  0  0  0
   37.7260   27.9430   35.5570 H   0  0  0  0  0  0  0  0  0  0  0  0
   37.5930   28.4580   37.7420 N   0  0  0  0  0  0  0  0  0  0  0  0
  2  1  2  6  0  0  0
  2  3  1  0  0  0  0
  2  5  1  0  0  0  0
  3  4  1  0  0  0  0
  5 10  1  0  0  0  0
  6 12  1  0  0  0  0
  7  6  1  0  0  0  0
  7 13  1  0  0  0  0
  8  7  2  0  0  0  0
  9 10  2  0  0  0  0
  9  8  1  0  0  0  0
 10 11  1  0  0  0  0
 11  6  2  0  0  0  0
 14  8  1  0  0  0  0
 15  2  1  0  0  0  0
 16 15  1  0  0  0  0
 17 18  1  0  0  0  0
 17 16  2  0  0  0  0
 19 21  1  0  0  0  0
 19 17  1  0  0  0  0
 20 19  1  0  0  0  0
 21 23  2  0  0  0  0
 22 21  1  0  0  0  0
 23 16  1  0  0  0  0
M  END
>  <minimizedAffinity>
-4.32840824

$$$$

 OpenBabel03252505283D

 23 24  0  0  0  0  0  0  0  0999 V2000
   39.1100   27.6280   43.6800 O   0  0  0  0  0  0  0  0  0  0  0  0
   38.1660   28.4230   42.7670 P   0  0  1  0  0  0  0  0  0  0  0  0
   36.9360   29.1480   43.6370 O   0  0  0  0  0  0  0  0  0  0  0  0
   36.1220   29.2450   43.0900 H   0  0  0  0  0  0  0  0  0  0  0  0
   39.1210   29.5760   41.9830 O   0  0  0  0  0  0  0  0  0  0  0  0
   36.9140   31.7540   40.2460 C   0  0  0  0  0  0  0  0  0  0  0  0
   37.6620   32.9450   40.0660 C   0  0  0  0  0  0  0  0  0  0  0  0
   38.9590   32.9380   40.5790 C   0  0  0  0  0  0  0  0  0  0  0  0
   39.4240   31.8350   41.2020 N   0  0  0  0  0  0  0  0  0  0  0  0
   38.6670   30.7210   41.3480 C   0  0  0  0  0  0  0  0  0  0  0  0
   37.4250   30.6850   40.8720 N   0  0  0  0  0  0  0  0  0  0  0  0
   35.9180   31.8100   39.8310 H   0  0  0  0  0  0  0  0  0  0  0  0
   37.3260   33.8270   39.5820 H   0  0  0  0  0  0  0  0  0  0  0  0
   39.6630   33.7790   40.5210 H   0  0  0  0  0  0  0  0  0  0  0  0
   37.5040   27.3230   41.6770 O   0  0  0  0  0  0  0  0  0  0  0  0
   37.7790   25.9640   41.7360 C   0  0  0  0  0  0  0  0  0  0  0  0
   37.2500   24.8110   42.2440 C   0  0  0  0  0  0  0  0  0  0  0  0
   36.3150   24.9200   42.7860 H   0  0  0  0  0  0  0  0  0  0  0  0
   38.0270   23.7650   41.9510 N   0  0  0  0  0  0  0  0  0  0  0  0
   37.7790   22.8040   42.2590 H   0  0  0  0  0  0  0  0  0  0  0  0
   39.0570   24.2570   41.2530 C   0  0  0  0  0  0  0  0  0  0  0  0
   39.8320   23.5560   40.9030 H   0  0  0  0  0  0  0  0  0  0  0  0
   38.9340   25.6080   41.1030 N   0  0  0  0  0  0  0  0  0  0  0  0
  2  3  1  0  0  0  0
  2  1  2  1  0  0  0
  4  3  1  0  0  0  0
  5  2  1  0  0  0  0
  6 11  1  0  0  0  0
  7  6  2  0  0  0  0
  7  8  1  0  0  0  0
  8  9  2  0  0  0  0
  9 10  1  0  0  0  0
 10  5  1  0  0  0  0
 11 10  2  0  0  0  0
 12  6  1  0  0  0  0
 13  7  1  0  0  0  0
 14  8  1  0  0  0  0
 15 16  1  0  0  0  0
 15  2  1  0  0  0  0
 16 17  2  0  0  0  0
 17 18  1  0  0  0  0
 19 17  1  0  0  0  0
 19 20  1  0  0  0  0
 21 19  1  0  0  0  0
 22 21  1  0  0  0  0
 23 21  2  0  0  0  0
 23 16  1  0  0  0  0
M  END
>  <minimizedAffinity>
-4.2715826

$$$$

 OpenBabel03252505283D

 23 24  0  0  0  0  0  0  0  0999 V2000
   35.4680   28.9500   41.0600 O   0  0  0  0  0  0  0  0  0  0  0  0
   36.8310   28.6340   41.6910 P   0  0  1  0  0  0  0  0  0  0  0  0
   36.9370   29.2230   43.2520 O   0  0  0  0  0  0  0  0  0  0  0  0
   37.8690   29.4480   43.4860 H   0  0  0  0  0  0  0  0  0  0  0  0
   36.9920   26.9520   41.6610 O   0  0  0  0  0  0  0  0  0  0  0  0
   39.2080   24.2220   42.1770 C   0  0  0  0  0  0  0  0  0  0  0  0
   40.0890   24.6690   43.1940 C   0  0  0  0  0  0  0  0  0  0  0  0
   39.8630   25.9580   43.6770 C   0  0  0  0  0  0  0  0  0  0  0  0
   38.8520   26.6930   43.1710 N   0  0  0  0  0  0  0  0  0  0  0  0
   38.0380   26.2180   42.1980 C   0  0  0  0  0  0  0  0  0  0  0  0
   38.2180   24.9940   41.7090 N   0  0  0  0  0  0  0  0  0  0  0  0
   39.4240   23.2200   41.8380 H   0  0  0  0  0  0  0  0  0  0  0  0
   40.8920   24.1170   43.6120 H   0  0  0  0  0  0  0  0  0  0  0  0
   40.4570   26.4490   44.4620 H   0  0  0  0  0  0  0  0  0  0  0  0
   37.9960   29.3840   40.7320 O   0  0  0  0  0  0  0  0  0  0  0  0
   38.8320   30.3760   41.2220 C   0  0  0  0  0  0  0  0  0  0  0  0
   39.1080   31.7020   41.0310 C   0  0  0  0  0  0  0  0  0  0  0  0
   38.5200   32.1990   40.2640 H   0  0  0  0  0  0  0  0  0  0  0  0
   40.0740   32.1070   41.8580 N   0  0  0  0  0  0  0  0  0  0  0  0
   40.4140   33.0900   41.8520 H   0  0  0  0  0  0  0  0  0  0  0  0
   40.4150   31.0340   42.5800 C   0  0  0  0  0  0  0  0  0  0  0  0
   41.2070   31.1450   43.3380 H   0  0  0  0  0  0  0  0  0  0  0  0
   39.6690   29.9510   42.2130 N   0  0  0  0  0  0  0  0  0  0  0  0
  2  1  2  6  0  0  0
  2  3  1  0  0  0  0
  3  4  1  0  0  0  0
  5  2  1  0  0  0  0
  5 10  1  0  0  0  0
  6  7  1  0  0  0  0
  7 13  1  0  0  0  0
  7  8  2  0  0  0  0
  8 14  1  0  0  0  0
  9  8  1  0  0  0  0
 10  9  2  0  0  0  0
 11  6  2  0  0  0  0
 11 10  1  0  0  0  0
 12  6  1  0  0  0  0
 15 16  1  0  0  0  0
 15  2  1  0  0  0  0
 16 23  1  0  0  0  0
 17 16  2  0  0  0  0
 17 19  1  0  0  0  0
 18 17  1  0  0  0  0
 19 21  1  0  0  0  0
 20 19  1  0  0  0  0
 21 22  1  0  0  0  0
 23 21  2  0  0  0  0
M  END
>  <minimizedAffinity>
-4.2187252

$$$$

 OpenBabel03252505283D

 23 24  0  0  0  0  0  0  0  0999 V2000
   39.5180   29.8750   42.8780 O   0  0  0  0  0  0  0  0  0  0  0  0
   38.4590   28.8030   42.5860 P   0  0  1  0  0  0  0  0  0  0  0  0
   36.9780   29.2060   43.2490 O   0  0  0  0  0  0  0  0  0  0  0  0
   36.4600   28.3990   43.4800 H   0  0  0  0  0  0  0  0  0  0  0  0
   38.3610   28.6750   40.9040 O   0  0  0  0  0  0  0  0  0  0  0  0
   38.1470   30.4880   37.8550 C   0  0  0  0  0  0  0  0  0  0  0  0
   37.3960   31.6450   38.1830 C   0  0  0  0  0  0  0  0  0  0  0  0
   36.9780   31.7480   39.5100 C   0  0  0  0  0  0  0  0  0  0  0  0
   37.2980   30.7750   40.3880 N   0  0  0  0  0  0  0  0  0  0  0  0
   38.0190   29.6880   40.0230 C   0  0  0  0  0  0  0  0  0  0  0  0
   38.4380   29.5500   38.7670 N   0  0  0  0  0  0  0  0  0  0  0  0
   38.4470   30.4550   36.8180 H   0  0  0  0  0  0  0  0  0  0  0  0
   37.1290   32.4260   37.5170 H   0  0  0  0  0  0  0  0  0  0  0  0
   36.3900   32.5800   39.9220 H   0  0  0  0  0  0  0  0  0  0  0  0
   39.0110   27.3720   43.2840 O   0  0  0  0  0  0  0  0  0  0  0  0
   38.5990   26.1240   42.8400 C   0  0  0  0  0  0  0  0  0  0  0  0
   39.1120   24.8820   42.5860 C   0  0  0  0  0  0  0  0  0  0  0  0
   40.1760   24.7650   42.7710 H   0  0  0  0  0  0  0  0  0  0  0  0
   38.1560   24.0570   42.1520 N   0  0  0  0  0  0  0  0  0  0  0  0
   38.3650   23.0680   41.9100 H   0  0  0  0  0  0  0  0  0  0  0  0
   37.0290   24.7780   42.1290 C   0  0  0  0  0  0  0  0  0  0  0  0
   36.1010   24.2850   41.7970 H   0  0  0  0  0  0  0  0  0  0  0  0
   37.2690   26.0550   42.5470 N   0  0  0  0  0  0  0  0  0  0  0  0
  2  1  2  1  0  0  0
  2  3  1  0  0  0  0
  2 15  1  0  0  0  0
  3  4  1  0  0  0  0
  5  2  1  0  0  0  0
  6  7  2  0  0  0  0
  6 11  1  0  0  0  0
  7  8  1  0  0  0  0
  8 14  1  0  0  0  0
  8  9  2  0  0  0  0
 10  9  1  0  0  0  0
 10  5  1  0  0  0  0
 11 10  2  0  0  0  0
 12  6  1  0  0  0  0
 13  7  1  0  0  0  0
 16 15  1  0  0  0  0
 17 18  1  0  0  0  0
 17 16  2  0  0  0  0
 19 17  1  0  0  0  0
 20 19  1  0  0  0  0
 21 19  1  0  0  0  0
 21 23  2  0  0  0  0
 22 21  1  0  0  0  0
 23 16  1  0  0  0  0
M  END
>  <minimizedAffinity>
-4.12645149

$$$$

 OpenBabel03252505283D

 23 24  0  0  0  0  0  0  0  0999 V2000
   35.8690   28.5760   40.2150 O   0  0  0  0  0  0  0  0  0  0  0  0
   36.6000   29.6850   40.9840 P   0  0  1  0  0  0  0  0  0  0  0  0
   35.5370   30.8490   41.5420 O   0  0  0  0  0  0  0  0  0  0  0  0
   35.9740   31.7310   41.6040 H   0  0  0  0  0  0  0  0  0  0  0  0
   37.4030   28.9290   42.2640 O   0  0  0  0  0  0  0  0  0  0  0  0
   40.8540   29.6770   42.6680 C   0  0  0  0  0  0  0  0  0  0  0  0
   41.5010   28.4190   42.5830 C   0  0  0  0  0  0  0  0  0  0  0  0
   40.6710   27.3160   42.3800 C   0  0  0  0  0  0  0  0  0  0  0  0
   39.3380   27.4930   42.2770 N   0  0  0  0  0  0  0  0  0  0  0  0
   38.7690   28.7190   42.3650 C   0  0  0  0  0  0  0  0  0  0  0  0
   39.5240   29.7980   42.5590 N   0  0  0  0  0  0  0  0  0  0  0  0
   41.5380   30.4980   42.8250 H   0  0  0  0  0  0  0  0  0  0  0  0
   42.5450   28.2460   42.6590 H   0  0  0  0  0  0  0  0  0  0  0  0
   41.0170   26.2760   42.2920 H   0  0  0  0  0  0  0  0  0  0  0  0
   37.6840   30.3920   39.9050 O   0  0  0  0  0  0  0  0  0  0  0  0
   37.7080   31.7580   39.6680 C   0  0  0  0  0  0  0  0  0  0  0  0
   37.3370   32.6610   38.7110 C   0  0  0  0  0  0  0  0  0  0  0  0
   36.8650   32.2420   37.8260 H   0  0  0  0  0  0  0  0  0  0  0  0
   37.6470   33.9040   39.0880 N   0  0  0  0  0  0  0  0  0  0  0  0
   37.4370   34.7210   38.4810 H   0  0  0  0  0  0  0  0  0  0  0  0
   38.2180   33.7910   40.2920 C   0  0  0  0  0  0  0  0  0  0  0  0
   38.5560   34.7100   40.7970 H   0  0  0  0  0  0  0  0  0  0  0  0
   38.2710   32.4820   40.6780 N   0  0  0  0  0  0  0  0  0  0  0  0
  2  1  2  6  0  0  0
  2  3  1  0  0  0  0
  2  5  1  0  0  0  0
  3  4  1  0  0  0  0
  5 10  1  0  0  0  0
  6 12  1  0  0  0  0
  7 13  1  0  0  0  0
  7  6  1  0  0  0  0
  8  7  2  0  0  0  0
  9 10  2  0  0  0  0
  9  8  1  0  0  0  0
 10 11  1  0  0  0  0
 11  6  2  0  0  0  0
 14  8  1  0  0  0  0
 15  2  1  0  0  0  0
 16 15  1  0  0  0  0
 16 23  1  0  0  0  0
 17 19  1  0  0  0  0
 17 16  2  0  0  0  0
 18 17  1  0  0  0  0
 19 21  1  0  0  0  0
 20 19  1  0  0  0  0
 21 23  2  0  0  0  0
 21 22  1  0  0  0  0
M  END
>  <minimizedAffinity>
-4.11767626

$$$$
