
 OpenBabel03252506123D

 35 37  0  0  0  0  0  0  0  0999 V2000
   45.1070   33.5520   41.1510 F   0  0  0  0  0  0  0  0  0  0  0  0
   46.3090   34.1260   41.0500 C   0  0  0  0  0  0  0  0  0  0  0  0
   46.8200   34.8180   42.1260 C   0  0  0  0  0  0  0  0  0  0  0  0
   48.0700   35.4450   42.1050 C   0  0  0  0  0  0  0  0  0  0  0  0
   48.8420   35.3740   40.9450 C   0  0  0  0  0  0  0  0  0  0  0  0
   48.2930   34.6690   39.8880 C   0  0  0  0  0  0  0  0  0  0  0  0
   47.0810   34.0560   39.8950 C   0  0  0  0  0  0  0  0  0  0  0  0
   48.4020   35.9700   42.9900 H   0  0  0  0  0  0  0  0  0  0  0  0
   49.7930   35.8700   40.9750 H   0  0  0  0  0  0  0  0  0  0  0  0
   48.9960   34.6870   39.0610 H   0  0  0  0  0  0  0  0  0  0  0  0
   45.4570   34.0090   45.4350 C   0  0  0  0  0  0  0  0  0  0  0  0
   44.6050   35.1150   45.6760 C   0  0  0  0  0  0  0  0  0  0  0  0
   44.5080   36.1330   44.6960 C   0  0  0  0  0  0  0  0  0  0  0  0
   45.2560   35.9730   43.5640 N   0  0  0  0  0  0  0  0  0  0  0  0
   46.0480   34.9170   43.3690 C   0  0  0  0  0  0  0  0  0  0  0  0
   46.1440   33.9490   44.2960 N   0  0  0  0  0  0  0  0  0  0  0  0
   44.0330   35.2080   46.5750 H   0  0  0  0  0  0  0  0  0  0  0  0
   43.8660   36.9900   44.8500 H   0  0  0  0  0  0  0  0  0  0  0  0
   45.5430   33.0010   46.4240 N   0  0  0  0  0  0  0  0  0  0  0  0
   45.5060   31.9490   46.2720 H   0  0  0  0  0  0  0  0  0  0  0  0
   45.6580   33.2950   47.4400 H   0  0  0  0  0  0  0  0  0  0  0  0
   46.6350   33.3870   38.7910 O   0  0  0  0  0  0  0  0  0  0  0  0
   48.1560   34.6140   37.0040 O   0  0  0  0  0  0  0  0  0  0  0  0
   47.3660   33.3610   37.2780 P   0  0  2  0  0  0  0  0  0  0  0  0
   46.1270   33.1750   36.1030 O   0  0  0  0  0  0  0  0  0  0  0  0
   45.8970   32.2030   36.0220 H   0  0  0  0  0  0  0  0  0  0  0  0
   48.3730   32.0270   37.0370 O   0  0  0  0  0  0  0  0  0  0  0  0
   49.5100   31.7530   37.7870 C   0  0  0  0  0  0  0  0  0  0  0  0
   49.3770   31.2030   39.0470 C   0  0  0  0  0  0  0  0  0  0  0  0
   48.5350   30.9010   39.6620 H   0  0  0  0  0  0  0  0  0  0  0  0
   50.6320   31.0420   39.5450 N   0  0  0  0  0  0  0  0  0  0  0  0
   51.0210   30.6650   40.4570 H   0  0  0  0  0  0  0  0  0  0  0  0
   51.5270   31.4710   38.6410 C   0  0  0  0  0  0  0  0  0  0  0  0
   52.5970   31.5670   38.5220 H   0  0  0  0  0  0  0  0  0  0  0  0
   50.8450   31.9130   37.5470 N   0  0  0  0  0  0  0  0  0  0  0  0
  2  1  1  0  0  0  0
  2  3  1  0  0  0  0
  3 15  1  0  0  0  0
  4  3  2  0  0  0  0
  4  8  1  0  0  0  0
  5  9  1  0  0  0  0
  5  4  1  0  0  0  0
  6  7  1  0  0  0  0
  6  5  2  0  0  0  0
  7  2  2  0  0  0  0
 10  6  1  0  0  0  0
 11 12  1  0  0  0  0
 11 19  1  0  0  0  0
 12 17  1  0  0  0  0
 13 18  1  0  0  0  0
 13 12  2  0  0  0  0
 14 13  1  0  0  0  0
 15 14  2  0  0  0  0
 15 16  1  0  0  0  0
 16 11  2  0  0  0  0
 19 21  1  0  0  0  0
 20 19  1  0  0  0  0
 22  7  1  0  0  0  0
 24 23  2  6  0  0  0
 24 22  1  0  0  0  0
 25 24  1  0  0  0  0
 26 25  1  0  0  0  0
 27 24  1  0  0  0  0
 27 28  1  0  0  0  0
 28 29  2  0  0  0  0
 29 31  1  0  0  0  0
 29 30  1  0  0  0  0
 31 32  1  0  0  0  0
 33 31  1  0  0  0  0
 34 33  1  0  0  0  0
 35 28  1  0  0  0  0
 35 33  2  0  0  0  0
M  END
>  <minimizedAffinity>
-6.14284372

>  <minimizedRMSD>
0.741576791

$$$$
