
 OpenBabel03252506463D

 41 44  0  0  1  0  0  0  0  0999 V2000
   49.5990   33.6330   41.2750 N   0  0  1  0  0  0  0  0  0  0  0  0
   50.6370   32.9630   42.0150 C   0  0  0  0  0  0  0  0  0  0  0  0
   51.1030   31.6970   41.3500 C   0  0  0  0  0  0  0  0  0  0  0  0
   49.9790   30.6830   41.4240 C   0  0  0  0  0  0  0  0  0  0  0  0
   48.6470   31.3540   41.2150 C   0  0  0  0  0  0  0  0  0  0  0  0
   48.8630   32.6760   40.5240 C   0  0  2  0  0  0  0  0  0  0  0  0
   51.4810   33.6480   42.1810 H   0  0  0  0  0  0  0  0  0  0  0  0
   50.2510   32.6780   43.0350 H   0  0  0  0  0  0  0  0  0  0  0  0
   51.5100   31.8410   40.3530 H   0  0  0  0  0  0  0  0  0  0  0  0
   51.9150   31.2970   41.9870 H   0  0  0  0  0  0  0  0  0  0  0  0
   50.1900   29.9150   40.6480 H   0  0  0  0  0  0  0  0  0  0  0  0
   50.0100   30.1850   42.4150 H   0  0  0  0  0  0  0  0  0  0  0  0
   47.9570   30.7730   40.5970 H   0  0  0  0  0  0  0  0  0  0  0  0
   48.2330   31.5860   42.2230 H   0  0  0  0  0  0  0  0  0  0  0  0
   47.8390   33.1180   40.3730 H   0  0  0  0  0  0  0  0  0  0  0  0
   47.4140   34.8230   41.9600 C   0  0  1  0  0  0  0  0  0  0  0  0
   48.5310   35.7960   41.8580 C   0  0  0  0  0  0  0  0  0  0  0  0
   48.8090   34.3770   42.2010 C   0  0  2  0  0  0  0  0  0  0  0  0
   46.9160   34.5840   40.9840 H   0  0  0  0  0  0  0  0  0  0  0  0
   48.8350   36.1590   40.8390 H   0  0  0  0  0  0  0  0  0  0  0  0
   48.6130   36.5930   42.6230 H   0  0  0  0  0  0  0  0  0  0  0  0
   49.0550   34.1770   43.2740 H   0  0  0  0  0  0  0  0  0  0  0  0
   45.5270   35.9620   43.1700 C   0  0  0  0  0  0  0  0  0  0  0  0
   46.4720   34.9350   43.0800 C   0  0  0  0  0  0  0  0  0  0  0  0
   46.4770   33.9830   44.1160 C   0  0  0  0  0  0  0  0  0  0  0  0
   45.5850   34.0990   45.1340 N   0  0  0  0  0  0  0  0  0  0  0  0
   44.6860   35.1160   45.1740 C   0  0  0  0  0  0  0  0  0  0  0  0
   44.6490   36.0540   44.1930 N   0  0  0  0  0  0  0  0  0  0  0  0
   45.5490   36.6840   42.3500 H   0  0  0  0  0  0  0  0  0  0  0  0
   47.1930   33.1680   44.0950 H   0  0  0  0  0  0  0  0  0  0  0  0
   44.0040   35.1590   46.0110 H   0  0  0  0  0  0  0  0  0  0  0  0
   49.3650   32.4400   39.1810 N   0  0  0  0  0  0  0  0  0  0  0  0
   50.1460   31.8810   38.7100 H   0  0  0  0  0  0  0  0  0  0  0  0
   48.5340   33.1920   38.2680 C   0  0  0  0  0  0  0  0  0  0  0  0
   48.5040   34.3680   37.5490 C   0  0  0  0  0  0  0  0  0  0  0  0
   49.3650   34.9750   37.6780 H   0  0  0  0  0  0  0  0  0  0  0  0
   47.3550   34.4290   36.8600 N   0  0  0  0  0  0  0  0  0  0  0  0
   47.1550   35.2590   36.2510 H   0  0  0  0  0  0  0  0  0  0  0  0
   46.6290   33.3250   37.1040 C   0  0  0  0  0  0  0  0  0  0  0  0
   45.6660   33.1900   36.6360 H   0  0  0  0  0  0  0  0  0  0  0  0
   47.3570   32.5640   37.9730 N   0  0  0  0  0  0  0  0  0  0  0  0
  1  2  1  1  0  0  0
  1 18  1  0  0  0  0
  2  7  1  0  0  0  0
  2  8  1  0  0  0  0
  3  4  1  0  0  0  0
  3 10  1  0  0  0  0
  3  2  1  0  0  0  0
  4 12  1  0  0  0  0
  5  4  1  0  0  0  0
  5 14  1  0  0  0  0
  6 15  1  6  0  0  0
  6  5  1  0  0  0  0
  6  1  1  0  0  0  0
  9  3  1  0  0  0  0
 11  4  1  0  0  0  0
 13  5  1  0  0  0  0
 16 19  1  6  0  0  0
 16 18  1  0  0  0  0
 16 24  1  0  0  0  0
 17 16  1  0  0  0  0
 17 18  1  0  0  0  0
 17 21  1  0  0  0  0
 18 22  1  1  0  0  0
 20 17  1  0  0  0  0
 23 28  1  0  0  0  0
 24 23  2  0  0  0  0
 24 25  1  0  0  0  0
 25 26  2  0  0  0  0
 26 27  1  0  0  0  0
 27 31  1  0  0  0  0
 28 27  2  0  0  0  0
 29 23  1  0  0  0  0
 30 25  1  0  0  0  0
 32  6  1  0  0  0  0
 33 32  1  0  0  0  0
 34 32  1  0  0  0  0
 35 36  1  0  0  0  0
 35 34  2  0  0  0  0
 37 39  1  0  0  0  0
 37 35  1  0  0  0  0
 38 37  1  0  0  0  0
 39 41  2  0  0  0  0
 40 39  1  0  0  0  0
 41 34  1  0  0  0  0
M  END
>  <minimizedAffinity>
-5.64579296

>  <minimizedRMSD>
2.8594563

$$$$
