
 OpenBabel03252501003D

 24 26  0  0  1  0  0  0  0  0999 V2000
   45.9420   33.3900   41.5890 C   0  0  1  0  0  0  0  0  0  0  0  0
   46.6740   34.7150   41.5840 C   0  0  0  0  0  0  0  0  0  0  0  0
   46.4670   33.8860   42.8540 C   0  0  1  0  0  0  0  0  0  0  0  0
   46.4750   32.5750   41.0360 H   0  0  0  0  0  0  0  0  0  0  0  0
   46.0950   35.6470   41.4730 H   0  0  0  0  0  0  0  0  0  0  0  0
   47.7360   34.7610   41.2320 H   0  0  0  0  0  0  0  0  0  0  0  0
   47.3510   33.3120   43.2450 H   0  0  0  0  0  0  0  0  0  0  0  0
   42.5680   34.5680   40.3730 C   0  0  0  0  0  0  0  0  0  0  0  0
   43.9620   34.5810   40.6030 C   0  0  0  0  0  0  0  0  0  0  0  0
   44.4870   33.5030   41.2960 C   0  0  0  0  0  0  0  0  0  0  0  0
   43.6510   32.5210   41.7020 N   0  0  0  0  0  0  0  0  0  0  0  0
   42.3170   32.5130   41.4780 C   0  0  0  0  0  0  0  0  0  0  0  0
   41.7920   33.5510   40.8080 N   0  0  0  0  0  0  0  0  0  0  0  0
   42.1210   35.3890   39.8380 H   0  0  0  0  0  0  0  0  0  0  0  0
   44.5990   35.3860   40.2630 H   0  0  0  0  0  0  0  0  0  0  0  0
   41.8030   31.6480   41.8730 H   0  0  0  0  0  0  0  0  0  0  0  0
   45.6550   34.5820   43.8850 C   0  0  0  0  0  0  0  0  0  0  0  0
   45.1840   34.2350   45.1580 C   0  0  0  0  0  0  0  0  0  0  0  0
   45.3950   33.2620   45.5720 H   0  0  0  0  0  0  0  0  0  0  0  0
   44.4910   35.2310   45.7020 N   0  0  0  0  0  0  0  0  0  0  0  0
   44.0690   35.1340   46.6550 H   0  0  0  0  0  0  0  0  0  0  0  0
   44.4890   36.2390   44.8150 C   0  0  0  0  0  0  0  0  0  0  0  0
   43.9970   37.1870   44.9890 H   0  0  0  0  0  0  0  0  0  0  0  0
   45.1820   35.8530   43.7310 N   0  0  0  0  0  0  0  0  0  0  0  0
  1  4  1  6  0  0  0
  1  3  1  0  0  0  0
  2  1  1  0  0  0  0
  2  3  1  0  0  0  0
  3  7  1  1  0  0  0
  3 17  1  0  0  0  0
  5  2  1  0  0  0  0
  6  2  1  0  0  0  0
  8  9  2  0  0  0  0
  8 13  1  0  0  0  0
  9 10  1  0  0  0  0
 10  1  1  0  0  0  0
 10 11  2  0  0  0  0
 12 11  1  0  0  0  0
 12 16  1  0  0  0  0
 13 12  2  0  0  0  0
 14  8  1  0  0  0  0
 15  9  1  0  0  0  0
 17 18  2  0  0  0  0
 18 19  1  0  0  0  0
 18 20  1  0  0  0  0
 20 21  1  0  0  0  0
 22 23  1  0  0  0  0
 22 20  1  0  0  0  0
 24 17  1  0  0  0  0
 24 22  2  0  0  0  0
M  END
>  <minimizedAffinity>
-4.06291056

>  <minimizedRMSD>
4.36646748

$$$$
