
 OpenBabel03252501593D

 35 37  0  0  0  0  0  0  0  0999 V2000
   44.4140   35.9010   45.2420 C   0  0  0  0  0  0  0  0  0  0  0  0
   45.1710   35.9250   44.0660 C   0  0  0  0  0  0  0  0  0  0  0  0
   46.0780   34.9330   43.8320 C   0  0  0  0  0  0  0  0  0  0  0  0
   46.2170   33.9380   44.7680 N   0  0  0  0  0  0  0  0  0  0  0  0
   45.4760   33.9250   45.9060 C   0  0  0  0  0  0  0  0  0  0  0  0
   44.5780   34.9000   46.1480 N   0  0  0  0  0  0  0  0  0  0  0  0
   43.6480   36.4890   45.6490 H   0  0  0  0  0  0  0  0  0  0  0  0
   45.7480   33.0560   46.4950 H   0  0  0  0  0  0  0  0  0  0  0  0
   46.8350   34.9510   42.6190 C   0  0  0  0  0  0  0  0  0  0  0  0
   48.0180   35.5750   42.3570 C   0  0  0  0  0  0  0  0  0  0  0  0
   48.5960   35.4680   41.1040 C   0  0  0  0  0  0  0  0  0  0  0  0
   47.9910   34.7380   40.1110 C   0  0  0  0  0  0  0  0  0  0  0  0
   46.8080   34.1040   40.3440 C   0  0  0  0  0  0  0  0  0  0  0  0
   46.2490   34.2240   41.6010 C   0  0  0  0  0  0  0  0  0  0  0  0
   48.4370   36.1330   43.1880 H   0  0  0  0  0  0  0  0  0  0  0  0
   49.5360   35.9960   40.9830 H   0  0  0  0  0  0  0  0  0  0  0  0
   48.5500   34.7420   39.1880 H   0  0  0  0  0  0  0  0  0  0  0  0
   46.3610   33.5390   39.5390 H   0  0  0  0  0  0  0  0  0  0  0  0
   45.2980   33.6780   41.6900 H   0  0  0  0  0  0  0  0  0  0  0  0
   44.8850   37.0340   43.1320 C   0  0  0  0  0  0  0  0  0  0  0  0
   43.8730   37.0030   42.6900 H   0  0  0  0  0  0  0  0  0  0  0  0
   45.6070   36.9020   42.2910 H   0  0  0  0  0  0  0  0  0  0  0  0
   45.1470   38.2600   43.8540 N   0  0  0  0  0  0  0  0  0  0  0  0
   45.1020   38.8870   45.1260 C   0  0  0  0  0  0  0  0  0  0  0  0
   45.8090   40.0130   45.5760 C   0  0  0  0  0  0  0  0  0  0  0  0
   46.5300   40.5740   44.9980 H   0  0  0  0  0  0  0  0  0  0  0  0
   45.3650   40.1780   46.8350 N   0  0  0  0  0  0  0  0  0  0  0  0
   45.7300   40.9710   47.4380 H   0  0  0  0  0  0  0  0  0  0  0  0
   44.4520   39.2590   47.1950 C   0  0  0  0  0  0  0  0  0  0  0  0
   43.9860   39.2450   48.1820 H   0  0  0  0  0  0  0  0  0  0  0  0
   44.2800   38.4490   46.1370 N   0  0  0  0  0  0  0  0  0  0  0  0
   45.6480   39.3050   42.9560 C   0  0  0  0  0  0  0  0  0  0  0  0
   46.9810   39.2800   42.7890 F   0  0  0  0  0  0  0  0  0  0  0  0
   45.3270   40.5700   43.4450 F   0  0  0  0  0  0  0  0  0  0  0  0
   45.0210   39.1670   41.7490 F   0  0  0  0  0  0  0  0  0  0  0  0
  1  7  1  0  0  0  0
  1  6  1  0  0  0  0
  2  1  2  0  0  0  0
  3  2  1  0  0  0  0
  3  4  2  0  0  0  0
  4  5  1  0  0  0  0
  5  6  2  0  0  0  0
  5  8  1  0  0  0  0
  9  3  1  0  0  0  0
 10  9  1  0  0  0  0
 10 15  1  0  0  0  0
 11 10  2  0  0  0  0
 12 13  2  0  0  0  0
 12 11  1  0  0  0  0
 13 14  1  0  0  0  0
 14 19  1  0  0  0  0
 14  9  2  0  0  0  0
 16 11  1  0  0  0  0
 17 12  1  0  0  0  0
 18 13  1  0  0  0  0
 20 23  1  0  0  0  0
 20  2  1  0  0  0  0
 21 20  1  0  0  0  0
 22 20  1  0  0  0  0
 23 24  1  0  0  0  0
 24 25  2  0  0  0  0
 24 31  1  0  0  0  0
 25 27  1  0  0  0  0
 26 25  1  0  0  0  0
 27 29  1  0  0  0  0
 27 28  1  0  0  0  0
 29 30  1  0  0  0  0
 31 29  2  0  0  0  0
 32 34  1  0  0  0  0
 32 23  1  0  0  0  0
 33 32  1  0  0  0  0
 35 32  1  0  0  0  0
M  END
>  <minimizedAffinity>
0.656169057

>  <minimizedRMSD>
0.824127138

$$$$
