
 OpenBabel03252508073D

 43 46  0  0  0  0  0  0  0  0999 V2000
   45.3160   36.0990   42.7850 C   0  0  0  0  0  0  0  0  0  0  0  0
   45.5190   34.7280   42.7880 C   0  0  0  0  0  0  0  0  0  0  0  0
   45.2540   33.9970   43.9200 C   0  0  0  0  0  0  0  0  0  0  0  0
   44.7840   34.6910   45.0180 N   0  0  0  0  0  0  0  0  0  0  0  0
   44.5910   36.0070   45.0100 C   0  0  0  0  0  0  0  0  0  0  0  0
   44.8620   36.7020   43.8830 N   0  0  0  0  0  0  0  0  0  0  0  0
   45.5150   36.7080   41.9150 H   0  0  0  0  0  0  0  0  0  0  0  0
   44.2230   36.5340   45.8800 H   0  0  0  0  0  0  0  0  0  0  0  0
   45.4090   32.6010   44.0830 C   0  0  0  0  0  0  0  0  0  0  0  0
   44.9030   31.6490   43.1930 C   0  0  0  0  0  0  0  0  0  0  0  0
   44.9920   30.2940   43.3830 C   0  0  0  0  0  0  0  0  0  0  0  0
   45.6130   29.8030   44.5080 C   0  0  0  0  0  0  0  0  0  0  0  0
   46.1360   30.7530   45.4260 C   0  0  0  0  0  0  0  0  0  0  0  0
   46.7550   30.2780   46.5520 C   0  0  0  0  0  0  0  0  0  0  0  0
   47.2870   31.1470   47.4850 C   0  0  0  0  0  0  0  0  0  0  0  0
   47.1900   32.5300   47.2660 C   0  0  0  0  0  0  0  0  0  0  0  0
   46.5460   32.9730   46.0960 C   0  0  0  0  0  0  0  0  0  0  0  0
   46.0250   32.0860   45.1950 C   0  0  0  0  0  0  0  0  0  0  0  0
   44.4130   32.0410   42.3050 H   0  0  0  0  0  0  0  0  0  0  0  0
   44.5890   29.5900   42.6710 H   0  0  0  0  0  0  0  0  0  0  0  0
   45.7340   28.7670   44.7500 H   0  0  0  0  0  0  0  0  0  0  0  0
   46.8420   29.2030   46.7410 H   0  0  0  0  0  0  0  0  0  0  0  0
   47.7660   30.7130   48.3620 H   0  0  0  0  0  0  0  0  0  0  0  0
   47.6330   33.1320   48.0430 H   0  0  0  0  0  0  0  0  0  0  0  0
   46.5940   34.0410   46.1020 H   0  0  0  0  0  0  0  0  0  0  0  0
   45.9810   34.1640   41.6340 O   0  0  0  0  0  0  0  0  0  0  0  0
   47.8600   32.3810   41.2390 O   0  0  0  0  0  0  0  0  0  0  0  0
   47.6100   33.8440   41.3050 P   0  0  1  0  0  0  0  0  0  0  0  0
   48.0680   34.4900   39.8080 O   0  0  0  0  0  0  0  0  0  0  0  0
   47.6760   33.9740   38.5810 C   0  0  0  0  0  0  0  0  0  0  0  0
   48.3700   34.4350   37.4910 C   0  0  0  0  0  0  0  0  0  0  0  0
   49.1950   35.1450   37.3500 H   0  0  0  0  0  0  0  0  0  0  0  0
   47.8650   33.8340   36.3880 N   0  0  0  0  0  0  0  0  0  0  0  0
   48.1200   33.9200   35.3790 H   0  0  0  0  0  0  0  0  0  0  0  0
   46.8860   33.0290   36.8260 C   0  0  0  0  0  0  0  0  0  0  0  0
   46.1970   32.3470   36.3050 H   0  0  0  0  0  0  0  0  0  0  0  0
   46.7440   33.0930   38.1800 N   0  0  0  0  0  0  0  0  0  0  0  0
   48.5420   34.5550   42.5030 O   0  0  0  0  0  0  0  0  0  0  0  0
   49.7370   35.2380   42.3330 C   0  0  0  0  0  0  0  0  0  0  0  0
   49.4070   36.3520   41.8990 O   0  0  0  0  0  0  0  0  0  0  0  0
   50.8580   34.4080   42.7150 N   0  0  0  0  0  0  0  0  0  0  0  0
   51.6520   34.0110   42.1590 H   0  0  0  0  0  0  0  0  0  0  0  0
   50.9190   34.1340   43.7410 H   0  0  0  0  0  0  0  0  0  0  0  0
  1  2  2  0  0  0  0
  1  6  1  0  0  0  0
  2  3  1  0  0  0  0
  3  9  1  0  0  0  0
  3  4  2  0  0  0  0
  5  4  1  0  0  0  0
  5  8  1  0  0  0  0
  6  5  2  0  0  0  0
  7  1  1  0  0  0  0
  9 18  1  0  0  0  0
 10 11  1  0  0  0  0
 10  9  2  0  0  0  0
 11 12  2  0  0  0  0
 12 21  1  0  0  0  0
 12 13  1  0  0  0  0
 13 14  1  0  0  0  0
 14 22  1  0  0  0  0
 14 15  2  0  0  0  0
 15 23  1  0  0  0  0
 16 15  1  0  0  0  0
 16 24  1  0  0  0  0
 17 25  1  0  0  0  0
 17 16  2  0  0  0  0
 18 13  2  0  0  0  0
 18 17  1  0  0  0  0
 19 10  1  0  0  0  0
 20 11  1  0  0  0  0
 26  2  1  0  0  0  0
 28 27  2  6  0  0  0
 28 26  1  0  0  0  0
 28 38  1  0  0  0  0
 29 28  1  0  0  0  0
 30 29  1  0  0  0  0
 31 30  2  0  0  0  0
 32 31  1  0  0  0  0
 33 35  1  0  0  0  0
 33 31  1  0  0  0  0
 34 33  1  0  0  0  0
 35 37  2  0  0  0  0
 36 35  1  0  0  0  0
 37 30  1  0  0  0  0
 39 38  1  0  0  0  0
 39 41  1  0  0  0  0
 40 39  2  0  0  0  0
 41 43  1  0  0  0  0
 42 41  1  0  0  0  0
M  END
>  <minimizedAffinity>
-6.2973485

>  <minimizedRMSD>
0.774412215

$$$$
