
 OpenBabel03252501043D

 30 32  0  0  1  0  0  0  0  0999 V2000
   37.2100   30.7790   37.5620 C   0  0  1  0  0  0  0  0  0  0  0  0
   38.0510   29.6050   37.2300 C   0  0  0  0  0  0  0  0  0  0  0  0
   36.9080   29.5050   38.2320 C   0  0  1  0  0  0  0  0  0  0  0  0
   36.4600   31.1540   36.8110 H   0  0  0  0  0  0  0  0  0  0  0  0
   37.9150   29.1700   36.2150 H   0  0  0  0  0  0  0  0  0  0  0  0
   39.0280   29.4210   37.6710 H   0  0  0  0  0  0  0  0  0  0  0  0
   36.0760   28.8940   37.8290 H   0  0  0  0  0  0  0  0  0  0  0  0
   39.8460   32.9010   39.2380 C   0  0  0  0  0  0  0  0  0  0  0  0
   39.2700   31.9030   38.4420 C   0  0  0  0  0  0  0  0  0  0  0  0
   37.8730   31.8290   38.3900 C   0  0  0  0  0  0  0  0  0  0  0  0
   37.1340   32.7200   39.1070 N   0  0  0  0  0  0  0  0  0  0  0  0
   37.7130   33.6780   39.8710 C   0  0  0  0  0  0  0  0  0  0  0  0
   39.0690   33.7610   39.9300 N   0  0  0  0  0  0  0  0  0  0  0  0
   40.9040   33.0540   39.3560 H   0  0  0  0  0  0  0  0  0  0  0  0
   39.9370   31.2470   37.9090 H   0  0  0  0  0  0  0  0  0  0  0  0
   37.0800   34.3720   40.4290 H   0  0  0  0  0  0  0  0  0  0  0  0
   37.0990   29.4220   39.5550 O   0  0  0  0  0  0  0  0  0  0  0  0
   34.4760   29.2050   39.8920 O   0  0  0  0  0  0  0  0  0  0  0  0
   35.8030   29.4910   40.5600 P   0  0  2  0  0  0  0  0  0  0  0  0
   35.6260   30.9710   41.3560 O   0  0  0  0  0  0  0  0  0  0  0  0
   34.9330   30.8990   42.0350 H   0  0  0  0  0  0  0  0  0  0  0  0
   35.9560   28.3080   41.7540 O   0  0  0  0  0  0  0  0  0  0  0  0
   37.1570   27.9650   42.3620 C   0  0  0  0  0  0  0  0  0  0  0  0
   37.4380   26.6010   42.3750 C   0  0  0  0  0  0  0  0  0  0  0  0
   36.9940   25.6720   42.0450 H   0  0  0  0  0  0  0  0  0  0  0  0
   38.6330   26.4460   42.9990 N   0  0  0  0  0  0  0  0  0  0  0  0
   39.2740   25.6580   43.2630 H   0  0  0  0  0  0  0  0  0  0  0  0
   39.0900   27.6600   43.3650 C   0  0  0  0  0  0  0  0  0  0  0  0
   39.9630   28.0530   43.8710 H   0  0  0  0  0  0  0  0  0  0  0  0
   38.1840   28.5840   42.9740 N   0  0  0  0  0  0  0  0  0  0  0  0
  1  4  1  6  0  0  0
  1  3  1  0  0  0  0
  1 10  1  0  0  0  0
  2  1  1  0  0  0  0
  2  6  1  0  0  0  0
  2  3  1  0  0  0  0
  3  7  1  6  0  0  0
  3 17  1  0  0  0  0
  5  2  1  0  0  0  0
  8 14  1  0  0  0  0
  8 13  1  0  0  0  0
  9  8  2  0  0  0  0
 10  9  1  0  0  0  0
 10 11  2  0  0  0  0
 11 12  1  0  0  0  0
 12 13  2  0  0  0  0
 12 16  1  0  0  0  0
 15  9  1  0  0  0  0
 17 19  1  0  0  0  0
 19 18  2  6  0  0  0
 19 20  1  0  0  0  0
 19 22  1  0  0  0  0
 20 21  1  0  0  0  0
 22 23  1  0  0  0  0
 23 24  2  0  0  0  0
 23 30  1  0  0  0  0
 24 26  1  0  0  0  0
 25 24  1  0  0  0  0
 26 27  1  0  0  0  0
 26 28  1  0  0  0  0
 28 29  1  0  0  0  0
 30 28  2  0  0  0  0
M  END
>  <minimizedAffinity>
-5.09351873

$$$$

 OpenBabel03252501043D

 30 32  0  0  1  0  0  0  0  0999 V2000
   37.8840   27.8580   43.3370 C   0  0  1  0  0  0  0  0  0  0  0  0
   38.8650   28.9010   42.9560 C   0  0  0  0  0  0  0  0  0  0  0  0
   37.4120   28.9730   42.5030 C   0  0  1  0  0  0  0  0  0  0  0  0
   37.5040   27.8120   44.3960 H   0  0  0  0  0  0  0  0  0  0  0  0
   39.2060   29.5790   43.7700 H   0  0  0  0  0  0  0  0  0  0  0  0
   39.5680   28.7950   42.1350 H   0  0  0  0  0  0  0  0  0  0  0  0
   36.8770   29.8040   43.0050 H   0  0  0  0  0  0  0  0  0  0  0  0
   39.4280   24.8990   41.5680 C   0  0  0  0  0  0  0  0  0  0  0  0
   39.3190   26.1420   42.2070 C   0  0  0  0  0  0  0  0  0  0  0  0
   38.0550   26.5400   42.6570 C   0  0  0  0  0  0  0  0  0  0  0  0
   36.9900   25.7140   42.4610 N   0  0  0  0  0  0  0  0  0  0  0  0
   37.1190   24.5160   41.8410 C   0  0  0  0  0  0  0  0  0  0  0  0
   38.3410   24.1170   41.3980 N   0  0  0  0  0  0  0  0  0  0  0  0
   40.3440   24.4900   41.1810 H   0  0  0  0  0  0  0  0  0  0  0  0
   40.2180   26.7230   42.3180 H   0  0  0  0  0  0  0  0  0  0  0  0
   36.2360   23.8860   41.7050 H   0  0  0  0  0  0  0  0  0  0  0  0
   37.0230   28.7080   41.2490 O   0  0  0  0  0  0  0  0  0  0  0  0
   36.2100   31.2200   40.9880 O   0  0  0  0  0  0  0  0  0  0  0  0
   36.1240   29.8140   40.4350 P   0  0  2  0  0  0  0  0  0  0  0  0
   34.4780   29.4370   40.3500 O   0  0  0  0  0  0  0  0  0  0  0  0
   34.0310   30.0500   39.7410 H   0  0  0  0  0  0  0  0  0  0  0  0
   36.6820   29.9330   38.8470 O   0  0  0  0  0  0  0  0  0  0  0  0
   37.7740   30.7000   38.4600 C   0  0  0  0  0  0  0  0  0  0  0  0
   37.6550   31.2970   37.2080 C   0  0  0  0  0  0  0  0  0  0  0  0
   36.9430   31.3570   36.3950 H   0  0  0  0  0  0  0  0  0  0  0  0
   38.7940   31.9990   36.9910 N   0  0  0  0  0  0  0  0  0  0  0  0
   39.2010   32.6060   36.2360 H   0  0  0  0  0  0  0  0  0  0  0  0
   39.6010   31.8550   38.0600 C   0  0  0  0  0  0  0  0  0  0  0  0
   40.5820   32.2030   38.3600 H   0  0  0  0  0  0  0  0  0  0  0  0
   38.9730   31.0590   38.9540 N   0  0  0  0  0  0  0  0  0  0  0  0
  1  4  1  1  0  0  0
  2  1  1  0  0  0  0
  2  5  1  0  0  0  0
  3  2  1  0  0  0  0
  3  7  1  1  0  0  0
  3  1  1  0  0  0  0
  6  2  1  0  0  0  0
  8  9  1  0  0  0  0
  9 15  1  0  0  0  0
  9 10  2  0  0  0  0
 10  1  1  0  0  0  0
 11 10  1  0  0  0  0
 12 11  2  0  0  0  0
 13  8  2  0  0  0  0
 13 12  1  0  0  0  0
 14  8  1  0  0  0  0
 16 12  1  0  0  0  0
 17  3  1  0  0  0  0
 19 18  2  1  0  0  0
 19 17  1  0  0  0  0
 20 19  1  0  0  0  0
 21 20  1  0  0  0  0
 22 19  1  0  0  0  0
 23 22  1  0  0  0  0
 23 30  1  0  0  0  0
 24 23  2  0  0  0  0
 25 24  1  0  0  0  0
 26 24  1  0  0  0  0
 26 28  1  0  0  0  0
 27 26  1  0  0  0  0
 28 29  1  0  0  0  0
 28 30  2  0  0  0  0
M  END
>  <minimizedAffinity>
-4.98157883

$$$$

 OpenBabel03252501043D

 30 32  0  0  1  0  0  0  0  0999 V2000
   36.6310   27.6940   42.2010 C   0  0  1  0  0  0  0  0  0  0  0  0
   36.5360   27.6320   43.6780 C   0  0  0  0  0  0  0  0  0  0  0  0
   37.3840   28.6880   42.9800 C   0  0  1  0  0  0  0  0  0  0  0  0
   35.7540   28.0680   41.6030 H   0  0  0  0  0  0  0  0  0  0  0  0
   35.5620   27.9360   44.1230 H   0  0  0  0  0  0  0  0  0  0  0  0
   37.1170   26.9480   44.2910 H   0  0  0  0  0  0  0  0  0  0  0  0
   36.9420   29.6980   43.0960 H   0  0  0  0  0  0  0  0  0  0  0  0
   38.3340   24.3800   41.5810 C   0  0  0  0  0  0  0  0  0  0  0  0
   37.5730   25.3710   42.2150 C   0  0  0  0  0  0  0  0  0  0  0  0
   37.4260   26.6020   41.5650 C   0  0  0  0  0  0  0  0  0  0  0  0
   38.0190   26.7870   40.3530 N   0  0  0  0  0  0  0  0  0  0  0  0
   38.7490   25.8140   39.7580 C   0  0  0  0  0  0  0  0  0  0  0  0
   38.9020   24.6140   40.3790 N   0  0  0  0  0  0  0  0  0  0  0  0
   38.5170   23.4000   41.9840 H   0  0  0  0  0  0  0  0  0  0  0  0
   37.1410   25.1300   43.1710 H   0  0  0  0  0  0  0  0  0  0  0  0
   39.2070   26.0080   38.7850 H   0  0  0  0  0  0  0  0  0  0  0  0
   38.7220   28.6430   42.9420 O   0  0  0  0  0  0  0  0  0  0  0  0
   40.8700   29.4040   41.5830 O   0  0  0  0  0  0  0  0  0  0  0  0
   39.5450   29.8360   42.1700 P   0  0  2  0  0  0  0  0  0  0  0  0
   39.8690   31.1850   43.1350 O   0  0  0  0  0  0  0  0  0  0  0  0
   40.2260   31.9040   42.5850 H   0  0  0  0  0  0  0  0  0  0  0  0
   38.6380   30.3800   40.8540 O   0  0  0  0  0  0  0  0  0  0  0  0
   38.3960   31.7200   40.5760 C   0  0  0  0  0  0  0  0  0  0  0  0
   37.0890   32.0100   40.1950 C   0  0  0  0  0  0  0  0  0  0  0  0
   36.1500   31.4970   40.0370 H   0  0  0  0  0  0  0  0  0  0  0  0
   37.0280   33.3450   39.9630 N   0  0  0  0  0  0  0  0  0  0  0  0
   36.3090   34.0500   39.6650 H   0  0  0  0  0  0  0  0  0  0  0  0
   38.2450   33.8780   40.1890 C   0  0  0  0  0  0  0  0  0  0  0  0
   38.6950   34.8630   40.1450 H   0  0  0  0  0  0  0  0  0  0  0  0
   39.0770   32.8800   40.5620 N   0  0  0  0  0  0  0  0  0  0  0  0
  1  4  1  6  0  0  0
  1  3  1  0  0  0  0
  1  2  1  0  0  0  0
  2  5  1  0  0  0  0
  2  6  1  0  0  0  0
  3  7  1  6  0  0  0
  3  2  1  0  0  0  0
  8 14  1  0  0  0  0
  8  9  1  0  0  0  0
  9 15  1  0  0  0  0
 10  1  1  0  0  0  0
 10  9  2  0  0  0  0
 11 10  1  0  0  0  0
 12 11  2  0  0  0  0
 12 13  1  0  0  0  0
 13  8  2  0  0  0  0
 16 12  1  0  0  0  0
 17  3  1  0  0  0  0
 19 18  2  6  0  0  0
 19 17  1  0  0  0  0
 19 20  1  0  0  0  0
 21 20  1  0  0  0  0
 22 19  1  0  0  0  0
 23 22  1  0  0  0  0
 24 23  2  0  0  0  0
 25 24  1  0  0  0  0
 26 28  1  0  0  0  0
 26 24  1  0  0  0  0
 27 26  1  0  0  0  0
 28 30  2  0  0  0  0
 29 28  1  0  0  0  0
 30 23  1  0  0  0  0
M  END
>  <minimizedAffinity>
-4.90828371

$$$$

 OpenBabel03252501043D

 30 32  0  0  1  0  0  0  0  0999 V2000
   37.2740   31.4960   38.1720 C   0  0  1  0  0  0  0  0  0  0  0  0
   37.8800   30.3820   37.4050 C   0  0  0  0  0  0  0  0  0  0  0  0
   37.0530   30.1270   38.6590 C   0  0  1  0  0  0  0  0  0  0  0  0
   36.3840   32.0410   37.7490 H   0  0  0  0  0  0  0  0  0  0  0  0
   37.4300   30.1630   36.4120 H   0  0  0  0  0  0  0  0  0  0  0  0
   38.9190   30.0780   37.5050 H   0  0  0  0  0  0  0  0  0  0  0  0
   36.0890   29.6390   38.4090 H   0  0  0  0  0  0  0  0  0  0  0  0
   40.4660   33.0650   39.4420 C   0  0  0  0  0  0  0  0  0  0  0  0
   39.6050   32.2640   38.6810 C   0  0  0  0  0  0  0  0  0  0  0  0
   38.2330   32.3350   38.9490 C   0  0  0  0  0  0  0  0  0  0  0  0
   37.7910   33.1730   39.9270 N   0  0  0  0  0  0  0  0  0  0  0  0
   38.6420   33.9400   40.6500 C   0  0  0  0  0  0  0  0  0  0  0  0
   39.9770   33.8790   40.4010 N   0  0  0  0  0  0  0  0  0  0  0  0
   41.5350   33.0930   39.3270 H   0  0  0  0  0  0  0  0  0  0  0  0
   40.0480   31.6350   37.9270 H   0  0  0  0  0  0  0  0  0  0  0  0
   38.2420   34.5980   41.4260 H   0  0  0  0  0  0  0  0  0  0  0  0
   37.5920   29.7750   39.8330 O   0  0  0  0  0  0  0  0  0  0  0  0
   35.7190   28.5520   41.2590 O   0  0  0  0  0  0  0  0  0  0  0  0
   36.6460   29.7440   41.1750 P   0  0  2  0  0  0  0  0  0  0  0  0
   35.6780   31.1150   41.3670 O   0  0  0  0  0  0  0  0  0  0  0  0
   35.2550   31.0990   42.2430 H   0  0  0  0  0  0  0  0  0  0  0  0
   37.6230   29.6370   42.5470 O   0  0  0  0  0  0  0  0  0  0  0  0
   38.9730   29.9650   42.5700 C   0  0  0  0  0  0  0  0  0  0  0  0
   39.8380   28.8780   42.6600 C   0  0  0  0  0  0  0  0  0  0  0  0
   39.7920   27.7990   42.7220 H   0  0  0  0  0  0  0  0  0  0  0  0
   41.1010   29.3730   42.6710 N   0  0  0  0  0  0  0  0  0  0  0  0
   42.0810   28.9990   42.7240 H   0  0  0  0  0  0  0  0  0  0  0  0
   41.0390   30.7160   42.5910 C   0  0  0  0  0  0  0  0  0  0  0  0
   41.7450   31.5380   42.5650 H   0  0  0  0  0  0  0  0  0  0  0  0
   39.7360   31.0730   42.5300 N   0  0  0  0  0  0  0  0  0  0  0  0
  1  4  1  6  0  0  0
  1  3  1  0  0  0  0
  1 10  1  0  0  0  0
  2  6  1  0  0  0  0
  2  1  1  0  0  0  0
  2  3  1  0  0  0  0
  3  7  1  6  0  0  0
  3 17  1  0  0  0  0
  5  2  1  0  0  0  0
  8 13  1  0  0  0  0
  9 10  1  0  0  0  0
  9  8  2  0  0  0  0
 10 11  2  0  0  0  0
 11 12  1  0  0  0  0
 12 16  1  0  0  0  0
 13 12  2  0  0  0  0
 14  8  1  0  0  0  0
 15  9  1  0  0  0  0
 17 19  1  0  0  0  0
 19 18  2  6  0  0  0
 19 20  1  0  0  0  0
 19 22  1  0  0  0  0
 20 21  1  0  0  0  0
 22 23  1  0  0  0  0
 23 24  2  0  0  0  0
 24 26  1  0  0  0  0
 24 25  1  0  0  0  0
 26 27  1  0  0  0  0
 28 26  1  0  0  0  0
 29 28  1  0  0  0  0
 30 23  1  0  0  0  0
 30 28  2  0  0  0  0
M  END
>  <minimizedAffinity>
-4.84248781

$$$$

 OpenBabel03252501043D

 30 32  0  0  1  0  0  0  0  0999 V2000
   37.1970   26.7630   42.4700 C   0  0  1  0  0  0  0  0  0  0  0  0
   36.6200   27.4050   43.6750 C   0  0  0  0  0  0  0  0  0  0  0  0
   36.6680   28.1280   42.3350 C   0  0  1  0  0  0  0  0  0  0  0  0
   36.6290   25.9390   41.9540 H   0  0  0  0  0  0  0  0  0  0  0  0
   35.6460   27.0010   44.0310 H   0  0  0  0  0  0  0  0  0  0  0  0
   37.2170   27.8850   44.4460 H   0  0  0  0  0  0  0  0  0  0  0  0
   35.6520   28.2490   41.9080 H   0  0  0  0  0  0  0  0  0  0  0  0
   40.7840   26.5220   43.6290 C   0  0  0  0  0  0  0  0  0  0  0  0
   39.3900   26.6550   43.6790 C   0  0  0  0  0  0  0  0  0  0  0  0
   38.6830   26.6190   42.4710 C   0  0  0  0  0  0  0  0  0  0  0  0
   39.3680   26.4570   41.3060 N   0  0  0  0  0  0  0  0  0  0  0  0
   40.7170   26.3300   41.2810 C   0  0  0  0  0  0  0  0  0  0  0  0
   41.4160   26.3640   42.4460 N   0  0  0  0  0  0  0  0  0  0  0  0
   41.4300   26.5350   44.4880 H   0  0  0  0  0  0  0  0  0  0  0  0
   38.9380   26.7750   44.6490 H   0  0  0  0  0  0  0  0  0  0  0  0
   41.2240   26.2030   40.3210 H   0  0  0  0  0  0  0  0  0  0  0  0
   37.5290   29.1200   42.0690 O   0  0  0  0  0  0  0  0  0  0  0  0
   37.9870   31.5310   41.0620 O   0  0  0  0  0  0  0  0  0  0  0  0
   37.0790   30.3220   41.0450 P   0  0  2  0  0  0  0  0  0  0  0  0
   35.5120   30.8990   41.3070 O   0  0  0  0  0  0  0  0  0  0  0  0
   35.2590   31.5010   40.5850 H   0  0  0  0  0  0  0  0  0  0  0  0
   37.1340   29.7540   39.4560 O   0  0  0  0  0  0  0  0  0  0  0  0
   38.3090   29.4880   38.7640 C   0  0  0  0  0  0  0  0  0  0  0  0
   38.1350   29.1600   37.4220 C   0  0  0  0  0  0  0  0  0  0  0  0
   37.3330   29.0410   36.7070 H   0  0  0  0  0  0  0  0  0  0  0  0
   39.3680   28.9340   36.9040 N   0  0  0  0  0  0  0  0  0  0  0  0
   39.7840   28.6660   35.9780 H   0  0  0  0  0  0  0  0  0  0  0  0
   40.2840   29.1100   37.8770 C   0  0  0  0  0  0  0  0  0  0  0  0
   41.3620   29.0480   37.9640 H   0  0  0  0  0  0  0  0  0  0  0  0
   39.6310   29.4480   39.0110 N   0  0  0  0  0  0  0  0  0  0  0  0
  1  4  1  6  0  0  0
  1 10  1  0  0  0  0
  1  2  1  0  0  0  0
  2  5  1  0  0  0  0
  2  6  1  0  0  0  0
  3  7  1  6  0  0  0
  3  1  1  0  0  0  0
  3  2  1  0  0  0  0
  8  9  1  0  0  0  0
  8 14  1  0  0  0  0
  9 15  1  0  0  0  0
 10  9  2  0  0  0  0
 11 10  1  0  0  0  0
 12 11  2  0  0  0  0
 12 13  1  0  0  0  0
 13  8  2  0  0  0  0
 16 12  1  0  0  0  0
 17  3  1  0  0  0  0
 19 18  2  1  0  0  0
 19 20  1  0  0  0  0
 19 17  1  0  0  0  0
 21 20  1  0  0  0  0
 22 19  1  0  0  0  0
 23 30  1  0  0  0  0
 23 22  1  0  0  0  0
 24 23  2  0  0  0  0
 25 24  1  0  0  0  0
 26 24  1  0  0  0  0
 26 28  1  0  0  0  0
 27 26  1  0  0  0  0
 28 29  1  0  0  0  0
 28 30  2  0  0  0  0
M  END
>  <minimizedAffinity>
-4.7660203

$$$$

 OpenBabel03252501043D

 30 32  0  0  1  0  0  0  0  0999 V2000
   36.3800   28.6950   40.0260 C   0  0  1  0  0  0  0  0  0  0  0  0
   34.9680   29.0460   40.3110 C   0  0  0  0  0  0  0  0  0  0  0  0
   35.9730   30.0980   39.8580 C   0  0  1  0  0  0  0  0  0  0  0  0
   36.6300   28.1180   39.0920 H   0  0  0  0  0  0  0  0  0  0  0  0
   34.2110   28.6790   39.5840 H   0  0  0  0  0  0  0  0  0  0  0  0
   34.5820   29.2220   41.3120 H   0  0  0  0  0  0  0  0  0  0  0  0
   35.7460   30.4520   38.8320 H   0  0  0  0  0  0  0  0  0  0  0  0
   37.4370   27.6530   43.4990 C   0  0  0  0  0  0  0  0  0  0  0  0
   36.6110   27.9290   42.4010 C   0  0  0  0  0  0  0  0  0  0  0  0
   37.2150   28.3810   41.2220 C   0  0  0  0  0  0  0  0  0  0  0  0
   38.5680   28.5330   41.1860 N   0  0  0  0  0  0  0  0  0  0  0  0
   39.3480   28.2590   42.2600 C   0  0  0  0  0  0  0  0  0  0  0  0
   38.7730   27.8200   43.4120 N   0  0  0  0  0  0  0  0  0  0  0  0
   37.0870   27.3030   44.4530 H   0  0  0  0  0  0  0  0  0  0  0  0
   35.5530   27.7750   42.5250 H   0  0  0  0  0  0  0  0  0  0  0  0
   40.4290   28.3960   42.1850 H   0  0  0  0  0  0  0  0  0  0  0  0
   36.4960   31.0150   40.6830 O   0  0  0  0  0  0  0  0  0  0  0  0
   38.8950   32.1400   40.8100 O   0  0  0  0  0  0  0  0  0  0  0  0
   37.5640   32.1120   40.0920 P   0  0  2  0  0  0  0  0  0  0  0  0
   36.9900   33.7010   40.0910 O   0  0  0  0  0  0  0  0  0  0  0  0
   37.6070   34.2740   39.6020 H   0  0  0  0  0  0  0  0  0  0  0  0
   37.9380   31.7250   38.4920 O   0  0  0  0  0  0  0  0  0  0  0  0
   39.1120   31.0970   38.0960 C   0  0  0  0  0  0  0  0  0  0  0  0
   40.0210   31.9200   37.4350 C   0  0  0  0  0  0  0  0  0  0  0  0
   40.1080   32.9490   37.1150 H   0  0  0  0  0  0  0  0  0  0  0  0
   41.0970   31.1560   37.1240 N   0  0  0  0  0  0  0  0  0  0  0  0
   42.0240   31.2780   36.6440 H   0  0  0  0  0  0  0  0  0  0  0  0
   40.8800   29.9030   37.5670 C   0  0  0  0  0  0  0  0  0  0  0  0
   41.4170   28.9610   37.5640 H   0  0  0  0  0  0  0  0  0  0  0  0
   39.6650   29.8720   38.1600 N   0  0  0  0  0  0  0  0  0  0  0  0
  1  4  1  6  0  0  0
  1  2  1  0  0  0  0
  1 10  1  0  0  0  0
  2  6  1  0  0  0  0
  3  7  1  6  0  0  0
  3  1  1  0  0  0  0
  3  2  1  0  0  0  0
  3 17  1  0  0  0  0
  5  2  1  0  0  0  0
  8 14  1  0  0  0  0
  9 15  1  0  0  0  0
  9  8  2  0  0  0  0
 10  9  1  0  0  0  0
 11 10  2  0  0  0  0
 11 12  1  0  0  0  0
 12 13  2  0  0  0  0
 13  8  1  0  0  0  0
 16 12  1  0  0  0  0
 19 17  1  0  0  0  0
 19 18  2  1  0  0  0
 20 19  1  0  0  0  0
 21 20  1  0  0  0  0
 22 19  1  0  0  0  0
 23 30  1  0  0  0  0
 23 22  1  0  0  0  0
 24 23  2  0  0  0  0
 25 24  1  0  0  0  0
 26 24  1  0  0  0  0
 26 28  1  0  0  0  0
 27 26  1  0  0  0  0
 28 30  2  0  0  0  0
 29 28  1  0  0  0  0
M  END
>  <minimizedAffinity>
-4.7651

$$$$

 OpenBabel03252501043D

 30 32  0  0  1  0  0  0  0  0999 V2000
   39.8050   30.9330   42.7430 C   0  0  1  0  0  0  0  0  0  0  0  0
   41.2250   31.0750   42.3430 C   0  0  0  0  0  0  0  0  0  0  0  0
   40.0920   31.4440   41.3940 C   0  0  1  0  0  0  0  0  0  0  0  0
   39.3620   31.6580   43.4830 H   0  0  0  0  0  0  0  0  0  0  0  0
   41.7990   31.8910   42.8370 H   0  0  0  0  0  0  0  0  0  0  0  0
   41.8350   30.2490   41.9860 H   0  0  0  0  0  0  0  0  0  0  0  0
   40.0450   32.5400   41.2360 H   0  0  0  0  0  0  0  0  0  0  0  0
   39.6830   27.1620   42.8920 C   0  0  0  0  0  0  0  0  0  0  0  0
   40.2030   28.4600   42.8110 C   0  0  0  0  0  0  0  0  0  0  0  0
   39.3020   29.5310   42.8340 C   0  0  0  0  0  0  0  0  0  0  0  0
   37.9690   29.2750   42.9330 N   0  0  0  0  0  0  0  0  0  0  0  0
   37.4870   28.0110   43.0110 C   0  0  0  0  0  0  0  0  0  0  0  0
   38.3510   26.9610   42.9890 N   0  0  0  0  0  0  0  0  0  0  0  0
   40.2750   26.2650   42.8830 H   0  0  0  0  0  0  0  0  0  0  0  0
   41.2720   28.5620   42.7380 H   0  0  0  0  0  0  0  0  0  0  0  0
   36.4090   27.8520   43.0890 H   0  0  0  0  0  0  0  0  0  0  0  0
   39.7440   30.6920   40.3430 O   0  0  0  0  0  0  0  0  0  0  0  0
   40.2540   30.8900   37.7470 O   0  0  0  0  0  0  0  0  0  0  0  0
   39.4340   31.4170   38.9030 P   0  0  2  0  0  0  0  0  0  0  0  0
   39.6500   33.0930   38.9150 O   0  0  0  0  0  0  0  0  0  0  0  0
   39.3160   33.4740   38.0850 H   0  0  0  0  0  0  0  0  0  0  0  0
   37.8280   31.1330   38.4670 O   0  0  0  0  0  0  0  0  0  0  0  0
   36.8690   30.6050   39.3230 C   0  0  0  0  0  0  0  0  0  0  0  0
   36.5580   31.4070   40.4180 C   0  0  0  0  0  0  0  0  0  0  0  0
   36.8410   32.3630   40.8380 H   0  0  0  0  0  0  0  0  0  0  0  0
   35.6180   30.7480   41.1400 N   0  0  0  0  0  0  0  0  0  0  0  0
   35.0650   30.9020   42.0200 H   0  0  0  0  0  0  0  0  0  0  0  0
   35.3450   29.5790   40.5290 C   0  0  0  0  0  0  0  0  0  0  0  0
   34.6920   28.7320   40.7030 H   0  0  0  0  0  0  0  0  0  0  0  0
   36.1130   29.4970   39.4190 N   0  0  0  0  0  0  0  0  0  0  0  0
  1 10  1  0  0  0  0
  1  4  1  1  0  0  0
  2  1  1  0  0  0  0
  2  5  1  0  0  0  0
  3  7  1  6  0  0  0
  3  2  1  0  0  0  0
  3  1  1  0  0  0  0
  6  2  1  0  0  0  0
  8 13  1  0  0  0  0
  9 10  1  0  0  0  0
  9  8  2  0  0  0  0
 10 11  2  0  0  0  0
 11 12  1  0  0  0  0
 12 16  1  0  0  0  0
 13 12  2  0  0  0  0
 14  8  1  0  0  0  0
 15  9  1  0  0  0  0
 17  3  1  0  0  0  0
 19 18  2  6  0  0  0
 19 20  1  0  0  0  0
 19 17  1  0  0  0  0
 21 20  1  0  0  0  0
 22 19  1  0  0  0  0
 22 23  1  0  0  0  0
 23 30  1  0  0  0  0
 23 24  2  0  0  0  0
 24 25  1  0  0  0  0
 24 26  1  0  0  0  0
 26 27  1  0  0  0  0
 28 29  1  0  0  0  0
 28 26  1  0  0  0  0
 30 28  2  0  0  0  0
M  END
>  <minimizedAffinity>
-4.71763992

$$$$

 OpenBabel03252501043D

 30 32  0  0  1  0  0  0  0  0999 V2000
   37.7240   27.1600   38.9760 C   0  0  1  0  0  0  0  0  0  0  0  0
   36.4990   27.2640   38.1480 C   0  0  0  0  0  0  0  0  0  0  0  0
   36.9140   28.3820   39.0960 C   0  0  1  0  0  0  0  0  0  0  0  0
   38.7340   27.2600   38.4880 H   0  0  0  0  0  0  0  0  0  0  0  0
   36.6520   27.4040   37.0550 H   0  0  0  0  0  0  0  0  0  0  0  0
   35.5520   26.8020   38.4140 H   0  0  0  0  0  0  0  0  0  0  0  0
   37.2460   29.2790   38.5360 H   0  0  0  0  0  0  0  0  0  0  0  0
   38.4460   25.3600   42.2160 C   0  0  0  0  0  0  0  0  0  0  0  0
   38.5510   26.2940   41.1770 C   0  0  0  0  0  0  0  0  0  0  0  0
   37.6490   26.1940   40.1110 C   0  0  0  0  0  0  0  0  0  0  0  0
   36.7120   25.2060   40.1250 N   0  0  0  0  0  0  0  0  0  0  0  0
   36.6280   24.3140   41.1410 C   0  0  0  0  0  0  0  0  0  0  0  0
   37.4990   24.3980   42.1820 N   0  0  0  0  0  0  0  0  0  0  0  0
   39.0820   25.3360   43.0830 H   0  0  0  0  0  0  0  0  0  0  0  0
   39.3230   27.0400   41.2570 H   0  0  0  0  0  0  0  0  0  0  0  0
   35.8600   23.5370   41.1090 H   0  0  0  0  0  0  0  0  0  0  0  0
   36.2960   28.6220   40.2600 O   0  0  0  0  0  0  0  0  0  0  0  0
   37.2350   29.5100   42.5760 O   0  0  0  0  0  0  0  0  0  0  0  0
   36.7840   29.8880   41.1830 P   0  0  2  0  0  0  0  0  0  0  0  0
   35.6160   31.0950   41.3720 O   0  0  0  0  0  0  0  0  0  0  0  0
   36.0120   31.8720   41.8030 H   0  0  0  0  0  0  0  0  0  0  0  0
   38.1290   30.6170   40.4690 O   0  0  0  0  0  0  0  0  0  0  0  0
   38.4140   31.9740   40.5470 C   0  0  0  0  0  0  0  0  0  0  0  0
   39.6700   32.2800   41.0640 C   0  0  0  0  0  0  0  0  0  0  0  0
   40.5440   31.7690   41.4450 H   0  0  0  0  0  0  0  0  0  0  0  0
   39.7800   33.6320   41.0700 N   0  0  0  0  0  0  0  0  0  0  0  0
   40.4930   34.3520   41.3470 H   0  0  0  0  0  0  0  0  0  0  0  0
   38.6430   34.1600   40.5780 C   0  0  0  0  0  0  0  0  0  0  0  0
   38.2540   35.1530   40.3850 H   0  0  0  0  0  0  0  0  0  0  0  0
   37.8110   33.1430   40.2600 N   0  0  0  0  0  0  0  0  0  0  0  0
  1  4  1  6  0  0  0
  1  3  1  0  0  0  0
  1 10  1  0  0  0  0
  2  6  1  0  0  0  0
  2  1  1  0  0  0  0
  2  3  1  0  0  0  0
  3  7  1  6  0  0  0
  3 17  1  0  0  0  0
  5  2  1  0  0  0  0
  8 14  1  0  0  0  0
  9 15  1  0  0  0  0
  9  8  2  0  0  0  0
 10 11  2  0  0  0  0
 10  9  1  0  0  0  0
 11 12  1  0  0  0  0
 12 13  2  0  0  0  0
 13  8  1  0  0  0  0
 16 12  1  0  0  0  0
 17 19  1  0  0  0  0
 19 20  1  0  0  0  0
 19 18  2  1  0  0  0
 20 21  1  0  0  0  0
 22 23  1  0  0  0  0
 22 19  1  0  0  0  0
 23 24  2  0  0  0  0
 24 26  1  0  0  0  0
 24 25  1  0  0  0  0
 26 27  1  0  0  0  0
 28 26  1  0  0  0  0
 29 28  1  0  0  0  0
 30 23  1  0  0  0  0
 30 28  2  0  0  0  0
M  END
>  <minimizedAffinity>
-4.69073534

$$$$

 OpenBabel03252501043D

 30 32  0  0  1  0  0  0  0  0999 V2000
   36.8500   27.2510   43.1470 C   0  0  1  0  0  0  0  0  0  0  0  0
   37.6950   28.3780   43.6090 C   0  0  0  0  0  0  0  0  0  0  0  0
   36.8610   28.4790   42.3380 C   0  0  1  0  0  0  0  0  0  0  0  0
   35.8990   27.0080   43.6990 H   0  0  0  0  0  0  0  0  0  0  0  0
   37.3500   28.9120   44.5220 H   0  0  0  0  0  0  0  0  0  0  0  0
   38.7650   28.4410   43.4280 H   0  0  0  0  0  0  0  0  0  0  0  0
   36.0210   29.1910   42.4680 H   0  0  0  0  0  0  0  0  0  0  0  0
   37.6290   23.9480   41.4900 C   0  0  0  0  0  0  0  0  0  0  0  0
   36.8900   25.0290   41.9890 C   0  0  0  0  0  0  0  0  0  0  0  0
   37.5910   26.0800   42.5930 C   0  0  0  0  0  0  0  0  0  0  0  0
   38.9490   26.0140   42.6710 N   0  0  0  0  0  0  0  0  0  0  0  0
   39.6430   24.9590   42.1810 C   0  0  0  0  0  0  0  0  0  0  0  0
   38.9750   23.9310   41.5930 N   0  0  0  0  0  0  0  0  0  0  0  0
   37.2020   23.0870   41.0080 H   0  0  0  0  0  0  0  0  0  0  0  0
   35.8200   24.9930   41.8780 H   0  0  0  0  0  0  0  0  0  0  0  0
   40.7320   24.9490   42.2670 H   0  0  0  0  0  0  0  0  0  0  0  0
   37.3900   28.4260   41.1090 O   0  0  0  0  0  0  0  0  0  0  0  0
   35.8640   30.4980   40.4620 O   0  0  0  0  0  0  0  0  0  0  0  0
   36.8990   29.5080   39.9760 P   0  0  2  0  0  0  0  0  0  0  0  0
   36.2630   28.8010   38.5790 O   0  0  0  0  0  0  0  0  0  0  0  0
   36.1260   29.4820   37.8980 H   0  0  0  0  0  0  0  0  0  0  0  0
   38.2140   30.4490   39.4930 O   0  0  0  0  0  0  0  0  0  0  0  0
   38.4400   31.7510   39.9230 C   0  0  0  0  0  0  0  0  0  0  0  0
   39.1300   31.8580   41.1270 C   0  0  0  0  0  0  0  0  0  0  0  0
   39.5710   31.2150   41.8770 H   0  0  0  0  0  0  0  0  0  0  0  0
   39.2620   33.1810   41.3950 N   0  0  0  0  0  0  0  0  0  0  0  0
   39.6840   33.7830   42.1450 H   0  0  0  0  0  0  0  0  0  0  0  0
   38.6810   33.8830   40.4020 C   0  0  0  0  0  0  0  0  0  0  0  0
   38.5260   34.9280   40.1620 H   0  0  0  0  0  0  0  0  0  0  0  0
   38.1800   33.0040   39.5060 N   0  0  0  0  0  0  0  0  0  0  0  0
  1  2  1  0  0  0  0
  1  4  1  1  0  0  0
  2  5  1  0  0  0  0
  3  7  1  1  0  0  0
  3  1  1  0  0  0  0
  3  2  1  0  0  0  0
  6  2  1  0  0  0  0
  8 13  2  0  0  0  0
  8  9  1  0  0  0  0
  9 10  2  0  0  0  0
 10 11  1  0  0  0  0
 10  1  1  0  0  0  0
 12 16  1  0  0  0  0
 12 11  2  0  0  0  0
 13 12  1  0  0  0  0
 14  8  1  0  0  0  0
 15  9  1  0  0  0  0
 17  3  1  0  0  0  0
 19 18  2  1  0  0  0
 19 17  1  0  0  0  0
 20 19  1  0  0  0  0
 21 20  1  0  0  0  0
 22 23  1  0  0  0  0
 22 19  1  0  0  0  0
 23 24  2  0  0  0  0
 24 26  1  0  0  0  0
 24 25  1  0  0  0  0
 26 27  1  0  0  0  0
 28 26  1  0  0  0  0
 29 28  1  0  0  0  0
 30 23  1  0  0  0  0
 30 28  2  0  0  0  0
M  END
>  <minimizedAffinity>
-4.68657398

$$$$
