
 OpenBabel03252508093D

 43 46  0  0  0  0  0  0  0  0999 V2000
   37.6750   29.9490   37.4450 C   0  0  0  0  0  0  0  0  0  0  0  0
   37.9220   29.4750   38.7230 C   0  0  0  0  0  0  0  0  0  0  0  0
   36.8930   28.9700   39.4800 C   0  0  0  0  0  0  0  0  0  0  0  0
   35.6370   28.9620   38.9030 N   0  0  0  0  0  0  0  0  0  0  0  0
   35.4060   29.4180   37.6750 C   0  0  0  0  0  0  0  0  0  0  0  0
   36.4370   29.9110   36.9530 N   0  0  0  0  0  0  0  0  0  0  0  0
   38.4590   30.3550   36.8210 H   0  0  0  0  0  0  0  0  0  0  0  0
   34.4160   29.4040   37.2390 H   0  0  0  0  0  0  0  0  0  0  0  0
   36.9800   28.4530   40.7930 C   0  0  0  0  0  0  0  0  0  0  0  0
   37.1810   29.2380   41.9310 C   0  0  0  0  0  0  0  0  0  0  0  0
   37.3340   28.7350   43.1970 C   0  0  0  0  0  0  0  0  0  0  0  0
   37.2920   27.3750   43.3990 C   0  0  0  0  0  0  0  0  0  0  0  0
   37.0880   26.5560   42.2550 C   0  0  0  0  0  0  0  0  0  0  0  0
   37.0450   25.2000   42.4410 C   0  0  0  0  0  0  0  0  0  0  0  0
   36.8480   24.3470   41.3730 C   0  0  0  0  0  0  0  0  0  0  0  0
   36.6870   24.8850   40.0870 C   0  0  0  0  0  0  0  0  0  0  0  0
   36.7380   26.2840   39.9430 C   0  0  0  0  0  0  0  0  0  0  0  0
   36.9400   27.1010   41.0200 C   0  0  0  0  0  0  0  0  0  0  0  0
   37.2140   30.3130   41.7670 H   0  0  0  0  0  0  0  0  0  0  0  0
   37.4880   29.3750   44.0510 H   0  0  0  0  0  0  0  0  0  0  0  0
   37.4020   26.8820   44.3430 H   0  0  0  0  0  0  0  0  0  0  0  0
   37.1680   24.7590   43.4360 H   0  0  0  0  0  0  0  0  0  0  0  0
   36.8260   23.2760   41.5800 H   0  0  0  0  0  0  0  0  0  0  0  0
   36.5370   24.1480   39.3150 H   0  0  0  0  0  0  0  0  0  0  0  0
   36.5730   26.4940   38.9070 H   0  0  0  0  0  0  0  0  0  0  0  0
   39.2100   29.5350   39.1720 O   0  0  0  0  0  0  0  0  0  0  0  0
   40.2070   30.8190   41.2270 O   0  0  0  0  0  0  0  0  0  0  0  0
   39.9580   30.9320   39.7670 P   0  0  1  0  0  0  0  0  0  0  0  0
   41.4610   31.1800   39.0290 O   0  0  0  0  0  0  0  0  0  0  0  0
   41.8930   32.3980   38.5240 C   0  0  0  0  0  0  0  0  0  0  0  0
   41.7880   32.5520   37.1660 C   0  0  0  0  0  0  0  0  0  0  0  0
   41.4290   31.9170   36.3460 H   0  0  0  0  0  0  0  0  0  0  0  0
   42.2480   33.7840   36.8470 N   0  0  0  0  0  0  0  0  0  0  0  0
   42.3330   34.2720   35.9270 H   0  0  0  0  0  0  0  0  0  0  0  0
   42.6200   34.3480   38.0060 C   0  0  0  0  0  0  0  0  0  0  0  0
   43.0500   35.3320   38.2490 H   0  0  0  0  0  0  0  0  0  0  0  0
   42.4120   33.5150   39.0630 N   0  0  0  0  0  0  0  0  0  0  0  0
   38.9720   32.2450   39.4290 O   0  0  0  0  0  0  0  0  0  0  0  0
   38.2420   32.9950   40.3390 C   0  0  0  0  0  0  0  0  0  0  0  0
   39.0390   33.8480   40.7590 O   0  0  0  0  0  0  0  0  0  0  0  0
   36.8860   32.5020   40.4370 N   0  0  0  0  0  0  0  0  0  0  0  0
   36.3610   32.0600   41.2280 H   0  0  0  0  0  0  0  0  0  0  0  0
   36.2850   32.5900   39.5650 H   0  0  0  0  0  0  0  0  0  0  0  0
  1  2  1  0  0  0  0
  2 26  1  0  0  0  0
  2  3  2  0  0  0  0
  3  9  1  0  0  0  0
  4  3  1  0  0  0  0
  5  4  2  0  0  0  0
  6  1  2  0  0  0  0
  6  5  1  0  0  0  0
  7  1  1  0  0  0  0
  8  5  1  0  0  0  0
  9 18  2  0  0  0  0
  9 10  1  0  0  0  0
 10 11  2  0  0  0  0
 11 12  1  0  0  0  0
 11 20  1  0  0  0  0
 12 21  1  0  0  0  0
 13 14  1  0  0  0  0
 13 12  2  0  0  0  0
 14 22  1  0  0  0  0
 15 23  1  0  0  0  0
 15 14  2  0  0  0  0
 16 15  1  0  0  0  0
 17 16  2  0  0  0  0
 17 18  1  0  0  0  0
 18 13  1  0  0  0  0
 19 10  1  0  0  0  0
 24 16  1  0  0  0  0
 25 17  1  0  0  0  0
 26 28  1  0  0  0  0
 28 27  2  1  0  0  0
 29 28  1  0  0  0  0
 30 29  1  0  0  0  0
 30 37  1  0  0  0  0
 31 30  2  0  0  0  0
 32 31  1  0  0  0  0
 33 31  1  0  0  0  0
 33 35  1  0  0  0  0
 34 33  1  0  0  0  0
 35 36  1  0  0  0  0
 35 37  2  0  0  0  0
 38 28  1  0  0  0  0
 38 39  1  0  0  0  0
 39 41  1  0  0  0  0
 39 40  2  0  0  0  0
 41 42  1  0  0  0  0
 43 41  1  0  0  0  0
M  END
>  <minimizedAffinity>
-6.74869871

$$$$

 OpenBabel03252508093D

 43 46  0  0  0  0  0  0  0  0999 V2000
   42.3190   28.8410   40.6010 C   0  0  0  0  0  0  0  0  0  0  0  0
   40.9700   28.6320   40.8430 C   0  0  0  0  0  0  0  0  0  0  0  0
   40.5590   28.1420   42.0590 C   0  0  0  0  0  0  0  0  0  0  0  0
   41.5420   27.8820   42.9950 N   0  0  0  0  0  0  0  0  0  0  0  0
   42.8350   28.0860   42.7560 C   0  0  0  0  0  0  0  0  0  0  0  0
   43.2120   28.5670   41.5510 N   0  0  0  0  0  0  0  0  0  0  0  0
   42.6800   29.2230   39.6560 H   0  0  0  0  0  0  0  0  0  0  0  0
   43.5910   27.8770   43.5010 H   0  0  0  0  0  0  0  0  0  0  0  0
   39.2300   27.8740   42.4590 C   0  0  0  0  0  0  0  0  0  0  0  0
   38.4480   28.7520   43.2150 C   0  0  0  0  0  0  0  0  0  0  0  0
   37.1840   28.4690   43.6620 C   0  0  0  0  0  0  0  0  0  0  0  0
   36.6150   27.2510   43.3680 C   0  0  0  0  0  0  0  0  0  0  0  0
   37.3910   26.3420   42.6000 C   0  0  0  0  0  0  0  0  0  0  0  0
   36.8370   25.1250   42.3010 C   0  0  0  0  0  0  0  0  0  0  0  0
   37.5370   24.1950   41.5560 C   0  0  0  0  0  0  0  0  0  0  0  0
   38.8270   24.5110   41.1030 C   0  0  0  0  0  0  0  0  0  0  0  0
   39.3560   25.7720   41.4340 C   0  0  0  0  0  0  0  0  0  0  0  0
   38.6390   26.6690   42.1770 C   0  0  0  0  0  0  0  0  0  0  0  0
   38.9020   29.7140   43.4450 H   0  0  0  0  0  0  0  0  0  0  0  0
   36.6120   29.1750   44.2430 H   0  0  0  0  0  0  0  0  0  0  0  0
   35.6380   26.9310   43.6690 H   0  0  0  0  0  0  0  0  0  0  0  0
   35.8320   24.8590   42.6440 H   0  0  0  0  0  0  0  0  0  0  0  0
   37.0470   23.2430   41.3500 H   0  0  0  0  0  0  0  0  0  0  0  0
   39.2960   23.7290   40.5290 H   0  0  0  0  0  0  0  0  0  0  0  0
   40.3240   25.8290   40.9840 H   0  0  0  0  0  0  0  0  0  0  0  0
   40.1010   28.9340   39.8350 O   0  0  0  0  0  0  0  0  0  0  0  0
   40.6660   30.6560   37.9430 O   0  0  0  0  0  0  0  0  0  0  0  0
   39.8770   30.4820   39.1890 P   0  0  1  0  0  0  0  0  0  0  0  0
   38.2540   30.7460   38.7870 O   0  0  0  0  0  0  0  0  0  0  0  0
   37.1810   30.3810   39.5880 C   0  0  0  0  0  0  0  0  0  0  0  0
   36.7550   31.3300   40.4820 C   0  0  0  0  0  0  0  0  0  0  0  0
   37.0710   32.3520   40.7260 H   0  0  0  0  0  0  0  0  0  0  0  0
   35.7140   30.8140   41.1760 N   0  0  0  0  0  0  0  0  0  0  0  0
   35.1240   31.2190   41.9360 H   0  0  0  0  0  0  0  0  0  0  0  0
   35.5300   29.5760   40.6950 C   0  0  0  0  0  0  0  0  0  0  0  0
   34.8110   28.7810   40.9450 H   0  0  0  0  0  0  0  0  0  0  0  0
   36.4230   29.2770   39.7100 N   0  0  0  0  0  0  0  0  0  0  0  0
   40.3320   31.6090   40.3450 O   0  0  0  0  0  0  0  0  0  0  0  0
   40.5430   32.9650   40.1480 C   0  0  0  0  0  0  0  0  0  0  0  0
   41.4460   33.2650   40.9440 O   0  0  0  0  0  0  0  0  0  0  0  0
   39.6550   33.4770   39.1280 N   0  0  0  0  0  0  0  0  0  0  0  0
   38.8740   34.1740   39.1710 H   0  0  0  0  0  0  0  0  0  0  0  0
   39.7940   33.1010   38.1440 H   0  0  0  0  0  0  0  0  0  0  0  0
  1  2  2  0  0  0  0
  1  6  1  0  0  0  0
  2  3  1  0  0  0  0
  3  9  1  0  0  0  0
  3  4  2  0  0  0  0
  5  4  1  0  0  0  0
  5  8  1  0  0  0  0
  6  5  2  0  0  0  0
  7  1  1  0  0  0  0
  9 10  1  0  0  0  0
 10 19  1  0  0  0  0
 10 11  2  0  0  0  0
 11 20  1  0  0  0  0
 12 11  1  0  0  0  0
 12 21  1  0  0  0  0
 13 12  2  0  0  0  0
 14 13  1  0  0  0  0
 14 22  1  0  0  0  0
 15 14  2  0  0  0  0
 16 17  2  0  0  0  0
 16 15  1  0  0  0  0
 17 18  1  0  0  0  0
 18  9  2  0  0  0  0
 18 13  1  0  0  0  0
 23 15  1  0  0  0  0
 24 16  1  0  0  0  0
 25 17  1  0  0  0  0
 26  2  1  0  0  0  0
 28 27  2  6  0  0  0
 28 26  1  0  0  0  0
 28 38  1  0  0  0  0
 29 28  1  0  0  0  0
 29 30  1  0  0  0  0
 30 37  1  0  0  0  0
 30 31  2  0  0  0  0
 31 32  1  0  0  0  0
 31 33  1  0  0  0  0
 33 34  1  0  0  0  0
 35 36  1  0  0  0  0
 35 33  1  0  0  0  0
 37 35  2  0  0  0  0
 39 38  1  0  0  0  0
 39 40  2  0  0  0  0
 41 42  1  0  0  0  0
 41 39  1  0  0  0  0
 43 41  1  0  0  0  0
M  END
>  <minimizedAffinity>
-6.2459197

$$$$

 OpenBabel03252508093D

 43 46  0  0  0  0  0  0  0  0999 V2000
   37.1450   29.7210   37.2590 C   0  0  0  0  0  0  0  0  0  0  0  0
   37.5030   29.2660   38.5180 C   0  0  0  0  0  0  0  0  0  0  0  0
   36.5480   28.7420   39.3550 C   0  0  0  0  0  0  0  0  0  0  0  0
   35.2530   28.6950   38.8770 N   0  0  0  0  0  0  0  0  0  0  0  0
   34.9160   29.1330   37.6670 C   0  0  0  0  0  0  0  0  0  0  0  0
   35.8750   29.6460   36.8640 N   0  0  0  0  0  0  0  0  0  0  0  0
   37.8680   30.1410   36.5740 H   0  0  0  0  0  0  0  0  0  0  0  0
   33.8960   29.0890   37.3080 H   0  0  0  0  0  0  0  0  0  0  0  0
   36.7500   28.2400   40.6620 C   0  0  0  0  0  0  0  0  0  0  0  0
   36.9600   29.0440   41.7850 C   0  0  0  0  0  0  0  0  0  0  0  0
   37.2230   28.5610   43.0400 C   0  0  0  0  0  0  0  0  0  0  0  0
   37.2910   27.2030   43.2470 C   0  0  0  0  0  0  0  0  0  0  0  0
   37.0800   26.3650   42.1180 C   0  0  0  0  0  0  0  0  0  0  0  0
   37.1480   25.0100   42.3090 C   0  0  0  0  0  0  0  0  0  0  0  0
   36.9510   24.1390   41.2550 C   0  0  0  0  0  0  0  0  0  0  0  0
   36.6760   24.6560   39.9800 C   0  0  0  0  0  0  0  0  0  0  0  0
   36.6160   26.0540   39.8310 C   0  0  0  0  0  0  0  0  0  0  0  0
   36.8210   26.8900   40.8930 C   0  0  0  0  0  0  0  0  0  0  0  0
   36.9040   30.1180   41.6180 H   0  0  0  0  0  0  0  0  0  0  0  0
   37.3790   29.2160   43.8830 H   0  0  0  0  0  0  0  0  0  0  0  0
   37.4910   26.7240   44.1840 H   0  0  0  0  0  0  0  0  0  0  0  0
   37.3600   24.5850   43.2960 H   0  0  0  0  0  0  0  0  0  0  0  0
   37.0180   23.0710   41.4640 H   0  0  0  0  0  0  0  0  0  0  0  0
   36.5340   23.9050   39.2200 H   0  0  0  0  0  0  0  0  0  0  0  0
   36.3760   26.2460   38.8070 H   0  0  0  0  0  0  0  0  0  0  0  0
   38.8190   29.3640   38.8660 O   0  0  0  0  0  0  0  0  0  0  0  0
   40.8110   30.5440   40.0920 O   0  0  0  0  0  0  0  0  0  0  0  0
   39.6020   30.8090   39.2710 P   0  0  1  0  0  0  0  0  0  0  0  0
   40.1180   31.6310   37.8840 O   0  0  0  0  0  0  0  0  0  0  0  0
   41.3950   31.5380   37.3490 C   0  0  0  0  0  0  0  0  0  0  0  0
   42.1200   32.7030   37.3290 C   0  0  0  0  0  0  0  0  0  0  0  0
   41.9240   33.7340   37.6470 H   0  0  0  0  0  0  0  0  0  0  0  0
   43.3280   32.4350   36.7810 N   0  0  0  0  0  0  0  0  0  0  0  0
   44.1510   33.0490   36.5920 H   0  0  0  0  0  0  0  0  0  0  0  0
   43.3140   31.1270   36.4830 C   0  0  0  0  0  0  0  0  0  0  0  0
   44.0620   30.4610   36.0260 H   0  0  0  0  0  0  0  0  0  0  0  0
   42.1310   30.5430   36.8220 N   0  0  0  0  0  0  0  0  0  0  0  0
   38.5200   31.7840   40.1000 O   0  0  0  0  0  0  0  0  0  0  0  0
   38.6130   33.1530   40.2960 C   0  0  0  0  0  0  0  0  0  0  0  0
   37.4920   33.5940   39.9970 O   0  0  0  0  0  0  0  0  0  0  0  0
   39.9350   33.5150   40.7550 N   0  0  0  0  0  0  0  0  0  0  0  0
   40.6930   34.0900   40.3140 H   0  0  0  0  0  0  0  0  0  0  0  0
   40.2240   33.1490   41.7100 H   0  0  0  0  0  0  0  0  0  0  0  0
  1  2  1  0  0  0  0
  2 26  1  0  0  0  0
  2  3  2  0  0  0  0
  3  9  1  0  0  0  0
  4  3  1  0  0  0  0
  5  4  2  0  0  0  0
  6  1  2  0  0  0  0
  6  5  1  0  0  0  0
  7  1  1  0  0  0  0
  8  5  1  0  0  0  0
  9 18  2  0  0  0  0
  9 10  1  0  0  0  0
 10 11  2  0  0  0  0
 11 12  1  0  0  0  0
 11 20  1  0  0  0  0
 12 21  1  0  0  0  0
 13 14  1  0  0  0  0
 13 12  2  0  0  0  0
 14 22  1  0  0  0  0
 15 23  1  0  0  0  0
 15 14  2  0  0  0  0
 16 15  1  0  0  0  0
 17 16  2  0  0  0  0
 17 18  1  0  0  0  0
 18 13  1  0  0  0  0
 19 10  1  0  0  0  0
 24 16  1  0  0  0  0
 25 17  1  0  0  0  0
 26 28  1  0  0  0  0
 28 27  2  1  0  0  0
 28 38  1  0  0  0  0
 29 28  1  0  0  0  0
 30 29  1  0  0  0  0
 31 30  2  0  0  0  0
 31 32  1  0  0  0  0
 33 31  1  0  0  0  0
 34 33  1  0  0  0  0
 35 33  1  0  0  0  0
 35 37  2  0  0  0  0
 36 35  1  0  0  0  0
 37 30  1  0  0  0  0
 38 39  1  0  0  0  0
 39 41  1  0  0  0  0
 40 39  2  0  0  0  0
 41 43  1  0  0  0  0
 42 41  1  0  0  0  0
M  END
>  <minimizedAffinity>
-6.15514755

$$$$

 OpenBabel03252508093D

 43 46  0  0  0  0  0  0  0  0999 V2000
   41.7390   29.1990   39.8210 C   0  0  0  0  0  0  0  0  0  0  0  0
   40.4650   28.9080   40.2830 C   0  0  0  0  0  0  0  0  0  0  0  0
   40.2980   28.3200   41.5130 C   0  0  0  0  0  0  0  0  0  0  0  0
   41.4430   28.0480   42.2380 N   0  0  0  0  0  0  0  0  0  0  0  0
   42.6630   28.3300   41.7890 C   0  0  0  0  0  0  0  0  0  0  0  0
   42.7980   28.9070   40.5740 N   0  0  0  0  0  0  0  0  0  0  0  0
   41.9100   29.6590   38.8580 H   0  0  0  0  0  0  0  0  0  0  0  0
   43.5480   28.1100   42.3700 H   0  0  0  0  0  0  0  0  0  0  0  0
   39.0730   27.9620   42.1220 C   0  0  0  0  0  0  0  0  0  0  0  0
   38.3890   28.7690   43.0350 C   0  0  0  0  0  0  0  0  0  0  0  0
   37.2370   28.3970   43.6780 C   0  0  0  0  0  0  0  0  0  0  0  0
   36.6900   27.1580   43.4360 C   0  0  0  0  0  0  0  0  0  0  0  0
   37.3700   26.3210   42.5100 C   0  0  0  0  0  0  0  0  0  0  0  0
   36.8380   25.0830   42.2600 C   0  0  0  0  0  0  0  0  0  0  0  0
   37.4470   24.2200   41.3700 C   0  0  0  0  0  0  0  0  0  0  0  0
   38.6210   24.6250   40.7170 C   0  0  0  0  0  0  0  0  0  0  0  0
   39.1320   25.9040   41.0040 C   0  0  0  0  0  0  0  0  0  0  0  0
   38.5080   26.7330   41.8950 C   0  0  0  0  0  0  0  0  0  0  0  0
   38.8240   29.7480   43.2240 H   0  0  0  0  0  0  0  0  0  0  0  0
   36.7370   29.0490   44.3770 H   0  0  0  0  0  0  0  0  0  0  0  0
   35.7980   26.7720   43.8850 H   0  0  0  0  0  0  0  0  0  0  0  0
   35.9220   24.7480   42.7580 H   0  0  0  0  0  0  0  0  0  0  0  0
   36.9800   23.2480   41.2110 H   0  0  0  0  0  0  0  0  0  0  0  0
   39.0250   23.8900   40.0400 H   0  0  0  0  0  0  0  0  0  0  0  0
   40.0040   26.0320   40.4000 H   0  0  0  0  0  0  0  0  0  0  0  0
   39.4180   29.2330   39.4700 O   0  0  0  0  0  0  0  0  0  0  0  0
   38.7720   31.3460   40.8780 O   0  0  0  0  0  0  0  0  0  0  0  0
   38.5150   30.6590   39.5870 P   0  0  1  0  0  0  0  0  0  0  0  0
   38.9320   31.7480   38.3580 O   0  0  0  0  0  0  0  0  0  0  0  0
   40.2340   32.0950   38.0310 C   0  0  0  0  0  0  0  0  0  0  0  0
   40.7750   33.1300   38.7510 C   0  0  0  0  0  0  0  0  0  0  0  0
   40.4100   33.7760   39.5580 H   0  0  0  0  0  0  0  0  0  0  0  0
   42.0370   33.3340   38.3060 N   0  0  0  0  0  0  0  0  0  0  0  0
   42.7660   34.0230   38.5970 H   0  0  0  0  0  0  0  0  0  0  0  0
   42.2360   32.4300   37.3360 C   0  0  0  0  0  0  0  0  0  0  0  0
   43.0990   32.2140   36.6880 H   0  0  0  0  0  0  0  0  0  0  0  0
   41.1380   31.6470   37.1410 N   0  0  0  0  0  0  0  0  0  0  0  0
   36.8910   30.2720   39.4310 O   0  0  0  0  0  0  0  0  0  0  0  0
   36.0340   29.8520   40.4370 C   0  0  0  0  0  0  0  0  0  0  0  0
   35.8730   28.6390   40.2310 O   0  0  0  0  0  0  0  0  0  0  0  0
   35.6780   30.9570   41.2990 N   0  0  0  0  0  0  0  0  0  0  0  0
   34.7620   31.4300   41.4830 H   0  0  0  0  0  0  0  0  0  0  0  0
   36.4660   31.3910   41.8650 H   0  0  0  0  0  0  0  0  0  0  0  0
  1  2  2  0  0  0  0
  1  6  1  0  0  0  0
  2  3  1  0  0  0  0
  3  9  1  0  0  0  0
  3  4  2  0  0  0  0
  5  4  1  0  0  0  0
  5  8  1  0  0  0  0
  6  5  2  0  0  0  0
  7  1  1  0  0  0  0
  9 10  1  0  0  0  0
 10 19  1  0  0  0  0
 10 11  2  0  0  0  0
 11 20  1  0  0  0  0
 12 11  1  0  0  0  0
 12 21  1  0  0  0  0
 13 12  2  0  0  0  0
 14 13  1  0  0  0  0
 14 22  1  0  0  0  0
 15 14  2  0  0  0  0
 16 17  2  0  0  0  0
 16 15  1  0  0  0  0
 17 18  1  0  0  0  0
 18  9  2  0  0  0  0
 18 13  1  0  0  0  0
 23 15  1  0  0  0  0
 24 16  1  0  0  0  0
 25 17  1  0  0  0  0
 26 28  1  0  0  0  0
 26  2  1  0  0  0  0
 28 27  2  1  0  0  0
 29 28  1  0  0  0  0
 30 29  1  0  0  0  0
 30 31  2  0  0  0  0
 31 32  1  0  0  0  0
 33 34  1  0  0  0  0
 33 31  1  0  0  0  0
 35 33  1  0  0  0  0
 36 35  1  0  0  0  0
 37 35  2  0  0  0  0
 37 30  1  0  0  0  0
 38 28  1  0  0  0  0
 38 39  1  0  0  0  0
 39 41  1  0  0  0  0
 40 39  2  0  0  0  0
 41 42  1  0  0  0  0
 41 43  1  0  0  0  0
M  END
>  <minimizedAffinity>
-6.00357628

$$$$

 OpenBabel03252508093D

 43 46  0  0  0  0  0  0  0  0999 V2000
   37.9100   29.6660   37.6170 C   0  0  0  0  0  0  0  0  0  0  0  0
   38.0170   28.9920   38.8230 C   0  0  0  0  0  0  0  0  0  0  0  0
   36.8870   28.5320   39.4560 C   0  0  0  0  0  0  0  0  0  0  0  0
   35.6780   28.7740   38.8320 N   0  0  0  0  0  0  0  0  0  0  0  0
   35.5820   29.4210   37.6740 C   0  0  0  0  0  0  0  0  0  0  0  0
   36.7100   29.8640   37.0740 N   0  0  0  0  0  0  0  0  0  0  0  0
   38.7760   30.0430   37.0920 H   0  0  0  0  0  0  0  0  0  0  0  0
   34.6270   29.6020   37.2000 H   0  0  0  0  0  0  0  0  0  0  0  0
   36.8280   27.8330   40.6830 C   0  0  0  0  0  0  0  0  0  0  0  0
   36.7110   28.4510   41.9310 C   0  0  0  0  0  0  0  0  0  0  0  0
   36.7210   27.7810   43.1270 C   0  0  0  0  0  0  0  0  0  0  0  0
   36.8530   26.4120   43.1390 C   0  0  0  0  0  0  0  0  0  0  0  0
   36.9730   25.7620   41.8810 C   0  0  0  0  0  0  0  0  0  0  0  0
   37.1070   24.3980   41.8790 C   0  0  0  0  0  0  0  0  0  0  0  0
   37.2260   23.7030   40.6910 C   0  0  0  0  0  0  0  0  0  0  0  0
   37.2060   24.4100   39.4790 C   0  0  0  0  0  0  0  0  0  0  0  0
   37.0660   25.8090   39.5290 C   0  0  0  0  0  0  0  0  0  0  0  0
   36.9550   26.4680   40.7220 C   0  0  0  0  0  0  0  0  0  0  0  0
   36.6060   29.5340   41.9170 H   0  0  0  0  0  0  0  0  0  0  0  0
   36.6280   28.2960   44.0700 H   0  0  0  0  0  0  0  0  0  0  0  0
   36.8740   25.7960   44.0150 H   0  0  0  0  0  0  0  0  0  0  0  0
   37.1240   23.8280   42.8130 H   0  0  0  0  0  0  0  0  0  0  0  0
   37.3320   22.6200   40.7490 H   0  0  0  0  0  0  0  0  0  0  0  0
   37.3030   23.7880   38.6040 H   0  0  0  0  0  0  0  0  0  0  0  0
   37.0500   26.1550   38.5170 H   0  0  0  0  0  0  0  0  0  0  0  0
   39.2720   28.8140   39.3300 O   0  0  0  0  0  0  0  0  0  0  0  0
   40.9660   30.7860   39.6520 O   0  0  0  0  0  0  0  0  0  0  0  0
   40.0430   29.8860   40.3890 P   0  0  1  0  0  0  0  0  0  0  0  0
   38.9200   30.8730   41.1820 O   0  0  0  0  0  0  0  0  0  0  0  0
   38.5280   32.1270   40.7360 C   0  0  0  0  0  0  0  0  0  0  0  0
   37.2470   32.2170   40.2550 C   0  0  0  0  0  0  0  0  0  0  0  0
   36.4210   31.5050   40.1340 H   0  0  0  0  0  0  0  0  0  0  0  0
   37.0340   33.4950   39.8660 N   0  0  0  0  0  0  0  0  0  0  0  0
   36.1950   33.9590   39.4510 H   0  0  0  0  0  0  0  0  0  0  0  0
   38.1780   34.1500   40.1140 C   0  0  0  0  0  0  0  0  0  0  0  0
   38.4820   35.1970   39.9660 H   0  0  0  0  0  0  0  0  0  0  0  0
   39.1230   33.3300   40.6530 N   0  0  0  0  0  0  0  0  0  0  0  0
   40.8740   28.9890   41.5370 O   0  0  0  0  0  0  0  0  0  0  0  0
   40.4660   27.7980   42.1180 C   0  0  0  0  0  0  0  0  0  0  0  0
   40.2700   28.0780   43.3110 O   0  0  0  0  0  0  0  0  0  0  0  0
   40.4320   26.7360   41.1370 N   0  0  0  0  0  0  0  0  0  0  0  0
   40.9900   25.8540   41.0470 H   0  0  0  0  0  0  0  0  0  0  0  0
   39.7240   26.8370   40.3510 H   0  0  0  0  0  0  0  0  0  0  0  0
  1  2  1  0  0  0  0
  2 26  1  0  0  0  0
  2  3  2  0  0  0  0
  3  9  1  0  0  0  0
  4  3  1  0  0  0  0
  5  4  2  0  0  0  0
  6  1  2  0  0  0  0
  6  5  1  0  0  0  0
  7  1  1  0  0  0  0
  8  5  1  0  0  0  0
  9 18  2  0  0  0  0
  9 10  1  0  0  0  0
 10 11  2  0  0  0  0
 11 12  1  0  0  0  0
 11 20  1  0  0  0  0
 12 21  1  0  0  0  0
 13 12  2  0  0  0  0
 14 13  1  0  0  0  0
 14 22  1  0  0  0  0
 15 23  1  0  0  0  0
 15 14  2  0  0  0  0
 16 17  2  0  0  0  0
 16 15  1  0  0  0  0
 17 18  1  0  0  0  0
 18 13  1  0  0  0  0
 19 10  1  0  0  0  0
 24 16  1  0  0  0  0
 25 17  1  0  0  0  0
 26 28  1  0  0  0  0
 28 27  2  6  0  0  0
 28 29  1  0  0  0  0
 28 38  1  0  0  0  0
 30 29  1  0  0  0  0
 31 30  2  0  0  0  0
 32 31  1  0  0  0  0
 33 35  1  0  0  0  0
 33 31  1  0  0  0  0
 34 33  1  0  0  0  0
 35 37  2  0  0  0  0
 36 35  1  0  0  0  0
 37 30  1  0  0  0  0
 38 39  1  0  0  0  0
 39 40  2  0  0  0  0
 41 39  1  0  0  0  0
 42 41  1  0  0  0  0
 43 41  1  0  0  0  0
M  END
>  <minimizedAffinity>
-5.95762348

$$$$

 OpenBabel03252508093D

 43 46  0  0  0  0  0  0  0  0999 V2000
   34.0790   26.8250   36.2800 C   0  0  0  0  0  0  0  0  0  0  0  0
   33.6980   28.1400   36.0680 C   0  0  0  0  0  0  0  0  0  0  0  0
   32.4030   28.4310   35.7150 C   0  0  0  0  0  0  0  0  0  0  0  0
   31.5320   27.3650   35.5920 N   0  0  0  0  0  0  0  0  0  0  0  0
   31.9050   26.1040   35.7970 C   0  0  0  0  0  0  0  0  0  0  0  0
   33.1860   25.8460   36.1420 N   0  0  0  0  0  0  0  0  0  0  0  0
   35.0900   26.5570   36.5570 H   0  0  0  0  0  0  0  0  0  0  0  0
   31.2100   25.2810   35.6960 H   0  0  0  0  0  0  0  0  0  0  0  0
   31.8600   29.7120   35.4640 C   0  0  0  0  0  0  0  0  0  0  0  0
   32.0840   30.4410   34.2940 C   0  0  0  0  0  0  0  0  0  0  0  0
   31.6160   31.7110   34.0750 C   0  0  0  0  0  0  0  0  0  0  0  0
   30.8730   32.3400   35.0470 C   0  0  0  0  0  0  0  0  0  0  0  0
   30.6320   31.6170   36.2460 C   0  0  0  0  0  0  0  0  0  0  0  0
   29.8950   32.2310   37.2240 C   0  0  0  0  0  0  0  0  0  0  0  0
   29.6210   31.5850   38.4140 C   0  0  0  0  0  0  0  0  0  0  0  0
   30.1050   30.2830   38.6120 C   0  0  0  0  0  0  0  0  0  0  0  0
   30.8580   29.6900   37.5810 C   0  0  0  0  0  0  0  0  0  0  0  0
   31.1150   30.3590   36.4170 C   0  0  0  0  0  0  0  0  0  0  0  0
   32.6720   29.9410   33.5270 H   0  0  0  0  0  0  0  0  0  0  0  0
   31.8110   32.2410   33.1560 H   0  0  0  0  0  0  0  0  0  0  0  0
   30.4630   33.3270   34.9770 H   0  0  0  0  0  0  0  0  0  0  0  0
   29.5070   33.2470   37.0890 H   0  0  0  0  0  0  0  0  0  0  0  0
   29.0320   32.1230   39.1560 H   0  0  0  0  0  0  0  0  0  0  0  0
   29.8430   29.8550   39.5660 H   0  0  0  0  0  0  0  0  0  0  0  0
   31.1120   28.7050   37.9100 H   0  0  0  0  0  0  0  0  0  0  0  0
   34.6540   29.1000   36.2280 O   0  0  0  0  0  0  0  0  0  0  0  0
   36.5290   30.3890   37.5280 O   0  0  0  0  0  0  0  0  0  0  0  0
   35.8640   29.0670   37.4120 P   0  0  1  0  0  0  0  0  0  0  0  0
   35.2160   28.7050   38.9350 O   0  0  0  0  0  0  0  0  0  0  0  0
   35.9240   28.7880   40.1250 C   0  0  0  0  0  0  0  0  0  0  0  0
   35.8080   29.9710   40.8070 C   0  0  0  0  0  0  0  0  0  0  0  0
   35.2660   30.9080   40.6320 H   0  0  0  0  0  0  0  0  0  0  0  0
   36.5560   29.8810   41.9320 N   0  0  0  0  0  0  0  0  0  0  0  0
   36.7260   30.5640   42.7030 H   0  0  0  0  0  0  0  0  0  0  0  0
   37.1060   28.6580   41.9100 C   0  0  0  0  0  0  0  0  0  0  0  0
   37.7820   28.1350   42.6030 H   0  0  0  0  0  0  0  0  0  0  0  0
   36.7340   27.9560   40.8030 N   0  0  0  0  0  0  0  0  0  0  0  0
   36.9710   27.8750   37.0040 O   0  0  0  0  0  0  0  0  0  0  0  0
   37.8660   27.8980   35.9460 C   0  0  0  0  0  0  0  0  0  0  0  0
   38.7870   27.1420   36.2940 O   0  0  0  0  0  0  0  0  0  0  0  0
   37.3890   28.7630   34.8910 N   0  0  0  0  0  0  0  0  0  0  0  0
   37.7670   29.6590   34.5000 H   0  0  0  0  0  0  0  0  0  0  0  0
   36.4940   28.4660   34.4000 H   0  0  0  0  0  0  0  0  0  0  0  0
  1  7  1  0  0  0  0
  2 26  1  0  0  0  0
  2  1  2  0  0  0  0
  3  2  1  0  0  0  0
  4  3  2  0  0  0  0
  4  5  1  0  0  0  0
  5  6  2  0  0  0  0
  6  1  1  0  0  0  0
  8  5  1  0  0  0  0
  9  3  1  0  0  0  0
  9 18  1  0  0  0  0
 10  9  2  0  0  0  0
 11 10  1  0  0  0  0
 11 12  2  0  0  0  0
 12 13  1  0  0  0  0
 13 18  2  0  0  0  0
 13 14  1  0  0  0  0
 14 15  2  0  0  0  0
 15 16  1  0  0  0  0
 15 23  1  0  0  0  0
 16 24  1  0  0  0  0
 17 25  1  0  0  0  0
 17 16  2  0  0  0  0
 18 17  1  0  0  0  0
 19 10  1  0  0  0  0
 20 11  1  0  0  0  0
 21 12  1  0  0  0  0
 22 14  1  0  0  0  0
 26 28  1  0  0  0  0
 28 27  2  1  0  0  0
 28 29  1  0  0  0  0
 29 30  1  0  0  0  0
 30 37  1  0  0  0  0
 30 31  2  0  0  0  0
 31 33  1  0  0  0  0
 32 31  1  0  0  0  0
 33 34  1  0  0  0  0
 35 33  1  0  0  0  0
 35 36  1  0  0  0  0
 37 35  2  0  0  0  0
 38 28  1  0  0  0  0
 39 40  2  0  0  0  0
 39 38  1  0  0  0  0
 41 39  1  0  0  0  0
 42 41  1  0  0  0  0
 43 41  1  0  0  0  0
M  END
>  <minimizedAffinity>
-5.86337137

$$$$

 OpenBabel03252508093D

 43 46  0  0  0  0  0  0  0  0999 V2000
   38.0180   30.1200   37.7460 C   0  0  0  0  0  0  0  0  0  0  0  0
   38.1280   29.5560   39.0070 C   0  0  0  0  0  0  0  0  0  0  0  0
   37.0510   28.9130   39.5680 C   0  0  0  0  0  0  0  0  0  0  0  0
   35.8920   28.8630   38.8170 N   0  0  0  0  0  0  0  0  0  0  0  0
   35.7930   29.4060   37.6080 C   0  0  0  0  0  0  0  0  0  0  0  0
   36.8680   30.0350   37.0810 N   0  0  0  0  0  0  0  0  0  0  0  0
   38.8430   30.6360   37.2740 H   0  0  0  0  0  0  0  0  0  0  0  0
   34.8770   29.3580   37.0340 H   0  0  0  0  0  0  0  0  0  0  0  0
   37.0020   28.2910   40.8370 C   0  0  0  0  0  0  0  0  0  0  0  0
   37.0160   28.9860   42.0490 C   0  0  0  0  0  0  0  0  0  0  0  0
   37.0360   28.3850   43.2810 C   0  0  0  0  0  0  0  0  0  0  0  0
   37.0430   27.0120   43.3690 C   0  0  0  0  0  0  0  0  0  0  0  0
   37.0280   26.2850   42.1480 C   0  0  0  0  0  0  0  0  0  0  0  0
   37.0360   24.9170   42.2210 C   0  0  0  0  0  0  0  0  0  0  0  0
   37.0210   24.1490   41.0720 C   0  0  0  0  0  0  0  0  0  0  0  0
   36.9930   24.7870   39.8220 C   0  0  0  0  0  0  0  0  0  0  0  0
   36.9850   26.1930   39.7950 C   0  0  0  0  0  0  0  0  0  0  0  0
   37.0060   26.9250   40.9510 C   0  0  0  0  0  0  0  0  0  0  0  0
   37.0100   30.0710   41.9760 H   0  0  0  0  0  0  0  0  0  0  0  0
   37.0470   28.9570   44.1960 H   0  0  0  0  0  0  0  0  0  0  0  0
   37.0600   26.4460   44.2780 H   0  0  0  0  0  0  0  0  0  0  0  0
   37.0570   24.3990   43.1860 H   0  0  0  0  0  0  0  0  0  0  0  0
   37.0300   23.0650   41.1900 H   0  0  0  0  0  0  0  0  0  0  0  0
   36.9800   24.1110   38.9830 H   0  0  0  0  0  0  0  0  0  0  0  0
   36.9400   26.4830   38.7670 H   0  0  0  0  0  0  0  0  0  0  0  0
   39.3320   29.6720   39.6400 O   0  0  0  0  0  0  0  0  0  0  0  0
   39.3000   31.2990   41.6930 O   0  0  0  0  0  0  0  0  0  0  0  0
   39.9110   31.0920   40.3560 P   0  0  1  0  0  0  0  0  0  0  0  0
   41.5870   31.0180   40.5860 O   0  0  0  0  0  0  0  0  0  0  0  0
   42.3170   31.9440   41.3180 C   0  0  0  0  0  0  0  0  0  0  0  0
   42.4830   31.6560   42.6480 C   0  0  0  0  0  0  0  0  0  0  0  0
   42.1650   30.8340   43.3010 H   0  0  0  0  0  0  0  0  0  0  0  0
   43.2100   32.6530   43.2050 N   0  0  0  0  0  0  0  0  0  0  0  0
   43.5420   32.7990   44.1840 H   0  0  0  0  0  0  0  0  0  0  0  0
   43.4670   33.5180   42.2130 C   0  0  0  0  0  0  0  0  0  0  0  0
   44.0180   34.4700   42.1820 H   0  0  0  0  0  0  0  0  0  0  0  0
   42.9280   33.1080   41.0310 N   0  0  0  0  0  0  0  0  0  0  0  0
   39.5660   32.3770   39.3360 O   0  0  0  0  0  0  0  0  0  0  0  0
   40.4510   33.0320   38.4930 C   0  0  0  0  0  0  0  0  0  0  0  0
   40.6610   32.2310   37.5690 O   0  0  0  0  0  0  0  0  0  0  0  0
   40.7700   34.3450   39.0070 N   0  0  0  0  0  0  0  0  0  0  0  0
   41.6680   34.7580   39.3540 H   0  0  0  0  0  0  0  0  0  0  0  0
   39.9710   35.0450   39.0530 H   0  0  0  0  0  0  0  0  0  0  0  0
  1  2  1  0  0  0  0
  2  3  2  0  0  0  0
  2 26  1  0  0  0  0
  3  9  1  0  0  0  0
  4  3  1  0  0  0  0
  5  4  2  0  0  0  0
  6  5  1  0  0  0  0
  6  1  2  0  0  0  0
  7  1  1  0  0  0  0
  8  5  1  0  0  0  0
  9 18  2  0  0  0  0
  9 10  1  0  0  0  0
 10 11  2  0  0  0  0
 11 12  1  0  0  0  0
 11 20  1  0  0  0  0
 12 21  1  0  0  0  0
 13 14  1  0  0  0  0
 13 12  2  0  0  0  0
 14 22  1  0  0  0  0
 15 23  1  0  0  0  0
 15 14  2  0  0  0  0
 16 15  1  0  0  0  0
 17 16  2  0  0  0  0
 17 18  1  0  0  0  0
 18 13  1  0  0  0  0
 19 10  1  0  0  0  0
 24 16  1  0  0  0  0
 25 17  1  0  0  0  0
 26 28  1  0  0  0  0
 28 29  1  0  0  0  0
 28 27  2  1  0  0  0
 29 30  1  0  0  0  0
 30 31  2  0  0  0  0
 31 33  1  0  0  0  0
 31 32  1  0  0  0  0
 33 34  1  0  0  0  0
 35 33  1  0  0  0  0
 36 35  1  0  0  0  0
 37 30  1  0  0  0  0
 37 35  2  0  0  0  0
 38 28  1  0  0  0  0
 39 41  1  0  0  0  0
 39 38  1  0  0  0  0
 40 39  2  0  0  0  0
 41 43  1  0  0  0  0
 41 42  1  0  0  0  0
M  END
>  <minimizedAffinity>
-5.86044312

$$$$

 OpenBabel03252508093D

 43 46  0  0  0  0  0  0  0  0999 V2000
   36.9200   29.8920   37.5330 C   0  0  0  0  0  0  0  0  0  0  0  0
   37.1900   29.3450   38.7780 C   0  0  0  0  0  0  0  0  0  0  0  0
   36.3880   28.3500   39.2790 C   0  0  0  0  0  0  0  0  0  0  0  0
   35.3310   27.9400   38.4890 N   0  0  0  0  0  0  0  0  0  0  0  0
   35.0770   28.4690   37.2950 C   0  0  0  0  0  0  0  0  0  0  0  0
   35.8820   29.4480   36.8270 N   0  0  0  0  0  0  0  0  0  0  0  0
   37.5280   30.6780   37.1070 H   0  0  0  0  0  0  0  0  0  0  0  0
   34.2440   28.1350   36.6900 H   0  0  0  0  0  0  0  0  0  0  0  0
   36.5280   27.6940   40.5240 C   0  0  0  0  0  0  0  0  0  0  0  0
   36.3010   28.3050   41.7600 C   0  0  0  0  0  0  0  0  0  0  0  0
   36.5010   27.6930   42.9700 C   0  0  0  0  0  0  0  0  0  0  0  0
   36.9540   26.3940   43.0100 C   0  0  0  0  0  0  0  0  0  0  0  0
   37.1910   25.7530   41.7640 C   0  0  0  0  0  0  0  0  0  0  0  0
   37.6440   24.4600   41.7890 C   0  0  0  0  0  0  0  0  0  0  0  0
   37.8930   23.7770   40.6150 C   0  0  0  0  0  0  0  0  0  0  0  0
   37.6740   24.4220   39.3880 C   0  0  0  0  0  0  0  0  0  0  0  0
   37.2090   25.7490   39.4100 C   0  0  0  0  0  0  0  0  0  0  0  0
   36.9760   26.3990   40.5900 C   0  0  0  0  0  0  0  0  0  0  0  0
   35.9420   29.3310   41.7240 H   0  0  0  0  0  0  0  0  0  0  0  0
   36.3130   28.1990   43.9040 H   0  0  0  0  0  0  0  0  0  0  0  0
   37.1430   25.8280   43.8990 H   0  0  0  0  0  0  0  0  0  0  0  0
   37.8210   23.9380   42.7360 H   0  0  0  0  0  0  0  0  0  0  0  0
   38.2540   22.7510   40.6950 H   0  0  0  0  0  0  0  0  0  0  0  0
   37.8930   23.8140   38.5250 H   0  0  0  0  0  0  0  0  0  0  0  0
   37.0850   26.0510   38.3920 H   0  0  0  0  0  0  0  0  0  0  0  0
   38.2690   29.8370   39.4540 O   0  0  0  0  0  0  0  0  0  0  0  0
   36.8780   31.7690   40.5480 O   0  0  0  0  0  0  0  0  0  0  0  0
   38.2600   31.2510   40.3840 P   0  0  1  0  0  0  0  0  0  0  0  0
   38.8660   30.9620   41.9380 O   0  0  0  0  0  0  0  0  0  0  0  0
   39.8610   30.0400   42.2300 C   0  0  0  0  0  0  0  0  0  0  0  0
   41.1480   30.4640   42.0190 C   0  0  0  0  0  0  0  0  0  0  0  0
   41.5990   31.3980   41.6610 H   0  0  0  0  0  0  0  0  0  0  0  0
   41.9830   29.4520   42.3510 N   0  0  0  0  0  0  0  0  0  0  0  0
   43.0240   29.3820   42.3290 H   0  0  0  0  0  0  0  0  0  0  0  0
   41.1950   28.4430   42.7510 C   0  0  0  0  0  0  0  0  0  0  0  0
   41.4150   27.4260   43.1100 H   0  0  0  0  0  0  0  0  0  0  0  0
   39.8750   28.7760   42.6890 N   0  0  0  0  0  0  0  0  0  0  0  0
   39.2370   32.3860   39.6310 O   0  0  0  0  0  0  0  0  0  0  0  0
   39.6160   33.6220   40.1310 C   0  0  0  0  0  0  0  0  0  0  0  0
   40.5280   34.0030   39.3800 O   0  0  0  0  0  0  0  0  0  0  0  0
   38.8270   33.9680   41.2920 N   0  0  0  0  0  0  0  0  0  0  0  0
   39.0890   34.1040   42.2970 H   0  0  0  0  0  0  0  0  0  0  0  0
   37.7870   34.1180   41.1320 H   0  0  0  0  0  0  0  0  0  0  0  0
  1  2  1  0  0  0  0
  2  3  2  0  0  0  0
  2 26  1  0  0  0  0
  3  9  1  0  0  0  0
  4  3  1  0  0  0  0
  5  4  2  0  0  0  0
  6  5  1  0  0  0  0
  6  1  2  0  0  0  0
  7  1  1  0  0  0  0
  8  5  1  0  0  0  0
  9 18  2  0  0  0  0
  9 10  1  0  0  0  0
 10 11  2  0  0  0  0
 11 12  1  0  0  0  0
 11 20  1  0  0  0  0
 12 21  1  0  0  0  0
 13 14  1  0  0  0  0
 13 12  2  0  0  0  0
 14 22  1  0  0  0  0
 15 23  1  0  0  0  0
 15 14  2  0  0  0  0
 16 17  2  0  0  0  0
 16 15  1  0  0  0  0
 17 18  1  0  0  0  0
 18 13  1  0  0  0  0
 19 10  1  0  0  0  0
 24 16  1  0  0  0  0
 25 17  1  0  0  0  0
 26 28  1  0  0  0  0
 28 27  2  1  0  0  0
 28 29  1  0  0  0  0
 29 30  1  0  0  0  0
 30 37  1  0  0  0  0
 31 30  2  0  0  0  0
 31 33  1  0  0  0  0
 32 31  1  0  0  0  0
 33 35  1  0  0  0  0
 34 33  1  0  0  0  0
 35 36  1  0  0  0  0
 37 35  2  0  0  0  0
 38 39  1  0  0  0  0
 38 28  1  0  0  0  0
 39 41  1  0  0  0  0
 40 39  2  0  0  0  0
 41 42  1  0  0  0  0
 43 41  1  0  0  0  0
M  END
>  <minimizedAffinity>
-5.84326124

$$$$

 OpenBabel03252508093D

 43 46  0  0  0  0  0  0  0  0999 V2000
   42.4540   27.9630   40.0040 C   0  0  0  0  0  0  0  0  0  0  0  0
   41.1050   27.9030   40.3170 C   0  0  0  0  0  0  0  0  0  0  0  0
   40.7080   27.5380   41.5810 C   0  0  0  0  0  0  0  0  0  0  0  0
   41.7070   27.2460   42.4900 N   0  0  0  0  0  0  0  0  0  0  0  0
   43.0000   27.3060   42.1840 C   0  0  0  0  0  0  0  0  0  0  0  0
   43.3620   27.6660   40.9330 N   0  0  0  0  0  0  0  0  0  0  0  0
   42.8030   28.2440   39.0210 H   0  0  0  0  0  0  0  0  0  0  0  0
   43.7680   27.0730   42.9090 H   0  0  0  0  0  0  0  0  0  0  0  0
   39.3810   27.4290   42.0550 C   0  0  0  0  0  0  0  0  0  0  0  0
   38.7250   28.4270   42.7810 C   0  0  0  0  0  0  0  0  0  0  0  0
   37.4630   28.2980   43.3000 C   0  0  0  0  0  0  0  0  0  0  0  0
   36.7660   27.1280   43.1140 C   0  0  0  0  0  0  0  0  0  0  0  0
   37.4130   26.0990   42.3770 C   0  0  0  0  0  0  0  0  0  0  0  0
   36.7300   24.9270   42.1850 C   0  0  0  0  0  0  0  0  0  0  0  0
   37.3000   23.8870   41.4760 C   0  0  0  0  0  0  0  0  0  0  0  0
   38.5910   24.0440   40.9480 C   0  0  0  0  0  0  0  0  0  0  0  0
   39.2540   25.2650   41.1690 C   0  0  0  0  0  0  0  0  0  0  0  0
   38.6640   26.2730   41.8800 C   0  0  0  0  0  0  0  0  0  0  0  0
   39.2800   29.3520   42.9270 H   0  0  0  0  0  0  0  0  0  0  0  0
   36.9910   29.0930   43.8570 H   0  0  0  0  0  0  0  0  0  0  0  0
   35.7790   26.9260   43.4780 H   0  0  0  0  0  0  0  0  0  0  0  0
   35.7220   24.7840   42.5880 H   0  0  0  0  0  0  0  0  0  0  0  0
   36.7120   22.9770   41.3560 H   0  0  0  0  0  0  0  0  0  0  0  0
   38.9540   23.1840   40.4090 H   0  0  0  0  0  0  0  0  0  0  0  0
   40.2000   25.1970   40.6760 H   0  0  0  0  0  0  0  0  0  0  0  0
   40.2200   28.2220   39.3280 O   0  0  0  0  0  0  0  0  0  0  0  0
   38.7200   29.7930   37.8630 O   0  0  0  0  0  0  0  0  0  0  0  0
   39.7910   29.8000   38.8910 P   0  0  1  0  0  0  0  0  0  0  0  0
   39.1920   30.6590   40.2220 O   0  0  0  0  0  0  0  0  0  0  0  0
   38.6870   31.9500   40.1560 C   0  0  0  0  0  0  0  0  0  0  0  0
   37.3230   32.0620   40.2380 C   0  0  0  0  0  0  0  0  0  0  0  0
   36.4990   31.3460   40.3480 H   0  0  0  0  0  0  0  0  0  0  0  0
   37.0050   33.3750   40.1570 N   0  0  0  0  0  0  0  0  0  0  0  0
   36.0820   33.8630   40.1800 H   0  0  0  0  0  0  0  0  0  0  0  0
   38.1700   34.0270   40.0290 C   0  0  0  0  0  0  0  0  0  0  0  0
   38.4160   35.0950   39.9300 H   0  0  0  0  0  0  0  0  0  0  0  0
   39.2310   33.1720   40.0250 N   0  0  0  0  0  0  0  0  0  0  0  0
   41.1610   30.5830   38.3220 O   0  0  0  0  0  0  0  0  0  0  0  0
   41.7600   30.4180   37.0830 C   0  0  0  0  0  0  0  0  0  0  0  0
   42.4080   31.4600   36.9020 O   0  0  0  0  0  0  0  0  0  0  0  0
   41.4040   29.1390   36.5090 N   0  0  0  0  0  0  0  0  0  0  0  0
   40.8530   28.8880   35.6540 H   0  0  0  0  0  0  0  0  0  0  0  0
   41.7480   28.2750   37.0230 H   0  0  0  0  0  0  0  0  0  0  0  0
  1  2  2  0  0  0  0
  1  6  1  0  0  0  0
  2  3  1  0  0  0  0
  3  9  1  0  0  0  0
  3  4  2  0  0  0  0
  5  4  1  0  0  0  0
  5  8  1  0  0  0  0
  6  5  2  0  0  0  0
  7  1  1  0  0  0  0
  9 10  1  0  0  0  0
 10 19  1  0  0  0  0
 10 11  2  0  0  0  0
 11 20  1  0  0  0  0
 12 11  1  0  0  0  0
 12 21  1  0  0  0  0
 13 12  2  0  0  0  0
 14 13  1  0  0  0  0
 14 22  1  0  0  0  0
 15 14  2  0  0  0  0
 16 17  2  0  0  0  0
 16 15  1  0  0  0  0
 17 18  1  0  0  0  0
 18  9  2  0  0  0  0
 18 13  1  0  0  0  0
 23 15  1  0  0  0  0
 24 16  1  0  0  0  0
 25 17  1  0  0  0  0
 26  2  1  0  0  0  0
 28 27  2  6  0  0  0
 28 26  1  0  0  0  0
 28 29  1  0  0  0  0
 30 29  1  0  0  0  0
 30 31  2  0  0  0  0
 31 32  1  0  0  0  0
 33 34  1  0  0  0  0
 33 31  1  0  0  0  0
 35 33  1  0  0  0  0
 36 35  1  0  0  0  0
 37 35  2  0  0  0  0
 37 30  1  0  0  0  0
 38 28  1  0  0  0  0
 39 38  1  0  0  0  0
 40 39  2  0  0  0  0
 41 43  1  0  0  0  0
 41 39  1  0  0  0  0
 42 41  1  0  0  0  0
M  END
>  <minimizedAffinity>
-5.81099129

$$$$
