
 OpenBabel03252506123D

 35 37  0  0  0  0  0  0  0  0999 V2000
   45.1120   33.4260   41.1910 F   0  0  0  0  0  0  0  0  0  0  0  0
   46.2980   34.0230   41.0550 C   0  0  0  0  0  0  0  0  0  0  0  0
   46.8030   34.7690   42.0990 C   0  0  0  0  0  0  0  0  0  0  0  0
   48.0360   35.4240   42.0420 C   0  0  0  0  0  0  0  0  0  0  0  0
   48.7990   35.3260   40.8780 C   0  0  0  0  0  0  0  0  0  0  0  0
   48.2580   34.5680   39.8540 C   0  0  0  0  0  0  0  0  0  0  0  0
   47.0610   33.9270   39.8970 C   0  0  0  0  0  0  0  0  0  0  0  0
   48.3630   35.9900   42.9020 H   0  0  0  0  0  0  0  0  0  0  0  0
   49.7380   35.8460   40.8800 H   0  0  0  0  0  0  0  0  0  0  0  0
   48.9540   34.5700   39.0200 H   0  0  0  0  0  0  0  0  0  0  0  0
   45.4440   34.0270   45.4260 C   0  0  0  0  0  0  0  0  0  0  0  0
   44.6130   35.1510   45.6570 C   0  0  0  0  0  0  0  0  0  0  0  0
   44.5280   36.1570   44.6640 C   0  0  0  0  0  0  0  0  0  0  0  0
   45.2670   35.9690   43.5300 N   0  0  0  0  0  0  0  0  0  0  0  0
   46.0390   34.8970   43.3450 C   0  0  0  0  0  0  0  0  0  0  0  0
   46.1240   33.9400   44.2840 N   0  0  0  0  0  0  0  0  0  0  0  0
   44.0480   35.2650   46.5570 H   0  0  0  0  0  0  0  0  0  0  0  0
   43.9020   37.0270   44.8100 H   0  0  0  0  0  0  0  0  0  0  0  0
   45.5190   33.0310   46.4280 N   0  0  0  0  0  0  0  0  0  0  0  0
   45.4630   31.9770   46.2900 H   0  0  0  0  0  0  0  0  0  0  0  0
   45.6450   33.3360   47.4390 H   0  0  0  0  0  0  0  0  0  0  0  0
   46.6220   33.2050   38.8230 O   0  0  0  0  0  0  0  0  0  0  0  0
   48.0040   34.5800   37.0320 O   0  0  0  0  0  0  0  0  0  0  0  0
   47.1550   33.3530   37.2370 P   0  0  2  0  0  0  0  0  0  0  0  0
   45.7690   33.4180   36.2250 O   0  0  0  0  0  0  0  0  0  0  0  0
   45.4520   32.4850   36.0440 H   0  0  0  0  0  0  0  0  0  0  0  0
   48.0130   32.0070   36.6840 O   0  0  0  0  0  0  0  0  0  0  0  0
   49.3670   31.7910   36.9040 C   0  0  0  0  0  0  0  0  0  0  0  0
   50.1380   31.2340   35.9030 C   0  0  0  0  0  0  0  0  0  0  0  0
   49.9420   30.8880   34.8920 H   0  0  0  0  0  0  0  0  0  0  0  0
   51.4060   31.1390   36.3840 N   0  0  0  0  0  0  0  0  0  0  0  0
   52.3220   30.7810   35.9840 H   0  0  0  0  0  0  0  0  0  0  0  0
   51.4420   31.6150   37.6390 C   0  0  0  0  0  0  0  0  0  0  0  0
   52.1480   31.7680   38.4420 H   0  0  0  0  0  0  0  0  0  0  0  0
   50.1850   32.0220   37.9730 N   0  0  0  0  0  0  0  0  0  0  0  0
  2  1  1  0  0  0  0
  2  3  1  0  0  0  0
  3 15  1  0  0  0  0
  4  3  2  0  0  0  0
  4  8  1  0  0  0  0
  5  9  1  0  0  0  0
  5  4  1  0  0  0  0
  6  7  1  0  0  0  0
  6  5  2  0  0  0  0
  7  2  2  0  0  0  0
 10  6  1  0  0  0  0
 11 12  1  0  0  0  0
 11 19  1  0  0  0  0
 12 17  1  0  0  0  0
 13 18  1  0  0  0  0
 13 12  2  0  0  0  0
 14 13  1  0  0  0  0
 15 14  2  0  0  0  0
 15 16  1  0  0  0  0
 16 11  2  0  0  0  0
 19 21  1  0  0  0  0
 20 19  1  0  0  0  0
 22  7  1  0  0  0  0
 24 23  2  6  0  0  0
 24 22  1  0  0  0  0
 25 24  1  0  0  0  0
 26 25  1  0  0  0  0
 27 28  1  0  0  0  0
 27 24  1  0  0  0  0
 28 35  1  0  0  0  0
 29 31  1  0  0  0  0
 29 28  2  0  0  0  0
 30 29  1  0  0  0  0
 31 33  1  0  0  0  0
 32 31  1  0  0  0  0
 33 35  2  0  0  0  0
 33 34  1  0  0  0  0
M  END
>  <minimizedAffinity>
-6.3953371

>  <minimizedRMSD>
0.997792125

$$$$
