
 OpenBabel03252506463D

 41 44  0  0  1  0  0  0  0  0999 V2000
   49.5990   33.6340   41.2750 N   0  0  1  0  0  0  0  0  0  0  0  0
   50.6370   32.9630   42.0150 C   0  0  0  0  0  0  0  0  0  0  0  0
   51.1030   31.6970   41.3490 C   0  0  0  0  0  0  0  0  0  0  0  0
   49.9780   30.6830   41.4230 C   0  0  0  0  0  0  0  0  0  0  0  0
   48.6470   31.3540   41.2140 C   0  0  0  0  0  0  0  0  0  0  0  0
   48.8630   32.6760   40.5230 C   0  0  2  0  0  0  0  0  0  0  0  0
   51.4810   33.6470   42.1810 H   0  0  0  0  0  0  0  0  0  0  0  0
   50.2510   32.6770   43.0340 H   0  0  0  0  0  0  0  0  0  0  0  0
   51.5100   31.8410   40.3520 H   0  0  0  0  0  0  0  0  0  0  0  0
   51.9150   31.2970   41.9860 H   0  0  0  0  0  0  0  0  0  0  0  0
   50.1900   29.9150   40.6470 H   0  0  0  0  0  0  0  0  0  0  0  0
   50.0100   30.1850   42.4150 H   0  0  0  0  0  0  0  0  0  0  0  0
   47.9560   30.7730   40.5960 H   0  0  0  0  0  0  0  0  0  0  0  0
   48.2320   31.5860   42.2230 H   0  0  0  0  0  0  0  0  0  0  0  0
   47.8390   33.1180   40.3720 H   0  0  0  0  0  0  0  0  0  0  0  0
   47.4140   34.8230   41.9600 C   0  0  1  0  0  0  0  0  0  0  0  0
   48.5310   35.7960   41.8580 C   0  0  0  0  0  0  0  0  0  0  0  0
   48.8090   34.3770   42.2000 C   0  0  2  0  0  0  0  0  0  0  0  0
   46.9160   34.5840   40.9840 H   0  0  0  0  0  0  0  0  0  0  0  0
   48.8350   36.1600   40.8390 H   0  0  0  0  0  0  0  0  0  0  0  0
   48.6130   36.5930   42.6230 H   0  0  0  0  0  0  0  0  0  0  0  0
   49.0550   34.1770   43.2740 H   0  0  0  0  0  0  0  0  0  0  0  0
   45.5270   35.9620   43.1700 C   0  0  0  0  0  0  0  0  0  0  0  0
   46.4720   34.9350   43.0800 C   0  0  0  0  0  0  0  0  0  0  0  0
   46.4770   33.9830   44.1160 C   0  0  0  0  0  0  0  0  0  0  0  0
   45.5850   34.0990   45.1340 N   0  0  0  0  0  0  0  0  0  0  0  0
   44.6860   35.1160   45.1750 C   0  0  0  0  0  0  0  0  0  0  0  0
   44.6490   36.0540   44.1940 N   0  0  0  0  0  0  0  0  0  0  0  0
   45.5490   36.6840   42.3500 H   0  0  0  0  0  0  0  0  0  0  0  0
   47.1930   33.1680   44.0950 H   0  0  0  0  0  0  0  0  0  0  0  0
   44.0040   35.1590   46.0120 H   0  0  0  0  0  0  0  0  0  0  0  0
   49.3650   32.4400   39.1810 N   0  0  0  0  0  0  0  0  0  0  0  0
   50.1450   31.8820   38.7100 H   0  0  0  0  0  0  0  0  0  0  0  0
   48.5330   33.1930   38.2680 C   0  0  0  0  0  0  0  0  0  0  0  0
   48.5050   34.3690   37.5490 C   0  0  0  0  0  0  0  0  0  0  0  0
   49.3660   34.9750   37.6780 H   0  0  0  0  0  0  0  0  0  0  0  0
   47.3550   34.4290   36.8590 N   0  0  0  0  0  0  0  0  0  0  0  0
   47.1550   35.2590   36.2500 H   0  0  0  0  0  0  0  0  0  0  0  0
   46.6270   33.3250   37.1050 C   0  0  0  0  0  0  0  0  0  0  0  0
   45.6640   33.1910   36.6360 H   0  0  0  0  0  0  0  0  0  0  0  0
   47.3560   32.5650   37.9730 N   0  0  0  0  0  0  0  0  0  0  0  0
  1  2  1  1  0  0  0
  1 18  1  0  0  0  0
  2  7  1  0  0  0  0
  2  8  1  0  0  0  0
  3  4  1  0  0  0  0
  3 10  1  0  0  0  0
  3  2  1  0  0  0  0
  4 12  1  0  0  0  0
  5  4  1  0  0  0  0
  5 14  1  0  0  0  0
  6 15  1  6  0  0  0
  6  5  1  0  0  0  0
  6  1  1  0  0  0  0
  9  3  1  0  0  0  0
 11  4  1  0  0  0  0
 13  5  1  0  0  0  0
 16 19  1  6  0  0  0
 16 18  1  0  0  0  0
 16 24  1  0  0  0  0
 17 16  1  0  0  0  0
 17 18  1  0  0  0  0
 17 21  1  0  0  0  0
 18 22  1  1  0  0  0
 20 17  1  0  0  0  0
 23 28  1  0  0  0  0
 24 23  2  0  0  0  0
 24 25  1  0  0  0  0
 25 26  2  0  0  0  0
 26 27  1  0  0  0  0
 27 31  1  0  0  0  0
 28 27  2  0  0  0  0
 29 23  1  0  0  0  0
 30 25  1  0  0  0  0
 32  6  1  0  0  0  0
 33 32  1  0  0  0  0
 34 32  1  0  0  0  0
 35 36  1  0  0  0  0
 35 34  2  0  0  0  0
 37 39  1  0  0  0  0
 37 35  1  0  0  0  0
 38 37  1  0  0  0  0
 39 41  2  0  0  0  0
 40 39  1  0  0  0  0
 41 34  1  0  0  0  0
M  END
>  <minimizedAffinity>
-5.64539289

>  <minimizedRMSD>
2.90337968

$$$$
