
 OpenBabel03252506463D

 41 44  0  0  1  0  0  0  0  0999 V2000
   49.4770   33.5110   41.2420 N   0  0  1  0  0  0  0  0  0  0  0  0
   50.5820   32.9310   41.9610 C   0  0  0  0  0  0  0  0  0  0  0  0
   51.0510   31.6340   41.3620 C   0  0  0  0  0  0  0  0  0  0  0  0
   49.9710   30.5940   41.5830 C   0  0  0  0  0  0  0  0  0  0  0  0
   48.6060   31.2050   41.4100 C   0  0  0  0  0  0  0  0  0  0  0  0
   48.7310   32.4770   40.6110 C   0  0  2  0  0  0  0  0  0  0  0  0
   51.4090   33.6520   42.0230 H   0  0  0  0  0  0  0  0  0  0  0  0
   50.2700   32.7120   43.0220 H   0  0  0  0  0  0  0  0  0  0  0  0
   51.3910   31.7150   40.3340 H   0  0  0  0  0  0  0  0  0  0  0  0
   51.9150   31.3090   41.9740 H   0  0  0  0  0  0  0  0  0  0  0  0
   50.1620   29.7760   40.8530 H   0  0  0  0  0  0  0  0  0  0  0  0
   50.0810   30.1730   42.6040 H   0  0  0  0  0  0  0  0  0  0  0  0
   47.9000   30.5570   40.8820 H   0  0  0  0  0  0  0  0  0  0  0  0
   48.2460   31.4990   42.4240 H   0  0  0  0  0  0  0  0  0  0  0  0
   47.6850   32.8740   40.4940 H   0  0  0  0  0  0  0  0  0  0  0  0
   47.3330   34.7740   41.9250 C   0  0  1  0  0  0  0  0  0  0  0  0
   48.4740   35.7150   41.7860 C   0  0  0  0  0  0  0  0  0  0  0  0
   48.7190   34.2970   42.1590 C   0  0  2  0  0  0  0  0  0  0  0  0
   46.8160   34.5260   40.9610 H   0  0  0  0  0  0  0  0  0  0  0  0
   48.7740   36.0450   40.7540 H   0  0  0  0  0  0  0  0  0  0  0  0
   48.5870   36.5270   42.5300 H   0  0  0  0  0  0  0  0  0  0  0  0
   48.9740   34.1170   43.2340 H   0  0  0  0  0  0  0  0  0  0  0  0
   45.4950   35.9950   43.1310 C   0  0  0  0  0  0  0  0  0  0  0  0
   46.4090   34.9390   43.0520 C   0  0  0  0  0  0  0  0  0  0  0  0
   46.3990   34.0100   44.1090 C   0  0  0  0  0  0  0  0  0  0  0  0
   45.5240   34.1740   45.1350 N   0  0  0  0  0  0  0  0  0  0  0  0
   44.6560   35.2180   45.1640 C   0  0  0  0  0  0  0  0  0  0  0  0
   44.6330   36.1340   44.1630 N   0  0  0  0  0  0  0  0  0  0  0  0
   45.5280   36.6970   42.2950 H   0  0  0  0  0  0  0  0  0  0  0  0
   47.0910   33.1740   44.0980 H   0  0  0  0  0  0  0  0  0  0  0  0
   43.9860   35.2990   46.0070 H   0  0  0  0  0  0  0  0  0  0  0  0
   49.1580   32.1550   39.2610 N   0  0  0  0  0  0  0  0  0  0  0  0
   49.8380   31.4840   38.7790 H   0  0  0  0  0  0  0  0  0  0  0  0
   48.4200   33.0100   38.3570 C   0  0  0  0  0  0  0  0  0  0  0  0
   48.4920   34.2290   37.7180 C   0  0  0  0  0  0  0  0  0  0  0  0
   49.3740   34.7790   37.9350 H   0  0  0  0  0  0  0  0  0  0  0  0
   47.3900   34.3960   36.9730 N   0  0  0  0  0  0  0  0  0  0  0  0
   47.2680   35.2730   36.4110 H   0  0  0  0  0  0  0  0  0  0  0  0
   46.5950   33.3210   37.1020 C   0  0  0  0  0  0  0  0  0  0  0  0
   45.6560   33.2680   36.5740 H   0  0  0  0  0  0  0  0  0  0  0  0
   47.2330   32.4670   37.9560 N   0  0  0  0  0  0  0  0  0  0  0  0
  1  2  1  1  0  0  0
  1 18  1  0  0  0  0
  2  7  1  0  0  0  0
  2  8  1  0  0  0  0
  3  4  1  0  0  0  0
  3  2  1  0  0  0  0
  3 10  1  0  0  0  0
  4 12  1  0  0  0  0
  5  4  1  0  0  0  0
  5 14  1  0  0  0  0
  6 15  1  6  0  0  0
  6  1  1  0  0  0  0
  6  5  1  0  0  0  0
  9  3  1  0  0  0  0
 11  4  1  0  0  0  0
 13  5  1  0  0  0  0
 16 19  1  6  0  0  0
 16 18  1  0  0  0  0
 16 24  1  0  0  0  0
 17 16  1  0  0  0  0
 17 18  1  0  0  0  0
 17 21  1  0  0  0  0
 18 22  1  1  0  0  0
 20 17  1  0  0  0  0
 23 28  1  0  0  0  0
 24 23  2  0  0  0  0
 24 25  1  0  0  0  0
 25 26  2  0  0  0  0
 26 27  1  0  0  0  0
 27 31  1  0  0  0  0
 28 27  2  0  0  0  0
 29 23  1  0  0  0  0
 30 25  1  0  0  0  0
 32  6  1  0  0  0  0
 33 32  1  0  0  0  0
 34 32  1  0  0  0  0
 35 36  1  0  0  0  0
 35 34  2  0  0  0  0
 37 39  1  0  0  0  0
 37 35  1  0  0  0  0
 38 37  1  0  0  0  0
 39 41  2  0  0  0  0
 40 39  1  0  0  0  0
 41 34  1  0  0  0  0
M  END
>  <minimizedAffinity>
-5.5338254

>  <minimizedRMSD>
2.7715044

$$$$
