
 OpenBabel03242522003D

 32 34  0  0  0  0  0  0  0  0999 V2000
   37.9240   25.3970   41.8820 C   0  0  0  0  0  0  0  0  0  0  0  0
   38.9980   25.4630   42.7430 C   0  0  0  0  0  0  0  0  0  0  0  0
   39.3320   26.5680   43.5180 C   0  0  0  0  0  0  0  0  0  0  0  0
   38.5340   27.6800   43.4240 C   0  0  0  0  0  0  0  0  0  0  0  0
   37.4810   27.6090   42.5790 C   0  0  0  0  0  0  0  0  0  0  0  0
   37.1830   26.5350   41.8450 N   0  0  0  0  0  0  0  0  0  0  0  0
   39.5780   24.5250   42.7510 H   0  0  0  0  0  0  0  0  0  0  0  0
   40.2180   26.3890   44.1200 H   0  0  0  0  0  0  0  0  0  0  0  0
   38.9530   28.4260   44.0720 H   0  0  0  0  0  0  0  0  0  0  0  0
   37.9490   22.1190   40.0340 C   0  0  0  0  0  0  0  0  0  0  0  0
   38.4260   23.1540   40.8520 C   0  0  0  0  0  0  0  0  0  0  0  0
   37.6070   24.2320   41.0680 C   0  0  0  0  0  0  0  0  0  0  0  0
   36.3690   24.2420   40.4710 N   0  0  0  0  0  0  0  0  0  0  0  0
   35.9350   23.2290   39.6860 C   0  0  0  0  0  0  0  0  0  0  0  0
   36.7370   22.1780   39.4790 N   0  0  0  0  0  0  0  0  0  0  0  0
   38.6080   21.2750   39.8740 H   0  0  0  0  0  0  0  0  0  0  0  0
   39.3940   23.1740   41.3340 H   0  0  0  0  0  0  0  0  0  0  0  0
   34.9460   23.3170   39.2570 H   0  0  0  0  0  0  0  0  0  0  0  0
   36.6620   28.7190   42.4720 O   0  0  0  0  0  0  0  0  0  0  0  0
   36.3470   29.0490   39.8700 O   0  0  0  0  0  0  0  0  0  0  0  0
   36.7150   29.7820   41.1380 P   0  0  1  0  0  0  0  0  0  0  0  0
   35.6300   31.0450   41.4030 O   0  0  0  0  0  0  0  0  0  0  0  0
   35.9270   31.8500   40.8760 H   0  0  0  0  0  0  0  0  0  0  0  0
   38.3150   30.3510   41.0110 O   0  0  0  0  0  0  0  0  0  0  0  0
   38.5760   31.6860   40.8580 C   0  0  0  0  0  0  0  0  0  0  0  0
   39.7970   32.1920   41.2440 C   0  0  0  0  0  0  0  0  0  0  0  0
   40.6570   31.7030   41.6770 H   0  0  0  0  0  0  0  0  0  0  0  0
   39.8060   33.5240   40.9920 N   0  0  0  0  0  0  0  0  0  0  0  0
   40.6000   34.1950   41.1770 H   0  0  0  0  0  0  0  0  0  0  0  0
   38.6000   33.8380   40.4560 C   0  0  0  0  0  0  0  0  0  0  0  0
   38.2500   34.8100   40.1310 H   0  0  0  0  0  0  0  0  0  0  0  0
   37.8320   32.7150   40.3670 N   0  0  0  0  0  0  0  0  0  0  0  0
  1  2  1  0  0  0  0
  2  7  1  0  0  0  0
  2  3  2  0  0  0  0
  3  8  1  0  0  0  0
  4  3  1  0  0  0  0
  4  9  1  0  0  0  0
  5  4  2  0  0  0  0
  6  1  2  0  0  0  0
  6  5  1  0  0  0  0
 10 11  1  0  0  0  0
 11 12  2  0  0  0  0
 11 17  1  0  0  0  0
 12  1  1  0  0  0  0
 13 12  1  0  0  0  0
 14 13  2  0  0  0  0
 15 14  1  0  0  0  0
 15 10  2  0  0  0  0
 16 10  1  0  0  0  0
 18 14  1  0  0  0  0
 19  5  1  0  0  0  0
 21 20  2  6  0  0  0
 21 22  1  0  0  0  0
 21 19  1  0  0  0  0
 23 22  1  0  0  0  0
 24 21  1  0  0  0  0
 25 24  1  0  0  0  0
 25 26  2  0  0  0  0
 26 27  1  0  0  0  0
 28 29  1  0  0  0  0
 28 26  1  0  0  0  0
 30 28  1  0  0  0  0
 31 30  1  0  0  0  0
 32 30  2  0  0  0  0
 32 25  1  0  0  0  0
M  END
>  <minimizedAffinity>
-5.68578386

$$$$

 OpenBabel03242522003D

 32 34  0  0  0  0  0  0  0  0999 V2000
   37.3900   26.7610   41.6980 C   0  0  0  0  0  0  0  0  0  0  0  0
   38.2040   26.7360   42.8100 C   0  0  0  0  0  0  0  0  0  0  0  0
   38.5340   27.8450   43.5810 C   0  0  0  0  0  0  0  0  0  0  0  0
   38.0140   29.0600   43.2110 C   0  0  0  0  0  0  0  0  0  0  0  0
   37.2160   29.0780   42.1210 C   0  0  0  0  0  0  0  0  0  0  0  0
   36.9150   27.9980   41.3970 N   0  0  0  0  0  0  0  0  0  0  0  0
   38.5720   25.7200   43.0290 H   0  0  0  0  0  0  0  0  0  0  0  0
   39.1880   27.5840   44.4080 H   0  0  0  0  0  0  0  0  0  0  0  0
   38.3900   29.7890   43.9040 H   0  0  0  0  0  0  0  0  0  0  0  0
   36.9430   23.2780   40.3450 C   0  0  0  0  0  0  0  0  0  0  0  0
   37.3180   24.2840   41.2480 C   0  0  0  0  0  0  0  0  0  0  0  0
   37.0740   25.5870   40.8980 C   0  0  0  0  0  0  0  0  0  0  0  0
   36.4770   25.8360   39.6850 N   0  0  0  0  0  0  0  0  0  0  0  0
   36.1260   24.8460   38.8330 C   0  0  0  0  0  0  0  0  0  0  0  0
   36.3650   23.5750   39.1780 N   0  0  0  0  0  0  0  0  0  0  0  0
   37.1430   22.2560   40.6370 H   0  0  0  0  0  0  0  0  0  0  0  0
   37.7890   24.1180   42.2080 H   0  0  0  0  0  0  0  0  0  0  0  0
   35.6600   25.1310   37.8990 H   0  0  0  0  0  0  0  0  0  0  0  0
   36.6790   30.2920   41.7330 O   0  0  0  0  0  0  0  0  0  0  0  0
   36.0720   30.4890   39.1700 O   0  0  0  0  0  0  0  0  0  0  0  0
   37.0170   31.0140   40.2240 P   0  0  1  0  0  0  0  0  0  0  0  0
   36.8420   32.6840   40.3660 O   0  0  0  0  0  0  0  0  0  0  0  0
   37.4060   33.1360   39.6650 H   0  0  0  0  0  0  0  0  0  0  0  0
   38.6120   30.5880   39.8080 O   0  0  0  0  0  0  0  0  0  0  0  0
   39.3540   31.3750   38.9690 C   0  0  0  0  0  0  0  0  0  0  0  0
   38.9890   31.4970   37.6470 C   0  0  0  0  0  0  0  0  0  0  0  0
   38.1680   31.0590   37.0990 H   0  0  0  0  0  0  0  0  0  0  0  0
   39.8740   32.3230   37.0350 N   0  0  0  0  0  0  0  0  0  0  0  0
   39.8650   32.6140   36.0200 H   0  0  0  0  0  0  0  0  0  0  0  0
   40.7770   32.7060   37.9720 C   0  0  0  0  0  0  0  0  0  0  0  0
   41.6280   33.3650   37.8440 H   0  0  0  0  0  0  0  0  0  0  0  0
   40.4680   32.1300   39.1680 N   0  0  0  0  0  0  0  0  0  0  0  0
  1  2  1  0  0  0  0
  2  7  1  0  0  0  0
  2  3  2  0  0  0  0
  3  8  1  0  0  0  0
  4  3  1  0  0  0  0
  4  9  1  0  0  0  0
  5  4  2  0  0  0  0
  6  1  2  0  0  0  0
  6  5  1  0  0  0  0
 10 16  1  0  0  0  0
 10 11  1  0  0  0  0
 11 17  1  0  0  0  0
 12 11  2  0  0  0  0
 12  1  1  0  0  0  0
 13 12  1  0  0  0  0
 14 15  1  0  0  0  0
 14 13  2  0  0  0  0
 15 10  2  0  0  0  0
 18 14  1  0  0  0  0
 19  5  1  0  0  0  0
 21 20  2  6  0  0  0
 21 22  1  0  0  0  0
 21 19  1  0  0  0  0
 23 22  1  0  0  0  0
 24 21  1  0  0  0  0
 25 32  1  0  0  0  0
 25 24  1  0  0  0  0
 26 25  2  0  0  0  0
 27 26  1  0  0  0  0
 28 26  1  0  0  0  0
 28 30  1  0  0  0  0
 29 28  1  0  0  0  0
 30 32  2  0  0  0  0
 31 30  1  0  0  0  0
M  END
>  <minimizedAffinity>
-5.68472052

$$$$

 OpenBabel03242522003D

 32 34  0  0  0  0  0  0  0  0999 V2000
   39.6570   26.4660   42.6480 C   0  0  0  0  0  0  0  0  0  0  0  0
   38.9080   25.3290   42.4310 C   0  0  0  0  0  0  0  0  0  0  0  0
   37.5320   25.3070   42.2320 C   0  0  0  0  0  0  0  0  0  0  0  0
   36.8630   26.5050   42.2510 C   0  0  0  0  0  0  0  0  0  0  0  0
   37.6020   27.6160   42.4630 C   0  0  0  0  0  0  0  0  0  0  0  0
   38.9240   27.6100   42.6520 N   0  0  0  0  0  0  0  0  0  0  0  0
   39.5310   24.4190   42.4320 H   0  0  0  0  0  0  0  0  0  0  0  0
   37.1600   24.2980   42.0800 H   0  0  0  0  0  0  0  0  0  0  0  0
   35.8220   26.2880   42.1000 H   0  0  0  0  0  0  0  0  0  0  0  0
   43.2360   25.5470   43.3570 C   0  0  0  0  0  0  0  0  0  0  0  0
   41.8580   25.3620   43.1760 C   0  0  0  0  0  0  0  0  0  0  0  0
   41.0950   26.4590   42.8710 C   0  0  0  0  0  0  0  0  0  0  0  0
   41.7210   27.6790   42.7610 N   0  0  0  0  0  0  0  0  0  0  0  0
   43.0530   27.8290   42.9410 C   0  0  0  0  0  0  0  0  0  0  0  0
   43.7940   26.7550   43.2390 N   0  0  0  0  0  0  0  0  0  0  0  0
   43.8240   24.6710   43.5980 H   0  0  0  0  0  0  0  0  0  0  0  0
   41.3390   24.4160   43.2570 H   0  0  0  0  0  0  0  0  0  0  0  0
   43.4630   28.8240   42.8350 H   0  0  0  0  0  0  0  0  0  0  0  0
   36.9480   28.8340   42.4830 O   0  0  0  0  0  0  0  0  0  0  0  0
   36.2220   28.9540   39.9460 O   0  0  0  0  0  0  0  0  0  0  0  0
   36.7380   29.7950   41.0880 P   0  0  1  0  0  0  0  0  0  0  0  0
   35.6390   31.0260   41.4330 O   0  0  0  0  0  0  0  0  0  0  0  0
   35.8080   31.8010   40.8130 H   0  0  0  0  0  0  0  0  0  0  0  0
   38.2660   30.4230   40.6750 O   0  0  0  0  0  0  0  0  0  0  0  0
   38.4890   31.7730   40.6500 C   0  0  0  0  0  0  0  0  0  0  0  0
   39.6500   32.2840   41.1860 C   0  0  0  0  0  0  0  0  0  0  0  0
   40.4840   31.7890   41.6600 H   0  0  0  0  0  0  0  0  0  0  0  0
   39.6300   33.6310   41.0380 N   0  0  0  0  0  0  0  0  0  0  0  0
   40.3780   34.3100   41.3490 H   0  0  0  0  0  0  0  0  0  0  0  0
   38.4660   33.9490   40.4170 C   0  0  0  0  0  0  0  0  0  0  0  0
   38.1110   34.9330   40.1360 H   0  0  0  0  0  0  0  0  0  0  0  0
   37.7540   32.8140   40.1710 N   0  0  0  0  0  0  0  0  0  0  0  0
  1  6  1  0  0  0  0
  1 12  1  0  0  0  0
  2  7  1  0  0  0  0
  2  1  2  0  0  0  0
  3  4  2  0  0  0  0
  3  2  1  0  0  0  0
  4  5  1  0  0  0  0
  5 19  1  0  0  0  0
  5  6  2  0  0  0  0
  8  3  1  0  0  0  0
  9  4  1  0  0  0  0
 10 16  1  0  0  0  0
 11 17  1  0  0  0  0
 11 10  2  0  0  0  0
 12 11  1  0  0  0  0
 13 12  2  0  0  0  0
 13 14  1  0  0  0  0
 14 15  2  0  0  0  0
 15 10  1  0  0  0  0
 18 14  1  0  0  0  0
 21 20  2  6  0  0  0
 21 22  1  0  0  0  0
 21 19  1  0  0  0  0
 23 22  1  0  0  0  0
 24 21  1  0  0  0  0
 25 24  1  0  0  0  0
 25 26  2  0  0  0  0
 26 27  1  0  0  0  0
 28 26  1  0  0  0  0
 28 29  1  0  0  0  0
 30 28  1  0  0  0  0
 31 30  1  0  0  0  0
 32 30  2  0  0  0  0
 32 25  1  0  0  0  0
M  END
>  <minimizedAffinity>
-5.34393787

$$$$

 OpenBabel03242522003D

 32 34  0  0  0  0  0  0  0  0999 V2000
   37.4260   27.9400   41.5180 C   0  0  0  0  0  0  0  0  0  0  0  0
   36.4140   27.6020   40.6440 C   0  0  0  0  0  0  0  0  0  0  0  0
   35.6010   28.5110   39.9760 C   0  0  0  0  0  0  0  0  0  0  0  0
   35.8180   29.8480   40.1990 C   0  0  0  0  0  0  0  0  0  0  0  0
   36.8120   30.1730   41.0550 C   0  0  0  0  0  0  0  0  0  0  0  0
   37.5780   29.2800   41.6850 N   0  0  0  0  0  0  0  0  0  0  0  0
   36.3160   26.5100   40.5290 H   0  0  0  0  0  0  0  0  0  0  0  0
   34.8750   28.0150   39.3400 H   0  0  0  0  0  0  0  0  0  0  0  0
   35.0920   30.3870   39.6190 H   0  0  0  0  0  0  0  0  0  0  0  0
   39.9550   26.1810   43.6780 C   0  0  0  0  0  0  0  0  0  0  0  0
   39.2650   27.2540   43.0950 C   0  0  0  0  0  0  0  0  0  0  0  0
   38.2510   26.9670   42.2180 C   0  0  0  0  0  0  0  0  0  0  0  0
   37.9680   25.6480   41.9570 N   0  0  0  0  0  0  0  0  0  0  0  0
   38.6510   24.6320   42.5330 C   0  0  0  0  0  0  0  0  0  0  0  0
   39.6390   24.9160   43.3890 N   0  0  0  0  0  0  0  0  0  0  0  0
   40.7520   26.4240   44.3680 H   0  0  0  0  0  0  0  0  0  0  0  0
   39.4650   28.3000   43.2820 H   0  0  0  0  0  0  0  0  0  0  0  0
   38.3610   23.6230   42.2710 H   0  0  0  0  0  0  0  0  0  0  0  0
   37.0480   31.5150   41.2910 O   0  0  0  0  0  0  0  0  0  0  0  0
   37.2350   32.8180   39.0010 O   0  0  0  0  0  0  0  0  0  0  0  0
   38.0020   32.4820   40.2570 P   0  0  1  0  0  0  0  0  0  0  0  0
   38.4190   33.9000   41.0680 O   0  0  0  0  0  0  0  0  0  0  0  0
   39.2700   34.2680   40.6720 H   0  0  0  0  0  0  0  0  0  0  0  0
   39.3800   31.5720   39.8450 O   0  0  0  0  0  0  0  0  0  0  0  0
   40.1750   31.9360   38.7920 C   0  0  0  0  0  0  0  0  0  0  0  0
   40.4660   31.0200   37.8060 C   0  0  0  0  0  0  0  0  0  0  0  0
   40.1660   29.9890   37.6920 H   0  0  0  0  0  0  0  0  0  0  0  0
   41.2600   31.6210   36.8870 N   0  0  0  0  0  0  0  0  0  0  0  0
   41.6540   31.1820   36.0110 H   0  0  0  0  0  0  0  0  0  0  0  0
   41.4590   32.8980   37.3030 C   0  0  0  0  0  0  0  0  0  0  0  0
   42.0430   33.6710   36.8180 H   0  0  0  0  0  0  0  0  0  0  0  0
   40.7960   33.1050   38.4750 N   0  0  0  0  0  0  0  0  0  0  0  0
  1  6  1  0  0  0  0
  1 12  1  0  0  0  0
  2  1  2  0  0  0  0
  3  4  2  0  0  0  0
  3  2  1  0  0  0  0
  4  5  1  0  0  0  0
  5 19  1  0  0  0  0
  5  6  2  0  0  0  0
  7  2  1  0  0  0  0
  8  3  1  0  0  0  0
  9  4  1  0  0  0  0
 10 16  1  0  0  0  0
 11 17  1  0  0  0  0
 11 10  2  0  0  0  0
 12 11  1  0  0  0  0
 13 12  2  0  0  0  0
 13 14  1  0  0  0  0
 14 15  2  0  0  0  0
 15 10  1  0  0  0  0
 18 14  1  0  0  0  0
 21 20  2  6  0  0  0
 21 22  1  0  0  0  0
 21 19  1  0  0  0  0
 23 22  1  0  0  0  0
 24 21  1  0  0  0  0
 25 24  1  0  0  0  0
 26 25  2  0  0  0  0
 27 26  1  0  0  0  0
 28 30  1  0  0  0  0
 28 26  1  0  0  0  0
 29 28  1  0  0  0  0
 30 32  2  0  0  0  0
 31 30  1  0  0  0  0
 32 25  1  0  0  0  0
M  END
>  <minimizedAffinity>
-5.28613758

$$$$

 OpenBabel03242522003D

 32 34  0  0  0  0  0  0  0  0999 V2000
   36.8330   26.9740   39.4470 C   0  0  0  0  0  0  0  0  0  0  0  0
   35.7540   26.8710   38.5950 C   0  0  0  0  0  0  0  0  0  0  0  0
   35.1800   27.9310   37.9030 C   0  0  0  0  0  0  0  0  0  0  0  0
   35.7250   29.1790   38.0770 C   0  0  0  0  0  0  0  0  0  0  0  0
   36.7830   29.2740   38.9120 C   0  0  0  0  0  0  0  0  0  0  0  0
   37.3160   28.2390   39.5660 N   0  0  0  0  0  0  0  0  0  0  0  0
   35.3870   25.8340   38.5190 H   0  0  0  0  0  0  0  0  0  0  0  0
   34.3430   27.6100   37.2910 H   0  0  0  0  0  0  0  0  0  0  0  0
   35.1460   29.8620   37.4850 H   0  0  0  0  0  0  0  0  0  0  0  0
   37.4620   23.7170   41.2240 C   0  0  0  0  0  0  0  0  0  0  0  0
   36.7470   24.6980   40.5210 C   0  0  0  0  0  0  0  0  0  0  0  0
   37.4040   25.8490   40.1740 C   0  0  0  0  0  0  0  0  0  0  0  0
   38.7250   25.9810   40.5320 N   0  0  0  0  0  0  0  0  0  0  0  0
   39.3910   25.0190   41.2110 C   0  0  0  0  0  0  0  0  0  0  0  0
   38.7450   23.8960   41.5480 N   0  0  0  0  0  0  0  0  0  0  0  0
   36.9290   22.8150   41.4900 H   0  0  0  0  0  0  0  0  0  0  0  0
   35.7090   24.6220   40.2260 H   0  0  0  0  0  0  0  0  0  0  0  0
   40.4290   25.2040   41.4520 H   0  0  0  0  0  0  0  0  0  0  0  0
   37.3490   30.5220   39.0990 O   0  0  0  0  0  0  0  0  0  0  0  0
   37.3100   32.8760   40.2960 O   0  0  0  0  0  0  0  0  0  0  0  0
   37.2070   31.3930   40.5590 P   0  0  1  0  0  0  0  0  0  0  0  0
   35.7170   31.0400   41.2640 O   0  0  0  0  0  0  0  0  0  0  0  0
   35.7780   31.1920   42.2570 H   0  0  0  0  0  0  0  0  0  0  0  0
   38.4980   30.9120   41.5600 O   0  0  0  0  0  0  0  0  0  0  0  0
   38.4310   29.7540   42.2860 C   0  0  0  0  0  0  0  0  0  0  0  0
   39.5620   28.9870   42.4560 C   0  0  0  0  0  0  0  0  0  0  0  0
   40.5710   29.1320   42.0990 H   0  0  0  0  0  0  0  0  0  0  0  0
   39.2360   27.9050   43.2050 N   0  0  0  0  0  0  0  0  0  0  0  0
   39.8850   27.1290   43.5070 H   0  0  0  0  0  0  0  0  0  0  0  0
   37.9140   28.0040   43.4950 C   0  0  0  0  0  0  0  0  0  0  0  0
   37.3090   27.3180   44.0760 H   0  0  0  0  0  0  0  0  0  0  0  0
   37.4060   29.1380   42.9360 N   0  0  0  0  0  0  0  0  0  0  0  0
  1  6  1  0  0  0  0
  1 12  1  0  0  0  0
  2  1  2  0  0  0  0
  3  4  2  0  0  0  0
  3  2  1  0  0  0  0
  4  5  1  0  0  0  0
  5 19  1  0  0  0  0
  5  6  2  0  0  0  0
  7  2  1  0  0  0  0
  8  3  1  0  0  0  0
  9  4  1  0  0  0  0
 10 16  1  0  0  0  0
 10 15  1  0  0  0  0
 11 10  2  0  0  0  0
 12 11  1  0  0  0  0
 12 13  2  0  0  0  0
 13 14  1  0  0  0  0
 14 18  1  0  0  0  0
 14 15  2  0  0  0  0
 17 11  1  0  0  0  0
 19 21  1  0  0  0  0
 21 20  2  6  0  0  0
 21 22  1  0  0  0  0
 21 24  1  0  0  0  0
 22 23  1  0  0  0  0
 24 25  1  0  0  0  0
 25 26  2  0  0  0  0
 25 32  1  0  0  0  0
 26 28  1  0  0  0  0
 27 26  1  0  0  0  0
 28 30  1  0  0  0  0
 28 29  1  0  0  0  0
 30 31  1  0  0  0  0
 32 30  2  0  0  0  0
M  END
>  <minimizedAffinity>
-5.18685865

$$$$

 OpenBabel03242522003D

 32 34  0  0  0  0  0  0  0  0999 V2000
   36.5970   28.3970   41.3010 C   0  0  0  0  0  0  0  0  0  0  0  0
   36.4710   27.5160   42.3540 C   0  0  0  0  0  0  0  0  0  0  0  0
   37.1970   27.5810   43.5380 C   0  0  0  0  0  0  0  0  0  0  0  0
   38.1100   28.5970   43.6750 C   0  0  0  0  0  0  0  0  0  0  0  0
   38.2280   29.4580   42.6400 C   0  0  0  0  0  0  0  0  0  0  0  0
   37.5180   29.3730   41.5130 N   0  0  0  0  0  0  0  0  0  0  0  0
   35.7170   26.7380   42.1530 H   0  0  0  0  0  0  0  0  0  0  0  0
   36.9280   26.7830   44.2230 H   0  0  0  0  0  0  0  0  0  0  0  0
   38.5790   28.4740   44.6330 H   0  0  0  0  0  0  0  0  0  0  0  0
   34.2310   28.9040   38.4190 C   0  0  0  0  0  0  0  0  0  0  0  0
   34.8600   29.1620   39.6460 C   0  0  0  0  0  0  0  0  0  0  0  0
   35.8360   28.2960   40.0640 C   0  0  0  0  0  0  0  0  0  0  0  0
   36.1450   27.2230   39.2610 N   0  0  0  0  0  0  0  0  0  0  0  0
   35.5220   26.9980   38.0820 C   0  0  0  0  0  0  0  0  0  0  0  0
   34.5690   27.8470   37.6770 N   0  0  0  0  0  0  0  0  0  0  0  0
   33.4630   29.5980   38.1040 H   0  0  0  0  0  0  0  0  0  0  0  0
   34.6380   29.9970   40.2980 H   0  0  0  0  0  0  0  0  0  0  0  0
   35.8270   26.1310   37.5120 H   0  0  0  0  0  0  0  0  0  0  0  0
   39.1390   30.4910   42.7590 O   0  0  0  0  0  0  0  0  0  0  0  0
   41.7130   30.7980   42.2500 O   0  0  0  0  0  0  0  0  0  0  0  0
   40.3520   30.7940   41.5970 P   0  0  1  0  0  0  0  0  0  0  0  0
   40.2890   29.5920   40.4160 O   0  0  0  0  0  0  0  0  0  0  0  0
   40.6770   29.9510   39.5590 H   0  0  0  0  0  0  0  0  0  0  0  0
   40.0430   32.3320   40.9360 O   0  0  0  0  0  0  0  0  0  0  0  0
   38.8950   32.5780   40.2330 C   0  0  0  0  0  0  0  0  0  0  0  0
   38.1620   33.7140   40.4970 C   0  0  0  0  0  0  0  0  0  0  0  0
   38.3300   34.5110   41.2060 H   0  0  0  0  0  0  0  0  0  0  0  0
   37.0830   33.7260   39.6760 N   0  0  0  0  0  0  0  0  0  0  0  0
   36.3300   34.4650   39.6360 H   0  0  0  0  0  0  0  0  0  0  0  0
   37.1490   32.6060   38.9120 C   0  0  0  0  0  0  0  0  0  0  0  0
   36.4560   32.2840   38.1450 H   0  0  0  0  0  0  0  0  0  0  0  0
   38.2600   31.8900   39.2450 N   0  0  0  0  0  0  0  0  0  0  0  0
  1  6  2  0  0  0  0
  1  2  1  0  0  0  0
  2  3  2  0  0  0  0
  3  4  1  0  0  0  0
  3  8  1  0  0  0  0
  4  9  1  0  0  0  0
  5 19  1  0  0  0  0
  5  4  2  0  0  0  0
  6  5  1  0  0  0  0
  7  2  1  0  0  0  0
 10 11  1  0  0  0  0
 11 12  2  0  0  0  0
 11 17  1  0  0  0  0
 12  1  1  0  0  0  0
 13 12  1  0  0  0  0
 14 13  2  0  0  0  0
 15 14  1  0  0  0  0
 15 10  2  0  0  0  0
 16 10  1  0  0  0  0
 18 14  1  0  0  0  0
 21 20  2  1  0  0  0
 21 19  1  0  0  0  0
 22 21  1  0  0  0  0
 23 22  1  0  0  0  0
 24 21  1  0  0  0  0
 25 26  2  0  0  0  0
 25 24  1  0  0  0  0
 26 27  1  0  0  0  0
 28 26  1  0  0  0  0
 29 28  1  0  0  0  0
 30 32  2  0  0  0  0
 30 28  1  0  0  0  0
 31 30  1  0  0  0  0
 32 25  1  0  0  0  0
M  END
>  <minimizedAffinity>
-5.17469597

$$$$

 OpenBabel03242522003D

 32 34  0  0  0  0  0  0  0  0999 V2000
   38.0180   26.4080   42.0240 C   0  0  0  0  0  0  0  0  0  0  0  0
   37.0070   26.6110   42.9400 C   0  0  0  0  0  0  0  0  0  0  0  0
   36.8230   27.7750   43.6780 C   0  0  0  0  0  0  0  0  0  0  0  0
   37.7120   28.8020   43.4860 C   0  0  0  0  0  0  0  0  0  0  0  0
   38.7000   28.5980   42.5870 C   0  0  0  0  0  0  0  0  0  0  0  0
   38.8550   27.4700   41.8900 N   0  0  0  0  0  0  0  0  0  0  0  0
   36.3450   25.7340   43.0250 H   0  0  0  0  0  0  0  0  0  0  0  0
   35.9610   27.7060   44.3350 H   0  0  0  0  0  0  0  0  0  0  0  0
   37.4240   29.5980   44.1470 H   0  0  0  0  0  0  0  0  0  0  0  0
   37.8740   22.8890   40.7010 C   0  0  0  0  0  0  0  0  0  0  0  0
   37.5760   23.9780   41.5320 C   0  0  0  0  0  0  0  0  0  0  0  0
   38.1980   25.1720   41.2760 C   0  0  0  0  0  0  0  0  0  0  0  0
   39.0780   25.2370   40.2220 N   0  0  0  0  0  0  0  0  0  0  0  0
   39.3480   24.1700   39.4360 C   0  0  0  0  0  0  0  0  0  0  0  0
   38.7380   23.0060   39.6890 N   0  0  0  0  0  0  0  0  0  0  0  0
   37.3750   21.9530   40.9160 H   0  0  0  0  0  0  0  0  0  0  0  0
   36.8890   23.9560   42.3670 H   0  0  0  0  0  0  0  0  0  0  0  0
   40.0530   24.3090   38.6280 H   0  0  0  0  0  0  0  0  0  0  0  0
   39.6040   29.6220   42.3760 O   0  0  0  0  0  0  0  0  0  0  0  0
   41.3870   30.9390   40.9380 O   0  0  0  0  0  0  0  0  0  0  0  0
   40.1710   30.0520   40.8240 P   0  0  1  0  0  0  0  0  0  0  0  0
   40.5660   28.6480   39.9790 O   0  0  0  0  0  0  0  0  0  0  0  0
   40.5020   28.8290   38.9900 H   0  0  0  0  0  0  0  0  0  0  0  0
   38.9210   30.9120   40.0520 O   0  0  0  0  0  0  0  0  0  0  0  0
   37.6100   30.5700   40.2420 C   0  0  0  0  0  0  0  0  0  0  0  0
   36.7940   31.3830   40.9970 C   0  0  0  0  0  0  0  0  0  0  0  0
   37.0030   32.3100   41.5090 H   0  0  0  0  0  0  0  0  0  0  0  0
   35.5570   30.8300   41.0340 N   0  0  0  0  0  0  0  0  0  0  0  0
   34.7090   31.2140   41.5330 H   0  0  0  0  0  0  0  0  0  0  0  0
   35.6090   29.6850   40.3070 C   0  0  0  0  0  0  0  0  0  0  0  0
   34.8060   28.9820   40.1170 H   0  0  0  0  0  0  0  0  0  0  0  0
   36.8670   29.5130   39.8140 N   0  0  0  0  0  0  0  0  0  0  0  0
  1  2  1  0  0  0  0
  2  7  1  0  0  0  0
  2  3  2  0  0  0  0
  3  8  1  0  0  0  0
  4  3  1  0  0  0  0
  4  9  1  0  0  0  0
  5  4  2  0  0  0  0
  6  1  2  0  0  0  0
  6  5  1  0  0  0  0
 10 16  1  0  0  0  0
 10 11  1  0  0  0  0
 11 17  1  0  0  0  0
 12 11  2  0  0  0  0
 12  1  1  0  0  0  0
 13 12  1  0  0  0  0
 14 15  1  0  0  0  0
 14 13  2  0  0  0  0
 15 10  2  0  0  0  0
 18 14  1  0  0  0  0
 19  5  1  0  0  0  0
 21 20  2  1  0  0  0
 21 19  1  0  0  0  0
 22 21  1  0  0  0  0
 23 22  1  0  0  0  0
 24 25  1  0  0  0  0
 24 21  1  0  0  0  0
 25 26  2  0  0  0  0
 26 28  1  0  0  0  0
 26 27  1  0  0  0  0
 28 29  1  0  0  0  0
 30 28  1  0  0  0  0
 31 30  1  0  0  0  0
 32 25  1  0  0  0  0
 32 30  2  0  0  0  0
M  END
>  <minimizedAffinity>
-5.16954517

$$$$

 OpenBabel03242522003D

 32 34  0  0  0  0  0  0  0  0999 V2000
   39.2360   28.9300   42.2910 C   0  0  0  0  0  0  0  0  0  0  0  0
   39.0920   27.9940   43.2930 C   0  0  0  0  0  0  0  0  0  0  0  0
   38.0380   27.0940   43.3980 C   0  0  0  0  0  0  0  0  0  0  0  0
   37.0620   27.1350   42.4340 C   0  0  0  0  0  0  0  0  0  0  0  0
   37.2080   28.0540   41.4530 C   0  0  0  0  0  0  0  0  0  0  0  0
   38.2310   28.9080   41.3760 N   0  0  0  0  0  0  0  0  0  0  0  0
   39.9220   28.0360   44.0180 H   0  0  0  0  0  0  0  0  0  0  0  0
   38.1380   26.4520   44.2680 H   0  0  0  0  0  0  0  0  0  0  0  0
   36.3330   26.3900   42.6890 H   0  0  0  0  0  0  0  0  0  0  0  0
   42.5160   30.7420   42.6220 C   0  0  0  0  0  0  0  0  0  0  0  0
   41.5690   29.7250   42.8070 C   0  0  0  0  0  0  0  0  0  0  0  0
   40.3420   29.8730   42.2140 C   0  0  0  0  0  0  0  0  0  0  0  0
   40.1070   31.0070   41.4740 N   0  0  0  0  0  0  0  0  0  0  0  0
   41.0400   31.9730   41.3120 C   0  0  0  0  0  0  0  0  0  0  0  0
   42.2370   31.8250   41.8920 N   0  0  0  0  0  0  0  0  0  0  0  0
   43.4800   30.6100   43.0970 H   0  0  0  0  0  0  0  0  0  0  0  0
   41.7250   28.8230   43.3830 H   0  0  0  0  0  0  0  0  0  0  0  0
   40.7710   32.8330   40.7130 H   0  0  0  0  0  0  0  0  0  0  0  0
   36.2380   28.1100   40.4700 O   0  0  0  0  0  0  0  0  0  0  0  0
   34.0160   29.2670   39.6330 O   0  0  0  0  0  0  0  0  0  0  0  0
   35.4410   29.5560   40.0380 P   0  0  1  0  0  0  0  0  0  0  0  0
   35.4580   30.6050   41.3580 O   0  0  0  0  0  0  0  0  0  0  0  0
   35.3810   31.5530   41.0270 H   0  0  0  0  0  0  0  0  0  0  0  0
   36.2780   30.2150   38.7090 O   0  0  0  0  0  0  0  0  0  0  0  0
   37.0880   31.3070   38.8600 C   0  0  0  0  0  0  0  0  0  0  0  0
   38.2260   31.4240   38.0940 C   0  0  0  0  0  0  0  0  0  0  0  0
   38.6380   30.7710   37.3390 H   0  0  0  0  0  0  0  0  0  0  0  0
   38.8480   32.5820   38.4280 N   0  0  0  0  0  0  0  0  0  0  0  0
   39.7470   32.9550   38.0180 H   0  0  0  0  0  0  0  0  0  0  0  0
   38.1000   33.1740   39.3930 C   0  0  0  0  0  0  0  0  0  0  0  0
   38.2900   34.1130   39.8980 H   0  0  0  0  0  0  0  0  0  0  0  0
   37.0120   32.4000   39.6680 N   0  0  0  0  0  0  0  0  0  0  0  0
  1  2  1  0  0  0  0
  2  3  2  0  0  0  0
  2  7  1  0  0  0  0
  3  8  1  0  0  0  0
  4  9  1  0  0  0  0
  4  3  1  0  0  0  0
  5  4  2  0  0  0  0
  6  5  1  0  0  0  0
  6  1  2  0  0  0  0
 10 11  1  0  0  0  0
 10 16  1  0  0  0  0
 11 17  1  0  0  0  0
 12  1  1  0  0  0  0
 12 11  2  0  0  0  0
 13 12  1  0  0  0  0
 14 13  2  0  0  0  0
 14 15  1  0  0  0  0
 15 10  2  0  0  0  0
 18 14  1  0  0  0  0
 19  5  1  0  0  0  0
 21 20  2  6  0  0  0
 21 19  1  0  0  0  0
 21 22  1  0  0  0  0
 23 22  1  0  0  0  0
 24 25  1  0  0  0  0
 24 21  1  0  0  0  0
 25 32  1  0  0  0  0
 26 28  1  0  0  0  0
 26 25  2  0  0  0  0
 27 26  1  0  0  0  0
 28 30  1  0  0  0  0
 29 28  1  0  0  0  0
 30 32  2  0  0  0  0
 30 31  1  0  0  0  0
M  END
>  <minimizedAffinity>
-5.13725996

$$$$

 OpenBabel03242522003D

 32 34  0  0  0  0  0  0  0  0999 V2000
   37.6030   31.3560   38.8780 C   0  0  0  0  0  0  0  0  0  0  0  0
   37.2090   32.6320   39.2180 C   0  0  0  0  0  0  0  0  0  0  0  0
   37.9130   33.4860   40.0600 C   0  0  0  0  0  0  0  0  0  0  0  0
   39.0900   33.0280   40.5970 C   0  0  0  0  0  0  0  0  0  0  0  0
   39.4720   31.7760   40.2590 C   0  0  0  0  0  0  0  0  0  0  0  0
   38.7770   30.9760   39.4480 N   0  0  0  0  0  0  0  0  0  0  0  0
   36.2560   32.9110   38.7400 H   0  0  0  0  0  0  0  0  0  0  0  0
   37.4110   34.4410   40.1810 H   0  0  0  0  0  0  0  0  0  0  0  0
   39.4760   33.8080   41.2260 H   0  0  0  0  0  0  0  0  0  0  0  0
   36.2300   29.3690   35.9920 C   0  0  0  0  0  0  0  0  0  0  0  0
   37.0760   30.2560   36.6750 C   0  0  0  0  0  0  0  0  0  0  0  0
   36.8380   30.4760   38.0070 C   0  0  0  0  0  0  0  0  0  0  0  0
   35.7860   29.8190   38.5990 N   0  0  0  0  0  0  0  0  0  0  0  0
   34.9850   28.9690   37.9170 C   0  0  0  0  0  0  0  0  0  0  0  0
   35.2200   28.7560   36.6160 N   0  0  0  0  0  0  0  0  0  0  0  0
   36.4310   29.2070   34.9420 H   0  0  0  0  0  0  0  0  0  0  0  0
   37.9100   30.7860   36.2350 H   0  0  0  0  0  0  0  0  0  0  0  0
   34.1800   28.4940   38.4610 H   0  0  0  0  0  0  0  0  0  0  0  0
   40.6570   31.2970   40.7860 O   0  0  0  0  0  0  0  0  0  0  0  0
   41.3770   29.2710   42.3200 O   0  0  0  0  0  0  0  0  0  0  0  0
   40.7750   30.6550   42.3630 P   0  0  1  0  0  0  0  0  0  0  0  0
   41.7460   31.6700   43.2950 O   0  0  0  0  0  0  0  0  0  0  0  0
   41.5040   31.5570   44.2670 H   0  0  0  0  0  0  0  0  0  0  0  0
   39.1940   30.5580   42.9880 O   0  0  0  0  0  0  0  0  0  0  0  0
   38.4640   29.4060   42.8770 C   0  0  0  0  0  0  0  0  0  0  0  0
   37.3020   29.4020   42.1370 C   0  0  0  0  0  0  0  0  0  0  0  0
   36.8170   30.1920   41.5840 H   0  0  0  0  0  0  0  0  0  0  0  0
   36.7720   28.1550   42.1830 N   0  0  0  0  0  0  0  0  0  0  0  0
   35.8820   27.8320   41.7160 H   0  0  0  0  0  0  0  0  0  0  0  0
   37.5990   27.3970   42.9460 C   0  0  0  0  0  0  0  0  0  0  0  0
   37.4930   26.3490   43.2000 H   0  0  0  0  0  0  0  0  0  0  0  0
   38.6460   28.1550   43.3790 N   0  0  0  0  0  0  0  0  0  0  0  0
  1  2  2  0  0  0  0
  1  6  1  0  0  0  0
  2  3  1  0  0  0  0
  3  8  1  0  0  0  0
  3  4  2  0  0  0  0
  4  9  1  0  0  0  0
  5  4  1  0  0  0  0
  5 19  1  0  0  0  0
  6  5  2  0  0  0  0
  7  2  1  0  0  0  0
 10 15  2  0  0  0  0
 10 11  1  0  0  0  0
 11 12  2  0  0  0  0
 12 13  1  0  0  0  0
 12  1  1  0  0  0  0
 14 18  1  0  0  0  0
 14 13  2  0  0  0  0
 15 14  1  0  0  0  0
 16 10  1  0  0  0  0
 17 11  1  0  0  0  0
 19 21  1  0  0  0  0
 21 20  2  6  0  0  0
 21 24  1  0  0  0  0
 21 22  1  0  0  0  0
 22 23  1  0  0  0  0
 25 24  1  0  0  0  0
 25 32  1  0  0  0  0
 26 28  1  0  0  0  0
 26 25  2  0  0  0  0
 27 26  1  0  0  0  0
 28 30  1  0  0  0  0
 29 28  1  0  0  0  0
 30 31  1  0  0  0  0
 30 32  2  0  0  0  0
M  END
>  <minimizedAffinity>
-4.98950338

$$$$
