
 OpenBabel03252501343D

 24 25  0  0  0  0  0  0  0  0999 V2000
   44.2720   35.1090   42.5260 C   0  0  0  0  0  0  0  0  0  0  0  0
   44.2070   33.8370   42.6150 O   0  0  0  0  0  0  0  0  0  0  0  0
   45.1440   35.6920   43.4970 N   0  0  0  0  0  0  0  0  0  0  0  0
   45.3000   36.7060   43.5250 H   0  0  0  0  0  0  0  0  0  0  0  0
   45.6850   34.6270   44.3300 C   0  0  0  0  0  0  0  0  0  0  0  0
   45.2880   34.3630   45.6160 C   0  0  0  0  0  0  0  0  0  0  0  0
   45.9270   33.2970   46.2430 C   0  0  0  0  0  0  0  0  0  0  0  0
   46.8600   32.6280   45.5540 N   0  0  0  0  0  0  0  0  0  0  0  0
   47.2230   32.9160   44.2950 C   0  0  0  0  0  0  0  0  0  0  0  0
   46.6230   33.9460   43.6540 N   0  0  0  0  0  0  0  0  0  0  0  0
   45.6170   33.0870   47.2550 H   0  0  0  0  0  0  0  0  0  0  0  0
   47.9910   32.3100   43.8280 H   0  0  0  0  0  0  0  0  0  0  0  0
   44.2850   35.1820   46.1700 N   0  0  0  0  0  0  0  0  0  0  0  0
   43.3110   34.9490   45.8340 H   0  0  0  0  0  0  0  0  0  0  0  0
   44.8690   35.8110   46.7870 H   0  0  0  0  0  0  0  0  0  0  0  0
   43.5870   35.9100   41.5910 O   0  0  0  0  0  0  0  0  0  0  0  0
   42.4710   35.3670   40.9600 C   0  0  0  0  0  0  0  0  0  0  0  0
   42.1050   34.7380   39.7920 C   0  0  0  0  0  0  0  0  0  0  0  0
   42.9190   34.5930   39.0940 H   0  0  0  0  0  0  0  0  0  0  0  0
   40.7850   34.4870   39.8800 N   0  0  0  0  0  0  0  0  0  0  0  0
   40.3330   33.9990   39.0520 H   0  0  0  0  0  0  0  0  0  0  0  0
   40.3080   34.9320   41.0530 C   0  0  0  0  0  0  0  0  0  0  0  0
   39.2670   34.8310   41.3320 H   0  0  0  0  0  0  0  0  0  0  0  0
   41.3430   35.4740   41.7210 N   0  0  0  0  0  0  0  0  0  0  0  0
  1  2  2  0  0  0  0
  1  3  1  0  0  0  0
  3  4  1  0  0  0  0
  3  5  1  0  0  0  0
  5  6  1  0  0  0  0
  6 13  1  0  0  0  0
  6  7  2  0  0  0  0
  7 11  1  0  0  0  0
  8  7  1  0  0  0  0
  9  8  2  0  0  0  0
 10  9  1  0  0  0  0
 10  5  2  0  0  0  0
 12  9  1  0  0  0  0
 13 15  1  0  0  0  0
 14 13  1  0  0  0  0
 16  1  1  0  0  0  0
 17 16  1  0  0  0  0
 17 24  1  0  0  0  0
 18 20  1  0  0  0  0
 18 17  2  0  0  0  0
 19 18  1  0  0  0  0
 20 22  1  0  0  0  0
 21 20  1  0  0  0  0
 22 23  1  0  0  0  0
 22 24  2  0  0  0  0
M  END
>  <minimizedAffinity>
-4.8780756

>  <minimizedRMSD>
0.538811088

$$$$
