
 OpenBabel03252501343D

 24 25  0  0  0  0  0  0  0  0999 V2000
   44.2520   35.0970   42.5140 C   0  0  0  0  0  0  0  0  0  0  0  0
   44.1810   33.8270   42.6170 O   0  0  0  0  0  0  0  0  0  0  0  0
   45.1340   35.6860   43.4710 N   0  0  0  0  0  0  0  0  0  0  0  0
   45.2960   36.6990   43.4870 H   0  0  0  0  0  0  0  0  0  0  0  0
   45.6780   34.6270   44.3110 C   0  0  0  0  0  0  0  0  0  0  0  0
   45.2850   34.3730   45.6010 C   0  0  0  0  0  0  0  0  0  0  0  0
   45.9260   33.3120   46.2330 C   0  0  0  0  0  0  0  0  0  0  0  0
   46.8550   32.6370   45.5460 N   0  0  0  0  0  0  0  0  0  0  0  0
   47.2150   32.9150   44.2830 C   0  0  0  0  0  0  0  0  0  0  0  0
   46.6130   33.9400   43.6360 N   0  0  0  0  0  0  0  0  0  0  0  0
   45.6190   33.1100   47.2480 H   0  0  0  0  0  0  0  0  0  0  0  0
   47.9800   32.3040   43.8190 H   0  0  0  0  0  0  0  0  0  0  0  0
   44.2850   35.1980   46.1510 N   0  0  0  0  0  0  0  0  0  0  0  0
   43.3090   34.9630   45.8200 H   0  0  0  0  0  0  0  0  0  0  0  0
   44.8710   35.8310   46.7610 H   0  0  0  0  0  0  0  0  0  0  0  0
   43.5620   35.8920   41.5760 O   0  0  0  0  0  0  0  0  0  0  0  0
   42.3030   35.4680   41.1630 C   0  0  0  0  0  0  0  0  0  0  0  0
   41.0110   35.3450   41.6220 C   0  0  0  0  0  0  0  0  0  0  0  0
   40.8720   35.6770   42.6430 H   0  0  0  0  0  0  0  0  0  0  0  0
   40.2850   34.8270   40.6140 N   0  0  0  0  0  0  0  0  0  0  0  0
   39.2520   34.6660   40.8010 H   0  0  0  0  0  0  0  0  0  0  0  0
   41.0650   34.6200   39.5410 C   0  0  0  0  0  0  0  0  0  0  0  0
   40.6820   34.2070   38.6170 H   0  0  0  0  0  0  0  0  0  0  0  0
   42.3080   35.0120   39.8760 N   0  0  0  0  0  0  0  0  0  0  0  0
  1  2  2  0  0  0  0
  1  3  1  0  0  0  0
  3  4  1  0  0  0  0
  3  5  1  0  0  0  0
  5  6  1  0  0  0  0
  6 13  1  0  0  0  0
  6  7  2  0  0  0  0
  7 11  1  0  0  0  0
  8  7  1  0  0  0  0
  9  8  2  0  0  0  0
 10  9  1  0  0  0  0
 10  5  2  0  0  0  0
 12  9  1  0  0  0  0
 13 15  1  0  0  0  0
 14 13  1  0  0  0  0
 16  1  1  0  0  0  0
 17 16  1  0  0  0  0
 17 18  2  0  0  0  0
 18 19  1  0  0  0  0
 20 21  1  0  0  0  0
 20 18  1  0  0  0  0
 22 24  2  0  0  0  0
 22 20  1  0  0  0  0
 23 22  1  0  0  0  0
 24 17  1  0  0  0  0
M  END
>  <minimizedAffinity>
-4.86354208

>  <minimizedRMSD>
0.652365863

$$$$
