
 OpenBabel03252508073D

 43 46  0  0  0  0  0  0  0  0999 V2000
   45.2190   35.8140   42.9630 C   0  0  0  0  0  0  0  0  0  0  0  0
   45.5060   34.4590   43.0020 C   0  0  0  0  0  0  0  0  0  0  0  0
   45.3330   33.7540   44.1680 C   0  0  0  0  0  0  0  0  0  0  0  0
   44.8670   34.4580   45.2620 N   0  0  0  0  0  0  0  0  0  0  0  0
   44.5920   35.7580   45.2180 C   0  0  0  0  0  0  0  0  0  0  0  0
   44.7730   36.4280   44.0580 N   0  0  0  0  0  0  0  0  0  0  0  0
   45.3440   36.4020   42.0640 H   0  0  0  0  0  0  0  0  0  0  0  0
   44.2280   36.2930   46.0840 H   0  0  0  0  0  0  0  0  0  0  0  0
   45.5810   32.3770   44.3700 C   0  0  0  0  0  0  0  0  0  0  0  0
   45.1600   31.3700   43.4980 C   0  0  0  0  0  0  0  0  0  0  0  0
   45.3380   30.0300   43.7250 C   0  0  0  0  0  0  0  0  0  0  0  0
   45.9690   29.6110   44.8730 C   0  0  0  0  0  0  0  0  0  0  0  0
   46.4070   30.6190   45.7750 C   0  0  0  0  0  0  0  0  0  0  0  0
   47.0350   30.2160   46.9240 C   0  0  0  0  0  0  0  0  0  0  0  0
   47.4870   31.1430   47.8430 C   0  0  0  0  0  0  0  0  0  0  0  0
   47.2990   32.5100   47.5860 C   0  0  0  0  0  0  0  0  0  0  0  0
   46.6490   32.8780   46.3930 C   0  0  0  0  0  0  0  0  0  0  0  0
   46.2090   31.9350   45.5070 C   0  0  0  0  0  0  0  0  0  0  0  0
   44.6610   31.7040   42.5900 H   0  0  0  0  0  0  0  0  0  0  0  0
   44.9980   29.2820   43.0250 H   0  0  0  0  0  0  0  0  0  0  0  0
   46.1570   28.5920   45.1450 H   0  0  0  0  0  0  0  0  0  0  0  0
   47.1920   29.1550   47.1440 H   0  0  0  0  0  0  0  0  0  0  0  0
   47.9780   30.7660   48.7400 H   0  0  0  0  0  0  0  0  0  0  0  0
   47.6850   33.1600   48.3540 H   0  0  0  0  0  0  0  0  0  0  0  0
   46.6240   33.9460   46.3720 H   0  0  0  0  0  0  0  0  0  0  0  0
   45.9550   33.8830   41.8490 O   0  0  0  0  0  0  0  0  0  0  0  0
   48.0380   32.3870   41.3100 O   0  0  0  0  0  0  0  0  0  0  0  0
   47.5810   33.7980   41.3850 P   0  0  1  0  0  0  0  0  0  0  0  0
   47.8120   34.4740   39.8490 O   0  0  0  0  0  0  0  0  0  0  0  0
   47.7790   33.7520   38.6650 C   0  0  0  0  0  0  0  0  0  0  0  0
   46.5570   33.2340   38.3170 C   0  0  0  0  0  0  0  0  0  0  0  0
   45.5570   33.2550   38.7700 H   0  0  0  0  0  0  0  0  0  0  0  0
   46.7020   32.5660   37.1480 N   0  0  0  0  0  0  0  0  0  0  0  0
   46.0120   32.0410   36.5650 H   0  0  0  0  0  0  0  0  0  0  0  0
   47.9950   32.6910   36.8140 C   0  0  0  0  0  0  0  0  0  0  0  0
   48.5780   32.3210   35.9570 H   0  0  0  0  0  0  0  0  0  0  0  0
   48.6870   33.4190   37.7330 N   0  0  0  0  0  0  0  0  0  0  0  0
   48.4940   34.6630   42.4940 O   0  0  0  0  0  0  0  0  0  0  0  0
   49.7090   35.2900   42.2640 C   0  0  0  0  0  0  0  0  0  0  0  0
   49.4120   36.3740   41.7370 O   0  0  0  0  0  0  0  0  0  0  0  0
   50.8050   34.4610   42.7120 N   0  0  0  0  0  0  0  0  0  0  0  0
   51.5830   33.9920   42.1890 H   0  0  0  0  0  0  0  0  0  0  0  0
   50.8630   34.2730   43.7560 H   0  0  0  0  0  0  0  0  0  0  0  0
  1  2  2  0  0  0  0
  1  6  1  0  0  0  0
  2  3  1  0  0  0  0
  3  9  1  0  0  0  0
  3  4  2  0  0  0  0
  5  4  1  0  0  0  0
  5  8  1  0  0  0  0
  6  5  2  0  0  0  0
  7  1  1  0  0  0  0
  9 18  1  0  0  0  0
 10 11  1  0  0  0  0
 10  9  2  0  0  0  0
 11 12  2  0  0  0  0
 12 21  1  0  0  0  0
 12 13  1  0  0  0  0
 13 14  1  0  0  0  0
 14 22  1  0  0  0  0
 14 15  2  0  0  0  0
 15 23  1  0  0  0  0
 16 15  1  0  0  0  0
 16 24  1  0  0  0  0
 17 16  2  0  0  0  0
 18 13  2  0  0  0  0
 18 17  1  0  0  0  0
 19 10  1  0  0  0  0
 20 11  1  0  0  0  0
 25 17  1  0  0  0  0
 26  2  1  0  0  0  0
 28 27  2  6  0  0  0
 28 26  1  0  0  0  0
 28 38  1  0  0  0  0
 29 28  1  0  0  0  0
 30 29  1  0  0  0  0
 31 30  2  0  0  0  0
 31 32  1  0  0  0  0
 33 31  1  0  0  0  0
 34 33  1  0  0  0  0
 35 33  1  0  0  0  0
 35 37  2  0  0  0  0
 36 35  1  0  0  0  0
 37 30  1  0  0  0  0
 39 38  1  0  0  0  0
 39 41  1  0  0  0  0
 40 39  2  0  0  0  0
 41 43  1  0  0  0  0
 42 41  1  0  0  0  0
M  END
>  <minimizedAffinity>
-6.00450277

>  <minimizedRMSD>
0.394197524

$$$$
