
 OpenBabel03252505143D

 24 26  0  0  0  0  0  0  0  0999 V2000
   44.5810   36.0670   44.2160 C   0  0  0  0  0  0  0  0  0  0  0  0
   45.3550   35.9070   43.0530 C   0  0  0  0  0  0  0  0  0  0  0  0
   46.2480   34.8470   43.0660 C   0  0  0  0  0  0  0  0  0  0  0  0
   46.3450   34.0240   44.1610 N   0  0  0  0  0  0  0  0  0  0  0  0
   45.5700   34.2210   45.2660 C   0  0  0  0  0  0  0  0  0  0  0  0
   44.6950   35.2430   45.2820 N   0  0  0  0  0  0  0  0  0  0  0  0
   43.8620   36.8670   44.2900 H   0  0  0  0  0  0  0  0  0  0  0  0
   45.2640   36.5540   42.2180 H   0  0  0  0  0  0  0  0  0  0  0  0
   47.1120   34.5530   41.8740 C   0  0  0  0  0  0  0  0  0  0  0  0
   48.2980   35.4840   41.7530 C   0  0  0  0  0  0  0  0  0  0  0  0
   48.4300   33.9730   42.0840 C   0  0  0  0  0  0  0  0  0  0  0  0
   46.5300   34.3720   40.9570 H   0  0  0  0  0  0  0  0  0  0  0  0
   48.5160   36.2140   42.5290 H   0  0  0  0  0  0  0  0  0  0  0  0
   48.5230   35.8020   40.7240 H   0  0  0  0  0  0  0  0  0  0  0  0
   48.9040   33.8100   43.0500 H   0  0  0  0  0  0  0  0  0  0  0  0
   48.8960   33.3990   41.2370 H   0  0  0  0  0  0  0  0  0  0  0  0
   45.8070   33.2520   46.3320 C   0  0  0  0  0  0  0  0  0  0  0  0
   46.8830   32.3660   46.2350 C   0  0  0  0  0  0  0  0  0  0  0  0
   47.6240   32.2850   45.4280 H   0  0  0  0  0  0  0  0  0  0  0  0
   46.8860   31.5840   47.3300 N   0  0  0  0  0  0  0  0  0  0  0  0
   47.5910   30.8340   47.5060 H   0  0  0  0  0  0  0  0  0  0  0  0
   45.8300   31.9670   48.1040 C   0  0  0  0  0  0  0  0  0  0  0  0
   45.6650   31.4560   49.0300 H   0  0  0  0  0  0  0  0  0  0  0  0
   45.1710   32.9920   47.4890 N   0  0  0  0  0  0  0  0  0  0  0  0
  1  7  1  0  0  0  0
  1  6  1  0  0  0  0
  2  3  1  0  0  0  0
  2  1  2  0  0  0  0
  3  4  2  0  0  0  0
  4  5  1  0  0  0  0
  5  6  2  0  0  0  0
  5 17  1  0  0  0  0
  8  2  1  0  0  0  0
  9 11  1  0  0  0  0
  9  3  1  0  0  0  0
 10  9  1  0  0  0  0
 10 11  1  0  0  0  0
 10 13  1  0  0  0  0
 11 15  1  0  0  0  0
 12  9  1  0  0  0  0
 14 10  1  0  0  0  0
 16 11  1  0  0  0  0
 17 24  1  0  0  0  0
 18 17  2  0  0  0  0
 18 20  1  0  0  0  0
 19 18  1  0  0  0  0
 20 21  1  0  0  0  0
 20 22  1  0  0  0  0
 22 23  1  0  0  0  0
 24 22  2  0  0  0  0
M  END
>  <minimizedAffinity>
-4.84696531

>  <minimizedRMSD>
0.399350435

$$$$
