
 OpenBabel03252506123D

 35 37  0  0  0  0  0  0  0  0999 V2000
   45.1390   33.5430   41.1250 F   0  0  0  0  0  0  0  0  0  0  0  0
   46.3360   34.1270   41.0260 C   0  0  0  0  0  0  0  0  0  0  0  0
   46.8400   34.8230   42.1030 C   0  0  0  0  0  0  0  0  0  0  0  0
   48.0840   35.4620   42.0840 C   0  0  0  0  0  0  0  0  0  0  0  0
   48.8570   35.3980   40.9250 C   0  0  0  0  0  0  0  0  0  0  0  0
   48.3160   34.6900   39.8660 C   0  0  0  0  0  0  0  0  0  0  0  0
   47.1090   34.0660   39.8720 C   0  0  0  0  0  0  0  0  0  0  0  0
   48.4100   35.9880   42.9690 H   0  0  0  0  0  0  0  0  0  0  0  0
   49.8040   35.9030   40.9560 H   0  0  0  0  0  0  0  0  0  0  0  0
   49.0200   34.7140   39.0400 H   0  0  0  0  0  0  0  0  0  0  0  0
   45.4750   33.9950   45.4070 C   0  0  0  0  0  0  0  0  0  0  0  0
   44.6190   35.0970   45.6520 C   0  0  0  0  0  0  0  0  0  0  0  0
   44.5190   36.1180   44.6760 C   0  0  0  0  0  0  0  0  0  0  0  0
   45.2700   35.9660   43.5440 N   0  0  0  0  0  0  0  0  0  0  0  0
   46.0660   34.9140   43.3450 C   0  0  0  0  0  0  0  0  0  0  0  0
   46.1640   33.9420   44.2690 N   0  0  0  0  0  0  0  0  0  0  0  0
   44.0460   35.1830   46.5500 H   0  0  0  0  0  0  0  0  0  0  0  0
   43.8750   36.9730   44.8320 H   0  0  0  0  0  0  0  0  0  0  0  0
   45.5630   32.9830   46.3920 N   0  0  0  0  0  0  0  0  0  0  0  0
   45.5310   31.9310   46.2350 H   0  0  0  0  0  0  0  0  0  0  0  0
   45.6760   33.2730   47.4090 H   0  0  0  0  0  0  0  0  0  0  0  0
   46.6700   33.3930   38.7660 O   0  0  0  0  0  0  0  0  0  0  0  0
   48.2860   34.5160   36.9930 O   0  0  0  0  0  0  0  0  0  0  0  0
   47.4550   33.2930   37.2840 P   0  0  2  0  0  0  0  0  0  0  0  0
   46.2560   33.0920   36.0720 O   0  0  0  0  0  0  0  0  0  0  0  0
   46.0040   32.1240   36.0170 H   0  0  0  0  0  0  0  0  0  0  0  0
   48.4370   31.9270   37.1300 O   0  0  0  0  0  0  0  0  0  0  0  0
   49.6060   31.7130   37.8480 C   0  0  0  0  0  0  0  0  0  0  0  0
   49.5300   31.2890   39.1610 C   0  0  0  0  0  0  0  0  0  0  0  0
   48.7170   31.0580   39.8410 H   0  0  0  0  0  0  0  0  0  0  0  0
   50.8070   31.1620   39.6110 N   0  0  0  0  0  0  0  0  0  0  0  0
   51.2370   30.8710   40.5370 H   0  0  0  0  0  0  0  0  0  0  0  0
   51.6600   31.4910   38.6290 C   0  0  0  0  0  0  0  0  0  0  0  0
   52.7230   31.5630   38.4520 H   0  0  0  0  0  0  0  0  0  0  0  0
   50.9290   31.8350   37.5310 N   0  0  0  0  0  0  0  0  0  0  0  0
  2  1  1  0  0  0  0
  2  3  1  0  0  0  0
  3 15  1  0  0  0  0
  4  3  2  0  0  0  0
  4  8  1  0  0  0  0
  5  9  1  0  0  0  0
  5  4  1  0  0  0  0
  6  7  1  0  0  0  0
  6  5  2  0  0  0  0
  7  2  2  0  0  0  0
 10  6  1  0  0  0  0
 11 12  1  0  0  0  0
 11 19  1  0  0  0  0
 12 17  1  0  0  0  0
 13 18  1  0  0  0  0
 13 12  2  0  0  0  0
 14 13  1  0  0  0  0
 15 14  2  0  0  0  0
 15 16  1  0  0  0  0
 16 11  2  0  0  0  0
 19 21  1  0  0  0  0
 20 19  1  0  0  0  0
 22  7  1  0  0  0  0
 24 23  2  6  0  0  0
 24 22  1  0  0  0  0
 25 24  1  0  0  0  0
 26 25  1  0  0  0  0
 27 24  1  0  0  0  0
 27 28  1  0  0  0  0
 28 29  2  0  0  0  0
 29 31  1  0  0  0  0
 29 30  1  0  0  0  0
 31 32  1  0  0  0  0
 33 31  1  0  0  0  0
 34 33  1  0  0  0  0
 35 28  1  0  0  0  0
 35 33  2  0  0  0  0
M  END
>  <minimizedAffinity>
-6.14166689

>  <minimizedRMSD>
0.767101586

$$$$
