
 OpenBabel03242510083D

 27 29  0  0  0  0  0  0  0  0999 V2000
   44.6300   33.0700   41.1870 Br  0  0  0  0  0  0  0  0  0  0  0  0
   46.3110   33.9570   40.9240 C   0  0  0  0  0  0  0  0  0  0  0  0
   46.8240   34.7300   41.9240 C   0  0  0  0  0  0  0  0  0  0  0  0
   48.0560   35.3860   41.7480 C   0  0  0  0  0  0  0  0  0  0  0  0
   48.7060   35.2260   40.5590 C   0  0  0  0  0  0  0  0  0  0  0  0
   48.1420   34.4390   39.5900 C   0  0  0  0  0  0  0  0  0  0  0  0
   46.9530   33.7870   39.7250 C   0  0  0  0  0  0  0  0  0  0  0  0
   48.3830   35.9820   42.6080 H   0  0  0  0  0  0  0  0  0  0  0  0
   49.6460   35.7400   40.4500 H   0  0  0  0  0  0  0  0  0  0  0  0
   48.7010   34.3460   38.6610 H   0  0  0  0  0  0  0  0  0  0  0  0
   45.6120   34.0540   45.3010 C   0  0  0  0  0  0  0  0  0  0  0  0
   44.7100   35.1040   45.5520 C   0  0  0  0  0  0  0  0  0  0  0  0
   44.5350   36.0430   44.5290 C   0  0  0  0  0  0  0  0  0  0  0  0
   45.2310   35.8940   43.3710 N   0  0  0  0  0  0  0  0  0  0  0  0
   46.0900   34.8660   43.1720 C   0  0  0  0  0  0  0  0  0  0  0  0
   46.2720   33.9530   44.1470 N   0  0  0  0  0  0  0  0  0  0  0  0
   45.8350   33.2640   46.0130 H   0  0  0  0  0  0  0  0  0  0  0  0
   44.2220   35.1080   46.5070 H   0  0  0  0  0  0  0  0  0  0  0  0
   43.8490   36.8310   44.7320 H   0  0  0  0  0  0  0  0  0  0  0  0
   46.4000   32.9610   38.6560 C   0  0  0  0  0  0  0  0  0  0  0  0
   46.7400   31.6490   38.4300 C   0  0  0  0  0  0  0  0  0  0  0  0
   47.4410   31.0460   38.9850 H   0  0  0  0  0  0  0  0  0  0  0  0
   46.0410   31.1930   37.3640 N   0  0  0  0  0  0  0  0  0  0  0  0
   46.1250   30.2040   36.9860 H   0  0  0  0  0  0  0  0  0  0  0  0
   45.2630   32.2090   36.9160 C   0  0  0  0  0  0  0  0  0  0  0  0
   44.6040   32.0870   36.0600 H   0  0  0  0  0  0  0  0  0  0  0  0
   45.4900   33.2880   37.7130 N   0  0  0  0  0  0  0  0  0  0  0  0
  2  1  1  0  0  0  0
  2  3  1  0  0  0  0
  3 15  1  0  0  0  0
  4  3  2  0  0  0  0
  4  8  1  0  0  0  0
  5  4  1  0  0  0  0
  6  7  1  0  0  0  0
  6  5  2  0  0  0  0
  7  2  2  0  0  0  0
  9  5  1  0  0  0  0
 10  6  1  0  0  0  0
 11 12  1  0  0  0  0
 11 17  1  0  0  0  0
 12 18  1  0  0  0  0
 13 19  1  0  0  0  0
 13 12  2  0  0  0  0
 14 13  1  0  0  0  0
 15 14  2  0  0  0  0
 15 16  1  0  0  0  0
 16 11  2  0  0  0  0
 20  7  1  0  0  0  0
 21 20  2  0  0  0  0
 21 22  1  0  0  0  0
 23 21  1  0  0  0  0
 24 23  1  0  0  0  0
 25 23  1  0  0  0  0
 25 27  2  0  0  0  0
 26 25  1  0  0  0  0
 27 20  1  0  0  0  0
M  END
>  <minimizedAffinity>
-5.34621429

>  <minimizedRMSD>
0.481156826

$$$$
