
 OpenBabel03252501023D

 24 26  0  0  1  0  0  0  0  0999 V2000
   36.2480   28.2370   39.7630 C   0  0  1  0  0  0  0  0  0  0  0  0
   34.9120   28.9180   39.9650 C   0  0  0  0  0  0  0  0  0  0  0  0
   35.9940   29.4730   39.0350 C   0  0  1  0  0  0  0  0  0  0  0  0
   36.1790   27.2480   39.2410 H   0  0  0  0  0  0  0  0  0  0  0  0
   34.7200   29.4510   40.9120 H   0  0  0  0  0  0  0  0  0  0  0  0
   34.0050   28.5300   39.4370 H   0  0  0  0  0  0  0  0  0  0  0  0
   35.8430   29.3360   37.9290 H   0  0  0  0  0  0  0  0  0  0  0  0
   37.5390   28.1670   43.3100 C   0  0  0  0  0  0  0  0  0  0  0  0
   36.6060   28.1560   42.2480 C   0  0  0  0  0  0  0  0  0  0  0  0
   37.1230   28.2540   40.9670 C   0  0  0  0  0  0  0  0  0  0  0  0
   38.4630   28.3510   40.8110 N   0  0  0  0  0  0  0  0  0  0  0  0
   39.3500   28.3610   41.8320 C   0  0  0  0  0  0  0  0  0  0  0  0
   38.8660   28.2680   43.0810 N   0  0  0  0  0  0  0  0  0  0  0  0
   37.1770   28.0940   44.3210 H   0  0  0  0  0  0  0  0  0  0  0  0
   35.5400   28.0770   42.4120 H   0  0  0  0  0  0  0  0  0  0  0  0
   40.3840   28.4450   41.5240 H   0  0  0  0  0  0  0  0  0  0  0  0
   36.4960   30.8080   39.4470 C   0  0  0  0  0  0  0  0  0  0  0  0
   36.5650   31.4940   40.6660 C   0  0  0  0  0  0  0  0  0  0  0  0
   36.1870   31.0430   41.5700 H   0  0  0  0  0  0  0  0  0  0  0  0
   37.1250   32.6910   40.5140 N   0  0  0  0  0  0  0  0  0  0  0  0
   37.2520   33.3330   41.3310 H   0  0  0  0  0  0  0  0  0  0  0  0
   37.4310   32.8190   39.2130 C   0  0  0  0  0  0  0  0  0  0  0  0
   37.9010   33.6980   38.7930 H   0  0  0  0  0  0  0  0  0  0  0  0
   37.0560   31.6970   38.5760 N   0  0  0  0  0  0  0  0  0  0  0  0
  1  4  1  6  0  0  0
  1  2  1  0  0  0  0
  1 10  1  0  0  0  0
  2  5  1  0  0  0  0
  3  7  1  6  0  0  0
  3 17  1  0  0  0  0
  3  1  1  0  0  0  0
  3  2  1  0  0  0  0
  6  2  1  0  0  0  0
  8 14  1  0  0  0  0
  9 15  1  0  0  0  0
  9  8  2  0  0  0  0
 10  9  1  0  0  0  0
 11 10  2  0  0  0  0
 11 12  1  0  0  0  0
 12 13  2  0  0  0  0
 13  8  1  0  0  0  0
 16 12  1  0  0  0  0
 17 18  2  0  0  0  0
 18 19  1  0  0  0  0
 20 18  1  0  0  0  0
 20 21  1  0  0  0  0
 22 20  1  0  0  0  0
 23 22  1  0  0  0  0
 24 22  2  0  0  0  0
 24 17  1  0  0  0  0
M  END
>  <minimizedAffinity>
-4.36961746

$$$$

 OpenBabel03252501023D

 24 26  0  0  1  0  0  0  0  0999 V2000
   39.6170   25.3560   42.9910 C   0  0  1  0  0  0  0  0  0  0  0  0
   40.6610   26.3820   42.6100 C   0  0  0  0  0  0  0  0  0  0  0  0
   39.5970   26.6400   43.6800 C   0  0  1  0  0  0  0  0  0  0  0  0
   40.0340   24.4480   43.4970 H   0  0  0  0  0  0  0  0  0  0  0  0
   40.5670   26.9110   41.6470 H   0  0  0  0  0  0  0  0  0  0  0  0
   41.7030   26.2890   43.0090 H   0  0  0  0  0  0  0  0  0  0  0  0
   39.9250   26.5930   44.7550 H   0  0  0  0  0  0  0  0  0  0  0  0
   36.5610   24.2350   41.0780 C   0  0  0  0  0  0  0  0  0  0  0  0
   37.4290   24.4270   42.1770 C   0  0  0  0  0  0  0  0  0  0  0  0
   38.6240   25.0780   41.9180 C   0  0  0  0  0  0  0  0  0  0  0  0
   38.8830   25.4840   40.6540 N   0  0  0  0  0  0  0  0  0  0  0  0
   38.0470   25.2980   39.6070 C   0  0  0  0  0  0  0  0  0  0  0  0
   36.8850   24.6680   39.8400 N   0  0  0  0  0  0  0  0  0  0  0  0
   35.6220   23.7320   41.2390 H   0  0  0  0  0  0  0  0  0  0  0  0
   37.1880   24.0870   43.1750 H   0  0  0  0  0  0  0  0  0  0  0  0
   38.4150   25.6880   38.6670 H   0  0  0  0  0  0  0  0  0  0  0  0
   38.6830   27.7600   43.3430 C   0  0  0  0  0  0  0  0  0  0  0  0
   37.3590   28.0760   43.6760 C   0  0  0  0  0  0  0  0  0  0  0  0
   36.7820   27.4190   44.3060 H   0  0  0  0  0  0  0  0  0  0  0  0
   36.9840   29.2230   43.1170 N   0  0  0  0  0  0  0  0  0  0  0  0
   36.0200   29.6040   43.2670 H   0  0  0  0  0  0  0  0  0  0  0  0
   38.0330   29.6810   42.4150 C   0  0  0  0  0  0  0  0  0  0  0  0
   38.0180   30.6040   41.8510 H   0  0  0  0  0  0  0  0  0  0  0  0
   39.0460   28.8090   42.5480 N   0  0  0  0  0  0  0  0  0  0  0  0
  1  4  1  1  0  0  0
  1  3  1  0  0  0  0
  2  1  1  0  0  0  0
  2  6  1  0  0  0  0
  2  3  1  0  0  0  0
  3  7  1  1  0  0  0
  5  2  1  0  0  0  0
  8 14  1  0  0  0  0
  8  9  1  0  0  0  0
  9 15  1  0  0  0  0
 10  9  2  0  0  0  0
 10  1  1  0  0  0  0
 11 10  1  0  0  0  0
 12 13  1  0  0  0  0
 12 11  2  0  0  0  0
 13  8  2  0  0  0  0
 16 12  1  0  0  0  0
 17 18  2  0  0  0  0
 17  3  1  0  0  0  0
 18 19  1  0  0  0  0
 20 21  1  0  0  0  0
 20 18  1  0  0  0  0
 22 24  2  0  0  0  0
 22 20  1  0  0  0  0
 23 22  1  0  0  0  0
 24 17  1  0  0  0  0
M  END
>  <minimizedAffinity>
-4.25127649

$$$$

 OpenBabel03252501023D

 24 26  0  0  1  0  0  0  0  0999 V2000
   38.3380   27.2120   43.2490 C   0  0  1  0  0  0  0  0  0  0  0  0
   39.2350   28.3700   42.8680 C   0  0  0  0  0  0  0  0  0  0  0  0
   37.7650   28.5520   43.2540 C   0  0  1  0  0  0  0  0  0  0  0  0
   38.6220   26.7140   44.2110 H   0  0  0  0  0  0  0  0  0  0  0  0
   39.5130   28.5070   41.8100 H   0  0  0  0  0  0  0  0  0  0  0  0
   39.9610   28.7790   43.6150 H   0  0  0  0  0  0  0  0  0  0  0  0
   37.5470   28.9580   44.2800 H   0  0  0  0  0  0  0  0  0  0  0  0
   36.8610   24.4970   41.0810 C   0  0  0  0  0  0  0  0  0  0  0  0
   37.0650   25.3050   42.2220 C   0  0  0  0  0  0  0  0  0  0  0  0
   38.0390   26.2850   42.1240 C   0  0  0  0  0  0  0  0  0  0  0  0
   38.7240   26.4080   40.9640 N   0  0  0  0  0  0  0  0  0  0  0  0
   38.5240   25.6300   39.8750 C   0  0  0  0  0  0  0  0  0  0  0  0
   37.5840   24.6750   39.9540 N   0  0  0  0  0  0  0  0  0  0  0  0
   36.1140   23.7230   41.1180 H   0  0  0  0  0  0  0  0  0  0  0  0
   36.4970   25.1780   43.1330 H   0  0  0  0  0  0  0  0  0  0  0  0
   39.1610   25.8690   39.0340 H   0  0  0  0  0  0  0  0  0  0  0  0
   36.9330   29.1140   42.1600 C   0  0  0  0  0  0  0  0  0  0  0  0
   35.8700   28.6260   41.3890 C   0  0  0  0  0  0  0  0  0  0  0  0
   35.5020   27.6230   41.5380 H   0  0  0  0  0  0  0  0  0  0  0  0
   35.4470   29.5390   40.5200 N   0  0  0  0  0  0  0  0  0  0  0  0
   34.6550   29.3330   39.8670 H   0  0  0  0  0  0  0  0  0  0  0  0
   36.2090   30.6310   40.6950 C   0  0  0  0  0  0  0  0  0  0  0  0
   36.0920   31.5400   40.1200 H   0  0  0  0  0  0  0  0  0  0  0  0
   37.0960   30.3780   41.6720 N   0  0  0  0  0  0  0  0  0  0  0  0
  1  3  1  0  0  0  0
  1  4  1  1  0  0  0
  2  1  1  0  0  0  0
  2  3  1  0  0  0  0
  2  6  1  0  0  0  0
  3  7  1  1  0  0  0
  5  2  1  0  0  0  0
  8 14  1  0  0  0  0
  8  9  1  0  0  0  0
  9 15  1  0  0  0  0
 10  9  2  0  0  0  0
 10  1  1  0  0  0  0
 11 10  1  0  0  0  0
 12 13  1  0  0  0  0
 12 11  2  0  0  0  0
 13  8  2  0  0  0  0
 16 12  1  0  0  0  0
 17  3  1  0  0  0  0
 18 19  1  0  0  0  0
 18 17  2  0  0  0  0
 20 22  1  0  0  0  0
 20 18  1  0  0  0  0
 21 20  1  0  0  0  0
 22 24  2  0  0  0  0
 23 22  1  0  0  0  0
 24 17  1  0  0  0  0
M  END
>  <minimizedAffinity>
-4.09968424

$$$$

 OpenBabel03252501023D

 24 26  0  0  1  0  0  0  0  0999 V2000
   36.7640   25.1370   42.2320 C   0  0  1  0  0  0  0  0  0  0  0  0
   37.0880   24.4770   40.9090 C   0  0  0  0  0  0  0  0  0  0  0  0
   37.8830   24.2050   42.1890 C   0  0  1  0  0  0  0  0  0  0  0  0
   35.7810   24.8230   42.6680 H   0  0  0  0  0  0  0  0  0  0  0  0
   37.5710   25.0730   40.1170 H   0  0  0  0  0  0  0  0  0  0  0  0
   36.4740   23.6110   40.5550 H   0  0  0  0  0  0  0  0  0  0  0  0
   37.6930   23.2300   42.7170 H   0  0  0  0  0  0  0  0  0  0  0  0
   37.2390   28.7530   41.2530 C   0  0  0  0  0  0  0  0  0  0  0  0
   36.9940   27.3690   41.1010 C   0  0  0  0  0  0  0  0  0  0  0  0
   37.0230   26.6030   42.2550 C   0  0  0  0  0  0  0  0  0  0  0  0
   37.2790   27.2130   43.4350 N   0  0  0  0  0  0  0  0  0  0  0  0
   37.5130   28.5380   43.5730 C   0  0  0  0  0  0  0  0  0  0  0  0
   37.4890   29.2950   42.4650 N   0  0  0  0  0  0  0  0  0  0  0  0
   37.2260   29.3820   40.3800 H   0  0  0  0  0  0  0  0  0  0  0  0
   36.7920   26.9170   40.1400 H   0  0  0  0  0  0  0  0  0  0  0  0
   37.6990   28.8540   44.5910 H   0  0  0  0  0  0  0  0  0  0  0  0
   39.3090   24.6090   42.0940 C   0  0  0  0  0  0  0  0  0  0  0  0
   40.1440   25.0080   41.0430 C   0  0  0  0  0  0  0  0  0  0  0  0
   39.7670   25.0590   40.0340 H   0  0  0  0  0  0  0  0  0  0  0  0
   41.3700   25.2800   41.4790 N   0  0  0  0  0  0  0  0  0  0  0  0
   42.1190   25.5940   40.8190 H   0  0  0  0  0  0  0  0  0  0  0  0
   41.3710   25.0690   42.8060 C   0  0  0  0  0  0  0  0  0  0  0  0
   42.2400   25.2110   43.4330 H   0  0  0  0  0  0  0  0  0  0  0  0
   40.1420   24.6680   43.1730 N   0  0  0  0  0  0  0  0  0  0  0  0
  1 10  1  0  0  0  0
  1  4  1  1  0  0  0
  2  3  1  0  0  0  0
  2  1  1  0  0  0  0
  3  1  1  0  0  0  0
  3  7  1  1  0  0  0
  5  2  1  0  0  0  0
  6  2  1  0  0  0  0
  8 13  1  0  0  0  0
  9  8  2  0  0  0  0
  9 10  1  0  0  0  0
 10 11  2  0  0  0  0
 11 12  1  0  0  0  0
 12 16  1  0  0  0  0
 13 12  2  0  0  0  0
 14  8  1  0  0  0  0
 15  9  1  0  0  0  0
 17  3  1  0  0  0  0
 17 24  1  0  0  0  0
 18 20  1  0  0  0  0
 18 17  2  0  0  0  0
 19 18  1  0  0  0  0
 20 22  1  0  0  0  0
 21 20  1  0  0  0  0
 22 24  2  0  0  0  0
 22 23  1  0  0  0  0
M  END
>  <minimizedAffinity>
-4.07411528

$$$$

 OpenBabel03252501023D

 24 26  0  0  1  0  0  0  0  0999 V2000
   37.9960   25.0470   41.1100 C   0  0  1  0  0  0  0  0  0  0  0  0
   36.9630   24.7620   42.1780 C   0  0  0  0  0  0  0  0  0  0  0  0
   36.9490   26.0360   41.3300 C   0  0  1  0  0  0  0  0  0  0  0  0
   37.9440   24.3540   40.2310 H   0  0  0  0  0  0  0  0  0  0  0  0
   37.2510   24.8490   43.2390 H   0  0  0  0  0  0  0  0  0  0  0  0
   36.1210   24.0560   41.9630 H   0  0  0  0  0  0  0  0  0  0  0  0
   36.1890   26.0970   40.5030 H   0  0  0  0  0  0  0  0  0  0  0  0
   41.0660   25.1620   43.3040 C   0  0  0  0  0  0  0  0  0  0  0  0
   39.7330   24.8930   42.9170 C   0  0  0  0  0  0  0  0  0  0  0  0
   39.3640   25.2880   41.6420 C   0  0  0  0  0  0  0  0  0  0  0  0
   40.2840   25.8940   40.8570 N   0  0  0  0  0  0  0  0  0  0  0  0
   41.5580   26.1490   41.2330 C   0  0  0  0  0  0  0  0  0  0  0  0
   41.9320   25.7730   42.4660 N   0  0  0  0  0  0  0  0  0  0  0  0
   41.3910   24.8710   44.2880 H   0  0  0  0  0  0  0  0  0  0  0  0
   39.0250   24.4050   43.5730 H   0  0  0  0  0  0  0  0  0  0  0  0
   42.1560   26.6410   40.4780 H   0  0  0  0  0  0  0  0  0  0  0  0
   37.1200   27.2770   42.1280 C   0  0  0  0  0  0  0  0  0  0  0  0
   36.7270   27.6760   43.4120 C   0  0  0  0  0  0  0  0  0  0  0  0
   36.1590   27.0100   44.0420 H   0  0  0  0  0  0  0  0  0  0  0  0
   37.1400   28.9120   43.6790 N   0  0  0  0  0  0  0  0  0  0  0  0
   36.9280   29.3620   44.6000 H   0  0  0  0  0  0  0  0  0  0  0  0
   37.8030   29.3470   42.5950 C   0  0  0  0  0  0  0  0  0  0  0  0
   38.2540   30.3280   42.5250 H   0  0  0  0  0  0  0  0  0  0  0  0
   37.7910   28.3730   41.6700 N   0  0  0  0  0  0  0  0  0  0  0  0
  1  4  1  6  0  0  0
  1  3  1  0  0  0  0
  1 10  1  0  0  0  0
  1  2  1  0  0  0  0
  2  5  1  0  0  0  0
  3  7  1  6  0  0  0
  3 17  1  0  0  0  0
  3  2  1  0  0  0  0
  6  2  1  0  0  0  0
  8 14  1  0  0  0  0
  9  8  1  0  0  0  0
  9 15  1  0  0  0  0
 10  9  2  0  0  0  0
 11 12  2  0  0  0  0
 11 10  1  0  0  0  0
 12 13  1  0  0  0  0
 13  8  2  0  0  0  0
 16 12  1  0  0  0  0
 17 18  2  0  0  0  0
 18 20  1  0  0  0  0
 18 19  1  0  0  0  0
 20 21  1  0  0  0  0
 22 20  1  0  0  0  0
 23 22  1  0  0  0  0
 24 17  1  0  0  0  0
 24 22  2  0  0  0  0
M  END
>  <minimizedAffinity>
-4.053545

$$$$

 OpenBabel03252501023D

 24 26  0  0  1  0  0  0  0  0999 V2000
   37.7540   28.3400   43.6110 C   0  0  1  0  0  0  0  0  0  0  0  0
   36.5760   27.4620   43.2470 C   0  0  0  0  0  0  0  0  0  0  0  0
   38.0260   26.9780   43.1710 C   0  0  1  0  0  0  0  0  0  0  0  0
   37.8040   28.6040   44.6980 H   0  0  0  0  0  0  0  0  0  0  0  0
   36.0410   27.6470   42.3010 H   0  0  0  0  0  0  0  0  0  0  0  0
   35.9710   26.9800   44.0570 H   0  0  0  0  0  0  0  0  0  0  0  0
   38.3840   26.2910   43.9860 H   0  0  0  0  0  0  0  0  0  0  0  0
   39.2700   31.1990   41.6680 C   0  0  0  0  0  0  0  0  0  0  0  0
   39.1810   30.1470   42.6070 C   0  0  0  0  0  0  0  0  0  0  0  0
   37.9710   29.4770   42.6760 C   0  0  0  0  0  0  0  0  0  0  0  0
   36.9670   29.8600   41.8540 N   0  0  0  0  0  0  0  0  0  0  0  0
   37.0590   30.8680   40.9570 C   0  0  0  0  0  0  0  0  0  0  0  0
   38.2240   31.5290   40.8780 N   0  0  0  0  0  0  0  0  0  0  0  0
   40.1940   31.7450   41.5850 H   0  0  0  0  0  0  0  0  0  0  0  0
   40.0060   29.8680   43.2480 H   0  0  0  0  0  0  0  0  0  0  0  0
   36.1580   31.0380   40.3830 H   0  0  0  0  0  0  0  0  0  0  0  0
   38.4520   26.6090   41.7970 C   0  0  0  0  0  0  0  0  0  0  0  0
   37.7790   26.1790   40.6460 C   0  0  0  0  0  0  0  0  0  0  0  0
   36.7090   26.0440   40.6570 H   0  0  0  0  0  0  0  0  0  0  0  0
   38.6250   25.9820   39.6390 N   0  0  0  0  0  0  0  0  0  0  0  0
   38.2820   25.6580   38.7050 H   0  0  0  0  0  0  0  0  0  0  0  0
   39.8540   26.2720   40.0960 C   0  0  0  0  0  0  0  0  0  0  0  0
   40.7480   26.2010   39.4920 H   0  0  0  0  0  0  0  0  0  0  0  0
   39.7520   26.6450   41.3820 N   0  0  0  0  0  0  0  0  0  0  0  0
  1  4  1  1  0  0  0
  2  1  1  0  0  0  0
  2  6  1  0  0  0  0
  3  2  1  0  0  0  0
  3  1  1  0  0  0  0
  3  7  1  1  0  0  0
  5  2  1  0  0  0  0
  8  9  1  0  0  0  0
  9 10  2  0  0  0  0
  9 15  1  0  0  0  0
 10  1  1  0  0  0  0
 11 10  1  0  0  0  0
 12 11  2  0  0  0  0
 13 12  1  0  0  0  0
 13  8  2  0  0  0  0
 14  8  1  0  0  0  0
 16 12  1  0  0  0  0
 17  3  1  0  0  0  0
 18 19  1  0  0  0  0
 18 17  2  0  0  0  0
 20 22  1  0  0  0  0
 20 18  1  0  0  0  0
 21 20  1  0  0  0  0
 22 24  2  0  0  0  0
 23 22  1  0  0  0  0
 24 17  1  0  0  0  0
M  END
>  <minimizedAffinity>
-4.03261232

$$$$

 OpenBabel03252501023D

 24 26  0  0  1  0  0  0  0  0999 V2000
   37.3000   31.2930   38.1300 C   0  0  1  0  0  0  0  0  0  0  0  0
   37.8340   29.8890   37.9500 C   0  0  0  0  0  0  0  0  0  0  0  0
   36.5880   30.2020   38.7820 C   0  0  1  0  0  0  0  0  0  0  0  0
   36.8980   31.7500   37.1900 H   0  0  0  0  0  0  0  0  0  0  0  0
   38.7520   29.5920   38.4840 H   0  0  0  0  0  0  0  0  0  0  0  0
   37.6270   29.3330   37.0010 H   0  0  0  0  0  0  0  0  0  0  0  0
   35.5890   29.9630   38.3250 H   0  0  0  0  0  0  0  0  0  0  0  0
   40.2840   32.8450   39.8440 C   0  0  0  0  0  0  0  0  0  0  0  0
   39.5420   31.9220   39.0740 C   0  0  0  0  0  0  0  0  0  0  0  0
   38.1880   32.1790   38.9300 C   0  0  0  0  0  0  0  0  0  0  0  0
   37.6680   33.2780   39.5240 N   0  0  0  0  0  0  0  0  0  0  0  0
   38.3850   34.1580   40.2600 C   0  0  0  0  0  0  0  0  0  0  0  0
   39.6980   33.9230   40.4100 N   0  0  0  0  0  0  0  0  0  0  0  0
   41.3390   32.6800   39.9800 H   0  0  0  0  0  0  0  0  0  0  0  0
   39.9930   31.0540   38.6130 H   0  0  0  0  0  0  0  0  0  0  0  0
   37.8060   34.9800   40.6600 H   0  0  0  0  0  0  0  0  0  0  0  0
   36.7320   29.8440   40.2160 C   0  0  0  0  0  0  0  0  0  0  0  0
   36.4150   30.4850   41.4210 C   0  0  0  0  0  0  0  0  0  0  0  0
   35.9710   31.4680   41.4170 H   0  0  0  0  0  0  0  0  0  0  0  0
   36.7380   29.7300   42.4670 N   0  0  0  0  0  0  0  0  0  0  0  0
   36.5660   30.0630   43.4440 H   0  0  0  0  0  0  0  0  0  0  0  0
   37.2670   28.5940   41.9830 C   0  0  0  0  0  0  0  0  0  0  0  0
   37.6230   27.7870   42.6090 H   0  0  0  0  0  0  0  0  0  0  0  0
   37.2640   28.6620   40.6410 N   0  0  0  0  0  0  0  0  0  0  0  0
  1  4  1  6  0  0  0
  1  3  1  0  0  0  0
  1 10  1  0  0  0  0
  2  1  1  0  0  0  0
  2  5  1  0  0  0  0
  2  3  1  0  0  0  0
  3  7  1  6  0  0  0
  3 17  1  0  0  0  0
  6  2  1  0  0  0  0
  8 14  1  0  0  0  0
  8 13  1  0  0  0  0
  9  8  2  0  0  0  0
 10  9  1  0  0  0  0
 10 11  2  0  0  0  0
 11 12  1  0  0  0  0
 12 13  2  0  0  0  0
 12 16  1  0  0  0  0
 15  9  1  0  0  0  0
 17 24  1  0  0  0  0
 17 18  2  0  0  0  0
 18 20  1  0  0  0  0
 19 18  1  0  0  0  0
 20 21  1  0  0  0  0
 22 20  1  0  0  0  0
 22 23  1  0  0  0  0
 24 22  2  0  0  0  0
M  END
>  <minimizedAffinity>
-3.98511624

$$$$

 OpenBabel03252501023D

 24 26  0  0  1  0  0  0  0  0999 V2000
   36.4950   27.8340   42.6700 C   0  0  1  0  0  0  0  0  0  0  0  0
   37.2280   26.5130   42.5830 C   0  0  0  0  0  0  0  0  0  0  0  0
   37.6770   27.6520   43.5010 C   0  0  1  0  0  0  0  0  0  0  0  0
   35.4710   27.7570   43.1170 H   0  0  0  0  0  0  0  0  0  0  0  0
   37.8380   26.2960   41.6910 H   0  0  0  0  0  0  0  0  0  0  0  0
   36.8260   25.6180   43.1220 H   0  0  0  0  0  0  0  0  0  0  0  0
   37.4590   27.5470   44.6000 H   0  0  0  0  0  0  0  0  0  0  0  0
   36.9330   28.9740   39.0970 C   0  0  0  0  0  0  0  0  0  0  0  0
   36.8990   28.0950   40.2040 C   0  0  0  0  0  0  0  0  0  0  0  0
   36.5810   28.6540   41.4310 C   0  0  0  0  0  0  0  0  0  0  0  0
   36.3260   29.9810   41.4960 N   0  0  0  0  0  0  0  0  0  0  0  0
   36.3610   30.8170   40.4320 C   0  0  0  0  0  0  0  0  0  0  0  0
   36.6680   30.2910   39.2360 N   0  0  0  0  0  0  0  0  0  0  0  0
   37.1780   28.5780   38.1260 H   0  0  0  0  0  0  0  0  0  0  0  0
   37.1080   27.0380   40.1140 H   0  0  0  0  0  0  0  0  0  0  0  0
   36.1310   31.8470   40.6670 H   0  0  0  0  0  0  0  0  0  0  0  0
   39.0260   28.1790   43.1700 C   0  0  0  0  0  0  0  0  0  0  0  0
   39.5040   29.3910   42.6570 C   0  0  0  0  0  0  0  0  0  0  0  0
   38.8200   30.1850   42.4030 H   0  0  0  0  0  0  0  0  0  0  0  0
   40.8290   29.3780   42.5470 N   0  0  0  0  0  0  0  0  0  0  0  0
   41.3460   30.2100   42.1780 H   0  0  0  0  0  0  0  0  0  0  0  0
   41.2470   28.1770   42.9770 C   0  0  0  0  0  0  0  0  0  0  0  0
   42.2870   27.8790   43.0010 H   0  0  0  0  0  0  0  0  0  0  0  0
   40.1730   27.4610   43.3480 N   0  0  0  0  0  0  0  0  0  0  0  0
  1  4  1  1  0  0  0
  1  3  1  0  0  0  0
  2  1  1  0  0  0  0
  2  6  1  0  0  0  0
  2  3  1  0  0  0  0
  3  7  1  1  0  0  0
  5  2  1  0  0  0  0
  8 13  2  0  0  0  0
  8  9  1  0  0  0  0
  9 10  2  0  0  0  0
 10 11  1  0  0  0  0
 10  1  1  0  0  0  0
 12 16  1  0  0  0  0
 12 11  2  0  0  0  0
 13 12  1  0  0  0  0
 14  8  1  0  0  0  0
 15  9  1  0  0  0  0
 17 24  1  0  0  0  0
 17  3  1  0  0  0  0
 18 17  2  0  0  0  0
 19 18  1  0  0  0  0
 20 18  1  0  0  0  0
 20 22  1  0  0  0  0
 21 20  1  0  0  0  0
 22 23  1  0  0  0  0
 22 24  2  0  0  0  0
M  END
>  <minimizedAffinity>
-3.95487642

$$$$

 OpenBabel03252501023D

 24 26  0  0  1  0  0  0  0  0999 V2000
   35.4820   29.7740   40.0910 C   0  0  1  0  0  0  0  0  0  0  0  0
   35.6870   28.3730   39.5550 C   0  0  0  0  0  0  0  0  0  0  0  0
   35.7660   28.7110   41.0460 C   0  0  1  0  0  0  0  0  0  0  0  0
   34.4380   30.1600   39.9680 H   0  0  0  0  0  0  0  0  0  0  0  0
   36.6250   28.1330   39.0280 H   0  0  0  0  0  0  0  0  0  0  0  0
   34.8000   27.7530   39.2690 H   0  0  0  0  0  0  0  0  0  0  0  0
   34.8900   28.4190   41.6880 H   0  0  0  0  0  0  0  0  0  0  0  0
   38.2400   31.5870   38.2580 C   0  0  0  0  0  0  0  0  0  0  0  0
   37.2540   30.6080   38.5180 C   0  0  0  0  0  0  0  0  0  0  0  0
   36.5560   30.7300   39.7080 C   0  0  0  0  0  0  0  0  0  0  0  0
   36.8530   31.7590   40.5340 N   0  0  0  0  0  0  0  0  0  0  0  0
   37.7980   32.6930   40.2790 C   0  0  0  0  0  0  0  0  0  0  0  0
   38.4840   32.5890   39.1300 N   0  0  0  0  0  0  0  0  0  0  0  0
   38.8050   31.5260   37.3440 H   0  0  0  0  0  0  0  0  0  0  0  0
   37.0440   29.7980   37.8330 H   0  0  0  0  0  0  0  0  0  0  0  0
   37.9020   33.4450   41.0500 H   0  0  0  0  0  0  0  0  0  0  0  0
   37.1020   28.4490   41.6380 C   0  0  0  0  0  0  0  0  0  0  0  0
   38.1740   27.6110   41.3040 C   0  0  0  0  0  0  0  0  0  0  0  0
   38.1120   26.9610   40.4450 H   0  0  0  0  0  0  0  0  0  0  0  0
   39.1790   27.7480   42.1630 N   0  0  0  0  0  0  0  0  0  0  0  0
   40.0590   27.1920   42.0550 H   0  0  0  0  0  0  0  0  0  0  0  0
   38.7990   28.6640   43.0690 C   0  0  0  0  0  0  0  0  0  0  0  0
   39.4210   28.9810   43.8950 H   0  0  0  0  0  0  0  0  0  0  0  0
   37.5610   29.0820   42.7570 N   0  0  0  0  0  0  0  0  0  0  0  0
  1  4  1  6  0  0  0
  1  3  1  0  0  0  0
  2  1  1  0  0  0  0
  2  3  1  0  0  0  0
  3 17  1  0  0  0  0
  3  7  1  1  0  0  0
  5  2  1  0  0  0  0
  6  2  1  0  0  0  0
  8  9  2  0  0  0  0
  8 13  1  0  0  0  0
  9 10  1  0  0  0  0
 10  1  1  0  0  0  0
 10 11  2  0  0  0  0
 12 11  1  0  0  0  0
 12 16  1  0  0  0  0
 13 12  2  0  0  0  0
 14  8  1  0  0  0  0
 15  9  1  0  0  0  0
 17 24  1  0  0  0  0
 18 17  2  0  0  0  0
 18 20  1  0  0  0  0
 19 18  1  0  0  0  0
 20 22  1  0  0  0  0
 21 20  1  0  0  0  0
 22 23  1  0  0  0  0
 24 22  2  0  0  0  0
M  END
>  <minimizedAffinity>
-3.95421958

$$$$
