
 OpenBabel03252506463D

 41 44  0  0  1  0  0  0  0  0999 V2000
   49.8650   33.5220   41.4740 N   0  0  1  0  0  0  0  0  0  0  0  0
   50.7420   32.8300   42.3830 C   0  0  0  0  0  0  0  0  0  0  0  0
   51.2360   31.5210   41.8320 C   0  0  0  0  0  0  0  0  0  0  0  0
   50.0620   30.5650   41.7620 C   0  0  0  0  0  0  0  0  0  0  0  0
   48.8150   31.2900   41.3330 C   0  0  0  0  0  0  0  0  0  0  0  0
   49.2020   32.5750   40.6460 C   0  0  2  0  0  0  0  0  0  0  0  0
   51.5860   33.4790   42.6570 H   0  0  0  0  0  0  0  0  0  0  0  0
   50.1920   32.6000   43.3390 H   0  0  0  0  0  0  0  0  0  0  0  0
   51.7970   31.6090   40.9050 H   0  0  0  0  0  0  0  0  0  0  0  0
   51.9200   31.1050   42.5970 H   0  0  0  0  0  0  0  0  0  0  0  0
   50.3480   29.7600   41.0490 H   0  0  0  0  0  0  0  0  0  0  0  0
   49.9160   30.1010   42.7600 H   0  0  0  0  0  0  0  0  0  0  0  0
   48.1960   30.7210   40.6330 H   0  0  0  0  0  0  0  0  0  0  0  0
   48.2650   31.5780   42.2590 H   0  0  0  0  0  0  0  0  0  0  0  0
   48.2370   33.0590   40.3280 H   0  0  0  0  0  0  0  0  0  0  0  0
   47.5710   34.6270   41.8970 C   0  0  1  0  0  0  0  0  0  0  0  0
   48.6170   35.6580   41.6760 C   0  0  0  0  0  0  0  0  0  0  0  0
   48.9840   34.3350   42.2460 C   0  0  2  0  0  0  0  0  0  0  0  0
   47.1340   34.2010   40.9560 H   0  0  0  0  0  0  0  0  0  0  0  0
   48.9360   35.8820   40.6220 H   0  0  0  0  0  0  0  0  0  0  0  0
   48.6080   36.5670   42.3080 H   0  0  0  0  0  0  0  0  0  0  0  0
   49.1990   34.3250   43.3450 H   0  0  0  0  0  0  0  0  0  0  0  0
   45.6610   35.8930   42.9310 C   0  0  0  0  0  0  0  0  0  0  0  0
   46.5780   34.8370   42.9560 C   0  0  0  0  0  0  0  0  0  0  0  0
   46.4990   33.9530   44.0480 C   0  0  0  0  0  0  0  0  0  0  0  0
   45.5610   34.1570   45.0080 N   0  0  0  0  0  0  0  0  0  0  0  0
   44.6930   35.2000   44.9380 C   0  0  0  0  0  0  0  0  0  0  0  0
   44.7360   36.0740   43.9000 N   0  0  0  0  0  0  0  0  0  0  0  0
   45.7480   36.5600   42.0710 H   0  0  0  0  0  0  0  0  0  0  0  0
   47.1900   33.1180   44.1150 H   0  0  0  0  0  0  0  0  0  0  0  0
   43.9710   35.3150   45.7330 H   0  0  0  0  0  0  0  0  0  0  0  0
   49.8880   32.2670   39.4030 N   0  0  0  0  0  0  0  0  0  0  0  0
   50.8530   31.9300   39.0890 H   0  0  0  0  0  0  0  0  0  0  0  0
   48.9530   32.4920   38.3230 C   0  0  0  0  0  0  0  0  0  0  0  0
   48.4070   31.8780   37.2180 C   0  0  0  0  0  0  0  0  0  0  0  0
   48.7670   30.8940   37.0490 H   0  0  0  0  0  0  0  0  0  0  0  0
   47.5390   32.7190   36.6340 N   0  0  0  0  0  0  0  0  0  0  0  0
   47.0230   32.4210   35.7720 H   0  0  0  0  0  0  0  0  0  0  0  0
   47.4980   33.8700   37.3280 C   0  0  0  0  0  0  0  0  0  0  0  0
   46.8530   34.6750   37.0130 H   0  0  0  0  0  0  0  0  0  0  0  0
   48.3700   33.7270   38.3680 N   0  0  0  0  0  0  0  0  0  0  0  0
  1 18  1  0  0  0  0
  1  2  1  1  0  0  0
  2  7  1  0  0  0  0
  2  8  1  0  0  0  0
  3  2  1  0  0  0  0
  3 10  1  0  0  0  0
  4  3  1  0  0  0  0
  4 12  1  0  0  0  0
  5  4  1  0  0  0  0
  5 14  1  0  0  0  0
  6 15  1  6  0  0  0
  6  5  1  0  0  0  0
  6  1  1  0  0  0  0
  9  3  1  0  0  0  0
 11  4  1  0  0  0  0
 13  5  1  0  0  0  0
 16 19  1  6  0  0  0
 16 18  1  0  0  0  0
 16 24  1  0  0  0  0
 17 16  1  0  0  0  0
 17 18  1  0  0  0  0
 17 21  1  0  0  0  0
 18 22  1  1  0  0  0
 20 17  1  0  0  0  0
 23 24  2  0  0  0  0
 23 28  1  0  0  0  0
 24 25  1  0  0  0  0
 25 30  1  0  0  0  0
 25 26  2  0  0  0  0
 27 26  1  0  0  0  0
 27 31  1  0  0  0  0
 28 27  2  0  0  0  0
 29 23  1  0  0  0  0
 32  6  1  0  0  0  0
 33 32  1  0  0  0  0
 34 41  1  0  0  0  0
 34 32  1  0  0  0  0
 35 34  2  0  0  0  0
 36 35  1  0  0  0  0
 37 35  1  0  0  0  0
 37 39  1  0  0  0  0
 38 37  1  0  0  0  0
 39 41  2  0  0  0  0
 40 39  1  0  0  0  0
M  END
>  <minimizedAffinity>
-5.1336956

>  <minimizedRMSD>
2.45084333

$$$$
