
 OpenBabel03252506123D

 35 37  0  0  0  0  0  0  0  0999 V2000
   45.1280   33.5420   41.1310 F   0  0  0  0  0  0  0  0  0  0  0  0
   46.3250   34.1250   41.0280 C   0  0  0  0  0  0  0  0  0  0  0  0
   46.8320   34.8220   42.1040 C   0  0  0  0  0  0  0  0  0  0  0  0
   48.0760   35.4600   42.0820 C   0  0  0  0  0  0  0  0  0  0  0  0
   48.8470   35.3940   40.9220 C   0  0  0  0  0  0  0  0  0  0  0  0
   48.3030   34.6840   39.8650 C   0  0  0  0  0  0  0  0  0  0  0  0
   47.0970   34.0610   39.8730 C   0  0  0  0  0  0  0  0  0  0  0  0
   48.4040   35.9870   42.9660 H   0  0  0  0  0  0  0  0  0  0  0  0
   49.7950   35.8980   40.9500 H   0  0  0  0  0  0  0  0  0  0  0  0
   49.0060   34.7070   39.0370 H   0  0  0  0  0  0  0  0  0  0  0  0
   45.4710   33.9990   45.4110 C   0  0  0  0  0  0  0  0  0  0  0  0
   44.6170   35.1030   45.6560 C   0  0  0  0  0  0  0  0  0  0  0  0
   44.5170   36.1230   44.6790 C   0  0  0  0  0  0  0  0  0  0  0  0
   45.2660   35.9690   43.5470 N   0  0  0  0  0  0  0  0  0  0  0  0
   46.0600   34.9150   43.3480 C   0  0  0  0  0  0  0  0  0  0  0  0
   46.1580   33.9440   44.2720 N   0  0  0  0  0  0  0  0  0  0  0  0
   44.0450   35.1910   46.5550 H   0  0  0  0  0  0  0  0  0  0  0  0
   43.8740   36.9790   44.8360 H   0  0  0  0  0  0  0  0  0  0  0  0
   45.5600   32.9880   46.3970 N   0  0  0  0  0  0  0  0  0  0  0  0
   45.5250   31.9360   46.2410 H   0  0  0  0  0  0  0  0  0  0  0  0
   45.6750   33.2790   47.4140 H   0  0  0  0  0  0  0  0  0  0  0  0
   46.6550   33.3870   38.7700 O   0  0  0  0  0  0  0  0  0  0  0  0
   48.2910   34.4900   37.0030 O   0  0  0  0  0  0  0  0  0  0  0  0
   47.4390   33.2800   37.2880 P   0  0  2  0  0  0  0  0  0  0  0  0
   46.2390   33.1040   36.0730 O   0  0  0  0  0  0  0  0  0  0  0  0
   45.9710   32.1400   36.0150 H   0  0  0  0  0  0  0  0  0  0  0  0
   48.3990   31.8980   37.1290 O   0  0  0  0  0  0  0  0  0  0  0  0
   49.6290   31.7180   37.7490 C   0  0  0  0  0  0  0  0  0  0  0  0
   49.6740   31.4180   39.0960 C   0  0  0  0  0  0  0  0  0  0  0  0
   48.9270   31.2710   39.8710 H   0  0  0  0  0  0  0  0  0  0  0  0
   50.9860   31.2970   39.4330 N   0  0  0  0  0  0  0  0  0  0  0  0
   51.4990   31.0790   40.3360 H   0  0  0  0  0  0  0  0  0  0  0  0
   51.7450   31.5120   38.3460 C   0  0  0  0  0  0  0  0  0  0  0  0
   52.7870   31.5390   38.0620 H   0  0  0  0  0  0  0  0  0  0  0  0
   50.9160   31.7740   37.2960 N   0  0  0  0  0  0  0  0  0  0  0  0
  2  1  1  0  0  0  0
  2  3  1  0  0  0  0
  3 15  1  0  0  0  0
  4  3  2  0  0  0  0
  4  8  1  0  0  0  0
  5  9  1  0  0  0  0
  5  4  1  0  0  0  0
  6  7  1  0  0  0  0
  6  5  2  0  0  0  0
  7  2  2  0  0  0  0
 10  6  1  0  0  0  0
 11 12  1  0  0  0  0
 11 19  1  0  0  0  0
 12 17  1  0  0  0  0
 13 18  1  0  0  0  0
 13 12  2  0  0  0  0
 14 13  1  0  0  0  0
 15 14  2  0  0  0  0
 15 16  1  0  0  0  0
 16 11  2  0  0  0  0
 19 21  1  0  0  0  0
 20 19  1  0  0  0  0
 22  7  1  0  0  0  0
 24 23  2  6  0  0  0
 24 22  1  0  0  0  0
 25 24  1  0  0  0  0
 26 25  1  0  0  0  0
 27 24  1  0  0  0  0
 27 28  1  0  0  0  0
 28 29  2  0  0  0  0
 29 31  1  0  0  0  0
 29 30  1  0  0  0  0
 31 32  1  0  0  0  0
 33 31  1  0  0  0  0
 34 33  1  0  0  0  0
 35 28  1  0  0  0  0
 35 33  2  0  0  0  0
M  END
>  <minimizedAffinity>
-6.15634727

>  <minimizedRMSD>
0.89319092

$$$$
