
 OpenBabel03252505143D

 24 26  0  0  0  0  0  0  0  0999 V2000
   44.5850   36.0310   44.2950 C   0  0  0  0  0  0  0  0  0  0  0  0
   45.3580   35.8310   43.1370 C   0  0  0  0  0  0  0  0  0  0  0  0
   46.2380   34.7600   43.1800 C   0  0  0  0  0  0  0  0  0  0  0  0
   46.3240   33.9660   44.2970 N   0  0  0  0  0  0  0  0  0  0  0  0
   45.5500   34.2010   45.3950 C   0  0  0  0  0  0  0  0  0  0  0  0
   44.6870   35.2340   45.3830 N   0  0  0  0  0  0  0  0  0  0  0  0
   43.8760   36.8410   44.3460 H   0  0  0  0  0  0  0  0  0  0  0  0
   45.2760   36.4570   42.2860 H   0  0  0  0  0  0  0  0  0  0  0  0
   47.1000   34.4250   41.9980 C   0  0  0  0  0  0  0  0  0  0  0  0
   48.1980   35.4360   41.7540 C   0  0  0  0  0  0  0  0  0  0  0  0
   48.4680   33.9820   42.2250 C   0  0  0  0  0  0  0  0  0  0  0  0
   46.5180   34.1060   41.1200 H   0  0  0  0  0  0  0  0  0  0  0  0
   48.3670   36.2550   42.4490 H   0  0  0  0  0  0  0  0  0  0  0  0
   48.3740   35.6690   40.6930 H   0  0  0  0  0  0  0  0  0  0  0  0
   48.9740   33.9550   43.1880 H   0  0  0  0  0  0  0  0  0  0  0  0
   48.9640   33.3690   41.4240 H   0  0  0  0  0  0  0  0  0  0  0  0
   45.7730   33.2580   46.4860 C   0  0  0  0  0  0  0  0  0  0  0  0
   46.8820   32.4080   46.4510 C   0  0  0  0  0  0  0  0  0  0  0  0
   47.6600   32.3390   45.6770 H   0  0  0  0  0  0  0  0  0  0  0  0
   46.8640   31.6440   47.5580 N   0  0  0  0  0  0  0  0  0  0  0  0
   47.5850   30.9210   47.7760 H   0  0  0  0  0  0  0  0  0  0  0  0
   45.7640   32.0040   48.2800 C   0  0  0  0  0  0  0  0  0  0  0  0
   45.5760   31.5020   49.2080 H   0  0  0  0  0  0  0  0  0  0  0  0
   45.0970   32.9950   47.6200 N   0  0  0  0  0  0  0  0  0  0  0  0
  1  7  1  0  0  0  0
  1  6  1  0  0  0  0
  2  3  1  0  0  0  0
  2  1  2  0  0  0  0
  3  4  2  0  0  0  0
  4  5  1  0  0  0  0
  5 17  1  0  0  0  0
  6  5  2  0  0  0  0
  8  2  1  0  0  0  0
  9 11  1  0  0  0  0
  9  3  1  0  0  0  0
 10  9  1  0  0  0  0
 10 11  1  0  0  0  0
 10 13  1  0  0  0  0
 11 15  1  0  0  0  0
 12  9  1  0  0  0  0
 14 10  1  0  0  0  0
 16 11  1  0  0  0  0
 17 24  1  0  0  0  0
 18 17  2  0  0  0  0
 18 20  1  0  0  0  0
 19 18  1  0  0  0  0
 20 21  1  0  0  0  0
 20 22  1  0  0  0  0
 22 23  1  0  0  0  0
 24 22  2  0  0  0  0
M  END
>  <minimizedAffinity>
-4.86003399

>  <minimizedRMSD>
0.499003053

$$$$
