
 OpenBabel03252508073D

 43 46  0  0  0  0  0  0  0  0999 V2000
   45.2980   36.1360   42.7300 C   0  0  0  0  0  0  0  0  0  0  0  0
   45.4870   34.7630   42.7230 C   0  0  0  0  0  0  0  0  0  0  0  0
   45.2260   34.0290   43.8550 C   0  0  0  0  0  0  0  0  0  0  0  0
   44.7760   34.7230   44.9610 N   0  0  0  0  0  0  0  0  0  0  0  0
   44.5960   36.0400   44.9610 C   0  0  0  0  0  0  0  0  0  0  0  0
   44.8620   36.7380   43.8350 N   0  0  0  0  0  0  0  0  0  0  0  0
   45.4940   36.7470   41.8600 H   0  0  0  0  0  0  0  0  0  0  0  0
   44.2420   36.5670   45.8370 H   0  0  0  0  0  0  0  0  0  0  0  0
   45.3690   32.6300   44.0090 C   0  0  0  0  0  0  0  0  0  0  0  0
   44.8440   31.6880   43.1210 C   0  0  0  0  0  0  0  0  0  0  0  0
   44.9220   30.3320   43.3030 C   0  0  0  0  0  0  0  0  0  0  0  0
   45.5490   29.8290   44.4190 C   0  0  0  0  0  0  0  0  0  0  0  0
   46.0910   30.7690   45.3360 C   0  0  0  0  0  0  0  0  0  0  0  0
   46.7170   30.2820   46.4530 C   0  0  0  0  0  0  0  0  0  0  0  0
   47.2670   31.1420   47.3840 C   0  0  0  0  0  0  0  0  0  0  0  0
   47.1820   32.5260   47.1740 C   0  0  0  0  0  0  0  0  0  0  0  0
   46.5300   32.9810   46.0120 C   0  0  0  0  0  0  0  0  0  0  0  0
   45.9910   32.1050   45.1120 C   0  0  0  0  0  0  0  0  0  0  0  0
   44.3490   32.0890   42.2390 H   0  0  0  0  0  0  0  0  0  0  0  0
   44.5040   29.6350   42.5920 H   0  0  0  0  0  0  0  0  0  0  0  0
   45.6620   28.7900   44.6550 H   0  0  0  0  0  0  0  0  0  0  0  0
   46.7950   29.2050   46.6370 H   0  0  0  0  0  0  0  0  0  0  0  0
   47.7520   30.6990   48.2550 H   0  0  0  0  0  0  0  0  0  0  0  0
   47.6400   33.1200   47.9480 H   0  0  0  0  0  0  0  0  0  0  0  0
   46.5900   34.0490   46.0230 H   0  0  0  0  0  0  0  0  0  0  0  0
   45.9320   34.2000   41.5620 O   0  0  0  0  0  0  0  0  0  0  0  0
   47.8010   32.4290   41.0820 O   0  0  0  0  0  0  0  0  0  0  0  0
   47.5560   33.8880   41.2040 P   0  0  1  0  0  0  0  0  0  0  0  0
   47.9990   34.5870   39.7260 O   0  0  0  0  0  0  0  0  0  0  0  0
   48.3420   33.8650   38.5920 C   0  0  0  0  0  0  0  0  0  0  0  0
   48.0050   34.4430   37.3940 C   0  0  0  0  0  0  0  0  0  0  0  0
   47.5090   35.3770   37.1040 H   0  0  0  0  0  0  0  0  0  0  0  0
   48.4070   33.6130   36.4020 N   0  0  0  0  0  0  0  0  0  0  0  0
   48.3330   33.6950   35.3640 H   0  0  0  0  0  0  0  0  0  0  0  0
   48.9730   32.5610   37.0110 C   0  0  0  0  0  0  0  0  0  0  0  0
   49.4400   31.6420   36.6240 H   0  0  0  0  0  0  0  0  0  0  0  0
   48.9480   32.6870   38.3670 N   0  0  0  0  0  0  0  0  0  0  0  0
   48.5030   34.5540   42.4160 O   0  0  0  0  0  0  0  0  0  0  0  0
   49.6930   35.2480   42.2580 C   0  0  0  0  0  0  0  0  0  0  0  0
   49.3600   36.3400   41.7700 O   0  0  0  0  0  0  0  0  0  0  0  0
   50.8130   34.4530   42.7070 N   0  0  0  0  0  0  0  0  0  0  0  0
   51.6300   34.0470   42.1920 H   0  0  0  0  0  0  0  0  0  0  0  0
   50.8450   34.2200   43.7440 H   0  0  0  0  0  0  0  0  0  0  0  0
  1  6  1  0  0  0  0
  2  1  2  0  0  0  0
  2  3  1  0  0  0  0
  3  9  1  0  0  0  0
  3  4  2  0  0  0  0
  4  5  1  0  0  0  0
  5  8  1  0  0  0  0
  6  5  2  0  0  0  0
  7  1  1  0  0  0  0
  9 18  1  0  0  0  0
 10 11  1  0  0  0  0
 10  9  2  0  0  0  0
 11 12  2  0  0  0  0
 12 21  1  0  0  0  0
 12 13  1  0  0  0  0
 13 14  1  0  0  0  0
 14 22  1  0  0  0  0
 14 15  2  0  0  0  0
 15 23  1  0  0  0  0
 16 15  1  0  0  0  0
 16 24  1  0  0  0  0
 17 25  1  0  0  0  0
 17 16  2  0  0  0  0
 18 13  2  0  0  0  0
 18 17  1  0  0  0  0
 19 10  1  0  0  0  0
 20 11  1  0  0  0  0
 26  2  1  0  0  0  0
 28 27  2  6  0  0  0
 28 26  1  0  0  0  0
 28 38  1  0  0  0  0
 29 28  1  0  0  0  0
 30 29  1  0  0  0  0
 31 30  2  0  0  0  0
 32 31  1  0  0  0  0
 33 35  1  0  0  0  0
 33 31  1  0  0  0  0
 34 33  1  0  0  0  0
 35 37  2  0  0  0  0
 36 35  1  0  0  0  0
 37 30  1  0  0  0  0
 39 38  1  0  0  0  0
 39 41  1  0  0  0  0
 40 39  2  0  0  0  0
 41 43  1  0  0  0  0
 42 41  1  0  0  0  0
M  END
>  <minimizedAffinity>
-6.16603756

>  <minimizedRMSD>
0.300163031

$$$$
