
 OpenBabel03252506123D

 35 37  0  0  0  0  0  0  0  0999 V2000
   45.0870   33.6080   41.1900 F   0  0  0  0  0  0  0  0  0  0  0  0
   46.2960   34.1660   41.0970 C   0  0  0  0  0  0  0  0  0  0  0  0
   46.8070   34.8560   42.1750 C   0  0  0  0  0  0  0  0  0  0  0  0
   48.0640   35.4670   42.1630 C   0  0  0  0  0  0  0  0  0  0  0  0
   48.8460   35.3810   41.0110 C   0  0  0  0  0  0  0  0  0  0  0  0
   48.2970   34.6800   39.9510 C   0  0  0  0  0  0  0  0  0  0  0  0
   47.0780   34.0820   39.9500 C   0  0  0  0  0  0  0  0  0  0  0  0
   48.3950   35.9910   43.0490 H   0  0  0  0  0  0  0  0  0  0  0  0
   49.8030   35.8660   41.0480 H   0  0  0  0  0  0  0  0  0  0  0  0
   49.0080   34.6850   39.1300 H   0  0  0  0  0  0  0  0  0  0  0  0
   45.4710   34.1220   45.5130 C   0  0  0  0  0  0  0  0  0  0  0  0
   44.5630   35.1930   45.7040 C   0  0  0  0  0  0  0  0  0  0  0  0
   44.4190   36.1610   44.6800 C   0  0  0  0  0  0  0  0  0  0  0  0
   45.1800   35.9900   43.5580 N   0  0  0  0  0  0  0  0  0  0  0  0
   46.0250   34.9690   43.4110 C   0  0  0  0  0  0  0  0  0  0  0  0
   46.1660   34.0480   44.3800 N   0  0  0  0  0  0  0  0  0  0  0  0
   43.9830   35.2950   46.5960 H   0  0  0  0  0  0  0  0  0  0  0  0
   43.7340   36.9910   44.7950 H   0  0  0  0  0  0  0  0  0  0  0  0
   45.6030   33.1630   46.5450 N   0  0  0  0  0  0  0  0  0  0  0  0
   45.6200   32.1050   46.4390 H   0  0  0  0  0  0  0  0  0  0  0  0
   45.6990   33.5070   47.5480 H   0  0  0  0  0  0  0  0  0  0  0  0
   46.6330   33.4140   38.8440 O   0  0  0  0  0  0  0  0  0  0  0  0
   48.1650   34.5790   37.0240 O   0  0  0  0  0  0  0  0  0  0  0  0
   47.4120   33.3170   37.3580 P   0  0  2  0  0  0  0  0  0  0  0  0
   46.2190   33.0070   36.1630 O   0  0  0  0  0  0  0  0  0  0  0  0
   46.0260   32.0240   36.1400 H   0  0  0  0  0  0  0  0  0  0  0  0
   48.4740   32.0090   37.2360 O   0  0  0  0  0  0  0  0  0  0  0  0
   49.5750   31.8090   38.0600 C   0  0  0  0  0  0  0  0  0  0  0  0
   50.8470   31.9650   37.5440 C   0  0  0  0  0  0  0  0  0  0  0  0
   51.2480   32.2300   36.5710 H   0  0  0  0  0  0  0  0  0  0  0  0
   51.7200   31.7120   38.5560 N   0  0  0  0  0  0  0  0  0  0  0  0
   52.7780   31.7090   38.6330 H   0  0  0  0  0  0  0  0  0  0  0  0
   51.0330   31.4070   39.6680 C   0  0  0  0  0  0  0  0  0  0  0  0
   51.2140   31.1380   40.6990 H   0  0  0  0  0  0  0  0  0  0  0  0
   49.7030   31.4640   39.3740 N   0  0  0  0  0  0  0  0  0  0  0  0
  2  1  1  0  0  0  0
  2  3  1  0  0  0  0
  3 15  1  0  0  0  0
  4  3  2  0  0  0  0
  4  8  1  0  0  0  0
  5  9  1  0  0  0  0
  5  4  1  0  0  0  0
  6  5  2  0  0  0  0
  7  6  1  0  0  0  0
  7  2  2  0  0  0  0
 10  6  1  0  0  0  0
 11 12  1  0  0  0  0
 11 19  1  0  0  0  0
 12 17  1  0  0  0  0
 13 18  1  0  0  0  0
 13 12  2  0  0  0  0
 14 13  1  0  0  0  0
 15 14  2  0  0  0  0
 15 16  1  0  0  0  0
 16 11  2  0  0  0  0
 19 21  1  0  0  0  0
 20 19  1  0  0  0  0
 22  7  1  0  0  0  0
 24 23  2  6  0  0  0
 24 22  1  0  0  0  0
 25 24  1  0  0  0  0
 26 25  1  0  0  0  0
 27 24  1  0  0  0  0
 27 28  1  0  0  0  0
 28 35  1  0  0  0  0
 29 28  2  0  0  0  0
 29 31  1  0  0  0  0
 30 29  1  0  0  0  0
 31 32  1  0  0  0  0
 31 33  1  0  0  0  0
 33 34  1  0  0  0  0
 35 33  2  0  0  0  0
M  END
>  <minimizedAffinity>
-6.23771143

>  <minimizedRMSD>
0.649815798

$$$$
