
 OpenBabel03252501343D

 24 25  0  0  0  0  0  0  0  0999 V2000
   44.2650   35.1050   42.5020 C   0  0  0  0  0  0  0  0  0  0  0  0
   44.1880   33.8350   42.6060 O   0  0  0  0  0  0  0  0  0  0  0  0
   45.1460   35.6900   43.4620 N   0  0  0  0  0  0  0  0  0  0  0  0
   45.3120   36.7020   43.4790 H   0  0  0  0  0  0  0  0  0  0  0  0
   45.6820   34.6290   44.3050 C   0  0  0  0  0  0  0  0  0  0  0  0
   45.2820   34.3790   45.5940 C   0  0  0  0  0  0  0  0  0  0  0  0
   45.9150   33.3140   46.2300 C   0  0  0  0  0  0  0  0  0  0  0  0
   46.8440   32.6340   45.5470 N   0  0  0  0  0  0  0  0  0  0  0  0
   47.2090   32.9090   44.2850 C   0  0  0  0  0  0  0  0  0  0  0  0
   46.6150   33.9370   43.6350 N   0  0  0  0  0  0  0  0  0  0  0  0
   45.6030   33.1150   47.2440 H   0  0  0  0  0  0  0  0  0  0  0  0
   47.9730   32.2940   43.8240 H   0  0  0  0  0  0  0  0  0  0  0  0
   44.2840   35.2080   46.1400 N   0  0  0  0  0  0  0  0  0  0  0  0
   43.3080   34.9780   45.8050 H   0  0  0  0  0  0  0  0  0  0  0  0
   44.8710   35.8390   46.7510 H   0  0  0  0  0  0  0  0  0  0  0  0
   43.5830   35.9020   41.5610 O   0  0  0  0  0  0  0  0  0  0  0  0
   42.3090   35.5020   41.1680 C   0  0  0  0  0  0  0  0  0  0  0  0
   41.0410   35.3250   41.6720 C   0  0  0  0  0  0  0  0  0  0  0  0
   40.9460   35.5640   42.7230 H   0  0  0  0  0  0  0  0  0  0  0  0
   40.2730   34.8910   40.6550 N   0  0  0  0  0  0  0  0  0  0  0  0
   39.2510   34.7020   40.8740 H   0  0  0  0  0  0  0  0  0  0  0  0
   41.0050   34.7860   39.5340 C   0  0  0  0  0  0  0  0  0  0  0  0
   40.5830   34.4530   38.5960 H   0  0  0  0  0  0  0  0  0  0  0  0
   42.2600   35.1610   39.8470 N   0  0  0  0  0  0  0  0  0  0  0  0
  1  2  2  0  0  0  0
  1  3  1  0  0  0  0
  3  4  1  0  0  0  0
  3  5  1  0  0  0  0
  5  6  1  0  0  0  0
  6 13  1  0  0  0  0
  6  7  2  0  0  0  0
  7 11  1  0  0  0  0
  8  7  1  0  0  0  0
  9  8  2  0  0  0  0
 10  9  1  0  0  0  0
 10  5  2  0  0  0  0
 12  9  1  0  0  0  0
 13 15  1  0  0  0  0
 14 13  1  0  0  0  0
 16  1  1  0  0  0  0
 17 16  1  0  0  0  0
 17 18  2  0  0  0  0
 18 19  1  0  0  0  0
 20 21  1  0  0  0  0
 20 18  1  0  0  0  0
 22 24  2  0  0  0  0
 22 20  1  0  0  0  0
 23 22  1  0  0  0  0
 24 17  1  0  0  0  0
M  END
>  <minimizedAffinity>
-4.87452888

>  <minimizedRMSD>
0.655361414

$$$$
