
 OpenBabel03242522273D

 37 40  0  0  0  0  0  0  0  0999 V2000
   46.3240   32.3480   44.1010 F   0  0  0  0  0  0  0  0  0  0  0  0
   45.6880   33.5310   44.3490 C   0  0  0  0  0  0  0  0  0  0  0  0
   45.3930   33.9280   45.6190 C   0  0  0  0  0  0  0  0  0  0  0  0
   44.7570   35.1340   45.7680 C   0  0  0  0  0  0  0  0  0  0  0  0
   44.4220   35.9420   44.7000 C   0  0  0  0  0  0  0  0  0  0  0  0
   44.7500   35.4860   43.4490 C   0  0  0  0  0  0  0  0  0  0  0  0
   45.3750   34.2900   43.2460 C   0  0  0  0  0  0  0  0  0  0  0  0
   44.5680   35.3420   46.8370 H   0  0  0  0  0  0  0  0  0  0  0  0
   43.9350   36.8320   45.0500 H   0  0  0  0  0  0  0  0  0  0  0  0
   44.4470   36.3020   42.8370 H   0  0  0  0  0  0  0  0  0  0  0  0
   45.6140   33.8880   41.8790 C   0  0  0  0  0  0  0  0  0  0  0  0
   44.5380   33.4090   41.1320 C   0  0  0  0  0  0  0  0  0  0  0  0
   44.8110   33.0410   39.8290 C   0  0  0  0  0  0  0  0  0  0  0  0
   46.1060   33.1380   39.2710 C   0  0  0  0  0  0  0  0  0  0  0  0
   47.1500   33.6340   40.0890 C   0  0  0  0  0  0  0  0  0  0  0  0
   46.8930   34.0110   41.3980 C   0  0  0  0  0  0  0  0  0  0  0  0
   43.5280   33.2520   41.3840 H   0  0  0  0  0  0  0  0  0  0  0  0
   44.0480   32.6500   39.1380 H   0  0  0  0  0  0  0  0  0  0  0  0
   46.2480   32.8250   38.2280 H   0  0  0  0  0  0  0  0  0  0  0  0
   48.0770   33.6540   39.5450 H   0  0  0  0  0  0  0  0  0  0  0  0
   48.1170   34.5560   41.9150 C   0  0  0  0  0  0  0  0  0  0  0  0
   49.0140   34.0820   42.8940 C   0  0  0  0  0  0  0  0  0  0  0  0
   48.8450   33.1740   43.4380 H   0  0  0  0  0  0  0  0  0  0  0  0
   49.9970   35.0290   42.8970 N   0  0  0  0  0  0  0  0  0  0  0  0
   50.8160   34.9460   43.5360 H   0  0  0  0  0  0  0  0  0  0  0  0
   49.7200   35.9860   42.0020 C   0  0  0  0  0  0  0  0  0  0  0  0
   50.3790   36.8520   41.8360 H   0  0  0  0  0  0  0  0  0  0  0  0
   48.5420   35.7140   41.3690 N   0  0  0  0  0  0  0  0  0  0  0  0
   45.4610   31.8220   48.7610 C   0  0  0  0  0  0  0  0  0  0  0  0
   44.9840   32.6440   47.7290 C   0  0  0  0  0  0  0  0  0  0  0  0
   45.8230   33.0720   46.7260 C   0  0  0  0  0  0  0  0  0  0  0  0
   47.1110   32.6320   46.8310 N   0  0  0  0  0  0  0  0  0  0  0  0
   47.5570   31.8510   47.8130 C   0  0  0  0  0  0  0  0  0  0  0  0
   46.7310   31.4460   48.7770 N   0  0  0  0  0  0  0  0  0  0  0  0
   44.6660   31.5780   49.4710 H   0  0  0  0  0  0  0  0  0  0  0  0
   43.9640   32.9860   47.6570 H   0  0  0  0  0  0  0  0  0  0  0  0
   48.5790   31.5260   47.8600 H   0  0  0  0  0  0  0  0  0  0  0  0
  1  2  1  0  0  0  0
  2  3  1  0  0  0  0
  3  4  2  0  0  0  0
  3 31  1  0  0  0  0
  4  8  1  0  0  0  0
  5  9  1  0  0  0  0
  5  4  1  0  0  0  0
  6  5  2  0  0  0  0
  7  6  1  0  0  0  0
  7  2  2  0  0  0  0
 10  6  1  0  0  0  0
 11  7  1  0  0  0  0
 12 17  1  0  0  0  0
 12 11  2  0  0  0  0
 13 12  1  0  0  0  0
 14 13  2  0  0  0  0
 14 15  1  0  0  0  0
 15 16  2  0  0  0  0
 16 11  1  0  0  0  0
 16 21  1  0  0  0  0
 18 13  1  0  0  0  0
 19 14  1  0  0  0  0
 20 15  1  0  0  0  0
 21 22  2  0  0  0  0
 22 24  1  0  0  0  0
 22 23  1  0  0  0  0
 24 25  1  0  0  0  0
 26 24  1  0  0  0  0
 27 26  1  0  0  0  0
 28 21  1  0  0  0  0
 28 26  2  0  0  0  0
 29 34  1  0  0  0  0
 29 35  1  0  0  0  0
 30 29  2  0  0  0  0
 31 32  2  0  0  0  0
 31 30  1  0  0  0  0
 32 33  1  0  0  0  0
 33 37  1  0  0  0  0
 33 34  2  0  0  0  0
 36 30  1  0  0  0  0
M  END
>  <minimizedAffinity>
-6.76459265

>  <minimizedRMSD>
4.52832174

$$$$
