
 OpenBabel03252501593D

 35 37  0  0  0  0  0  0  0  0999 V2000
   44.4780   35.8450   45.1900 C   0  0  0  0  0  0  0  0  0  0  0  0
   45.2460   35.8950   44.0220 C   0  0  0  0  0  0  0  0  0  0  0  0
   46.1440   34.9010   43.7690 C   0  0  0  0  0  0  0  0  0  0  0  0
   46.2630   33.8770   44.6760 N   0  0  0  0  0  0  0  0  0  0  0  0
   45.5120   33.8390   45.8060 C   0  0  0  0  0  0  0  0  0  0  0  0
   44.6220   34.8160   46.0680 N   0  0  0  0  0  0  0  0  0  0  0  0
   43.7140   36.4300   45.6080 H   0  0  0  0  0  0  0  0  0  0  0  0
   45.7680   32.9500   46.3710 H   0  0  0  0  0  0  0  0  0  0  0  0
   46.9130   34.9460   42.5630 C   0  0  0  0  0  0  0  0  0  0  0  0
   48.0830   35.6000   42.3180 C   0  0  0  0  0  0  0  0  0  0  0  0
   48.6760   35.5170   41.0710 C   0  0  0  0  0  0  0  0  0  0  0  0
   48.1000   34.7790   40.0670 C   0  0  0  0  0  0  0  0  0  0  0  0
   46.9310   34.1140   40.2820 C   0  0  0  0  0  0  0  0  0  0  0  0
   46.3560   34.2110   41.5340 C   0  0  0  0  0  0  0  0  0  0  0  0
   48.4790   36.1630   43.1570 H   0  0  0  0  0  0  0  0  0  0  0  0
   49.6040   36.0680   40.9630 H   0  0  0  0  0  0  0  0  0  0  0  0
   48.6680   34.8030   39.1490 H   0  0  0  0  0  0  0  0  0  0  0  0
   46.5060   33.5430   39.4700 H   0  0  0  0  0  0  0  0  0  0  0  0
   45.4180   33.6420   41.6100 H   0  0  0  0  0  0  0  0  0  0  0  0
   44.9810   37.0340   43.1190 C   0  0  0  0  0  0  0  0  0  0  0  0
   44.0100   36.9800   42.5950 H   0  0  0  0  0  0  0  0  0  0  0  0
   45.7730   36.9760   42.3350 H   0  0  0  0  0  0  0  0  0  0  0  0
   45.1240   38.2350   43.9140 N   0  0  0  0  0  0  0  0  0  0  0  0
   44.9260   38.8020   45.1990 C   0  0  0  0  0  0  0  0  0  0  0  0
   44.3600   38.2150   46.3410 C   0  0  0  0  0  0  0  0  0  0  0  0
   43.9630   37.2110   46.3990 H   0  0  0  0  0  0  0  0  0  0  0  0
   44.4470   39.1850   47.2680 N   0  0  0  0  0  0  0  0  0  0  0  0
   44.0880   39.0260   48.2540 H   0  0  0  0  0  0  0  0  0  0  0  0
   45.0140   40.3100   46.8000 C   0  0  0  0  0  0  0  0  0  0  0  0
   45.1640   41.1970   47.4170 H   0  0  0  0  0  0  0  0  0  0  0  0
   45.3180   40.0830   45.5110 N   0  0  0  0  0  0  0  0  0  0  0  0
   45.6790   39.3330   43.1180 C   0  0  0  0  0  0  0  0  0  0  0  0
   47.0170   39.2910   42.9970 F   0  0  0  0  0  0  0  0  0  0  0  0
   45.3650   40.5640   43.6900 F   0  0  0  0  0  0  0  0  0  0  0  0
   45.0950   39.3010   41.8810 F   0  0  0  0  0  0  0  0  0  0  0  0
  1  7  1  0  0  0  0
  1  6  1  0  0  0  0
  2  1  2  0  0  0  0
  3  2  1  0  0  0  0
  3  4  2  0  0  0  0
  4  5  1  0  0  0  0
  5  6  2  0  0  0  0
  5  8  1  0  0  0  0
  9  3  1  0  0  0  0
 10  9  1  0  0  0  0
 10 15  1  0  0  0  0
 11 10  2  0  0  0  0
 12 13  2  0  0  0  0
 12 11  1  0  0  0  0
 13 14  1  0  0  0  0
 14 19  1  0  0  0  0
 14  9  2  0  0  0  0
 16 11  1  0  0  0  0
 17 12  1  0  0  0  0
 18 13  1  0  0  0  0
 20 23  1  0  0  0  0
 20  2  1  0  0  0  0
 21 20  1  0  0  0  0
 22 20  1  0  0  0  0
 23 24  1  0  0  0  0
 24 31  1  0  0  0  0
 24 25  2  0  0  0  0
 25 26  1  0  0  0  0
 25 27  1  0  0  0  0
 27 28  1  0  0  0  0
 29 27  1  0  0  0  0
 29 30  1  0  0  0  0
 31 29  2  0  0  0  0
 32 34  1  0  0  0  0
 32 23  1  0  0  0  0
 33 32  1  0  0  0  0
 35 32  1  0  0  0  0
M  END
>  <minimizedAffinity>
-0.482186675

>  <minimizedRMSD>
0.668486297

$$$$
