
 OpenBabel03242516523D

 44 47  0  0  1  0  0  0  0  0999 V2000
   47.8210   32.8660   41.8170 C   0  0  1  0  0  0  0  0  0  0  0  0
   47.4930   32.1990   40.5560 C   0  0  0  0  0  0  0  0  0  0  0  0
   48.5030   32.7100   39.5310 C   0  0  0  0  0  0  0  0  0  0  0  0
   48.1570   34.1500   39.2600 C   0  0  0  0  0  0  0  0  0  0  0  0
   48.0940   35.0040   40.4950 C   0  0  0  0  0  0  0  0  0  0  0  0
   47.6130   34.3830   41.7410 C   0  0  1  0  0  0  0  0  0  0  0  0
   48.9400   32.7900   41.9810 H   0  0  0  0  0  0  0  0  0  0  0  0
   47.6250   31.1090   40.6760 H   0  0  0  0  0  0  0  0  0  0  0  0
   46.4870   32.4330   40.1850 H   0  0  0  0  0  0  0  0  0  0  0  0
   49.5350   32.5400   39.8500 H   0  0  0  0  0  0  0  0  0  0  0  0
   48.2530   32.1610   38.5790 H   0  0  0  0  0  0  0  0  0  0  0  0
   48.9180   34.5550   38.5650 H   0  0  0  0  0  0  0  0  0  0  0  0
   47.1880   34.1820   38.7320 H   0  0  0  0  0  0  0  0  0  0  0  0
   47.4120   35.8500   40.2410 H   0  0  0  0  0  0  0  0  0  0  0  0
   49.0960   35.4750   40.6230 H   0  0  0  0  0  0  0  0  0  0  0  0
   48.2190   34.7940   42.5930 H   0  0  0  0  0  0  0  0  0  0  0  0
   45.4280   30.9700   44.0360 C   0  0  0  0  0  0  0  0  0  0  0  0
   46.0920   31.4960   42.9250 C   0  0  0  0  0  0  0  0  0  0  0  0
   47.1870   32.3550   43.0150 C   0  0  0  0  0  0  0  0  0  0  0  0
   47.5800   32.6580   44.2520 N   0  0  0  0  0  0  0  0  0  0  0  0
   46.9440   32.1550   45.3420 C   0  0  0  0  0  0  0  0  0  0  0  0
   45.8940   31.3310   45.2490 N   0  0  0  0  0  0  0  0  0  0  0  0
   44.5920   30.3150   43.8840 H   0  0  0  0  0  0  0  0  0  0  0  0
   45.7090   31.1990   41.9450 H   0  0  0  0  0  0  0  0  0  0  0  0
   47.3620   32.4770   46.3030 H   0  0  0  0  0  0  0  0  0  0  0  0
   46.2330   34.7560   42.0520 C   0  0  0  0  0  0  0  0  0  0  0  0
   45.7960   35.3580   43.2380 C   0  0  0  0  0  0  0  0  0  0  0  0
   44.4340   35.6410   43.3110 C   0  0  0  0  0  0  0  0  0  0  0  0
   43.6360   35.3070   42.2200 C   0  0  0  0  0  0  0  0  0  0  0  0
   44.0930   34.7100   41.0560 C   0  0  0  0  0  0  0  0  0  0  0  0
   45.4280   34.4430   41.0070 N   0  0  0  0  0  0  0  0  0  0  0  0
   46.5170   35.5500   43.9750 H   0  0  0  0  0  0  0  0  0  0  0  0
   44.0640   36.0990   44.1980 H   0  0  0  0  0  0  0  0  0  0  0  0
   42.5860   35.5400   42.3120 H   0  0  0  0  0  0  0  0  0  0  0  0
   43.1730   34.4030   39.9670 C   0  0  0  0  0  0  0  0  0  0  0  0
   42.6120   35.3840   39.3890 O   0  0  0  0  0  0  0  0  0  0  0  0
   42.8340   33.0700   39.4740 C   0  0  0  0  0  0  0  0  0  0  0  0
   41.9990   32.8700   38.3960 C   0  0  0  0  0  0  0  0  0  0  0  0
   41.4700   33.5300   37.7440 H   0  0  0  0  0  0  0  0  0  0  0  0
   41.8960   31.5310   38.2100 N   0  0  0  0  0  0  0  0  0  0  0  0
   41.3490   30.9930   37.4860 H   0  0  0  0  0  0  0  0  0  0  0  0
   42.6220   30.8860   39.1140 C   0  0  0  0  0  0  0  0  0  0  0  0
   42.8370   29.8560   39.3490 H   0  0  0  0  0  0  0  0  0  0  0  0
   43.1850   31.8400   39.8750 N   0  0  0  0  0  0  0  0  0  0  0  0
  1  7  1  1  0  0  0
  1 19  1  0  0  0  0
  2  8  1  0  0  0  0
  2  1  1  0  0  0  0
  3 10  1  0  0  0  0
  3  2  1  0  0  0  0
  4  3  1  0  0  0  0
  4  5  1  0  0  0  0
  5 15  1  0  0  0  0
  5  6  1  0  0  0  0
  6  1  1  0  0  0  0
  6 26  1  0  0  0  0
  6 16  1  1  0  0  0
  9  2  1  0  0  0  0
 11  3  1  0  0  0  0
 12  4  1  0  0  0  0
 13  4  1  0  0  0  0
 14  5  1  0  0  0  0
 17 22  1  0  0  0  0
 18 19  1  0  0  0  0
 18 17  2  0  0  0  0
 19 20  2  0  0  0  0
 20 21  1  0  0  0  0
 21 25  1  0  0  0  0
 22 21  2  0  0  0  0
 23 17  1  0  0  0  0
 24 18  1  0  0  0  0
 26 27  1  0  0  0  0
 27 28  2  0  0  0  0
 27 32  1  0  0  0  0
 28 33  1  0  0  0  0
 29 34  1  0  0  0  0
 29 28  1  0  0  0  0
 30 29  2  0  0  0  0
 31 30  1  0  0  0  0
 31 26  2  0  0  0  0
 35 30  1  0  0  0  0
 36 35  2  0  0  0  0
 37 44  1  0  0  0  0
 37 35  1  0  0  0  0
 38 37  2  0  0  0  0
 39 38  1  0  0  0  0
 40 38  1  0  0  0  0
 40 42  1  0  0  0  0
 41 40  1  0  0  0  0
 42 43  1  0  0  0  0
 42 44  2  0  0  0  0
M  END
>  <minimizedAffinity>
-5.10623264

>  <minimizedRMSD>
0.441570282

$$$$
