
 OpenBabel03242514343D

 25 26  0  0  0  0  0  0  0  0999 V2000
   36.8330   31.3660   38.5740 O   0  0  0  0  0  0  0  0  0  0  0  0
   37.2820   32.0200   39.8470 P   0  0  1  0  0  0  0  0  0  0  0  0
   36.7940   33.6260   39.7920 O   0  0  0  0  0  0  0  0  0  0  0  0
   35.8310   33.7540   39.8260 H   0  0  0  0  0  0  0  0  0  0  0  0
   36.5820   31.2170   41.1830 O   0  0  0  0  0  0  0  0  0  0  0  0
   37.9240   29.6350   42.3450 C   0  0  0  0  0  0  0  0  0  0  0  0
   36.8800   29.8910   41.4710 C   0  0  0  0  0  0  0  0  0  0  0  0
   36.1720   28.8130   40.9140 C   0  0  0  0  0  0  0  0  0  0  0  0
   36.5730   27.5540   41.2860 N   0  0  0  0  0  0  0  0  0  0  0  0
   37.5840   27.3400   42.1320 C   0  0  0  0  0  0  0  0  0  0  0  0
   38.2480   28.3700   42.6520 N   0  0  0  0  0  0  0  0  0  0  0  0
   38.5050   30.4500   42.8030 H   0  0  0  0  0  0  0  0  0  0  0  0
   35.3800   29.0470   40.2500 H   0  0  0  0  0  0  0  0  0  0  0  0
   37.8780   26.3340   42.4070 H   0  0  0  0  0  0  0  0  0  0  0  0
   38.9470   31.9590   39.9490 O   0  0  0  0  0  0  0  0  0  0  0  0
   39.8230   32.9240   39.6040 C   0  0  0  0  0  0  0  0  0  0  0  0
   39.7520   33.9410   40.4070 O   0  0  0  0  0  0  0  0  0  0  0  0
   40.8690   33.1840   38.5740 C   0  0  0  0  0  0  0  0  0  0  0  0
   41.0440   32.5030   37.4040 C   0  0  0  0  0  0  0  0  0  0  0  0
   40.5030   31.6720   36.9830 H   0  0  0  0  0  0  0  0  0  0  0  0
   42.1170   33.1320   36.8400 N   0  0  0  0  0  0  0  0  0  0  0  0
   42.4910   32.8190   35.9130 H   0  0  0  0  0  0  0  0  0  0  0  0
   42.6070   34.1380   37.5720 C   0  0  0  0  0  0  0  0  0  0  0  0
   43.4530   34.7410   37.2760 H   0  0  0  0  0  0  0  0  0  0  0  0
   41.8200   34.1600   38.6520 N   0  0  0  0  0  0  0  0  0  0  0  0
  2  1  2  6  0  0  0
  2 15  1  0  0  0  0
  2  5  1  0  0  0  0
  3  4  1  0  0  0  0
  3  2  1  0  0  0  0
  5  7  1  0  0  0  0
  6 11  1  0  0  0  0
  6 12  1  0  0  0  0
  7  6  2  0  0  0  0
  8  9  2  0  0  0  0
  8  7  1  0  0  0  0
  9 10  1  0  0  0  0
 10 14  1  0  0  0  0
 10 11  2  0  0  0  0
 13  8  1  0  0  0  0
 16 15  1  0  0  0  0
 16 17  2  0  0  0  0
 18 25  1  0  0  0  0
 18 16  1  0  0  0  0
 19 18  2  0  0  0  0
 20 19  1  0  0  0  0
 21 19  1  0  0  0  0
 21 23  1  0  0  0  0
 22 21  1  0  0  0  0
 23 25  2  0  0  0  0
 24 23  1  0  0  0  0
M  END
>  <minimizedAffinity>
-4.93941832

$$$$

 OpenBabel03242514343D

 25 26  0  0  0  0  0  0  0  0999 V2000
   35.3960   28.7510   40.5650 O   0  0  0  0  0  0  0  0  0  0  0  0
   36.4350   29.6700   41.1380 P   0  0  1  0  0  0  0  0  0  0  0  0
   35.7340   31.1860   41.3060 O   0  0  0  0  0  0  0  0  0  0  0  0
   35.0300   31.2320   41.9750 H   0  0  0  0  0  0  0  0  0  0  0  0
   36.9580   29.0700   42.6510 O   0  0  0  0  0  0  0  0  0  0  0  0
   39.1920   28.3620   43.0540 C   0  0  0  0  0  0  0  0  0  0  0  0
   37.8820   28.0370   42.7420 C   0  0  0  0  0  0  0  0  0  0  0  0
   37.5410   26.6900   42.5320 C   0  0  0  0  0  0  0  0  0  0  0  0
   38.5530   25.7720   42.6550 N   0  0  0  0  0  0  0  0  0  0  0  0
   39.8070   26.1170   42.9570 C   0  0  0  0  0  0  0  0  0  0  0  0
   40.1170   27.3970   43.1530 N   0  0  0  0  0  0  0  0  0  0  0  0
   39.5010   29.4040   43.2270 H   0  0  0  0  0  0  0  0  0  0  0  0
   36.5290   26.4800   42.2950 H   0  0  0  0  0  0  0  0  0  0  0  0
   40.5860   25.3690   43.0470 H   0  0  0  0  0  0  0  0  0  0  0  0
   37.7260   29.7780   40.0860 O   0  0  0  0  0  0  0  0  0  0  0  0
   38.5450   30.8320   39.9030 C   0  0  0  0  0  0  0  0  0  0  0  0
   38.7820   31.4510   41.0200 O   0  0  0  0  0  0  0  0  0  0  0  0
   39.2810   31.5140   38.8000 C   0  0  0  0  0  0  0  0  0  0  0  0
   38.8970   31.5870   37.4910 C   0  0  0  0  0  0  0  0  0  0  0  0
   38.0300   31.1920   36.9870 H   0  0  0  0  0  0  0  0  0  0  0  0
   39.9020   32.3090   36.9160 N   0  0  0  0  0  0  0  0  0  0  0  0
   39.8810   32.5300   35.8930 H   0  0  0  0  0  0  0  0  0  0  0  0
   40.8650   32.6790   37.7680 C   0  0  0  0  0  0  0  0  0  0  0  0
   41.7330   33.2550   37.4800 H   0  0  0  0  0  0  0  0  0  0  0  0
   40.4650   32.1770   38.9400 N   0  0  0  0  0  0  0  0  0  0  0  0
  2  1  2  6  0  0  0
  2  3  1  0  0  0  0
  2  5  1  0  0  0  0
  3  4  1  0  0  0  0
  5  7  1  0  0  0  0
  6 11  1  0  0  0  0
  6 12  1  0  0  0  0
  7  6  2  0  0  0  0
  8  9  2  0  0  0  0
  8  7  1  0  0  0  0
  9 10  1  0  0  0  0
 10 14  1  0  0  0  0
 10 11  2  0  0  0  0
 13  8  1  0  0  0  0
 15  2  1  0  0  0  0
 16 15  1  0  0  0  0
 16 17  2  0  0  0  0
 18 25  1  0  0  0  0
 18 16  1  0  0  0  0
 19 18  2  0  0  0  0
 20 19  1  0  0  0  0
 21 19  1  0  0  0  0
 21 23  1  0  0  0  0
 22 21  1  0  0  0  0
 23 25  2  0  0  0  0
 24 23  1  0  0  0  0
M  END
>  <minimizedAffinity>
-4.80493116

$$$$

 OpenBabel03242514343D

 25 26  0  0  0  0  0  0  0  0999 V2000
   34.7130   29.3630   39.5950 O   0  0  0  0  0  0  0  0  0  0  0  0
   35.8610   29.5420   40.5450 P   0  0  1  0  0  0  0  0  0  0  0  0
   35.6540   31.0180   41.3170 O   0  0  0  0  0  0  0  0  0  0  0  0
   34.8880   31.0550   41.9140 H   0  0  0  0  0  0  0  0  0  0  0  0
   35.8750   28.2600   41.6750 O   0  0  0  0  0  0  0  0  0  0  0  0
   37.7960   28.2890   43.0770 C   0  0  0  0  0  0  0  0  0  0  0  0
   37.0620   27.6640   42.0820 C   0  0  0  0  0  0  0  0  0  0  0  0
   37.5400   26.4650   41.5270 C   0  0  0  0  0  0  0  0  0  0  0  0
   38.7270   25.9870   42.0230 N   0  0  0  0  0  0  0  0  0  0  0  0
   39.4110   26.6130   42.9840 C   0  0  0  0  0  0  0  0  0  0  0  0
   38.9480   27.7490   43.5000 N   0  0  0  0  0  0  0  0  0  0  0  0
   37.4580   29.2290   43.5380 H   0  0  0  0  0  0  0  0  0  0  0  0
   36.9520   26.0160   40.7680 H   0  0  0  0  0  0  0  0  0  0  0  0
   40.3470   26.2110   43.3560 H   0  0  0  0  0  0  0  0  0  0  0  0
   37.2940   29.5700   39.6900 O   0  0  0  0  0  0  0  0  0  0  0  0
   38.3460   30.3890   39.8830 C   0  0  0  0  0  0  0  0  0  0  0  0
   39.4090   29.7260   40.2250 O   0  0  0  0  0  0  0  0  0  0  0  0
   38.6730   31.8420   39.8200 C   0  0  0  0  0  0  0  0  0  0  0  0
   39.5320   32.4440   38.9450 C   0  0  0  0  0  0  0  0  0  0  0  0
   40.1340   32.0330   38.1510 H   0  0  0  0  0  0  0  0  0  0  0  0
   39.4670   33.7590   39.3070 N   0  0  0  0  0  0  0  0  0  0  0  0
   40.0330   34.4790   38.8000 H   0  0  0  0  0  0  0  0  0  0  0  0
   38.6400   34.0040   40.3290 C   0  0  0  0  0  0  0  0  0  0  0  0
   38.4690   34.9880   40.7420 H   0  0  0  0  0  0  0  0  0  0  0  0
   38.1500   32.7990   40.6400 N   0  0  0  0  0  0  0  0  0  0  0  0
  2  1  2  6  0  0  0
  2  3  1  0  0  0  0
  2  5  1  0  0  0  0
  3  4  1  0  0  0  0
  5  7  1  0  0  0  0
  6 11  1  0  0  0  0
  6 12  1  0  0  0  0
  7  6  2  0  0  0  0
  8  9  2  0  0  0  0
  8  7  1  0  0  0  0
  9 10  1  0  0  0  0
 10 14  1  0  0  0  0
 10 11  2  0  0  0  0
 13  8  1  0  0  0  0
 15 16  1  0  0  0  0
 15  2  1  0  0  0  0
 16 17  2  0  0  0  0
 18 16  1  0  0  0  0
 18 25  1  0  0  0  0
 19 21  1  0  0  0  0
 19 18  2  0  0  0  0
 20 19  1  0  0  0  0
 21 23  1  0  0  0  0
 22 21  1  0  0  0  0
 23 25  2  0  0  0  0
 23 24  1  0  0  0  0
M  END
>  <minimizedAffinity>
-4.65540266

$$$$

 OpenBabel03242514343D

 25 26  0  0  0  0  0  0  0  0999 V2000
   39.1440   30.1040   37.6840 O   0  0  0  0  0  0  0  0  0  0  0  0
   39.7200   31.4680   37.9290 P   0  0  1  0  0  0  0  0  0  0  0  0
   39.3850   32.4100   36.5800 O   0  0  0  0  0  0  0  0  0  0  0  0
   38.4410   32.6070   36.4530 H   0  0  0  0  0  0  0  0  0  0  0  0
   39.0180   32.1430   39.3330 O   0  0  0  0  0  0  0  0  0  0  0  0
   39.0300   30.5490   41.0980 C   0  0  0  0  0  0  0  0  0  0  0  0
   38.3100   31.3620   40.2380 C   0  0  0  0  0  0  0  0  0  0  0  0
   36.9070   31.3660   40.3120 C   0  0  0  0  0  0  0  0  0  0  0  0
   36.3370   30.5460   41.2530 N   0  0  0  0  0  0  0  0  0  0  0  0
   37.0590   29.7740   42.0690 C   0  0  0  0  0  0  0  0  0  0  0  0
   38.3880   29.7790   41.9880 N   0  0  0  0  0  0  0  0  0  0  0  0
   40.1300   30.5160   41.0740 H   0  0  0  0  0  0  0  0  0  0  0  0
   36.3900   32.0000   39.6370 H   0  0  0  0  0  0  0  0  0  0  0  0
   36.5800   29.1360   42.8030 H   0  0  0  0  0  0  0  0  0  0  0  0
   41.3750   31.3490   38.1140 O   0  0  0  0  0  0  0  0  0  0  0  0
   42.3250   31.7060   37.2270 C   0  0  0  0  0  0  0  0  0  0  0  0
   42.3070   32.9840   36.9980 O   0  0  0  0  0  0  0  0  0  0  0  0
   43.4100   31.0780   36.4200 C   0  0  0  0  0  0  0  0  0  0  0  0
   43.2750   30.0380   35.5460 C   0  0  0  0  0  0  0  0  0  0  0  0
   42.4080   29.4650   35.2590 H   0  0  0  0  0  0  0  0  0  0  0  0
   44.5470   29.8590   35.0830 N   0  0  0  0  0  0  0  0  0  0  0  0
   44.7570   29.1120   34.3810 H   0  0  0  0  0  0  0  0  0  0  0  0
   45.4420   30.7060   35.6040 C   0  0  0  0  0  0  0  0  0  0  0  0
   46.4920   30.7030   35.3470 H   0  0  0  0  0  0  0  0  0  0  0  0
   44.7200   31.4620   36.4370 N   0  0  0  0  0  0  0  0  0  0  0  0
  2  1  2  6  0  0  0
  2 15  1  0  0  0  0
  2  5  1  0  0  0  0
  3  2  1  0  0  0  0
  4  3  1  0  0  0  0
  5  7  1  0  0  0  0
  6 11  1  0  0  0  0
  7  8  1  0  0  0  0
  7  6  2  0  0  0  0
  8  9  2  0  0  0  0
  9 10  1  0  0  0  0
 10 14  1  0  0  0  0
 11 10  2  0  0  0  0
 12  6  1  0  0  0  0
 13  8  1  0  0  0  0
 16 15  1  0  0  0  0
 17 16  2  0  0  0  0
 18 25  1  0  0  0  0
 18 16  1  0  0  0  0
 19 18  2  0  0  0  0
 20 19  1  0  0  0  0
 21 19  1  0  0  0  0
 21 23  1  0  0  0  0
 22 21  1  0  0  0  0
 23 25  2  0  0  0  0
 24 23  1  0  0  0  0
M  END
>  <minimizedAffinity>
-4.45648575

$$$$

 OpenBabel03242514343D

 25 26  0  0  0  0  0  0  0  0999 V2000
   37.5230   29.3960   40.2160 O   0  0  0  0  0  0  0  0  0  0  0  0
   36.3490   30.2170   39.7720 P   0  0  1  0  0  0  0  0  0  0  0  0
   35.6040   30.8230   41.1490 O   0  0  0  0  0  0  0  0  0  0  0  0
   36.1350   31.4750   41.6390 H   0  0  0  0  0  0  0  0  0  0  0  0
   36.8850   31.4860   38.7610 O   0  0  0  0  0  0  0  0  0  0  0  0
   39.1810   32.0910   38.6210 C   0  0  0  0  0  0  0  0  0  0  0  0
   37.9200   32.3300   39.1440 C   0  0  0  0  0  0  0  0  0  0  0  0
   37.7380   33.4040   40.0300 C   0  0  0  0  0  0  0  0  0  0  0  0
   38.8470   34.1580   40.3220 N   0  0  0  0  0  0  0  0  0  0  0  0
   40.0490   33.9030   39.8010 C   0  0  0  0  0  0  0  0  0  0  0  0
   40.2090   32.8810   38.9630 N   0  0  0  0  0  0  0  0  0  0  0  0
   39.3670   31.2610   37.9240 H   0  0  0  0  0  0  0  0  0  0  0  0
   36.7590   33.5570   40.4100 H   0  0  0  0  0  0  0  0  0  0  0  0
   40.9080   34.5160   40.0500 H   0  0  0  0  0  0  0  0  0  0  0  0
   35.2680   29.2460   38.9500 O   0  0  0  0  0  0  0  0  0  0  0  0
   35.0980   29.1590   37.6160 C   0  0  0  0  0  0  0  0  0  0  0  0
   33.8410   29.1990   37.2920 O   0  0  0  0  0  0  0  0  0  0  0  0
   35.9190   29.0350   36.3780 C   0  0  0  0  0  0  0  0  0  0  0  0
   37.2160   28.6140   36.3020 C   0  0  0  0  0  0  0  0  0  0  0  0
   37.9020   28.2980   37.0710 H   0  0  0  0  0  0  0  0  0  0  0  0
   37.4840   28.6840   34.9650 N   0  0  0  0  0  0  0  0  0  0  0  0
   38.4260   28.4150   34.5960 H   0  0  0  0  0  0  0  0  0  0  0  0
   36.4560   29.1120   34.2240 C   0  0  0  0  0  0  0  0  0  0  0  0
   36.4950   29.2250   33.1500 H   0  0  0  0  0  0  0  0  0  0  0  0
   35.4850   29.3280   35.1170 N   0  0  0  0  0  0  0  0  0  0  0  0
  2  1  2  1  0  0  0
  2  3  1  0  0  0  0
  3  4  1  0  0  0  0
  5  7  1  0  0  0  0
  5  2  1  0  0  0  0
  6 11  2  0  0  0  0
  6  7  1  0  0  0  0
  7  8  2  0  0  0  0
  8  9  1  0  0  0  0
  8 13  1  0  0  0  0
 10 14  1  0  0  0  0
 10  9  2  0  0  0  0
 11 10  1  0  0  0  0
 12  6  1  0  0  0  0
 15  2  1  0  0  0  0
 16 15  1  0  0  0  0
 17 16  2  0  0  0  0
 18 16  1  0  0  0  0
 19 18  2  0  0  0  0
 19 20  1  0  0  0  0
 21 19  1  0  0  0  0
 22 21  1  0  0  0  0
 23 21  1  0  0  0  0
 23 25  2  0  0  0  0
 24 23  1  0  0  0  0
 25 18  1  0  0  0  0
M  END
>  <minimizedAffinity>
-4.43975115

$$$$

 OpenBabel03242514343D

 25 26  0  0  0  0  0  0  0  0999 V2000
   37.7220   32.1700   40.7570 O   0  0  0  0  0  0  0  0  0  0  0  0
   36.9140   30.9360   40.4840 P   0  0  1  0  0  0  0  0  0  0  0  0
   35.5640   30.9830   41.4820 O   0  0  0  0  0  0  0  0  0  0  0  0
   34.9330   31.6910   41.2700 H   0  0  0  0  0  0  0  0  0  0  0  0
   36.4530   30.9040   38.8390 O   0  0  0  0  0  0  0  0  0  0  0  0
   34.9840   29.0640   38.5060 C   0  0  0  0  0  0  0  0  0  0  0  0
   36.1680   29.7100   38.1880 C   0  0  0  0  0  0  0  0  0  0  0  0
   37.0240   29.1410   37.2310 C   0  0  0  0  0  0  0  0  0  0  0  0
   36.6180   27.9590   36.6660 N   0  0  0  0  0  0  0  0  0  0  0  0
   35.4700   27.3600   36.9940 C   0  0  0  0  0  0  0  0  0  0  0  0
   34.6680   27.9090   37.9020 N   0  0  0  0  0  0  0  0  0  0  0  0
   34.2850   29.4750   39.2500 H   0  0  0  0  0  0  0  0  0  0  0  0
   37.9210   29.6640   37.0140 H   0  0  0  0  0  0  0  0  0  0  0  0
   35.1760   26.4260   36.5300 H   0  0  0  0  0  0  0  0  0  0  0  0
   37.8190   29.5830   40.8540 O   0  0  0  0  0  0  0  0  0  0  0  0
   37.4460   28.5310   41.6090 C   0  0  0  0  0  0  0  0  0  0  0  0
   37.1890   28.8880   42.8300 O   0  0  0  0  0  0  0  0  0  0  0  0
   37.2270   27.0630   41.4710 C   0  0  0  0  0  0  0  0  0  0  0  0
   36.9100   26.3930   40.3240 C   0  0  0  0  0  0  0  0  0  0  0  0
   36.7520   26.7490   39.3190 H   0  0  0  0  0  0  0  0  0  0  0  0
   36.8270   25.0950   40.7400 N   0  0  0  0  0  0  0  0  0  0  0  0
   36.5920   24.3330   40.0620 H   0  0  0  0  0  0  0  0  0  0  0  0
   37.0670   24.9230   42.0440 C   0  0  0  0  0  0  0  0  0  0  0  0
   37.0440   23.9620   42.5380 H   0  0  0  0  0  0  0  0  0  0  0  0
   37.3160   26.1580   42.4890 N   0  0  0  0  0  0  0  0  0  0  0  0
  2  1  2  1  0  0  0
  2 15  1  0  0  0  0
  2  3  1  0  0  0  0
  4  3  1  0  0  0  0
  5  2  1  0  0  0  0
  6 12  1  0  0  0  0
  7  6  1  0  0  0  0
  7  5  1  0  0  0  0
  8  7  2  0  0  0  0
  9 10  2  0  0  0  0
  9  8  1  0  0  0  0
 10 11  1  0  0  0  0
 11  6  2  0  0  0  0
 13  8  1  0  0  0  0
 14 10  1  0  0  0  0
 15 16  1  0  0  0  0
 16 17  2  0  0  0  0
 18 16  1  0  0  0  0
 18 25  1  0  0  0  0
 19 21  1  0  0  0  0
 19 18  2  0  0  0  0
 20 19  1  0  0  0  0
 21 23  1  0  0  0  0
 22 21  1  0  0  0  0
 23 25  2  0  0  0  0
 23 24  1  0  0  0  0
M  END
>  <minimizedAffinity>
-4.20379877

$$$$

 OpenBabel03242514343D

 25 26  0  0  0  0  0  0  0  0999 V2000
   37.8820   31.8940   37.1930 O   0  0  0  0  0  0  0  0  0  0  0  0
   38.3000   30.6100   37.8480 P   0  0  1  0  0  0  0  0  0  0  0  0
   38.3680   29.4310   36.6550 O   0  0  0  0  0  0  0  0  0  0  0  0
   39.0740   29.5640   36.0000 H   0  0  0  0  0  0  0  0  0  0  0  0
   39.8250   30.8150   38.5900 O   0  0  0  0  0  0  0  0  0  0  0  0
   41.4880   31.9510   37.3230 C   0  0  0  0  0  0  0  0  0  0  0  0
   40.5880   31.9570   38.3770 C   0  0  0  0  0  0  0  0  0  0  0  0
   40.4830   33.1030   39.1830 C   0  0  0  0  0  0  0  0  0  0  0  0
   41.2970   34.1600   38.8600 N   0  0  0  0  0  0  0  0  0  0  0  0
   42.1540   34.1240   37.8360 C   0  0  0  0  0  0  0  0  0  0  0  0
   42.2440   33.0310   37.0810 N   0  0  0  0  0  0  0  0  0  0  0  0
   41.6010   31.0740   36.6680 H   0  0  0  0  0  0  0  0  0  0  0  0
   39.7850   33.0710   39.9800 H   0  0  0  0  0  0  0  0  0  0  0  0
   42.7840   34.9740   37.6050 H   0  0  0  0  0  0  0  0  0  0  0  0
   37.1620   30.1690   38.9870 O   0  0  0  0  0  0  0  0  0  0  0  0
   37.2090   29.1120   39.8230 C   0  0  0  0  0  0  0  0  0  0  0  0
   37.4120   28.0040   39.1790 O   0  0  0  0  0  0  0  0  0  0  0  0
   37.1040   28.8200   41.2810 C   0  0  0  0  0  0  0  0  0  0  0  0
   37.3490   29.6910   42.3040 C   0  0  0  0  0  0  0  0  0  0  0  0
   37.6580   30.7230   42.2940 H   0  0  0  0  0  0  0  0  0  0  0  0
   37.1090   28.9350   43.4150 N   0  0  0  0  0  0  0  0  0  0  0  0
   37.2180   29.3450   44.3720 H   0  0  0  0  0  0  0  0  0  0  0  0
   36.7390   27.6770   43.1510 C   0  0  0  0  0  0  0  0  0  0  0  0
   36.5110   26.9450   43.9120 H   0  0  0  0  0  0  0  0  0  0  0  0
   36.7400   27.6180   41.8150 N   0  0  0  0  0  0  0  0  0  0  0  0
  2  1  2  6  0  0  0
  2  5  1  0  0  0  0
  2 15  1  0  0  0  0
  3  2  1  0  0  0  0
  4  3  1  0  0  0  0
  6  7  1  0  0  0  0
  7  5  1  0  0  0  0
  7  8  2  0  0  0  0
  8 13  1  0  0  0  0
  9  8  1  0  0  0  0
 10  9  2  0  0  0  0
 11  6  2  0  0  0  0
 11 10  1  0  0  0  0
 12  6  1  0  0  0  0
 14 10  1  0  0  0  0
 15 16  1  0  0  0  0
 16 18  1  0  0  0  0
 17 16  2  0  0  0  0
 18 25  1  0  0  0  0
 18 19  2  0  0  0  0
 19 21  1  0  0  0  0
 20 19  1  0  0  0  0
 21 22  1  0  0  0  0
 23 21  1  0  0  0  0
 23 24  1  0  0  0  0
 25 23  2  0  0  0  0
M  END
>  <minimizedAffinity>
-4.16930151

$$$$

 OpenBabel03242514343D

 25 26  0  0  0  0  0  0  0  0999 V2000
   37.5800   28.9800   38.7260 O   0  0  0  0  0  0  0  0  0  0  0  0
   36.5010   30.0030   38.9270 P   0  0  1  0  0  0  0  0  0  0  0  0
   35.1750   29.5270   38.0150 O   0  0  0  0  0  0  0  0  0  0  0  0
   34.7440   28.7130   38.3270 H   0  0  0  0  0  0  0  0  0  0  0  0
   36.0980   30.0940   40.5850 O   0  0  0  0  0  0  0  0  0  0  0  0
   36.3780   28.1360   41.9060 C   0  0  0  0  0  0  0  0  0  0  0  0
   36.8210   29.3990   41.5470 C   0  0  0  0  0  0  0  0  0  0  0  0
   37.9700   29.9230   42.1620 C   0  0  0  0  0  0  0  0  0  0  0  0
   38.5860   29.1280   43.0950 N   0  0  0  0  0  0  0  0  0  0  0  0
   38.1350   27.9140   43.4190 C   0  0  0  0  0  0  0  0  0  0  0  0
   37.0450   27.4290   42.8300 N   0  0  0  0  0  0  0  0  0  0  0  0
   35.4830   27.6880   41.4490 H   0  0  0  0  0  0  0  0  0  0  0  0
   38.2790   30.8920   41.8620 H   0  0  0  0  0  0  0  0  0  0  0  0
   38.6440   27.3090   44.1610 H   0  0  0  0  0  0  0  0  0  0  0  0
   37.0330   31.4890   38.3830 O   0  0  0  0  0  0  0  0  0  0  0  0
   37.6620   32.4440   39.0970 C   0  0  0  0  0  0  0  0  0  0  0  0
   36.9470   33.5250   39.1800 O   0  0  0  0  0  0  0  0  0  0  0  0
   38.9410   32.6440   39.8370 C   0  0  0  0  0  0  0  0  0  0  0  0
   39.2370   33.6720   40.6840 C   0  0  0  0  0  0  0  0  0  0  0  0
   38.6530   34.5250   40.9910 H   0  0  0  0  0  0  0  0  0  0  0  0
   40.5090   33.3820   41.0870 N   0  0  0  0  0  0  0  0  0  0  0  0
   41.0120   34.0100   41.7560 H   0  0  0  0  0  0  0  0  0  0  0  0
   41.0080   32.2610   40.5540 C   0  0  0  0  0  0  0  0  0  0  0  0
   41.9990   31.8840   40.7640 H   0  0  0  0  0  0  0  0  0  0  0  0
   40.0190   31.8090   39.7750 N   0  0  0  0  0  0  0  0  0  0  0  0
  2  1  2  6  0  0  0
  2  5  1  0  0  0  0
  3  4  1  0  0  0  0
  3  2  1  0  0  0  0
  5  7  1  0  0  0  0
  6 11  1  0  0  0  0
  7  6  2  0  0  0  0
  7  8  1  0  0  0  0
  8  9  2  0  0  0  0
  9 10  1  0  0  0  0
 10 14  1  0  0  0  0
 11 10  2  0  0  0  0
 12  6  1  0  0  0  0
 13  8  1  0  0  0  0
 15  2  1  0  0  0  0
 15 16  1  0  0  0  0
 16 17  2  0  0  0  0
 16 18  1  0  0  0  0
 18 19  2  0  0  0  0
 19 20  1  0  0  0  0
 19 21  1  0  0  0  0
 21 22  1  0  0  0  0
 23 24  1  0  0  0  0
 23 21  1  0  0  0  0
 25 18  1  0  0  0  0
 25 23  2  0  0  0  0
M  END
>  <minimizedAffinity>
-4.16684055

$$$$

 OpenBabel03242514343D

 25 26  0  0  0  0  0  0  0  0999 V2000
   37.0220   32.9010   38.7240 O   0  0  0  0  0  0  0  0  0  0  0  0
   37.3650   31.5100   39.1700 P   0  0  1  0  0  0  0  0  0  0  0  0
   37.0460   30.4740   37.8870 O   0  0  0  0  0  0  0  0  0  0  0  0
   37.6310   30.5920   37.1200 H   0  0  0  0  0  0  0  0  0  0  0  0
   39.0140   31.4400   39.6130 O   0  0  0  0  0  0  0  0  0  0  0  0
   40.4190   33.3570   39.5380 C   0  0  0  0  0  0  0  0  0  0  0  0
   39.9780   32.1860   38.9450 C   0  0  0  0  0  0  0  0  0  0  0  0
   40.5140   31.8000   37.7050 C   0  0  0  0  0  0  0  0  0  0  0  0
   41.4600   32.6310   37.1580 N   0  0  0  0  0  0  0  0  0  0  0  0
   41.8650   33.7540   37.7550 C   0  0  0  0  0  0  0  0  0  0  0  0
   41.3480   34.1090   38.9300 N   0  0  0  0  0  0  0  0  0  0  0  0
   40.0250   33.6950   40.5090 H   0  0  0  0  0  0  0  0  0  0  0  0
   40.1520   30.8980   37.2820 H   0  0  0  0  0  0  0  0  0  0  0  0
   42.6140   34.3910   37.2990 H   0  0  0  0  0  0  0  0  0  0  0  0
   36.4030   31.0860   40.4660 O   0  0  0  0  0  0  0  0  0  0  0  0
   36.2340   29.8560   40.9910 C   0  0  0  0  0  0  0  0  0  0  0  0
   35.1680   29.2810   40.5230 O   0  0  0  0  0  0  0  0  0  0  0  0
   36.9060   28.9360   41.9520 C   0  0  0  0  0  0  0  0  0  0  0  0
   36.6260   27.6130   42.1410 C   0  0  0  0  0  0  0  0  0  0  0  0
   35.8990   26.9710   41.6720 H   0  0  0  0  0  0  0  0  0  0  0  0
   37.5130   27.2470   43.1130 N   0  0  0  0  0  0  0  0  0  0  0  0
   37.5340   26.2640   43.4720 H   0  0  0  0  0  0  0  0  0  0  0  0
   38.3070   28.2400   43.5290 C   0  0  0  0  0  0  0  0  0  0  0  0
   39.0650   28.1240   44.2900 H   0  0  0  0  0  0  0  0  0  0  0  0
   37.9190   29.2890   42.7960 N   0  0  0  0  0  0  0  0  0  0  0  0
  2  1  2  6  0  0  0
  2  5  1  0  0  0  0
  2 15  1  0  0  0  0
  3  2  1  0  0  0  0
  4  3  1  0  0  0  0
  6 12  1  0  0  0  0
  7  6  1  0  0  0  0
  7  5  1  0  0  0  0
  8  7  2  0  0  0  0
  9  8  1  0  0  0  0
  9 10  2  0  0  0  0
 10 11  1  0  0  0  0
 11  6  2  0  0  0  0
 13  8  1  0  0  0  0
 14 10  1  0  0  0  0
 15 16  1  0  0  0  0
 16 18  1  0  0  0  0
 17 16  2  0  0  0  0
 18 19  2  0  0  0  0
 18 25  1  0  0  0  0
 19 21  1  0  0  0  0
 20 19  1  0  0  0  0
 21 22  1  0  0  0  0
 21 23  1  0  0  0  0
 23 24  1  0  0  0  0
 25 23  2  0  0  0  0
M  END
>  <minimizedAffinity>
-4.16246891

$$$$
