
 OpenBabel03242515023D

 36 38  0  0  0  0  0  0  0  0999 V2000
   37.8550   30.9670   39.7650 S   0  0  0  0  0  0  0  0  0  0  0  0
   38.6660   32.5570   39.9330 C   0  0  0  0  0  0  0  0  0  0  0  0
   37.8340   33.6820   40.0000 C   0  0  0  0  0  0  0  0  0  0  0  0
   38.4240   34.9380   40.1320 C   0  0  0  0  0  0  0  0  0  0  0  0
   39.7720   35.0040   40.1860 N   0  0  0  0  0  0  0  0  0  0  0  0
   40.5570   33.9280   40.1210 C   0  0  0  0  0  0  0  0  0  0  0  0
   39.9980   32.7240   39.9960 N   0  0  0  0  0  0  0  0  0  0  0  0
   36.7570   33.5880   39.9530 H   0  0  0  0  0  0  0  0  0  0  0  0
   37.7950   35.7950   40.1820 H   0  0  0  0  0  0  0  0  0  0  0  0
   41.9970   34.0890   40.1880 C   0  0  0  0  0  0  0  0  0  0  0  0
   42.5330   34.2780   41.3090 O   0  0  0  0  0  0  0  0  0  0  0  0
   42.8150   34.0350   38.9780 C   0  0  0  0  0  0  0  0  0  0  0  0
   42.4510   34.5140   37.7370 C   0  0  0  0  0  0  0  0  0  0  0  0
   41.5360   35.0000   37.4240 H   0  0  0  0  0  0  0  0  0  0  0  0
   43.4970   34.2580   36.9270 N   0  0  0  0  0  0  0  0  0  0  0  0
   43.6450   34.4520   35.9100 H   0  0  0  0  0  0  0  0  0  0  0  0
   44.5000   33.6370   37.6110 C   0  0  0  0  0  0  0  0  0  0  0  0
   45.4620   33.3020   37.2490 H   0  0  0  0  0  0  0  0  0  0  0  0
   44.0490   33.5090   38.8930 N   0  0  0  0  0  0  0  0  0  0  0  0
   36.5560   30.7330   40.9730 C   0  0  0  0  0  0  0  0  0  0  0  0
   37.0250   30.4690   41.9620 H   0  0  0  0  0  0  0  0  0  0  0  0
   35.9850   31.6780   41.1650 H   0  0  0  0  0  0  0  0  0  0  0  0
   35.6140   29.6160   40.6230 C   0  0  0  0  0  0  0  0  0  0  0  0
   35.3490   29.5650   39.5430 H   0  0  0  0  0  0  0  0  0  0  0  0
   34.6910   29.7770   41.2110 H   0  0  0  0  0  0  0  0  0  0  0  0
   36.0640   27.6160   38.3810 Cl  0  0  0  0  0  0  0  0  0  0  0  0
   36.4310   27.3120   40.0590 C   0  0  0  0  0  0  0  0  0  0  0  0
   36.1820   28.3100   41.0150 C   0  0  0  0  0  0  0  0  0  0  0  0
   36.5020   27.9840   42.3200 C   0  0  0  0  0  0  0  0  0  0  0  0
   37.0380   26.7740   42.7530 C   0  0  0  0  0  0  0  0  0  0  0  0
   37.2710   25.8150   41.7950 C   0  0  0  0  0  0  0  0  0  0  0  0
   37.9470   24.2660   42.2740 Cl  0  0  0  0  0  0  0  0  0  0  0  0
   36.9670   26.0970   40.4830 C   0  0  0  0  0  0  0  0  0  0  0  0
   36.3170   28.7450   43.0810 H   0  0  0  0  0  0  0  0  0  0  0  0
   37.2540   26.6150   43.7950 H   0  0  0  0  0  0  0  0  0  0  0  0
   37.1550   25.3330   39.7330 H   0  0  0  0  0  0  0  0  0  0  0  0
  1  2  1  0  0  0  0
  1 20  1  0  0  0  0
  2  7  2  0  0  0  0
  2  3  1  0  0  0  0
  3  4  2  0  0  0  0
  4  9  1  0  0  0  0
  4  5  1  0  0  0  0
  6  5  2  0  0  0  0
  6 10  1  0  0  0  0
  7  6  1  0  0  0  0
  8  3  1  0  0  0  0
 10 11  2  0  0  0  0
 12 10  1  0  0  0  0
 13 12  2  0  0  0  0
 14 13  1  0  0  0  0
 15 17  1  0  0  0  0
 15 13  1  0  0  0  0
 16 15  1  0  0  0  0
 17 19  2  0  0  0  0
 18 17  1  0  0  0  0
 19 12  1  0  0  0  0
 20 22  1  0  0  0  0
 20 21  1  0  0  0  0
 23 20  1  0  0  0  0
 23 28  1  0  0  0  0
 23 25  1  0  0  0  0
 24 23  1  0  0  0  0
 26 27  1  0  0  0  0
 27 33  2  0  0  0  0
 27 28  1  0  0  0  0
 28 29  2  0  0  0  0
 29 30  1  0  0  0  0
 29 34  1  0  0  0  0
 30 35  1  0  0  0  0
 31 32  1  0  0  0  0
 31 30  2  0  0  0  0
 33 31  1  0  0  0  0
 36 33  1  0  0  0  0
M  END
>  <minimizedAffinity>
-6.21590137

$$$$

 OpenBabel03242515023D

 36 38  0  0  0  0  0  0  0  0999 V2000
   37.1240   30.8430   38.8810 S   0  0  0  0  0  0  0  0  0  0  0  0
   38.1070   32.2620   39.3680 C   0  0  0  0  0  0  0  0  0  0  0  0
   37.4120   33.4550   39.6070 C   0  0  0  0  0  0  0  0  0  0  0  0
   38.1380   34.5820   39.9880 C   0  0  0  0  0  0  0  0  0  0  0  0
   39.4780   34.4650   40.1050 N   0  0  0  0  0  0  0  0  0  0  0  0
   40.1330   33.3250   39.8740 C   0  0  0  0  0  0  0  0  0  0  0  0
   39.4430   32.2440   39.5100 N   0  0  0  0  0  0  0  0  0  0  0  0
   36.3360   33.5080   39.5020 H   0  0  0  0  0  0  0  0  0  0  0  0
   37.6130   35.4900   40.1700 H   0  0  0  0  0  0  0  0  0  0  0  0
   41.5740   33.2870   40.0240 C   0  0  0  0  0  0  0  0  0  0  0  0
   42.0580   33.0270   41.1540 O   0  0  0  0  0  0  0  0  0  0  0  0
   42.4540   33.5450   38.8860 C   0  0  0  0  0  0  0  0  0  0  0  0
   42.2510   34.4980   37.9100 C   0  0  0  0  0  0  0  0  0  0  0  0
   41.4430   35.2090   37.7950 H   0  0  0  0  0  0  0  0  0  0  0  0
   43.2980   34.3880   37.0690 N   0  0  0  0  0  0  0  0  0  0  0  0
   43.5410   34.9130   36.1980 H   0  0  0  0  0  0  0  0  0  0  0  0
   44.1480   33.4040   37.4790 C   0  0  0  0  0  0  0  0  0  0  0  0
   45.0700   33.0700   37.0250 H   0  0  0  0  0  0  0  0  0  0  0  0
   43.5980   32.8910   38.6190 N   0  0  0  0  0  0  0  0  0  0  0  0
   36.1930   30.1590   40.2470 C   0  0  0  0  0  0  0  0  0  0  0  0
   35.1670   30.6230   40.2550 H   0  0  0  0  0  0  0  0  0  0  0  0
   36.0130   29.0600   40.1250 H   0  0  0  0  0  0  0  0  0  0  0  0
   36.8110   30.4400   41.5880 C   0  0  0  0  0  0  0  0  0  0  0  0
   36.0830   30.7620   42.3660 H   0  0  0  0  0  0  0  0  0  0  0  0
   37.5530   31.2460   41.4380 H   0  0  0  0  0  0  0  0  0  0  0  0
   39.6120   30.9070   42.6650 Cl  0  0  0  0  0  0  0  0  0  0  0  0
   38.8240   29.3520   42.6160 C   0  0  0  0  0  0  0  0  0  0  0  0
   37.5240   29.2510   42.0960 C   0  0  0  0  0  0  0  0  0  0  0  0
   36.9750   27.9810   42.0950 C   0  0  0  0  0  0  0  0  0  0  0  0
   37.5940   26.8220   42.5580 C   0  0  0  0  0  0  0  0  0  0  0  0
   38.8670   26.9520   43.0630 C   0  0  0  0  0  0  0  0  0  0  0  0
   39.7030   25.5300   43.6630 Cl  0  0  0  0  0  0  0  0  0  0  0  0
   39.4510   28.1980   43.0820 C   0  0  0  0  0  0  0  0  0  0  0  0
   35.9650   27.8780   41.6960 H   0  0  0  0  0  0  0  0  0  0  0  0
   37.0820   25.8770   42.5150 H   0  0  0  0  0  0  0  0  0  0  0  0
   40.4570   28.2900   43.4830 H   0  0  0  0  0  0  0  0  0  0  0  0
  1  2  1  0  0  0  0
  1 20  1  0  0  0  0
  2  7  2  0  0  0  0
  2  3  1  0  0  0  0
  3  4  2  0  0  0  0
  4  5  1  0  0  0  0
  4  9  1  0  0  0  0
  6 10  1  0  0  0  0
  6  5  2  0  0  0  0
  7  6  1  0  0  0  0
  8  3  1  0  0  0  0
 10 11  2  0  0  0  0
 12 10  1  0  0  0  0
 13 12  2  0  0  0  0
 14 13  1  0  0  0  0
 15 17  1  0  0  0  0
 15 13  1  0  0  0  0
 16 15  1  0  0  0  0
 17 19  2  0  0  0  0
 18 17  1  0  0  0  0
 19 12  1  0  0  0  0
 20 21  1  0  0  0  0
 20 23  1  0  0  0  0
 22 20  1  0  0  0  0
 23 28  1  0  0  0  0
 23 24  1  0  0  0  0
 25 23  1  0  0  0  0
 27 26  1  0  0  0  0
 27 33  1  0  0  0  0
 28 27  2  0  0  0  0
 29 28  1  0  0  0  0
 29 30  2  0  0  0  0
 30 31  1  0  0  0  0
 31 33  2  0  0  0  0
 31 32  1  0  0  0  0
 33 36  1  0  0  0  0
 34 29  1  0  0  0  0
 35 30  1  0  0  0  0
M  END
>  <minimizedAffinity>
-5.99105263

$$$$

 OpenBabel03242515023D

 36 38  0  0  0  0  0  0  0  0999 V2000
   37.3140   31.9270   40.4730 S   0  0  0  0  0  0  0  0  0  0  0  0
   38.7280   33.0270   40.4110 C   0  0  0  0  0  0  0  0  0  0  0  0
   38.4580   34.3850   40.1960 C   0  0  0  0  0  0  0  0  0  0  0  0
   39.5300   35.2750   40.1410 C   0  0  0  0  0  0  0  0  0  0  0  0
   40.7770   34.7780   40.2960 N   0  0  0  0  0  0  0  0  0  0  0  0
   41.0250   33.4830   40.4990 C   0  0  0  0  0  0  0  0  0  0  0  0
   40.0040   32.6280   40.5540 N   0  0  0  0  0  0  0  0  0  0  0  0
   37.4450   34.7440   40.0770 H   0  0  0  0  0  0  0  0  0  0  0  0
   39.3290   36.3070   39.9780 H   0  0  0  0  0  0  0  0  0  0  0  0
   42.3950   33.0350   40.6560 C   0  0  0  0  0  0  0  0  0  0  0  0
   42.6830   31.8510   40.3470 O   0  0  0  0  0  0  0  0  0  0  0  0
   43.4270   33.9360   41.1640 C   0  0  0  0  0  0  0  0  0  0  0  0
   44.5540   34.3380   40.4790 C   0  0  0  0  0  0  0  0  0  0  0  0
   44.8850   34.0820   39.4810 H   0  0  0  0  0  0  0  0  0  0  0  0
   45.2170   35.1590   41.3180 N   0  0  0  0  0  0  0  0  0  0  0  0
   46.1150   35.6820   41.2040 H   0  0  0  0  0  0  0  0  0  0  0  0
   44.5500   35.2860   42.5000 C   0  0  0  0  0  0  0  0  0  0  0  0
   44.8180   35.8670   43.3720 H   0  0  0  0  0  0  0  0  0  0  0  0
   43.4320   34.5110   42.3800 N   0  0  0  0  0  0  0  0  0  0  0  0
   37.7820   30.2340   40.8130 C   0  0  0  0  0  0  0  0  0  0  0  0
   37.1970   29.5530   40.1330 H   0  0  0  0  0  0  0  0  0  0  0  0
   38.8570   30.0370   40.5640 H   0  0  0  0  0  0  0  0  0  0  0  0
   37.4850   29.8060   42.2220 C   0  0  0  0  0  0  0  0  0  0  0  0
   36.4960   29.3110   42.3490 H   0  0  0  0  0  0  0  0  0  0  0  0
   37.5110   30.7180   42.8480 H   0  0  0  0  0  0  0  0  0  0  0  0
   36.5040   27.3910   43.7810 Cl  0  0  0  0  0  0  0  0  0  0  0  0
   38.1820   27.7330   43.4510 C   0  0  0  0  0  0  0  0  0  0  0  0
   38.5230   28.8820   42.7190 C   0  0  0  0  0  0  0  0  0  0  0  0
   39.8760   29.0760   42.5040 C   0  0  0  0  0  0  0  0  0  0  0  0
   40.9020   28.2430   42.9440 C   0  0  0  0  0  0  0  0  0  0  0  0
   40.5380   27.1260   43.6590 C   0  0  0  0  0  0  0  0  0  0  0  0
   41.7830   26.0350   44.2430 Cl  0  0  0  0  0  0  0  0  0  0  0  0
   39.2020   26.8940   43.8960 C   0  0  0  0  0  0  0  0  0  0  0  0
   40.1660   29.9620   41.9360 H   0  0  0  0  0  0  0  0  0  0  0  0
   41.9280   28.4810   42.7250 H   0  0  0  0  0  0  0  0  0  0  0  0
   38.9250   26.0090   44.4620 H   0  0  0  0  0  0  0  0  0  0  0  0
  1 20  1  0  0  0  0
  2  1  1  0  0  0  0
  2  7  1  0  0  0  0
  3  2  2  0  0  0  0
  4  3  1  0  0  0  0
  4  5  2  0  0  0  0
  5  6  1  0  0  0  0
  6  7  2  0  0  0  0
  6 10  1  0  0  0  0
  8  3  1  0  0  0  0
  9  4  1  0  0  0  0
 10 12  1  0  0  0  0
 11 10  2  0  0  0  0
 12 19  1  0  0  0  0
 13 12  2  0  0  0  0
 13 15  1  0  0  0  0
 14 13  1  0  0  0  0
 15 17  1  0  0  0  0
 16 15  1  0  0  0  0
 17 18  1  0  0  0  0
 19 17  2  0  0  0  0
 20 23  1  0  0  0  0
 21 20  1  0  0  0  0
 22 20  1  0  0  0  0
 23 24  1  0  0  0  0
 23 28  1  0  0  0  0
 23 25  1  0  0  0  0
 27 26  1  0  0  0  0
 27 33  1  0  0  0  0
 28 27  2  0  0  0  0
 29 28  1  0  0  0  0
 29 30  2  0  0  0  0
 30 31  1  0  0  0  0
 31 33  2  0  0  0  0
 31 32  1  0  0  0  0
 33 36  1  0  0  0  0
 34 29  1  0  0  0  0
 35 30  1  0  0  0  0
M  END
>  <minimizedAffinity>
-5.83829546

$$$$

 OpenBabel03242515023D

 36 38  0  0  0  0  0  0  0  0999 V2000
   37.9480   30.5640   39.0450 S   0  0  0  0  0  0  0  0  0  0  0  0
   38.5220   32.2240   39.4030 C   0  0  0  0  0  0  0  0  0  0  0  0
   37.5390   33.1810   39.6870 C   0  0  0  0  0  0  0  0  0  0  0  0
   37.9420   34.4850   39.9720 C   0  0  0  0  0  0  0  0  0  0  0  0
   39.2650   34.7570   39.9570 N   0  0  0  0  0  0  0  0  0  0  0  0
   40.1950   33.8400   39.6850 C   0  0  0  0  0  0  0  0  0  0  0  0
   39.8150   32.5920   39.4130 N   0  0  0  0  0  0  0  0  0  0  0  0
   36.4880   32.9230   39.6890 H   0  0  0  0  0  0  0  0  0  0  0  0
   37.1980   35.2140   40.1880 H   0  0  0  0  0  0  0  0  0  0  0  0
   41.5950   34.2190   39.6920 C   0  0  0  0  0  0  0  0  0  0  0  0
   42.1240   34.5980   38.6160 O   0  0  0  0  0  0  0  0  0  0  0  0
   42.3820   34.1620   40.9220 C   0  0  0  0  0  0  0  0  0  0  0  0
   42.5920   33.0380   41.6930 C   0  0  0  0  0  0  0  0  0  0  0  0
   42.2370   32.0260   41.5510 H   0  0  0  0  0  0  0  0  0  0  0  0
   43.3670   33.4400   42.7190 N   0  0  0  0  0  0  0  0  0  0  0  0
   43.7610   32.9150   43.5330 H   0  0  0  0  0  0  0  0  0  0  0  0
   43.6500   34.7710   42.6220 C   0  0  0  0  0  0  0  0  0  0  0  0
   44.2410   35.3890   43.2820 H   0  0  0  0  0  0  0  0  0  0  0  0
   43.0220   35.2000   41.4880 N   0  0  0  0  0  0  0  0  0  0  0  0
   36.5250   30.1070   40.0300 C   0  0  0  0  0  0  0  0  0  0  0  0
   35.6610   30.7700   39.7460 H   0  0  0  0  0  0  0  0  0  0  0  0
   36.1770   29.0660   39.8070 H   0  0  0  0  0  0  0  0  0  0  0  0
   36.7440   30.2810   41.5060 C   0  0  0  0  0  0  0  0  0  0  0  0
   35.8060   30.3950   42.0950 H   0  0  0  0  0  0  0  0  0  0  0  0
   37.3610   31.1890   41.6360 H   0  0  0  0  0  0  0  0  0  0  0  0
   39.5290   30.8790   42.5620 Cl  0  0  0  0  0  0  0  0  0  0  0  0
   38.7900   29.2990   42.5780 C   0  0  0  0  0  0  0  0  0  0  0  0
   37.4930   29.1370   42.0620 C   0  0  0  0  0  0  0  0  0  0  0  0
   36.9850   27.8510   42.1140 C   0  0  0  0  0  0  0  0  0  0  0  0
   37.6390   26.7320   42.6250 C   0  0  0  0  0  0  0  0  0  0  0  0
   38.9060   26.9230   43.1230 C   0  0  0  0  0  0  0  0  0  0  0  0
   39.7860   25.5530   43.7820 Cl  0  0  0  0  0  0  0  0  0  0  0  0
   39.4520   28.1860   43.0910 C   0  0  0  0  0  0  0  0  0  0  0  0
   35.9790   27.7000   41.7200 H   0  0  0  0  0  0  0  0  0  0  0  0
   37.1570   25.7700   42.6210 H   0  0  0  0  0  0  0  0  0  0  0  0
   40.4540   28.3250   43.4870 H   0  0  0  0  0  0  0  0  0  0  0  0
  1  2  1  0  0  0  0
  1 20  1  0  0  0  0
  2  7  2  0  0  0  0
  2  3  1  0  0  0  0
  3  8  1  0  0  0  0
  3  4  2  0  0  0  0
  4  9  1  0  0  0  0
  5  4  1  0  0  0  0
  6 10  1  0  0  0  0
  6  5  2  0  0  0  0
  7  6  1  0  0  0  0
 10 12  1  0  0  0  0
 11 10  2  0  0  0  0
 12 19  1  0  0  0  0
 12 13  2  0  0  0  0
 13 15  1  0  0  0  0
 14 13  1  0  0  0  0
 15 16  1  0  0  0  0
 17 15  1  0  0  0  0
 17 18  1  0  0  0  0
 19 17  2  0  0  0  0
 20 23  1  0  0  0  0
 21 20  1  0  0  0  0
 22 20  1  0  0  0  0
 23 25  1  0  0  0  0
 23 28  1  0  0  0  0
 23 24  1  0  0  0  0
 26 27  1  0  0  0  0
 27 33  1  0  0  0  0
 28 29  1  0  0  0  0
 28 27  2  0  0  0  0
 29 30  2  0  0  0  0
 30 31  1  0  0  0  0
 31 32  1  0  0  0  0
 33 31  2  0  0  0  0
 33 36  1  0  0  0  0
 34 29  1  0  0  0  0
 35 30  1  0  0  0  0
M  END
>  <minimizedAffinity>
-5.79852438

$$$$

 OpenBabel03242515023D

 36 38  0  0  0  0  0  0  0  0999 V2000
   38.3270   30.8520   39.7890 S   0  0  0  0  0  0  0  0  0  0  0  0
   39.0330   32.4970   39.8810 C   0  0  0  0  0  0  0  0  0  0  0  0
   38.1320   33.5600   40.0210 C   0  0  0  0  0  0  0  0  0  0  0  0
   38.6400   34.8560   40.0970 C   0  0  0  0  0  0  0  0  0  0  0  0
   39.9790   35.0180   40.0290 N   0  0  0  0  0  0  0  0  0  0  0  0
   40.8300   34.0010   39.8950 C   0  0  0  0  0  0  0  0  0  0  0  0
   40.3500   32.7590   39.8230 N   0  0  0  0  0  0  0  0  0  0  0  0
   37.0650   33.3890   40.0720 H   0  0  0  0  0  0  0  0  0  0  0  0
   37.9580   35.6660   40.2030 H   0  0  0  0  0  0  0  0  0  0  0  0
   42.2540   34.2650   39.8310 C   0  0  0  0  0  0  0  0  0  0  0  0
   42.7930   34.4090   38.7040 O   0  0  0  0  0  0  0  0  0  0  0  0
   43.0560   34.3610   41.0490 C   0  0  0  0  0  0  0  0  0  0  0  0
   42.8390   35.2420   42.0880 C   0  0  0  0  0  0  0  0  0  0  0  0
   42.0740   35.9990   42.2050 H   0  0  0  0  0  0  0  0  0  0  0  0
   43.8050   34.9840   42.9920 N   0  0  0  0  0  0  0  0  0  0  0  0
   44.0120   35.4160   43.9210 H   0  0  0  0  0  0  0  0  0  0  0  0
   44.6170   33.9770   42.5610 C   0  0  0  0  0  0  0  0  0  0  0  0
   45.4760   33.5410   43.0500 H   0  0  0  0  0  0  0  0  0  0  0  0
   44.1280   33.6040   41.3410 N   0  0  0  0  0  0  0  0  0  0  0  0
   37.9700   30.1720   41.4050 C   0  0  0  0  0  0  0  0  0  0  0  0
   38.7530   29.4030   41.6560 H   0  0  0  0  0  0  0  0  0  0  0  0
   38.0530   30.9440   42.2140 H   0  0  0  0  0  0  0  0  0  0  0  0
   36.6380   29.4810   41.4790 C   0  0  0  0  0  0  0  0  0  0  0  0
   35.9040   29.8240   40.7150 H   0  0  0  0  0  0  0  0  0  0  0  0
   36.2260   29.6800   42.4850 H   0  0  0  0  0  0  0  0  0  0  0  0
   37.0630   27.9080   44.0420 Cl  0  0  0  0  0  0  0  0  0  0  0  0
   36.9990   27.1960   42.4510 C   0  0  0  0  0  0  0  0  0  0  0  0
   36.7970   28.0200   41.3320 C   0  0  0  0  0  0  0  0  0  0  0  0
   36.7600   27.3730   40.1100 C   0  0  0  0  0  0  0  0  0  0  0  0
   36.9030   26.0030   39.9050 C   0  0  0  0  0  0  0  0  0  0  0  0
   37.0990   25.2210   41.0200 C   0  0  0  0  0  0  0  0  0  0  0  0
   37.2880   23.4860   40.8310 Cl  0  0  0  0  0  0  0  0  0  0  0  0
   37.1440   25.8240   42.2560 C   0  0  0  0  0  0  0  0  0  0  0  0
   36.6040   27.9930   39.2260 H   0  0  0  0  0  0  0  0  0  0  0  0
   36.8590   25.5930   38.9110 H   0  0  0  0  0  0  0  0  0  0  0  0
   37.2990   25.1980   43.1310 H   0  0  0  0  0  0  0  0  0  0  0  0
  1  2  1  0  0  0  0
  1 20  1  0  0  0  0
  2  3  1  0  0  0  0
  3  8  1  0  0  0  0
  3  4  2  0  0  0  0
  4  9  1  0  0  0  0
  5  4  1  0  0  0  0
  6  5  2  0  0  0  0
  7  2  2  0  0  0  0
  7  6  1  0  0  0  0
 10  6  1  0  0  0  0
 10 12  1  0  0  0  0
 11 10  2  0  0  0  0
 12 19  1  0  0  0  0
 12 13  2  0  0  0  0
 13 14  1  0  0  0  0
 13 15  1  0  0  0  0
 15 16  1  0  0  0  0
 17 15  1  0  0  0  0
 17 18  1  0  0  0  0
 19 17  2  0  0  0  0
 20 23  1  0  0  0  0
 20 21  1  0  0  0  0
 20 22  1  0  0  0  0
 23 25  1  0  0  0  0
 24 23  1  0  0  0  0
 27 26  1  0  0  0  0
 28 23  1  0  0  0  0
 28 27  2  0  0  0  0
 29 28  1  0  0  0  0
 30 29  2  0  0  0  0
 30 31  1  0  0  0  0
 31 33  2  0  0  0  0
 32 31  1  0  0  0  0
 33 27  1  0  0  0  0
 33 36  1  0  0  0  0
 34 29  1  0  0  0  0
 35 30  1  0  0  0  0
M  END
>  <minimizedAffinity>
-5.6995697

$$$$

 OpenBabel03242515023D

 36 38  0  0  0  0  0  0  0  0999 V2000
   37.2160   27.7020   40.4640 S   0  0  0  0  0  0  0  0  0  0  0  0
   37.5320   29.1210   39.4150 C   0  0  0  0  0  0  0  0  0  0  0  0
   36.6700   29.2990   38.3250 C   0  0  0  0  0  0  0  0  0  0  0  0
   36.8800   30.3910   37.4840 C   0  0  0  0  0  0  0  0  0  0  0  0
   37.9090   31.2200   37.7640 N   0  0  0  0  0  0  0  0  0  0  0  0
   38.7260   31.0420   38.8040 C   0  0  0  0  0  0  0  0  0  0  0  0
   38.5290   30.0010   39.6120 N   0  0  0  0  0  0  0  0  0  0  0  0
   35.8570   28.6120   38.1340 H   0  0  0  0  0  0  0  0  0  0  0  0
   36.2280   30.5300   36.6550 H   0  0  0  0  0  0  0  0  0  0  0  0
   39.8060   31.9820   39.0320 C   0  0  0  0  0  0  0  0  0  0  0  0
   40.9400   31.7270   38.5550 O   0  0  0  0  0  0  0  0  0  0  0  0
   39.5870   33.2050   39.8030 C   0  0  0  0  0  0  0  0  0  0  0  0
   38.6950   33.3520   40.8440 C   0  0  0  0  0  0  0  0  0  0  0  0
   38.0130   32.6320   41.2790 H   0  0  0  0  0  0  0  0  0  0  0  0
   38.8240   34.6280   41.2570 N   0  0  0  0  0  0  0  0  0  0  0  0
   38.3410   35.1590   42.0170 H   0  0  0  0  0  0  0  0  0  0  0  0
   39.7610   35.2860   40.5150 C   0  0  0  0  0  0  0  0  0  0  0  0
   40.0930   36.3110   40.5960 H   0  0  0  0  0  0  0  0  0  0  0  0
   40.2240   34.3730   39.6110 N   0  0  0  0  0  0  0  0  0  0  0  0
   36.6220   28.1720   42.0850 C   0  0  0  0  0  0  0  0  0  0  0  0
   35.7090   28.8200   41.9620 H   0  0  0  0  0  0  0  0  0  0  0  0
   36.2720   27.2880   42.6780 H   0  0  0  0  0  0  0  0  0  0  0  0
   37.6200   28.9690   42.8760 C   0  0  0  0  0  0  0  0  0  0  0  0
   37.2420   29.3220   43.8630 H   0  0  0  0  0  0  0  0  0  0  0  0
   37.8910   29.8480   42.2620 H   0  0  0  0  0  0  0  0  0  0  0  0
   40.2540   30.3940   42.3680 Cl  0  0  0  0  0  0  0  0  0  0  0  0
   40.1190   28.7420   42.9110 C   0  0  0  0  0  0  0  0  0  0  0  0
   38.8470   28.1820   43.1140 C   0  0  0  0  0  0  0  0  0  0  0  0
   38.8330   26.8680   43.5450 C   0  0  0  0  0  0  0  0  0  0  0  0
   39.9510   26.0740   43.7880 C   0  0  0  0  0  0  0  0  0  0  0  0
   41.1830   26.6490   43.5800 C   0  0  0  0  0  0  0  0  0  0  0  0
   42.6340   25.7020   43.8660 Cl  0  0  0  0  0  0  0  0  0  0  0  0
   41.2440   27.9550   43.1510 C   0  0  0  0  0  0  0  0  0  0  0  0
   37.8550   26.4110   43.7110 H   0  0  0  0  0  0  0  0  0  0  0  0
   39.8360   25.0580   44.1220 H   0  0  0  0  0  0  0  0  0  0  0  0
   42.2220   28.4000   42.9890 H   0  0  0  0  0  0  0  0  0  0  0  0
  1 20  1  0  0  0  0
  2  7  1  0  0  0  0
  2  1  1  0  0  0  0
  3  2  2  0  0  0  0
  4  5  2  0  0  0  0
  4  3  1  0  0  0  0
  5  6  1  0  0  0  0
  6 10  1  0  0  0  0
  6  7  2  0  0  0  0
  8  3  1  0  0  0  0
  9  4  1  0  0  0  0
 10 12  1  0  0  0  0
 11 10  2  0  0  0  0
 12 13  2  0  0  0  0
 13 15  1  0  0  0  0
 13 14  1  0  0  0  0
 15 16  1  0  0  0  0
 17 18  1  0  0  0  0
 17 15  1  0  0  0  0
 19 12  1  0  0  0  0
 19 17  2  0  0  0  0
 20 22  1  0  0  0  0
 20 23  1  0  0  0  0
 21 20  1  0  0  0  0
 23 28  1  0  0  0  0
 23 24  1  0  0  0  0
 25 23  1  0  0  0  0
 26 27  1  0  0  0  0
 27 28  2  0  0  0  0
 27 33  1  0  0  0  0
 28 29  1  0  0  0  0
 29 34  1  0  0  0  0
 29 30  2  0  0  0  0
 30 35  1  0  0  0  0
 31 30  1  0  0  0  0
 31 32  1  0  0  0  0
 33 31  2  0  0  0  0
 36 33  1  0  0  0  0
M  END
>  <minimizedAffinity>
-5.66047907

$$$$

 OpenBabel03242515023D

 36 38  0  0  0  0  0  0  0  0999 V2000
   37.2460   28.3610   39.9640 S   0  0  0  0  0  0  0  0  0  0  0  0
   37.7940   30.0400   39.6560 C   0  0  0  0  0  0  0  0  0  0  0  0
   36.8170   30.9530   39.2370 C   0  0  0  0  0  0  0  0  0  0  0  0
   37.2010   32.2690   38.9870 C   0  0  0  0  0  0  0  0  0  0  0  0
   38.5010   32.5960   39.1620 N   0  0  0  0  0  0  0  0  0  0  0  0
   39.4250   31.7210   39.5610 C   0  0  0  0  0  0  0  0  0  0  0  0
   39.0630   30.4600   39.8020 N   0  0  0  0  0  0  0  0  0  0  0  0
   35.7860   30.6520   39.1090 H   0  0  0  0  0  0  0  0  0  0  0  0
   36.4620   32.9650   38.6690 H   0  0  0  0  0  0  0  0  0  0  0  0
   40.7980   32.1560   39.7230 C   0  0  0  0  0  0  0  0  0  0  0  0
   41.4360   31.7780   40.7380 O   0  0  0  0  0  0  0  0  0  0  0  0
   41.4350   33.0190   38.7300 C   0  0  0  0  0  0  0  0  0  0  0  0
   41.6150   32.7160   37.3970 C   0  0  0  0  0  0  0  0  0  0  0  0
   41.3370   31.8270   36.8450 H   0  0  0  0  0  0  0  0  0  0  0  0
   42.2360   33.7850   36.8610 N   0  0  0  0  0  0  0  0  0  0  0  0
   42.5590   33.9780   35.8860 H   0  0  0  0  0  0  0  0  0  0  0  0
   42.4520   34.7450   37.8060 C   0  0  0  0  0  0  0  0  0  0  0  0
   42.9250   35.7110   37.6970 H   0  0  0  0  0  0  0  0  0  0  0  0
   41.9420   34.2420   38.9680 N   0  0  0  0  0  0  0  0  0  0  0  0
   36.8600   28.0750   41.6870 C   0  0  0  0  0  0  0  0  0  0  0  0
   37.5750   28.6700   42.3220 H   0  0  0  0  0  0  0  0  0  0  0  0
   35.8430   28.4600   41.9600 H   0  0  0  0  0  0  0  0  0  0  0  0
   37.0010   26.6370   42.0970 C   0  0  0  0  0  0  0  0  0  0  0  0
   36.6810   25.9080   41.3190 H   0  0  0  0  0  0  0  0  0  0  0  0
   36.3760   26.4950   42.9990 H   0  0  0  0  0  0  0  0  0  0  0  0
   38.3710   24.4680   40.4700 Cl  0  0  0  0  0  0  0  0  0  0  0  0
   39.1280   25.3460   41.7730 C   0  0  0  0  0  0  0  0  0  0  0  0
   38.3990   26.3310   42.4590 C   0  0  0  0  0  0  0  0  0  0  0  0
   39.0770   26.9770   43.4770 C   0  0  0  0  0  0  0  0  0  0  0  0
   40.3930   26.7360   43.8670 C   0  0  0  0  0  0  0  0  0  0  0  0
   41.0810   25.7660   43.1760 C   0  0  0  0  0  0  0  0  0  0  0  0
   42.7430   25.4120   43.6170 Cl  0  0  0  0  0  0  0  0  0  0  0  0
   40.4450   25.0970   42.1550 C   0  0  0  0  0  0  0  0  0  0  0  0
   38.5320   27.7470   44.0250 H   0  0  0  0  0  0  0  0  0  0  0  0
   40.8330   27.2930   44.6750 H   0  0  0  0  0  0  0  0  0  0  0  0
   40.9970   24.3320   41.6160 H   0  0  0  0  0  0  0  0  0  0  0  0
  1 20  1  0  0  0  0
  2  7  1  0  0  0  0
  2  1  1  0  0  0  0
  3  2  2  0  0  0  0
  4  5  2  0  0  0  0
  4  3  1  0  0  0  0
  5  6  1  0  0  0  0
  6 10  1  0  0  0  0
  6  7  2  0  0  0  0
  8  3  1  0  0  0  0
  9  4  1  0  0  0  0
 10 11  2  0  0  0  0
 12 19  1  0  0  0  0
 12 10  1  0  0  0  0
 13 12  2  0  0  0  0
 14 13  1  0  0  0  0
 15 13  1  0  0  0  0
 15 17  1  0  0  0  0
 16 15  1  0  0  0  0
 17 19  2  0  0  0  0
 18 17  1  0  0  0  0
 20 22  1  0  0  0  0
 20 23  1  0  0  0  0
 20 21  1  0  0  0  0
 23 28  1  0  0  0  0
 23 25  1  0  0  0  0
 24 23  1  0  0  0  0
 26 27  1  0  0  0  0
 27 33  2  0  0  0  0
 27 28  1  0  0  0  0
 28 29  2  0  0  0  0
 29 30  1  0  0  0  0
 29 34  1  0  0  0  0
 30 35  1  0  0  0  0
 31 32  1  0  0  0  0
 31 30  2  0  0  0  0
 33 31  1  0  0  0  0
 36 33  1  0  0  0  0
M  END
>  <minimizedAffinity>
-5.52128553

$$$$

 OpenBabel03242515023D

 36 38  0  0  0  0  0  0  0  0999 V2000
   37.1180   30.7640   39.1000 S   0  0  0  0  0  0  0  0  0  0  0  0
   38.2290   32.1460   39.3670 C   0  0  0  0  0  0  0  0  0  0  0  0
   37.7050   33.2510   40.0490 C   0  0  0  0  0  0  0  0  0  0  0  0
   38.5360   34.3470   40.2780 C   0  0  0  0  0  0  0  0  0  0  0  0
   39.8070   34.2850   39.8250 N   0  0  0  0  0  0  0  0  0  0  0  0
   40.2990   33.2290   39.1740 C   0  0  0  0  0  0  0  0  0  0  0  0
   39.5080   32.1780   38.9540 N   0  0  0  0  0  0  0  0  0  0  0  0
   36.6810   33.2620   40.3970 H   0  0  0  0  0  0  0  0  0  0  0  0
   38.1410   35.1880   40.7960 H   0  0  0  0  0  0  0  0  0  0  0  0
   41.6760   33.2460   38.7230 C   0  0  0  0  0  0  0  0  0  0  0  0
   42.3570   34.2880   38.8960 O   0  0  0  0  0  0  0  0  0  0  0  0
   42.2690   32.0760   38.0760 C   0  0  0  0  0  0  0  0  0  0  0  0
   42.9610   31.0680   38.7130 C   0  0  0  0  0  0  0  0  0  0  0  0
   43.1930   30.9440   39.7630 H   0  0  0  0  0  0  0  0  0  0  0  0
   43.3230   30.2060   37.7430 N   0  0  0  0  0  0  0  0  0  0  0  0
   43.8590   29.3090   37.7830 H   0  0  0  0  0  0  0  0  0  0  0  0
   42.8850   30.6340   36.5250 C   0  0  0  0  0  0  0  0  0  0  0  0
   43.0120   30.1710   35.5560 H   0  0  0  0  0  0  0  0  0  0  0  0
   42.2280   31.8080   36.7590 N   0  0  0  0  0  0  0  0  0  0  0  0
   35.9950   30.5190   40.4710 C   0  0  0  0  0  0  0  0  0  0  0  0
   36.4900   30.8850   41.4150 H   0  0  0  0  0  0  0  0  0  0  0  0
   35.0670   31.1400   40.3710 H   0  0  0  0  0  0  0  0  0  0  0  0
   35.6360   29.0780   40.6960 C   0  0  0  0  0  0  0  0  0  0  0  0
   35.4990   28.4910   39.7590 H   0  0  0  0  0  0  0  0  0  0  0  0
   34.6890   29.0660   41.2670 H   0  0  0  0  0  0  0  0  0  0  0  0
   36.4760   26.3080   39.7740 Cl  0  0  0  0  0  0  0  0  0  0  0  0
   37.1290   27.1190   41.1730 C   0  0  0  0  0  0  0  0  0  0  0  0
   36.6670   28.4020   41.5080 C   0  0  0  0  0  0  0  0  0  0  0  0
   37.2390   28.9700   42.6320 C   0  0  0  0  0  0  0  0  0  0  0  0
   38.2130   28.3870   43.4390 C   0  0  0  0  0  0  0  0  0  0  0  0
   38.6460   27.1300   43.0860 C   0  0  0  0  0  0  0  0  0  0  0  0
   39.8730   26.3380   44.0610 Cl  0  0  0  0  0  0  0  0  0  0  0  0
   38.1040   26.5260   41.9740 C   0  0  0  0  0  0  0  0  0  0  0  0
   36.8960   29.9680   42.9120 H   0  0  0  0  0  0  0  0  0  0  0  0
   38.5970   28.9120   44.2960 H   0  0  0  0  0  0  0  0  0  0  0  0
   38.4530   25.5340   41.7040 H   0  0  0  0  0  0  0  0  0  0  0  0
  1  2  1  0  0  0  0
  1 20  1  0  0  0  0
  2  3  1  0  0  0  0
  3  4  2  0  0  0  0
  3  8  1  0  0  0  0
  4  9  1  0  0  0  0
  5  4  1  0  0  0  0
  6  5  2  0  0  0  0
  7  6  1  0  0  0  0
  7  2  2  0  0  0  0
 10 11  2  0  0  0  0
 10  6  1  0  0  0  0
 12 13  2  0  0  0  0
 12 10  1  0  0  0  0
 13 14  1  0  0  0  0
 15 16  1  0  0  0  0
 15 13  1  0  0  0  0
 17 19  2  0  0  0  0
 17 15  1  0  0  0  0
 18 17  1  0  0  0  0
 19 12  1  0  0  0  0
 20 23  1  0  0  0  0
 20 21  1  0  0  0  0
 22 20  1  0  0  0  0
 23 25  1  0  0  0  0
 23 28  1  0  0  0  0
 24 23  1  0  0  0  0
 26 27  1  0  0  0  0
 27 28  2  0  0  0  0
 27 33  1  0  0  0  0
 28 29  1  0  0  0  0
 29 34  1  0  0  0  0
 29 30  2  0  0  0  0
 30 35  1  0  0  0  0
 31 30  1  0  0  0  0
 31 32  1  0  0  0  0
 33 31  2  0  0  0  0
 36 33  1  0  0  0  0
M  END
>  <minimizedAffinity>
-5.47712564

$$$$

 OpenBabel03242515023D

 36 38  0  0  0  0  0  0  0  0999 V2000
   36.5870   30.3660   38.8550 S   0  0  0  0  0  0  0  0  0  0  0  0
   38.3340   30.7540   38.9560 C   0  0  0  0  0  0  0  0  0  0  0  0
   39.2230   29.6740   38.8750 C   0  0  0  0  0  0  0  0  0  0  0  0
   40.5910   29.9320   38.9490 C   0  0  0  0  0  0  0  0  0  0  0  0
   40.9880   31.2150   39.0980 N   0  0  0  0  0  0  0  0  0  0  0  0
   40.1350   32.2370   39.1750 C   0  0  0  0  0  0  0  0  0  0  0  0
   38.8260   31.9960   39.1040 N   0  0  0  0  0  0  0  0  0  0  0  0
   38.8650   28.6600   38.7550 H   0  0  0  0  0  0  0  0  0  0  0  0
   41.2690   29.1150   38.8880 H   0  0  0  0  0  0  0  0  0  0  0  0
   40.6470   33.5840   39.3340 C   0  0  0  0  0  0  0  0  0  0  0  0
   39.8840   34.4710   39.7940 O   0  0  0  0  0  0  0  0  0  0  0  0
   42.0240   33.9120   38.9690 C   0  0  0  0  0  0  0  0  0  0  0  0
   42.4370   34.4100   37.7510 C   0  0  0  0  0  0  0  0  0  0  0  0
   41.8580   34.6470   36.8680 H   0  0  0  0  0  0  0  0  0  0  0  0
   43.7720   34.5630   37.8540 N   0  0  0  0  0  0  0  0  0  0  0  0
   44.4810   34.9120   37.1700 H   0  0  0  0  0  0  0  0  0  0  0  0
   44.2110   34.1810   39.0880 C   0  0  0  0  0  0  0  0  0  0  0  0
   45.2170   34.1820   39.4810 H   0  0  0  0  0  0  0  0  0  0  0  0
   43.0970   33.7770   39.7670 N   0  0  0  0  0  0  0  0  0  0  0  0
   35.8640   30.0540   40.4610 C   0  0  0  0  0  0  0  0  0  0  0  0
   34.9180   30.6590   40.5560 H   0  0  0  0  0  0  0  0  0  0  0  0
   35.5390   28.9880   40.5770 H   0  0  0  0  0  0  0  0  0  0  0  0
   36.7560   30.4550   41.6020 C   0  0  0  0  0  0  0  0  0  0  0  0
   36.2200   30.9360   42.4520 H   0  0  0  0  0  0  0  0  0  0  0  0
   37.4970   31.1680   41.1970 H   0  0  0  0  0  0  0  0  0  0  0  0
   39.6070   30.9540   42.5230 Cl  0  0  0  0  0  0  0  0  0  0  0  0
   38.8120   29.4040   42.5830 C   0  0  0  0  0  0  0  0  0  0  0  0
   37.4870   29.2860   42.1300 C   0  0  0  0  0  0  0  0  0  0  0  0
   36.9350   28.0210   42.2140 C   0  0  0  0  0  0  0  0  0  0  0  0
   37.5700   26.8810   42.7010 C   0  0  0  0  0  0  0  0  0  0  0  0
   38.8670   27.0270   43.1380 C   0  0  0  0  0  0  0  0  0  0  0  0
   39.7260   25.6280   43.7630 Cl  0  0  0  0  0  0  0  0  0  0  0  0
   39.4560   28.2680   43.0720 C   0  0  0  0  0  0  0  0  0  0  0  0
   35.9060   27.9050   41.8680 H   0  0  0  0  0  0  0  0  0  0  0  0
   37.0540   25.9380   42.7250 H   0  0  0  0  0  0  0  0  0  0  0  0
   40.4800   28.3730   43.4190 H   0  0  0  0  0  0  0  0  0  0  0  0
  1  2  1  0  0  0  0
  1 20  1  0  0  0  0
  2  7  1  0  0  0  0
  3  4  1  0  0  0  0
  3  2  2  0  0  0  0
  4  5  2  0  0  0  0
  5  6  1  0  0  0  0
  6 10  1  0  0  0  0
  7  6  2  0  0  0  0
  8  3  1  0  0  0  0
  9  4  1  0  0  0  0
 10 11  2  0  0  0  0
 12 10  1  0  0  0  0
 12 19  1  0  0  0  0
 13 15  1  0  0  0  0
 13 12  2  0  0  0  0
 14 13  1  0  0  0  0
 15 17  1  0  0  0  0
 16 15  1  0  0  0  0
 17 18  1  0  0  0  0
 17 19  2  0  0  0  0
 20 21  1  0  0  0  0
 20 22  1  0  0  0  0
 20 23  1  0  0  0  0
 23 28  1  0  0  0  0
 23 24  1  0  0  0  0
 25 23  1  0  0  0  0
 26 27  1  0  0  0  0
 27 33  1  0  0  0  0
 28 29  1  0  0  0  0
 28 27  2  0  0  0  0
 29 30  2  0  0  0  0
 30 35  1  0  0  0  0
 30 31  1  0  0  0  0
 31 32  1  0  0  0  0
 33 31  2  0  0  0  0
 33 36  1  0  0  0  0
 34 29  1  0  0  0  0
M  END
>  <minimizedAffinity>
-5.45726347

$$$$
