
 OpenBabel03242516523D

 44 47  0  0  1  0  0  0  0  0999 V2000
   47.8590   32.9100   41.8410 C   0  0  1  0  0  0  0  0  0  0  0  0
   47.5540   32.2820   40.5550 C   0  0  0  0  0  0  0  0  0  0  0  0
   48.5800   32.8260   39.5630 C   0  0  0  0  0  0  0  0  0  0  0  0
   48.2350   34.2740   39.3310 C   0  0  0  0  0  0  0  0  0  0  0  0
   48.1480   35.0890   40.5910 C   0  0  0  0  0  0  0  0  0  0  0  0
   47.6480   34.4280   41.8090 C   0  0  1  0  0  0  0  0  0  0  0  0
   48.9740   32.8320   42.0220 H   0  0  0  0  0  0  0  0  0  0  0  0
   47.6870   31.1890   40.6440 H   0  0  0  0  0  0  0  0  0  0  0  0
   46.5540   32.5240   40.1740 H   0  0  0  0  0  0  0  0  0  0  0  0
   49.6070   32.6490   39.8950 H   0  0  0  0  0  0  0  0  0  0  0  0
   48.3480   32.3070   38.5910 H   0  0  0  0  0  0  0  0  0  0  0  0
   49.0070   34.7020   38.6620 H   0  0  0  0  0  0  0  0  0  0  0  0
   47.2740   34.3200   38.7880 H   0  0  0  0  0  0  0  0  0  0  0  0
   47.4680   35.9400   40.3510 H   0  0  0  0  0  0  0  0  0  0  0  0
   49.1460   35.5580   40.7500 H   0  0  0  0  0  0  0  0  0  0  0  0
   48.2380   34.8140   42.6840 H   0  0  0  0  0  0  0  0  0  0  0  0
   45.4360   30.9370   43.9600 C   0  0  0  0  0  0  0  0  0  0  0  0
   46.1170   31.4990   42.8770 C   0  0  0  0  0  0  0  0  0  0  0  0
   47.2060   32.3610   43.0120 C   0  0  0  0  0  0  0  0  0  0  0  0
   47.5750   32.6300   44.2640 N   0  0  0  0  0  0  0  0  0  0  0  0
   46.9220   32.0910   45.3280 C   0  0  0  0  0  0  0  0  0  0  0  0
   45.8780   31.2650   45.1910 N   0  0  0  0  0  0  0  0  0  0  0  0
   44.6070   30.2830   43.7730 H   0  0  0  0  0  0  0  0  0  0  0  0
   45.7540   31.2300   41.8810 H   0  0  0  0  0  0  0  0  0  0  0  0
   47.3200   32.3880   46.3050 H   0  0  0  0  0  0  0  0  0  0  0  0
   46.2620   34.7880   42.1070 C   0  0  0  0  0  0  0  0  0  0  0  0
   45.8070   35.3810   43.2910 C   0  0  0  0  0  0  0  0  0  0  0  0
   44.4420   35.6520   43.3520 C   0  0  0  0  0  0  0  0  0  0  0  0
   43.6590   35.3170   42.2510 C   0  0  0  0  0  0  0  0  0  0  0  0
   44.1320   34.7290   41.0890 C   0  0  0  0  0  0  0  0  0  0  0  0
   45.4690   34.4740   41.0530 N   0  0  0  0  0  0  0  0  0  0  0  0
   46.5190   35.5760   44.0360 H   0  0  0  0  0  0  0  0  0  0  0  0
   44.0600   36.1030   44.2370 H   0  0  0  0  0  0  0  0  0  0  0  0
   42.6060   35.5410   42.3340 H   0  0  0  0  0  0  0  0  0  0  0  0
   43.2260   34.4200   39.9890 C   0  0  0  0  0  0  0  0  0  0  0  0
   42.5810   35.3880   39.4820 O   0  0  0  0  0  0  0  0  0  0  0  0
   42.9890   33.0990   39.4130 C   0  0  0  0  0  0  0  0  0  0  0  0
   43.1330   31.9370   40.1410 C   0  0  0  0  0  0  0  0  0  0  0  0
   43.4090   31.7330   41.1500 H   0  0  0  0  0  0  0  0  0  0  0  0
   42.8410   30.9050   39.3090 N   0  0  0  0  0  0  0  0  0  0  0  0
   42.8410   29.8680   39.5030 H   0  0  0  0  0  0  0  0  0  0  0  0
   42.5240   31.3610   38.1060 C   0  0  0  0  0  0  0  0  0  0  0  0
   42.2320   30.9290   37.1630 H   0  0  0  0  0  0  0  0  0  0  0  0
   42.6190   32.6990   38.1870 N   0  0  0  0  0  0  0  0  0  0  0  0
  1  7  1  1  0  0  0
  1 19  1  0  0  0  0
  2  8  1  0  0  0  0
  2  1  1  0  0  0  0
  3 10  1  0  0  0  0
  3  2  1  0  0  0  0
  4  3  1  0  0  0  0
  4  5  1  0  0  0  0
  5 15  1  0  0  0  0
  5  6  1  0  0  0  0
  6  1  1  0  0  0  0
  6 26  1  0  0  0  0
  6 16  1  1  0  0  0
  9  2  1  0  0  0  0
 11  3  1  0  0  0  0
 12  4  1  0  0  0  0
 13  4  1  0  0  0  0
 14  5  1  0  0  0  0
 17 22  1  0  0  0  0
 18 19  1  0  0  0  0
 18 17  2  0  0  0  0
 19 20  2  0  0  0  0
 20 21  1  0  0  0  0
 21 25  1  0  0  0  0
 22 21  2  0  0  0  0
 23 17  1  0  0  0  0
 24 18  1  0  0  0  0
 26 27  1  0  0  0  0
 27 28  2  0  0  0  0
 27 32  1  0  0  0  0
 28 33  1  0  0  0  0
 29 34  1  0  0  0  0
 29 28  1  0  0  0  0
 30 29  2  0  0  0  0
 31 30  1  0  0  0  0
 31 26  2  0  0  0  0
 35 30  1  0  0  0  0
 36 35  2  0  0  0  0
 37 35  1  0  0  0  0
 37 38  2  0  0  0  0
 38 39  1  0  0  0  0
 40 41  1  0  0  0  0
 40 38  1  0  0  0  0
 42 44  2  0  0  0  0
 42 40  1  0  0  0  0
 43 42  1  0  0  0  0
 44 37  1  0  0  0  0
M  END
>  <minimizedAffinity>
-5.06477404

>  <minimizedRMSD>
0.418132067

$$$$
