
 OpenBabel03242514593D

 36 38  0  0  0  0  0  0  0  0999 V2000
   43.4750   34.9370   40.7330 S   0  0  0  0  0  0  0  0  0  0  0  0
   44.7580   34.6860   41.9600 C   0  0  0  0  0  0  0  0  0  0  0  0
   46.0710   34.5810   41.4830 C   0  0  0  0  0  0  0  0  0  0  0  0
   47.0990   34.3860   42.4040 C   0  0  0  0  0  0  0  0  0  0  0  0
   46.7730   34.3060   43.7120 N   0  0  0  0  0  0  0  0  0  0  0  0
   45.5200   34.4060   44.1580 C   0  0  0  0  0  0  0  0  0  0  0  0
   44.5330   34.5930   43.2820 N   0  0  0  0  0  0  0  0  0  0  0  0
   46.2910   34.6500   40.4260 H   0  0  0  0  0  0  0  0  0  0  0  0
   48.0970   34.3050   42.0450 H   0  0  0  0  0  0  0  0  0  0  0  0
   45.2590   34.3100   45.5810 C   0  0  0  0  0  0  0  0  0  0  0  0
   44.5320   35.1810   46.1230 O   0  0  0  0  0  0  0  0  0  0  0  0
   45.8270   33.2230   46.3770 C   0  0  0  0  0  0  0  0  0  0  0  0
   45.3260   32.7530   47.5730 C   0  0  0  0  0  0  0  0  0  0  0  0
   44.4580   33.0760   48.1340 H   0  0  0  0  0  0  0  0  0  0  0  0
   46.1530   31.7590   47.9490 N   0  0  0  0  0  0  0  0  0  0  0  0
   46.1440   31.1350   48.7880 H   0  0  0  0  0  0  0  0  0  0  0  0
   47.1520   31.5870   47.0370 C   0  0  0  0  0  0  0  0  0  0  0  0
   47.9680   30.8780   47.0490 H   0  0  0  0  0  0  0  0  0  0  0  0
   46.9260   32.5160   46.0620 N   0  0  0  0  0  0  0  0  0  0  0  0
   41.8510   35.0950   41.4690 C   0  0  0  0  0  0  0  0  0  0  0  0
   41.3630   34.0810   41.4910 H   0  0  0  0  0  0  0  0  0  0  0  0
   41.9050   35.4150   42.5410 H   0  0  0  0  0  0  0  0  0  0  0  0
   40.9360   36.0040   40.6980 C   0  0  0  0  0  0  0  0  0  0  0  0
   41.4590   36.8230   40.1550 H   0  0  0  0  0  0  0  0  0  0  0  0
   40.2350   36.4500   41.4270 H   0  0  0  0  0  0  0  0  0  0  0  0
   41.7780   36.2720   37.7910 Cl  0  0  0  0  0  0  0  0  0  0  0  0
   40.4470   35.2890   38.3430 C   0  0  0  0  0  0  0  0  0  0  0  0
   40.1450   35.2390   39.7140 C   0  0  0  0  0  0  0  0  0  0  0  0
   39.0750   34.4350   40.0620 C   0  0  0  0  0  0  0  0  0  0  0  0
   38.2910   33.6900   39.1850 C   0  0  0  0  0  0  0  0  0  0  0  0
   38.6100   33.7590   37.8490 C   0  0  0  0  0  0  0  0  0  0  0  0
   37.6610   32.8430   36.6890 Cl  0  0  0  0  0  0  0  0  0  0  0  0
   39.6680   34.5470   37.4570 C   0  0  0  0  0  0  0  0  0  0  0  0
   38.8210   34.3790   41.1220 H   0  0  0  0  0  0  0  0  0  0  0  0
   37.4760   33.0930   39.5550 H   0  0  0  0  0  0  0  0  0  0  0  0
   39.9120   34.5950   36.3990 H   0  0  0  0  0  0  0  0  0  0  0  0
  1 20  1  0  0  0  0
  1  2  1  0  0  0  0
  2  7  1  0  0  0  0
  3  2  2  0  0  0  0
  3  4  1  0  0  0  0
  4  5  2  0  0  0  0
  5  6  1  0  0  0  0
  6 10  1  0  0  0  0
  7  6  2  0  0  0  0
  8  3  1  0  0  0  0
  9  4  1  0  0  0  0
 10 11  2  0  0  0  0
 10 12  1  0  0  0  0
 12 13  2  0  0  0  0
 13 15  1  0  0  0  0
 13 14  1  0  0  0  0
 15 16  1  0  0  0  0
 17 18  1  0  0  0  0
 17 15  1  0  0  0  0
 19 12  1  0  0  0  0
 19 17  2  0  0  0  0
 20 21  1  0  0  0  0
 20 22  1  0  0  0  0
 23 25  1  0  0  0  0
 23 20  1  0  0  0  0
 24 23  1  0  0  0  0
 26 27  1  0  0  0  0
 27 28  1  0  0  0  0
 28 29  2  0  0  0  0
 28 23  1  0  0  0  0
 29 34  1  0  0  0  0
 30 35  1  0  0  0  0
 30 29  1  0  0  0  0
 31 30  2  0  0  0  0
 32 31  1  0  0  0  0
 33 31  1  0  0  0  0
 33 27  2  0  0  0  0
 36 33  1  0  0  0  0
M  END
>  <minimizedAffinity>
-6.65769529

>  <minimizedRMSD>
0.19641456

$$$$
