
 OpenBabel03242516523D

 44 47  0  0  1  0  0  0  0  0999 V2000
   47.8590   32.9110   41.8420 C   0  0  1  0  0  0  0  0  0  0  0  0
   47.5550   32.2830   40.5560 C   0  0  0  0  0  0  0  0  0  0  0  0
   48.5810   32.8280   39.5650 C   0  0  0  0  0  0  0  0  0  0  0  0
   48.2360   34.2750   39.3330 C   0  0  0  0  0  0  0  0  0  0  0  0
   48.1480   35.0900   40.5930 C   0  0  0  0  0  0  0  0  0  0  0  0
   47.6480   34.4290   41.8110 C   0  0  1  0  0  0  0  0  0  0  0  0
   48.9750   32.8320   42.0230 H   0  0  0  0  0  0  0  0  0  0  0  0
   47.6870   31.1910   40.6450 H   0  0  0  0  0  0  0  0  0  0  0  0
   46.5540   32.5260   40.1750 H   0  0  0  0  0  0  0  0  0  0  0  0
   49.6080   32.6510   39.8970 H   0  0  0  0  0  0  0  0  0  0  0  0
   48.3490   32.3080   38.5930 H   0  0  0  0  0  0  0  0  0  0  0  0
   49.0080   34.7040   38.6650 H   0  0  0  0  0  0  0  0  0  0  0  0
   47.2760   34.3210   38.7900 H   0  0  0  0  0  0  0  0  0  0  0  0
   47.4690   35.9410   40.3530 H   0  0  0  0  0  0  0  0  0  0  0  0
   49.1460   35.5590   40.7530 H   0  0  0  0  0  0  0  0  0  0  0  0
   48.2370   34.8150   42.6860 H   0  0  0  0  0  0  0  0  0  0  0  0
   45.4360   30.9370   43.9590 C   0  0  0  0  0  0  0  0  0  0  0  0
   46.1170   31.4990   42.8770 C   0  0  0  0  0  0  0  0  0  0  0  0
   47.2060   32.3610   43.0130 C   0  0  0  0  0  0  0  0  0  0  0  0
   47.5740   32.6300   44.2650 N   0  0  0  0  0  0  0  0  0  0  0  0
   46.9200   32.0910   45.3280 C   0  0  0  0  0  0  0  0  0  0  0  0
   45.8770   31.2650   45.1910 N   0  0  0  0  0  0  0  0  0  0  0  0
   44.6070   30.2820   43.7720 H   0  0  0  0  0  0  0  0  0  0  0  0
   45.7550   31.2300   41.8810 H   0  0  0  0  0  0  0  0  0  0  0  0
   47.3180   32.3880   46.3060 H   0  0  0  0  0  0  0  0  0  0  0  0
   46.2620   34.7890   42.1080 C   0  0  0  0  0  0  0  0  0  0  0  0
   45.8070   35.3820   43.2930 C   0  0  0  0  0  0  0  0  0  0  0  0
   44.4420   35.6530   43.3530 C   0  0  0  0  0  0  0  0  0  0  0  0
   43.6590   35.3170   42.2510 C   0  0  0  0  0  0  0  0  0  0  0  0
   44.1330   34.7300   41.0900 C   0  0  0  0  0  0  0  0  0  0  0  0
   45.4700   34.4740   41.0540 N   0  0  0  0  0  0  0  0  0  0  0  0
   46.5190   35.5770   44.0380 H   0  0  0  0  0  0  0  0  0  0  0  0
   44.0590   36.1040   44.2380 H   0  0  0  0  0  0  0  0  0  0  0  0
   42.6060   35.5410   42.3340 H   0  0  0  0  0  0  0  0  0  0  0  0
   43.2270   34.4200   39.9900 C   0  0  0  0  0  0  0  0  0  0  0  0
   42.5810   35.3880   39.4820 O   0  0  0  0  0  0  0  0  0  0  0  0
   42.9900   33.0990   39.4130 C   0  0  0  0  0  0  0  0  0  0  0  0
   43.1350   31.9370   40.1410 C   0  0  0  0  0  0  0  0  0  0  0  0
   43.4100   31.7340   41.1500 H   0  0  0  0  0  0  0  0  0  0  0  0
   42.8430   30.9040   39.3100 N   0  0  0  0  0  0  0  0  0  0  0  0
   42.8420   29.8680   39.5040 H   0  0  0  0  0  0  0  0  0  0  0  0
   42.5250   31.3600   38.1060 C   0  0  0  0  0  0  0  0  0  0  0  0
   42.2340   30.9280   37.1630 H   0  0  0  0  0  0  0  0  0  0  0  0
   42.6210   32.6990   38.1870 N   0  0  0  0  0  0  0  0  0  0  0  0
  1  7  1  1  0  0  0
  1 19  1  0  0  0  0
  2  8  1  0  0  0  0
  2  1  1  0  0  0  0
  3 10  1  0  0  0  0
  3  2  1  0  0  0  0
  4  3  1  0  0  0  0
  4  5  1  0  0  0  0
  5 15  1  0  0  0  0
  5  6  1  0  0  0  0
  6  1  1  0  0  0  0
  6 26  1  0  0  0  0
  6 16  1  1  0  0  0
  9  2  1  0  0  0  0
 11  3  1  0  0  0  0
 12  4  1  0  0  0  0
 13  4  1  0  0  0  0
 14  5  1  0  0  0  0
 17 22  1  0  0  0  0
 18 19  1  0  0  0  0
 18 17  2  0  0  0  0
 19 20  2  0  0  0  0
 20 21  1  0  0  0  0
 21 25  1  0  0  0  0
 22 21  2  0  0  0  0
 23 17  1  0  0  0  0
 24 18  1  0  0  0  0
 26 27  1  0  0  0  0
 27 28  2  0  0  0  0
 27 32  1  0  0  0  0
 28 33  1  0  0  0  0
 29 34  1  0  0  0  0
 29 28  1  0  0  0  0
 30 29  2  0  0  0  0
 31 30  1  0  0  0  0
 31 26  2  0  0  0  0
 35 30  1  0  0  0  0
 36 35  2  0  0  0  0
 37 35  1  0  0  0  0
 37 38  2  0  0  0  0
 38 39  1  0  0  0  0
 40 41  1  0  0  0  0
 40 38  1  0  0  0  0
 42 44  2  0  0  0  0
 42 40  1  0  0  0  0
 43 42  1  0  0  0  0
 44 37  1  0  0  0  0
M  END
>  <minimizedAffinity>
-5.0671401

>  <minimizedRMSD>
0.370812297

$$$$
