
 OpenBabel03242516523D

 44 47  0  0  1  0  0  0  0  0999 V2000
   47.8630   32.9100   41.8550 C   0  0  1  0  0  0  0  0  0  0  0  0
   47.5690   32.2870   40.5640 C   0  0  0  0  0  0  0  0  0  0  0  0
   48.6030   32.8360   39.5830 C   0  0  0  0  0  0  0  0  0  0  0  0
   48.2600   34.2850   39.3550 C   0  0  0  0  0  0  0  0  0  0  0  0
   48.1630   35.0940   40.6180 C   0  0  0  0  0  0  0  0  0  0  0  0
   47.6530   34.4270   41.8290 C   0  0  1  0  0  0  0  0  0  0  0  0
   48.9770   32.8300   42.0450 H   0  0  0  0  0  0  0  0  0  0  0  0
   47.7010   31.1940   40.6480 H   0  0  0  0  0  0  0  0  0  0  0  0
   46.5720   32.5320   40.1760 H   0  0  0  0  0  0  0  0  0  0  0  0
   49.6270   32.6580   39.9220 H   0  0  0  0  0  0  0  0  0  0  0  0
   48.3790   32.3210   38.6070 H   0  0  0  0  0  0  0  0  0  0  0  0
   49.0370   34.7160   38.6950 H   0  0  0  0  0  0  0  0  0  0  0  0
   47.3040   34.3330   38.8040 H   0  0  0  0  0  0  0  0  0  0  0  0
   47.4850   35.9470   40.3760 H   0  0  0  0  0  0  0  0  0  0  0  0
   49.1600   35.5620   40.7880 H   0  0  0  0  0  0  0  0  0  0  0  0
   48.2350   34.8100   42.7100 H   0  0  0  0  0  0  0  0  0  0  0  0
   45.4260   30.9230   43.9440 C   0  0  0  0  0  0  0  0  0  0  0  0
   46.1160   31.4900   42.8700 C   0  0  0  0  0  0  0  0  0  0  0  0
   47.2010   32.3540   43.0180 C   0  0  0  0  0  0  0  0  0  0  0  0
   47.5560   32.6220   44.2750 N   0  0  0  0  0  0  0  0  0  0  0  0
   46.8950   32.0770   45.3300 C   0  0  0  0  0  0  0  0  0  0  0  0
   45.8550   31.2480   45.1810 N   0  0  0  0  0  0  0  0  0  0  0  0
   44.6020   30.2660   43.7470 H   0  0  0  0  0  0  0  0  0  0  0  0
   45.7640   31.2220   41.8700 H   0  0  0  0  0  0  0  0  0  0  0  0
   47.2820   32.3730   46.3120 H   0  0  0  0  0  0  0  0  0  0  0  0
   46.2640   34.7860   42.1170 C   0  0  0  0  0  0  0  0  0  0  0  0
   45.7980   35.3640   43.3040 C   0  0  0  0  0  0  0  0  0  0  0  0
   44.4330   35.6370   43.3540 C   0  0  0  0  0  0  0  0  0  0  0  0
   43.6610   35.3180   42.2400 C   0  0  0  0  0  0  0  0  0  0  0  0
   44.1460   34.7460   41.0760 C   0  0  0  0  0  0  0  0  0  0  0  0
   45.4820   34.4880   41.0500 N   0  0  0  0  0  0  0  0  0  0  0  0
   46.5030   35.5470   44.0590 H   0  0  0  0  0  0  0  0  0  0  0  0
   44.0420   36.0770   44.2410 H   0  0  0  0  0  0  0  0  0  0  0  0
   42.6070   35.5440   42.3160 H   0  0  0  0  0  0  0  0  0  0  0  0
   43.2500   34.4530   39.9620 C   0  0  0  0  0  0  0  0  0  0  0  0
   42.3840   35.3330   39.6700 O   0  0  0  0  0  0  0  0  0  0  0  0
   43.2560   33.2410   39.1470 C   0  0  0  0  0  0  0  0  0  0  0  0
   44.1230   33.0630   38.0900 C   0  0  0  0  0  0  0  0  0  0  0  0
   44.8920   33.6660   37.6640 H   0  0  0  0  0  0  0  0  0  0  0  0
   43.8600   31.8440   37.5560 N   0  0  0  0  0  0  0  0  0  0  0  0
   44.3160   31.3580   36.7380 H   0  0  0  0  0  0  0  0  0  0  0  0
   42.8770   31.2540   38.2230 C   0  0  0  0  0  0  0  0  0  0  0  0
   42.3510   30.3150   38.1640 H   0  0  0  0  0  0  0  0  0  0  0  0
   42.5220   32.1190   39.1880 N   0  0  0  0  0  0  0  0  0  0  0  0
  1  7  1  1  0  0  0
  1 19  1  0  0  0  0
  2  8  1  0  0  0  0
  2  1  1  0  0  0  0
  3 10  1  0  0  0  0
  3  2  1  0  0  0  0
  4  3  1  0  0  0  0
  4  5  1  0  0  0  0
  5 15  1  0  0  0  0
  5  6  1  0  0  0  0
  6  1  1  0  0  0  0
  6 26  1  0  0  0  0
  6 16  1  1  0  0  0
  9  2  1  0  0  0  0
 11  3  1  0  0  0  0
 12  4  1  0  0  0  0
 13  4  1  0  0  0  0
 14  5  1  0  0  0  0
 17 22  1  0  0  0  0
 18 19  1  0  0  0  0
 18 17  2  0  0  0  0
 19 20  2  0  0  0  0
 20 21  1  0  0  0  0
 21 25  1  0  0  0  0
 22 21  2  0  0  0  0
 23 17  1  0  0  0  0
 24 18  1  0  0  0  0
 26 27  1  0  0  0  0
 27 28  2  0  0  0  0
 27 32  1  0  0  0  0
 28 33  1  0  0  0  0
 29 34  1  0  0  0  0
 29 28  1  0  0  0  0
 30 29  2  0  0  0  0
 31 30  1  0  0  0  0
 31 26  2  0  0  0  0
 35 30  1  0  0  0  0
 36 35  2  0  0  0  0
 37 44  1  0  0  0  0
 37 35  1  0  0  0  0
 38 37  2  0  0  0  0
 39 38  1  0  0  0  0
 40 38  1  0  0  0  0
 40 42  1  0  0  0  0
 41 40  1  0  0  0  0
 42 44  2  0  0  0  0
 43 42  1  0  0  0  0
M  END
>  <minimizedAffinity>
-5.17890406

>  <minimizedRMSD>
0.307921141

$$$$
