
 OpenBabel03242516523D

 44 47  0  0  1  0  0  0  0  0999 V2000
   47.8570   32.9090   41.8500 C   0  0  1  0  0  0  0  0  0  0  0  0
   47.5650   32.2810   40.5610 C   0  0  0  0  0  0  0  0  0  0  0  0
   48.5990   32.8290   39.5790 C   0  0  0  0  0  0  0  0  0  0  0  0
   48.2530   34.2760   39.3460 C   0  0  0  0  0  0  0  0  0  0  0  0
   48.1530   35.0900   40.6060 C   0  0  0  0  0  0  0  0  0  0  0  0
   47.6430   34.4260   41.8190 C   0  0  1  0  0  0  0  0  0  0  0  0
   48.9710   32.8320   42.0410 H   0  0  0  0  0  0  0  0  0  0  0  0
   47.6990   31.1890   40.6500 H   0  0  0  0  0  0  0  0  0  0  0  0
   46.5670   32.5220   40.1710 H   0  0  0  0  0  0  0  0  0  0  0  0
   49.6230   32.6540   39.9200 H   0  0  0  0  0  0  0  0  0  0  0  0
   48.3760   32.3100   38.6040 H   0  0  0  0  0  0  0  0  0  0  0  0
   49.0300   34.7070   38.6850 H   0  0  0  0  0  0  0  0  0  0  0  0
   47.2970   34.3210   38.7940 H   0  0  0  0  0  0  0  0  0  0  0  0
   47.4730   35.9400   40.3610 H   0  0  0  0  0  0  0  0  0  0  0  0
   49.1480   35.5600   40.7750 H   0  0  0  0  0  0  0  0  0  0  0  0
   48.2240   34.8120   42.6990 H   0  0  0  0  0  0  0  0  0  0  0  0
   45.4120   30.9370   43.9450 C   0  0  0  0  0  0  0  0  0  0  0  0
   46.1020   31.5010   42.8690 C   0  0  0  0  0  0  0  0  0  0  0  0
   47.1940   32.3560   43.0150 C   0  0  0  0  0  0  0  0  0  0  0  0
   47.5580   32.6170   44.2700 N   0  0  0  0  0  0  0  0  0  0  0  0
   46.8960   32.0760   45.3270 C   0  0  0  0  0  0  0  0  0  0  0  0
   45.8490   31.2560   45.1800 N   0  0  0  0  0  0  0  0  0  0  0  0
   44.5810   30.2880   43.7500 H   0  0  0  0  0  0  0  0  0  0  0  0
   45.7430   31.2390   41.8700 H   0  0  0  0  0  0  0  0  0  0  0  0
   47.2900   32.3650   46.3080 H   0  0  0  0  0  0  0  0  0  0  0  0
   46.2540   34.7830   42.1050 C   0  0  0  0  0  0  0  0  0  0  0  0
   45.7820   35.3420   43.2990 C   0  0  0  0  0  0  0  0  0  0  0  0
   44.4170   35.6170   43.3450 C   0  0  0  0  0  0  0  0  0  0  0  0
   43.6510   35.3180   42.2220 C   0  0  0  0  0  0  0  0  0  0  0  0
   44.1410   34.7640   41.0510 C   0  0  0  0  0  0  0  0  0  0  0  0
   45.4780   34.5040   41.0290 N   0  0  0  0  0  0  0  0  0  0  0  0
   46.4820   35.5110   44.0610 H   0  0  0  0  0  0  0  0  0  0  0  0
   44.0220   36.0420   44.2380 H   0  0  0  0  0  0  0  0  0  0  0  0
   42.5970   35.5450   42.2950 H   0  0  0  0  0  0  0  0  0  0  0  0
   43.2520   34.4930   39.9270 C   0  0  0  0  0  0  0  0  0  0  0  0
   42.2530   35.2620   39.7800 O   0  0  0  0  0  0  0  0  0  0  0  0
   43.4010   33.4170   38.9500 C   0  0  0  0  0  0  0  0  0  0  0  0
   42.4070   32.4930   38.7110 C   0  0  0  0  0  0  0  0  0  0  0  0
   41.4300   32.3460   39.1100 H   0  0  0  0  0  0  0  0  0  0  0  0
   42.8690   31.6440   37.7570 N   0  0  0  0  0  0  0  0  0  0  0  0
   42.3970   30.8110   37.3160 H   0  0  0  0  0  0  0  0  0  0  0  0
   44.0970   31.9910   37.3910 C   0  0  0  0  0  0  0  0  0  0  0  0
   44.8320   31.6250   36.6950 H   0  0  0  0  0  0  0  0  0  0  0  0
   44.4040   33.0720   38.1290 N   0  0  0  0  0  0  0  0  0  0  0  0
  1  7  1  1  0  0  0
  1 19  1  0  0  0  0
  2  8  1  0  0  0  0
  2  1  1  0  0  0  0
  3 10  1  0  0  0  0
  3  2  1  0  0  0  0
  4  3  1  0  0  0  0
  4  5  1  0  0  0  0
  5 15  1  0  0  0  0
  5  6  1  0  0  0  0
  6  1  1  0  0  0  0
  6 26  1  0  0  0  0
  6 16  1  1  0  0  0
  9  2  1  0  0  0  0
 11  3  1  0  0  0  0
 12  4  1  0  0  0  0
 13  4  1  0  0  0  0
 14  5  1  0  0  0  0
 17 22  1  0  0  0  0
 18 19  1  0  0  0  0
 18 17  2  0  0  0  0
 19 20  2  0  0  0  0
 20 21  1  0  0  0  0
 21 25  1  0  0  0  0
 22 21  2  0  0  0  0
 23 17  1  0  0  0  0
 24 18  1  0  0  0  0
 26 27  1  0  0  0  0
 27 28  2  0  0  0  0
 27 32  1  0  0  0  0
 28 33  1  0  0  0  0
 29 34  1  0  0  0  0
 29 28  1  0  0  0  0
 30 29  2  0  0  0  0
 31 30  1  0  0  0  0
 31 26  2  0  0  0  0
 35 30  1  0  0  0  0
 36 35  2  0  0  0  0
 37 35  1  0  0  0  0
 38 37  2  0  0  0  0
 38 39  1  0  0  0  0
 40 38  1  0  0  0  0
 41 40  1  0  0  0  0
 42 40  1  0  0  0  0
 42 44  2  0  0  0  0
 43 42  1  0  0  0  0
 44 37  1  0  0  0  0
M  END
>  <minimizedAffinity>
-5.24945879

>  <minimizedRMSD>
0.51806742

$$$$
