
 OpenBabel03242516523D

 44 47  0  0  1  0  0  0  0  0999 V2000
   47.8390   32.8960   41.8360 C   0  0  1  0  0  0  0  0  0  0  0  0
   47.5510   32.2960   40.5320 C   0  0  0  0  0  0  0  0  0  0  0  0
   48.5960   32.8540   39.5680 C   0  0  0  0  0  0  0  0  0  0  0  0
   48.2640   34.3080   39.3610 C   0  0  0  0  0  0  0  0  0  0  0  0
   48.1630   35.0980   40.6360 C   0  0  0  0  0  0  0  0  0  0  0  0
   47.6390   34.4150   41.8320 C   0  0  1  0  0  0  0  0  0  0  0  0
   48.9510   32.8060   42.0320 H   0  0  0  0  0  0  0  0  0  0  0  0
   47.6750   31.2010   40.6000 H   0  0  0  0  0  0  0  0  0  0  0  0
   46.5590   32.5540   40.1410 H   0  0  0  0  0  0  0  0  0  0  0  0
   49.6170   32.6630   39.9130 H   0  0  0  0  0  0  0  0  0  0  0  0
   48.3760   32.3560   38.5820 H   0  0  0  0  0  0  0  0  0  0  0  0
   49.0500   34.7450   38.7140 H   0  0  0  0  0  0  0  0  0  0  0  0
   47.3130   34.3720   38.8040 H   0  0  0  0  0  0  0  0  0  0  0  0
   47.4920   35.9590   40.4030 H   0  0  0  0  0  0  0  0  0  0  0  0
   49.1610   35.5560   40.8210 H   0  0  0  0  0  0  0  0  0  0  0  0
   48.2170   34.7790   42.7240 H   0  0  0  0  0  0  0  0  0  0  0  0
   45.3740   30.8910   43.8740 C   0  0  0  0  0  0  0  0  0  0  0  0
   46.0760   31.4710   42.8140 C   0  0  0  0  0  0  0  0  0  0  0  0
   47.1640   32.3260   42.9840 C   0  0  0  0  0  0  0  0  0  0  0  0
   47.5110   32.5720   44.2480 N   0  0  0  0  0  0  0  0  0  0  0  0
   46.8380   32.0150   45.2890 C   0  0  0  0  0  0  0  0  0  0  0  0
   45.7950   31.1950   45.1190 N   0  0  0  0  0  0  0  0  0  0  0  0
   44.5470   30.2430   43.6600 H   0  0  0  0  0  0  0  0  0  0  0  0
   45.7300   31.2210   41.8070 H   0  0  0  0  0  0  0  0  0  0  0  0
   47.2190   32.2920   46.2790 H   0  0  0  0  0  0  0  0  0  0  0  0
   46.2510   34.7790   42.1150 C   0  0  0  0  0  0  0  0  0  0  0  0
   45.7790   35.3400   43.3090 C   0  0  0  0  0  0  0  0  0  0  0  0
   44.4160   35.6210   43.3530 C   0  0  0  0  0  0  0  0  0  0  0  0
   43.6500   35.3260   42.2270 C   0  0  0  0  0  0  0  0  0  0  0  0
   44.1400   34.7700   41.0570 C   0  0  0  0  0  0  0  0  0  0  0  0
   45.4750   34.5030   41.0380 N   0  0  0  0  0  0  0  0  0  0  0  0
   46.4790   35.5050   44.0720 H   0  0  0  0  0  0  0  0  0  0  0  0
   44.0200   36.0480   44.2440 H   0  0  0  0  0  0  0  0  0  0  0  0
   42.5980   35.5580   42.2980 H   0  0  0  0  0  0  0  0  0  0  0  0
   43.2520   34.5030   39.9320 C   0  0  0  0  0  0  0  0  0  0  0  0
   42.2710   35.2910   39.7690 O   0  0  0  0  0  0  0  0  0  0  0  0
   43.3840   33.4110   38.9700 C   0  0  0  0  0  0  0  0  0  0  0  0
   42.3860   32.4820   38.7650 C   0  0  0  0  0  0  0  0  0  0  0  0
   41.4170   32.3410   39.1860 H   0  0  0  0  0  0  0  0  0  0  0  0
   42.8300   31.6180   37.8180 N   0  0  0  0  0  0  0  0  0  0  0  0
   42.3510   30.7770   37.3990 H   0  0  0  0  0  0  0  0  0  0  0  0
   44.0490   31.9590   37.4220 C   0  0  0  0  0  0  0  0  0  0  0  0
   44.7720   31.5820   36.7180 H   0  0  0  0  0  0  0  0  0  0  0  0
   44.3690   33.0530   38.1340 N   0  0  0  0  0  0  0  0  0  0  0  0
  1  7  1  1  0  0  0
  1 19  1  0  0  0  0
  2  8  1  0  0  0  0
  2  1  1  0  0  0  0
  3 10  1  0  0  0  0
  3  2  1  0  0  0  0
  4  3  1  0  0  0  0
  4  5  1  0  0  0  0
  5 15  1  0  0  0  0
  5  6  1  0  0  0  0
  6  1  1  0  0  0  0
  6 26  1  0  0  0  0
  6 16  1  1  0  0  0
  9  2  1  0  0  0  0
 11  3  1  0  0  0  0
 12  4  1  0  0  0  0
 13  4  1  0  0  0  0
 14  5  1  0  0  0  0
 17 22  1  0  0  0  0
 18 19  1  0  0  0  0
 18 17  2  0  0  0  0
 19 20  2  0  0  0  0
 20 21  1  0  0  0  0
 21 25  1  0  0  0  0
 22 21  2  0  0  0  0
 23 17  1  0  0  0  0
 24 18  1  0  0  0  0
 26 27  1  0  0  0  0
 27 28  2  0  0  0  0
 27 32  1  0  0  0  0
 28 33  1  0  0  0  0
 29 34  1  0  0  0  0
 29 28  1  0  0  0  0
 30 29  2  0  0  0  0
 31 30  1  0  0  0  0
 31 26  2  0  0  0  0
 35 30  1  0  0  0  0
 36 35  2  0  0  0  0
 37 35  1  0  0  0  0
 38 37  2  0  0  0  0
 38 39  1  0  0  0  0
 40 38  1  0  0  0  0
 41 40  1  0  0  0  0
 42 40  1  0  0  0  0
 42 44  2  0  0  0  0
 43 42  1  0  0  0  0
 44 37  1  0  0  0  0
M  END
>  <minimizedAffinity>
-5.23578215

>  <minimizedRMSD>
0.431646228

$$$$
