
 OpenBabel03252509193D

 42 45  0  0  1  0  0  0  0  0999 V2000
   46.7900   30.9380   47.0410 C   0  0  1  0  0  0  0  0  0  0  0  0
   46.9880   32.0780   47.9760 C   0  0  0  0  0  0  0  0  0  0  0  0
   45.8300   32.3100   48.9130 C   0  0  0  0  0  0  0  0  0  0  0  0
   45.2840   31.0520   49.5160 C   0  0  0  0  0  0  0  0  0  0  0  0
   45.1670   29.9260   48.5200 C   0  0  0  0  0  0  0  0  0  0  0  0
   45.3270   30.4830   47.0940 C   0  0  2  0  0  0  0  0  0  0  0  0
   47.3560   30.0650   47.4380 H   0  0  0  0  0  0  0  0  0  0  0  0
   47.8930   31.9210   48.5980 H   0  0  0  0  0  0  0  0  0  0  0  0
   47.1630   33.0250   47.4190 H   0  0  0  0  0  0  0  0  0  0  0  0
   46.2330   32.9140   49.7490 H   0  0  0  0  0  0  0  0  0  0  0  0
   45.0430   32.8660   48.3380 H   0  0  0  0  0  0  0  0  0  0  0  0
   44.3480   31.2830   50.0320 H   0  0  0  0  0  0  0  0  0  0  0  0
   46.0080   30.7060   50.3010 H   0  0  0  0  0  0  0  0  0  0  0  0
   45.9130   29.1280   48.6530 H   0  0  0  0  0  0  0  0  0  0  0  0
   44.1320   29.5210   48.6130 H   0  0  0  0  0  0  0  0  0  0  0  0
   44.6550   31.3720   46.9710 H   0  0  0  0  0  0  0  0  0  0  0  0
   47.7370   32.3850   43.3370 C   0  0  0  0  0  0  0  0  0  0  0  0
   48.2330   31.1020   43.5510 C   0  0  0  0  0  0  0  0  0  0  0  0
   47.9920   30.5200   44.7250 C   0  0  0  0  0  0  0  0  0  0  0  0
   47.2460   31.1990   45.7230 C   0  0  0  0  0  0  0  0  0  0  0  0
   46.8680   32.7890   44.9160 S   0  0  0  0  0  0  0  0  0  0  0  0
   48.7990   30.5890   42.7850 H   0  0  0  0  0  0  0  0  0  0  0  0
   48.2920   29.5440   45.0680 H   0  0  0  0  0  0  0  0  0  0  0  0
   47.8030   33.5960   39.8150 C   0  0  0  0  0  0  0  0  0  0  0  0
   48.3210   34.8760   40.0010 C   0  0  0  0  0  0  0  0  0  0  0  0
   48.6270   35.2740   41.3100 C   0  0  0  0  0  0  0  0  0  0  0  0
   48.4030   34.3900   42.3260 N   0  0  0  0  0  0  0  0  0  0  0  0
   47.9010   33.1670   42.1000 C   0  0  0  0  0  0  0  0  0  0  0  0
   47.6050   32.7780   40.8420 N   0  0  0  0  0  0  0  0  0  0  0  0
   47.5600   33.2670   38.8190 H   0  0  0  0  0  0  0  0  0  0  0  0
   48.4920   35.5630   39.1900 H   0  0  0  0  0  0  0  0  0  0  0  0
   49.0240   36.2380   41.5130 H   0  0  0  0  0  0  0  0  0  0  0  0
   45.0550   29.4380   46.1140 C   0  0  0  0  0  0  0  0  0  0  0  0
   45.4640   28.2620   46.2750 O   0  0  0  0  0  0  0  0  0  0  0  0
   44.3770   29.2830   44.8500 C   0  0  0  0  0  0  0  0  0  0  0  0
   43.2540   28.5090   44.7030 C   0  0  0  0  0  0  0  0  0  0  0  0
   42.6050   27.8530   45.2770 H   0  0  0  0  0  0  0  0  0  0  0  0
   42.8210   28.5980   43.4060 N   0  0  0  0  0  0  0  0  0  0  0  0
   42.0220   28.1730   42.8970 H   0  0  0  0  0  0  0  0  0  0  0  0
   43.6320   29.4030   42.7260 C   0  0  0  0  0  0  0  0  0  0  0  0
   43.7070   29.7750   41.7100 H   0  0  0  0  0  0  0  0  0  0  0  0
   44.5140   29.7650   43.6280 N   0  0  0  0  0  0  0  0  0  0  0  0
  1  6  1  0  0  0  0
  1  7  1  1  0  0  0
  1  2  1  0  0  0  0
  2  8  1  0  0  0  0
  2  3  1  0  0  0  0
  3  4  1  0  0  0  0
  3 10  1  0  0  0  0
  4 12  1  0  0  0  0
  4 13  1  0  0  0  0
  5 15  1  0  0  0  0
  5 14  1  0  0  0  0
  5  4  1  0  0  0  0
  6 16  1  6  0  0  0
  6  5  1  0  0  0  0
  9  2  1  0  0  0  0
 11  3  1  0  0  0  0
 17 18  2  0  0  0  0
 17 21  1  0  0  0  0
 18 19  1  0  0  0  0
 19 23  1  0  0  0  0
 19 20  2  0  0  0  0
 20  1  1  0  0  0  0
 21 20  1  0  0  0  0
 22 18  1  0  0  0  0
 24 25  2  0  0  0  0
 24 29  1  0  0  0  0
 25 26  1  0  0  0  0
 26 32  1  0  0  0  0
 26 27  2  0  0  0  0
 28 27  1  0  0  0  0
 28 17  1  0  0  0  0
 29 28  2  0  0  0  0
 30 24  1  0  0  0  0
 31 25  1  0  0  0  0
 33 34  2  0  0  0  0
 33  6  1  0  0  0  0
 35 33  1  0  0  0  0
 36 35  2  0  0  0  0
 36 37  1  0  0  0  0
 38 36  1  0  0  0  0
 39 38  1  0  0  0  0
 40 38  1  0  0  0  0
 40 42  2  0  0  0  0
 41 40  1  0  0  0  0
 42 35  1  0  0  0  0
M  END
>  <minimizedAffinity>
-4.98695755

>  <minimizedRMSD>
5.7431345

$$$$
