
 OpenBabel03252509193D

 42 45  0  0  1  0  0  0  0  0999 V2000
   48.4420   29.0260   48.0200 C   0  0  1  0  0  0  0  0  0  0  0  0
   48.3240   28.0710   46.8860 C   0  0  0  0  0  0  0  0  0  0  0  0
   49.5800   27.2830   46.6150 C   0  0  0  0  0  0  0  0  0  0  0  0
   50.2370   26.7560   47.8530 C   0  0  0  0  0  0  0  0  0  0  0  0
   50.2670   27.7620   48.9760 C   0  0  0  0  0  0  0  0  0  0  0  0
   49.9140   29.1560   48.4270 C   0  0  2  0  0  0  0  0  0  0  0  0
   47.9580   28.5650   48.9100 H   0  0  0  0  0  0  0  0  0  0  0  0
   47.5070   27.3430   47.0710 H   0  0  0  0  0  0  0  0  0  0  0  0
   48.0510   28.6000   45.9450 H   0  0  0  0  0  0  0  0  0  0  0  0
   49.2640   26.4030   46.0230 H   0  0  0  0  0  0  0  0  0  0  0  0
   50.2720   27.9500   46.0340 H   0  0  0  0  0  0  0  0  0  0  0  0
   51.2210   26.3590   47.5910 H   0  0  0  0  0  0  0  0  0  0  0  0
   49.6270   25.8890   48.2210 H   0  0  0  0  0  0  0  0  0  0  0  0
   49.5690   27.5400   49.7980 H   0  0  0  0  0  0  0  0  0  0  0  0
   51.3180   27.7980   49.3470 H   0  0  0  0  0  0  0  0  0  0  0  0
   50.5360   29.3580   47.5160 H   0  0  0  0  0  0  0  0  0  0  0  0
   46.6710   32.4080   46.5580 C   0  0  0  0  0  0  0  0  0  0  0  0
   46.8170   32.4390   47.9410 C   0  0  0  0  0  0  0  0  0  0  0  0
   47.3810   31.3900   48.5400 C   0  0  0  0  0  0  0  0  0  0  0  0
   47.8190   30.2780   47.7760 C   0  0  0  0  0  0  0  0  0  0  0  0
   47.3840   30.7740   46.0760 S   0  0  0  0  0  0  0  0  0  0  0  0
   46.4830   33.2910   48.5180 H   0  0  0  0  0  0  0  0  0  0  0  0
   47.5740   31.2360   49.5880 H   0  0  0  0  0  0  0  0  0  0  0  0
   44.6670   35.2640   45.2510 C   0  0  0  0  0  0  0  0  0  0  0  0
   45.2060   35.3830   43.9720 C   0  0  0  0  0  0  0  0  0  0  0  0
   46.2240   34.4910   43.6060 C   0  0  0  0  0  0  0  0  0  0  0  0
   46.6290   33.5590   44.5170 N   0  0  0  0  0  0  0  0  0  0  0  0
   46.0810   33.4810   45.7390 C   0  0  0  0  0  0  0  0  0  0  0  0
   45.1000   34.3370   46.0970 N   0  0  0  0  0  0  0  0  0  0  0  0
   43.8850   35.9380   45.5560 H   0  0  0  0  0  0  0  0  0  0  0  0
   44.8780   36.1240   43.2640 H   0  0  0  0  0  0  0  0  0  0  0  0
   46.6730   34.5340   42.6440 H   0  0  0  0  0  0  0  0  0  0  0  0
   50.0970   30.1650   49.4640 C   0  0  0  0  0  0  0  0  0  0  0  0
   49.5000   30.0910   50.5660 O   0  0  0  0  0  0  0  0  0  0  0  0
   50.8390   31.3840   49.6760 C   0  0  0  0  0  0  0  0  0  0  0  0
   52.0940   31.5850   49.1600 C   0  0  0  0  0  0  0  0  0  0  0  0
   52.8540   31.0710   48.5780 H   0  0  0  0  0  0  0  0  0  0  0  0
   52.5140   32.8460   49.4930 N   0  0  0  0  0  0  0  0  0  0  0  0
   53.3860   33.3750   49.3000 H   0  0  0  0  0  0  0  0  0  0  0  0
   51.5670   33.4500   50.2040 C   0  0  0  0  0  0  0  0  0  0  0  0
   51.4300   34.4160   50.6810 H   0  0  0  0  0  0  0  0  0  0  0  0
   50.6220   32.5420   50.2720 N   0  0  0  0  0  0  0  0  0  0  0  0
  1  6  1  0  0  0  0
  1  7  1  1  0  0  0
  2  8  1  0  0  0  0
  2  1  1  0  0  0  0
  3  2  1  0  0  0  0
  3  4  1  0  0  0  0
  4 13  1  0  0  0  0
  4  5  1  0  0  0  0
  5 15  1  0  0  0  0
  5 14  1  0  0  0  0
  6 16  1  6  0  0  0
  6  5  1  0  0  0  0
  6 33  1  0  0  0  0
  9  2  1  0  0  0  0
 10  3  1  0  0  0  0
 11  3  1  0  0  0  0
 12  4  1  0  0  0  0
 17 18  2  0  0  0  0
 18 22  1  0  0  0  0
 18 19  1  0  0  0  0
 19 23  1  0  0  0  0
 20  1  1  0  0  0  0
 20 19  2  0  0  0  0
 21 17  1  0  0  0  0
 21 20  1  0  0  0  0
 24 30  1  0  0  0  0
 24 29  1  0  0  0  0
 25 24  2  0  0  0  0
 26 25  1  0  0  0  0
 26 27  2  0  0  0  0
 27 28  1  0  0  0  0
 28 29  2  0  0  0  0
 28 17  1  0  0  0  0
 31 25  1  0  0  0  0
 32 26  1  0  0  0  0
 33 35  1  0  0  0  0
 33 34  2  0  0  0  0
 35 42  1  0  0  0  0
 36 38  1  0  0  0  0
 36 35  2  0  0  0  0
 37 36  1  0  0  0  0
 38 40  1  0  0  0  0
 39 38  1  0  0  0  0
 40 42  2  0  0  0  0
 40 41  1  0  0  0  0
M  END
>  <minimizedAffinity>
-5.39428091

>  <minimizedRMSD>
1.99096465

$$$$
