
 OpenBabel03252509193D

 42 45  0  0  1  0  0  0  0  0999 V2000
   45.9790   27.8610   47.2890 C   0  0  1  0  0  0  0  0  0  0  0  0
   44.7190   27.4410   47.9590 C   0  0  0  0  0  0  0  0  0  0  0  0
   44.6410   25.9640   48.2490 C   0  0  0  0  0  0  0  0  0  0  0  0
   45.9070   25.3960   48.8130 C   0  0  0  0  0  0  0  0  0  0  0  0
   47.1430   25.9120   48.1200 C   0  0  0  0  0  0  0  0  0  0  0  0
   46.7420   26.6190   46.8130 C   0  0  2  0  0  0  0  0  0  0  0  0
   46.6470   28.3070   48.0600 H   0  0  0  0  0  0  0  0  0  0  0  0
   44.5910   27.9770   48.9220 H   0  0  0  0  0  0  0  0  0  0  0  0
   43.8310   27.7090   47.3430 H   0  0  0  0  0  0  0  0  0  0  0  0
   43.8650   25.8490   49.0300 H   0  0  0  0  0  0  0  0  0  0  0  0
   44.3510   25.4520   47.2940 H   0  0  0  0  0  0  0  0  0  0  0  0
   45.8330   24.3060   48.8260 H   0  0  0  0  0  0  0  0  0  0  0  0
   45.9840   25.7260   49.8830 H   0  0  0  0  0  0  0  0  0  0  0  0
   47.7300   26.6250   48.7190 H   0  0  0  0  0  0  0  0  0  0  0  0
   47.7560   25.0210   47.8500 H   0  0  0  0  0  0  0  0  0  0  0  0
   46.0480   25.9540   46.2360 H   0  0  0  0  0  0  0  0  0  0  0  0
   45.8720   31.0930   44.7870 C   0  0  0  0  0  0  0  0  0  0  0  0
   45.1320   30.0180   44.3020 C   0  0  0  0  0  0  0  0  0  0  0  0
   45.0900   28.9020   45.0280 C   0  0  0  0  0  0  0  0  0  0  0  0
   45.7840   28.8220   46.2630 C   0  0  0  0  0  0  0  0  0  0  0  0
   46.5550   30.4690   46.3860 S   0  0  0  0  0  0  0  0  0  0  0  0
   44.6040   30.0860   43.3610 H   0  0  0  0  0  0  0  0  0  0  0  0
   44.5770   27.9790   44.8160 H   0  0  0  0  0  0  0  0  0  0  0  0
   45.3090   34.3630   43.0960 C   0  0  0  0  0  0  0  0  0  0  0  0
   46.6250   34.7850   42.9220 C   0  0  0  0  0  0  0  0  0  0  0  0
   47.6470   33.9430   43.3830 C   0  0  0  0  0  0  0  0  0  0  0  0
   47.2990   32.7630   43.9740 N   0  0  0  0  0  0  0  0  0  0  0  0
   46.0170   32.3980   44.1210 C   0  0  0  0  0  0  0  0  0  0  0  0
   45.0280   33.2030   43.6790 N   0  0  0  0  0  0  0  0  0  0  0  0
   44.5050   34.9920   42.7510 H   0  0  0  0  0  0  0  0  0  0  0  0
   46.8850   35.7190   42.4550 H   0  0  0  0  0  0  0  0  0  0  0  0
   48.6700   34.2120   43.2790 H   0  0  0  0  0  0  0  0  0  0  0  0
   47.9320   26.9800   46.0520 C   0  0  0  0  0  0  0  0  0  0  0  0
   48.9840   27.3660   46.6190 O   0  0  0  0  0  0  0  0  0  0  0  0
   48.3650   27.0480   44.6780 C   0  0  0  0  0  0  0  0  0  0  0  0
   49.5540   27.6200   44.3040 C   0  0  0  0  0  0  0  0  0  0  0  0
   50.4060   28.1380   44.7310 H   0  0  0  0  0  0  0  0  0  0  0  0
   49.7010   27.4900   42.9470 N   0  0  0  0  0  0  0  0  0  0  0  0
   50.4460   27.7820   42.2850 H   0  0  0  0  0  0  0  0  0  0  0  0
   48.6450   26.8540   42.4490 C   0  0  0  0  0  0  0  0  0  0  0  0
   48.3080   26.5260   41.4720 H   0  0  0  0  0  0  0  0  0  0  0  0
   47.9090   26.6270   43.5120 N   0  0  0  0  0  0  0  0  0  0  0  0
  1  2  1  0  0  0  0
  1  7  1  1  0  0  0
  2  3  1  0  0  0  0
  2  8  1  0  0  0  0
  3  4  1  0  0  0  0
  3 10  1  0  0  0  0
  4 12  1  0  0  0  0
  4 13  1  0  0  0  0
  5 14  1  0  0  0  0
  5  4  1  0  0  0  0
  6 16  1  6  0  0  0
  6  1  1  0  0  0  0
  6  5  1  0  0  0  0
  9  2  1  0  0  0  0
 11  3  1  0  0  0  0
 15  5  1  0  0  0  0
 17 21  1  0  0  0  0
 18 17  2  0  0  0  0
 18 19  1  0  0  0  0
 19 20  2  0  0  0  0
 20 21  1  0  0  0  0
 20  1  1  0  0  0  0
 22 18  1  0  0  0  0
 23 19  1  0  0  0  0
 24 29  1  0  0  0  0
 25 24  2  0  0  0  0
 25 26  1  0  0  0  0
 26 27  2  0  0  0  0
 27 28  1  0  0  0  0
 28 17  1  0  0  0  0
 29 28  2  0  0  0  0
 30 24  1  0  0  0  0
 31 25  1  0  0  0  0
 32 26  1  0  0  0  0
 33 34  2  0  0  0  0
 33  6  1  0  0  0  0
 35 33  1  0  0  0  0
 36 35  2  0  0  0  0
 36 37  1  0  0  0  0
 38 36  1  0  0  0  0
 39 38  1  0  0  0  0
 40 38  1  0  0  0  0
 40 42  2  0  0  0  0
 41 40  1  0  0  0  0
 42 35  1  0  0  0  0
M  END
>  <minimizedAffinity>
-3.16115642

>  <minimizedRMSD>
5.20102787

$$$$
