
 OpenBabel03252509193D

 42 45  0  0  1  0  0  0  0  0999 V2000
   48.1330   29.0110   48.0090 C   0  0  1  0  0  0  0  0  0  0  0  0
   47.8490   27.9880   46.9660 C   0  0  0  0  0  0  0  0  0  0  0  0
   49.0010   27.0550   46.6930 C   0  0  0  0  0  0  0  0  0  0  0  0
   49.6780   26.5590   47.9330 C   0  0  0  0  0  0  0  0  0  0  0  0
   49.8790   27.6400   48.9660 C   0  0  0  0  0  0  0  0  0  0  0  0
   49.6340   29.0170   48.3220 C   0  0  2  0  0  0  0  0  0  0  0  0
   47.6620   28.6730   48.9590 H   0  0  0  0  0  0  0  0  0  0  0  0
   46.9780   27.3660   47.2560 H   0  0  0  0  0  0  0  0  0  0  0  0
   47.5710   28.4680   46.0010 H   0  0  0  0  0  0  0  0  0  0  0  0
   48.5620   26.1690   46.1950 H   0  0  0  0  0  0  0  0  0  0  0  0
   49.7180   27.5980   46.0220 H   0  0  0  0  0  0  0  0  0  0  0  0
   50.6000   26.0420   47.6530 H   0  0  0  0  0  0  0  0  0  0  0  0
   49.0100   25.7910   48.4060 H   0  0  0  0  0  0  0  0  0  0  0  0
   49.2160   27.5570   49.8400 H   0  0  0  0  0  0  0  0  0  0  0  0
   50.9500   27.5950   49.2740 H   0  0  0  0  0  0  0  0  0  0  0  0
   50.2140   29.0820   47.3650 H   0  0  0  0  0  0  0  0  0  0  0  0
   46.6470   32.4460   46.3630 C   0  0  0  0  0  0  0  0  0  0  0  0
   46.8340   32.5500   47.7390 C   0  0  0  0  0  0  0  0  0  0  0  0
   47.3130   31.4930   48.3930 C   0  0  0  0  0  0  0  0  0  0  0  0
   47.6240   30.2980   47.6950 C   0  0  0  0  0  0  0  0  0  0  0  0
   47.1900   30.7230   45.9770 S   0  0  0  0  0  0  0  0  0  0  0  0
   46.5980   33.4650   48.2640 H   0  0  0  0  0  0  0  0  0  0  0  0
   47.5210   31.3880   49.4440 H   0  0  0  0  0  0  0  0  0  0  0  0
   44.7890   35.3060   44.8680 C   0  0  0  0  0  0  0  0  0  0  0  0
   45.4320   35.4060   43.6360 C   0  0  0  0  0  0  0  0  0  0  0  0
   46.4670   34.5000   43.3640 C   0  0  0  0  0  0  0  0  0  0  0  0
   46.7860   33.5740   44.3150 N   0  0  0  0  0  0  0  0  0  0  0  0
   46.1380   33.5150   45.4880 C   0  0  0  0  0  0  0  0  0  0  0  0
   45.1410   34.3840   45.7560 N   0  0  0  0  0  0  0  0  0  0  0  0
   43.9910   35.9910   45.1010 H   0  0  0  0  0  0  0  0  0  0  0  0
   45.1710   36.1430   42.8960 H   0  0  0  0  0  0  0  0  0  0  0  0
   46.9940   34.5290   42.4430 H   0  0  0  0  0  0  0  0  0  0  0  0
   49.9810   30.0780   49.2590 C   0  0  0  0  0  0  0  0  0  0  0  0
   49.3660   30.2250   50.3440 O   0  0  0  0  0  0  0  0  0  0  0  0
   50.9270   31.1610   49.3740 C   0  0  0  0  0  0  0  0  0  0  0  0
   50.6020   32.3720   49.9320 C   0  0  0  0  0  0  0  0  0  0  0  0
   49.7550   32.8960   50.3650 H   0  0  0  0  0  0  0  0  0  0  0  0
   51.7160   33.1690   49.9370 N   0  0  0  0  0  0  0  0  0  0  0  0
   51.8890   34.1390   50.2660 H   0  0  0  0  0  0  0  0  0  0  0  0
   52.7350   32.5070   49.4010 C   0  0  0  0  0  0  0  0  0  0  0  0
   53.7820   32.7000   49.1910 H   0  0  0  0  0  0  0  0  0  0  0  0
   52.2050   31.3450   49.0960 N   0  0  0  0  0  0  0  0  0  0  0  0
  1  6  1  0  0  0  0
  1  7  1  1  0  0  0
  2  8  1  0  0  0  0
  2  1  1  0  0  0  0
  3  2  1  0  0  0  0
  3  4  1  0  0  0  0
  4 13  1  0  0  0  0
  4  5  1  0  0  0  0
  5 15  1  0  0  0  0
  5 14  1  0  0  0  0
  6 16  1  6  0  0  0
  6  5  1  0  0  0  0
  6 33  1  0  0  0  0
  9  2  1  0  0  0  0
 10  3  1  0  0  0  0
 11  3  1  0  0  0  0
 12  4  1  0  0  0  0
 17 18  2  0  0  0  0
 18 22  1  0  0  0  0
 18 19  1  0  0  0  0
 19 23  1  0  0  0  0
 20  1  1  0  0  0  0
 20 19  2  0  0  0  0
 21 17  1  0  0  0  0
 21 20  1  0  0  0  0
 24 30  1  0  0  0  0
 24 29  1  0  0  0  0
 25 24  2  0  0  0  0
 26 25  1  0  0  0  0
 26 27  2  0  0  0  0
 27 28  1  0  0  0  0
 28 29  2  0  0  0  0
 28 17  1  0  0  0  0
 31 25  1  0  0  0  0
 32 26  1  0  0  0  0
 33 35  1  0  0  0  0
 33 34  2  0  0  0  0
 35 36  2  0  0  0  0
 36 38  1  0  0  0  0
 36 37  1  0  0  0  0
 38 39  1  0  0  0  0
 40 38  1  0  0  0  0
 41 40  1  0  0  0  0
 42 35  1  0  0  0  0
 42 40  2  0  0  0  0
M  END
>  <minimizedAffinity>
-5.27206516

>  <minimizedRMSD>
2.00005913

$$$$
