
 OpenBabel03252508493D

 27 29  0  0  0  0  0  0  0  0999 V2000
   46.0820   34.1690   41.0070 C   0  0  0  0  0  0  0  0  0  0  0  0
   46.6220   34.7850   42.1300 C   0  0  0  0  0  0  0  0  0  0  0  0
   47.9560   35.1760   42.0440 C   0  0  0  0  0  0  0  0  0  0  0  0
   48.6390   34.9360   40.8910 N   0  0  0  0  0  0  0  0  0  0  0  0
   48.0800   34.3420   39.8340 C   0  0  0  0  0  0  0  0  0  0  0  0
   46.7900   33.9530   39.8900 N   0  0  0  0  0  0  0  0  0  0  0  0
   48.3950   35.6560   42.9070 H   0  0  0  0  0  0  0  0  0  0  0  0
   48.6100   34.1450   38.9110 H   0  0  0  0  0  0  0  0  0  0  0  0
   45.8020   34.9900   43.3100 C   0  0  0  0  0  0  0  0  0  0  0  0
   45.0880   36.1620   43.5270 C   0  0  0  0  0  0  0  0  0  0  0  0
   44.4640   35.9370   44.7400 C   0  0  0  0  0  0  0  0  0  0  0  0
   44.7780   34.7060   45.2260 N   0  0  0  0  0  0  0  0  0  0  0  0
   45.5850   34.1630   44.3400 N   0  0  0  0  0  0  0  0  0  0  0  0
   45.0030   37.0590   42.9350 H   0  0  0  0  0  0  0  0  0  0  0  0
   43.8080   36.6670   45.2250 H   0  0  0  0  0  0  0  0  0  0  0  0
   44.4350   34.2890   46.1320 H   0  0  0  0  0  0  0  0  0  0  0  0
   44.7590   33.7640   41.0510 O   0  0  0  0  0  0  0  0  0  0  0  0
   43.6970   34.3230   40.3980 C   0  0  0  0  0  0  0  0  0  0  0  0
   43.3030   35.5420   40.4630 O   0  0  0  0  0  0  0  0  0  0  0  0
   42.8030   33.5540   39.4770 C   0  0  0  0  0  0  0  0  0  0  0  0
   41.7250   34.0720   38.7940 C   0  0  0  0  0  0  0  0  0  0  0  0
   41.3140   35.0710   38.7680 H   0  0  0  0  0  0  0  0  0  0  0  0
   41.1230   33.1090   38.0480 N   0  0  0  0  0  0  0  0  0  0  0  0
   40.2940   33.1790   37.4260 H   0  0  0  0  0  0  0  0  0  0  0  0
   41.8530   32.0090   38.2910 C   0  0  0  0  0  0  0  0  0  0  0  0
   41.6520   31.0340   37.8500 H   0  0  0  0  0  0  0  0  0  0  0  0
   42.8580   32.2580   39.1410 N   0  0  0  0  0  0  0  0  0  0  0  0
  1 17  1  0  0  0  0
  1  2  1  0  0  0  0
  2  9  1  0  0  0  0
  3  2  2  0  0  0  0
  3  7  1  0  0  0  0
  4  3  1  0  0  0  0
  5  6  1  0  0  0  0
  5  4  2  0  0  0  0
  6  1  2  0  0  0  0
  8  5  1  0  0  0  0
  9 10  1  0  0  0  0
  9 13  2  0  0  0  0
 10 11  2  0  0  0  0
 11 15  1  0  0  0  0
 11 12  1  0  0  0  0
 12 16  1  0  0  0  0
 13 12  1  0  0  0  0
 14 10  1  0  0  0  0
 18 19  2  0  0  0  0
 18 17  1  0  0  0  0
 20 18  1  0  0  0  0
 21 20  2  0  0  0  0
 22 21  1  0  0  0  0
 23 25  1  0  0  0  0
 23 21  1  0  0  0  0
 24 23  1  0  0  0  0
 25 27  2  0  0  0  0
 26 25  1  0  0  0  0
 27 20  1  0  0  0  0
M  END
>  <minimizedAffinity>
-4.99966526

>  <minimizedRMSD>
0.188728377

$$$$
