
 OpenBabel03252508493D

 27 29  0  0  0  0  0  0  0  0999 V2000
   45.9770   34.2280   41.0440 C   0  0  0  0  0  0  0  0  0  0  0  0
   46.5640   34.8180   42.1570 C   0  0  0  0  0  0  0  0  0  0  0  0
   47.9100   35.1580   42.0450 C   0  0  0  0  0  0  0  0  0  0  0  0
   48.5590   34.8970   40.8770 N   0  0  0  0  0  0  0  0  0  0  0  0
   47.9560   34.3290   39.8300 C   0  0  0  0  0  0  0  0  0  0  0  0
   46.6540   33.9890   39.9110 N   0  0  0  0  0  0  0  0  0  0  0  0
   48.3840   35.6170   42.9000 H   0  0  0  0  0  0  0  0  0  0  0  0
   48.4590   34.1150   38.8960 H   0  0  0  0  0  0  0  0  0  0  0  0
   45.7760   35.0500   43.3550 C   0  0  0  0  0  0  0  0  0  0  0  0
   45.1060   36.2450   43.5860 C   0  0  0  0  0  0  0  0  0  0  0  0
   44.5010   36.0400   44.8120 C   0  0  0  0  0  0  0  0  0  0  0  0
   44.7850   34.7990   45.2920 N   0  0  0  0  0  0  0  0  0  0  0  0
   45.5550   34.2310   44.3890 N   0  0  0  0  0  0  0  0  0  0  0  0
   45.0380   37.1440   42.9950 H   0  0  0  0  0  0  0  0  0  0  0  0
   43.8800   36.7910   45.3110 H   0  0  0  0  0  0  0  0  0  0  0  0
   44.4480   34.3930   46.2060 H   0  0  0  0  0  0  0  0  0  0  0  0
   44.6410   33.8740   41.1130 O   0  0  0  0  0  0  0  0  0  0  0  0
   43.5750   34.5490   40.5910 C   0  0  0  0  0  0  0  0  0  0  0  0
   43.1800   35.7300   40.8990 O   0  0  0  0  0  0  0  0  0  0  0  0
   42.6750   33.9770   39.5410 C   0  0  0  0  0  0  0  0  0  0  0  0
   41.9370   34.7080   38.6380 C   0  0  0  0  0  0  0  0  0  0  0  0
   41.8500   35.7750   38.4890 H   0  0  0  0  0  0  0  0  0  0  0  0
   41.2240   33.8850   37.8250 N   0  0  0  0  0  0  0  0  0  0  0  0
   40.5770   34.1250   37.0480 H   0  0  0  0  0  0  0  0  0  0  0  0
   41.5420   32.6530   38.2530 C   0  0  0  0  0  0  0  0  0  0  0  0
   41.1460   31.7370   37.8210 H   0  0  0  0  0  0  0  0  0  0  0  0
   42.4060   32.6920   39.2760 N   0  0  0  0  0  0  0  0  0  0  0  0
  1 17  1  0  0  0  0
  1  2  1  0  0  0  0
  2  9  1  0  0  0  0
  3  2  2  0  0  0  0
  3  7  1  0  0  0  0
  4  3  1  0  0  0  0
  5  6  1  0  0  0  0
  5  4  2  0  0  0  0
  6  1  2  0  0  0  0
  8  5  1  0  0  0  0
  9 10  1  0  0  0  0
  9 13  2  0  0  0  0
 10 11  2  0  0  0  0
 11 12  1  0  0  0  0
 11 15  1  0  0  0  0
 12 16  1  0  0  0  0
 13 12  1  0  0  0  0
 14 10  1  0  0  0  0
 18 19  2  0  0  0  0
 18 17  1  0  0  0  0
 20 18  1  0  0  0  0
 21 20  2  0  0  0  0
 22 21  1  0  0  0  0
 23 25  1  0  0  0  0
 23 21  1  0  0  0  0
 24 23  1  0  0  0  0
 25 27  2  0  0  0  0
 26 25  1  0  0  0  0
 27 20  1  0  0  0  0
M  END
>  <minimizedAffinity>
-5.25266409

>  <minimizedRMSD>
0.527022958

$$$$
