
 OpenBabel03242520433D

 38 41  0  0  1  0  0  0  0  0999 V2000
   42.2680   27.2630   41.7450 C   0  0  0  0  0  0  0  0  0  0  0  0
   42.7960   26.7750   42.9470 C   0  0  0  0  0  0  0  0  0  0  0  0
   42.0360   25.8000   43.6590 C   0  0  0  0  0  0  0  0  0  0  0  0
   40.8410   25.4030   43.1240 N   0  0  0  0  0  0  0  0  0  0  0  0
   40.3910   25.9100   41.9640 C   0  0  0  0  0  0  0  0  0  0  0  0
   41.0960   26.8390   41.2690 N   0  0  0  0  0  0  0  0  0  0  0  0
   39.1530   25.4320   41.5130 N   0  0  0  0  0  0  0  0  0  0  0  0
   37.9740   25.5820   42.3020 C   0  0  2  0  0  0  0  0  0  0  0  0
   36.8020   24.7960   41.8350 C   0  0  0  0  0  0  0  0  0  0  0  0
   36.7050   24.5560   40.4430 N   0  0  0  0  0  0  0  0  0  0  0  0
   37.7210   25.1640   39.6630 C   0  0  0  0  0  0  0  0  0  0  0  0
   39.0590   24.7730   40.2200 C   0  0  0  0  0  0  0  0  0  0  0  0
   42.9090   27.9980   41.2720 H   0  0  0  0  0  0  0  0  0  0  0  0
   43.7430   27.1050   43.3500 H   0  0  0  0  0  0  0  0  0  0  0  0
   42.4170   25.4110   44.5800 H   0  0  0  0  0  0  0  0  0  0  0  0
   38.2360   25.1280   43.3080 H   0  0  0  0  0  0  0  0  0  0  0  0
   36.7280   23.8150   42.3450 H   0  0  0  0  0  0  0  0  0  0  0  0
   35.8720   25.3560   42.1460 H   0  0  0  0  0  0  0  0  0  0  0  0
   36.5230   23.5660   40.1780 H   0  0  0  0  0  0  0  0  0  0  0  0
   37.5790   26.2290   39.5170 H   0  0  0  0  0  0  0  0  0  0  0  0
   37.6290   24.7140   38.6260 H   0  0  0  0  0  0  0  0  0  0  0  0
   39.8650   25.2090   39.5720 H   0  0  0  0  0  0  0  0  0  0  0  0
   39.1440   23.6900   40.2500 H   0  0  0  0  0  0  0  0  0  0  0  0
   37.6580   27.0120   42.5650 C   0  0  0  0  0  0  0  0  0  0  0  0
   37.2160   27.6740   43.6800 C   0  0  0  0  0  0  0  0  0  0  0  0
   37.0790   28.9890   43.4470 N   0  0  0  0  0  0  0  0  0  0  0  0
   37.4400   29.1590   42.1690 C   0  0  0  0  0  0  0  0  0  0  0  0
   37.7830   27.9870   41.6460 N   0  0  0  0  0  0  0  0  0  0  0  0
   37.0020   27.2000   44.6250 H   0  0  0  0  0  0  0  0  0  0  0  0
   36.7580   29.7190   44.1250 H   0  0  0  0  0  0  0  0  0  0  0  0
   37.4530   30.4270   41.4580 C   0  0  0  0  0  0  0  0  0  0  0  0
   36.3210   31.1120   40.9960 C   0  0  0  0  0  0  0  0  0  0  0  0
   35.2940   30.7450   41.1310 H   0  0  0  0  0  0  0  0  0  0  0  0
   36.6200   32.2620   40.3760 N   0  0  0  0  0  0  0  0  0  0  0  0
   36.0540   32.9860   39.9320 H   0  0  0  0  0  0  0  0  0  0  0  0
   37.9450   32.3110   40.4410 C   0  0  0  0  0  0  0  0  0  0  0  0
   38.7060   33.0070   40.1060 H   0  0  0  0  0  0  0  0  0  0  0  0
   38.4420   31.2440   41.0710 N   0  0  0  0  0  0  0  0  0  0  0  0
  1  2  1  0  0  0  0
  2 14  1  0  0  0  0
  2  3  2  0  0  0  0
  3 15  1  0  0  0  0
  4  3  1  0  0  0  0
  5  4  2  0  0  0  0
  6  1  2  0  0  0  0
  6  5  1  0  0  0  0
  7  5  1  0  0  0  0
  7  8  1  0  0  0  0
  8 24  1  0  0  0  0
  8 16  1  1  0  0  0
  9 18  1  0  0  0  0
  9  8  1  0  0  0  0
  9 17  1  0  0  0  0
 10  9  1  0  0  0  0
 11 12  1  0  0  0  0
 11 10  1  0  0  0  0
 12 23  1  0  0  0  0
 12  7  1  0  0  0  0
 13  1  1  0  0  0  0
 19 10  1  0  0  0  0
 20 11  1  0  0  0  0
 21 11  1  0  0  0  0
 22 12  1  0  0  0  0
 24 25  2  0  0  0  0
 25 29  1  0  0  0  0
 26 25  1  0  0  0  0
 26 30  1  0  0  0  0
 27 26  1  0  0  0  0
 28 27  2  0  0  0  0
 28 24  1  0  0  0  0
 31 27  1  0  0  0  0
 32 33  1  0  0  0  0
 32 31  2  0  0  0  0
 34 36  1  0  0  0  0
 34 32  1  0  0  0  0
 35 34  1  0  0  0  0
 36 38  2  0  0  0  0
 37 36  1  0  0  0  0
 38 31  1  0  0  0  0
M  END
>  <minimizedAffinity>
-5.82838583

$$$$

 OpenBabel03242520433D

 38 41  0  0  1  0  0  0  0  0999 V2000
   40.2340   26.3910   41.3930 C   0  0  0  0  0  0  0  0  0  0  0  0
   41.0210   26.7800   42.4840 C   0  0  0  0  0  0  0  0  0  0  0  0
   40.5910   27.9070   43.2450 C   0  0  0  0  0  0  0  0  0  0  0  0
   39.4380   28.5360   42.8620 N   0  0  0  0  0  0  0  0  0  0  0  0
   38.7280   28.1120   41.8030 C   0  0  0  0  0  0  0  0  0  0  0  0
   39.1170   27.0420   41.0640 N   0  0  0  0  0  0  0  0  0  0  0  0
   37.5650   28.8350   41.5010 N   0  0  0  0  0  0  0  0  0  0  0  0
   37.6230   30.2270   41.1950 C   0  0  2  0  0  0  0  0  0  0  0  0
   36.3080   30.9180   41.1670 C   0  0  0  0  0  0  0  0  0  0  0  0
   35.1860   30.1470   40.7780 N   0  0  0  0  0  0  0  0  0  0  0  0
   35.4850   28.8140   40.3980 C   0  0  0  0  0  0  0  0  0  0  0  0
   36.2760   28.1620   41.4960 C   0  0  0  0  0  0  0  0  0  0  0  0
   40.6340   25.5280   40.8730 H   0  0  0  0  0  0  0  0  0  0  0  0
   41.9290   26.2660   42.7670 H   0  0  0  0  0  0  0  0  0  0  0  0
   41.1740   28.2250   44.0830 H   0  0  0  0  0  0  0  0  0  0  0  0
   38.1700   30.6970   42.0710 H   0  0  0  0  0  0  0  0  0  0  0  0
   36.0630   31.3890   42.1400 H   0  0  0  0  0  0  0  0  0  0  0  0
   36.3920   31.7800   40.4410 H   0  0  0  0  0  0  0  0  0  0  0  0
   34.3620   30.2180   41.4100 H   0  0  0  0  0  0  0  0  0  0  0  0
   35.9210   28.7300   39.4090 H   0  0  0  0  0  0  0  0  0  0  0  0
   34.4880   28.2800   40.3230 H   0  0  0  0  0  0  0  0  0  0  0  0
   36.4670   27.0920   41.2210 H   0  0  0  0  0  0  0  0  0  0  0  0
   35.7250   28.2200   42.4310 H   0  0  0  0  0  0  0  0  0  0  0  0
   38.4580   30.4980   39.9930 C   0  0  0  0  0  0  0  0  0  0  0  0
   38.5760   29.8650   38.7840 C   0  0  0  0  0  0  0  0  0  0  0  0
   39.4630   30.4850   37.9910 N   0  0  0  0  0  0  0  0  0  0  0  0
   39.9110   31.5220   38.7080 C   0  0  0  0  0  0  0  0  0  0  0  0
   39.3150   31.5300   39.8950 N   0  0  0  0  0  0  0  0  0  0  0  0
   38.0270   28.9790   38.5050 H   0  0  0  0  0  0  0  0  0  0  0  0
   39.7400   30.2090   37.0190 H   0  0  0  0  0  0  0  0  0  0  0  0
   40.8990   32.4930   38.2630 C   0  0  0  0  0  0  0  0  0  0  0  0
   41.5340   32.4900   37.0130 C   0  0  0  0  0  0  0  0  0  0  0  0
   41.3410   31.7380   36.2370 H   0  0  0  0  0  0  0  0  0  0  0  0
   42.3990   33.5030   36.8630 N   0  0  0  0  0  0  0  0  0  0  0  0
   43.0130   33.7920   36.1000 H   0  0  0  0  0  0  0  0  0  0  0  0
   42.3160   34.1520   38.0190 C   0  0  0  0  0  0  0  0  0  0  0  0
   42.7880   35.0320   38.4410 H   0  0  0  0  0  0  0  0  0  0  0  0
   41.4430   33.5700   38.8440 N   0  0  0  0  0  0  0  0  0  0  0  0
  1  2  1  0  0  0  0
  2 14  1  0  0  0  0
  2  3  2  0  0  0  0
  3 15  1  0  0  0  0
  4  3  1  0  0  0  0
  5  4  2  0  0  0  0
  6  1  2  0  0  0  0
  6  5  1  0  0  0  0
  7  5  1  0  0  0  0
  8  7  1  0  0  0  0
  8 16  1  1  0  0  0
  9  8  1  0  0  0  0
  9 17  1  0  0  0  0
 10  9  1  0  0  0  0
 10 19  1  0  0  0  0
 11 10  1  0  0  0  0
 11 12  1  0  0  0  0
 12  7  1  0  0  0  0
 12 23  1  0  0  0  0
 13  1  1  0  0  0  0
 18  9  1  0  0  0  0
 20 11  1  0  0  0  0
 21 11  1  0  0  0  0
 22 12  1  0  0  0  0
 24  8  1  0  0  0  0
 25 24  2  0  0  0  0
 26 27  1  0  0  0  0
 26 25  1  0  0  0  0
 27 28  2  0  0  0  0
 28 24  1  0  0  0  0
 29 25  1  0  0  0  0
 30 26  1  0  0  0  0
 31 27  1  0  0  0  0
 31 38  1  0  0  0  0
 32 31  2  0  0  0  0
 33 32  1  0  0  0  0
 34 32  1  0  0  0  0
 34 36  1  0  0  0  0
 35 34  1  0  0  0  0
 36 37  1  0  0  0  0
 36 38  2  0  0  0  0
M  END
>  <minimizedAffinity>
-5.69626093

$$$$

 OpenBabel03242520433D

 38 41  0  0  1  0  0  0  0  0999 V2000
   38.5400   28.1940   36.7580 C   0  0  0  0  0  0  0  0  0  0  0  0
   37.3700   28.1500   35.9910 C   0  0  0  0  0  0  0  0  0  0  0  0
   36.5420   29.3120   35.9760 C   0  0  0  0  0  0  0  0  0  0  0  0
   36.9430   30.3930   36.7110 N   0  0  0  0  0  0  0  0  0  0  0  0
   38.0790   30.3710   37.4270 C   0  0  0  0  0  0  0  0  0  0  0  0
   38.8830   29.2780   37.4560 N   0  0  0  0  0  0  0  0  0  0  0  0
   38.3890   31.5350   38.1440 N   0  0  0  0  0  0  0  0  0  0  0  0
   37.5020   32.0450   39.1380 C   0  0  2  0  0  0  0  0  0  0  0  0
   37.8180   33.4160   39.6170 C   0  0  0  0  0  0  0  0  0  0  0  0
   39.1800   33.7990   39.6110 N   0  0  0  0  0  0  0  0  0  0  0  0
   40.0820   32.7830   39.2030 C   0  0  0  0  0  0  0  0  0  0  0  0
   39.6330   32.2400   37.8770 C   0  0  0  0  0  0  0  0  0  0  0  0
   39.1080   27.2710   36.7120 H   0  0  0  0  0  0  0  0  0  0  0  0
   37.0740   27.2830   35.4180 H   0  0  0  0  0  0  0  0  0  0  0  0
   35.6420   29.3050   35.3980 H   0  0  0  0  0  0  0  0  0  0  0  0
   36.5030   32.1520   38.6120 H   0  0  0  0  0  0  0  0  0  0  0  0
   37.2540   34.1910   39.0620 H   0  0  0  0  0  0  0  0  0  0  0  0
   37.4500   33.4960   40.6820 H   0  0  0  0  0  0  0  0  0  0  0  0
   39.3770   34.7210   39.1700 H   0  0  0  0  0  0  0  0  0  0  0  0
   40.2670   32.0340   39.9650 H   0  0  0  0  0  0  0  0  0  0  0  0
   41.0810   33.2950   39.0500 H   0  0  0  0  0  0  0  0  0  0  0  0
   40.3740   31.4740   37.5280 H   0  0  0  0  0  0  0  0  0  0  0  0
   39.5550   33.0480   37.1550 H   0  0  0  0  0  0  0  0  0  0  0  0
   37.2840   31.0700   40.2410 C   0  0  0  0  0  0  0  0  0  0  0  0
   36.1790   30.7380   40.9800 C   0  0  0  0  0  0  0  0  0  0  0  0
   36.4580   29.7780   41.8750 N   0  0  0  0  0  0  0  0  0  0  0  0
   37.7550   29.5000   41.6990 C   0  0  0  0  0  0  0  0  0  0  0  0
   38.2450   30.2650   40.7300 N   0  0  0  0  0  0  0  0  0  0  0  0
   35.2080   31.1920   40.8600 H   0  0  0  0  0  0  0  0  0  0  0  0
   35.7960   29.3440   42.5610 H   0  0  0  0  0  0  0  0  0  0  0  0
   38.5170   28.5140   42.4500 C   0  0  0  0  0  0  0  0  0  0  0  0
   39.9110   28.5010   42.5930 C   0  0  0  0  0  0  0  0  0  0  0  0
   40.5740   29.2500   42.1390 H   0  0  0  0  0  0  0  0  0  0  0  0
   40.3510   27.4810   43.3430 N   0  0  0  0  0  0  0  0  0  0  0  0
   41.2810   27.1800   43.6400 H   0  0  0  0  0  0  0  0  0  0  0  0
   39.2370   26.8420   43.6790 C   0  0  0  0  0  0  0  0  0  0  0  0
   39.0030   25.9620   44.2670 H   0  0  0  0  0  0  0  0  0  0  0  0
   38.1590   27.4370   43.1630 N   0  0  0  0  0  0  0  0  0  0  0  0
  1  6  1  0  0  0  0
  2  1  2  0  0  0  0
  3  2  1  0  0  0  0
  3  4  2  0  0  0  0
  4  5  1  0  0  0  0
  5  6  2  0  0  0  0
  5  7  1  0  0  0  0
  7  8  1  0  0  0  0
  8 16  1  6  0  0  0
  8  9  1  0  0  0  0
  8 24  1  0  0  0  0
  9 18  1  0  0  0  0
 10  9  1  0  0  0  0
 11 10  1  0  0  0  0
 11 20  1  0  0  0  0
 12  7  1  0  0  0  0
 12 11  1  0  0  0  0
 13  1  1  0  0  0  0
 14  2  1  0  0  0  0
 15  3  1  0  0  0  0
 17  9  1  0  0  0  0
 19 10  1  0  0  0  0
 21 11  1  0  0  0  0
 22 12  1  0  0  0  0
 23 12  1  0  0  0  0
 24 28  1  0  0  0  0
 24 25  2  0  0  0  0
 25 26  1  0  0  0  0
 26 30  1  0  0  0  0
 27 26  1  0  0  0  0
 27 31  1  0  0  0  0
 28 27  2  0  0  0  0
 29 25  1  0  0  0  0
 31 32  2  0  0  0  0
 31 38  1  0  0  0  0
 32 34  1  0  0  0  0
 33 32  1  0  0  0  0
 34 35  1  0  0  0  0
 34 36  1  0  0  0  0
 36 37  1  0  0  0  0
 38 36  2  0  0  0  0
M  END
>  <minimizedAffinity>
-5.64627075

$$$$

 OpenBabel03242520433D

 38 41  0  0  1  0  0  0  0  0999 V2000
   39.0480   27.7510   41.1980 C   0  0  0  0  0  0  0  0  0  0  0  0
   38.7800   27.6920   42.5710 C   0  0  0  0  0  0  0  0  0  0  0  0
   38.1600   28.8250   43.1760 C   0  0  0  0  0  0  0  0  0  0  0  0
   37.8650   29.8960   42.3780 N   0  0  0  0  0  0  0  0  0  0  0  0
   38.1480   29.8900   41.0650 C   0  0  0  0  0  0  0  0  0  0  0  0
   38.7390   28.8240   40.4670 N   0  0  0  0  0  0  0  0  0  0  0  0
   37.8040   31.0430   40.3460 N   0  0  0  0  0  0  0  0  0  0  0  0
   38.3510   32.3150   40.6920 C   0  0  2  0  0  0  0  0  0  0  0  0
   37.6980   33.4780   40.0340 C   0  0  0  0  0  0  0  0  0  0  0  0
   37.1480   33.2610   38.7480 N   0  0  0  0  0  0  0  0  0  0  0  0
   37.3570   31.9600   38.2240 C   0  0  0  0  0  0  0  0  0  0  0  0
   36.8800   30.9510   39.2280 C   0  0  0  0  0  0  0  0  0  0  0  0
   39.5190   26.8500   40.8220 H   0  0  0  0  0  0  0  0  0  0  0  0
   39.0230   26.8330   43.1810 H   0  0  0  0  0  0  0  0  0  0  0  0
   37.9450   28.8060   44.2240 H   0  0  0  0  0  0  0  0  0  0  0  0
   38.1150   32.4450   41.7940 H   0  0  0  0  0  0  0  0  0  0  0  0
   36.9000   33.9190   40.6640 H   0  0  0  0  0  0  0  0  0  0  0  0
   38.4740   34.2920   39.9370 H   0  0  0  0  0  0  0  0  0  0  0  0
   36.1730   33.6020   38.6220 H   0  0  0  0  0  0  0  0  0  0  0  0
   38.3630   31.7960   37.8530 H   0  0  0  0  0  0  0  0  0  0  0  0
   36.6930   31.8820   37.3090 H   0  0  0  0  0  0  0  0  0  0  0  0
   36.9940   29.9230   38.7940 H   0  0  0  0  0  0  0  0  0  0  0  0
   35.8390   31.1430   39.4770 H   0  0  0  0  0  0  0  0  0  0  0  0
   39.8350   32.3320   40.5830 C   0  0  0  0  0  0  0  0  0  0  0  0
   40.8310   31.9250   41.4300 C   0  0  0  0  0  0  0  0  0  0  0  0
   42.0440   32.1300   40.8940 N   0  0  0  0  0  0  0  0  0  0  0  0
   41.8100   32.6730   39.6930 C   0  0  0  0  0  0  0  0  0  0  0  0
   40.5010   32.7930   39.5090 N   0  0  0  0  0  0  0  0  0  0  0  0
   40.6640   31.4960   42.4060 H   0  0  0  0  0  0  0  0  0  0  0  0
   42.9710   31.9090   41.3290 H   0  0  0  0  0  0  0  0  0  0  0  0
   42.8290   33.0740   38.7350 C   0  0  0  0  0  0  0  0  0  0  0  0
   42.6370   33.9620   37.6690 C   0  0  0  0  0  0  0  0  0  0  0  0
   41.6770   34.4490   37.4510 H   0  0  0  0  0  0  0  0  0  0  0  0
   43.7470   34.1590   36.9440 N   0  0  0  0  0  0  0  0  0  0  0  0
   43.9550   34.7270   36.1210 H   0  0  0  0  0  0  0  0  0  0  0  0
   44.6490   33.3940   37.5480 C   0  0  0  0  0  0  0  0  0  0  0  0
   45.6980   33.1720   37.3900 H   0  0  0  0  0  0  0  0  0  0  0  0
   44.1230   32.7560   38.5960 N   0  0  0  0  0  0  0  0  0  0  0  0
  1  2  1  0  0  0  0
  2  3  2  0  0  0  0
  2 14  1  0  0  0  0
  3 15  1  0  0  0  0
  4  3  1  0  0  0  0
  5  4  2  0  0  0  0
  6  5  1  0  0  0  0
  6  1  2  0  0  0  0
  7  8  1  0  0  0  0
  7  5  1  0  0  0  0
  8 16  1  1  0  0  0
  9 17  1  0  0  0  0
  9  8  1  0  0  0  0
 10  9  1  0  0  0  0
 11 10  1  0  0  0  0
 11 12  1  0  0  0  0
 12 23  1  0  0  0  0
 12  7  1  0  0  0  0
 13  1  1  0  0  0  0
 18  9  1  0  0  0  0
 19 10  1  0  0  0  0
 20 11  1  0  0  0  0
 21 11  1  0  0  0  0
 22 12  1  0  0  0  0
 24  8  1  0  0  0  0
 24 25  2  0  0  0  0
 25 29  1  0  0  0  0
 26 30  1  0  0  0  0
 26 25  1  0  0  0  0
 27 26  1  0  0  0  0
 28 27  2  0  0  0  0
 28 24  1  0  0  0  0
 31 27  1  0  0  0  0
 32 31  2  0  0  0  0
 33 32  1  0  0  0  0
 34 36  1  0  0  0  0
 34 32  1  0  0  0  0
 35 34  1  0  0  0  0
 36 38  2  0  0  0  0
 37 36  1  0  0  0  0
 38 31  1  0  0  0  0
M  END
>  <minimizedAffinity>
-5.58215094

$$$$

 OpenBabel03242520433D

 38 41  0  0  1  0  0  0  0  0999 V2000
   39.6590   26.7540   41.6640 C   0  0  0  0  0  0  0  0  0  0  0  0
   40.7840   26.9680   42.4690 C   0  0  0  0  0  0  0  0  0  0  0  0
   41.0590   28.3050   42.8840 C   0  0  0  0  0  0  0  0  0  0  0  0
   40.2060   29.2920   42.4710 N   0  0  0  0  0  0  0  0  0  0  0  0
   39.1410   29.0190   41.6990 C   0  0  0  0  0  0  0  0  0  0  0  0
   38.8600   27.7550   41.2910 N   0  0  0  0  0  0  0  0  0  0  0  0
   38.3380   30.1090   41.3340 N   0  0  0  0  0  0  0  0  0  0  0  0
   38.8780   31.2070   40.6010 C   0  0  2  0  0  0  0  0  0  0  0  0
   37.9980   32.4020   40.5230 C   0  0  0  0  0  0  0  0  0  0  0  0
   36.6010   32.1730   40.5420 N   0  0  0  0  0  0  0  0  0  0  0  0
   36.2240   30.8050   40.5660 C   0  0  0  0  0  0  0  0  0  0  0  0
   36.9320   30.1270   41.7030 C   0  0  0  0  0  0  0  0  0  0  0  0
   39.5260   25.7120   41.3950 H   0  0  0  0  0  0  0  0  0  0  0  0
   41.4440   26.1710   42.7820 H   0  0  0  0  0  0  0  0  0  0  0  0
   41.9130   28.4960   43.4990 H   0  0  0  0  0  0  0  0  0  0  0  0
   39.7720   31.5540   41.2080 H   0  0  0  0  0  0  0  0  0  0  0  0
   38.2220   33.1380   41.3210 H   0  0  0  0  0  0  0  0  0  0  0  0
   38.2390   32.9390   39.5590 H   0  0  0  0  0  0  0  0  0  0  0  0
   36.0670   32.7560   41.2180 H   0  0  0  0  0  0  0  0  0  0  0  0
   36.3220   30.3100   39.6060 H   0  0  0  0  0  0  0  0  0  0  0  0
   35.1130   30.7920   40.7880 H   0  0  0  0  0  0  0  0  0  0  0  0
   36.5940   29.0590   41.7570 H   0  0  0  0  0  0  0  0  0  0  0  0
   36.7100   30.6420   42.6350 H   0  0  0  0  0  0  0  0  0  0  0  0
   39.4160   30.7840   39.2800 C   0  0  0  0  0  0  0  0  0  0  0  0
   38.8550   30.1250   38.2180 C   0  0  0  0  0  0  0  0  0  0  0  0
   39.7350   29.9680   37.2180 N   0  0  0  0  0  0  0  0  0  0  0  0
   40.8660   30.5360   37.6530 C   0  0  0  0  0  0  0  0  0  0  0  0
   40.6770   31.0190   38.8750 N   0  0  0  0  0  0  0  0  0  0  0  0
   37.8350   29.7730   38.1900 H   0  0  0  0  0  0  0  0  0  0  0  0
   39.5650   29.5010   36.2960 H   0  0  0  0  0  0  0  0  0  0  0  0
   42.1130   30.6130   36.9070 C   0  0  0  0  0  0  0  0  0  0  0  0
   43.0550   31.6460   37.0030 C   0  0  0  0  0  0  0  0  0  0  0  0
   42.9360   32.5150   37.6640 H   0  0  0  0  0  0  0  0  0  0  0  0
   44.1170   31.4630   36.2060 N   0  0  0  0  0  0  0  0  0  0  0  0
   44.9640   32.0050   36.0320 H   0  0  0  0  0  0  0  0  0  0  0  0
   43.8530   30.3100   35.6010 C   0  0  0  0  0  0  0  0  0  0  0  0
   44.3590   29.6940   34.8660 H   0  0  0  0  0  0  0  0  0  0  0  0
   42.6840   29.8050   36.0030 N   0  0  0  0  0  0  0  0  0  0  0  0
  1  2  1  0  0  0  0
  2 14  1  0  0  0  0
  2  3  2  0  0  0  0
  3 15  1  0  0  0  0
  4  3  1  0  0  0  0
  5  4  2  0  0  0  0
  6  1  2  0  0  0  0
  6  5  1  0  0  0  0
  7  5  1  0  0  0  0
  7 12  1  0  0  0  0
  8 16  1  1  0  0  0
  8  7  1  0  0  0  0
  9 10  1  0  0  0  0
  9  8  1  0  0  0  0
  9 17  1  0  0  0  0
 10 11  1  0  0  0  0
 10 19  1  0  0  0  0
 11 21  1  0  0  0  0
 11 12  1  0  0  0  0
 12 22  1  0  0  0  0
 12 23  1  0  0  0  0
 13  1  1  0  0  0  0
 18  9  1  0  0  0  0
 20 11  1  0  0  0  0
 24  8  1  0  0  0  0
 25 24  2  0  0  0  0
 26 27  1  0  0  0  0
 26 25  1  0  0  0  0
 27 28  2  0  0  0  0
 28 24  1  0  0  0  0
 29 25  1  0  0  0  0
 30 26  1  0  0  0  0
 31 32  2  0  0  0  0
 31 27  1  0  0  0  0
 32 33  1  0  0  0  0
 34 32  1  0  0  0  0
 35 34  1  0  0  0  0
 36 38  2  0  0  0  0
 36 34  1  0  0  0  0
 37 36  1  0  0  0  0
 38 31  1  0  0  0  0
M  END
>  <minimizedAffinity>
-5.56464911

$$$$

 OpenBabel03242520433D

 38 41  0  0  1  0  0  0  0  0999 V2000
   36.9800   27.2160   41.5010 C   0  0  0  0  0  0  0  0  0  0  0  0
   37.2240   26.9640   42.8570 C   0  0  0  0  0  0  0  0  0  0  0  0
   37.6270   28.0620   43.6740 C   0  0  0  0  0  0  0  0  0  0  0  0
   37.7490   29.2900   43.0830 N   0  0  0  0  0  0  0  0  0  0  0  0
   37.4990   29.4650   41.7750 C   0  0  0  0  0  0  0  0  0  0  0  0
   37.1140   28.4360   40.9780 N   0  0  0  0  0  0  0  0  0  0  0  0
   37.6590   30.7660   41.2770 N   0  0  0  0  0  0  0  0  0  0  0  0
   38.9150   31.4360   41.3610 C   0  0  2  0  0  0  0  0  0  0  0  0
   38.8730   32.8890   41.0510 C   0  0  0  0  0  0  0  0  0  0  0  0
   37.8950   33.3180   40.1220 N   0  0  0  0  0  0  0  0  0  0  0  0
   37.1180   32.2760   39.5530 C   0  0  0  0  0  0  0  0  0  0  0  0
   36.5330   31.4480   40.6610 C   0  0  0  0  0  0  0  0  0  0  0  0
   36.6790   26.3290   40.9570 H   0  0  0  0  0  0  0  0  0  0  0  0
   37.1210   25.9850   43.3010 H   0  0  0  0  0  0  0  0  0  0  0  0
   37.8210   27.8970   44.7130 H   0  0  0  0  0  0  0  0  0  0  0  0
   39.1980   31.3900   42.4590 H   0  0  0  0  0  0  0  0  0  0  0  0
   38.7550   33.5070   41.9630 H   0  0  0  0  0  0  0  0  0  0  0  0
   39.8830   33.1760   40.6340 H   0  0  0  0  0  0  0  0  0  0  0  0
   37.3250   34.1340   40.4260 H   0  0  0  0  0  0  0  0  0  0  0  0
   37.6400   31.7120   38.7870 H   0  0  0  0  0  0  0  0  0  0  0  0
   36.2640   32.7850   39.0090 H   0  0  0  0  0  0  0  0  0  0  0  0
   35.8750   30.6570   40.2160 H   0  0  0  0  0  0  0  0  0  0  0  0
   35.9600   32.0830   41.3320 H   0  0  0  0  0  0  0  0  0  0  0  0
   39.9860   30.7070   40.6290 C   0  0  0  0  0  0  0  0  0  0  0  0
   40.6980   29.5720   40.9150 C   0  0  0  0  0  0  0  0  0  0  0  0
   41.5690   29.2800   39.9370 N   0  0  0  0  0  0  0  0  0  0  0  0
   41.4030   30.2410   39.0210 C   0  0  0  0  0  0  0  0  0  0  0  0
   40.4650   31.0870   39.4310 N   0  0  0  0  0  0  0  0  0  0  0  0
   40.5780   28.9890   41.8150 H   0  0  0  0  0  0  0  0  0  0  0  0
   42.2320   28.4700   39.9050 H   0  0  0  0  0  0  0  0  0  0  0  0
   42.1370   30.3500   37.7690 C   0  0  0  0  0  0  0  0  0  0  0  0
   43.0080   31.3930   37.4260 C   0  0  0  0  0  0  0  0  0  0  0  0
   43.2210   32.2450   38.0830 H   0  0  0  0  0  0  0  0  0  0  0  0
   43.5550   31.2400   36.2110 N   0  0  0  0  0  0  0  0  0  0  0  0
   44.2130   31.7970   35.6650 H   0  0  0  0  0  0  0  0  0  0  0  0
   43.0320   30.0980   35.7790 C   0  0  0  0  0  0  0  0  0  0  0  0
   43.1220   29.5050   34.8770 H   0  0  0  0  0  0  0  0  0  0  0  0
   42.2020   29.5700   36.6820 N   0  0  0  0  0  0  0  0  0  0  0  0
  1  2  1  0  0  0  0
  2 14  1  0  0  0  0
  2  3  2  0  0  0  0
  3 15  1  0  0  0  0
  4  3  1  0  0  0  0
  5  4  2  0  0  0  0
  6  1  2  0  0  0  0
  6  5  1  0  0  0  0
  7  8  1  0  0  0  0
  7  5  1  0  0  0  0
  8 16  1  1  0  0  0
  9  8  1  0  0  0  0
  9 17  1  0  0  0  0
 10 19  1  0  0  0  0
 10  9  1  0  0  0  0
 11 10  1  0  0  0  0
 11 12  1  0  0  0  0
 12  7  1  0  0  0  0
 12 23  1  0  0  0  0
 13  1  1  0  0  0  0
 18  9  1  0  0  0  0
 20 11  1  0  0  0  0
 21 11  1  0  0  0  0
 22 12  1  0  0  0  0
 24 25  2  0  0  0  0
 24  8  1  0  0  0  0
 25 29  1  0  0  0  0
 26 25  1  0  0  0  0
 27 28  2  0  0  0  0
 27 26  1  0  0  0  0
 28 24  1  0  0  0  0
 30 26  1  0  0  0  0
 31 27  1  0  0  0  0
 32 31  2  0  0  0  0
 32 33  1  0  0  0  0
 34 32  1  0  0  0  0
 35 34  1  0  0  0  0
 36 34  1  0  0  0  0
 36 38  2  0  0  0  0
 37 36  1  0  0  0  0
 38 31  1  0  0  0  0
M  END
>  <minimizedAffinity>
-5.42417002

$$$$

 OpenBabel03242520433D

 38 41  0  0  1  0  0  0  0  0999 V2000
   42.3650   29.9440   38.7940 C   0  0  0  0  0  0  0  0  0  0  0  0
   42.2050   29.0520   37.7270 C   0  0  0  0  0  0  0  0  0  0  0  0
   40.8890   28.8670   37.2080 C   0  0  0  0  0  0  0  0  0  0  0  0
   39.8680   29.5730   37.7830 N   0  0  0  0  0  0  0  0  0  0  0  0
   40.0890   30.4150   38.8060 C   0  0  0  0  0  0  0  0  0  0  0  0
   41.3330   30.6070   39.3170 N   0  0  0  0  0  0  0  0  0  0  0  0
   38.9690   31.0830   39.3190 N   0  0  0  0  0  0  0  0  0  0  0  0
   37.8620   30.3580   39.8550 C   0  0  2  0  0  0  0  0  0  0  0  0
   36.6430   31.1710   40.1060 C   0  0  0  0  0  0  0  0  0  0  0  0
   36.8380   32.5310   40.4440 N   0  0  0  0  0  0  0  0  0  0  0  0
   38.1950   32.9250   40.5650 C   0  0  0  0  0  0  0  0  0  0  0  0
   38.9260   32.5360   39.3120 C   0  0  0  0  0  0  0  0  0  0  0  0
   43.3940   30.0230   39.1250 H   0  0  0  0  0  0  0  0  0  0  0  0
   43.0270   28.5050   37.2890 H   0  0  0  0  0  0  0  0  0  0  0  0
   40.7380   28.1910   36.3920 H   0  0  0  0  0  0  0  0  0  0  0  0
   37.5580   29.6390   39.0320 H   0  0  0  0  0  0  0  0  0  0  0  0
   35.9390   31.1410   39.2510 H   0  0  0  0  0  0  0  0  0  0  0  0
   36.0830   30.6880   40.9590 H   0  0  0  0  0  0  0  0  0  0  0  0
   36.2620   33.2070   39.9020 H   0  0  0  0  0  0  0  0  0  0  0  0
   38.6630   32.6000   41.4870 H   0  0  0  0  0  0  0  0  0  0  0  0
   38.1870   34.0570   40.6270 H   0  0  0  0  0  0  0  0  0  0  0  0
   39.9860   32.8950   39.3830 H   0  0  0  0  0  0  0  0  0  0  0  0
   38.4350   32.9750   38.4470 H   0  0  0  0  0  0  0  0  0  0  0  0
   38.2580   29.5140   41.0140 C   0  0  0  0  0  0  0  0  0  0  0  0
   38.5420   29.8090   42.3220 C   0  0  0  0  0  0  0  0  0  0  0  0
   38.8460   28.7040   43.0190 N   0  0  0  0  0  0  0  0  0  0  0  0
   38.7530   27.6980   42.1410 C   0  0  0  0  0  0  0  0  0  0  0  0
   38.4040   28.1790   40.9530 N   0  0  0  0  0  0  0  0  0  0  0  0
   38.5250   30.8040   42.7390 H   0  0  0  0  0  0  0  0  0  0  0  0
   39.1000   28.6490   44.0330 H   0  0  0  0  0  0  0  0  0  0  0  0
   38.9970   26.2950   42.4360 C   0  0  0  0  0  0  0  0  0  0  0  0
   38.1030   25.2450   42.1880 C   0  0  0  0  0  0  0  0  0  0  0  0
   37.1110   25.3870   41.7380 H   0  0  0  0  0  0  0  0  0  0  0  0
   38.5840   24.0490   42.5540 N   0  0  0  0  0  0  0  0  0  0  0  0
   38.2080   23.1000   42.5160 H   0  0  0  0  0  0  0  0  0  0  0  0
   39.7880   24.3360   43.0370 C   0  0  0  0  0  0  0  0  0  0  0  0
   40.6010   23.7620   43.4660 H   0  0  0  0  0  0  0  0  0  0  0  0
   40.0390   25.6460   42.9730 N   0  0  0  0  0  0  0  0  0  0  0  0
  1 13  1  0  0  0  0
  1  6  1  0  0  0  0
  2  1  2  0  0  0  0
  3  2  1  0  0  0  0
  3  4  2  0  0  0  0
  4  5  1  0  0  0  0
  5  6  2  0  0  0  0
  5  7  1  0  0  0  0
  7  8  1  0  0  0  0
  8 16  1  6  0  0  0
  8  9  1  0  0  0  0
  8 24  1  0  0  0  0
  9 10  1  0  0  0  0
  9 18  1  0  0  0  0
 10 11  1  0  0  0  0
 11 21  1  0  0  0  0
 11 20  1  0  0  0  0
 12  7  1  0  0  0  0
 12 22  1  0  0  0  0
 12 11  1  0  0  0  0
 14  2  1  0  0  0  0
 15  3  1  0  0  0  0
 17  9  1  0  0  0  0
 19 10  1  0  0  0  0
 23 12  1  0  0  0  0
 24 25  2  0  0  0  0
 25 29  1  0  0  0  0
 25 26  1  0  0  0  0
 26 30  1  0  0  0  0
 27 31  1  0  0  0  0
 27 26  1  0  0  0  0
 28 24  1  0  0  0  0
 28 27  2  0  0  0  0
 31 38  1  0  0  0  0
 32 31  2  0  0  0  0
 32 34  1  0  0  0  0
 33 32  1  0  0  0  0
 34 36  1  0  0  0  0
 35 34  1  0  0  0  0
 36 37  1  0  0  0  0
 38 36  2  0  0  0  0
M  END
>  <minimizedAffinity>
-5.39704037

$$$$

 OpenBabel03242520433D

 38 41  0  0  1  0  0  0  0  0999 V2000
   40.3710   28.3990   37.2920 C   0  0  0  0  0  0  0  0  0  0  0  0
   39.5470   27.4690   36.6460 C   0  0  0  0  0  0  0  0  0  0  0  0
   38.1370   27.6030   36.8130 C   0  0  0  0  0  0  0  0  0  0  0  0
   37.6780   28.6300   37.5930 N   0  0  0  0  0  0  0  0  0  0  0  0
   38.5230   29.4890   38.1850 C   0  0  0  0  0  0  0  0  0  0  0  0
   39.8690   29.3820   38.0410 N   0  0  0  0  0  0  0  0  0  0  0  0
   37.9420   30.5010   38.9630 N   0  0  0  0  0  0  0  0  0  0  0  0
   37.1150   30.1840   40.0810 C   0  0  2  0  0  0  0  0  0  0  0  0
   36.3510   31.3300   40.6400 C   0  0  0  0  0  0  0  0  0  0  0  0
   36.9430   32.6110   40.5280 N   0  0  0  0  0  0  0  0  0  0  0  0
   38.2370   32.6190   39.9480 C   0  0  0  0  0  0  0  0  0  0  0  0
   38.1820   31.8960   38.6330 C   0  0  0  0  0  0  0  0  0  0  0  0
   41.4250   28.2240   37.1110 H   0  0  0  0  0  0  0  0  0  0  0  0
   39.9330   26.6660   36.0350 H   0  0  0  0  0  0  0  0  0  0  0  0
   37.4850   26.9050   36.3310 H   0  0  0  0  0  0  0  0  0  0  0  0
   36.3190   29.4890   39.6700 H   0  0  0  0  0  0  0  0  0  0  0  0
   35.3310   31.4000   40.2120 H   0  0  0  0  0  0  0  0  0  0  0  0
   36.1910   31.1280   41.7400 H   0  0  0  0  0  0  0  0  0  0  0  0
   36.3190   33.3540   40.1490 H   0  0  0  0  0  0  0  0  0  0  0  0
   39.0180   32.2850   40.6210 H   0  0  0  0  0  0  0  0  0  0  0  0
   38.4780   33.7070   39.7380 H   0  0  0  0  0  0  0  0  0  0  0  0
   39.1910   31.9480   38.1460 H   0  0  0  0  0  0  0  0  0  0  0  0
   37.4300   32.3510   37.9930 H   0  0  0  0  0  0  0  0  0  0  0  0
   37.8490   29.4050   41.1150 C   0  0  0  0  0  0  0  0  0  0  0  0
   38.6000   29.7790   42.1980 C   0  0  0  0  0  0  0  0  0  0  0  0
   39.0680   28.7110   42.8620 N   0  0  0  0  0  0  0  0  0  0  0  0
   38.6060   27.6500   42.1900 C   0  0  0  0  0  0  0  0  0  0  0  0
   37.8840   28.0610   41.1540 N   0  0  0  0  0  0  0  0  0  0  0  0
   38.7940   30.8020   42.4810 H   0  0  0  0  0  0  0  0  0  0  0  0
   39.6660   28.7150   43.7210 H   0  0  0  0  0  0  0  0  0  0  0  0
   38.8560   26.2580   42.5340 C   0  0  0  0  0  0  0  0  0  0  0  0
   38.1220   25.1610   42.0650 C   0  0  0  0  0  0  0  0  0  0  0  0
   37.2700   25.2500   41.3780 H   0  0  0  0  0  0  0  0  0  0  0  0
   38.5700   23.9890   42.5390 N   0  0  0  0  0  0  0  0  0  0  0  0
   38.2760   23.0210   42.4040 H   0  0  0  0  0  0  0  0  0  0  0  0
   39.5910   24.3400   43.3120 C   0  0  0  0  0  0  0  0  0  0  0  0
   40.3050   23.8090   43.9310 H   0  0  0  0  0  0  0  0  0  0  0  0
   39.7670   25.6640   43.3170 N   0  0  0  0  0  0  0  0  0  0  0  0
  1  6  1  0  0  0  0
  2  3  1  0  0  0  0
  2  1  2  0  0  0  0
  3  4  2  0  0  0  0
  4  5  1  0  0  0  0
  5  7  1  0  0  0  0
  6  5  2  0  0  0  0
  7  8  1  0  0  0  0
  8 16  1  6  0  0  0
  8  9  1  0  0  0  0
  8 24  1  0  0  0  0
  9 18  1  0  0  0  0
 10  9  1  0  0  0  0
 11 10  1  0  0  0  0
 11 20  1  0  0  0  0
 12  7  1  0  0  0  0
 12 11  1  0  0  0  0
 13  1  1  0  0  0  0
 14  2  1  0  0  0  0
 15  3  1  0  0  0  0
 17  9  1  0  0  0  0
 19 10  1  0  0  0  0
 21 11  1  0  0  0  0
 22 12  1  0  0  0  0
 23 12  1  0  0  0  0
 24 28  1  0  0  0  0
 24 25  2  0  0  0  0
 25 29  1  0  0  0  0
 25 26  1  0  0  0  0
 26 30  1  0  0  0  0
 27 31  1  0  0  0  0
 27 26  1  0  0  0  0
 28 27  2  0  0  0  0
 31 38  1  0  0  0  0
 32 31  2  0  0  0  0
 32 34  1  0  0  0  0
 33 32  1  0  0  0  0
 34 36  1  0  0  0  0
 35 34  1  0  0  0  0
 36 38  2  0  0  0  0
 36 37  1  0  0  0  0
M  END
>  <minimizedAffinity>
-5.35009909

$$$$

 OpenBabel03242520433D

 38 41  0  0  1  0  0  0  0  0999 V2000
   38.7060   27.4530   39.4400 C   0  0  0  0  0  0  0  0  0  0  0  0
   39.6910   26.8720   40.2480 C   0  0  0  0  0  0  0  0  0  0  0  0
   40.3860   27.7200   41.1610 C   0  0  0  0  0  0  0  0  0  0  0  0
   40.0460   29.0450   41.1900 N   0  0  0  0  0  0  0  0  0  0  0  0
   39.0890   29.5400   40.3880 C   0  0  0  0  0  0  0  0  0  0  0  0
   38.4150   28.7530   39.5110 N   0  0  0  0  0  0  0  0  0  0  0  0
   38.8270   30.9120   40.5020 N   0  0  0  0  0  0  0  0  0  0  0  0
   39.8490   31.8790   40.2630 C   0  0  2  0  0  0  0  0  0  0  0  0
   39.5120   33.2640   40.6830 C   0  0  0  0  0  0  0  0  0  0  0  0
   38.1480   33.6370   40.6280 N   0  0  0  0  0  0  0  0  0  0  0  0
   37.2810   32.6430   40.1060 C   0  0  0  0  0  0  0  0  0  0  0  0
   37.4950   31.3660   40.8670 C   0  0  0  0  0  0  0  0  0  0  0  0
   38.2300   26.7380   38.7780 H   0  0  0  0  0  0  0  0  0  0  0  0
   39.9420   25.8220   40.2060 H   0  0  0  0  0  0  0  0  0  0  0  0
   41.1440   27.3010   41.7890 H   0  0  0  0  0  0  0  0  0  0  0  0
   40.7030   31.5760   40.9460 H   0  0  0  0  0  0  0  0  0  0  0  0
   39.8740   33.4890   41.7060 H   0  0  0  0  0  0  0  0  0  0  0  0
   40.0830   33.9700   40.0120 H   0  0  0  0  0  0  0  0  0  0  0  0
   37.7790   34.0920   41.4880 H   0  0  0  0  0  0  0  0  0  0  0  0
   37.3280   32.5470   39.0270 H   0  0  0  0  0  0  0  0  0  0  0  0
   36.2280   33.0050   40.3200 H   0  0  0  0  0  0  0  0  0  0  0  0
   36.7720   30.5940   40.4930 H   0  0  0  0  0  0  0  0  0  0  0  0
   37.3450   31.5410   41.9290 H   0  0  0  0  0  0  0  0  0  0  0  0
   40.3800   31.7950   38.8760 C   0  0  0  0  0  0  0  0  0  0  0  0
   39.8300   32.0790   37.6540 C   0  0  0  0  0  0  0  0  0  0  0  0
   40.7040   31.8580   36.6600 N   0  0  0  0  0  0  0  0  0  0  0  0
   41.8200   31.4310   37.2620 C   0  0  0  0  0  0  0  0  0  0  0  0
   41.6290   31.3940   38.5750 N   0  0  0  0  0  0  0  0  0  0  0  0
   38.8210   32.4320   37.5070 H   0  0  0  0  0  0  0  0  0  0  0  0
   40.5400   31.9950   35.6350 H   0  0  0  0  0  0  0  0  0  0  0  0
   43.0550   31.0610   36.5870 C   0  0  0  0  0  0  0  0  0  0  0  0
   43.1880   30.0320   35.6450 C   0  0  0  0  0  0  0  0  0  0  0  0
   42.3550   29.3940   35.3220 H   0  0  0  0  0  0  0  0  0  0  0  0
   44.4390   29.9090   35.1770 N   0  0  0  0  0  0  0  0  0  0  0  0
   44.8750   29.2810   34.5000 H   0  0  0  0  0  0  0  0  0  0  0  0
   45.1040   30.8610   35.8220 C   0  0  0  0  0  0  0  0  0  0  0  0
   46.1310   31.2090   35.8320 H   0  0  0  0  0  0  0  0  0  0  0  0
   44.3050   31.5400   36.6480 N   0  0  0  0  0  0  0  0  0  0  0  0
  1  6  2  0  0  0  0
  1  2  1  0  0  0  0
  2  3  2  0  0  0  0
  3  4  1  0  0  0  0
  3 15  1  0  0  0  0
  5  7  1  0  0  0  0
  5  4  2  0  0  0  0
  6  5  1  0  0  0  0
  7 12  1  0  0  0  0
  8  7  1  0  0  0  0
  8  9  1  0  0  0  0
  8 16  1  1  0  0  0
  9 17  1  0  0  0  0
 10  9  1  0  0  0  0
 10 19  1  0  0  0  0
 11 21  1  0  0  0  0
 11 10  1  0  0  0  0
 11 12  1  0  0  0  0
 12 23  1  0  0  0  0
 13  1  1  0  0  0  0
 14  2  1  0  0  0  0
 18  9  1  0  0  0  0
 20 11  1  0  0  0  0
 22 12  1  0  0  0  0
 24  8  1  0  0  0  0
 25 24  2  0  0  0  0
 26 27  1  0  0  0  0
 26 25  1  0  0  0  0
 27 28  2  0  0  0  0
 28 24  1  0  0  0  0
 29 25  1  0  0  0  0
 30 26  1  0  0  0  0
 31 38  1  0  0  0  0
 31 27  1  0  0  0  0
 32 31  2  0  0  0  0
 33 32  1  0  0  0  0
 34 32  1  0  0  0  0
 34 36  1  0  0  0  0
 35 34  1  0  0  0  0
 36 37  1  0  0  0  0
 36 38  2  0  0  0  0
M  END
>  <minimizedAffinity>
-5.31647444

$$$$
