
 OpenBabel03252508493D

 27 29  0  0  0  0  0  0  0  0999 V2000
   45.9770   34.2280   41.0440 C   0  0  0  0  0  0  0  0  0  0  0  0
   46.5640   34.8180   42.1580 C   0  0  0  0  0  0  0  0  0  0  0  0
   47.9100   35.1580   42.0450 C   0  0  0  0  0  0  0  0  0  0  0  0
   48.5590   34.8970   40.8770 N   0  0  0  0  0  0  0  0  0  0  0  0
   47.9560   34.3280   39.8300 C   0  0  0  0  0  0  0  0  0  0  0  0
   46.6540   33.9890   39.9120 N   0  0  0  0  0  0  0  0  0  0  0  0
   48.3840   35.6180   42.9000 H   0  0  0  0  0  0  0  0  0  0  0  0
   48.4590   34.1150   38.8960 H   0  0  0  0  0  0  0  0  0  0  0  0
   45.7760   35.0500   43.3550 C   0  0  0  0  0  0  0  0  0  0  0  0
   45.1070   36.2450   43.5870 C   0  0  0  0  0  0  0  0  0  0  0  0
   44.5010   36.0410   44.8120 C   0  0  0  0  0  0  0  0  0  0  0  0
   44.7850   34.8000   45.2920 N   0  0  0  0  0  0  0  0  0  0  0  0
   45.5540   34.2310   44.3900 N   0  0  0  0  0  0  0  0  0  0  0  0
   45.0390   37.1450   42.9960 H   0  0  0  0  0  0  0  0  0  0  0  0
   43.8810   36.7920   45.3120 H   0  0  0  0  0  0  0  0  0  0  0  0
   44.4480   34.3940   46.2060 H   0  0  0  0  0  0  0  0  0  0  0  0
   44.6410   33.8730   41.1140 O   0  0  0  0  0  0  0  0  0  0  0  0
   43.5740   34.5480   40.5920 C   0  0  0  0  0  0  0  0  0  0  0  0
   43.1790   35.7290   40.9020 O   0  0  0  0  0  0  0  0  0  0  0  0
   42.6750   33.9770   39.5430 C   0  0  0  0  0  0  0  0  0  0  0  0
   41.9390   34.7080   38.6370 C   0  0  0  0  0  0  0  0  0  0  0  0
   41.8530   35.7740   38.4890 H   0  0  0  0  0  0  0  0  0  0  0  0
   41.2250   33.8860   37.8250 N   0  0  0  0  0  0  0  0  0  0  0  0
   40.5800   34.1250   37.0470 H   0  0  0  0  0  0  0  0  0  0  0  0
   41.5410   32.6530   38.2540 C   0  0  0  0  0  0  0  0  0  0  0  0
   41.1440   31.7370   37.8220 H   0  0  0  0  0  0  0  0  0  0  0  0
   42.4040   32.6920   39.2780 N   0  0  0  0  0  0  0  0  0  0  0  0
  1 17  1  0  0  0  0
  1  2  1  0  0  0  0
  2  9  1  0  0  0  0
  3  2  2  0  0  0  0
  3  7  1  0  0  0  0
  4  3  1  0  0  0  0
  5  6  1  0  0  0  0
  5  4  2  0  0  0  0
  6  1  2  0  0  0  0
  8  5  1  0  0  0  0
  9 10  1  0  0  0  0
  9 13  2  0  0  0  0
 10 11  2  0  0  0  0
 11 12  1  0  0  0  0
 11 15  1  0  0  0  0
 12 16  1  0  0  0  0
 13 12  1  0  0  0  0
 14 10  1  0  0  0  0
 18 19  2  0  0  0  0
 18 17  1  0  0  0  0
 20 18  1  0  0  0  0
 21 20  2  0  0  0  0
 22 21  1  0  0  0  0
 23 25  1  0  0  0  0
 23 21  1  0  0  0  0
 24 23  1  0  0  0  0
 25 27  2  0  0  0  0
 26 25  1  0  0  0  0
 27 20  1  0  0  0  0
M  END
>  <minimizedAffinity>
-5.25279617

>  <minimizedRMSD>
0.52030319

$$$$
