
 OpenBabel03242516593D

 31 33  0  0  0  0  0  0  0  0999 V2000
   46.5300   34.7090   42.0020 C   0  0  0  0  0  0  0  0  0  0  0  0
   47.8350   35.1710   41.9020 C   0  0  0  0  0  0  0  0  0  0  0  0
   48.5290   34.9570   40.7200 C   0  0  0  0  0  0  0  0  0  0  0  0
   47.9160   34.2990   39.6870 C   0  0  0  0  0  0  0  0  0  0  0  0
   46.6360   33.8320   39.7500 C   0  0  0  0  0  0  0  0  0  0  0  0
   45.9630   34.0640   40.9560 C   0  0  0  0  0  0  0  0  0  0  0  0
   48.3110   35.6960   42.7410 H   0  0  0  0  0  0  0  0  0  0  0  0
   49.5410   35.3390   40.7010 H   0  0  0  0  0  0  0  0  0  0  0  0
   48.5170   34.1670   38.7930 H   0  0  0  0  0  0  0  0  0  0  0  0
   46.1500   33.3200   38.9560 H   0  0  0  0  0  0  0  0  0  0  0  0
   44.5000   36.2370   44.7990 C   0  0  0  0  0  0  0  0  0  0  0  0
   45.1150   36.0990   43.5390 C   0  0  0  0  0  0  0  0  0  0  0  0
   45.8500   34.9640   43.2700 C   0  0  0  0  0  0  0  0  0  0  0  0
   45.9410   34.0290   44.2550 N   0  0  0  0  0  0  0  0  0  0  0  0
   45.3510   34.1630   45.4620 C   0  0  0  0  0  0  0  0  0  0  0  0
   44.6250   35.2800   45.7330 N   0  0  0  0  0  0  0  0  0  0  0  0
   43.9540   37.1680   44.8850 H   0  0  0  0  0  0  0  0  0  0  0  0
   45.0400   36.8370   42.7680 H   0  0  0  0  0  0  0  0  0  0  0  0
   45.4480   33.3910   46.2230 H   0  0  0  0  0  0  0  0  0  0  0  0
   43.3500   34.0990   40.7570 C   0  0  0  0  0  0  0  0  0  0  0  0
   43.1000   35.0940   40.0750 O   0  0  0  0  0  0  0  0  0  0  0  0
   44.6280   33.6320   41.1590 N   0  0  0  0  0  0  0  0  0  0  0  0
   44.7570   32.7770   41.7480 H   0  0  0  0  0  0  0  0  0  0  0  0
   42.2220   33.2890   41.2200 C   0  0  0  0  0  0  0  0  0  0  0  0
   40.9740   33.7990   41.4530 C   0  0  0  0  0  0  0  0  0  0  0  0
   40.6190   34.8350   41.3430 H   0  0  0  0  0  0  0  0  0  0  0  0
   40.0970   32.8730   41.8710 N   0  0  0  0  0  0  0  0  0  0  0  0
   39.0900   32.9680   42.1230 H   0  0  0  0  0  0  0  0  0  0  0  0
   40.8240   31.7270   41.9030 C   0  0  0  0  0  0  0  0  0  0  0  0
   40.4640   30.7390   42.1950 H   0  0  0  0  0  0  0  0  0  0  0  0
   42.0960   31.9820   41.5120 N   0  0  0  0  0  0  0  0  0  0  0  0
  1 13  1  0  0  0  0
  2  1  1  0  0  0  0
  2  7  1  0  0  0  0
  3  2  2  0  0  0  0
  4  5  2  0  0  0  0
  4  3  1  0  0  0  0
  5  6  1  0  0  0  0
  6 22  1  0  0  0  0
  6  1  2  0  0  0  0
  8  3  1  0  0  0  0
  9  4  1  0  0  0  0
 10  5  1  0  0  0  0
 11 17  1  0  0  0  0
 11 16  1  0  0  0  0
 12 11  2  0  0  0  0
 13 12  1  0  0  0  0
 13 14  2  0  0  0  0
 14 15  1  0  0  0  0
 15 16  2  0  0  0  0
 15 19  1  0  0  0  0
 18 12  1  0  0  0  0
 20 22  1  0  0  0  0
 20 24  1  0  0  0  0
 21 20  2  0  0  0  0
 22 23  1  0  0  0  0
 24 25  2  0  0  0  0
 24 31  1  0  0  0  0
 25 27  1  0  0  0  0
 26 25  1  0  0  0  0
 27 29  1  0  0  0  0
 27 28  1  0  0  0  0
 29 30  1  0  0  0  0
 31 29  2  0  0  0  0
M  END
>  <minimizedAffinity>
-6.05009031

>  <minimizedRMSD>
0.462735951

$$$$
