
 OpenBabel03252503593D

 33 36  0  0  0  0  0  0  0  0999 V2000
   46.8000   34.9950   42.6980 C   0  0  0  0  0  0  0  0  0  0  0  0
   45.8790   36.0440   42.6680 C   0  0  0  0  0  0  0  0  0  0  0  0
   44.9020   36.0690   43.6440 C   0  0  0  0  0  0  0  0  0  0  0  0
   44.8810   35.0840   44.5760 N   0  0  0  0  0  0  0  0  0  0  0  0
   45.7940   34.0760   44.5770 C   0  0  0  0  0  0  0  0  0  0  0  0
   46.7500   34.0340   43.6380 N   0  0  0  0  0  0  0  0  0  0  0  0
   45.9340   36.8110   41.9020 H   0  0  0  0  0  0  0  0  0  0  0  0
   44.1640   36.8740   43.6530 H   0  0  0  0  0  0  0  0  0  0  0  0
   46.0300   31.7280   45.1830 C   0  0  0  0  0  0  0  0  0  0  0  0
   45.7640   33.0190   45.5850 C   0  0  0  0  0  0  0  0  0  0  0  0
   45.4820   33.2580   46.9050 C   0  0  0  0  0  0  0  0  0  0  0  0
   45.4670   32.2250   47.8100 C   0  0  0  0  0  0  0  0  0  0  0  0
   45.2310   32.1610   49.1390 N   0  0  0  0  0  0  0  0  0  0  0  0
   45.3400   30.8860   49.5730 C   0  0  0  0  0  0  0  0  0  0  0  0
   45.6620   30.0820   48.4900 C   0  0  0  0  0  0  0  0  0  0  0  0
   45.7400   30.9150   47.3990 C   0  0  0  0  0  0  0  0  0  0  0  0
   46.0220   30.6770   46.0750 C   0  0  0  0  0  0  0  0  0  0  0  0
   46.2530   31.5400   44.1400 H   0  0  0  0  0  0  0  0  0  0  0  0
   45.2800   34.2680   47.1820 H   0  0  0  0  0  0  0  0  0  0  0  0
   44.9940   32.9950   49.7430 H   0  0  0  0  0  0  0  0  0  0  0  0
   45.2130   30.4950   50.5700 H   0  0  0  0  0  0  0  0  0  0  0  0
   45.8280   29.0110   48.4540 H   0  0  0  0  0  0  0  0  0  0  0  0
   46.2410   29.6780   45.6990 H   0  0  0  0  0  0  0  0  0  0  0  0
   47.8100   35.0060   41.6560 C   0  0  0  0  0  0  0  0  0  0  0  0
   48.9800   35.5110   41.7980 O   0  0  0  0  0  0  0  0  0  0  0  0
   47.4960   34.4050   40.3460 C   0  0  0  0  0  0  0  0  0  0  0  0
   46.3240   33.6940   40.0780 C   0  0  0  0  0  0  0  0  0  0  0  0
   45.4930   33.4700   40.7340 H   0  0  0  0  0  0  0  0  0  0  0  0
   46.4680   33.3430   38.7890 N   0  0  0  0  0  0  0  0  0  0  0  0
   45.7470   32.7850   38.2620 H   0  0  0  0  0  0  0  0  0  0  0  0
   47.6260   33.7840   38.2660 C   0  0  0  0  0  0  0  0  0  0  0  0
   47.9130   33.5900   37.2210 H   0  0  0  0  0  0  0  0  0  0  0  0
   48.2550   34.4450   39.2510 N   0  0  0  0  0  0  0  0  0  0  0  0
  1  6  1  0  0  0  0
  2  1  2  0  0  0  0
  2  3  1  0  0  0  0
  3  8  1  0  0  0  0
  3  4  2  0  0  0  0
  4  5  1  0  0  0  0
  5 10  1  0  0  0  0
  6  5  2  0  0  0  0
  7  2  1  0  0  0  0
  9 10  2  0  0  0  0
  9 17  1  0  0  0  0
 10 11  1  0  0  0  0
 11 19  1  0  0  0  0
 11 12  2  0  0  0  0
 12 13  1  0  0  0  0
 13 14  1  0  0  0  0
 13 20  1  0  0  0  0
 14 21  1  0  0  0  0
 15 14  2  0  0  0  0
 16 12  1  0  0  0  0
 16 15  1  0  0  0  0
 17 16  2  0  0  0  0
 18  9  1  0  0  0  0
 22 15  1  0  0  0  0
 23 17  1  0  0  0  0
 24 25  2  0  0  0  0
 24  1  1  0  0  0  0
 26 24  1  0  0  0  0
 27 26  2  0  0  0  0
 27 28  1  0  0  0  0
 29 27  1  0  0  0  0
 30 29  1  0  0  0  0
 31 29  1  0  0  0  0
 31 33  2  0  0  0  0
 32 31  1  0  0  0  0
 33 26  1  0  0  0  0
M  END
>  <minimizedAffinity>
-6.06699133

>  <minimizedRMSD>
0.719878316

$$$$
