
 OpenBabel03252508493D

 27 29  0  0  0  0  0  0  0  0999 V2000
   45.9560   34.1940   41.0740 C   0  0  0  0  0  0  0  0  0  0  0  0
   46.5430   34.8150   42.1710 C   0  0  0  0  0  0  0  0  0  0  0  0
   47.8800   35.1820   42.0360 C   0  0  0  0  0  0  0  0  0  0  0  0
   48.5210   34.9160   40.8650 N   0  0  0  0  0  0  0  0  0  0  0  0
   47.9180   34.3170   39.8350 C   0  0  0  0  0  0  0  0  0  0  0  0
   46.6250   33.9510   39.9370 N   0  0  0  0  0  0  0  0  0  0  0  0
   48.3550   35.6650   42.8780 H   0  0  0  0  0  0  0  0  0  0  0  0
   48.4140   34.0990   38.8980 H   0  0  0  0  0  0  0  0  0  0  0  0
   45.7650   35.0490   43.3740 C   0  0  0  0  0  0  0  0  0  0  0  0
   45.0870   36.2400   43.6020 C   0  0  0  0  0  0  0  0  0  0  0  0
   44.4950   36.0400   44.8360 C   0  0  0  0  0  0  0  0  0  0  0  0
   44.7950   34.8050   45.3230 N   0  0  0  0  0  0  0  0  0  0  0  0
   45.5610   34.2360   44.4170 N   0  0  0  0  0  0  0  0  0  0  0  0
   45.0050   37.1340   43.0050 H   0  0  0  0  0  0  0  0  0  0  0  0
   43.8720   36.7890   45.3350 H   0  0  0  0  0  0  0  0  0  0  0  0
   44.4710   34.4040   46.2420 H   0  0  0  0  0  0  0  0  0  0  0  0
   44.6290   33.8130   41.1660 O   0  0  0  0  0  0  0  0  0  0  0  0
   43.5420   34.4580   40.6490 C   0  0  0  0  0  0  0  0  0  0  0  0
   43.2110   35.6830   40.8310 O   0  0  0  0  0  0  0  0  0  0  0  0
   42.5380   33.7930   39.7610 C   0  0  0  0  0  0  0  0  0  0  0  0
   42.3750   34.0380   38.4170 C   0  0  0  0  0  0  0  0  0  0  0  0
   42.8940   34.7110   37.7490 H   0  0  0  0  0  0  0  0  0  0  0  0
   41.3750   33.2710   37.9070 N   0  0  0  0  0  0  0  0  0  0  0  0
   41.0110   33.2230   36.9350 H   0  0  0  0  0  0  0  0  0  0  0  0
   40.9400   32.5640   38.9630 C   0  0  0  0  0  0  0  0  0  0  0  0
   40.1330   31.8370   38.9190 H   0  0  0  0  0  0  0  0  0  0  0  0
   41.6250   32.8640   40.0750 N   0  0  0  0  0  0  0  0  0  0  0  0
  1 17  1  0  0  0  0
  1  2  1  0  0  0  0
  2  9  1  0  0  0  0
  3  2  2  0  0  0  0
  3  7  1  0  0  0  0
  4  3  1  0  0  0  0
  5  6  1  0  0  0  0
  5  4  2  0  0  0  0
  6  1  2  0  0  0  0
  8  5  1  0  0  0  0
  9 10  1  0  0  0  0
  9 13  2  0  0  0  0
 10 11  2  0  0  0  0
 11 12  1  0  0  0  0
 11 15  1  0  0  0  0
 12 16  1  0  0  0  0
 13 12  1  0  0  0  0
 14 10  1  0  0  0  0
 18 19  2  0  0  0  0
 18 17  1  0  0  0  0
 20 27  1  0  0  0  0
 20 18  1  0  0  0  0
 21 20  2  0  0  0  0
 22 21  1  0  0  0  0
 23 21  1  0  0  0  0
 23 25  1  0  0  0  0
 24 23  1  0  0  0  0
 25 27  2  0  0  0  0
 26 25  1  0  0  0  0
M  END
>  <minimizedAffinity>
-5.12671614

>  <minimizedRMSD>
0.433044493

$$$$
