
 OpenBabel03242510213D

 37 40  0  0  1  0  0  0  0  0999 V2000
   48.0510   33.2380   43.1920 N   0  0  0  0  0  0  0  0  0  0  0  0
   49.2190   33.2900   42.4350 C   0  0  0  0  0  0  0  0  0  0  0  0
   50.3770   32.8660   42.6800 O   0  0  0  0  0  0  0  0  0  0  0  0
   47.5200   34.1360   43.1420 H   0  0  0  0  0  0  0  0  0  0  0  0
   46.2840   32.0980   44.4830 C   0  0  1  0  0  0  0  0  0  0  0  0
   46.4310   31.3650   43.3020 C   0  0  0  0  0  0  0  0  0  0  0  0
   47.6580   32.0940   43.9340 C   0  0  1  0  0  0  0  0  0  0  0  0
   46.0950   31.6220   45.4770 H   0  0  0  0  0  0  0  0  0  0  0  0
   46.1580   31.6640   42.2720 H   0  0  0  0  0  0  0  0  0  0  0  0
   46.5360   30.2370   43.3440 H   0  0  0  0  0  0  0  0  0  0  0  0
   48.4210   31.3850   44.3050 H   0  0  0  0  0  0  0  0  0  0  0  0
   45.0510   33.9830   43.1740 C   0  0  0  0  0  0  0  0  0  0  0  0
   45.5400   33.4420   44.4080 C   0  0  0  0  0  0  0  0  0  0  0  0
   45.3430   34.1880   45.5560 C   0  0  0  0  0  0  0  0  0  0  0  0
   44.7070   35.3760   45.4600 N   0  0  0  0  0  0  0  0  0  0  0  0
   44.2510   35.8760   44.2820 C   0  0  0  0  0  0  0  0  0  0  0  0
   44.4340   35.1450   43.1050 N   0  0  0  0  0  0  0  0  0  0  0  0
   45.1830   33.3940   42.2880 H   0  0  0  0  0  0  0  0  0  0  0  0
   45.7070   33.7870   46.4900 H   0  0  0  0  0  0  0  0  0  0  0  0
   43.7760   36.8260   44.3990 H   0  0  0  0  0  0  0  0  0  0  0  0
   49.1810   33.9480   41.0670 C   0  0  2  0  0  0  0  0  0  0  0  0
   48.6520   35.4260   41.0130 C   0  0  0  0  0  0  0  0  0  0  0  0
   47.9100   34.2820   40.4130 C   0  0  1  0  0  0  0  0  0  0  0  0
   50.0950   33.8770   40.4440 H   0  0  0  0  0  0  0  0  0  0  0  0
   48.3010   35.8210   41.9890 H   0  0  0  0  0  0  0  0  0  0  0  0
   49.1200   36.1180   40.3210 H   0  0  0  0  0  0  0  0  0  0  0  0
   46.9970   33.8440   40.9030 H   0  0  0  0  0  0  0  0  0  0  0  0
   47.8650   34.1790   38.9050 C   0  0  0  0  0  0  0  0  0  0  0  0
   48.6370   34.8470   38.2310 O   0  0  0  0  0  0  0  0  0  0  0  0
   46.8970   33.2820   38.2710 C   0  0  0  0  0  0  0  0  0  0  0  0
   46.2160   32.1960   38.7840 C   0  0  0  0  0  0  0  0  0  0  0  0
   46.3220   31.8380   39.8160 H   0  0  0  0  0  0  0  0  0  0  0  0
   45.4160   31.6420   37.8620 N   0  0  0  0  0  0  0  0  0  0  0  0
   44.8020   30.8170   38.0000 H   0  0  0  0  0  0  0  0  0  0  0  0
   45.5870   32.3900   36.7320 C   0  0  0  0  0  0  0  0  0  0  0  0
   45.0580   32.1720   35.8120 H   0  0  0  0  0  0  0  0  0  0  0  0
   46.4770   33.3660   36.9970 N   0  0  0  0  0  0  0  0  0  0  0  0
  1  7  1  0  0  0  0
  2  3  2  0  0  0  0
  2  1  1  0  0  0  0
  4  1  1  0  0  0  0
  5  8  1  1  0  0  0
  6 10  1  0  0  0  0
  6  7  1  0  0  0  0
  6  5  1  0  0  0  0
  7 11  1  1  0  0  0
  7  5  1  0  0  0  0
  9  6  1  0  0  0  0
 12 13  1  0  0  0  0
 13  5  1  0  0  0  0
 13 14  2  0  0  0  0
 14 19  1  0  0  0  0
 15 14  1  0  0  0  0
 16 20  1  0  0  0  0
 16 15  2  0  0  0  0
 17 12  2  0  0  0  0
 17 16  1  0  0  0  0
 18 12  1  0  0  0  0
 21 24  1  6  0  0  0
 21  2  1  0  0  0  0
 22 21  1  0  0  0  0
 22 25  1  0  0  0  0
 23 27  1  1  0  0  0
 23 22  1  0  0  0  0
 23 21  1  0  0  0  0
 26 22  1  0  0  0  0
 28 23  1  0  0  0  0
 29 28  2  0  0  0  0
 30 31  2  0  0  0  0
 30 28  1  0  0  0  0
 31 32  1  0  0  0  0
 33 34  1  0  0  0  0
 33 31  1  0  0  0  0
 35 37  2  0  0  0  0
 35 33  1  0  0  0  0
 36 35  1  0  0  0  0
 37 30  1  0  0  0  0
M  END
>  <minimizedAffinity>
-4.75734949

>  <minimizedRMSD>
0.365531623

$$$$
