
 OpenBabel03252508493D

 27 29  0  0  0  0  0  0  0  0999 V2000
   45.9800   34.2050   41.0440 C   0  0  0  0  0  0  0  0  0  0  0  0
   46.5630   34.8110   42.1500 C   0  0  0  0  0  0  0  0  0  0  0  0
   47.9040   35.1670   42.0310 C   0  0  0  0  0  0  0  0  0  0  0  0
   48.5520   34.9040   40.8630 N   0  0  0  0  0  0  0  0  0  0  0  0
   47.9530   34.3190   39.8230 C   0  0  0  0  0  0  0  0  0  0  0  0
   46.6560   33.9640   39.9110 N   0  0  0  0  0  0  0  0  0  0  0  0
   48.3750   35.6390   42.8800 H   0  0  0  0  0  0  0  0  0  0  0  0
   48.4560   34.1040   38.8880 H   0  0  0  0  0  0  0  0  0  0  0  0
   45.7760   35.0430   43.3480 C   0  0  0  0  0  0  0  0  0  0  0  0
   45.0910   36.2320   43.5720 C   0  0  0  0  0  0  0  0  0  0  0  0
   44.4930   36.0300   44.8010 C   0  0  0  0  0  0  0  0  0  0  0  0
   44.7950   34.7970   45.2910 N   0  0  0  0  0  0  0  0  0  0  0  0
   45.5680   34.2300   44.3910 N   0  0  0  0  0  0  0  0  0  0  0  0
   45.0100   37.1250   42.9730 H   0  0  0  0  0  0  0  0  0  0  0  0
   43.8640   36.7770   45.2960 H   0  0  0  0  0  0  0  0  0  0  0  0
   44.4660   34.3950   46.2090 H   0  0  0  0  0  0  0  0  0  0  0  0
   44.6480   33.8340   41.1210 O   0  0  0  0  0  0  0  0  0  0  0  0
   43.5720   34.4920   40.5960 C   0  0  0  0  0  0  0  0  0  0  0  0
   43.2970   35.7400   40.7080 O   0  0  0  0  0  0  0  0  0  0  0  0
   42.5120   33.8150   39.7850 C   0  0  0  0  0  0  0  0  0  0  0  0
   41.2320   33.5420   40.2120 C   0  0  0  0  0  0  0  0  0  0  0  0
   40.7400   33.7390   41.1530 H   0  0  0  0  0  0  0  0  0  0  0  0
   40.5250   32.9170   39.2340 N   0  0  0  0  0  0  0  0  0  0  0  0
   39.5410   32.5830   39.2430 H   0  0  0  0  0  0  0  0  0  0  0  0
   41.3950   32.8210   38.2170 C   0  0  0  0  0  0  0  0  0  0  0  0
   41.1620   32.3670   37.2560 H   0  0  0  0  0  0  0  0  0  0  0  0
   42.5850   33.3520   38.5300 N   0  0  0  0  0  0  0  0  0  0  0  0
  1 17  1  0  0  0  0
  1  2  1  0  0  0  0
  2  9  1  0  0  0  0
  3  2  2  0  0  0  0
  3  7  1  0  0  0  0
  4  3  1  0  0  0  0
  5  6  1  0  0  0  0
  5  4  2  0  0  0  0
  6  1  2  0  0  0  0
  8  5  1  0  0  0  0
  9 10  1  0  0  0  0
  9 13  2  0  0  0  0
 10 11  2  0  0  0  0
 11 12  1  0  0  0  0
 11 15  1  0  0  0  0
 12 16  1  0  0  0  0
 13 12  1  0  0  0  0
 14 10  1  0  0  0  0
 18 19  2  0  0  0  0
 18 17  1  0  0  0  0
 20 21  2  0  0  0  0
 20 18  1  0  0  0  0
 21 22  1  0  0  0  0
 23 24  1  0  0  0  0
 23 21  1  0  0  0  0
 25 27  2  0  0  0  0
 25 23  1  0  0  0  0
 26 25  1  0  0  0  0
 27 20  1  0  0  0  0
M  END
>  <minimizedAffinity>
-5.01731825

>  <minimizedRMSD>
0.472282529

$$$$
