
 OpenBabel03252508493D

 27 29  0  0  0  0  0  0  0  0999 V2000
   45.9630   34.2090   41.0350 C   0  0  0  0  0  0  0  0  0  0  0  0
   46.5500   34.8130   42.1410 C   0  0  0  0  0  0  0  0  0  0  0  0
   47.8930   35.1620   42.0200 C   0  0  0  0  0  0  0  0  0  0  0  0
   48.5380   34.8980   40.8500 N   0  0  0  0  0  0  0  0  0  0  0  0
   47.9350   34.3160   39.8110 C   0  0  0  0  0  0  0  0  0  0  0  0
   46.6360   33.9670   39.9020 N   0  0  0  0  0  0  0  0  0  0  0  0
   48.3670   35.6320   42.8690 H   0  0  0  0  0  0  0  0  0  0  0  0
   48.4350   34.0990   38.8760 H   0  0  0  0  0  0  0  0  0  0  0  0
   45.7660   35.0480   43.3410 C   0  0  0  0  0  0  0  0  0  0  0  0
   45.0790   36.2350   43.5620 C   0  0  0  0  0  0  0  0  0  0  0  0
   44.4850   36.0370   44.7940 C   0  0  0  0  0  0  0  0  0  0  0  0
   44.7920   34.8070   45.2880 N   0  0  0  0  0  0  0  0  0  0  0  0
   45.5640   34.2380   44.3870 N   0  0  0  0  0  0  0  0  0  0  0  0
   44.9940   37.1250   42.9600 H   0  0  0  0  0  0  0  0  0  0  0  0
   43.8560   36.7840   45.2870 H   0  0  0  0  0  0  0  0  0  0  0  0
   44.4670   34.4070   46.2080 H   0  0  0  0  0  0  0  0  0  0  0  0
   44.6300   33.8450   41.1150 O   0  0  0  0  0  0  0  0  0  0  0  0
   43.5620   34.4700   40.5370 C   0  0  0  0  0  0  0  0  0  0  0  0
   43.1250   35.6490   40.7920 O   0  0  0  0  0  0  0  0  0  0  0  0
   42.7130   33.8370   39.4800 C   0  0  0  0  0  0  0  0  0  0  0  0
   43.1700   33.0130   38.4780 C   0  0  0  0  0  0  0  0  0  0  0  0
   44.1640   32.6590   38.2450 H   0  0  0  0  0  0  0  0  0  0  0  0
   42.1430   32.6110   37.6830 N   0  0  0  0  0  0  0  0  0  0  0  0
   42.1580   31.9910   36.8490 H   0  0  0  0  0  0  0  0  0  0  0  0
   41.0660   33.2050   38.2210 C   0  0  0  0  0  0  0  0  0  0  0  0
   40.0560   33.1020   37.8330 H   0  0  0  0  0  0  0  0  0  0  0  0
   41.3900   33.9410   39.2930 N   0  0  0  0  0  0  0  0  0  0  0  0
  1 17  1  0  0  0  0
  1  2  1  0  0  0  0
  2  9  1  0  0  0  0
  3  2  2  0  0  0  0
  3  7  1  0  0  0  0
  4  3  1  0  0  0  0
  5  6  1  0  0  0  0
  5  4  2  0  0  0  0
  6  1  2  0  0  0  0
  8  5  1  0  0  0  0
  9 10  1  0  0  0  0
  9 13  2  0  0  0  0
 10 11  2  0  0  0  0
 11 15  1  0  0  0  0
 11 12  1  0  0  0  0
 12 16  1  0  0  0  0
 13 12  1  0  0  0  0
 14 10  1  0  0  0  0
 18 19  2  0  0  0  0
 18 17  1  0  0  0  0
 20 18  1  0  0  0  0
 21 20  2  0  0  0  0
 22 21  1  0  0  0  0
 23 25  1  0  0  0  0
 23 21  1  0  0  0  0
 24 23  1  0  0  0  0
 25 27  2  0  0  0  0
 26 25  1  0  0  0  0
 27 20  1  0  0  0  0
M  END
>  <minimizedAffinity>
-5.20186949

>  <minimizedRMSD>
0.460312277

$$$$
