
 OpenBabel03242518343D

 34 37  0  0  1  0  0  0  0  0999 V2000
   47.4320   33.6930   39.6880 C   0  0  0  0  0  0  0  0  0  0  0  0
   48.3000   34.2830   38.7700 C   0  0  0  0  0  0  0  0  0  0  0  0
   47.7780   34.1370   37.4910 C   0  0  0  0  0  0  0  0  0  0  0  0
   46.6050   33.4560   37.6990 C   0  0  0  0  0  0  0  0  0  0  0  0
   46.4290   33.2140   38.9640 O   0  0  0  0  0  0  0  0  0  0  0  0
   49.2280   34.7640   39.1140 H   0  0  0  0  0  0  0  0  0  0  0  0
   48.2600   34.5070   36.6000 H   0  0  0  0  0  0  0  0  0  0  0  0
   45.6730   33.0600   36.6340 C   0  0  2  0  0  0  0  0  0  0  0  0
   44.7250   31.9490   36.8610 C   0  0  0  0  0  0  0  0  0  0  0  0
   45.9270   31.6510   36.0650 C   0  0  2  0  0  0  0  0  0  0  0  0
   45.5140   33.8590   35.8770 H   0  0  0  0  0  0  0  0  0  0  0  0
   43.7400   32.0430   36.3610 H   0  0  0  0  0  0  0  0  0  0  0  0
   44.6150   31.6180   37.9090 H   0  0  0  0  0  0  0  0  0  0  0  0
   45.7910   31.6620   34.9470 H   0  0  0  0  0  0  0  0  0  0  0  0
   47.0360   30.8460   36.5570 C   0  0  0  0  0  0  0  0  0  0  0  0
   48.3370   30.6750   36.1460 C   0  0  0  0  0  0  0  0  0  0  0  0
   48.7830   31.1770   35.3090 H   0  0  0  0  0  0  0  0  0  0  0  0
   49.0300   29.8100   36.9030 N   0  0  0  0  0  0  0  0  0  0  0  0
   50.0230   29.5210   36.7870 H   0  0  0  0  0  0  0  0  0  0  0  0
   48.1490   29.4080   37.8330 C   0  0  0  0  0  0  0  0  0  0  0  0
   48.3530   28.7040   38.6220 H   0  0  0  0  0  0  0  0  0  0  0  0
   46.9640   30.0150   37.6400 N   0  0  0  0  0  0  0  0  0  0  0  0
   47.4960   33.5720   41.0790 O   0  0  0  0  0  0  0  0  0  0  0  0
   47.5230   34.7340   41.8840 C   0  0  0  0  0  0  0  0  0  0  0  0
   48.3370   35.6160   41.5430 O   0  0  0  0  0  0  0  0  0  0  0  0
   46.6150   34.7480   42.9850 C   0  0  0  0  0  0  0  0  0  0  0  0
   45.6590   35.7250   42.9170 C   0  0  0  0  0  0  0  0  0  0  0  0
   44.7320   35.8050   43.9550 C   0  0  0  0  0  0  0  0  0  0  0  0
   44.8230   34.9100   44.9780 N   0  0  0  0  0  0  0  0  0  0  0  0
   45.7730   33.9760   44.9970 C   0  0  0  0  0  0  0  0  0  0  0  0
   46.6550   33.9070   44.0020 N   0  0  0  0  0  0  0  0  0  0  0  0
   45.5690   36.4480   42.1090 H   0  0  0  0  0  0  0  0  0  0  0  0
   43.9490   36.5560   43.9610 H   0  0  0  0  0  0  0  0  0  0  0  0
   45.8120   33.2770   45.8370 H   0  0  0  0  0  0  0  0  0  0  0  0
  1 23  1  0  0  0  0
  2  6  1  0  0  0  0
  2  1  2  0  0  0  0
  3  4  2  0  0  0  0
  3  2  1  0  0  0  0
  4  5  1  0  0  0  0
  5  1  1  0  0  0  0
  7  3  1  0  0  0  0
  8 11  1  6  0  0  0
  8  9  1  0  0  0  0
  8  4  1  0  0  0  0
  9 13  1  0  0  0  0
 10 14  1  6  0  0  0
 10 15  1  0  0  0  0
 10  8  1  0  0  0  0
 10  9  1  0  0  0  0
 12  9  1  0  0  0  0
 15 22  1  0  0  0  0
 16 15  2  0  0  0  0
 16 18  1  0  0  0  0
 17 16  1  0  0  0  0
 18 20  1  0  0  0  0
 19 18  1  0  0  0  0
 20 21  1  0  0  0  0
 22 20  2  0  0  0  0
 23 24  1  0  0  0  0
 24 26  1  0  0  0  0
 25 24  2  0  0  0  0
 26 31  1  0  0  0  0
 27 26  2  0  0  0  0
 27 28  1  0  0  0  0
 28 33  1  0  0  0  0
 28 29  2  0  0  0  0
 29 30  1  0  0  0  0
 30 34  1  0  0  0  0
 31 30  2  0  0  0  0
 32 27  1  0  0  0  0
M  END
>  <minimizedAffinity>
-4.3612504

>  <minimizedRMSD>
0.379795074

$$$$
