
 OpenBabel03252508493D

 27 29  0  0  0  0  0  0  0  0999 V2000
   45.9830   34.1860   41.0360 C   0  0  0  0  0  0  0  0  0  0  0  0
   46.5600   34.8110   42.1350 C   0  0  0  0  0  0  0  0  0  0  0  0
   47.8950   35.1850   42.0090 C   0  0  0  0  0  0  0  0  0  0  0  0
   48.5450   34.9220   40.8410 N   0  0  0  0  0  0  0  0  0  0  0  0
   47.9520   34.3190   39.8080 C   0  0  0  0  0  0  0  0  0  0  0  0
   46.6600   33.9460   39.9030 N   0  0  0  0  0  0  0  0  0  0  0  0
   48.3620   35.6720   42.8530 H   0  0  0  0  0  0  0  0  0  0  0  0
   48.4550   34.1030   38.8740 H   0  0  0  0  0  0  0  0  0  0  0  0
   45.7730   35.0420   43.3330 C   0  0  0  0  0  0  0  0  0  0  0  0
   45.0620   36.2170   43.5430 C   0  0  0  0  0  0  0  0  0  0  0  0
   44.4740   36.0190   44.7780 C   0  0  0  0  0  0  0  0  0  0  0  0
   44.8060   34.8010   45.2840 N   0  0  0  0  0  0  0  0  0  0  0  0
   45.5890   34.2390   44.3880 N   0  0  0  0  0  0  0  0  0  0  0  0
   44.9570   37.0990   42.9320 H   0  0  0  0  0  0  0  0  0  0  0  0
   43.8290   36.7580   45.2650 H   0  0  0  0  0  0  0  0  0  0  0  0
   44.4910   34.4040   46.2090 H   0  0  0  0  0  0  0  0  0  0  0  0
   44.6580   33.7970   41.1200 O   0  0  0  0  0  0  0  0  0  0  0  0
   43.5820   34.3740   40.5080 C   0  0  0  0  0  0  0  0  0  0  0  0
   43.1450   35.5690   40.6760 O   0  0  0  0  0  0  0  0  0  0  0  0
   42.7210   33.6610   39.5140 C   0  0  0  0  0  0  0  0  0  0  0  0
   41.4420   34.0250   39.1580 C   0  0  0  0  0  0  0  0  0  0  0  0
   40.8200   34.8450   39.4870 H   0  0  0  0  0  0  0  0  0  0  0  0
   40.9390   33.1660   38.2340 N   0  0  0  0  0  0  0  0  0  0  0  0
   40.0090   33.1670   37.7700 H   0  0  0  0  0  0  0  0  0  0  0  0
   41.9310   32.2820   38.0410 C   0  0  0  0  0  0  0  0  0  0  0  0
   41.8720   31.4410   37.3530 H   0  0  0  0  0  0  0  0  0  0  0  0
   43.0000   32.5650   38.7970 N   0  0  0  0  0  0  0  0  0  0  0  0
  1 17  1  0  0  0  0
  1  2  1  0  0  0  0
  2  9  1  0  0  0  0
  3  2  2  0  0  0  0
  3  7  1  0  0  0  0
  4  3  1  0  0  0  0
  5  6  1  0  0  0  0
  5  4  2  0  0  0  0
  6  1  2  0  0  0  0
  8  5  1  0  0  0  0
  9 10  1  0  0  0  0
  9 13  2  0  0  0  0
 10 11  2  0  0  0  0
 11 15  1  0  0  0  0
 11 12  1  0  0  0  0
 12 16  1  0  0  0  0
 13 12  1  0  0  0  0
 14 10  1  0  0  0  0
 18 19  2  0  0  0  0
 18 17  1  0  0  0  0
 20 18  1  0  0  0  0
 21 22  1  0  0  0  0
 21 20  2  0  0  0  0
 23 21  1  0  0  0  0
 24 23  1  0  0  0  0
 25 23  1  0  0  0  0
 25 27  2  0  0  0  0
 26 25  1  0  0  0  0
 27 20  1  0  0  0  0
M  END
>  <minimizedAffinity>
-4.99032116

>  <minimizedRMSD>
0.284666598

$$$$
