
 OpenBabel03242512333D

 19 20  0  0  0  0  0  0  0  0999 V2000
   46.7870   34.9210   42.1110 C   0  0  0  0  0  0  0  0  0  0  0  0
   47.9090   35.4280   41.8570 O   0  0  0  0  0  0  0  0  0  0  0  0
   46.0880   34.8950   43.3570 C   0  0  0  0  0  0  0  0  0  0  0  0
   45.2300   35.9760   43.5560 C   0  0  0  0  0  0  0  0  0  0  0  0
   44.5190   35.9980   44.7630 C   0  0  0  0  0  0  0  0  0  0  0  0
   44.7100   34.9730   45.6580 N   0  0  0  0  0  0  0  0  0  0  0  0
   45.5490   33.9620   45.4080 C   0  0  0  0  0  0  0  0  0  0  0  0
   46.2400   33.9240   44.2550 N   0  0  0  0  0  0  0  0  0  0  0  0
   45.0880   36.7800   42.8430 H   0  0  0  0  0  0  0  0  0  0  0  0
   43.8380   36.8210   44.9640 H   0  0  0  0  0  0  0  0  0  0  0  0
   45.6200   33.2060   46.1870 H   0  0  0  0  0  0  0  0  0  0  0  0
   46.1240   34.2760   40.9560 C   0  0  0  0  0  0  0  0  0  0  0  0
   44.7770   34.3290   40.6620 C   0  0  0  0  0  0  0  0  0  0  0  0
   44.0060   34.8460   41.2280 H   0  0  0  0  0  0  0  0  0  0  0  0
   44.4920   33.6450   39.5560 N   0  0  0  0  0  0  0  0  0  0  0  0
   43.6000   33.4660   39.0410 H   0  0  0  0  0  0  0  0  0  0  0  0
   45.6740   33.1520   39.1420 C   0  0  0  0  0  0  0  0  0  0  0  0
   45.9360   32.5440   38.3010 H   0  0  0  0  0  0  0  0  0  0  0  0
   46.6680   33.5190   39.9690 N   0  0  0  0  0  0  0  0  0  0  0  0
  1  3  1  0  0  0  0
  2  1  2  0  0  0  0
  3  4  2  0  0  0  0
  3  8  1  0  0  0  0
  4  5  1  0  0  0  0
  5 10  1  0  0  0  0
  5  6  2  0  0  0  0
  7  6  1  0  0  0  0
  7 11  1  0  0  0  0
  8  7  2  0  0  0  0
  9  4  1  0  0  0  0
 12  1  1  0  0  0  0
 13 12  2  0  0  0  0
 13 14  1  0  0  0  0
 15 13  1  0  0  0  0
 16 15  1  0  0  0  0
 17 15  1  0  0  0  0
 17 19  2  0  0  0  0
 18 17  1  0  0  0  0
 19 12  1  0  0  0  0
M  END
>  <minimizedAffinity>
-4.03309727

>  <minimizedRMSD>
0.497763932

$$$$
