
 OpenBabel03252508283D

 38 41  0  0  1  0  0  0  0  0999 V2000
   41.1470   33.0690   39.6560 N   0  0  0  0  0  0  0  0  0  0  0  0
   41.4290   32.6750   41.0390 C   0  0  2  0  0  0  0  0  0  0  0  0
   40.2930   32.9520   41.9550 C   0  0  0  0  0  0  0  0  0  0  0  0
   39.0750   33.2930   41.2430 N   0  0  0  0  0  0  0  0  0  0  0  0
   39.2230   34.3110   40.2650 C   0  0  0  0  0  0  0  0  0  0  0  0
   40.6400   34.4560   39.7710 C   0  0  2  0  0  0  0  0  0  0  0  0
   40.4700   32.4540   39.1870 H   0  0  0  0  0  0  0  0  0  0  0  0
   41.6470   31.5950   41.0320 H   0  0  0  0  0  0  0  0  0  0  0  0
   40.0260   32.0260   42.5450 H   0  0  0  0  0  0  0  0  0  0  0  0
   40.3860   33.8320   42.6150 H   0  0  0  0  0  0  0  0  0  0  0  0
   38.6530   32.4050   40.8770 H   0  0  0  0  0  0  0  0  0  0  0  0
   38.9230   35.2970   40.6720 H   0  0  0  0  0  0  0  0  0  0  0  0
   38.5420   34.1180   39.4050 H   0  0  0  0  0  0  0  0  0  0  0  0
   41.2350   34.9430   40.5520 H   0  0  0  0  0  0  0  0  0  0  0  0
   40.7130   35.1880   38.5060 C   0  0  0  0  0  0  0  0  0  0  0  0
   39.9640   35.1150   37.3680 C   0  0  0  0  0  0  0  0  0  0  0  0
   39.1310   34.4470   37.2220 H   0  0  0  0  0  0  0  0  0  0  0  0
   40.3980   35.9900   36.4440 N   0  0  0  0  0  0  0  0  0  0  0  0
   40.0650   36.2050   35.4690 H   0  0  0  0  0  0  0  0  0  0  0  0
   41.4330   36.6270   36.9940 C   0  0  0  0  0  0  0  0  0  0  0  0
   42.0640   37.4180   36.5660 H   0  0  0  0  0  0  0  0  0  0  0  0
   41.6360   36.1560   38.2350 N   0  0  0  0  0  0  0  0  0  0  0  0
   44.6300   34.0060   42.0390 C   0  0  0  0  0  0  0  0  0  0  0  0
   43.7480   35.0820   42.2000 C   0  0  0  0  0  0  0  0  0  0  0  0
   42.4660   34.6970   41.8530 C   0  0  0  0  0  0  0  0  0  0  0  0
   42.5900   33.4220   41.4910 N   0  0  0  0  0  0  0  0  0  0  0  0
   43.8500   33.0180   41.5990 N   0  0  0  0  0  0  0  0  0  0  0  0
   44.1600   36.0330   42.5590 H   0  0  0  0  0  0  0  0  0  0  0  0
   41.7780   35.5250   41.9850 H   0  0  0  0  0  0  0  0  0  0  0  0
   48.2760   34.9060   42.1920 C   0  0  0  0  0  0  0  0  0  0  0  0
   46.9000   35.0030   41.8070 C   0  0  0  0  0  0  0  0  0  0  0  0
   46.0620   34.0460   42.3260 C   0  0  0  0  0  0  0  0  0  0  0  0
   46.5610   33.0900   43.1500 N   0  0  0  0  0  0  0  0  0  0  0  0
   47.8610   33.0180   43.5000 C   0  0  0  0  0  0  0  0  0  0  0  0
   48.6960   33.9330   43.0100 N   0  0  0  0  0  0  0  0  0  0  0  0
   48.9240   35.6690   41.7730 H   0  0  0  0  0  0  0  0  0  0  0  0
   46.5230   35.7620   41.1560 H   0  0  0  0  0  0  0  0  0  0  0  0
   48.1520   32.2210   44.1590 H   0  0  0  0  0  0  0  0  0  0  0  0
  1  6  1  0  0  0  0
  1  2  1  0  0  0  0
  2  8  1  1  0  0  0
  2 26  1  0  0  0  0
  2  3  1  0  0  0  0
  3  9  1  0  0  0  0
  3 10  1  0  0  0  0
  4  3  1  0  0  0  0
  5 12  1  0  0  0  0
  5  4  1  0  0  0  0
  6  5  1  0  0  0  0
  6 14  1  1  0  0  0
  7  1  1  0  0  0  0
 11  4  1  0  0  0  0
 13  5  1  0  0  0  0
 15  6  1  0  0  0  0
 16 15  2  0  0  0  0
 17 16  1  0  0  0  0
 18 20  1  0  0  0  0
 18 16  1  0  0  0  0
 19 18  1  0  0  0  0
 20 22  2  0  0  0  0
 21 20  1  0  0  0  0
 22 15  1  0  0  0  0
 23 24  1  0  0  0  0
 23 32  1  0  0  0  0
 24 28  1  0  0  0  0
 25 29  1  0  0  0  0
 25 24  2  0  0  0  0
 26 27  1  0  0  0  0
 26 25  1  0  0  0  0
 27 23  2  0  0  0  0
 30 35  1  0  0  0  0
 31 30  2  0  0  0  0
 31 32  1  0  0  0  0
 32 33  2  0  0  0  0
 33 34  1  0  0  0  0
 34 38  1  0  0  0  0
 35 34  2  0  0  0  0
 36 30  1  0  0  0  0
 37 31  1  0  0  0  0
M  END
>  <minimizedAffinity>
-4.68307495

>  <minimizedRMSD>
2.0717752

$$$$
