
 OpenBabel03252502293D

 34 36  0  0  0  0  0  0  0  0999 V2000
   37.1190   28.4130   41.0270 C   0  0  0  0  0  0  0  0  0  0  0  0
   36.4640   27.5700   41.9230 C   0  0  0  0  0  0  0  0  0  0  0  0
   36.8220   27.6280   43.2690 C   0  0  0  0  0  0  0  0  0  0  0  0
   37.8040   28.5070   43.6790 C   0  0  0  0  0  0  0  0  0  0  0  0
   38.4570   29.3430   42.8060 C   0  0  0  0  0  0  0  0  0  0  0  0
   38.0800   29.2650   41.4650 C   0  0  0  0  0  0  0  0  0  0  0  0
   35.6940   26.8810   41.5990 H   0  0  0  0  0  0  0  0  0  0  0  0
   36.3580   27.0080   44.0170 H   0  0  0  0  0  0  0  0  0  0  0  0
   38.1340   28.6080   44.7090 H   0  0  0  0  0  0  0  0  0  0  0  0
   39.2290   30.0570   43.0250 H   0  0  0  0  0  0  0  0  0  0  0  0
   35.1330   28.3390   37.8300 C   0  0  0  0  0  0  0  0  0  0  0  0
   35.4070   28.4740   39.2010 C   0  0  0  0  0  0  0  0  0  0  0  0
   36.7010   28.3020   39.6470 C   0  0  0  0  0  0  0  0  0  0  0  0
   37.6360   28.0080   38.7080 N   0  0  0  0  0  0  0  0  0  0  0  0
   37.3700   27.8780   37.3930 C   0  0  0  0  0  0  0  0  0  0  0  0
   36.1070   28.0440   36.9390 N   0  0  0  0  0  0  0  0  0  0  0  0
   34.6460   28.7080   39.9160 H   0  0  0  0  0  0  0  0  0  0  0  0
   38.1430   27.6430   36.6730 H   0  0  0  0  0  0  0  0  0  0  0  0
   33.7420   28.5210   37.3300 C   0  0  0  0  0  0  0  0  0  0  0  0
   33.7930   29.4530   36.2930 F   0  0  0  0  0  0  0  0  0  0  0  0
   33.0390   29.1450   38.3480 F   0  0  0  0  0  0  0  0  0  0  0  0
   33.1670   27.3610   36.8970 F   0  0  0  0  0  0  0  0  0  0  0  0
   38.5580   31.4320   40.0770 C   0  0  0  0  0  0  0  0  0  0  0  0
   37.8520   32.2870   40.6350 O   0  0  0  0  0  0  0  0  0  0  0  0
   38.6710   30.0680   40.4640 N   0  0  0  0  0  0  0  0  0  0  0  0
   39.3310   29.4220   39.9300 H   0  0  0  0  0  0  0  0  0  0  0  0
   39.3490   31.8560   38.9180 C   0  0  0  0  0  0  0  0  0  0  0  0
   38.9030   31.7580   37.6330 C   0  0  0  0  0  0  0  0  0  0  0  0
   37.9440   31.3730   37.2520 H   0  0  0  0  0  0  0  0  0  0  0  0
   39.8140   32.2130   36.7520 N   0  0  0  0  0  0  0  0  0  0  0  0
   39.7520   32.2630   35.7030 H   0  0  0  0  0  0  0  0  0  0  0  0
   40.8450   32.5990   37.5390 C   0  0  0  0  0  0  0  0  0  0  0  0
   41.7540   33.0220   37.0840 H   0  0  0  0  0  0  0  0  0  0  0  0
   40.5810   32.3910   38.8370 N   0  0  0  0  0  0  0  0  0  0  0  0
  1  6  2  0  0  0  0
  1  2  1  0  0  0  0
  2  3  2  0  0  0  0
  3  4  1  0  0  0  0
  3  8  1  0  0  0  0
  4  9  1  0  0  0  0
  5 10  1  0  0  0  0
  5  4  2  0  0  0  0
  6  5  1  0  0  0  0
  7  2  1  0  0  0  0
 11 12  1  0  0  0  0
 12 13  2  0  0  0  0
 12 17  1  0  0  0  0
 13  1  1  0  0  0  0
 14 13  1  0  0  0  0
 15 14  2  0  0  0  0
 16 15  1  0  0  0  0
 16 11  2  0  0  0  0
 18 15  1  0  0  0  0
 19 11  1  0  0  0  0
 19 21  1  0  0  0  0
 20 19  1  0  0  0  0
 22 19  1  0  0  0  0
 23 25  1  0  0  0  0
 23 24  2  0  0  0  0
 25  6  1  0  0  0  0
 26 25  1  0  0  0  0
 27 23  1  0  0  0  0
 28 27  2  0  0  0  0
 29 28  1  0  0  0  0
 30 32  1  0  0  0  0
 30 28  1  0  0  0  0
 31 30  1  0  0  0  0
 32 34  2  0  0  0  0
 33 32  1  0  0  0  0
 34 27  1  0  0  0  0
M  END
>  <minimizedAffinity>
-5.84439754

$$$$

 OpenBabel03252502293D

 34 36  0  0  0  0  0  0  0  0999 V2000
   36.9590   26.8880   40.9850 C   0  0  0  0  0  0  0  0  0  0  0  0
   37.0180   26.2440   42.2200 C   0  0  0  0  0  0  0  0  0  0  0  0
   36.9260   24.8530   42.2460 C   0  0  0  0  0  0  0  0  0  0  0  0
   36.7810   24.1540   41.0650 C   0  0  0  0  0  0  0  0  0  0  0  0
   36.7210   24.7770   39.8420 C   0  0  0  0  0  0  0  0  0  0  0  0
   36.8150   26.1680   39.8430 C   0  0  0  0  0  0  0  0  0  0  0  0
   37.1320   26.7950   43.1460 H   0  0  0  0  0  0  0  0  0  0  0  0
   36.9650   24.2890   43.1630 H   0  0  0  0  0  0  0  0  0  0  0  0
   36.7030   23.0720   41.0080 H   0  0  0  0  0  0  0  0  0  0  0  0
   36.6100   24.3250   38.8740 H   0  0  0  0  0  0  0  0  0  0  0  0
   38.1610   30.4330   41.3820 C   0  0  0  0  0  0  0  0  0  0  0  0
   38.1960   29.0290   41.3800 C   0  0  0  0  0  0  0  0  0  0  0  0
   37.0600   28.3300   41.0280 C   0  0  0  0  0  0  0  0  0  0  0  0
   35.9670   29.0650   40.7020 N   0  0  0  0  0  0  0  0  0  0  0  0
   35.9360   30.4140   40.7050 C   0  0  0  0  0  0  0  0  0  0  0  0
   37.0410   31.1130   41.0470 N   0  0  0  0  0  0  0  0  0  0  0  0
   39.0750   28.4780   41.6420 H   0  0  0  0  0  0  0  0  0  0  0  0
   35.0450   30.9670   40.4380 H   0  0  0  0  0  0  0  0  0  0  0  0
   39.3770   31.2040   41.7580 C   0  0  0  0  0  0  0  0  0  0  0  0
   39.1360   32.5410   41.4400 F   0  0  0  0  0  0  0  0  0  0  0  0
   40.3820   30.7990   40.8950 F   0  0  0  0  0  0  0  0  0  0  0  0
   39.7070   31.0830   43.0780 F   0  0  0  0  0  0  0  0  0  0  0  0
   35.7950   27.1470   37.6410 C   0  0  0  0  0  0  0  0  0  0  0  0
   34.6520   26.6650   37.6200 O   0  0  0  0  0  0  0  0  0  0  0  0
   36.7680   26.9320   38.6560 N   0  0  0  0  0  0  0  0  0  0  0  0
   37.7140   27.4200   38.5900 H   0  0  0  0  0  0  0  0  0  0  0  0
   36.1860   28.0160   36.5270 C   0  0  0  0  0  0  0  0  0  0  0  0
   37.3280   27.8350   35.8040 C   0  0  0  0  0  0  0  0  0  0  0  0
   38.1100   27.0670   35.9100 H   0  0  0  0  0  0  0  0  0  0  0  0
   37.4590   28.7630   34.8360 N   0  0  0  0  0  0  0  0  0  0  0  0
   38.2290   28.8770   34.1300 H   0  0  0  0  0  0  0  0  0  0  0  0
   36.3530   29.5280   34.9860 C   0  0  0  0  0  0  0  0  0  0  0  0
   36.1860   30.3870   34.3160 H   0  0  0  0  0  0  0  0  0  0  0  0
   35.5820   29.0940   35.9930 N   0  0  0  0  0  0  0  0  0  0  0  0
  1 13  1  0  0  0  0
  1  2  1  0  0  0  0
  2  3  2  0  0  0  0
  2  7  1  0  0  0  0
  3  8  1  0  0  0  0
  4  3  1  0  0  0  0
  5  6  1  0  0  0  0
  5  4  2  0  0  0  0
  6  1  2  0  0  0  0
  9  4  1  0  0  0  0
 10  5  1  0  0  0  0
 11 19  1  0  0  0  0
 12 11  1  0  0  0  0
 12 17  1  0  0  0  0
 13 12  2  0  0  0  0
 14 15  2  0  0  0  0
 14 13  1  0  0  0  0
 15 16  1  0  0  0  0
 16 11  2  0  0  0  0
 18 15  1  0  0  0  0
 19 22  1  0  0  0  0
 20 19  1  0  0  0  0
 21 19  1  0  0  0  0
 23 25  1  0  0  0  0
 24 23  2  0  0  0  0
 25  6  1  0  0  0  0
 26 25  1  0  0  0  0
 27 23  1  0  0  0  0
 28 29  1  0  0  0  0
 28 27  2  0  0  0  0
 30 32  1  0  0  0  0
 30 28  1  0  0  0  0
 31 30  1  0  0  0  0
 32 34  2  0  0  0  0
 33 32  1  0  0  0  0
 34 27  1  0  0  0  0
M  END
>  <minimizedAffinity>
-5.7314744

$$$$

 OpenBabel03252502293D

 34 36  0  0  0  0  0  0  0  0999 V2000
   40.8620   28.4640   42.9510 C   0  0  0  0  0  0  0  0  0  0  0  0
   41.7750   27.6290   43.5930 C   0  0  0  0  0  0  0  0  0  0  0  0
   43.1040   28.0450   43.6800 C   0  0  0  0  0  0  0  0  0  0  0  0
   43.4790   29.2560   43.1350 C   0  0  0  0  0  0  0  0  0  0  0  0
   42.5880   30.0870   42.5000 C   0  0  0  0  0  0  0  0  0  0  0  0
   41.2660   29.6480   42.4270 C   0  0  0  0  0  0  0  0  0  0  0  0
   41.4790   26.6790   44.0200 H   0  0  0  0  0  0  0  0  0  0  0  0
   43.8630   27.4530   44.1610 H   0  0  0  0  0  0  0  0  0  0  0  0
   44.4930   29.6440   43.1640 H   0  0  0  0  0  0  0  0  0  0  0  0
   42.7800   31.0410   42.0470 H   0  0  0  0  0  0  0  0  0  0  0  0
   37.7660   26.4030   42.3670 C   0  0  0  0  0  0  0  0  0  0  0  0
   39.1240   26.7610   42.3580 C   0  0  0  0  0  0  0  0  0  0  0  0
   39.5020   27.9740   42.8960 C   0  0  0  0  0  0  0  0  0  0  0  0
   38.5130   28.7490   43.4070 N   0  0  0  0  0  0  0  0  0  0  0  0
   37.2100   28.4030   43.4140 C   0  0  0  0  0  0  0  0  0  0  0  0
   36.8230   27.2180   42.8910 N   0  0  0  0  0  0  0  0  0  0  0  0
   39.8810   26.1250   41.9470 H   0  0  0  0  0  0  0  0  0  0  0  0
   36.4480   29.0490   43.8320 H   0  0  0  0  0  0  0  0  0  0  0  0
   37.3400   25.0980   41.7910 C   0  0  0  0  0  0  0  0  0  0  0  0
   36.7610   25.3630   40.5480 F   0  0  0  0  0  0  0  0  0  0  0  0
   36.3020   24.6380   42.5860 F   0  0  0  0  0  0  0  0  0  0  0  0
   38.3640   24.2060   41.6560 F   0  0  0  0  0  0  0  0  0  0  0  0
   39.8440   30.6180   40.4560 C   0  0  0  0  0  0  0  0  0  0  0  0
   40.3530   30.0910   39.4540 O   0  0  0  0  0  0  0  0  0  0  0  0
   40.2500   30.4040   41.8020 N   0  0  0  0  0  0  0  0  0  0  0  0
   39.7230   30.8880   42.5940 H   0  0  0  0  0  0  0  0  0  0  0  0
   38.7250   31.5410   40.2430 C   0  0  0  0  0  0  0  0  0  0  0  0
   37.4870   31.3510   40.7820 C   0  0  0  0  0  0  0  0  0  0  0  0
   37.1220   30.5360   41.4260 H   0  0  0  0  0  0  0  0  0  0  0  0
   36.6370   32.3370   40.4400 N   0  0  0  0  0  0  0  0  0  0  0  0
   35.6260   32.4590   40.7030 H   0  0  0  0  0  0  0  0  0  0  0  0
   37.3940   33.1490   39.6660 C   0  0  0  0  0  0  0  0  0  0  0  0
   36.9540   34.0610   39.2310 H   0  0  0  0  0  0  0  0  0  0  0  0
   38.6460   32.6860   39.5390 N   0  0  0  0  0  0  0  0  0  0  0  0
  1  2  1  0  0  0  0
  2  3  2  0  0  0  0
  2  7  1  0  0  0  0
  3  8  1  0  0  0  0
  4  9  1  0  0  0  0
  4  3  1  0  0  0  0
  5  4  2  0  0  0  0
  6  5  1  0  0  0  0
  6  1  2  0  0  0  0
 10  5  1  0  0  0  0
 11 16  1  0  0  0  0
 12 11  2  0  0  0  0
 12 13  1  0  0  0  0
 13  1  1  0  0  0  0
 13 14  2  0  0  0  0
 14 15  1  0  0  0  0
 15 18  1  0  0  0  0
 16 15  2  0  0  0  0
 17 12  1  0  0  0  0
 19 11  1  0  0  0  0
 19 21  1  0  0  0  0
 20 19  1  0  0  0  0
 22 19  1  0  0  0  0
 23 25  1  0  0  0  0
 24 23  2  0  0  0  0
 25  6  1  0  0  0  0
 25 26  1  0  0  0  0
 27 23  1  0  0  0  0
 27 28  2  0  0  0  0
 28 29  1  0  0  0  0
 30 31  1  0  0  0  0
 30 28  1  0  0  0  0
 32 30  1  0  0  0  0
 33 32  1  0  0  0  0
 34 32  2  0  0  0  0
 34 27  1  0  0  0  0
M  END
>  <minimizedAffinity>
-5.69085121

$$$$

 OpenBabel03252502293D

 34 36  0  0  0  0  0  0  0  0999 V2000
   37.5110   27.6100   41.5420 C   0  0  0  0  0  0  0  0  0  0  0  0
   37.5400   26.2830   41.9660 C   0  0  0  0  0  0  0  0  0  0  0  0
   38.4670   25.9200   42.9430 C   0  0  0  0  0  0  0  0  0  0  0  0
   39.3250   26.8700   43.4600 C   0  0  0  0  0  0  0  0  0  0  0  0
   39.3060   28.1810   43.0490 C   0  0  0  0  0  0  0  0  0  0  0  0
   38.3690   28.5180   42.0720 C   0  0  0  0  0  0  0  0  0  0  0  0
   36.8660   25.5390   41.5590 H   0  0  0  0  0  0  0  0  0  0  0  0
   38.5460   24.9140   43.3180 H   0  0  0  0  0  0  0  0  0  0  0  0
   40.0710   26.6620   44.2210 H   0  0  0  0  0  0  0  0  0  0  0  0
   39.9270   28.9900   43.3870 H   0  0  0  0  0  0  0  0  0  0  0  0
   35.4380   27.6960   38.4010 C   0  0  0  0  0  0  0  0  0  0  0  0
   36.4450   27.3010   39.2980 C   0  0  0  0  0  0  0  0  0  0  0  0
   36.5270   27.9190   40.5280 C   0  0  0  0  0  0  0  0  0  0  0  0
   35.6100   28.8840   40.7890 N   0  0  0  0  0  0  0  0  0  0  0  0
   34.6440   29.2610   39.9260 C   0  0  0  0  0  0  0  0  0  0  0  0
   34.5500   28.6650   38.7160 N   0  0  0  0  0  0  0  0  0  0  0  0
   37.1530   26.5350   39.0610 H   0  0  0  0  0  0  0  0  0  0  0  0
   33.9280   30.0360   40.1700 H   0  0  0  0  0  0  0  0  0  0  0  0
   35.3340   27.0400   37.0680 C   0  0  0  0  0  0  0  0  0  0  0  0
   36.0590   27.8180   36.1650 F   0  0  0  0  0  0  0  0  0  0  0  0
   34.0110   27.1600   36.6740 F   0  0  0  0  0  0  0  0  0  0  0  0
   35.7930   25.7540   37.0610 F   0  0  0  0  0  0  0  0  0  0  0  0
   39.1470   30.7810   41.0110 C   0  0  0  0  0  0  0  0  0  0  0  0
   40.3620   30.6040   40.8270 O   0  0  0  0  0  0  0  0  0  0  0  0
   38.2440   29.8290   41.5610 N   0  0  0  0  0  0  0  0  0  0  0  0
   37.2100   30.0750   41.6500 H   0  0  0  0  0  0  0  0  0  0  0  0
   38.5840   32.0800   40.6300 C   0  0  0  0  0  0  0  0  0  0  0  0
   37.2980   32.2420   40.2090 C   0  0  0  0  0  0  0  0  0  0  0  0
   36.5020   31.4900   40.0830 H   0  0  0  0  0  0  0  0  0  0  0  0
   37.0240   33.5280   39.9190 N   0  0  0  0  0  0  0  0  0  0  0  0
   36.1260   33.9520   39.5750 H   0  0  0  0  0  0  0  0  0  0  0  0
   38.1930   34.1610   40.1780 C   0  0  0  0  0  0  0  0  0  0  0  0
   38.2710   35.2500   40.0280 H   0  0  0  0  0  0  0  0  0  0  0  0
   39.1350   33.3080   40.6040 N   0  0  0  0  0  0  0  0  0  0  0  0
  1  2  2  0  0  0  0
  1  6  1  0  0  0  0
  2  3  1  0  0  0  0
  3  8  1  0  0  0  0
  3  4  2  0  0  0  0
  4  9  1  0  0  0  0
  5 10  1  0  0  0  0
  5  4  1  0  0  0  0
  6  5  2  0  0  0  0
  7  2  1  0  0  0  0
 11 16  2  0  0  0  0
 11 12  1  0  0  0  0
 12 13  2  0  0  0  0
 13 14  1  0  0  0  0
 13  1  1  0  0  0  0
 15 18  1  0  0  0  0
 15 14  2  0  0  0  0
 16 15  1  0  0  0  0
 17 12  1  0  0  0  0
 19 11  1  0  0  0  0
 20 19  1  0  0  0  0
 21 19  1  0  0  0  0
 22 19  1  0  0  0  0
 23 25  1  0  0  0  0
 24 23  2  0  0  0  0
 25 26  1  0  0  0  0
 25  6  1  0  0  0  0
 27 23  1  0  0  0  0
 28 27  2  0  0  0  0
 29 28  1  0  0  0  0
 30 32  1  0  0  0  0
 30 28  1  0  0  0  0
 31 30  1  0  0  0  0
 32 34  2  0  0  0  0
 33 32  1  0  0  0  0
 34 27  1  0  0  0  0
M  END
>  <minimizedAffinity>
-5.61686516

$$$$

 OpenBabel03252502293D

 34 36  0  0  0  0  0  0  0  0999 V2000
   37.1140   27.5840   40.6800 C   0  0  0  0  0  0  0  0  0  0  0  0
   36.9590   26.2250   40.9510 C   0  0  0  0  0  0  0  0  0  0  0  0
   37.3710   25.7470   42.1940 C   0  0  0  0  0  0  0  0  0  0  0  0
   37.9170   26.6180   43.1160 C   0  0  0  0  0  0  0  0  0  0  0  0
   38.0750   27.9580   42.8600 C   0  0  0  0  0  0  0  0  0  0  0  0
   37.6550   28.4110   41.6100 C   0  0  0  0  0  0  0  0  0  0  0  0
   36.5310   25.5440   40.2260 H   0  0  0  0  0  0  0  0  0  0  0  0
   37.2810   24.7110   42.4730 H   0  0  0  0  0  0  0  0  0  0  0  0
   38.2590   26.3180   44.1020 H   0  0  0  0  0  0  0  0  0  0  0  0
   38.4860   28.7110   43.5070 H   0  0  0  0  0  0  0  0  0  0  0  0
   35.0460   28.5380   37.6830 C   0  0  0  0  0  0  0  0  0  0  0  0
   35.3460   28.1060   38.9850 C   0  0  0  0  0  0  0  0  0  0  0  0
   36.6670   28.0140   39.3730 C   0  0  0  0  0  0  0  0  0  0  0  0
   37.6000   28.3550   38.4500 N   0  0  0  0  0  0  0  0  0  0  0  0
   37.3080   28.7700   37.2000 C   0  0  0  0  0  0  0  0  0  0  0  0
   36.0200   28.8660   36.8040 N   0  0  0  0  0  0  0  0  0  0  0  0
   34.5850   27.8440   39.6910 H   0  0  0  0  0  0  0  0  0  0  0  0
   38.0810   29.0350   36.4890 H   0  0  0  0  0  0  0  0  0  0  0  0
   33.6260   28.6440   37.2460 C   0  0  0  0  0  0  0  0  0  0  0  0
   32.8890   29.1030   38.3390 F   0  0  0  0  0  0  0  0  0  0  0  0
   33.1860   27.3490   37.0270 F   0  0  0  0  0  0  0  0  0  0  0  0
   33.4500   29.4720   36.1750 F   0  0  0  0  0  0  0  0  0  0  0  0
   38.8420   30.6550   40.9760 C   0  0  0  0  0  0  0  0  0  0  0  0
   40.0470   30.3670   41.0430 O   0  0  0  0  0  0  0  0  0  0  0  0
   37.7600   29.7640   41.2190 N   0  0  0  0  0  0  0  0  0  0  0  0
   36.7570   30.1100   41.1050 H   0  0  0  0  0  0  0  0  0  0  0  0
   38.4920   32.0330   40.6140 C   0  0  0  0  0  0  0  0  0  0  0  0
   37.2620   32.3940   40.1500 C   0  0  0  0  0  0  0  0  0  0  0  0
   36.3710   31.7720   39.9720 H   0  0  0  0  0  0  0  0  0  0  0  0
   37.1930   33.7130   39.8900 N   0  0  0  0  0  0  0  0  0  0  0  0
   36.3820   34.2740   39.5250 H   0  0  0  0  0  0  0  0  0  0  0  0
   38.4300   34.1590   40.2110 C   0  0  0  0  0  0  0  0  0  0  0  0
   38.6740   35.2280   40.0970 H   0  0  0  0  0  0  0  0  0  0  0  0
   39.2180   33.1650   40.6450 N   0  0  0  0  0  0  0  0  0  0  0  0
  1  2  2  0  0  0  0
  1  6  1  0  0  0  0
  2  3  1  0  0  0  0
  3  8  1  0  0  0  0
  3  4  2  0  0  0  0
  4  9  1  0  0  0  0
  5  4  1  0  0  0  0
  5 10  1  0  0  0  0
  6  5  2  0  0  0  0
  7  2  1  0  0  0  0
 11 12  1  0  0  0  0
 12 13  2  0  0  0  0
 12 17  1  0  0  0  0
 13  1  1  0  0  0  0
 14 13  1  0  0  0  0
 15 14  2  0  0  0  0
 16 15  1  0  0  0  0
 16 11  2  0  0  0  0
 18 15  1  0  0  0  0
 19 11  1  0  0  0  0
 19 20  1  0  0  0  0
 21 19  1  0  0  0  0
 22 19  1  0  0  0  0
 23 24  2  0  0  0  0
 23 25  1  0  0  0  0
 25  6  1  0  0  0  0
 26 25  1  0  0  0  0
 27 34  1  0  0  0  0
 27 23  1  0  0  0  0
 28 27  2  0  0  0  0
 29 28  1  0  0  0  0
 30 28  1  0  0  0  0
 30 32  1  0  0  0  0
 31 30  1  0  0  0  0
 32 34  2  0  0  0  0
 33 32  1  0  0  0  0
M  END
>  <minimizedAffinity>
-5.61649752

$$$$

 OpenBabel03252502293D

 34 36  0  0  0  0  0  0  0  0999 V2000
   35.4190   29.1060   38.3860 C   0  0  0  0  0  0  0  0  0  0  0  0
   34.0800   28.7250   38.3050 C   0  0  0  0  0  0  0  0  0  0  0  0
   33.5040   28.5970   37.0410 C   0  0  0  0  0  0  0  0  0  0  0  0
   34.2620   28.8460   35.9140 C   0  0  0  0  0  0  0  0  0  0  0  0
   35.5810   29.2220   35.9820 C   0  0  0  0  0  0  0  0  0  0  0  0
   36.1340   29.3430   37.2570 C   0  0  0  0  0  0  0  0  0  0  0  0
   33.4870   28.5300   39.1900 H   0  0  0  0  0  0  0  0  0  0  0  0
   32.4770   28.3060   36.9020 H   0  0  0  0  0  0  0  0  0  0  0  0
   33.8820   28.7660   34.9000 H   0  0  0  0  0  0  0  0  0  0  0  0
   36.2510   29.4370   35.1700 H   0  0  0  0  0  0  0  0  0  0  0  0
   36.7160   28.4060   41.8500 C   0  0  0  0  0  0  0  0  0  0  0  0
   36.1930   28.1570   40.5700 C   0  0  0  0  0  0  0  0  0  0  0  0
   35.9530   29.2200   39.7250 C   0  0  0  0  0  0  0  0  0  0  0  0
   36.2470   30.4570   40.2010 N   0  0  0  0  0  0  0  0  0  0  0  0
   36.7490   30.6930   41.4300 C   0  0  0  0  0  0  0  0  0  0  0  0
   36.9900   29.6620   42.2700 N   0  0  0  0  0  0  0  0  0  0  0  0
   35.9730   27.1680   40.2240 H   0  0  0  0  0  0  0  0  0  0  0  0
   36.9710   31.6950   41.7750 H   0  0  0  0  0  0  0  0  0  0  0  0
   36.9820   27.2710   42.7750 C   0  0  0  0  0  0  0  0  0  0  0  0
   36.8580   26.0940   42.0350 F   0  0  0  0  0  0  0  0  0  0  0  0
   35.9310   27.2460   43.6780 F   0  0  0  0  0  0  0  0  0  0  0  0
   38.2110   27.3310   43.3670 F   0  0  0  0  0  0  0  0  0  0  0  0
   38.1910   30.9510   37.4220 C   0  0  0  0  0  0  0  0  0  0  0  0
   37.7000   32.0650   37.1850 O   0  0  0  0  0  0  0  0  0  0  0  0
   37.4780   29.7210   37.4690 N   0  0  0  0  0  0  0  0  0  0  0  0
   37.9960   28.8210   37.7110 H   0  0  0  0  0  0  0  0  0  0  0  0
   39.6340   30.8860   37.6790 C   0  0  0  0  0  0  0  0  0  0  0  0
   40.4420   31.9840   37.6810 C   0  0  0  0  0  0  0  0  0  0  0  0
   40.1880   33.0400   37.5030 H   0  0  0  0  0  0  0  0  0  0  0  0
   41.7230   31.6610   37.9430 N   0  0  0  0  0  0  0  0  0  0  0  0
   42.5630   32.2900   38.0080 H   0  0  0  0  0  0  0  0  0  0  0  0
   41.6800   30.3180   38.1050 C   0  0  0  0  0  0  0  0  0  0  0  0
   42.6030   29.7630   38.3340 H   0  0  0  0  0  0  0  0  0  0  0  0
   40.4360   29.8400   37.9510 N   0  0  0  0  0  0  0  0  0  0  0  0
  1 13  1  0  0  0  0
  2  1  1  0  0  0  0
  2  7  1  0  0  0  0
  3  2  2  0  0  0  0
  4  5  2  0  0  0  0
  4  3  1  0  0  0  0
  5  6  1  0  0  0  0
  6 25  1  0  0  0  0
  6  1  2  0  0  0  0
  8  3  1  0  0  0  0
  9  4  1  0  0  0  0
 10  5  1  0  0  0  0
 11 16  1  0  0  0  0
 11 19  1  0  0  0  0
 12 11  2  0  0  0  0
 13 14  2  0  0  0  0
 13 12  1  0  0  0  0
 14 15  1  0  0  0  0
 15 18  1  0  0  0  0
 15 16  2  0  0  0  0
 17 12  1  0  0  0  0
 19 22  1  0  0  0  0
 19 21  1  0  0  0  0
 20 19  1  0  0  0  0
 23 25  1  0  0  0  0
 23 27  1  0  0  0  0
 24 23  2  0  0  0  0
 25 26  1  0  0  0  0
 27 28  2  0  0  0  0
 27 34  1  0  0  0  0
 28 30  1  0  0  0  0
 29 28  1  0  0  0  0
 30 31  1  0  0  0  0
 30 32  1  0  0  0  0
 32 33  1  0  0  0  0
 34 32  2  0  0  0  0
M  END
>  <minimizedAffinity>
-5.61009932

$$$$

 OpenBabel03252502293D

 34 36  0  0  0  0  0  0  0  0999 V2000
   36.1580   27.8700   38.5940 C   0  0  0  0  0  0  0  0  0  0  0  0
   35.5390   26.7010   38.1510 C   0  0  0  0  0  0  0  0  0  0  0  0
   34.4250   26.8180   37.3210 C   0  0  0  0  0  0  0  0  0  0  0  0
   33.9660   28.0690   36.9610 C   0  0  0  0  0  0  0  0  0  0  0  0
   34.5670   29.2260   37.3910 C   0  0  0  0  0  0  0  0  0  0  0  0
   35.6800   29.0830   38.2210 C   0  0  0  0  0  0  0  0  0  0  0  0
   35.9010   25.7210   38.4350 H   0  0  0  0  0  0  0  0  0  0  0  0
   33.8970   25.9600   36.9400 H   0  0  0  0  0  0  0  0  0  0  0  0
   33.1060   28.2360   36.3190 H   0  0  0  0  0  0  0  0  0  0  0  0
   34.2880   30.2400   37.1690 H   0  0  0  0  0  0  0  0  0  0  0  0
   38.4400   27.1450   41.4990 C   0  0  0  0  0  0  0  0  0  0  0  0
   37.2460   27.2950   40.7750 C   0  0  0  0  0  0  0  0  0  0  0  0
   37.3070   27.6790   39.4520 C   0  0  0  0  0  0  0  0  0  0  0  0
   38.5440   27.8870   38.9330 N   0  0  0  0  0  0  0  0  0  0  0  0
   39.6890   27.7420   39.6310 C   0  0  0  0  0  0  0  0  0  0  0  0
   39.6460   27.3670   40.9290 N   0  0  0  0  0  0  0  0  0  0  0  0
   36.2850   27.1220   41.2140 H   0  0  0  0  0  0  0  0  0  0  0  0
   40.6590   27.9170   39.1820 H   0  0  0  0  0  0  0  0  0  0  0  0
   38.3930   26.7310   42.9290 C   0  0  0  0  0  0  0  0  0  0  0  0
   37.0490   26.5960   43.2770 F   0  0  0  0  0  0  0  0  0  0  0  0
   38.8540   27.8110   43.6650 F   0  0  0  0  0  0  0  0  0  0  0  0
   39.0660   25.5700   43.1780 F   0  0  0  0  0  0  0  0  0  0  0  0
   36.4310   30.8630   39.9860 C   0  0  0  0  0  0  0  0  0  0  0  0
   35.7880   30.5450   40.9990 O   0  0  0  0  0  0  0  0  0  0  0  0
   36.3910   30.1910   38.7330 N   0  0  0  0  0  0  0  0  0  0  0  0
   37.0080   30.5320   37.9330 H   0  0  0  0  0  0  0  0  0  0  0  0
   37.3110   32.0310   40.0790 C   0  0  0  0  0  0  0  0  0  0  0  0
   37.1700   33.1380   39.2940 C   0  0  0  0  0  0  0  0  0  0  0  0
   36.4300   33.3460   38.5060 H   0  0  0  0  0  0  0  0  0  0  0  0
   38.1000   34.0700   39.5730 N   0  0  0  0  0  0  0  0  0  0  0  0
   38.2410   35.0160   39.1360 H   0  0  0  0  0  0  0  0  0  0  0  0
   38.8260   33.5010   40.5640 C   0  0  0  0  0  0  0  0  0  0  0  0
   39.6780   34.0460   41.0020 H   0  0  0  0  0  0  0  0  0  0  0  0
   38.3660   32.2810   40.8770 N   0  0  0  0  0  0  0  0  0  0  0  0
  1 13  1  0  0  0  0
  2  7  1  0  0  0  0
  2  1  2  0  0  0  0
  3  2  1  0  0  0  0
  4  3  2  0  0  0  0
  4  5  1  0  0  0  0
  5  6  2  0  0  0  0
  6  1  1  0  0  0  0
  6 25  1  0  0  0  0
  8  3  1  0  0  0  0
  9  4  1  0  0  0  0
 10  5  1  0  0  0  0
 11 19  1  0  0  0  0
 12 17  1  0  0  0  0
 12 11  2  0  0  0  0
 13 12  1  0  0  0  0
 14 13  2  0  0  0  0
 14 15  1  0  0  0  0
 15 16  2  0  0  0  0
 16 11  1  0  0  0  0
 18 15  1  0  0  0  0
 19 22  1  0  0  0  0
 19 20  1  0  0  0  0
 19 21  1  0  0  0  0
 23 27  1  0  0  0  0
 23 24  2  0  0  0  0
 25 23  1  0  0  0  0
 26 25  1  0  0  0  0
 27 34  1  0  0  0  0
 28 30  1  0  0  0  0
 28 27  2  0  0  0  0
 29 28  1  0  0  0  0
 30 32  1  0  0  0  0
 31 30  1  0  0  0  0
 32 34  2  0  0  0  0
 32 33  1  0  0  0  0
M  END
>  <minimizedAffinity>
-5.58690071

$$$$

 OpenBabel03252502293D

 34 36  0  0  0  0  0  0  0  0999 V2000
   37.7370   29.5000   41.6940 C   0  0  0  0  0  0  0  0  0  0  0  0
   38.0170   29.3140   43.0480 C   0  0  0  0  0  0  0  0  0  0  0  0
   37.5920   28.1320   43.6540 C   0  0  0  0  0  0  0  0  0  0  0  0
   36.9130   27.1870   42.9120 C   0  0  0  0  0  0  0  0  0  0  0  0
   36.6320   27.3600   41.5780 C   0  0  0  0  0  0  0  0  0  0  0  0
   37.0670   28.5500   40.9950 C   0  0  0  0  0  0  0  0  0  0  0  0
   38.5500   30.0570   43.6280 H   0  0  0  0  0  0  0  0  0  0  0  0
   37.7740   27.9190   44.6940 H   0  0  0  0  0  0  0  0  0  0  0  0
   36.5530   26.2450   43.3150 H   0  0  0  0  0  0  0  0  0  0  0  0
   36.1130   26.6890   40.9190 H   0  0  0  0  0  0  0  0  0  0  0  0
   39.8520   32.3350   40.4050 C   0  0  0  0  0  0  0  0  0  0  0  0
   39.5310   31.0900   40.9720 C   0  0  0  0  0  0  0  0  0  0  0  0
   38.2050   30.7460   41.1280 C   0  0  0  0  0  0  0  0  0  0  0  0
   37.2860   31.6550   40.7150 N   0  0  0  0  0  0  0  0  0  0  0  0
   37.5970   32.8490   40.1720 C   0  0  0  0  0  0  0  0  0  0  0  0
   38.8920   33.2020   40.0110 N   0  0  0  0  0  0  0  0  0  0  0  0
   40.2820   30.3950   41.2870 H   0  0  0  0  0  0  0  0  0  0  0  0
   36.8350   33.5490   39.8520 H   0  0  0  0  0  0  0  0  0  0  0  0
   41.2780   32.7240   40.2290 C   0  0  0  0  0  0  0  0  0  0  0  0
   41.8150   32.9240   41.5010 F   0  0  0  0  0  0  0  0  0  0  0  0
   41.2740   33.9750   39.6330 F   0  0  0  0  0  0  0  0  0  0  0  0
   42.0110   31.7950   39.5470 F   0  0  0  0  0  0  0  0  0  0  0  0
   35.6900   29.0920   38.8380 C   0  0  0  0  0  0  0  0  0  0  0  0
   34.5180   29.1070   39.2460 O   0  0  0  0  0  0  0  0  0  0  0  0
   36.8440   28.8540   39.6340 N   0  0  0  0  0  0  0  0  0  0  0  0
   37.8110   28.8920   39.1860 H   0  0  0  0  0  0  0  0  0  0  0  0
   35.9150   29.3420   37.4100 C   0  0  0  0  0  0  0  0  0  0  0  0
   36.9740   30.0560   36.9350 C   0  0  0  0  0  0  0  0  0  0  0  0
   37.7950   30.5420   37.4860 H   0  0  0  0  0  0  0  0  0  0  0  0
   36.9560   30.1430   35.5920 N   0  0  0  0  0  0  0  0  0  0  0  0
   37.6350   30.6260   34.9510 H   0  0  0  0  0  0  0  0  0  0  0  0
   35.8420   29.4540   35.2490 C   0  0  0  0  0  0  0  0  0  0  0  0
   35.5640   29.3540   34.1880 H   0  0  0  0  0  0  0  0  0  0  0  0
   35.2090   28.9690   36.3270 N   0  0  0  0  0  0  0  0  0  0  0  0
  1  2  1  0  0  0  0
  2  7  1  0  0  0  0
  2  3  2  0  0  0  0
  3  8  1  0  0  0  0
  4  9  1  0  0  0  0
  4  3  1  0  0  0  0
  5  4  2  0  0  0  0
  6  5  1  0  0  0  0
  6  1  2  0  0  0  0
 10  5  1  0  0  0  0
 11 12  1  0  0  0  0
 12 13  2  0  0  0  0
 12 17  1  0  0  0  0
 13  1  1  0  0  0  0
 14 13  1  0  0  0  0
 15 14  2  0  0  0  0
 16 15  1  0  0  0  0
 16 11  2  0  0  0  0
 18 15  1  0  0  0  0
 19 11  1  0  0  0  0
 19 20  1  0  0  0  0
 21 19  1  0  0  0  0
 22 19  1  0  0  0  0
 23 24  2  0  0  0  0
 23 25  1  0  0  0  0
 25  6  1  0  0  0  0
 26 25  1  0  0  0  0
 27 23  1  0  0  0  0
 28 27  2  0  0  0  0
 28 29  1  0  0  0  0
 30 28  1  0  0  0  0
 31 30  1  0  0  0  0
 32 30  1  0  0  0  0
 32 34  2  0  0  0  0
 33 32  1  0  0  0  0
 34 27  1  0  0  0  0
M  END
>  <minimizedAffinity>
-5.57787848

$$$$

 OpenBabel03252502293D

 34 36  0  0  0  0  0  0  0  0999 V2000
   36.7760   28.6360   39.8380 C   0  0  0  0  0  0  0  0  0  0  0  0
   35.7090   27.9930   39.2110 C   0  0  0  0  0  0  0  0  0  0  0  0
   35.2240   28.5270   38.0170 C   0  0  0  0  0  0  0  0  0  0  0  0
   35.8040   29.6630   37.4890 C   0  0  0  0  0  0  0  0  0  0  0  0
   36.8550   30.3050   38.0980 C   0  0  0  0  0  0  0  0  0  0  0  0
   37.3210   29.7520   39.2900 C   0  0  0  0  0  0  0  0  0  0  0  0
   35.2560   27.1020   39.6270 H   0  0  0  0  0  0  0  0  0  0  0  0
   34.4040   28.0840   37.4780 H   0  0  0  0  0  0  0  0  0  0  0  0
   35.4800   30.1340   36.5650 H   0  0  0  0  0  0  0  0  0  0  0  0
   37.3700   31.1880   37.7700 H   0  0  0  0  0  0  0  0  0  0  0  0
   38.1800   26.3020   42.4360 C   0  0  0  0  0  0  0  0  0  0  0  0
   37.7780   26.7710   41.1740 C   0  0  0  0  0  0  0  0  0  0  0  0
   37.2290   28.0320   41.0710 C   0  0  0  0  0  0  0  0  0  0  0  0
   37.1140   28.7430   42.2210 N   0  0  0  0  0  0  0  0  0  0  0  0
   37.4990   28.2900   43.4310 C   0  0  0  0  0  0  0  0  0  0  0  0
   38.0400   27.0570   43.5490 N   0  0  0  0  0  0  0  0  0  0  0  0
   37.8850   26.1840   40.2850 H   0  0  0  0  0  0  0  0  0  0  0  0
   37.3920   28.8870   44.3270 H   0  0  0  0  0  0  0  0  0  0  0  0
   38.7750   24.9430   42.5660 C   0  0  0  0  0  0  0  0  0  0  0  0
   39.4900   24.6900   41.3950 F   0  0  0  0  0  0  0  0  0  0  0  0
   37.7180   24.0480   42.5490 F   0  0  0  0  0  0  0  0  0  0  0  0
   39.5870   24.8110   43.6550 F   0  0  0  0  0  0  0  0  0  0  0  0
   38.6390   31.5700   40.6340 C   0  0  0  0  0  0  0  0  0  0  0  0
   37.8430   32.5210   40.6800 O   0  0  0  0  0  0  0  0  0  0  0  0
   38.3950   30.3120   40.0170 N   0  0  0  0  0  0  0  0  0  0  0  0
   39.1400   29.5500   40.0610 H   0  0  0  0  0  0  0  0  0  0  0  0
   39.9480   31.7490   41.2710 C   0  0  0  0  0  0  0  0  0  0  0  0
   40.2600   31.2330   42.4940 C   0  0  0  0  0  0  0  0  0  0  0  0
   39.6400   30.6350   43.1800 H   0  0  0  0  0  0  0  0  0  0  0  0
   41.5210   31.5350   42.8570 N   0  0  0  0  0  0  0  0  0  0  0  0
   42.0360   31.2780   43.7360 H   0  0  0  0  0  0  0  0  0  0  0  0
   41.9820   32.2600   41.8100 C   0  0  0  0  0  0  0  0  0  0  0  0
   43.0110   32.6530   41.8260 H   0  0  0  0  0  0  0  0  0  0  0  0
   41.0520   32.3950   40.8540 N   0  0  0  0  0  0  0  0  0  0  0  0
  1 13  1  0  0  0  0
  2  7  1  0  0  0  0
  2  1  2  0  0  0  0
  3  2  1  0  0  0  0
  4  3  2  0  0  0  0
  4  5  1  0  0  0  0
  5  6  2  0  0  0  0
  6  1  1  0  0  0  0
  6 25  1  0  0  0  0
  8  3  1  0  0  0  0
  9  4  1  0  0  0  0
 10  5  1  0  0  0  0
 11 19  1  0  0  0  0
 11 16  1  0  0  0  0
 12 11  2  0  0  0  0
 13 12  1  0  0  0  0
 13 14  2  0  0  0  0
 14 15  1  0  0  0  0
 15 16  2  0  0  0  0
 15 18  1  0  0  0  0
 17 12  1  0  0  0  0
 19 22  1  0  0  0  0
 20 19  1  0  0  0  0
 21 19  1  0  0  0  0
 23 24  2  0  0  0  0
 23 27  1  0  0  0  0
 25 26  1  0  0  0  0
 25 23  1  0  0  0  0
 27 28  2  0  0  0  0
 28 30  1  0  0  0  0
 28 29  1  0  0  0  0
 30 31  1  0  0  0  0
 32 33  1  0  0  0  0
 32 30  1  0  0  0  0
 34 27  1  0  0  0  0
 34 32  2  0  0  0  0
M  END
>  <minimizedAffinity>
-5.57555437

$$$$
