
 OpenBabel03252508283D

 38 41  0  0  1  0  0  0  0  0999 V2000
   41.2410   33.2030   39.5710 N   0  0  0  0  0  0  0  0  0  0  0  0
   41.4570   32.8020   40.9640 C   0  0  2  0  0  0  0  0  0  0  0  0
   40.2960   33.1180   41.8350 C   0  0  0  0  0  0  0  0  0  0  0  0
   39.1180   33.4970   41.0770 N   0  0  0  0  0  0  0  0  0  0  0  0
   39.3370   34.5080   40.1050 C   0  0  0  0  0  0  0  0  0  0  0  0
   40.7760   34.6070   39.6660 C   0  0  2  0  0  0  0  0  0  0  0  0
   40.5630   32.6110   39.0750 H   0  0  0  0  0  0  0  0  0  0  0  0
   41.6390   31.7160   40.9650 H   0  0  0  0  0  0  0  0  0  0  0  0
   39.9760   32.2010   42.4140 H   0  0  0  0  0  0  0  0  0  0  0  0
   40.3920   33.9940   42.4990 H   0  0  0  0  0  0  0  0  0  0  0  0
   38.6820   32.6230   40.6940 H   0  0  0  0  0  0  0  0  0  0  0  0
   39.0540   35.5050   40.5000 H   0  0  0  0  0  0  0  0  0  0  0  0
   38.6840   34.3370   39.2190 H   0  0  0  0  0  0  0  0  0  0  0  0
   41.3560   35.0750   40.4690 H   0  0  0  0  0  0  0  0  0  0  0  0
   40.9210   35.3340   38.4050 C   0  0  0  0  0  0  0  0  0  0  0  0
   40.1010   35.4530   37.3240 C   0  0  0  0  0  0  0  0  0  0  0  0
   39.1330   34.9870   37.2320 H   0  0  0  0  0  0  0  0  0  0  0  0
   40.6520   36.2350   36.3770 N   0  0  0  0  0  0  0  0  0  0  0  0
   40.3090   36.5400   35.4310 H   0  0  0  0  0  0  0  0  0  0  0  0
   41.8360   36.6170   36.8570 C   0  0  0  0  0  0  0  0  0  0  0  0
   42.5940   37.2600   36.3920 H   0  0  0  0  0  0  0  0  0  0  0  0
   42.0140   36.0840   38.0770 N   0  0  0  0  0  0  0  0  0  0  0  0
   44.6670   34.0450   42.0430 C   0  0  0  0  0  0  0  0  0  0  0  0
   43.7940   35.1160   42.2690 C   0  0  0  0  0  0  0  0  0  0  0  0
   42.5090   34.7630   41.8990 C   0  0  0  0  0  0  0  0  0  0  0  0
   42.6230   33.5110   41.4610 N   0  0  0  0  0  0  0  0  0  0  0  0
   43.8800   33.0920   41.5450 N   0  0  0  0  0  0  0  0  0  0  0  0
   44.2130   36.0410   42.6840 H   0  0  0  0  0  0  0  0  0  0  0  0
   41.8280   35.5880   42.0790 H   0  0  0  0  0  0  0  0  0  0  0  0
   48.3300   34.8770   42.2090 C   0  0  0  0  0  0  0  0  0  0  0  0
   46.9550   35.0020   41.8220 C   0  0  0  0  0  0  0  0  0  0  0  0
   46.1000   34.0570   42.3330 C   0  0  0  0  0  0  0  0  0  0  0  0
   46.5790   33.0860   43.1510 N   0  0  0  0  0  0  0  0  0  0  0  0
   47.8770   32.9870   43.5030 C   0  0  0  0  0  0  0  0  0  0  0  0
   48.7300   33.8900   43.0200 N   0  0  0  0  0  0  0  0  0  0  0  0
   48.9920   35.6300   41.7960 H   0  0  0  0  0  0  0  0  0  0  0  0
   46.5940   35.7730   41.1760 H   0  0  0  0  0  0  0  0  0  0  0  0
   48.1520   32.1800   44.1550 H   0  0  0  0  0  0  0  0  0  0  0  0
  1  6  1  0  0  0  0
  1  2  1  0  0  0  0
  2  8  1  1  0  0  0
  2 26  1  0  0  0  0
  2  3  1  0  0  0  0
  3  9  1  0  0  0  0
  3 10  1  0  0  0  0
  4  3  1  0  0  0  0
  5 12  1  0  0  0  0
  5  4  1  0  0  0  0
  6  5  1  0  0  0  0
  6 14  1  1  0  0  0
  7  1  1  0  0  0  0
 11  4  1  0  0  0  0
 13  5  1  0  0  0  0
 15  6  1  0  0  0  0
 16 15  2  0  0  0  0
 17 16  1  0  0  0  0
 18 20  1  0  0  0  0
 18 16  1  0  0  0  0
 19 18  1  0  0  0  0
 20 22  2  0  0  0  0
 21 20  1  0  0  0  0
 22 15  1  0  0  0  0
 23 24  1  0  0  0  0
 23 32  1  0  0  0  0
 24 28  1  0  0  0  0
 25 29  1  0  0  0  0
 25 24  2  0  0  0  0
 26 27  1  0  0  0  0
 26 25  1  0  0  0  0
 27 23  2  0  0  0  0
 30 35  1  0  0  0  0
 31 30  2  0  0  0  0
 31 32  1  0  0  0  0
 32 33  2  0  0  0  0
 33 34  1  0  0  0  0
 34 38  1  0  0  0  0
 35 34  2  0  0  0  0
 36 30  1  0  0  0  0
 37 31  1  0  0  0  0
M  END
>  <minimizedAffinity>
-4.5811944

>  <minimizedRMSD>
1.92507923

$$$$
