
 OpenBabel03252508283D

 38 41  0  0  1  0  0  0  0  0999 V2000
   42.0230   33.5020   39.5500 N   0  0  0  0  0  0  0  0  0  0  0  0
   42.2040   33.1180   40.9530 C   0  0  2  0  0  0  0  0  0  0  0  0
   41.0460   33.4990   41.8030 C   0  0  0  0  0  0  0  0  0  0  0  0
   39.8950   33.9130   41.0210 N   0  0  0  0  0  0  0  0  0  0  0  0
   40.1690   34.8960   40.0350 C   0  0  0  0  0  0  0  0  0  0  0  0
   41.6160   34.9260   39.6140 C   0  0  2  0  0  0  0  0  0  0  0  0
   41.3270   32.9300   39.0570 H   0  0  0  0  0  0  0  0  0  0  0  0
   42.3400   32.0260   40.9760 H   0  0  0  0  0  0  0  0  0  0  0  0
   40.6800   32.6080   42.3940 H   0  0  0  0  0  0  0  0  0  0  0  0
   41.1710   34.3830   42.4520 H   0  0  0  0  0  0  0  0  0  0  0  0
   39.4270   33.0510   40.6490 H   0  0  0  0  0  0  0  0  0  0  0  0
   39.9230   35.9100   40.4080 H   0  0  0  0  0  0  0  0  0  0  0  0
   39.5210   34.7360   39.1430 H   0  0  0  0  0  0  0  0  0  0  0  0
   42.2050   35.3840   40.4170 H   0  0  0  0  0  0  0  0  0  0  0  0
   41.8090   35.6230   38.3420 C   0  0  0  0  0  0  0  0  0  0  0  0
   42.8990   35.7650   37.5380 C   0  0  0  0  0  0  0  0  0  0  0  0
   43.8710   35.3460   37.7400 H   0  0  0  0  0  0  0  0  0  0  0  0
   42.6090   36.5000   36.4480 N   0  0  0  0  0  0  0  0  0  0  0  0
   43.1970   36.8060   35.6310 H   0  0  0  0  0  0  0  0  0  0  0  0
   41.3210   36.8310   36.5590 C   0  0  0  0  0  0  0  0  0  0  0  0
   40.7020   37.4260   35.8760 H   0  0  0  0  0  0  0  0  0  0  0  0
   40.8240   36.3100   37.6910 N   0  0  0  0  0  0  0  0  0  0  0  0
   45.4680   34.3150   41.9170 C   0  0  0  0  0  0  0  0  0  0  0  0
   44.5890   35.2800   42.4220 C   0  0  0  0  0  0  0  0  0  0  0  0
   43.2840   34.9320   42.1230 C   0  0  0  0  0  0  0  0  0  0  0  0
   43.3920   33.7870   41.4530 N   0  0  0  0  0  0  0  0  0  0  0  0
   44.6640   33.4260   41.3320 N   0  0  0  0  0  0  0  0  0  0  0  0
   45.0190   36.1360   42.9560 H   0  0  0  0  0  0  0  0  0  0  0  0
   42.5990   35.6740   42.5200 H   0  0  0  0  0  0  0  0  0  0  0  0
   49.0950   35.3040   41.8880 C   0  0  0  0  0  0  0  0  0  0  0  0
   47.6830   35.4260   41.6730 C   0  0  0  0  0  0  0  0  0  0  0  0
   46.9220   34.3500   42.0590 C   0  0  0  0  0  0  0  0  0  0  0  0
   47.5230   33.2620   42.6050 N   0  0  0  0  0  0  0  0  0  0  0  0
   48.8530   33.1680   42.7980 C   0  0  0  0  0  0  0  0  0  0  0  0
   49.6160   34.1980   42.4320 N   0  0  0  0  0  0  0  0  0  0  0  0
   49.6810   36.1620   41.5770 H   0  0  0  0  0  0  0  0  0  0  0  0
   47.2260   36.2900   41.2410 H   0  0  0  0  0  0  0  0  0  0  0  0
   49.2270   32.2630   43.2380 H   0  0  0  0  0  0  0  0  0  0  0  0
  1  6  1  0  0  0  0
  1  2  1  0  0  0  0
  2  8  1  1  0  0  0
  2 26  1  0  0  0  0
  2  3  1  0  0  0  0
  3  9  1  0  0  0  0
  3 10  1  0  0  0  0
  4  3  1  0  0  0  0
  5 12  1  0  0  0  0
  5  4  1  0  0  0  0
  6  5  1  0  0  0  0
  6 14  1  1  0  0  0
  7  1  1  0  0  0  0
 11  4  1  0  0  0  0
 13  5  1  0  0  0  0
 15  6  1  0  0  0  0
 16 17  1  0  0  0  0
 16 15  2  0  0  0  0
 18 20  1  0  0  0  0
 18 16  1  0  0  0  0
 19 18  1  0  0  0  0
 20 22  2  0  0  0  0
 21 20  1  0  0  0  0
 22 15  1  0  0  0  0
 23 32  1  0  0  0  0
 23 24  1  0  0  0  0
 24 28  1  0  0  0  0
 25 24  2  0  0  0  0
 25 29  1  0  0  0  0
 26 25  1  0  0  0  0
 27 26  1  0  0  0  0
 27 23  2  0  0  0  0
 30 35  1  0  0  0  0
 31 30  2  0  0  0  0
 31 32  1  0  0  0  0
 32 33  2  0  0  0  0
 33 34  1  0  0  0  0
 34 38  1  0  0  0  0
 35 34  2  0  0  0  0
 36 30  1  0  0  0  0
 37 31  1  0  0  0  0
M  END
>  <minimizedAffinity>
-4.28173542

>  <minimizedRMSD>
1.25505602

$$$$
