
 OpenBabel03242511353D

 34 36  0  0  1  0  0  0  0  0999 V2000
   37.6200   27.8380   42.7920 C   0  0  0  0  0  3  0  0  0  0  0  0
   38.9280   27.6020   42.7870 C   0  0  0  0  0  3  0  0  0  0  0  0
   37.0880   28.8320   41.8890 C   0  0  0  0  0  0  0  0  0  0  0  0
   35.8940   28.5270   41.2280 C   0  0  0  0  0  0  0  0  0  0  0  0
   35.3530   29.4830   40.3380 C   0  0  0  0  0  0  0  0  0  0  0  0
   36.0210   30.6660   40.1610 N   0  0  0  0  0  0  0  0  0  0  0  0
   37.1810   30.9090   40.8320 C   0  0  0  0  0  0  0  0  0  0  0  0
   37.6620   29.9970   41.6580 N   0  0  0  0  0  0  0  0  0  0  0  0
   35.3970   27.5870   41.3930 H   0  0  0  0  0  0  0  0  0  0  0  0
   34.4460   29.2990   39.8120 H   0  0  0  0  0  0  0  0  0  0  0  0
   37.8370   32.1910   40.5940 C   0  0  0  0  0  0  0  0  0  0  0  0
   37.2480   33.0260   39.6480 C   0  0  0  0  0  0  0  0  0  0  0  0
   36.3780   32.9380   39.0240 H   0  0  0  0  0  0  0  0  0  0  0  0
   37.9970   34.1580   39.5690 N   0  0  0  0  0  0  0  0  0  0  0  0
   37.8720   35.0160   38.9710 H   0  0  0  0  0  0  0  0  0  0  0  0
   39.0230   34.0330   40.4400 C   0  0  0  0  0  0  0  0  0  0  0  0
   39.8020   34.7650   40.6180 H   0  0  0  0  0  0  0  0  0  0  0  0
   38.9250   32.8330   41.0650 N   0  0  0  0  0  0  0  0  0  0  0  0
   39.5690   26.6080   43.6690 C   0  0  0  0  0  0  0  0  0  0  0  0
   40.4620   26.9760   44.1940 H   0  0  0  0  0  0  0  0  0  0  0  0
   38.7970   26.2860   44.4240 H   0  0  0  0  0  0  0  0  0  0  0  0
   39.5760   24.3750   40.8260 C   0  0  1  0  0  0  0  0  0  0  0  0
   40.2570   25.5750   41.4890 C   0  0  0  0  0  0  0  0  0  0  0  0
   39.9290   25.3270   42.9160 C   0  0  2  0  0  0  0  0  0  0  0  0
   38.9370   24.3870   42.9990 O   0  0  0  0  0  0  0  0  0  0  0  0
   38.3860   24.2010   41.7490 C   0  0  0  0  0  0  0  0  0  0  0  0
   40.2660   23.5240   40.8590 H   0  0  0  0  0  0  0  0  0  0  0  0
   41.3540   25.5270   41.2630 H   0  0  0  0  0  0  0  0  0  0  0  0
   39.8520   26.5030   41.0610 H   0  0  0  0  0  0  0  0  0  0  0  0
   40.8690   24.9530   43.4160 H   0  0  0  0  0  0  0  0  0  0  0  0
   37.6700   25.0140   41.5290 H   0  0  0  0  0  0  0  0  0  0  0  0
   37.8950   23.2340   41.6410 H   0  0  0  0  0  0  0  0  0  0  0  0
   39.1670   24.7230   39.5300 O   0  0  0  0  0  0  0  0  0  0  0  0
   39.9130   24.4070   38.9340 H   0  0  0  0  0  0  0  0  0  0  0  0
  2  1  2  0  0  0  0
  2 19  1  0  0  0  0
  3  1  1  0  0  0  0
  4  9  1  0  0  0  0
  4  3  2  0  0  0  0
  5  4  1  0  0  0  0
  6  5  2  0  0  0  0
  6  7  1  0  0  0  0
  7  8  2  0  0  0  0
  8  3  1  0  0  0  0
 10  5  1  0  0  0  0
 11  7  1  0  0  0  0
 11 18  1  0  0  0  0
 12 11  2  0  0  0  0
 13 12  1  0  0  0  0
 14 12  1  0  0  0  0
 14 16  1  0  0  0  0
 15 14  1  0  0  0  0
 16 17  1  0  0  0  0
 16 18  2  0  0  0  0
 19 20  1  0  0  0  0
 19 21  1  0  0  0  0
 22 27  1  6  0  0  0
 22 23  1  0  0  0  0
 22 26  1  0  0  0  0
 23 24  1  0  0  0  0
 24 25  1  0  0  0  0
 24 30  1  1  0  0  0
 24 19  1  0  0  0  0
 26 25  1  0  0  0  0
 28 23  1  0  0  0  0
 29 23  1  0  0  0  0
 31 26  1  0  0  0  0
 32 26  1  0  0  0  0
 33 22  1  0  0  0  0
 34 33  1  0  0  0  0
M  END
>  <minimizedAffinity>
-5.24624825

$$$$

 OpenBabel03242511353D

 34 36  0  0  1  0  0  0  0  0999 V2000
   38.1910   30.8020   38.5550 C   0  0  0  0  0  3  0  0  0  0  0  0
   36.8650   30.7810   38.6540 C   0  0  0  0  0  3  0  0  0  0  0  0
   38.9080   31.9560   39.0460 C   0  0  0  0  0  0  0  0  0  0  0  0
   38.2450   32.7850   39.9560 C   0  0  0  0  0  0  0  0  0  0  0  0
   38.9250   33.9220   40.4510 C   0  0  0  0  0  0  0  0  0  0  0  0
   40.2030   34.1610   40.0180 N   0  0  0  0  0  0  0  0  0  0  0  0
   40.7990   33.3190   39.1300 C   0  0  0  0  0  0  0  0  0  0  0  0
   40.1390   32.2640   38.6850 N   0  0  0  0  0  0  0  0  0  0  0  0
   37.2410   32.5640   40.2730 H   0  0  0  0  0  0  0  0  0  0  0  0
   38.4640   34.5830   41.1460 H   0  0  0  0  0  0  0  0  0  0  0  0
   42.1610   33.6370   38.7140 C   0  0  0  0  0  0  0  0  0  0  0  0
   42.3540   33.8870   37.3570 C   0  0  0  0  0  0  0  0  0  0  0  0
   41.6980   33.8990   36.5070 H   0  0  0  0  0  0  0  0  0  0  0  0
   43.6740   34.1610   37.1700 N   0  0  0  0  0  0  0  0  0  0  0  0
   44.2000   34.3980   36.2890 H   0  0  0  0  0  0  0  0  0  0  0  0
   44.2840   34.0850   38.3730 C   0  0  0  0  0  0  0  0  0  0  0  0
   45.3370   34.2500   38.5660 H   0  0  0  0  0  0  0  0  0  0  0  0
   43.3610   33.7660   39.3150 N   0  0  0  0  0  0  0  0  0  0  0  0
   36.0420   29.6510   38.1830 C   0  0  0  0  0  0  0  0  0  0  0  0
   35.1390   29.9460   37.6300 H   0  0  0  0  0  0  0  0  0  0  0  0
   36.6960   29.0160   37.5210 H   0  0  0  0  0  0  0  0  0  0  0  0
   36.1600   28.3920   41.5700 C   0  0  1  0  0  0  0  0  0  0  0  0
   35.5420   29.4320   40.6320 C   0  0  0  0  0  0  0  0  0  0  0  0
   35.6390   28.7240   39.3300 C   0  0  2  0  0  0  0  0  0  0  0  0
   36.4910   27.6590   39.4530 O   0  0  0  0  0  0  0  0  0  0  0  0
   37.1830   27.7700   40.6400 C   0  0  0  0  0  0  0  0  0  0  0  0
   35.3770   27.6880   41.8710 H   0  0  0  0  0  0  0  0  0  0  0  0
   34.4890   29.6240   40.9640 H   0  0  0  0  0  0  0  0  0  0  0  0
   36.1100   30.3700   40.7070 H   0  0  0  0  0  0  0  0  0  0  0  0
   34.6010   28.3690   39.0640 H   0  0  0  0  0  0  0  0  0  0  0  0
   38.0140   28.4890   40.5260 H   0  0  0  0  0  0  0  0  0  0  0  0
   37.5660   26.8140   40.9990 H   0  0  0  0  0  0  0  0  0  0  0  0
   36.7830   29.0420   42.6480 O   0  0  0  0  0  0  0  0  0  0  0  0
   36.0930   29.0370   43.3790 H   0  0  0  0  0  0  0  0  0  0  0  0
  1  2  2  0  0  0  0
  1  3  1  0  0  0  0
  3  4  1  0  0  0  0
  4  9  1  0  0  0  0
  4  5  2  0  0  0  0
  5 10  1  0  0  0  0
  6  5  1  0  0  0  0
  7  6  2  0  0  0  0
  8  3  2  0  0  0  0
  8  7  1  0  0  0  0
 11  7  1  0  0  0  0
 11 18  1  0  0  0  0
 12 11  2  0  0  0  0
 13 12  1  0  0  0  0
 14 12  1  0  0  0  0
 14 16  1  0  0  0  0
 15 14  1  0  0  0  0
 16 17  1  0  0  0  0
 16 18  2  0  0  0  0
 19  2  1  0  0  0  0
 19 24  1  0  0  0  0
 20 19  1  0  0  0  0
 21 19  1  0  0  0  0
 22 27  1  1  0  0  0
 22 33  1  0  0  0  0
 23 29  1  0  0  0  0
 23 28  1  0  0  0  0
 23 22  1  0  0  0  0
 24 30  1  6  0  0  0
 24 25  1  0  0  0  0
 24 23  1  0  0  0  0
 25 26  1  0  0  0  0
 26 32  1  0  0  0  0
 26 22  1  0  0  0  0
 31 26  1  0  0  0  0
 33 34  1  0  0  0  0
M  END
>  <minimizedAffinity>
-5.17649984

$$$$

 OpenBabel03242511353D

 34 36  0  0  1  0  0  0  0  0999 V2000
   34.6900   29.1040   39.5890 C   0  0  0  0  0  3  0  0  0  0  0  0
   34.8100   29.1270   38.2650 C   0  0  0  0  0  3  0  0  0  0  0  0
   35.8250   29.4870   40.3980 C   0  0  0  0  0  0  0  0  0  0  0  0
   36.1550   28.6590   41.4750 C   0  0  0  0  0  0  0  0  0  0  0  0
   37.2600   29.0120   42.2820 C   0  0  0  0  0  0  0  0  0  0  0  0
   37.9600   30.1490   41.9750 N   0  0  0  0  0  0  0  0  0  0  0  0
   37.5930   30.9180   40.9130 C   0  0  0  0  0  0  0  0  0  0  0  0
   36.5560   30.5620   40.1760 N   0  0  0  0  0  0  0  0  0  0  0  0
   35.5810   27.7730   41.6850 H   0  0  0  0  0  0  0  0  0  0  0  0
   37.5520   28.4140   43.1130 H   0  0  0  0  0  0  0  0  0  0  0  0
   38.3850   32.1140   40.6450 C   0  0  0  0  0  0  0  0  0  0  0  0
   37.7480   33.1390   39.9500 C   0  0  0  0  0  0  0  0  0  0  0  0
   36.7590   33.2550   39.5460 H   0  0  0  0  0  0  0  0  0  0  0  0
   38.6390   34.1560   39.8000 N   0  0  0  0  0  0  0  0  0  0  0  0
   38.5290   35.0930   39.3320 H   0  0  0  0  0  0  0  0  0  0  0  0
   39.7970   33.7760   40.3840 C   0  0  0  0  0  0  0  0  0  0  0  0
   40.7070   34.3630   40.4380 H   0  0  0  0  0  0  0  0  0  0  0  0
   39.6420   32.5310   40.9000 N   0  0  0  0  0  0  0  0  0  0  0  0
   33.7110   28.7560   37.3530 C   0  0  0  0  0  0  0  0  0  0  0  0
   32.9950   28.0360   37.7750 H   0  0  0  0  0  0  0  0  0  0  0  0
   33.1710   29.7050   37.0780 H   0  0  0  0  0  0  0  0  0  0  0  0
   36.1690   28.3090   34.7390 C   0  0  1  0  0  0  0  0  0  0  0  0
   35.6620   27.8060   36.0930 C   0  0  0  0  0  0  0  0  0  0  0  0
   34.2350   28.2110   36.0240 C   0  0  2  0  0  0  0  0  0  0  0  0
   34.0650   29.1060   35.0000 O   0  0  0  0  0  0  0  0  0  0  0  0
   35.3010   29.5410   34.5720 C   0  0  0  0  0  0  0  0  0  0  0  0
   35.9650   27.5410   33.9850 H   0  0  0  0  0  0  0  0  0  0  0  0
   35.8140   26.6960   36.1360 H   0  0  0  0  0  0  0  0  0  0  0  0
   36.2510   28.2710   36.8960 H   0  0  0  0  0  0  0  0  0  0  0  0
   33.6300   27.2780   35.8350 H   0  0  0  0  0  0  0  0  0  0  0  0
   35.6850   30.3180   35.2580 H   0  0  0  0  0  0  0  0  0  0  0  0
   35.2860   29.9210   33.5500 H   0  0  0  0  0  0  0  0  0  0  0  0
   37.5250   28.6550   34.8440 O   0  0  0  0  0  0  0  0  0  0  0  0
   38.0200   27.8380   34.5300 H   0  0  0  0  0  0  0  0  0  0  0  0
  1  3  1  0  0  0  0
  2  1  2  0  0  0  0
  3  4  1  0  0  0  0
  4  9  1  0  0  0  0
  4  5  2  0  0  0  0
  5 10  1  0  0  0  0
  6  5  1  0  0  0  0
  7  6  2  0  0  0  0
  8  3  2  0  0  0  0
  8  7  1  0  0  0  0
 11 18  1  0  0  0  0
 11  7  1  0  0  0  0
 12 11  2  0  0  0  0
 13 12  1  0  0  0  0
 14 12  1  0  0  0  0
 14 16  1  0  0  0  0
 15 14  1  0  0  0  0
 16 17  1  0  0  0  0
 16 18  2  0  0  0  0
 19 20  1  0  0  0  0
 19  2  1  0  0  0  0
 21 19  1  0  0  0  0
 22 27  1  6  0  0  0
 22 33  1  0  0  0  0
 22 23  1  0  0  0  0
 23 28  1  0  0  0  0
 23 29  1  0  0  0  0
 24 30  1  6  0  0  0
 24 23  1  0  0  0  0
 24 19  1  0  0  0  0
 25 24  1  0  0  0  0
 26 22  1  0  0  0  0
 26 25  1  0  0  0  0
 26 31  1  0  0  0  0
 32 26  1  0  0  0  0
 34 33  1  0  0  0  0
M  END
>  <minimizedAffinity>
-5.10575199

$$$$

 OpenBabel03242511353D

 34 36  0  0  1  0  0  0  0  0999 V2000
   35.1900   28.9430   40.2100 C   0  0  0  0  0  3  0  0  0  0  0  0
   35.3210   28.7330   38.9030 C   0  0  0  0  0  3  0  0  0  0  0  0
   36.3430   28.7690   41.0620 C   0  0  0  0  0  0  0  0  0  0  0  0
   36.9320   29.9230   41.5890 C   0  0  0  0  0  0  0  0  0  0  0  0
   38.0620   29.7810   42.4260 C   0  0  0  0  0  0  0  0  0  0  0  0
   38.5320   28.5200   42.6840 N   0  0  0  0  0  0  0  0  0  0  0  0
   37.9190   27.4320   42.1430 C   0  0  0  0  0  0  0  0  0  0  0  0
   36.8630   27.5960   41.3650 N   0  0  0  0  0  0  0  0  0  0  0  0
   36.5330   30.8980   41.3650 H   0  0  0  0  0  0  0  0  0  0  0  0
   38.5450   30.6280   42.8530 H   0  0  0  0  0  0  0  0  0  0  0  0
   38.4740   26.1210   42.4620 C   0  0  0  0  0  0  0  0  0  0  0  0
   37.7280   25.0150   42.0610 C   0  0  0  0  0  0  0  0  0  0  0  0
   36.7920   24.9020   41.5470 H   0  0  0  0  0  0  0  0  0  0  0  0
   38.4040   23.8980   42.4440 N   0  0  0  0  0  0  0  0  0  0  0  0
   38.1600   22.8810   42.3190 H   0  0  0  0  0  0  0  0  0  0  0  0
   39.5360   24.2950   43.0640 C   0  0  0  0  0  0  0  0  0  0  0  0
   40.2940   23.6460   43.4880 H   0  0  0  0  0  0  0  0  0  0  0  0
   39.5790   25.6510   43.0750 N   0  0  0  0  0  0  0  0  0  0  0  0
   34.2060   28.8830   37.9490 C   0  0  0  0  0  0  0  0  0  0  0  0
   33.2520   28.4620   38.2970 H   0  0  0  0  0  0  0  0  0  0  0  0
   34.0810   29.9860   37.7550 H   0  0  0  0  0  0  0  0  0  0  0  0
   36.3240   28.2330   35.0920 C   0  0  1  0  0  0  0  0  0  0  0  0
   35.9370   27.7840   36.5040 C   0  0  0  0  0  0  0  0  0  0  0  0
   34.5420   28.2860   36.5830 C   0  0  2  0  0  0  0  0  0  0  0  0
   34.3200   29.1760   35.5650 O   0  0  0  0  0  0  0  0  0  0  0  0
   35.5280   29.5190   34.9950 C   0  0  0  0  0  0  0  0  0  0  0  0
   35.9870   27.4700   34.3820 H   0  0  0  0  0  0  0  0  0  0  0  0
   36.0170   26.6670   36.5530 H   0  0  0  0  0  0  0  0  0  0  0  0
   36.6410   28.2170   37.2280 H   0  0  0  0  0  0  0  0  0  0  0  0
   33.8580   27.3940   36.4810 H   0  0  0  0  0  0  0  0  0  0  0  0
   36.0370   30.2770   35.6190 H   0  0  0  0  0  0  0  0  0  0  0  0
   35.4260   29.8850   33.9740 H   0  0  0  0  0  0  0  0  0  0  0  0
   37.7040   28.4840   35.0410 O   0  0  0  0  0  0  0  0  0  0  0  0
   38.1050   27.6310   34.6920 H   0  0  0  0  0  0  0  0  0  0  0  0
  1  3  1  0  0  0  0
  2  1  2  0  0  0  0
  3  8  2  0  0  0  0
  3  4  1  0  0  0  0
  4  5  2  0  0  0  0
  5  6  1  0  0  0  0
  5 10  1  0  0  0  0
  7 11  1  0  0  0  0
  7  6  2  0  0  0  0
  8  7  1  0  0  0  0
  9  4  1  0  0  0  0
 11 18  1  0  0  0  0
 12 14  1  0  0  0  0
 12 11  2  0  0  0  0
 13 12  1  0  0  0  0
 14 16  1  0  0  0  0
 15 14  1  0  0  0  0
 16 18  2  0  0  0  0
 16 17  1  0  0  0  0
 19 20  1  0  0  0  0
 19  2  1  0  0  0  0
 21 19  1  0  0  0  0
 22 27  1  6  0  0  0
 22 23  1  0  0  0  0
 23 28  1  0  0  0  0
 23 24  1  0  0  0  0
 23 29  1  0  0  0  0
 24 30  1  6  0  0  0
 24 19  1  0  0  0  0
 25 24  1  0  0  0  0
 26 22  1  0  0  0  0
 26 25  1  0  0  0  0
 26 31  1  0  0  0  0
 32 26  1  0  0  0  0
 33 22  1  0  0  0  0
 34 33  1  0  0  0  0
M  END
>  <minimizedAffinity>
-5.06752777

$$$$

 OpenBabel03242511353D

 34 36  0  0  1  0  0  0  0  0999 V2000
   39.9730   29.5320   41.4260 C   0  0  0  0  0  3  0  0  0  0  0  0
   40.1290   30.7390   41.9620 C   0  0  0  0  0  3  0  0  0  0  0  0
   39.0030   28.6320   42.0070 C   0  0  0  0  0  0  0  0  0  0  0  0
   38.2590   29.1030   43.0930 C   0  0  0  0  0  0  0  0  0  0  0  0
   37.3040   28.2420   43.6790 C   0  0  0  0  0  0  0  0  0  0  0  0
   37.1480   26.9840   43.1590 N   0  0  0  0  0  0  0  0  0  0  0  0
   37.9010   26.5790   42.1000 C   0  0  0  0  0  0  0  0  0  0  0  0
   38.7860   27.4060   41.5710 N   0  0  0  0  0  0  0  0  0  0  0  0
   38.4090   30.0990   43.4740 H   0  0  0  0  0  0  0  0  0  0  0  0
   36.7120   28.5540   44.5070 H   0  0  0  0  0  0  0  0  0  0  0  0
   37.6810   25.2260   41.5980 C   0  0  0  0  0  0  0  0  0  0  0  0
   38.5890   24.2540   42.0110 C   0  0  0  0  0  0  0  0  0  0  0  0
   39.4560   24.2740   42.6450 H   0  0  0  0  0  0  0  0  0  0  0  0
   38.2190   23.0740   41.4450 N   0  0  0  0  0  0  0  0  0  0  0  0
   38.6560   22.1180   41.5210 H   0  0  0  0  0  0  0  0  0  0  0  0
   37.1140   23.3030   40.7020 C   0  0  0  0  0  0  0  0  0  0  0  0
   36.5710   22.5660   40.1220 H   0  0  0  0  0  0  0  0  0  0  0  0
   36.7860   24.6160   40.7960 N   0  0  0  0  0  0  0  0  0  0  0  0
   41.0920   31.7300   41.4430 C   0  0  0  0  0  0  0  0  0  0  0  0
   41.7270   32.1910   42.2130 H   0  0  0  0  0  0  0  0  0  0  0  0
   41.7400   31.2010   40.6890 H   0  0  0  0  0  0  0  0  0  0  0  0
   38.2630   33.3690   39.9000 C   0  0  1  0  0  0  0  0  0  0  0  0
   39.0610   33.1810   41.1930 C   0  0  0  0  0  0  0  0  0  0  0  0
   40.3980   32.8350   40.6470 C   0  0  2  0  0  0  0  0  0  0  0  0
   40.2790   32.5150   39.3210 O   0  0  0  0  0  0  0  0  0  0  0  0
   38.9450   32.3440   39.0150 C   0  0  0  0  0  0  0  0  0  0  0  0
   38.4090   34.3970   39.5500 H   0  0  0  0  0  0  0  0  0  0  0  0
   39.0420   34.1460   41.7620 H   0  0  0  0  0  0  0  0  0  0  0  0
   38.5800   32.4040   41.8050 H   0  0  0  0  0  0  0  0  0  0  0  0
   41.0570   33.7420   40.7760 H   0  0  0  0  0  0  0  0  0  0  0  0
   38.6100   31.3430   39.3420 H   0  0  0  0  0  0  0  0  0  0  0  0
   38.7320   32.4810   37.9550 H   0  0  0  0  0  0  0  0  0  0  0  0
   36.9190   33.0320   40.1240 O   0  0  0  0  0  0  0  0  0  0  0  0
   36.4680   33.9080   40.3240 H   0  0  0  0  0  0  0  0  0  0  0  0
  1  2  2  0  0  0  0
  1  3  1  0  0  0  0
  3  4  1  0  0  0  0
  4  9  1  0  0  0  0
  4  5  2  0  0  0  0
  5 10  1  0  0  0  0
  6  5  1  0  0  0  0
  7  6  2  0  0  0  0
  8  3  2  0  0  0  0
  8  7  1  0  0  0  0
 11 12  2  0  0  0  0
 11  7  1  0  0  0  0
 12 13  1  0  0  0  0
 14 15  1  0  0  0  0
 14 12  1  0  0  0  0
 16 18  2  0  0  0  0
 16 14  1  0  0  0  0
 17 16  1  0  0  0  0
 18 11  1  0  0  0  0
 19  2  1  0  0  0  0
 19 20  1  0  0  0  0
 21 19  1  0  0  0  0
 22 27  1  6  0  0  0
 22 33  1  0  0  0  0
 22 23  1  0  0  0  0
 23 28  1  0  0  0  0
 23 29  1  0  0  0  0
 24 30  1  1  0  0  0
 24 23  1  0  0  0  0
 24 19  1  0  0  0  0
 25 24  1  0  0  0  0
 26 25  1  0  0  0  0
 26 31  1  0  0  0  0
 26 22  1  0  0  0  0
 32 26  1  0  0  0  0
 33 34  1  0  0  0  0
M  END
>  <minimizedAffinity>
-5.04258871

$$$$

 OpenBabel03242511353D

 34 36  0  0  1  0  0  0  0  0999 V2000
   37.8890   27.5520   42.9890 C   0  0  0  0  0  3  0  0  0  0  0  0
   37.7060   26.5420   42.1430 C   0  0  0  0  0  3  0  0  0  0  0  0
   38.7450   28.6460   42.5920 C   0  0  0  0  0  0  0  0  0  0  0  0
   40.1130   28.5180   42.8530 C   0  0  0  0  0  0  0  0  0  0  0  0
   40.9730   29.5750   42.4760 C   0  0  0  0  0  0  0  0  0  0  0  0
   40.4290   30.6780   41.8720 N   0  0  0  0  0  0  0  0  0  0  0  0
   39.0900   30.7480   41.6430 C   0  0  0  0  0  0  0  0  0  0  0  0
   38.3100   29.7440   42.0060 N   0  0  0  0  0  0  0  0  0  0  0  0
   40.5040   27.6350   43.3290 H   0  0  0  0  0  0  0  0  0  0  0  0
   42.0210   29.5250   42.6510 H   0  0  0  0  0  0  0  0  0  0  0  0
   38.5810   31.9540   40.9960 C   0  0  0  0  0  0  0  0  0  0  0  0
   37.2520   31.9230   40.5790 C   0  0  0  0  0  0  0  0  0  0  0  0
   36.4800   31.1790   40.6280 H   0  0  0  0  0  0  0  0  0  0  0  0
   36.9690   33.1240   40.0070 N   0  0  0  0  0  0  0  0  0  0  0  0
   36.0750   33.4780   39.5760 H   0  0  0  0  0  0  0  0  0  0  0  0
   38.0880   33.8800   40.0640 C   0  0  0  0  0  0  0  0  0  0  0  0
   38.1930   34.8930   39.6930 H   0  0  0  0  0  0  0  0  0  0  0  0
   39.0700   33.1660   40.6680 N   0  0  0  0  0  0  0  0  0  0  0  0
   36.8520   25.3800   42.4530 C   0  0  0  0  0  0  0  0  0  0  0  0
   36.6920   25.2070   43.5260 H   0  0  0  0  0  0  0  0  0  0  0  0
   35.8590   25.5530   41.9490 H   0  0  0  0  0  0  0  0  0  0  0  0
   38.8050   23.4630   40.0900 C   0  0  1  0  0  0  0  0  0  0  0  0
   38.8160   24.2000   41.4320 C   0  0  0  0  0  0  0  0  0  0  0  0
   37.3860   24.0950   41.8190 C   0  0  2  0  0  0  0  0  0  0  0  0
   36.6470   23.7140   40.7300 O   0  0  0  0  0  0  0  0  0  0  0  0
   37.4200   23.8330   39.5950 C   0  0  0  0  0  0  0  0  0  0  0  0
   38.9130   22.3900   40.2830 H   0  0  0  0  0  0  0  0  0  0  0  0
   39.5110   23.6590   42.1250 H   0  0  0  0  0  0  0  0  0  0  0  0
   39.1960   25.2200   41.2810 H   0  0  0  0  0  0  0  0  0  0  0  0
   37.3150   23.3190   42.6350 H   0  0  0  0  0  0  0  0  0  0  0  0
   37.4520   24.8890   39.2700 H   0  0  0  0  0  0  0  0  0  0  0  0
   37.0730   23.2030   38.7770 H   0  0  0  0  0  0  0  0  0  0  0  0
   39.8010   23.9920   39.2550 O   0  0  0  0  0  0  0  0  0  0  0  0
   40.5910   23.3830   39.3840 H   0  0  0  0  0  0  0  0  0  0  0  0
  2 19  1  0  0  0  0
  2  1  2  0  0  0  0
  3  4  1  0  0  0  0
  3  1  1  0  0  0  0
  4  9  1  0  0  0  0
  5 10  1  0  0  0  0
  5  4  2  0  0  0  0
  6  5  1  0  0  0  0
  7  6  2  0  0  0  0
  7  8  1  0  0  0  0
  8  3  2  0  0  0  0
 11  7  1  0  0  0  0
 12 13  1  0  0  0  0
 12 11  2  0  0  0  0
 14 16  1  0  0  0  0
 14 12  1  0  0  0  0
 15 14  1  0  0  0  0
 16 18  2  0  0  0  0
 17 16  1  0  0  0  0
 18 11  1  0  0  0  0
 19 20  1  0  0  0  0
 21 19  1  0  0  0  0
 22 27  1  1  0  0  0
 22 23  1  0  0  0  0
 23 24  1  0  0  0  0
 23 28  1  0  0  0  0
 24 19  1  0  0  0  0
 24 30  1  1  0  0  0
 25 24  1  0  0  0  0
 26 22  1  0  0  0  0
 26 25  1  0  0  0  0
 29 23  1  0  0  0  0
 31 26  1  0  0  0  0
 32 26  1  0  0  0  0
 33 34  1  0  0  0  0
 33 22  1  0  0  0  0
M  END
>  <minimizedAffinity>
-5.02554607

$$$$

 OpenBabel03242511353D

 34 36  0  0  1  0  0  0  0  0999 V2000
   38.4650   27.7880   39.4640 C   0  0  0  0  0  3  0  0  0  0  0  0
   37.3660   27.1810   39.9000 C   0  0  0  0  0  3  0  0  0  0  0  0
   38.3330   29.0240   38.7270 C   0  0  0  0  0  0  0  0  0  0  0  0
   37.1990   29.1740   37.9240 C   0  0  0  0  0  0  0  0  0  0  0  0
   37.0460   30.3740   37.1910 C   0  0  0  0  0  0  0  0  0  0  0  0
   38.0160   31.3350   37.2990 N   0  0  0  0  0  0  0  0  0  0  0  0
   39.1000   31.1340   38.0960 C   0  0  0  0  0  0  0  0  0  0  0  0
   39.2160   30.0030   38.7700 N   0  0  0  0  0  0  0  0  0  0  0  0
   36.4570   28.3960   37.8650 H   0  0  0  0  0  0  0  0  0  0  0  0
   36.2000   30.5370   36.5670 H   0  0  0  0  0  0  0  0  0  0  0  0
   40.0930   32.2020   38.1620 C   0  0  0  0  0  0  0  0  0  0  0  0
   40.9950   32.2790   37.1030 C   0  0  0  0  0  0  0  0  0  0  0  0
   41.1320   31.7050   36.2060 H   0  0  0  0  0  0  0  0  0  0  0  0
   41.8290   33.3260   37.3440 N   0  0  0  0  0  0  0  0  0  0  0  0
   42.6350   33.6980   36.7760 H   0  0  0  0  0  0  0  0  0  0  0  0
   41.4590   33.8840   38.5180 C   0  0  0  0  0  0  0  0  0  0  0  0
   41.9250   34.7400   38.9930 H   0  0  0  0  0  0  0  0  0  0  0  0
   40.4000   33.1980   39.0160 N   0  0  0  0  0  0  0  0  0  0  0  0
   37.3930   25.9170   40.6610 C   0  0  0  0  0  0  0  0  0  0  0  0
   36.6300   25.1880   40.3580 H   0  0  0  0  0  0  0  0  0  0  0  0
   38.4170   25.4680   40.5230 H   0  0  0  0  0  0  0  0  0  0  0  0
   37.3190   27.9410   43.6570 C   0  0  1  0  0  0  0  0  0  0  0  0
   36.4970   27.3780   42.4940 C   0  0  0  0  0  0  0  0  0  0  0  0
   37.2780   26.1580   42.1670 C   0  0  2  0  0  0  0  0  0  0  0  0
   38.5060   26.2270   42.7710 O   0  0  0  0  0  0  0  0  0  0  0  0
   38.7090   27.5100   43.2330 C   0  0  0  0  0  0  0  0  0  0  0  0
   36.9880   27.4550   44.5810 H   0  0  0  0  0  0  0  0  0  0  0  0
   35.4610   27.1650   42.8650 H   0  0  0  0  0  0  0  0  0  0  0  0
   36.4350   28.1320   41.6960 H   0  0  0  0  0  0  0  0  0  0  0  0
   36.6970   25.2730   42.5570 H   0  0  0  0  0  0  0  0  0  0  0  0
   39.0240   28.1650   42.3990 H   0  0  0  0  0  0  0  0  0  0  0  0
   39.4400   27.5590   44.0400 H   0  0  0  0  0  0  0  0  0  0  0  0
   37.2050   29.3400   43.6790 O   0  0  0  0  0  0  0  0  0  0  0  0
   36.4690   29.5240   44.3380 H   0  0  0  0  0  0  0  0  0  0  0  0
  1  2  2  0  0  0  0
  2 19  1  0  0  0  0
  3  8  1  0  0  0  0
  3  1  1  0  0  0  0
  4  3  2  0  0  0  0
  5  6  2  0  0  0  0
  5  4  1  0  0  0  0
  6  7  1  0  0  0  0
  7 11  1  0  0  0  0
  7  8  2  0  0  0  0
  9  4  1  0  0  0  0
 10  5  1  0  0  0  0
 11 18  1  0  0  0  0
 12 14  1  0  0  0  0
 12 11  2  0  0  0  0
 13 12  1  0  0  0  0
 14 16  1  0  0  0  0
 15 14  1  0  0  0  0
 16 17  1  0  0  0  0
 16 18  2  0  0  0  0
 19 24  1  0  0  0  0
 20 19  1  0  0  0  0
 21 19  1  0  0  0  0
 22 33  1  0  0  0  0
 22 27  1  1  0  0  0
 23 28  1  0  0  0  0
 23 22  1  0  0  0  0
 24 23  1  0  0  0  0
 24 30  1  1  0  0  0
 24 25  1  0  0  0  0
 25 26  1  0  0  0  0
 26 22  1  0  0  0  0
 26 32  1  0  0  0  0
 29 23  1  0  0  0  0
 31 26  1  0  0  0  0
 33 34  1  0  0  0  0
M  END
>  <minimizedAffinity>
-5.00887871

$$$$

 OpenBabel03242511353D

 34 36  0  0  1  0  0  0  0  0999 V2000
   37.0690   27.0260   40.5840 C   0  0  0  0  0  3  0  0  0  0  0  0
   37.1300   26.5170   41.8100 C   0  0  0  0  0  3  0  0  0  0  0  0
   37.0870   28.4620   40.4240 C   0  0  0  0  0  0  0  0  0  0  0  0
   36.1520   29.2020   41.1550 C   0  0  0  0  0  0  0  0  0  0  0  0
   36.1480   30.6090   41.0150 C   0  0  0  0  0  0  0  0  0  0  0  0
   37.0600   31.1860   40.1710 N   0  0  0  0  0  0  0  0  0  0  0  0
   37.9470   30.4160   39.4840 C   0  0  0  0  0  0  0  0  0  0  0  0
   37.9270   29.1030   39.6340 N   0  0  0  0  0  0  0  0  0  0  0  0
   35.4520   28.7120   41.8100 H   0  0  0  0  0  0  0  0  0  0  0  0
   35.4580   31.2160   41.5510 H   0  0  0  0  0  0  0  0  0  0  0  0
   38.8880   31.1000   38.6020 C   0  0  0  0  0  0  0  0  0  0  0  0
   38.3600   31.6500   37.4360 C   0  0  0  0  0  0  0  0  0  0  0  0
   37.3720   31.6870   37.0180 H   0  0  0  0  0  0  0  0  0  0  0  0
   39.3820   32.2370   36.7560 N   0  0  0  0  0  0  0  0  0  0  0  0
   39.3790   32.7530   35.8370 H   0  0  0  0  0  0  0  0  0  0  0  0
   40.5110   32.0580   37.4760 C   0  0  0  0  0  0  0  0  0  0  0  0
   41.5010   32.4080   37.2080 H   0  0  0  0  0  0  0  0  0  0  0  0
   40.2090   31.3650   38.6020 N   0  0  0  0  0  0  0  0  0  0  0  0
   37.1180   25.0660   42.0800 C   0  0  0  0  0  0  0  0  0  0  0  0
   36.4560   24.7630   42.9030 H   0  0  0  0  0  0  0  0  0  0  0  0
   36.7950   24.5540   41.1300 H   0  0  0  0  0  0  0  0  0  0  0  0
   40.7170   25.2920   42.3420 C   0  0  1  0  0  0  0  0  0  0  0  0
   39.3840   25.5030   43.0650 C   0  0  0  0  0  0  0  0  0  0  0  0
   38.5230   24.5270   42.3500 C   0  0  2  0  0  0  0  0  0  0  0  0
   39.1480   24.1250   41.1990 O   0  0  0  0  0  0  0  0  0  0  0  0
   40.2150   24.9610   40.9500 C   0  0  0  0  0  0  0  0  0  0  0  0
   41.2390   24.4530   42.8160 H   0  0  0  0  0  0  0  0  0  0  0  0
   39.5300   25.2650   44.1500 H   0  0  0  0  0  0  0  0  0  0  0  0
   39.0850   26.5570   42.9740 H   0  0  0  0  0  0  0  0  0  0  0  0
   38.3670   23.6480   43.0410 H   0  0  0  0  0  0  0  0  0  0  0  0
   39.8580   25.9010   40.4910 H   0  0  0  0  0  0  0  0  0  0  0  0
   40.9750   24.5030   40.3170 H   0  0  0  0  0  0  0  0  0  0  0  0
   41.4490   26.4900   42.3470 O   0  0  0  0  0  0  0  0  0  0  0  0
   42.0640   26.4080   43.1390 H   0  0  0  0  0  0  0  0  0  0  0  0
  1  2  2  0  0  0  0
  2 19  1  0  0  0  0
  3  1  1  0  0  0  0
  3  4  1  0  0  0  0
  4  9  1  0  0  0  0
  5  4  2  0  0  0  0
  5 10  1  0  0  0  0
  6  5  1  0  0  0  0
  7  8  1  0  0  0  0
  7  6  2  0  0  0  0
  8  3  2  0  0  0  0
 11  7  1  0  0  0  0
 12 11  2  0  0  0  0
 13 12  1  0  0  0  0
 14 12  1  0  0  0  0
 14 16  1  0  0  0  0
 15 14  1  0  0  0  0
 16 18  2  0  0  0  0
 17 16  1  0  0  0  0
 18 11  1  0  0  0  0
 19 24  1  0  0  0  0
 19 20  1  0  0  0  0
 21 19  1  0  0  0  0
 22 33  1  0  0  0  0
 22 27  1  1  0  0  0
 22 23  1  0  0  0  0
 23 28  1  0  0  0  0
 24 30  1  1  0  0  0
 24 23  1  0  0  0  0
 25 24  1  0  0  0  0
 26 25  1  0  0  0  0
 26 22  1  0  0  0  0
 29 23  1  0  0  0  0
 31 26  1  0  0  0  0
 32 26  1  0  0  0  0
 33 34  1  0  0  0  0
M  END
>  <minimizedAffinity>
-5.00619698

$$$$

 OpenBabel03242511353D

 34 36  0  0  1  0  0  0  0  0999 V2000
   37.4250   30.6330   39.7120 C   0  0  0  0  0  3  0  0  0  0  0  0
   37.0300   30.1500   40.8860 C   0  0  0  0  0  3  0  0  0  0  0  0
   38.2340   31.8300   39.6880 C   0  0  0  0  0  0  0  0  0  0  0  0
   37.7070   32.9740   40.2950 C   0  0  0  0  0  0  0  0  0  0  0  0
   38.4790   34.1590   40.2850 C   0  0  0  0  0  0  0  0  0  0  0  0
   39.7090   34.1340   39.6810 N   0  0  0  0  0  0  0  0  0  0  0  0
   40.1710   32.9910   39.1050 C   0  0  0  0  0  0  0  0  0  0  0  0
   39.4280   31.8990   39.1310 N   0  0  0  0  0  0  0  0  0  0  0  0
   36.7370   32.9540   40.7610 H   0  0  0  0  0  0  0  0  0  0  0  0
   38.1230   35.0550   40.7340 H   0  0  0  0  0  0  0  0  0  0  0  0
   41.4890   33.0400   38.4810 C   0  0  0  0  0  0  0  0  0  0  0  0
   41.6310   32.3600   37.2730 C   0  0  0  0  0  0  0  0  0  0  0  0
   40.9600   31.7810   36.6680 H   0  0  0  0  0  0  0  0  0  0  0  0
   42.9160   32.5220   36.8550 N   0  0  0  0  0  0  0  0  0  0  0  0
   43.3990   32.1590   35.9920 H   0  0  0  0  0  0  0  0  0  0  0  0
   43.5550   33.2790   37.7730 C   0  0  0  0  0  0  0  0  0  0  0  0
   44.5930   33.5890   37.7340 H   0  0  0  0  0  0  0  0  0  0  0  0
   42.6850   33.5950   38.7650 N   0  0  0  0  0  0  0  0  0  0  0  0
   36.2030   28.9350   41.0170 C   0  0  0  0  0  0  0  0  0  0  0  0
   35.1210   29.1250   41.0640 H   0  0  0  0  0  0  0  0  0  0  0  0
   36.4290   28.2810   40.1280 H   0  0  0  0  0  0  0  0  0  0  0  0
   38.5540   27.4680   43.3390 C   0  0  1  0  0  0  0  0  0  0  0  0
   37.7220   28.7080   43.0000 C   0  0  0  0  0  0  0  0  0  0  0  0
   36.6120   28.0960   42.2270 C   0  0  2  0  0  0  0  0  0  0  0  0
   36.9540   26.8170   41.8740 O   0  0  0  0  0  0  0  0  0  0  0  0
   38.3010   26.6320   42.1000 C   0  0  0  0  0  0  0  0  0  0  0  0
   38.1430   27.0140   44.2480 H   0  0  0  0  0  0  0  0  0  0  0  0
   37.3950   29.1860   43.9590 H   0  0  0  0  0  0  0  0  0  0  0  0
   38.3480   29.4240   42.4480 H   0  0  0  0  0  0  0  0  0  0  0  0
   35.7020   28.0900   42.8950 H   0  0  0  0  0  0  0  0  0  0  0  0
   38.8850   27.0740   41.2720 H   0  0  0  0  0  0  0  0  0  0  0  0
   38.5690   25.5830   42.2260 H   0  0  0  0  0  0  0  0  0  0  0  0
   39.9070   27.8230   43.4440 O   0  0  0  0  0  0  0  0  0  0  0  0
   40.0540   27.9760   44.4270 H   0  0  0  0  0  0  0  0  0  0  0  0
  1  2  2  0  0  0  0
  2 19  1  0  0  0  0
  3  1  1  0  0  0  0
  3  4  1  0  0  0  0
  4  9  1  0  0  0  0
  5  4  2  0  0  0  0
  5 10  1  0  0  0  0
  6  5  1  0  0  0  0
  7  8  1  0  0  0  0
  7  6  2  0  0  0  0
  8  3  2  0  0  0  0
 11 18  1  0  0  0  0
 11  7  1  0  0  0  0
 12 11  2  0  0  0  0
 13 12  1  0  0  0  0
 14 12  1  0  0  0  0
 14 16  1  0  0  0  0
 15 14  1  0  0  0  0
 16 18  2  0  0  0  0
 17 16  1  0  0  0  0
 19 20  1  0  0  0  0
 19 24  1  0  0  0  0
 21 19  1  0  0  0  0
 22 33  1  0  0  0  0
 22 27  1  1  0  0  0
 23 22  1  0  0  0  0
 23 28  1  0  0  0  0
 24 30  1  1  0  0  0
 24 23  1  0  0  0  0
 25 26  1  0  0  0  0
 25 24  1  0  0  0  0
 26 32  1  0  0  0  0
 26 22  1  0  0  0  0
 29 23  1  0  0  0  0
 31 26  1  0  0  0  0
 33 34  1  0  0  0  0
M  END
>  <minimizedAffinity>
-4.95047045

$$$$
