
 OpenBabel03242520523D

 21 22  0  0  0  0  0  0  0  0999 V2000
   40.9360   29.3100   42.1230 C   0  0  0  0  0  0  0  0  0  0  0  0
   40.0370   28.5330   42.8730 C   0  0  0  0  0  0  0  0  0  0  0  0
   38.7060   28.9640   42.9790 C   0  0  0  0  0  0  0  0  0  0  0  0
   38.3760   30.0990   42.3520 N   0  0  0  0  0  0  0  0  0  0  0  0
   39.2420   30.8340   41.6380 C   0  0  0  0  0  0  0  0  0  0  0  0
   40.5270   30.4220   41.5330 N   0  0  0  0  0  0  0  0  0  0  0  0
   41.9200   28.8760   42.1180 H   0  0  0  0  0  0  0  0  0  0  0  0
   40.2300   27.6090   43.4040 H   0  0  0  0  0  0  0  0  0  0  0  0
   38.7790   32.0570   40.9930 C   0  0  0  0  0  0  0  0  0  0  0  0
   37.4610   32.1970   40.5520 C   0  0  0  0  0  0  0  0  0  0  0  0
   36.5920   31.5510   40.5690 H   0  0  0  0  0  0  0  0  0  0  0  0
   37.3110   33.4110   40.0020 N   0  0  0  0  0  0  0  0  0  0  0  0
   36.6050   34.0020   39.5510 H   0  0  0  0  0  0  0  0  0  0  0  0
   38.4930   34.0320   40.0860 C   0  0  0  0  0  0  0  0  0  0  0  0
   38.9640   34.9910   39.8230 H   0  0  0  0  0  0  0  0  0  0  0  0
   39.4140   33.2250   40.6900 N   0  0  0  0  0  0  0  0  0  0  0  0
   37.7160   28.3060   43.6790 O   0  0  0  0  0  0  0  0  0  0  0  0
   37.0000   27.2940   42.9550 C   0  0  0  0  0  0  0  0  0  0  0  0
   37.7590   26.1490   42.8810 F   0  0  0  0  0  0  0  0  0  0  0  0
   35.8260   27.0240   43.6800 F   0  0  0  0  0  0  0  0  0  0  0  0
   36.6120   27.7670   41.6970 F   0  0  0  0  0  0  0  0  0  0  0  0
  1  2  1  0  0  0  0
  2  3  2  0  0  0  0
  2  8  1  0  0  0  0
  3 17  1  0  0  0  0
  4  3  1  0  0  0  0
  5  4  2  0  0  0  0
  6  5  1  0  0  0  0
  6  1  2  0  0  0  0
  7  1  1  0  0  0  0
  9  5  1  0  0  0  0
 10 11  1  0  0  0  0
 10  9  2  0  0  0  0
 12 14  1  0  0  0  0
 12 10  1  0  0  0  0
 13 12  1  0  0  0  0
 14 16  2  0  0  0  0
 15 14  1  0  0  0  0
 16  9  1  0  0  0  0
 18 17  1  0  0  0  0
 18 20  1  0  0  0  0
 19 18  1  0  0  0  0
 21 18  1  0  0  0  0
M  END
>  <minimizedAffinity>
-4.79981136

$$$$

 OpenBabel03242520523D

 21 22  0  0  0  0  0  0  0  0999 V2000
   39.9990   27.9790   43.1760 C   0  0  0  0  0  0  0  0  0  0  0  0
   39.1430   26.8660   43.2380 C   0  0  0  0  0  0  0  0  0  0  0  0
   37.8620   26.9750   42.6770 C   0  0  0  0  0  0  0  0  0  0  0  0
   37.5350   28.1440   42.1130 N   0  0  0  0  0  0  0  0  0  0  0  0
   38.3600   29.2010   42.0590 C   0  0  0  0  0  0  0  0  0  0  0  0
   39.5970   29.1010   42.5990 N   0  0  0  0  0  0  0  0  0  0  0  0
   40.9470   27.7700   43.6380 H   0  0  0  0  0  0  0  0  0  0  0  0
   39.3360   25.8950   43.6740 H   0  0  0  0  0  0  0  0  0  0  0  0
   37.9050   30.4300   41.4210 C   0  0  0  0  0  0  0  0  0  0  0  0
   36.5470   30.6980   41.2360 C   0  0  0  0  0  0  0  0  0  0  0  0
   35.6370   30.1610   41.4740 H   0  0  0  0  0  0  0  0  0  0  0  0
   36.4140   31.8880   40.6290 N   0  0  0  0  0  0  0  0  0  0  0  0
   35.6970   32.5300   40.2780 H   0  0  0  0  0  0  0  0  0  0  0  0
   37.6470   32.3690   40.4310 C   0  0  0  0  0  0  0  0  0  0  0  0
   38.1520   33.2490   40.0040 H   0  0  0  0  0  0  0  0  0  0  0  0
   38.5820   31.4960   40.9060 N   0  0  0  0  0  0  0  0  0  0  0  0
   36.9170   25.9710   42.6630 O   0  0  0  0  0  0  0  0  0  0  0  0
   37.2490   24.8050   41.8960 C   0  0  0  0  0  0  0  0  0  0  0  0
   38.0400   23.9620   42.6440 F   0  0  0  0  0  0  0  0  0  0  0  0
   36.0410   24.1540   41.5910 F   0  0  0  0  0  0  0  0  0  0  0  0
   37.8440   25.1650   40.6820 F   0  0  0  0  0  0  0  0  0  0  0  0
  1  2  1  0  0  0  0
  1  7  1  0  0  0  0
  2  8  1  0  0  0  0
  3  2  2  0  0  0  0
  4  3  1  0  0  0  0
  5  4  2  0  0  0  0
  5  6  1  0  0  0  0
  6  1  2  0  0  0  0
  9  5  1  0  0  0  0
 10  9  2  0  0  0  0
 10 11  1  0  0  0  0
 12 10  1  0  0  0  0
 13 12  1  0  0  0  0
 14 12  1  0  0  0  0
 14 16  2  0  0  0  0
 15 14  1  0  0  0  0
 16  9  1  0  0  0  0
 17  3  1  0  0  0  0
 18 19  1  0  0  0  0
 18 17  1  0  0  0  0
 20 18  1  0  0  0  0
 21 18  1  0  0  0  0
M  END
>  <minimizedAffinity>
-4.70388317

$$$$

 OpenBabel03242520523D

 21 22  0  0  0  0  0  0  0  0999 V2000
   35.5220   29.3380   40.3900 C   0  0  0  0  0  0  0  0  0  0  0  0
   36.0060   28.5300   41.4320 C   0  0  0  0  0  0  0  0  0  0  0  0
   37.1090   28.9820   42.1720 C   0  0  0  0  0  0  0  0  0  0  0  0
   37.6340   30.1660   41.8320 N   0  0  0  0  0  0  0  0  0  0  0  0
   37.1640   30.9290   40.8350 C   0  0  0  0  0  0  0  0  0  0  0  0
   36.1000   30.4980   40.1180 N   0  0  0  0  0  0  0  0  0  0  0  0
   34.6780   28.8840   39.9010 H   0  0  0  0  0  0  0  0  0  0  0  0
   35.6360   27.5690   41.7630 H   0  0  0  0  0  0  0  0  0  0  0  0
   37.8090   32.2040   40.5460 C   0  0  0  0  0  0  0  0  0  0  0  0
   37.3160   33.0680   39.5660 C   0  0  0  0  0  0  0  0  0  0  0  0
   36.4760   33.0280   38.8840 H   0  0  0  0  0  0  0  0  0  0  0  0
   38.0960   34.1590   39.5110 N   0  0  0  0  0  0  0  0  0  0  0  0
   38.1910   35.0490   39.0110 H   0  0  0  0  0  0  0  0  0  0  0  0
   39.0590   34.0010   40.4270 C   0  0  0  0  0  0  0  0  0  0  0  0
   39.9390   34.5280   40.8260 H   0  0  0  0  0  0  0  0  0  0  0  0
   38.9090   32.8110   41.0770 N   0  0  0  0  0  0  0  0  0  0  0  0
   37.6920   28.2990   43.2190 O   0  0  0  0  0  0  0  0  0  0  0  0
   38.9250   27.6270   42.9240 C   0  0  0  0  0  0  0  0  0  0  0  0
   39.9880   28.4150   43.3020 F   0  0  0  0  0  0  0  0  0  0  0  0
   38.9380   26.4410   43.6790 F   0  0  0  0  0  0  0  0  0  0  0  0
   38.9780   27.2600   41.5750 F   0  0  0  0  0  0  0  0  0  0  0  0
  1  2  1  0  0  0  0
  2  8  1  0  0  0  0
  2  3  2  0  0  0  0
  3 17  1  0  0  0  0
  4  3  1  0  0  0  0
  5  4  2  0  0  0  0
  6  1  2  0  0  0  0
  6  5  1  0  0  0  0
  7  1  1  0  0  0  0
  9  5  1  0  0  0  0
  9 16  1  0  0  0  0
 10  9  2  0  0  0  0
 11 10  1  0  0  0  0
 12 10  1  0  0  0  0
 12 14  1  0  0  0  0
 13 12  1  0  0  0  0
 14 15  1  0  0  0  0
 14 16  2  0  0  0  0
 18 17  1  0  0  0  0
 18 19  1  0  0  0  0
 18 20  1  0  0  0  0
 21 18  1  0  0  0  0
M  END
>  <minimizedAffinity>
-4.68587875

$$$$

 OpenBabel03242520523D

 21 22  0  0  0  0  0  0  0  0999 V2000
   40.2190   28.6010   40.1610 C   0  0  0  0  0  0  0  0  0  0  0  0
   39.6590   27.8750   41.2250 C   0  0  0  0  0  0  0  0  0  0  0  0
   38.6740   28.4910   42.0110 C   0  0  0  0  0  0  0  0  0  0  0  0
   38.3280   29.7450   41.6920 N   0  0  0  0  0  0  0  0  0  0  0  0
   38.8700   30.4300   40.6740 C   0  0  0  0  0  0  0  0  0  0  0  0
   39.8200   29.8390   39.9120 N   0  0  0  0  0  0  0  0  0  0  0  0
   40.9580   28.0220   39.6370 H   0  0  0  0  0  0  0  0  0  0  0  0
   39.8860   26.8650   41.5400 H   0  0  0  0  0  0  0  0  0  0  0  0
   38.4210   31.7920   40.4110 C   0  0  0  0  0  0  0  0  0  0  0  0
   37.0690   32.0970   40.2440 C   0  0  0  0  0  0  0  0  0  0  0  0
   36.1590   31.5090   40.2610 H   0  0  0  0  0  0  0  0  0  0  0  0
   36.9420   33.4130   40.0170 N   0  0  0  0  0  0  0  0  0  0  0  0
   36.2290   34.1280   39.8380 H   0  0  0  0  0  0  0  0  0  0  0  0
   38.1720   33.9370   40.0380 C   0  0  0  0  0  0  0  0  0  0  0  0
   38.6790   34.9070   39.9230 H   0  0  0  0  0  0  0  0  0  0  0  0
   39.1010   32.9670   40.2770 N   0  0  0  0  0  0  0  0  0  0  0  0
   38.0370   27.9040   43.0840 O   0  0  0  0  0  0  0  0  0  0  0  0
   36.8910   27.0990   42.7720 C   0  0  0  0  0  0  0  0  0  0  0  0
   35.8860   27.3440   43.6790 F   0  0  0  0  0  0  0  0  0  0  0  0
   36.4580   27.4790   41.4890 F   0  0  0  0  0  0  0  0  0  0  0  0
   37.2400   25.7460   42.7070 F   0  0  0  0  0  0  0  0  0  0  0  0
  1  2  1  0  0  0  0
  2  8  1  0  0  0  0
  2  3  2  0  0  0  0
  3 17  1  0  0  0  0
  4  3  1  0  0  0  0
  5  4  2  0  0  0  0
  6  1  2  0  0  0  0
  6  5  1  0  0  0  0
  7  1  1  0  0  0  0
  9  5  1  0  0  0  0
 10 11  1  0  0  0  0
 10  9  2  0  0  0  0
 12 14  1  0  0  0  0
 12 10  1  0  0  0  0
 13 12  1  0  0  0  0
 14 16  2  0  0  0  0
 15 14  1  0  0  0  0
 16  9  1  0  0  0  0
 18 17  1  0  0  0  0
 18 19  1  0  0  0  0
 20 18  1  0  0  0  0
 21 18  1  0  0  0  0
M  END
>  <minimizedAffinity>
-4.55429983

$$$$

 OpenBabel03242520523D

 21 22  0  0  0  0  0  0  0  0999 V2000
   36.0550   30.7100   40.6240 C   0  0  0  0  0  0  0  0  0  0  0  0
   36.4160   29.5180   41.2730 C   0  0  0  0  0  0  0  0  0  0  0  0
   37.7440   29.0770   41.1740 C   0  0  0  0  0  0  0  0  0  0  0  0
   38.5900   29.8290   40.4600 N   0  0  0  0  0  0  0  0  0  0  0  0
   38.2350   30.9670   39.8440 C   0  0  0  0  0  0  0  0  0  0  0  0
   36.9550   31.3970   39.9370 N   0  0  0  0  0  0  0  0  0  0  0  0
   35.0160   30.9400   40.7740 H   0  0  0  0  0  0  0  0  0  0  0  0
   35.7910   28.8610   41.8640 H   0  0  0  0  0  0  0  0  0  0  0  0
   39.2360   31.7130   39.0910 C   0  0  0  0  0  0  0  0  0  0  0  0
   39.1490   31.8600   37.7050 C   0  0  0  0  0  0  0  0  0  0  0  0
   38.4420   31.5200   36.9580 H   0  0  0  0  0  0  0  0  0  0  0  0
   40.1920   32.5850   37.2750 N   0  0  0  0  0  0  0  0  0  0  0  0
   40.5980   32.9690   36.4150 H   0  0  0  0  0  0  0  0  0  0  0  0
   40.9260   32.8950   38.3490 C   0  0  0  0  0  0  0  0  0  0  0  0
   41.8450   33.4400   38.6160 H   0  0  0  0  0  0  0  0  0  0  0  0
   40.3650   32.3730   39.4780 N   0  0  0  0  0  0  0  0  0  0  0  0
   38.2410   27.9290   41.7560 O   0  0  0  0  0  0  0  0  0  0  0  0
   38.2420   27.9010   43.1910 C   0  0  0  0  0  0  0  0  0  0  0  0
   39.2600   27.0920   43.6410 F   0  0  0  0  0  0  0  0  0  0  0  0
   38.4710   29.2180   43.6270 F   0  0  0  0  0  0  0  0  0  0  0  0
   36.9900   27.5140   43.6790 F   0  0  0  0  0  0  0  0  0  0  0  0
  1  7  1  0  0  0  0
  1  2  1  0  0  0  0
  2  8  1  0  0  0  0
  3  2  2  0  0  0  0
  3 17  1  0  0  0  0
  4  3  1  0  0  0  0
  5  6  1  0  0  0  0
  5  4  2  0  0  0  0
  6  1  2  0  0  0  0
  9 16  1  0  0  0  0
  9  5  1  0  0  0  0
 10  9  2  0  0  0  0
 11 10  1  0  0  0  0
 12 10  1  0  0  0  0
 12 14  1  0  0  0  0
 13 12  1  0  0  0  0
 14 15  1  0  0  0  0
 14 16  2  0  0  0  0
 17 18  1  0  0  0  0
 18 20  1  0  0  0  0
 18 19  1  0  0  0  0
 18 21  1  0  0  0  0
M  END
>  <minimizedAffinity>
-4.4116888

$$$$

 OpenBabel03242520523D

 21 22  0  0  0  0  0  0  0  0999 V2000
   37.9510   28.5130   43.5700 C   0  0  0  0  0  0  0  0  0  0  0  0
   37.9450   29.5270   42.5980 C   0  0  0  0  0  0  0  0  0  0  0  0
   37.7970   29.1630   41.2510 C   0  0  0  0  0  0  0  0  0  0  0  0
   37.6710   27.8590   40.9770 N   0  0  0  0  0  0  0  0  0  0  0  0
   37.6780   26.8980   41.9130 C   0  0  0  0  0  0  0  0  0  0  0  0
   37.8200   27.2440   43.2140 N   0  0  0  0  0  0  0  0  0  0  0  0
   38.0700   28.9180   44.5590 H   0  0  0  0  0  0  0  0  0  0  0  0
   38.0410   30.5950   42.7430 H   0  0  0  0  0  0  0  0  0  0  0  0
   37.5330   25.5050   41.5080 C   0  0  0  0  0  0  0  0  0  0  0  0
   38.2550   24.4840   42.1280 C   0  0  0  0  0  0  0  0  0  0  0  0
   38.9830   24.4600   42.9300 H   0  0  0  0  0  0  0  0  0  0  0  0
   37.9300   23.3110   41.5620 N   0  0  0  0  0  0  0  0  0  0  0  0
   38.1420   22.3100   41.6210 H   0  0  0  0  0  0  0  0  0  0  0  0
   37.0280   23.5700   40.6090 C   0  0  0  0  0  0  0  0  0  0  0  0
   36.4260   23.0470   39.8510 H   0  0  0  0  0  0  0  0  0  0  0  0
   36.7640   24.9080   40.5520 N   0  0  0  0  0  0  0  0  0  0  0  0
   37.7730   30.0460   40.1920 O   0  0  0  0  0  0  0  0  0  0  0  0
   36.6030   30.8700   40.0860 C   0  0  0  0  0  0  0  0  0  0  0  0
   36.7960   32.0460   40.7740 F   0  0  0  0  0  0  0  0  0  0  0  0
   36.4230   31.1570   38.7220 F   0  0  0  0  0  0  0  0  0  0  0  0
   35.4680   30.1740   40.5160 F   0  0  0  0  0  0  0  0  0  0  0  0
  1  7  1  0  0  0  0
  2  8  1  0  0  0  0
  2  1  2  0  0  0  0
  3  2  1  0  0  0  0
  4  3  2  0  0  0  0
  4  5  1  0  0  0  0
  5  6  2  0  0  0  0
  6  1  1  0  0  0  0
  9  5  1  0  0  0  0
  9 10  2  0  0  0  0
 10 11  1  0  0  0  0
 12 13  1  0  0  0  0
 12 10  1  0  0  0  0
 14 12  1  0  0  0  0
 15 14  1  0  0  0  0
 16 14  2  0  0  0  0
 16  9  1  0  0  0  0
 17  3  1  0  0  0  0
 18 17  1  0  0  0  0
 18 21  1  0  0  0  0
 18 19  1  0  0  0  0
 20 18  1  0  0  0  0
M  END
>  <minimizedAffinity>
-4.31305838

$$$$

 OpenBabel03242520523D

 21 22  0  0  0  0  0  0  0  0999 V2000
   39.0690   28.5750   38.8690 C   0  0  0  0  0  0  0  0  0  0  0  0
   38.1940   27.8050   39.6540 C   0  0  0  0  0  0  0  0  0  0  0  0
   37.4090   28.4580   40.6160 C   0  0  0  0  0  0  0  0  0  0  0  0
   37.5450   29.7850   40.7250 N   0  0  0  0  0  0  0  0  0  0  0  0
   38.3840   30.5100   39.9700 C   0  0  0  0  0  0  0  0  0  0  0  0
   39.1440   29.8860   39.0400 N   0  0  0  0  0  0  0  0  0  0  0  0
   39.6120   27.9620   38.1720 H   0  0  0  0  0  0  0  0  0  0  0  0
   38.0300   26.7360   39.6230 H   0  0  0  0  0  0  0  0  0  0  0  0
   38.4560   31.9530   40.1680 C   0  0  0  0  0  0  0  0  0  0  0  0
   38.9060   32.5040   41.3700 C   0  0  0  0  0  0  0  0  0  0  0  0
   39.2560   32.0820   42.3050 H   0  0  0  0  0  0  0  0  0  0  0  0
   38.8700   33.8420   41.2790 N   0  0  0  0  0  0  0  0  0  0  0  0
   39.0730   34.6860   41.8250 H   0  0  0  0  0  0  0  0  0  0  0  0
   38.4130   34.1420   40.0580 C   0  0  0  0  0  0  0  0  0  0  0  0
   38.1790   35.0190   39.4360 H   0  0  0  0  0  0  0  0  0  0  0  0
   38.1500   33.0030   39.3540 N   0  0  0  0  0  0  0  0  0  0  0  0
   36.5090   27.8350   41.4560 O   0  0  0  0  0  0  0  0  0  0  0  0
   37.0640   27.2200   42.6280 C   0  0  0  0  0  0  0  0  0  0  0  0
   37.5010   25.9510   42.3270 F   0  0  0  0  0  0  0  0  0  0  0  0
   38.1610   28.0050   43.0240 F   0  0  0  0  0  0  0  0  0  0  0  0
   36.1420   27.2380   43.6800 F   0  0  0  0  0  0  0  0  0  0  0  0
  1  6  2  0  0  0  0
  1  2  1  0  0  0  0
  2  3  2  0  0  0  0
  3  4  1  0  0  0  0
  3 17  1  0  0  0  0
  5  9  1  0  0  0  0
  5  4  2  0  0  0  0
  6  5  1  0  0  0  0
  7  1  1  0  0  0  0
  8  2  1  0  0  0  0
  9 10  2  0  0  0  0
 10 11  1  0  0  0  0
 12 10  1  0  0  0  0
 12 13  1  0  0  0  0
 14 12  1  0  0  0  0
 15 14  1  0  0  0  0
 16 14  2  0  0  0  0
 16  9  1  0  0  0  0
 17 18  1  0  0  0  0
 18 20  1  0  0  0  0
 18 21  1  0  0  0  0
 19 18  1  0  0  0  0
M  END
>  <minimizedAffinity>
-4.15399647

$$$$

 OpenBabel03242520523D

 21 22  0  0  0  0  0  0  0  0999 V2000
   38.8940   34.1520   40.3130 C   0  0  0  0  0  0  0  0  0  0  0  0
   40.1060   33.9050   39.6470 C   0  0  0  0  0  0  0  0  0  0  0  0
   40.4430   32.5790   39.3390 C   0  0  0  0  0  0  0  0  0  0  0  0
   39.5790   31.6240   39.7030 N   0  0  0  0  0  0  0  0  0  0  0  0
   38.4240   31.8700   40.3400 C   0  0  0  0  0  0  0  0  0  0  0  0
   38.0940   33.1490   40.6390 N   0  0  0  0  0  0  0  0  0  0  0  0
   38.7510   35.2020   40.4910 H   0  0  0  0  0  0  0  0  0  0  0  0
   40.8500   34.6210   39.3220 H   0  0  0  0  0  0  0  0  0  0  0  0
   37.5520   30.7570   40.6930 C   0  0  0  0  0  0  0  0  0  0  0  0
   36.1690   30.9170   40.8010 C   0  0  0  0  0  0  0  0  0  0  0  0
   35.4990   31.7580   40.6750 H   0  0  0  0  0  0  0  0  0  0  0  0
   35.6160   29.7400   41.1350 N   0  0  0  0  0  0  0  0  0  0  0  0
   34.7060   29.3120   41.3310 H   0  0  0  0  0  0  0  0  0  0  0  0
   36.6120   28.8530   41.2380 C   0  0  0  0  0  0  0  0  0  0  0  0
   36.7750   27.7890   41.4690 H   0  0  0  0  0  0  0  0  0  0  0  0
   37.8110   29.4470   40.9720 N   0  0  0  0  0  0  0  0  0  0  0  0
   41.5950   32.1860   38.6900 O   0  0  0  0  0  0  0  0  0  0  0  0
   41.5370   32.1740   37.2560 C   0  0  0  0  0  0  0  0  0  0  0  0
   40.2340   32.3260   36.8400 F   0  0  0  0  0  0  0  0  0  0  0  0
   42.2960   33.2670   36.8040 F   0  0  0  0  0  0  0  0  0  0  0  0
   42.1340   31.0160   36.7460 F   0  0  0  0  0  0  0  0  0  0  0  0
  1  7  1  0  0  0  0
  1  6  1  0  0  0  0
  2  1  2  0  0  0  0
  3  2  1  0  0  0  0
  3  4  2  0  0  0  0
  4  5  1  0  0  0  0
  5  6  2  0  0  0  0
  5  9  1  0  0  0  0
  8  2  1  0  0  0  0
  9 10  2  0  0  0  0
  9 16  1  0  0  0  0
 10 12  1  0  0  0  0
 11 10  1  0  0  0  0
 12 14  1  0  0  0  0
 12 13  1  0  0  0  0
 14 15  1  0  0  0  0
 16 14  2  0  0  0  0
 17  3  1  0  0  0  0
 18 17  1  0  0  0  0
 19 18  1  0  0  0  0
 20 18  1  0  0  0  0
 21 18  1  0  0  0  0
M  END
>  <minimizedAffinity>
-4.10860538

$$$$

 OpenBabel03242520523D

 21 22  0  0  0  0  0  0  0  0999 V2000
   41.5760   31.3710   40.6410 C   0  0  0  0  0  0  0  0  0  0  0  0
   40.6920   32.4260   40.3600 C   0  0  0  0  0  0  0  0  0  0  0  0
   39.3720   32.3350   40.8250 C   0  0  0  0  0  0  0  0  0  0  0  0
   39.0370   31.2370   41.5150 N   0  0  0  0  0  0  0  0  0  0  0  0
   39.8900   30.2360   41.7780 C   0  0  0  0  0  0  0  0  0  0  0  0
   41.1650   30.3190   41.3300 N   0  0  0  0  0  0  0  0  0  0  0  0
   42.5530   31.5590   40.2330 H   0  0  0  0  0  0  0  0  0  0  0  0
   40.8890   33.3390   39.8130 H   0  0  0  0  0  0  0  0  0  0  0  0
   39.4230   29.0830   42.5380 C   0  0  0  0  0  0  0  0  0  0  0  0
   38.1140   29.0050   43.0190 C   0  0  0  0  0  0  0  0  0  0  0  0
   37.2550   29.6620   42.9640 H   0  0  0  0  0  0  0  0  0  0  0  0
   37.9580   27.8470   43.6780 N   0  0  0  0  0  0  0  0  0  0  0  0
   37.2540   27.3100   44.1950 H   0  0  0  0  0  0  0  0  0  0  0  0
   39.1280   27.2010   43.6220 C   0  0  0  0  0  0  0  0  0  0  0  0
   39.5910   26.2600   43.9590 H   0  0  0  0  0  0  0  0  0  0  0  0
   40.0470   27.9340   42.9290 N   0  0  0  0  0  0  0  0  0  0  0  0
   38.3960   33.2890   40.6260 O   0  0  0  0  0  0  0  0  0  0  0  0
   37.4280   32.9970   39.6080 C   0  0  0  0  0  0  0  0  0  0  0  0
   36.8280   34.1610   39.1850 F   0  0  0  0  0  0  0  0  0  0  0  0
   38.1250   32.4200   38.5320 F   0  0  0  0  0  0  0  0  0  0  0  0
   36.5060   32.0480   40.0600 F   0  0  0  0  0  0  0  0  0  0  0  0
  1  6  1  0  0  0  0
  2  1  2  0  0  0  0
  2  3  1  0  0  0  0
  3  4  2  0  0  0  0
  4  5  1  0  0  0  0
  5  9  1  0  0  0  0
  6  5  2  0  0  0  0
  7  1  1  0  0  0  0
  8  2  1  0  0  0  0
  9 16  1  0  0  0  0
  9 10  2  0  0  0  0
 10 12  1  0  0  0  0
 11 10  1  0  0  0  0
 12 13  1  0  0  0  0
 14 12  1  0  0  0  0
 14 15  1  0  0  0  0
 16 14  2  0  0  0  0
 17  3  1  0  0  0  0
 18 21  1  0  0  0  0
 18 17  1  0  0  0  0
 19 18  1  0  0  0  0
 20 18  1  0  0  0  0
M  END
>  <minimizedAffinity>
-4.057971

$$$$
