
 OpenBabel03252508283D

 38 41  0  0  1  0  0  0  0  0999 V2000
   41.4490   33.5810   39.3090 N   0  0  0  0  0  0  0  0  0  0  0  0
   41.5210   33.1950   40.7220 C   0  0  2  0  0  0  0  0  0  0  0  0
   40.3130   33.5990   41.4860 C   0  0  0  0  0  0  0  0  0  0  0  0
   39.2290   34.0350   40.6240 N   0  0  0  0  0  0  0  0  0  0  0  0
   39.5920   35.0110   39.6600 C   0  0  0  0  0  0  0  0  0  0  0  0
   41.0670   35.0120   39.3440 C   0  0  2  0  0  0  0  0  0  0  0  0
   40.7790   33.0210   38.7670 H   0  0  0  0  0  0  0  0  0  0  0  0
   41.6330   32.1000   40.7540 H   0  0  0  0  0  0  0  0  0  0  0  0
   39.8890   32.7160   42.0500 H   0  0  0  0  0  0  0  0  0  0  0  0
   40.4080   34.4810   42.1420 H   0  0  0  0  0  0  0  0  0  0  0  0
   38.7730   33.1820   40.2190 H   0  0  0  0  0  0  0  0  0  0  0  0
   39.3410   36.0300   40.0150 H   0  0  0  0  0  0  0  0  0  0  0  0
   39.0070   34.8630   38.7240 H   0  0  0  0  0  0  0  0  0  0  0  0
   41.6050   35.4600   40.1870 H   0  0  0  0  0  0  0  0  0  0  0  0
   41.3630   35.7030   38.0890 C   0  0  0  0  0  0  0  0  0  0  0  0
   42.5340   35.9370   37.4340 C   0  0  0  0  0  0  0  0  0  0  0  0
   43.5050   35.6170   37.7750 H   0  0  0  0  0  0  0  0  0  0  0  0
   42.3270   36.6240   36.2940 N   0  0  0  0  0  0  0  0  0  0  0  0
   42.9880   36.9720   35.5540 H   0  0  0  0  0  0  0  0  0  0  0  0
   41.0110   36.8310   36.2230 C   0  0  0  0  0  0  0  0  0  0  0  0
   40.4360   37.3540   35.4470 H   0  0  0  0  0  0  0  0  0  0  0  0
   40.4170   36.2830   37.2940 N   0  0  0  0  0  0  0  0  0  0  0  0
   44.7260   34.3110   41.9440 C   0  0  0  0  0  0  0  0  0  0  0  0
   43.8440   35.3310   42.3220 C   0  0  0  0  0  0  0  0  0  0  0  0
   42.5600   35.0180   41.9140 C   0  0  0  0  0  0  0  0  0  0  0  0
   42.6840   33.8410   41.3050 N   0  0  0  0  0  0  0  0  0  0  0  0
   43.9450   33.4280   41.3220 N   0  0  0  0  0  0  0  0  0  0  0  0
   44.2570   36.1930   42.8600 H   0  0  0  0  0  0  0  0  0  0  0  0
   41.8720   35.8020   42.2120 H   0  0  0  0  0  0  0  0  0  0  0  0
   48.4280   34.9650   41.9520 C   0  0  0  0  0  0  0  0  0  0  0  0
   47.0580   35.0920   41.5520 C   0  0  0  0  0  0  0  0  0  0  0  0
   46.1610   34.2990   42.2240 C   0  0  0  0  0  0  0  0  0  0  0  0
   46.6000   33.4630   43.1990 N   0  0  0  0  0  0  0  0  0  0  0  0
   47.8940   33.3590   43.5600 C   0  0  0  0  0  0  0  0  0  0  0  0
   48.7870   34.1170   42.9240 N   0  0  0  0  0  0  0  0  0  0  0  0
   49.1240   35.5980   41.4110 H   0  0  0  0  0  0  0  0  0  0  0  0
   46.7290   35.7550   40.7810 H   0  0  0  0  0  0  0  0  0  0  0  0
   48.1360   32.6670   44.3450 H   0  0  0  0  0  0  0  0  0  0  0  0
  1  6  1  0  0  0  0
  1  2  1  0  0  0  0
  2  8  1  1  0  0  0
  2 26  1  0  0  0  0
  2  3  1  0  0  0  0
  3  9  1  0  0  0  0
  3 10  1  0  0  0  0
  4  3  1  0  0  0  0
  5 12  1  0  0  0  0
  5  4  1  0  0  0  0
  6  5  1  0  0  0  0
  6 14  1  1  0  0  0
  7  1  1  0  0  0  0
 11  4  1  0  0  0  0
 13  5  1  0  0  0  0
 15  6  1  0  0  0  0
 16 17  1  0  0  0  0
 16 15  2  0  0  0  0
 18 16  1  0  0  0  0
 19 18  1  0  0  0  0
 20 18  1  0  0  0  0
 20 22  2  0  0  0  0
 21 20  1  0  0  0  0
 22 15  1  0  0  0  0
 23 32  1  0  0  0  0
 23 24  1  0  0  0  0
 24 28  1  0  0  0  0
 25 29  1  0  0  0  0
 25 24  2  0  0  0  0
 26 27  1  0  0  0  0
 26 25  1  0  0  0  0
 27 23  2  0  0  0  0
 30 35  1  0  0  0  0
 31 30  2  0  0  0  0
 31 32  1  0  0  0  0
 32 33  2  0  0  0  0
 33 34  1  0  0  0  0
 34 38  1  0  0  0  0
 35 34  2  0  0  0  0
 36 30  1  0  0  0  0
 37 31  1  0  0  0  0
M  END
>  <minimizedAffinity>
-4.53113413

>  <minimizedRMSD>
1.51443541

$$$$
