
 OpenBabel03242511323D

 34 36  0  0  1  0  0  0  0  0999 V2000
   48.5270   32.1740   42.5680 C   0  0  0  0  0  0  0  0  0  0  0  0
   47.9880   33.3620   42.8260 C   0  0  0  0  0  0  0  0  0  0  0  0
   49.3290   32.0170   41.3760 C   0  0  0  0  0  0  0  0  0  0  0  0
   50.6260   31.5200   41.5350 C   0  0  0  0  0  0  0  0  0  0  0  0
   51.4310   31.3570   40.3850 C   0  0  0  0  0  0  0  0  0  0  0  0
   50.9070   31.6950   39.1650 N   0  0  0  0  0  0  0  0  0  0  0  0
   49.6370   32.1760   39.0700 C   0  0  0  0  0  0  0  0  0  0  0  0
   48.9070   32.3160   40.1630 N   0  0  0  0  0  0  0  0  0  0  0  0
   51.0030   31.2640   42.5110 H   0  0  0  0  0  0  0  0  0  0  0  0
   52.4240   30.9810   40.4530 H   0  0  0  0  0  0  0  0  0  0  0  0
   49.1460   32.5140   37.7380 C   0  0  0  0  0  0  0  0  0  0  0  0
   48.3620   33.6620   37.6380 C   0  0  0  0  0  0  0  0  0  0  0  0
   48.0210   34.3880   38.3500 H   0  0  0  0  0  0  0  0  0  0  0  0
   48.0050   33.8070   36.3330 N   0  0  0  0  0  0  0  0  0  0  0  0
   47.4190   34.5480   35.8670 H   0  0  0  0  0  0  0  0  0  0  0  0
   48.5490   32.7820   35.6410 C   0  0  0  0  0  0  0  0  0  0  0  0
   48.4530   32.6080   34.5760 H   0  0  0  0  0  0  0  0  0  0  0  0
   49.2460   31.9940   36.4990 N   0  0  0  0  0  0  0  0  0  0  0  0
   47.1550   33.6250   44.0150 C   0  0  0  0  0  0  0  0  0  0  0  0
   47.0290   32.7600   44.6810 H   0  0  0  0  0  0  0  0  0  0  0  0
   47.6410   34.4680   44.5820 H   0  0  0  0  0  0  0  0  0  0  0  0
   44.6760   36.2040   43.4890 C   0  0  1  0  0  0  0  0  0  0  0  0
   45.8440   35.4320   42.8700 C   0  0  0  0  0  0  0  0  0  0  0  0
   45.7740   34.1610   43.6350 C   0  0  2  0  0  0  0  0  0  0  0  0
   44.9710   34.3330   44.7310 O   0  0  0  0  0  0  0  0  0  0  0  0
   44.7350   35.6790   44.9110 C   0  0  0  0  0  0  0  0  0  0  0  0
   43.7560   35.9160   42.9690 H   0  0  0  0  0  0  0  0  0  0  0  0
   45.6440   35.3100   41.7740 H   0  0  0  0  0  0  0  0  0  0  0  0
   46.7690   36.0130   42.9950 H   0  0  0  0  0  0  0  0  0  0  0  0
   45.3400   33.3790   42.9470 H   0  0  0  0  0  0  0  0  0  0  0  0
   45.6030   36.1510   45.4070 H   0  0  0  0  0  0  0  0  0  0  0  0
   43.8280   35.8780   45.4810 H   0  0  0  0  0  0  0  0  0  0  0  0
   44.9460   37.5800   43.4440 O   0  0  0  0  0  0  0  0  0  0  0  0
   44.4880   37.9020   42.6090 H   0  0  0  0  0  0  0  0  0  0  0  0
  1  2  2  0  0  0  0
  2 19  1  0  0  0  0
  3  4  1  0  0  0  0
  3  1  1  0  0  0  0
  4  9  1  0  0  0  0
  5 10  1  0  0  0  0
  5  4  2  0  0  0  0
  6  5  1  0  0  0  0
  7  6  2  0  0  0  0
  7  8  1  0  0  0  0
  8  3  2  0  0  0  0
 11  7  1  0  0  0  0
 12 11  2  0  0  0  0
 12 13  1  0  0  0  0
 14 12  1  0  0  0  0
 15 14  1  0  0  0  0
 16 14  1  0  0  0  0
 16 18  2  0  0  0  0
 17 16  1  0  0  0  0
 18 11  1  0  0  0  0
 19 21  1  0  0  0  0
 19 20  1  0  0  0  0
 22 27  1  6  0  0  0
 22 26  1  0  0  0  0
 23 29  1  0  0  0  0
 23 22  1  0  0  0  0
 23 24  1  0  0  0  0
 24 30  1  6  0  0  0
 24 19  1  0  0  0  0
 24 25  1  0  0  0  0
 25 26  1  0  0  0  0
 26 31  1  0  0  0  0
 26 32  1  0  0  0  0
 28 23  1  0  0  0  0
 33 22  1  0  0  0  0
 34 33  1  0  0  0  0
M  END
>  <minimizedAffinity>
-4.92815113

>  <minimizedRMSD>
0.95890975

$$$$
