
 OpenBabel03252506583D

 37 41  0  0  0  0  0  0  0  0999 V2000
   36.8180   30.2170   39.0430 C   0  0  0  0  0  0  0  0  0  0  0  0
   35.7770   29.3160   39.1060 C   0  0  0  0  0  0  0  0  0  0  0  0
   35.5150   28.5560   40.2320 C   0  0  0  0  0  0  0  0  0  0  0  0
   36.3150   28.6840   41.3660 C   0  0  0  0  0  0  0  0  0  0  0  0
   36.3570   28.1240   42.6050 N   0  0  0  0  0  0  0  0  0  0  0  0
   37.3990   28.6700   43.2870 C   0  0  0  0  0  0  0  0  0  0  0  0
   37.9870   29.5650   42.4490 N   0  0  0  0  0  0  0  0  0  0  0  0
   37.3470   29.5920   41.2720 C   0  0  0  0  0  0  0  0  0  0  0  0
   37.6340   30.3570   40.1770 C   0  0  0  0  0  0  0  0  0  0  0  0
   37.0430   30.8170   38.1850 H   0  0  0  0  0  0  0  0  0  0  0  0
   34.6960   27.8380   40.2970 H   0  0  0  0  0  0  0  0  0  0  0  0
   35.6710   27.4010   42.9160 H   0  0  0  0  0  0  0  0  0  0  0  0
   37.6450   28.3930   44.2940 H   0  0  0  0  0  0  0  0  0  0  0  0
   34.6380   29.0490   35.6210 C   0  0  0  0  0  0  0  0  0  0  0  0
   33.2610   28.8320   35.7800 C   0  0  0  0  0  0  0  0  0  0  0  0
   32.7340   28.7790   37.0640 C   0  0  0  0  0  0  0  0  0  0  0  0
   33.5940   28.9420   38.1180 N   0  0  0  0  0  0  0  0  0  0  0  0
   34.9160   29.1500   37.9480 C   0  0  0  0  0  0  0  0  0  0  0  0
   35.4380   29.2040   36.7060 N   0  0  0  0  0  0  0  0  0  0  0  0
   35.0890   29.0960   34.6250 H   0  0  0  0  0  0  0  0  0  0  0  0
   32.6140   28.7070   34.9060 H   0  0  0  0  0  0  0  0  0  0  0  0
   31.6760   28.6130   37.2420 H   0  0  0  0  0  0  0  0  0  0  0  0
   38.7600   31.2980   40.1820 C   0  0  0  0  0  0  0  0  0  0  0  0
   39.3170   31.8440   41.3210 C   0  0  0  0  0  0  0  0  0  0  0  0
   40.3360   32.6620   40.8450 C   0  0  0  0  0  0  0  0  0  0  0  0
   40.3430   32.5710   39.4720 C   0  0  0  0  0  0  0  0  0  0  0  0
   39.3760   31.7370   39.1200 O   0  0  0  0  0  0  0  0  0  0  0  0
   38.9700   31.6260   42.3350 H   0  0  0  0  0  0  0  0  0  0  0  0
   40.9760   33.2420   41.4910 H   0  0  0  0  0  0  0  0  0  0  0  0
   41.2610   33.2750   38.5830 C   0  0  0  0  0  0  0  0  0  0  0  0
   41.5620   32.9580   37.2740 C   0  0  0  0  0  0  0  0  0  0  0  0
   41.1760   32.1420   36.6770 H   0  0  0  0  0  0  0  0  0  0  0  0
   42.4520   33.8450   36.7930 N   0  0  0  0  0  0  0  0  0  0  0  0
   42.9290   33.9660   35.8730 H   0  0  0  0  0  0  0  0  0  0  0  0
   42.7220   34.7220   37.7820 C   0  0  0  0  0  0  0  0  0  0  0  0
   43.3470   35.6000   37.9220 H   0  0  0  0  0  0  0  0  0  0  0  0
   41.9890   34.3680   38.8770 N   0  0  0  0  0  0  0  0  0  0  0  0
  1  2  2  0  0  0  0
  1  9  1  0  0  0  0
  2  3  1  0  0  0  0
  3 11  1  0  0  0  0
  3  4  2  0  0  0  0
  4  5  1  0  0  0  0
  5 12  1  0  0  0  0
  5  6  1  0  0  0  0
  6 13  1  0  0  0  0
  7  6  2  0  0  0  0
  8  4  1  0  0  0  0
  8  7  1  0  0  0  0
  9 23  1  0  0  0  0
  9  8  2  0  0  0  0
 10  1  1  0  0  0  0
 14 15  2  0  0  0  0
 14 19  1  0  0  0  0
 15 16  1  0  0  0  0
 16 22  1  0  0  0  0
 16 17  2  0  0  0  0
 18 17  1  0  0  0  0
 18  2  1  0  0  0  0
 19 18  2  0  0  0  0
 20 14  1  0  0  0  0
 21 15  1  0  0  0  0
 23 24  2  0  0  0  0
 24 28  1  0  0  0  0
 25 24  1  0  0  0  0
 25 29  1  0  0  0  0
 26 25  2  0  0  0  0
 27 26  1  0  0  0  0
 27 23  1  0  0  0  0
 30 37  1  0  0  0  0
 30 26  1  0  0  0  0
 31 30  2  0  0  0  0
 32 31  1  0  0  0  0
 33 31  1  0  0  0  0
 33 35  1  0  0  0  0
 34 33  1  0  0  0  0
 35 36  1  0  0  0  0
 35 37  2  0  0  0  0
M  END
>  <minimizedAffinity>
-6.47555494

$$$$

 OpenBabel03252506583D

 37 41  0  0  0  0  0  0  0  0999 V2000
   36.9600   25.9270   40.6340 C   0  0  0  0  0  0  0  0  0  0  0  0
   37.4100   24.6610   40.9370 C   0  0  0  0  0  0  0  0  0  0  0  0
   38.3660   24.4220   41.9080 C   0  0  0  0  0  0  0  0  0  0  0  0
   38.9150   25.4820   42.6270 C   0  0  0  0  0  0  0  0  0  0  0  0
   39.8390   25.6220   43.6160 N   0  0  0  0  0  0  0  0  0  0  0  0
   39.9530   26.9440   43.9120 C   0  0  0  0  0  0  0  0  0  0  0  0
   39.0890   27.6020   43.0940 N   0  0  0  0  0  0  0  0  0  0  0  0
   38.4450   26.7350   42.3010 C   0  0  0  0  0  0  0  0  0  0  0  0
   37.5030   27.0070   41.3490 C   0  0  0  0  0  0  0  0  0  0  0  0
   36.2220   26.1410   39.8870 H   0  0  0  0  0  0  0  0  0  0  0  0
   38.7340   23.4260   42.1590 H   0  0  0  0  0  0  0  0  0  0  0  0
   40.3410   24.8060   44.0330 H   0  0  0  0  0  0  0  0  0  0  0  0
   40.6210   27.3170   44.6640 H   0  0  0  0  0  0  0  0  0  0  0  0
   37.1070   21.3520   39.3650 C   0  0  0  0  0  0  0  0  0  0  0  0
   35.8060   21.3970   38.8380 C   0  0  0  0  0  0  0  0  0  0  0  0
   35.0480   22.5470   39.0210 C   0  0  0  0  0  0  0  0  0  0  0  0
   35.6140   23.5860   39.7130 N   0  0  0  0  0  0  0  0  0  0  0  0
   36.8660   23.5260   40.2130 C   0  0  0  0  0  0  0  0  0  0  0  0
   37.6100   22.4150   40.0400 N   0  0  0  0  0  0  0  0  0  0  0  0
   37.7330   20.4630   39.2410 H   0  0  0  0  0  0  0  0  0  0  0  0
   35.3990   20.5410   38.2930 H   0  0  0  0  0  0  0  0  0  0  0  0
   34.0380   22.6340   38.6340 H   0  0  0  0  0  0  0  0  0  0  0  0
   37.0710   28.3830   41.0790 C   0  0  0  0  0  0  0  0  0  0  0  0
   35.7540   28.7890   41.0140 C   0  0  0  0  0  0  0  0  0  0  0  0
   35.8290   30.1510   40.7410 C   0  0  0  0  0  0  0  0  0  0  0  0
   37.1610   30.4900   40.6560 C   0  0  0  0  0  0  0  0  0  0  0  0
   37.8690   29.3920   40.8680 O   0  0  0  0  0  0  0  0  0  0  0  0
   34.9010   28.1200   41.1590 H   0  0  0  0  0  0  0  0  0  0  0  0
   34.9590   30.7770   40.6260 H   0  0  0  0  0  0  0  0  0  0  0  0
   37.6750   31.8280   40.3820 C   0  0  0  0  0  0  0  0  0  0  0  0
   37.2510   32.6990   39.3990 C   0  0  0  0  0  0  0  0  0  0  0  0
   36.4710   32.5500   38.6640 H   0  0  0  0  0  0  0  0  0  0  0  0
   37.9700   33.8340   39.4680 N   0  0  0  0  0  0  0  0  0  0  0  0
   37.9710   34.7240   38.9240 H   0  0  0  0  0  0  0  0  0  0  0  0
   38.8480   33.6950   40.4830 C   0  0  0  0  0  0  0  0  0  0  0  0
   39.6300   34.2880   40.9490 H   0  0  0  0  0  0  0  0  0  0  0  0
   38.6620   32.4630   41.0400 N   0  0  0  0  0  0  0  0  0  0  0  0
  1  2  2  0  0  0  0
  1  9  1  0  0  0  0
  2  3  1  0  0  0  0
  3 11  1  0  0  0  0
  3  4  2  0  0  0  0
  4  5  1  0  0  0  0
  5  6  1  0  0  0  0
  5 12  1  0  0  0  0
  6 13  1  0  0  0  0
  7  6  2  0  0  0  0
  8  4  1  0  0  0  0
  8  7  1  0  0  0  0
  9  8  2  0  0  0  0
 10  1  1  0  0  0  0
 14 19  1  0  0  0  0
 15 16  1  0  0  0  0
 15 14  2  0  0  0  0
 16 17  2  0  0  0  0
 17 18  1  0  0  0  0
 18  2  1  0  0  0  0
 19 18  2  0  0  0  0
 20 14  1  0  0  0  0
 21 15  1  0  0  0  0
 22 16  1  0  0  0  0
 23  9  1  0  0  0  0
 24 23  2  0  0  0  0
 24 28  1  0  0  0  0
 25 24  1  0  0  0  0
 26 25  2  0  0  0  0
 26 27  1  0  0  0  0
 27 23  1  0  0  0  0
 29 25  1  0  0  0  0
 30 26  1  0  0  0  0
 30 37  1  0  0  0  0
 31 33  1  0  0  0  0
 31 30  2  0  0  0  0
 32 31  1  0  0  0  0
 33 35  1  0  0  0  0
 34 33  1  0  0  0  0
 35 36  1  0  0  0  0
 35 37  2  0  0  0  0
M  END
>  <minimizedAffinity>
-6.28770065

$$$$

 OpenBabel03252506583D

 37 41  0  0  0  0  0  0  0  0999 V2000
   36.4490   30.5910   38.8410 C   0  0  0  0  0  0  0  0  0  0  0  0
   35.6560   29.4640   38.8150 C   0  0  0  0  0  0  0  0  0  0  0  0
   35.5720   28.5870   39.8820 C   0  0  0  0  0  0  0  0  0  0  0  0
   36.3030   28.8240   41.0450 C   0  0  0  0  0  0  0  0  0  0  0  0
   36.4630   28.2060   42.2460 N   0  0  0  0  0  0  0  0  0  0  0  0
   37.3340   28.9380   42.9920 C   0  0  0  0  0  0  0  0  0  0  0  0
   37.6980   30.0040   42.2310 N   0  0  0  0  0  0  0  0  0  0  0  0
   37.0860   29.9580   41.0390 C   0  0  0  0  0  0  0  0  0  0  0  0
   37.1930   30.8440   40.0050 C   0  0  0  0  0  0  0  0  0  0  0  0
   36.5330   31.2850   38.0300 H   0  0  0  0  0  0  0  0  0  0  0  0
   34.9500   27.6900   39.8770 H   0  0  0  0  0  0  0  0  0  0  0  0
   35.9680   27.3190   42.4900 H   0  0  0  0  0  0  0  0  0  0  0  0
   37.6260   28.6590   43.9850 H   0  0  0  0  0  0  0  0  0  0  0  0
   34.7320   28.9600   35.2930 C   0  0  0  0  0  0  0  0  0  0  0  0
   33.3720   28.6280   35.3930 C   0  0  0  0  0  0  0  0  0  0  0  0
   32.7840   28.5770   36.6510 C   0  0  0  0  0  0  0  0  0  0  0  0
   33.5700   28.8580   37.7380 N   0  0  0  0  0  0  0  0  0  0  0  0
   34.8760   29.1760   37.6240 C   0  0  0  0  0  0  0  0  0  0  0  0
   35.4560   29.2280   36.4080 N   0  0  0  0  0  0  0  0  0  0  0  0
   35.2290   29.0090   34.3190 H   0  0  0  0  0  0  0  0  0  0  0  0
   32.7860   28.4110   34.4950 H   0  0  0  0  0  0  0  0  0  0  0  0
   31.7370   28.3250   36.7840 H   0  0  0  0  0  0  0  0  0  0  0  0
   38.0580   32.0250   40.1030 C   0  0  0  0  0  0  0  0  0  0  0  0
   37.6170   33.3280   39.9900 C   0  0  0  0  0  0  0  0  0  0  0  0
   38.7680   34.0930   40.1460 C   0  0  0  0  0  0  0  0  0  0  0  0
   39.8230   33.2310   40.3420 C   0  0  0  0  0  0  0  0  0  0  0  0
   39.3450   31.9970   40.3080 O   0  0  0  0  0  0  0  0  0  0  0  0
   36.5740   33.6060   39.8150 H   0  0  0  0  0  0  0  0  0  0  0  0
   38.7680   35.1710   40.1110 H   0  0  0  0  0  0  0  0  0  0  0  0
   41.2120   33.6300   40.5490 C   0  0  0  0  0  0  0  0  0  0  0  0
   41.7240   34.9110   40.5220 C   0  0  0  0  0  0  0  0  0  0  0  0
   41.1970   35.8390   40.3450 H   0  0  0  0  0  0  0  0  0  0  0  0
   43.0480   34.8680   40.7580 N   0  0  0  0  0  0  0  0  0  0  0  0
   43.7950   35.5920   40.8240 H   0  0  0  0  0  0  0  0  0  0  0  0
   43.3840   33.5740   40.9350 C   0  0  0  0  0  0  0  0  0  0  0  0
   44.2860   33.0040   41.1450 H   0  0  0  0  0  0  0  0  0  0  0  0
   42.2540   32.8190   40.8060 N   0  0  0  0  0  0  0  0  0  0  0  0
  1  9  1  0  0  0  0
  2  1  2  0  0  0  0
  2  3  1  0  0  0  0
  3  4  2  0  0  0  0
  4  5  1  0  0  0  0
  5 12  1  0  0  0  0
  5  6  1  0  0  0  0
  6 13  1  0  0  0  0
  7  6  2  0  0  0  0
  8  4  1  0  0  0  0
  8  7  1  0  0  0  0
  9 23  1  0  0  0  0
  9  8  2  0  0  0  0
 10  1  1  0  0  0  0
 11  3  1  0  0  0  0
 14 15  2  0  0  0  0
 14 19  1  0  0  0  0
 15 16  1  0  0  0  0
 16 22  1  0  0  0  0
 16 17  2  0  0  0  0
 18 17  1  0  0  0  0
 18  2  1  0  0  0  0
 19 18  2  0  0  0  0
 20 14  1  0  0  0  0
 21 15  1  0  0  0  0
 23 27  1  0  0  0  0
 24 23  2  0  0  0  0
 24 25  1  0  0  0  0
 25 26  2  0  0  0  0
 26 30  1  0  0  0  0
 27 26  1  0  0  0  0
 28 24  1  0  0  0  0
 29 25  1  0  0  0  0
 30 37  1  0  0  0  0
 31 30  2  0  0  0  0
 31 33  1  0  0  0  0
 32 31  1  0  0  0  0
 33 34  1  0  0  0  0
 33 35  1  0  0  0  0
 35 36  1  0  0  0  0
 37 35  2  0  0  0  0
M  END
>  <minimizedAffinity>
-6.26372671

$$$$

 OpenBabel03252506583D

 37 41  0  0  0  0  0  0  0  0999 V2000
   36.9920   29.0100   39.7220 C   0  0  0  0  0  0  0  0  0  0  0  0
   36.5040   29.8980   38.7880 C   0  0  0  0  0  0  0  0  0  0  0  0
   36.8670   31.2330   38.7670 C   0  0  0  0  0  0  0  0  0  0  0  0
   37.7590   31.7320   39.7140 C   0  0  0  0  0  0  0  0  0  0  0  0
   38.3210   32.9390   39.9910 N   0  0  0  0  0  0  0  0  0  0  0  0
   39.1360   32.7950   41.0710 C   0  0  0  0  0  0  0  0  0  0  0  0
   39.0610   31.4900   41.4440 N   0  0  0  0  0  0  0  0  0  0  0  0
   38.2290   30.8200   40.6340 C   0  0  0  0  0  0  0  0  0  0  0  0
   37.8920   29.4970   40.6830 C   0  0  0  0  0  0  0  0  0  0  0  0
   36.7280   27.9720   39.7610 H   0  0  0  0  0  0  0  0  0  0  0  0
   36.4890   31.9480   38.0350 H   0  0  0  0  0  0  0  0  0  0  0  0
   38.1180   33.7950   39.4270 H   0  0  0  0  0  0  0  0  0  0  0  0
   39.6970   33.6070   41.4890 H   0  0  0  0  0  0  0  0  0  0  0  0
   33.4830   28.5180   37.2120 C   0  0  0  0  0  0  0  0  0  0  0  0
   33.8320   28.5290   35.8530 C   0  0  0  0  0  0  0  0  0  0  0  0
   35.0850   29.0040   35.4860 C   0  0  0  0  0  0  0  0  0  0  0  0
   35.9220   29.4400   36.4790 N   0  0  0  0  0  0  0  0  0  0  0  0
   35.5710   29.4220   37.7810 C   0  0  0  0  0  0  0  0  0  0  0  0
   34.3580   28.9630   38.1490 N   0  0  0  0  0  0  0  0  0  0  0  0
   32.5040   28.1520   37.5400 H   0  0  0  0  0  0  0  0  0  0  0  0
   33.1270   28.1710   35.0970 H   0  0  0  0  0  0  0  0  0  0  0  0
   35.4030   29.0340   34.4480 H   0  0  0  0  0  0  0  0  0  0  0  0
   38.4520   28.6090   41.7080 C   0  0  0  0  0  0  0  0  0  0  0  0
   37.8150   28.2750   42.8870 C   0  0  0  0  0  0  0  0  0  0  0  0
   38.7090   27.4270   43.5310 C   0  0  0  0  0  0  0  0  0  0  0  0
   39.8180   27.2940   42.7260 C   0  0  0  0  0  0  0  0  0  0  0  0
   39.6150   28.0240   41.6400 O   0  0  0  0  0  0  0  0  0  0  0  0
   36.8250   28.6440   43.1700 H   0  0  0  0  0  0  0  0  0  0  0  0
   38.5100   26.9830   44.4930 H   0  0  0  0  0  0  0  0  0  0  0  0
   40.9930   26.4870   43.0350 C   0  0  0  0  0  0  0  0  0  0  0  0
   41.2380   25.1860   42.6430 C   0  0  0  0  0  0  0  0  0  0  0  0
   40.6120   24.5390   42.0430 H   0  0  0  0  0  0  0  0  0  0  0  0
   42.4290   24.7900   43.1270 N   0  0  0  0  0  0  0  0  0  0  0  0
   42.9780   23.9050   43.0660 H   0  0  0  0  0  0  0  0  0  0  0  0
   42.9460   25.8240   43.8240 C   0  0  0  0  0  0  0  0  0  0  0  0
   43.8460   26.0310   44.3950 H   0  0  0  0  0  0  0  0  0  0  0  0
   42.0610   26.8610   43.7640 N   0  0  0  0  0  0  0  0  0  0  0  0
  1 10  1  0  0  0  0
  1  9  1  0  0  0  0
  2  1  2  0  0  0  0
  3  2  1  0  0  0  0
  3  4  2  0  0  0  0
  4  5  1  0  0  0  0
  4  8  1  0  0  0  0
  5  6  1  0  0  0  0
  6  7  2  0  0  0  0
  6 13  1  0  0  0  0
  8  9  2  0  0  0  0
  8  7  1  0  0  0  0
  9 23  1  0  0  0  0
 11  3  1  0  0  0  0
 12  5  1  0  0  0  0
 14 20  1  0  0  0  0
 14 19  1  0  0  0  0
 15 14  2  0  0  0  0
 16 15  1  0  0  0  0
 16 17  2  0  0  0  0
 17 18  1  0  0  0  0
 18 19  2  0  0  0  0
 18  2  1  0  0  0  0
 21 15  1  0  0  0  0
 22 16  1  0  0  0  0
 23 24  2  0  0  0  0
 24 28  1  0  0  0  0
 24 25  1  0  0  0  0
 25 29  1  0  0  0  0
 26 30  1  0  0  0  0
 26 25  2  0  0  0  0
 27 23  1  0  0  0  0
 27 26  1  0  0  0  0
 30 37  1  0  0  0  0
 31 30  2  0  0  0  0
 31 33  1  0  0  0  0
 32 31  1  0  0  0  0
 33 35  1  0  0  0  0
 34 33  1  0  0  0  0
 35 36  1  0  0  0  0
 37 35  2  0  0  0  0
M  END
>  <minimizedAffinity>
-5.89162111

$$$$

 OpenBabel03252506583D

 37 41  0  0  0  0  0  0  0  0999 V2000
   37.0840   26.3800   40.1480 C   0  0  0  0  0  0  0  0  0  0  0  0
   37.4850   25.0780   40.3550 C   0  0  0  0  0  0  0  0  0  0  0  0
   38.3120   24.7090   41.4010 C   0  0  0  0  0  0  0  0  0  0  0  0
   38.7750   25.6680   42.3010 C   0  0  0  0  0  0  0  0  0  0  0  0
   39.5700   25.6750   43.4040 N   0  0  0  0  0  0  0  0  0  0  0  0
   39.6540   26.9520   43.8640 C   0  0  0  0  0  0  0  0  0  0  0  0
   38.9020   27.7170   43.0290 N   0  0  0  0  0  0  0  0  0  0  0  0
   38.3560   26.9600   42.0670 C   0  0  0  0  0  0  0  0  0  0  0  0
   37.5410   27.3580   41.0450 C   0  0  0  0  0  0  0  0  0  0  0  0
   36.4450   26.6920   39.3470 H   0  0  0  0  0  0  0  0  0  0  0  0
   38.6390   23.6830   41.5780 H   0  0  0  0  0  0  0  0  0  0  0  0
   40.0110   24.8060   43.7820 H   0  0  0  0  0  0  0  0  0  0  0  0
   40.2260   27.2220   44.7300 H   0  0  0  0  0  0  0  0  0  0  0  0
   36.2870   23.3970   37.3120 C   0  0  0  0  0  0  0  0  0  0  0  0
   36.1650   22.0670   37.7430 C   0  0  0  0  0  0  0  0  0  0  0  0
   36.4900   21.7540   39.0570 C   0  0  0  0  0  0  0  0  0  0  0  0
   36.9170   22.7710   39.8720 N   0  0  0  0  0  0  0  0  0  0  0  0
   37.0280   24.0440   39.4420 C   0  0  0  0  0  0  0  0  0  0  0  0
   36.7150   24.3590   38.1690 N   0  0  0  0  0  0  0  0  0  0  0  0
   36.0410   23.6810   36.2840 H   0  0  0  0  0  0  0  0  0  0  0  0
   35.8210   21.2900   37.0540 H   0  0  0  0  0  0  0  0  0  0  0  0
   36.4140   20.7420   39.4400 H   0  0  0  0  0  0  0  0  0  0  0  0
   37.1540   28.7650   40.8870 C   0  0  0  0  0  0  0  0  0  0  0  0
   35.8520   29.2220   40.8890 C   0  0  0  0  0  0  0  0  0  0  0  0
   35.9720   30.5960   40.7110 C   0  0  0  0  0  0  0  0  0  0  0  0
   37.3120   30.8930   40.6130 C   0  0  0  0  0  0  0  0  0  0  0  0
   37.9840   29.7570   40.7250 O   0  0  0  0  0  0  0  0  0  0  0  0
   34.9780   28.5750   41.0090 H   0  0  0  0  0  0  0  0  0  0  0  0
   35.1230   31.2600   40.6660 H   0  0  0  0  0  0  0  0  0  0  0  0
   37.8690   32.2280   40.4200 C   0  0  0  0  0  0  0  0  0  0  0  0
   37.3520   33.2430   39.6410 C   0  0  0  0  0  0  0  0  0  0  0  0
   36.4520   33.2330   39.0400 H   0  0  0  0  0  0  0  0  0  0  0  0
   38.1520   34.3210   39.7220 N   0  0  0  0  0  0  0  0  0  0  0  0
   38.1270   35.2740   39.3010 H   0  0  0  0  0  0  0  0  0  0  0  0
   39.1740   34.0030   40.5440 C   0  0  0  0  0  0  0  0  0  0  0  0
   40.0640   34.4880   40.9360 H   0  0  0  0  0  0  0  0  0  0  0  0
   38.9950   32.7190   40.9690 N   0  0  0  0  0  0  0  0  0  0  0  0
  1  2  2  0  0  0  0
  1  9  1  0  0  0  0
  2  3  1  0  0  0  0
  3 11  1  0  0  0  0
  3  4  2  0  0  0  0
  4  5  1  0  0  0  0
  5 12  1  0  0  0  0
  5  6  1  0  0  0  0
  6 13  1  0  0  0  0
  7  6  2  0  0  0  0
  8  4  1  0  0  0  0
  8  7  1  0  0  0  0
  9  8  2  0  0  0  0
 10  1  1  0  0  0  0
 14 15  2  0  0  0  0
 14 19  1  0  0  0  0
 15 16  1  0  0  0  0
 16 22  1  0  0  0  0
 16 17  2  0  0  0  0
 18 17  1  0  0  0  0
 18  2  1  0  0  0  0
 19 18  2  0  0  0  0
 20 14  1  0  0  0  0
 21 15  1  0  0  0  0
 23 24  2  0  0  0  0
 23  9  1  0  0  0  0
 24 28  1  0  0  0  0
 25 24  1  0  0  0  0
 26 25  2  0  0  0  0
 26 27  1  0  0  0  0
 27 23  1  0  0  0  0
 29 25  1  0  0  0  0
 30 26  1  0  0  0  0
 30 37  1  0  0  0  0
 31 33  1  0  0  0  0
 31 30  2  0  0  0  0
 32 31  1  0  0  0  0
 33 35  1  0  0  0  0
 34 33  1  0  0  0  0
 35 36  1  0  0  0  0
 35 37  2  0  0  0  0
M  END
>  <minimizedAffinity>
-5.86194754

$$$$

 OpenBabel03252506583D

 37 41  0  0  0  0  0  0  0  0999 V2000
   40.6340   30.5740   41.5220 C   0  0  0  0  0  0  0  0  0  0  0  0
   40.6050   31.8960   41.1350 C   0  0  0  0  0  0  0  0  0  0  0  0
   39.4330   32.5520   40.8060 C   0  0  0  0  0  0  0  0  0  0  0  0
   38.2140   31.8790   40.8590 C   0  0  0  0  0  0  0  0  0  0  0  0
   36.9110   32.1870   40.6160 N   0  0  0  0  0  0  0  0  0  0  0  0
   36.1580   31.0790   40.8490 C   0  0  0  0  0  0  0  0  0  0  0  0
   37.0160   30.0980   41.2350 N   0  0  0  0  0  0  0  0  0  0  0  0
   38.2750   30.5580   41.2490 C   0  0  0  0  0  0  0  0  0  0  0  0
   39.4140   29.8810   41.5800 C   0  0  0  0  0  0  0  0  0  0  0  0
   41.5270   30.0420   41.7810 H   0  0  0  0  0  0  0  0  0  0  0  0
   39.3930   33.5980   40.4980 H   0  0  0  0  0  0  0  0  0  0  0  0
   36.6090   33.1370   40.3050 H   0  0  0  0  0  0  0  0  0  0  0  0
   35.0920   31.0640   40.7280 H   0  0  0  0  0  0  0  0  0  0  0  0
   43.3340   34.0160   39.8770 C   0  0  0  0  0  0  0  0  0  0  0  0
   44.2170   34.0320   40.9680 C   0  0  0  0  0  0  0  0  0  0  0  0
   43.8790   33.3260   42.1160 C   0  0  0  0  0  0  0  0  0  0  0  0
   42.6900   32.6450   42.1230 N   0  0  0  0  0  0  0  0  0  0  0  0
   41.8520   32.6390   41.0660 C   0  0  0  0  0  0  0  0  0  0  0  0
   42.1710   33.3200   39.9470 N   0  0  0  0  0  0  0  0  0  0  0  0
   43.5660   34.5600   38.9570 H   0  0  0  0  0  0  0  0  0  0  0  0
   45.1550   34.5910   40.9140 H   0  0  0  0  0  0  0  0  0  0  0  0
   44.5260   33.3060   42.9870 H   0  0  0  0  0  0  0  0  0  0  0  0
   39.3690   28.4710   41.9840 C   0  0  0  0  0  0  0  0  0  0  0  0
   39.6980   28.0070   43.2410 C   0  0  0  0  0  0  0  0  0  0  0  0
   39.5080   26.6320   43.1590 C   0  0  0  0  0  0  0  0  0  0  0  0
   39.0830   26.3410   41.8830 C   0  0  0  0  0  0  0  0  0  0  0  0
   39.0140   27.4810   41.2130 O   0  0  0  0  0  0  0  0  0  0  0  0
   40.0260   28.6510   44.0630 H   0  0  0  0  0  0  0  0  0  0  0  0
   39.6810   25.9630   43.9870 H   0  0  0  0  0  0  0  0  0  0  0  0
   38.7700   25.0070   41.3810 C   0  0  0  0  0  0  0  0  0  0  0  0
   37.9560   24.0630   41.9730 C   0  0  0  0  0  0  0  0  0  0  0  0
   37.4090   24.1400   42.9040 H   0  0  0  0  0  0  0  0  0  0  0  0
   37.9170   22.9600   41.2050 N   0  0  0  0  0  0  0  0  0  0  0  0
   37.4350   22.0390   41.2830 H   0  0  0  0  0  0  0  0  0  0  0  0
   38.6990   23.1900   40.1290 C   0  0  0  0  0  0  0  0  0  0  0  0
   39.0070   22.6530   39.2360 H   0  0  0  0  0  0  0  0  0  0  0  0
   39.2200   24.4470   40.2430 N   0  0  0  0  0  0  0  0  0  0  0  0
  1  9  1  0  0  0  0
  1 10  1  0  0  0  0
  2  1  2  0  0  0  0
  3  4  2  0  0  0  0
  3  2  1  0  0  0  0
  4  8  1  0  0  0  0
  5  6  1  0  0  0  0
  5  4  1  0  0  0  0
  6  7  2  0  0  0  0
  7  8  1  0  0  0  0
  8  9  2  0  0  0  0
  9 23  1  0  0  0  0
 11  3  1  0  0  0  0
 12  5  1  0  0  0  0
 13  6  1  0  0  0  0
 14 19  2  0  0  0  0
 14 15  1  0  0  0  0
 15 16  2  0  0  0  0
 16 17  1  0  0  0  0
 16 22  1  0  0  0  0
 18  2  1  0  0  0  0
 18 17  2  0  0  0  0
 19 18  1  0  0  0  0
 20 14  1  0  0  0  0
 21 15  1  0  0  0  0
 23 24  2  0  0  0  0
 24 28  1  0  0  0  0
 25 24  1  0  0  0  0
 25 29  1  0  0  0  0
 26 25  2  0  0  0  0
 27 26  1  0  0  0  0
 27 23  1  0  0  0  0
 30 26  1  0  0  0  0
 30 31  2  0  0  0  0
 31 32  1  0  0  0  0
 33 34  1  0  0  0  0
 33 31  1  0  0  0  0
 35 37  2  0  0  0  0
 35 33  1  0  0  0  0
 36 35  1  0  0  0  0
 37 30  1  0  0  0  0
M  END
>  <minimizedAffinity>
-5.85962296

$$$$

 OpenBabel03252506583D

 37 41  0  0  0  0  0  0  0  0999 V2000
   37.0900   29.5610   38.0860 C   0  0  0  0  0  0  0  0  0  0  0  0
   37.2240   30.5570   37.1430 C   0  0  0  0  0  0  0  0  0  0  0  0
   37.6750   31.8260   37.4580 C   0  0  0  0  0  0  0  0  0  0  0  0
   38.0180   32.1430   38.7710 C   0  0  0  0  0  0  0  0  0  0  0  0
   38.4790   33.2420   39.4260 N   0  0  0  0  0  0  0  0  0  0  0  0
   38.6260   32.9270   40.7410 C   0  0  0  0  0  0  0  0  0  0  0  0
   38.2480   31.6280   40.8750 N   0  0  0  0  0  0  0  0  0  0  0  0
   37.8730   31.1260   39.6900 C   0  0  0  0  0  0  0  0  0  0  0  0
   37.4300   29.8640   39.4140 C   0  0  0  0  0  0  0  0  0  0  0  0
   36.7430   28.5710   37.8700 H   0  0  0  0  0  0  0  0  0  0  0  0
   37.7860   32.6260   36.7230 H   0  0  0  0  0  0  0  0  0  0  0  0
   38.6690   34.1460   38.9390 H   0  0  0  0  0  0  0  0  0  0  0  0
   38.9780   33.6290   41.4720 H   0  0  0  0  0  0  0  0  0  0  0  0
   36.3750   28.7270   34.0700 C   0  0  0  0  0  0  0  0  0  0  0  0
   36.2280   29.7690   33.1410 C   0  0  0  0  0  0  0  0  0  0  0  0
   36.4180   31.0780   33.5660 C   0  0  0  0  0  0  0  0  0  0  0  0
   36.7410   31.2850   34.8810 N   0  0  0  0  0  0  0  0  0  0  0  0
   36.8790   30.2720   35.7610 C   0  0  0  0  0  0  0  0  0  0  0  0
   36.6980   28.9980   35.3590 N   0  0  0  0  0  0  0  0  0  0  0  0
   36.2330   27.6830   33.7720 H   0  0  0  0  0  0  0  0  0  0  0  0
   35.9680   29.5520   32.1010 H   0  0  0  0  0  0  0  0  0  0  0  0
   36.3160   31.9200   32.8880 H   0  0  0  0  0  0  0  0  0  0  0  0
   37.3130   28.8530   40.4710 C   0  0  0  0  0  0  0  0  0  0  0  0
   36.3030   28.8180   41.4110 C   0  0  0  0  0  0  0  0  0  0  0  0
   36.6000   27.7060   42.1910 C   0  0  0  0  0  0  0  0  0  0  0  0
   37.7500   27.1370   41.6930 C   0  0  0  0  0  0  0  0  0  0  0  0
   38.1410   27.8630   40.6570 O   0  0  0  0  0  0  0  0  0  0  0  0
   35.4880   29.5460   41.4580 H   0  0  0  0  0  0  0  0  0  0  0  0
   35.9950   27.3950   43.0280 H   0  0  0  0  0  0  0  0  0  0  0  0
   38.4030   25.9460   42.2280 C   0  0  0  0  0  0  0  0  0  0  0  0
   37.9980   24.6350   42.0770 C   0  0  0  0  0  0  0  0  0  0  0  0
   37.1360   24.2580   41.5430 H   0  0  0  0  0  0  0  0  0  0  0  0
   38.8610   23.8250   42.7160 N   0  0  0  0  0  0  0  0  0  0  0  0
   38.9230   22.7920   42.8470 H   0  0  0  0  0  0  0  0  0  0  0  0
   39.8100   24.6050   43.2730 C   0  0  0  0  0  0  0  0  0  0  0  0
   40.7050   24.4690   43.8740 H   0  0  0  0  0  0  0  0  0  0  0  0
   39.5240   25.9050   42.9700 N   0  0  0  0  0  0  0  0  0  0  0  0
  1  9  1  0  0  0  0
  2  3  1  0  0  0  0
  2  1  2  0  0  0  0
  3  4  2  0  0  0  0
  4  5  1  0  0  0  0
  4  8  1  0  0  0  0
  5  6  1  0  0  0  0
  6  7  2  0  0  0  0
  6 13  1  0  0  0  0
  8  7  1  0  0  0  0
  9  8  2  0  0  0  0
  9 23  1  0  0  0  0
 10  1  1  0  0  0  0
 11  3  1  0  0  0  0
 12  5  1  0  0  0  0
 14 19  1  0  0  0  0
 15 16  1  0  0  0  0
 15 14  2  0  0  0  0
 16 17  2  0  0  0  0
 17 18  1  0  0  0  0
 18  2  1  0  0  0  0
 19 18  2  0  0  0  0
 20 14  1  0  0  0  0
 21 15  1  0  0  0  0
 22 16  1  0  0  0  0
 23 27  1  0  0  0  0
 23 24  2  0  0  0  0
 24 28  1  0  0  0  0
 24 25  1  0  0  0  0
 25 29  1  0  0  0  0
 26 25  2  0  0  0  0
 26 30  1  0  0  0  0
 27 26  1  0  0  0  0
 30 37  1  0  0  0  0
 31 30  2  0  0  0  0
 31 33  1  0  0  0  0
 32 31  1  0  0  0  0
 33 34  1  0  0  0  0
 33 35  1  0  0  0  0
 35 36  1  0  0  0  0
 37 35  2  0  0  0  0
M  END
>  <minimizedAffinity>
-5.73059559

$$$$

 OpenBabel03252506583D

 37 41  0  0  0  0  0  0  0  0999 V2000
   36.3230   26.7790   38.7440 C   0  0  0  0  0  0  0  0  0  0  0  0
   36.7610   26.3580   39.9800 C   0  0  0  0  0  0  0  0  0  0  0  0
   36.8780   27.2130   41.0620 C   0  0  0  0  0  0  0  0  0  0  0  0
   36.5460   28.5600   40.9300 C   0  0  0  0  0  0  0  0  0  0  0  0
   36.5360   29.6520   41.7410 N   0  0  0  0  0  0  0  0  0  0  0  0
   36.1000   30.7190   41.0190 C   0  0  0  0  0  0  0  0  0  0  0  0
   35.8470   30.2620   39.7630 N   0  0  0  0  0  0  0  0  0  0  0  0
   36.1110   28.9510   39.6810 C   0  0  0  0  0  0  0  0  0  0  0  0
   35.9850   28.1340   38.5940 C   0  0  0  0  0  0  0  0  0  0  0  0
   36.2240   26.1390   37.8910 H   0  0  0  0  0  0  0  0  0  0  0  0
   37.2240   26.8950   42.0470 H   0  0  0  0  0  0  0  0  0  0  0  0
   36.8260   29.6080   42.7430 H   0  0  0  0  0  0  0  0  0  0  0  0
   36.0020   31.7020   41.4350 H   0  0  0  0  0  0  0  0  0  0  0  0
   38.3960   23.3170   41.2440 C   0  0  0  0  0  0  0  0  0  0  0  0
   37.7700   22.3140   40.4890 C   0  0  0  0  0  0  0  0  0  0  0  0
   36.8020   22.6780   39.5610 C   0  0  0  0  0  0  0  0  0  0  0  0
   36.5060   24.0100   39.4310 N   0  0  0  0  0  0  0  0  0  0  0  0
   37.1180   24.9620   40.1650 C   0  0  0  0  0  0  0  0  0  0  0  0
   38.0590   24.6200   41.0680 N   0  0  0  0  0  0  0  0  0  0  0  0
   39.1640   23.0690   41.9840 H   0  0  0  0  0  0  0  0  0  0  0  0
   38.0400   21.2640   40.6290 H   0  0  0  0  0  0  0  0  0  0  0  0
   36.2870   21.9410   38.9530 H   0  0  0  0  0  0  0  0  0  0  0  0
   35.5100   28.6530   37.3060 C   0  0  0  0  0  0  0  0  0  0  0  0
   34.1830   28.7350   36.9370 C   0  0  0  0  0  0  0  0  0  0  0  0
   34.2160   29.2780   35.6570 C   0  0  0  0  0  0  0  0  0  0  0  0
   35.5340   29.4920   35.3250 C   0  0  0  0  0  0  0  0  0  0  0  0
   36.2750   29.1000   36.3490 O   0  0  0  0  0  0  0  0  0  0  0  0
   33.3520   28.4190   37.5750 H   0  0  0  0  0  0  0  0  0  0  0  0
   33.3280   29.4740   35.0780 H   0  0  0  0  0  0  0  0  0  0  0  0
   36.0060   30.0530   34.0630 C   0  0  0  0  0  0  0  0  0  0  0  0
   36.5760   29.3690   33.0080 C   0  0  0  0  0  0  0  0  0  0  0  0
   36.7740   28.3080   32.9270 H   0  0  0  0  0  0  0  0  0  0  0  0
   36.8780   30.2350   32.0240 N   0  0  0  0  0  0  0  0  0  0  0  0
   37.3090   30.1370   31.0800 H   0  0  0  0  0  0  0  0  0  0  0  0
   36.5070   31.4640   32.4410 C   0  0  0  0  0  0  0  0  0  0  0  0
   36.5240   32.4780   32.0520 H   0  0  0  0  0  0  0  0  0  0  0  0
   35.9730   31.3460   33.6920 N   0  0  0  0  0  0  0  0  0  0  0  0
  1  2  1  0  0  0  0
  2 18  1  0  0  0  0
  2  3  2  0  0  0  0
  3 11  1  0  0  0  0
  4  3  1  0  0  0  0
  4  5  1  0  0  0  0
  5 12  1  0  0  0  0
  6 13  1  0  0  0  0
  6  5  1  0  0  0  0
  7  6  2  0  0  0  0
  8  7  1  0  0  0  0
  8  4  2  0  0  0  0
  9  1  2  0  0  0  0
  9  8  1  0  0  0  0
 10  1  1  0  0  0  0
 14 20  1  0  0  0  0
 15 21  1  0  0  0  0
 15 14  2  0  0  0  0
 16 15  1  0  0  0  0
 17 16  2  0  0  0  0
 17 18  1  0  0  0  0
 18 19  2  0  0  0  0
 19 14  1  0  0  0  0
 22 16  1  0  0  0  0
 23  9  1  0  0  0  0
 24 23  2  0  0  0  0
 24 28  1  0  0  0  0
 25 24  1  0  0  0  0
 26 25  2  0  0  0  0
 26 27  1  0  0  0  0
 27 23  1  0  0  0  0
 29 25  1  0  0  0  0
 30 26  1  0  0  0  0
 31 30  2  0  0  0  0
 32 31  1  0  0  0  0
 33 35  1  0  0  0  0
 33 31  1  0  0  0  0
 34 33  1  0  0  0  0
 35 37  2  0  0  0  0
 36 35  1  0  0  0  0
 37 30  1  0  0  0  0
M  END
>  <minimizedAffinity>
-5.7248373

$$$$

 OpenBabel03252506583D

 37 41  0  0  0  0  0  0  0  0999 V2000
   37.6360   30.9080   39.9820 C   0  0  0  0  0  0  0  0  0  0  0  0
   38.4940   31.3230   40.9770 C   0  0  0  0  0  0  0  0  0  0  0  0
   38.6610   30.6230   42.1580 C   0  0  0  0  0  0  0  0  0  0  0  0
   37.9490   29.4450   42.3820 C   0  0  0  0  0  0  0  0  0  0  0  0
   37.8600   28.5280   43.3830 N   0  0  0  0  0  0  0  0  0  0  0  0
   36.9680   27.5710   43.0090 C   0  0  0  0  0  0  0  0  0  0  0  0
   36.5190   27.9190   41.7740 N   0  0  0  0  0  0  0  0  0  0  0  0
   37.1000   29.0560   41.3680 C   0  0  0  0  0  0  0  0  0  0  0  0
   36.9110   29.7230   40.1910 C   0  0  0  0  0  0  0  0  0  0  0  0
   37.4880   31.4310   39.0590 H   0  0  0  0  0  0  0  0  0  0  0  0
   39.3350   30.9380   42.9560 H   0  0  0  0  0  0  0  0  0  0  0  0
   38.4140   28.6060   44.2650 H   0  0  0  0  0  0  0  0  0  0  0  0
   36.7210   26.7330   43.6300 H   0  0  0  0  0  0  0  0  0  0  0  0
   41.3200   33.6390   40.5700 C   0  0  0  0  0  0  0  0  0  0  0  0
   40.6680   34.8730   40.4290 C   0  0  0  0  0  0  0  0  0  0  0  0
   39.2800   34.9070   40.4720 C   0  0  0  0  0  0  0  0  0  0  0  0
   38.6140   33.7230   40.6530 N   0  0  0  0  0  0  0  0  0  0  0  0
   39.2570   32.5450   40.7880 C   0  0  0  0  0  0  0  0  0  0  0  0
   40.6040   32.5000   40.7470 N   0  0  0  0  0  0  0  0  0  0  0  0
   42.4130   33.5720   40.5410 H   0  0  0  0  0  0  0  0  0  0  0  0
   41.2440   35.7920   40.2860 H   0  0  0  0  0  0  0  0  0  0  0  0
   38.7270   35.8350   40.3670 H   0  0  0  0  0  0  0  0  0  0  0  0
   35.9800   29.2210   39.1750 C   0  0  0  0  0  0  0  0  0  0  0  0
   34.6100   29.1550   39.3340 C   0  0  0  0  0  0  0  0  0  0  0  0
   34.1520   28.6220   38.1340 C   0  0  0  0  0  0  0  0  0  0  0  0
   35.2450   28.3970   37.3280 C   0  0  0  0  0  0  0  0  0  0  0  0
   36.3230   28.7740   37.9990 O   0  0  0  0  0  0  0  0  0  0  0  0
   34.0850   29.4740   40.2390 H   0  0  0  0  0  0  0  0  0  0  0  0
   33.1090   28.4400   37.9310 H   0  0  0  0  0  0  0  0  0  0  0  0
   35.1990   27.8430   35.9790 C   0  0  0  0  0  0  0  0  0  0  0  0
   36.2260   27.8080   35.0570 C   0  0  0  0  0  0  0  0  0  0  0  0
   37.2360   28.1790   35.1660 H   0  0  0  0  0  0  0  0  0  0  0  0
   35.7930   27.2160   33.9290 N   0  0  0  0  0  0  0  0  0  0  0  0
   36.2370   26.9930   33.0120 H   0  0  0  0  0  0  0  0  0  0  0  0
   34.5020   26.8750   34.1220 C   0  0  0  0  0  0  0  0  0  0  0  0
   33.7100   26.3920   33.5560 H   0  0  0  0  0  0  0  0  0  0  0  0
   34.1430   27.2620   35.3810 N   0  0  0  0  0  0  0  0  0  0  0  0
  1  9  2  0  0  0  0
  1  2  1  0  0  0  0
  2  3  2  0  0  0  0
  3  4  1  0  0  0  0
  3 11  1  0  0  0  0
  4  5  1  0  0  0  0
  5 12  1  0  0  0  0
  6  5  1  0  0  0  0
  6 13  1  0  0  0  0
  7  6  2  0  0  0  0
  8  7  1  0  0  0  0
  8  4  2  0  0  0  0
  9  8  1  0  0  0  0
 10  1  1  0  0  0  0
 14 19  1  0  0  0  0
 15 16  1  0  0  0  0
 15 14  2  0  0  0  0
 16 17  2  0  0  0  0
 17 18  1  0  0  0  0
 18  2  1  0  0  0  0
 19 18  2  0  0  0  0
 20 14  1  0  0  0  0
 21 15  1  0  0  0  0
 22 16  1  0  0  0  0
 23 24  2  0  0  0  0
 23  9  1  0  0  0  0
 24 28  1  0  0  0  0
 25 24  1  0  0  0  0
 26 27  1  0  0  0  0
 26 25  2  0  0  0  0
 27 23  1  0  0  0  0
 29 25  1  0  0  0  0
 30 26  1  0  0  0  0
 31 32  1  0  0  0  0
 31 30  2  0  0  0  0
 33 35  1  0  0  0  0
 33 31  1  0  0  0  0
 34 33  1  0  0  0  0
 35 37  2  0  0  0  0
 36 35  1  0  0  0  0
 37 30  1  0  0  0  0
M  END
>  <minimizedAffinity>
-5.6831255

$$$$
