
 OpenBabel03252507063D

 23 24  0  0  0  0  0  0  0  0999 V2000
   44.5430   35.9860   44.4760 C   0  0  0  0  0  0  0  0  0  0  0  0
   45.1870   35.9190   43.2280 C   0  0  0  0  0  0  0  0  0  0  0  0
   46.1070   34.9060   42.9960 C   0  0  0  0  0  0  0  0  0  0  0  0
   46.3510   34.0080   44.0020 N   0  0  0  0  0  0  0  0  0  0  0  0
   45.7220   34.0930   45.1870 C   0  0  0  0  0  0  0  0  0  0  0  0
   44.8280   35.0630   45.4340 N   0  0  0  0  0  0  0  0  0  0  0  0
   43.8210   36.7470   44.7170 H   0  0  0  0  0  0  0  0  0  0  0  0
   44.9320   36.6820   42.4760 H   0  0  0  0  0  0  0  0  0  0  0  0
   46.0480   33.0880   46.1950 C   0  0  0  0  0  0  0  0  0  0  0  0
   45.2940   32.9980   47.3550 C   0  0  0  0  0  0  0  0  0  0  0  0
   44.4330   33.5460   47.7390 H   0  0  0  0  0  0  0  0  0  0  0  0
   45.8050   32.0010   48.1010 N   0  0  0  0  0  0  0  0  0  0  0  0
   45.5810   31.5670   49.0340 H   0  0  0  0  0  0  0  0  0  0  0  0
   46.8580   31.4590   47.4460 C   0  0  0  0  0  0  0  0  0  0  0  0
   47.5580   30.6550   47.6540 H   0  0  0  0  0  0  0  0  0  0  0  0
   47.0140   32.1260   46.2670 N   0  0  0  0  0  0  0  0  0  0  0  0
   46.7200   34.8740   41.7560 O   0  0  0  0  0  0  0  0  0  0  0  0
   48.6880   33.2700   41.0450 O   0  0  0  0  0  0  0  0  0  0  0  0
   48.4170   34.6410   41.6710 P   0  0  0  0  0  0  0  0  0  0  0  0
   49.0890   35.8850   40.7830 O   0  0  0  0  0  0  0  0  0  0  0  0
   49.8940   36.2070   41.2610 H   0  0  0  0  0  0  0  0  0  0  0  0
   49.0050   34.6090   43.2680 O   0  0  0  0  0  0  0  0  0  0  0  0
   48.8860   33.6710   43.6080 H   0  0  0  0  0  0  0  0  0  0  0  0
  1  7  1  0  0  0  0
  1  6  1  0  0  0  0
  2  1  2  0  0  0  0
  3  2  1  0  0  0  0
  3  4  2  0  0  0  0
  4  5  1  0  0  0  0
  5  6  2  0  0  0  0
  5  9  1  0  0  0  0
  8  2  1  0  0  0  0
  9 16  1  0  0  0  0
  9 10  2  0  0  0  0
 10 11  1  0  0  0  0
 10 12  1  0  0  0  0
 12 13  1  0  0  0  0
 14 15  1  0  0  0  0
 14 12  1  0  0  0  0
 16 14  2  0  0  0  0
 17  3  1  0  0  0  0
 18 19  2  0  0  0  0
 19 17  1  0  0  0  0
 19 22  1  0  0  0  0
 20 21  1  0  0  0  0
 20 19  1  0  0  0  0
 22 23  1  0  0  0  0
M  END
>  <minimizedAffinity>
-5.3232317

>  <minimizedRMSD>
0.442806423

$$$$
