
 OpenBabel03252508283D

 38 41  0  0  1  0  0  0  0  0999 V2000
   41.4500   33.5810   39.3100 N   0  0  0  0  0  0  0  0  0  0  0  0
   41.5220   33.1950   40.7220 C   0  0  2  0  0  0  0  0  0  0  0  0
   40.3140   33.5990   41.4870 C   0  0  0  0  0  0  0  0  0  0  0  0
   39.2300   34.0350   40.6250 N   0  0  0  0  0  0  0  0  0  0  0  0
   39.5930   35.0110   39.6610 C   0  0  0  0  0  0  0  0  0  0  0  0
   41.0670   35.0120   39.3450 C   0  0  2  0  0  0  0  0  0  0  0  0
   40.7790   33.0210   38.7680 H   0  0  0  0  0  0  0  0  0  0  0  0
   41.6350   32.1000   40.7550 H   0  0  0  0  0  0  0  0  0  0  0  0
   39.8900   32.7160   42.0500 H   0  0  0  0  0  0  0  0  0  0  0  0
   40.4090   34.4810   42.1430 H   0  0  0  0  0  0  0  0  0  0  0  0
   38.7730   33.1820   40.2200 H   0  0  0  0  0  0  0  0  0  0  0  0
   39.3410   36.0300   40.0160 H   0  0  0  0  0  0  0  0  0  0  0  0
   39.0070   34.8620   38.7250 H   0  0  0  0  0  0  0  0  0  0  0  0
   41.6060   35.4600   40.1870 H   0  0  0  0  0  0  0  0  0  0  0  0
   41.3640   35.7030   38.0900 C   0  0  0  0  0  0  0  0  0  0  0  0
   42.5350   35.9360   37.4330 C   0  0  0  0  0  0  0  0  0  0  0  0
   43.5060   35.6170   37.7750 H   0  0  0  0  0  0  0  0  0  0  0  0
   42.3270   36.6240   36.2950 N   0  0  0  0  0  0  0  0  0  0  0  0
   42.9870   36.9710   35.5540 H   0  0  0  0  0  0  0  0  0  0  0  0
   41.0110   36.8310   36.2240 C   0  0  0  0  0  0  0  0  0  0  0  0
   40.4350   37.3530   35.4470 H   0  0  0  0  0  0  0  0  0  0  0  0
   40.4170   36.2820   37.2950 N   0  0  0  0  0  0  0  0  0  0  0  0
   44.7270   34.3120   41.9440 C   0  0  0  0  0  0  0  0  0  0  0  0
   43.8450   35.3310   42.3230 C   0  0  0  0  0  0  0  0  0  0  0  0
   42.5610   35.0180   41.9150 C   0  0  0  0  0  0  0  0  0  0  0  0
   42.6850   33.8410   41.3060 N   0  0  0  0  0  0  0  0  0  0  0  0
   43.9460   33.4280   41.3230 N   0  0  0  0  0  0  0  0  0  0  0  0
   44.2580   36.1940   42.8600 H   0  0  0  0  0  0  0  0  0  0  0  0
   41.8730   35.8020   42.2130 H   0  0  0  0  0  0  0  0  0  0  0  0
   48.4290   34.9660   41.9520 C   0  0  0  0  0  0  0  0  0  0  0  0
   47.0590   35.0930   41.5520 C   0  0  0  0  0  0  0  0  0  0  0  0
   46.1620   34.2990   42.2230 C   0  0  0  0  0  0  0  0  0  0  0  0
   46.6010   33.4630   43.1990 N   0  0  0  0  0  0  0  0  0  0  0  0
   47.8950   33.3600   43.5600 C   0  0  0  0  0  0  0  0  0  0  0  0
   48.7880   34.1180   42.9240 N   0  0  0  0  0  0  0  0  0  0  0  0
   49.1240   35.5990   41.4110 H   0  0  0  0  0  0  0  0  0  0  0  0
   46.7300   35.7560   40.7810 H   0  0  0  0  0  0  0  0  0  0  0  0
   48.1370   32.6670   44.3440 H   0  0  0  0  0  0  0  0  0  0  0  0
  1  6  1  0  0  0  0
  1  2  1  0  0  0  0
  2  8  1  1  0  0  0
  2 26  1  0  0  0  0
  2  3  1  0  0  0  0
  3  9  1  0  0  0  0
  3 10  1  0  0  0  0
  4  3  1  0  0  0  0
  5 12  1  0  0  0  0
  5  4  1  0  0  0  0
  6  5  1  0  0  0  0
  6 14  1  1  0  0  0
  7  1  1  0  0  0  0
 11  4  1  0  0  0  0
 13  5  1  0  0  0  0
 15  6  1  0  0  0  0
 16 17  1  0  0  0  0
 16 15  2  0  0  0  0
 18 16  1  0  0  0  0
 19 18  1  0  0  0  0
 20 18  1  0  0  0  0
 20 22  2  0  0  0  0
 21 20  1  0  0  0  0
 22 15  1  0  0  0  0
 23 32  1  0  0  0  0
 23 24  1  0  0  0  0
 24 28  1  0  0  0  0
 25 29  1  0  0  0  0
 25 24  2  0  0  0  0
 26 27  1  0  0  0  0
 26 25  1  0  0  0  0
 27 23  2  0  0  0  0
 30 35  1  0  0  0  0
 31 30  2  0  0  0  0
 31 32  1  0  0  0  0
 32 33  2  0  0  0  0
 33 34  1  0  0  0  0
 34 38  1  0  0  0  0
 35 34  2  0  0  0  0
 36 30  1  0  0  0  0
 37 31  1  0  0  0  0
M  END
>  <minimizedAffinity>
-4.53065729

>  <minimizedRMSD>
1.53823447

$$$$
