
 OpenBabel03252508283D

 38 41  0  0  1  0  0  0  0  0999 V2000
   41.1450   33.1020   39.6350 N   0  0  0  0  0  0  0  0  0  0  0  0
   41.4180   32.7170   41.0230 C   0  0  2  0  0  0  0  0  0  0  0  0
   40.2690   32.9860   41.9260 C   0  0  0  0  0  0  0  0  0  0  0  0
   39.0550   33.3110   41.2010 N   0  0  0  0  0  0  0  0  0  0  0  0
   39.2020   34.3270   40.2200 C   0  0  0  0  0  0  0  0  0  0  0  0
   40.6220   34.4850   39.7400 C   0  0  2  0  0  0  0  0  0  0  0  0
   40.4790   32.4790   39.1620 H   0  0  0  0  0  0  0  0  0  0  0  0
   41.6460   31.6390   41.0220 H   0  0  0  0  0  0  0  0  0  0  0  0
   40.0070   32.0590   42.5170 H   0  0  0  0  0  0  0  0  0  0  0  0
   40.3470   33.8680   42.5840 H   0  0  0  0  0  0  0  0  0  0  0  0
   38.6460   32.4170   40.8340 H   0  0  0  0  0  0  0  0  0  0  0  0
   38.8880   35.3110   40.6210 H   0  0  0  0  0  0  0  0  0  0  0  0
   38.5320   34.1240   39.3540 H   0  0  0  0  0  0  0  0  0  0  0  0
   41.2040   34.9810   40.5250 H   0  0  0  0  0  0  0  0  0  0  0  0
   40.7000   35.2120   38.4730 C   0  0  0  0  0  0  0  0  0  0  0  0
   39.9480   35.1460   37.3380 C   0  0  0  0  0  0  0  0  0  0  0  0
   39.1070   34.4860   37.1960 H   0  0  0  0  0  0  0  0  0  0  0  0
   40.3890   36.0140   36.4100 N   0  0  0  0  0  0  0  0  0  0  0  0
   40.0560   36.2300   35.4360 H   0  0  0  0  0  0  0  0  0  0  0  0
   41.4320   36.6410   36.9560 C   0  0  0  0  0  0  0  0  0  0  0  0
   42.0700   37.4230   36.5240 H   0  0  0  0  0  0  0  0  0  0  0  0
   41.6330   36.1700   38.1970 N   0  0  0  0  0  0  0  0  0  0  0  0
   44.5980   34.0930   42.0270 C   0  0  0  0  0  0  0  0  0  0  0  0
   43.6940   35.1440   42.2250 C   0  0  0  0  0  0  0  0  0  0  0  0
   42.4170   34.7400   41.8790 C   0  0  0  0  0  0  0  0  0  0  0  0
   42.5660   33.4780   41.4840 N   0  0  0  0  0  0  0  0  0  0  0  0
   43.8350   33.1000   41.5700 N   0  0  0  0  0  0  0  0  0  0  0  0
   44.0880   36.0950   42.6030 H   0  0  0  0  0  0  0  0  0  0  0  0
   41.7130   35.5490   42.0380 H   0  0  0  0  0  0  0  0  0  0  0  0
   48.2520   34.9730   42.0510 C   0  0  0  0  0  0  0  0  0  0  0  0
   46.8750   35.0300   41.6600 C   0  0  0  0  0  0  0  0  0  0  0  0
   46.0310   34.1580   42.3020 C   0  0  0  0  0  0  0  0  0  0  0  0
   46.5250   33.3140   43.2440 N   0  0  0  0  0  0  0  0  0  0  0  0
   47.8260   33.2770   43.5970 C   0  0  0  0  0  0  0  0  0  0  0  0
   48.6670   34.1120   42.9890 N   0  0  0  0  0  0  0  0  0  0  0  0
   48.9050   35.6670   41.5330 H   0  0  0  0  0  0  0  0  0  0  0  0
   46.5020   35.7000   40.9150 H   0  0  0  0  0  0  0  0  0  0  0  0
   48.1130   32.5720   44.3540 H   0  0  0  0  0  0  0  0  0  0  0  0
  1  6  1  0  0  0  0
  1  2  1  0  0  0  0
  2  8  1  1  0  0  0
  2 26  1  0  0  0  0
  2  3  1  0  0  0  0
  3  9  1  0  0  0  0
  3 10  1  0  0  0  0
  4  3  1  0  0  0  0
  5 12  1  0  0  0  0
  5  4  1  0  0  0  0
  6  5  1  0  0  0  0
  6 14  1  1  0  0  0
  7  1  1  0  0  0  0
 11  4  1  0  0  0  0
 13  5  1  0  0  0  0
 15  6  1  0  0  0  0
 16 15  2  0  0  0  0
 17 16  1  0  0  0  0
 18 20  1  0  0  0  0
 18 16  1  0  0  0  0
 19 18  1  0  0  0  0
 20 22  2  0  0  0  0
 21 20  1  0  0  0  0
 22 15  1  0  0  0  0
 23 24  1  0  0  0  0
 23 32  1  0  0  0  0
 24 28  1  0  0  0  0
 25 29  1  0  0  0  0
 25 24  2  0  0  0  0
 26 27  1  0  0  0  0
 26 25  1  0  0  0  0
 27 23  2  0  0  0  0
 30 35  1  0  0  0  0
 31 30  2  0  0  0  0
 31 32  1  0  0  0  0
 32 33  2  0  0  0  0
 33 34  1  0  0  0  0
 34 38  1  0  0  0  0
 35 34  2  0  0  0  0
 36 30  1  0  0  0  0
 37 31  1  0  0  0  0
M  END
>  <minimizedAffinity>
-4.66516161

>  <minimizedRMSD>
2.0589273

$$$$
