
 OpenBabel03252501433D

 44 47  0  0  0  0  0  0  0  0999 V2000
   38.7370   32.8670   39.1000 O   0  0  0  0  0  0  0  0  0  0  0  0
   38.7590   31.1020   41.4940 Cl  0  0  0  0  0  0  0  0  0  0  0  0
   38.2210   30.6820   39.8780 C   0  0  0  0  0  0  0  0  0  0  0  0
   38.2480   31.5800   38.8160 C   0  0  0  0  0  0  0  0  0  0  0  0
   37.8160   31.2010   37.5750 C   0  0  0  0  0  0  0  0  0  0  0  0
   37.3370   29.9350   37.3050 C   0  0  0  0  0  0  0  0  0  0  0  0
   37.2980   29.0050   38.3630 C   0  0  0  0  0  0  0  0  0  0  0  0
   36.7050   27.3730   38.1040 Cl  0  0  0  0  0  0  0  0  0  0  0  0
   37.7430   29.4270   39.6010 C   0  0  0  0  0  0  0  0  0  0  0  0
   37.8510   31.9250   36.7730 H   0  0  0  0  0  0  0  0  0  0  0  0
   36.9950   29.6340   36.3260 H   0  0  0  0  0  0  0  0  0  0  0  0
   35.5360   29.2670   41.1880 F   0  0  0  0  0  0  0  0  0  0  0  0
   36.5720   28.4150   41.4900 C   0  0  0  0  0  0  0  0  0  0  0  0
   37.7070   28.4710   40.7050 C   0  0  0  0  0  0  0  0  0  0  0  0
   38.7390   27.5900   41.0440 C   0  0  0  0  0  0  0  0  0  0  0  0
   38.5740   26.7320   42.1190 C   0  0  0  0  0  0  0  0  0  0  0  0
   37.3980   26.7270   42.8740 C   0  0  0  0  0  0  0  0  0  0  0  0
   36.3550   27.5880   42.5640 C   0  0  0  0  0  0  0  0  0  0  0  0
   39.6230   27.6330   40.4310 H   0  0  0  0  0  0  0  0  0  0  0  0
   39.3840   26.0590   42.3640 H   0  0  0  0  0  0  0  0  0  0  0  0
   37.3030   26.0440   43.7080 H   0  0  0  0  0  0  0  0  0  0  0  0
   35.4290   27.6150   43.1240 H   0  0  0  0  0  0  0  0  0  0  0  0
   40.1210   33.0440   39.1120 C   0  0  0  0  0  0  0  0  0  0  0  0
   41.0280   32.1300   39.1260 O   0  0  0  0  0  0  0  0  0  0  0  0
   40.6790   34.3630   39.1080 N   0  0  0  0  0  0  0  0  0  0  0  0
   40.1240   35.2150   39.0650 H   0  0  0  0  0  0  0  0  0  0  0  0
   42.1250   34.2610   39.1750 C   0  0  0  0  0  0  0  0  0  0  0  0
   42.9770   34.1520   38.1210 C   0  0  0  0  0  0  0  0  0  0  0  0
   44.3190   34.0670   38.3940 C   0  0  0  0  0  0  0  0  0  0  0  0
   44.6960   34.0980   39.6890 N   0  0  0  0  0  0  0  0  0  0  0  0
   43.8430   34.2060   40.7150 C   0  0  0  0  0  0  0  0  0  0  0  0
   42.5140   34.2910   40.4640 N   0  0  0  0  0  0  0  0  0  0  0  0
   45.0050   33.9800   37.5640 H   0  0  0  0  0  0  0  0  0  0  0  0
   44.3440   34.2320   42.1020 C   0  0  0  0  0  0  0  0  0  0  0  0
   44.2640   33.1970   42.9860 C   0  0  0  0  0  0  0  0  0  0  0  0
   43.8490   32.2040   42.8770 H   0  0  0  0  0  0  0  0  0  0  0  0
   44.8440   33.6690   44.1190 N   0  0  0  0  0  0  0  0  0  0  0  0
   44.9340   33.0890   44.9900 H   0  0  0  0  0  0  0  0  0  0  0  0
   45.2760   34.9540   43.9620 C   0  0  0  0  0  0  0  0  0  0  0  0
   45.7630   35.4740   44.7780 H   0  0  0  0  0  0  0  0  0  0  0  0
   44.9470   35.2860   42.6800 N   0  0  0  0  0  0  0  0  0  0  0  0
   42.4050   34.1350   36.8310 N   0  0  0  0  0  0  0  0  0  0  0  0
   42.4690   35.0780   36.3860 H   0  0  0  0  0  0  0  0  0  0  0  0
   42.0940   33.1280   36.7480 H   0  0  0  0  0  0  0  0  0  0  0  0
  1 23  1  0  0  0  0
  3  2  1  0  0  0  0
  4  1  1  0  0  0  0
  4  3  2  0  0  0  0
  5  4  1  0  0  0  0
  6  5  2  0  0  0  0
  6  7  1  0  0  0  0
  7  9  2  0  0  0  0
  8  7  1  0  0  0  0
  9  3  1  0  0  0  0
  9 14  1  0  0  0  0
 10  5  1  0  0  0  0
 11  6  1  0  0  0  0
 12 13  1  0  0  0  0
 13 18  1  0  0  0  0
 14 15  1  0  0  0  0
 14 13  2  0  0  0  0
 15 16  2  0  0  0  0
 16 20  1  0  0  0  0
 16 17  1  0  0  0  0
 17 21  1  0  0  0  0
 18 17  2  0  0  0  0
 18 22  1  0  0  0  0
 19 15  1  0  0  0  0
 23 24  2  0  0  0  0
 25 23  1  0  0  0  0
 25 27  1  0  0  0  0
 26 25  1  0  0  0  0
 27 32  1  0  0  0  0
 28 29  1  0  0  0  0
 28 27  2  0  0  0  0
 29 30  2  0  0  0  0
 30 31  1  0  0  0  0
 31 34  1  0  0  0  0
 32 31  2  0  0  0  0
 33 29  1  0  0  0  0
 34 41  1  0  0  0  0
 34 35  2  0  0  0  0
 35 37  1  0  0  0  0
 36 35  1  0  0  0  0
 37 38  1  0  0  0  0
 39 37  1  0  0  0  0
 39 40  1  0  0  0  0
 41 39  2  0  0  0  0
 42 28  1  0  0  0  0
 43 42  1  0  0  0  0
 44 42  1  0  0  0  0
M  END
>  <minimizedAffinity>
-7.18668556

$$$$

 OpenBabel03252501433D

 44 47  0  0  0  0  0  0  0  0999 V2000
   36.5960   31.0320   41.0080 O   0  0  0  0  0  0  0  0  0  0  0  0
   38.0470   28.8120   42.3560 Cl  0  0  0  0  0  0  0  0  0  0  0  0
   37.0430   28.7000   40.9220 C   0  0  0  0  0  0  0  0  0  0  0  0
   36.4010   29.8000   40.3610 C   0  0  0  0  0  0  0  0  0  0  0  0
   35.6300   29.6560   39.2410 C   0  0  0  0  0  0  0  0  0  0  0  0
   35.4430   28.4420   38.6130 C   0  0  0  0  0  0  0  0  0  0  0  0
   36.0830   27.3110   39.1600 C   0  0  0  0  0  0  0  0  0  0  0  0
   35.8990   25.7290   38.4210 Cl  0  0  0  0  0  0  0  0  0  0  0  0
   36.8530   27.4970   40.2910 C   0  0  0  0  0  0  0  0  0  0  0  0
   35.1460   30.5320   38.8330 H   0  0  0  0  0  0  0  0  0  0  0  0
   34.8350   28.3270   37.7290 H   0  0  0  0  0  0  0  0  0  0  0  0
   39.3740   26.8430   39.4980 F   0  0  0  0  0  0  0  0  0  0  0  0
   38.7970   26.0280   40.4430 C   0  0  0  0  0  0  0  0  0  0  0  0
   37.5190   26.3320   40.8670 C   0  0  0  0  0  0  0  0  0  0  0  0
   36.9650   25.4790   41.8280 C   0  0  0  0  0  0  0  0  0  0  0  0
   37.7070   24.4060   42.2920 C   0  0  0  0  0  0  0  0  0  0  0  0
   38.9980   24.1540   41.8200 C   0  0  0  0  0  0  0  0  0  0  0  0
   39.5770   24.9790   40.8670 C   0  0  0  0  0  0  0  0  0  0  0  0
   35.9690   25.7170   42.1590 H   0  0  0  0  0  0  0  0  0  0  0  0
   37.2600   23.7590   43.0350 H   0  0  0  0  0  0  0  0  0  0  0  0
   39.5500   23.3050   42.2040 H   0  0  0  0  0  0  0  0  0  0  0  0
   40.5730   24.8190   40.4770 H   0  0  0  0  0  0  0  0  0  0  0  0
   37.5710   31.8860   40.4900 C   0  0  0  0  0  0  0  0  0  0  0  0
   37.4780   32.6470   39.4560 O   0  0  0  0  0  0  0  0  0  0  0  0
   38.8510   31.9870   41.1250 N   0  0  0  0  0  0  0  0  0  0  0  0
   39.1050   31.4880   41.9750 H   0  0  0  0  0  0  0  0  0  0  0  0
   39.6840   32.8970   40.3600 C   0  0  0  0  0  0  0  0  0  0  0  0
   39.7190   34.2510   40.4740 C   0  0  0  0  0  0  0  0  0  0  0  0
   40.5790   34.9360   39.6560 C   0  0  0  0  0  0  0  0  0  0  0  0
   41.3290   34.2170   38.7950 N   0  0  0  0  0  0  0  0  0  0  0  0
   41.2830   32.8830   38.6960 C   0  0  0  0  0  0  0  0  0  0  0  0
   40.4390   32.1890   39.4970 N   0  0  0  0  0  0  0  0  0  0  0  0
   40.6150   36.0130   39.7380 H   0  0  0  0  0  0  0  0  0  0  0  0
   42.1400   32.1770   37.7260 C   0  0  0  0  0  0  0  0  0  0  0  0
   43.3700   32.5960   37.3120 C   0  0  0  0  0  0  0  0  0  0  0  0
   43.9470   33.4700   37.5820 H   0  0  0  0  0  0  0  0  0  0  0  0
   43.7770   31.6460   36.4320 N   0  0  0  0  0  0  0  0  0  0  0  0
   44.7030   31.6950   35.9390 H   0  0  0  0  0  0  0  0  0  0  0  0
   42.8440   30.6610   36.2910 C   0  0  0  0  0  0  0  0  0  0  0  0
   43.0190   29.8280   35.6220 H   0  0  0  0  0  0  0  0  0  0  0  0
   41.8190   31.0200   37.1180 N   0  0  0  0  0  0  0  0  0  0  0  0
   38.8620   34.8370   41.4310 N   0  0  0  0  0  0  0  0  0  0  0  0
   39.3840   35.0600   42.3080 H   0  0  0  0  0  0  0  0  0  0  0  0
   37.9410   34.8550   40.9110 H   0  0  0  0  0  0  0  0  0  0  0  0
  3  2  1  0  0  0  0
  4  3  1  0  0  0  0
  4  1  1  0  0  0  0
  5  4  2  0  0  0  0
  6  7  2  0  0  0  0
  6  5  1  0  0  0  0
  7  9  1  0  0  0  0
  8  7  1  0  0  0  0
  9 14  1  0  0  0  0
  9  3  2  0  0  0  0
 10  5  1  0  0  0  0
 11  6  1  0  0  0  0
 12 13  1  0  0  0  0
 13 18  2  0  0  0  0
 13 14  1  0  0  0  0
 14 15  2  0  0  0  0
 15 19  1  0  0  0  0
 15 16  1  0  0  0  0
 16 20  1  0  0  0  0
 17 21  1  0  0  0  0
 17 16  2  0  0  0  0
 18 17  1  0  0  0  0
 22 18  1  0  0  0  0
 23  1  1  0  0  0  0
 23 25  1  0  0  0  0
 24 23  2  0  0  0  0
 25 26  1  0  0  0  0
 27 28  1  0  0  0  0
 27 25  1  0  0  0  0
 28 42  1  0  0  0  0
 29 33  1  0  0  0  0
 29 28  2  0  0  0  0
 30 29  1  0  0  0  0
 31 30  2  0  0  0  0
 31 32  1  0  0  0  0
 32 27  2  0  0  0  0
 34 31  1  0  0  0  0
 35 36  1  0  0  0  0
 35 34  2  0  0  0  0
 37 35  1  0  0  0  0
 38 37  1  0  0  0  0
 39 37  1  0  0  0  0
 39 41  2  0  0  0  0
 40 39  1  0  0  0  0
 41 34  1  0  0  0  0
 42 43  1  0  0  0  0
 44 42  1  0  0  0  0
M  END
>  <minimizedAffinity>
-7.12708044

$$$$

 OpenBabel03252501433D

 44 47  0  0  0  0  0  0  0  0999 V2000
   38.2630   29.8650   38.5530 O   0  0  0  0  0  0  0  0  0  0  0  0
   40.1580   27.9420   39.8000 Cl  0  0  0  0  0  0  0  0  0  0  0  0
   38.5340   28.3230   40.3400 C   0  0  0  0  0  0  0  0  0  0  0  0
   37.7170   29.2420   39.6890 C   0  0  0  0  0  0  0  0  0  0  0  0
   36.4580   29.5030   40.1520 C   0  0  0  0  0  0  0  0  0  0  0  0
   35.9300   28.8870   41.2690 C   0  0  0  0  0  0  0  0  0  0  0  0
   36.7360   27.9510   41.9480 C   0  0  0  0  0  0  0  0  0  0  0  0
   36.1410   27.1220   43.3770 Cl  0  0  0  0  0  0  0  0  0  0  0  0
   38.0020   27.7160   41.4490 C   0  0  0  0  0  0  0  0  0  0  0  0
   35.8520   30.2230   39.6210 H   0  0  0  0  0  0  0  0  0  0  0  0
   34.9360   29.0910   41.6370 H   0  0  0  0  0  0  0  0  0  0  0  0
   39.6590   28.5470   43.4430 F   0  0  0  0  0  0  0  0  0  0  0  0
   39.6750   27.2030   43.1530 C   0  0  0  0  0  0  0  0  0  0  0  0
   38.8460   26.7490   42.1460 C   0  0  0  0  0  0  0  0  0  0  0  0
   38.8900   25.3760   41.8790 C   0  0  0  0  0  0  0  0  0  0  0  0
   39.7380   24.5680   42.6180 C   0  0  0  0  0  0  0  0  0  0  0  0
   40.5520   25.0930   43.6250 C   0  0  0  0  0  0  0  0  0  0  0  0
   40.5330   26.4490   43.9150 C   0  0  0  0  0  0  0  0  0  0  0  0
   38.2430   25.0220   41.0950 H   0  0  0  0  0  0  0  0  0  0  0  0
   39.7560   23.5100   42.3960 H   0  0  0  0  0  0  0  0  0  0  0  0
   41.2040   24.4330   44.1820 H   0  0  0  0  0  0  0  0  0  0  0  0
   41.1470   26.8950   44.6860 H   0  0  0  0  0  0  0  0  0  0  0  0
   38.8050   31.1410   38.7140 C   0  0  0  0  0  0  0  0  0  0  0  0
   38.8420   32.0930   37.8470 O   0  0  0  0  0  0  0  0  0  0  0  0
   39.4090   31.5150   39.9580 N   0  0  0  0  0  0  0  0  0  0  0  0
   39.4480   30.9110   40.7750 H   0  0  0  0  0  0  0  0  0  0  0  0
   39.9330   32.8640   39.8380 C   0  0  0  0  0  0  0  0  0  0  0  0
   39.2560   34.0180   40.0760 C   0  0  0  0  0  0  0  0  0  0  0  0
   39.9320   35.1990   39.9060 C   0  0  0  0  0  0  0  0  0  0  0  0
   41.2220   35.1290   39.5140 N   0  0  0  0  0  0  0  0  0  0  0  0
   41.8740   33.9830   39.2850 C   0  0  0  0  0  0  0  0  0  0  0  0
   41.2210   32.8070   39.4480 N   0  0  0  0  0  0  0  0  0  0  0  0
   39.4030   36.1230   40.0930 H   0  0  0  0  0  0  0  0  0  0  0  0
   43.2850   34.0000   38.8580 C   0  0  0  0  0  0  0  0  0  0  0  0
   43.7200   33.8600   37.5740 C   0  0  0  0  0  0  0  0  0  0  0  0
   43.1700   33.7180   36.6530 H   0  0  0  0  0  0  0  0  0  0  0  0
   45.0720   33.9400   37.6590 N   0  0  0  0  0  0  0  0  0  0  0  0
   45.6950   33.8660   36.8170 H   0  0  0  0  0  0  0  0  0  0  0  0
   45.4820   34.1220   38.9480 C   0  0  0  0  0  0  0  0  0  0  0  0
   46.5360   34.2050   39.1840 H   0  0  0  0  0  0  0  0  0  0  0  0
   44.3340   34.1560   39.6850 N   0  0  0  0  0  0  0  0  0  0  0  0
   37.9080   33.9020   40.4810 N   0  0  0  0  0  0  0  0  0  0  0  0
   37.8230   34.0010   41.5170 H   0  0  0  0  0  0  0  0  0  0  0  0
   37.4200   33.7470   39.5550 H   0  0  0  0  0  0  0  0  0  0  0  0
  1 23  1  0  0  0  0
  1  4  1  0  0  0  0
  2  3  1  0  0  0  0
  3  9  1  0  0  0  0
  4  5  1  0  0  0  0
  4  3  2  0  0  0  0
  5  6  2  0  0  0  0
  6 11  1  0  0  0  0
  6  7  1  0  0  0  0
  7  8  1  0  0  0  0
  9  7  2  0  0  0  0
  9 14  1  0  0  0  0
 10  5  1  0  0  0  0
 13 12  1  0  0  0  0
 13 18  1  0  0  0  0
 14 13  2  0  0  0  0
 15 14  1  0  0  0  0
 15 16  2  0  0  0  0
 16 17  1  0  0  0  0
 17 18  2  0  0  0  0
 17 21  1  0  0  0  0
 18 22  1  0  0  0  0
 19 15  1  0  0  0  0
 20 16  1  0  0  0  0
 23 25  1  0  0  0  0
 24 23  2  0  0  0  0
 25 26  1  0  0  0  0
 27 25  1  0  0  0  0
 27 28  1  0  0  0  0
 28 42  1  0  0  0  0
 29 28  2  0  0  0  0
 29 33  1  0  0  0  0
 30 29  1  0  0  0  0
 31 32  1  0  0  0  0
 31 30  2  0  0  0  0
 32 27  2  0  0  0  0
 34 31  1  0  0  0  0
 34 41  1  0  0  0  0
 35 37  1  0  0  0  0
 35 34  2  0  0  0  0
 36 35  1  0  0  0  0
 37 39  1  0  0  0  0
 38 37  1  0  0  0  0
 39 40  1  0  0  0  0
 39 41  2  0  0  0  0
 42 43  1  0  0  0  0
 44 42  1  0  0  0  0
M  END
>  <minimizedAffinity>
-7.00603485

$$$$

 OpenBabel03252501433D

 44 47  0  0  0  0  0  0  0  0999 V2000
   37.0650   30.2740   41.6410 O   0  0  0  0  0  0  0  0  0  0  0  0
   36.2990   28.0130   39.8670 Cl  0  0  0  0  0  0  0  0  0  0  0  0
   37.3640   27.9480   41.2590 C   0  0  0  0  0  0  0  0  0  0  0  0
   37.6650   29.0650   42.0320 C   0  0  0  0  0  0  0  0  0  0  0  0
   38.5020   28.9590   43.1080 C   0  0  0  0  0  0  0  0  0  0  0  0
   39.0880   27.7670   43.4850 C   0  0  0  0  0  0  0  0  0  0  0  0
   38.7990   26.6200   42.7190 C   0  0  0  0  0  0  0  0  0  0  0  0
   39.5020   25.0640   43.1310 Cl  0  0  0  0  0  0  0  0  0  0  0  0
   37.9490   26.7680   41.6400 C   0  0  0  0  0  0  0  0  0  0  0  0
   38.7140   29.8470   43.6860 H   0  0  0  0  0  0  0  0  0  0  0  0
   39.7490   27.6810   44.3340 H   0  0  0  0  0  0  0  0  0  0  0  0
   39.4910   26.1560   39.4810 F   0  0  0  0  0  0  0  0  0  0  0  0
   38.4470   25.3030   39.7510 C   0  0  0  0  0  0  0  0  0  0  0  0
   37.6450   25.5850   40.8390 C   0  0  0  0  0  0  0  0  0  0  0  0
   36.5930   24.6960   41.0800 C   0  0  0  0  0  0  0  0  0  0  0  0
   36.4160   23.6100   40.2400 C   0  0  0  0  0  0  0  0  0  0  0  0
   37.2650   23.3820   39.1540 C   0  0  0  0  0  0  0  0  0  0  0  0
   38.3180   24.2440   38.8860 C   0  0  0  0  0  0  0  0  0  0  0  0
   35.9680   24.9150   41.9290 H   0  0  0  0  0  0  0  0  0  0  0  0
   35.5960   22.9340   40.4450 H   0  0  0  0  0  0  0  0  0  0  0  0
   37.0970   22.5230   38.5170 H   0  0  0  0  0  0  0  0  0  0  0  0
   38.9970   24.1030   38.0560 H   0  0  0  0  0  0  0  0  0  0  0  0
   37.8560   31.1950   40.9540 C   0  0  0  0  0  0  0  0  0  0  0  0
   37.5700   31.8130   39.8610 O   0  0  0  0  0  0  0  0  0  0  0  0
   39.1500   31.5480   41.4550 N   0  0  0  0  0  0  0  0  0  0  0  0
   39.5410   31.1900   42.3240 H   0  0  0  0  0  0  0  0  0  0  0  0
   39.7750   32.4760   40.5300 C   0  0  0  0  0  0  0  0  0  0  0  0
   39.6460   33.8290   40.5330 C   0  0  0  0  0  0  0  0  0  0  0  0
   40.3220   34.5340   39.5690 C   0  0  0  0  0  0  0  0  0  0  0  0
   41.0650   33.8330   38.6880 N   0  0  0  0  0  0  0  0  0  0  0  0
   41.1810   32.4990   38.7000 C   0  0  0  0  0  0  0  0  0  0  0  0
   40.5210   31.7870   39.6450 N   0  0  0  0  0  0  0  0  0  0  0  0
   40.2270   35.6110   39.5620 H   0  0  0  0  0  0  0  0  0  0  0  0
   42.0170   31.8140   37.6970 C   0  0  0  0  0  0  0  0  0  0  0  0
   43.1790   32.3000   37.1770 C   0  0  0  0  0  0  0  0  0  0  0  0
   43.7070   33.2250   37.3690 H   0  0  0  0  0  0  0  0  0  0  0  0
   43.5920   31.3440   36.3060 N   0  0  0  0  0  0  0  0  0  0  0  0
   44.4740   31.4370   35.7440 H   0  0  0  0  0  0  0  0  0  0  0  0
   42.7260   30.2900   36.2730 C   0  0  0  0  0  0  0  0  0  0  0  0
   42.9140   29.4430   35.6260 H   0  0  0  0  0  0  0  0  0  0  0  0
   41.7390   30.6120   37.1600 N   0  0  0  0  0  0  0  0  0  0  0  0
   38.8250   34.3960   41.5320 N   0  0  0  0  0  0  0  0  0  0  0  0
   39.4030   34.7590   42.3230 H   0  0  0  0  0  0  0  0  0  0  0  0
   37.8610   34.2550   41.1210 H   0  0  0  0  0  0  0  0  0  0  0  0
  1  4  1  0  0  0  0
  2  3  1  0  0  0  0
  3  9  2  0  0  0  0
  3  4  1  0  0  0  0
  4  5  2  0  0  0  0
  5  6  1  0  0  0  0
  5 10  1  0  0  0  0
  6 11  1  0  0  0  0
  7  8  1  0  0  0  0
  7  6  2  0  0  0  0
  9  7  1  0  0  0  0
 12 13  1  0  0  0  0
 13 14  1  0  0  0  0
 14 15  2  0  0  0  0
 14  9  1  0  0  0  0
 15 19  1  0  0  0  0
 16 20  1  0  0  0  0
 16 15  1  0  0  0  0
 17 16  2  0  0  0  0
 18 17  1  0  0  0  0
 18 13  2  0  0  0  0
 21 17  1  0  0  0  0
 22 18  1  0  0  0  0
 23 25  1  0  0  0  0
 23  1  1  0  0  0  0
 24 23  2  0  0  0  0
 25 26  1  0  0  0  0
 27 28  1  0  0  0  0
 27 25  1  0  0  0  0
 28 42  1  0  0  0  0
 29 28  2  0  0  0  0
 30 31  2  0  0  0  0
 30 29  1  0  0  0  0
 31 32  1  0  0  0  0
 32 27  2  0  0  0  0
 33 29  1  0  0  0  0
 34 31  1  0  0  0  0
 35 36  1  0  0  0  0
 35 34  2  0  0  0  0
 37 35  1  0  0  0  0
 38 37  1  0  0  0  0
 39 37  1  0  0  0  0
 39 41  2  0  0  0  0
 40 39  1  0  0  0  0
 41 34  1  0  0  0  0
 42 43  1  0  0  0  0
 44 42  1  0  0  0  0
M  END
>  <minimizedAffinity>
-6.9389801

$$$$

 OpenBabel03252501433D

 44 47  0  0  0  0  0  0  0  0999 V2000
   38.7790   29.6810   38.4130 O   0  0  0  0  0  0  0  0  0  0  0  0
   40.9500   28.6100   40.1420 Cl  0  0  0  0  0  0  0  0  0  0  0  0
   39.2310   28.2910   40.2870 C   0  0  0  0  0  0  0  0  0  0  0  0
   38.2860   28.8410   39.4270 C   0  0  0  0  0  0  0  0  0  0  0  0
   36.9570   28.5600   39.5850 C   0  0  0  0  0  0  0  0  0  0  0  0
   36.4810   27.7340   40.5840 C   0  0  0  0  0  0  0  0  0  0  0  0
   37.4180   27.1640   41.4700 C   0  0  0  0  0  0  0  0  0  0  0  0
   36.8970   26.1020   42.7670 Cl  0  0  0  0  0  0  0  0  0  0  0  0
   38.7510   27.4720   41.2770 C   0  0  0  0  0  0  0  0  0  0  0  0
   36.2510   29.0040   38.8980 H   0  0  0  0  0  0  0  0  0  0  0  0
   35.4330   27.5110   40.7110 H   0  0  0  0  0  0  0  0  0  0  0  0
   39.9050   25.0790   40.6810 F   0  0  0  0  0  0  0  0  0  0  0  0
   40.2960   25.6730   41.8580 C   0  0  0  0  0  0  0  0  0  0  0  0
   39.7290   26.8880   42.1900 C   0  0  0  0  0  0  0  0  0  0  0  0
   40.1510   27.4600   43.3940 C   0  0  0  0  0  0  0  0  0  0  0  0
   41.0880   26.7970   44.1690 C   0  0  0  0  0  0  0  0  0  0  0  0
   41.6230   25.5680   43.7740 C   0  0  0  0  0  0  0  0  0  0  0  0
   41.2270   24.9740   42.5860 C   0  0  0  0  0  0  0  0  0  0  0  0
   39.7090   28.4070   43.6530 H   0  0  0  0  0  0  0  0  0  0  0  0
   41.4010   27.2580   45.0970 H   0  0  0  0  0  0  0  0  0  0  0  0
   42.3540   25.0780   44.4040 H   0  0  0  0  0  0  0  0  0  0  0  0
   41.6170   24.0240   42.2450 H   0  0  0  0  0  0  0  0  0  0  0  0
   39.0160   31.0160   38.7400 C   0  0  0  0  0  0  0  0  0  0  0  0
   39.4500   31.9480   37.9640 O   0  0  0  0  0  0  0  0  0  0  0  0
   38.7740   31.4860   40.0710 N   0  0  0  0  0  0  0  0  0  0  0  0
   38.3990   30.9070   40.8190 H   0  0  0  0  0  0  0  0  0  0  0  0
   39.1490   32.8860   40.1500 C   0  0  0  0  0  0  0  0  0  0  0  0
   38.3120   33.9530   40.0580 C   0  0  0  0  0  0  0  0  0  0  0  0
   38.8640   35.2050   40.1580 C   0  0  0  0  0  0  0  0  0  0  0  0
   40.1990   35.2860   40.3420 N   0  0  0  0  0  0  0  0  0  0  0  0
   41.0090   34.2240   40.4310 C   0  0  0  0  0  0  0  0  0  0  0  0
   40.4800   32.9800   40.3340 N   0  0  0  0  0  0  0  0  0  0  0  0
   38.2080   36.0610   40.0860 H   0  0  0  0  0  0  0  0  0  0  0  0
   42.4580   34.4060   40.6320 C   0  0  0  0  0  0  0  0  0  0  0  0
   43.0300   35.0640   41.6790 C   0  0  0  0  0  0  0  0  0  0  0  0
   42.5840   35.5610   42.5310 H   0  0  0  0  0  0  0  0  0  0  0  0
   44.3650   34.9800   41.4500 N   0  0  0  0  0  0  0  0  0  0  0  0
   45.0760   35.4010   42.0970 H   0  0  0  0  0  0  0  0  0  0  0  0
   44.6320   34.2940   40.3000 C   0  0  0  0  0  0  0  0  0  0  0  0
   45.6540   34.1400   39.9760 H   0  0  0  0  0  0  0  0  0  0  0  0
   43.4110   33.9430   39.8030 N   0  0  0  0  0  0  0  0  0  0  0  0
   36.9410   33.6800   39.8660 N   0  0  0  0  0  0  0  0  0  0  0  0
   36.4210   33.7440   40.7700 H   0  0  0  0  0  0  0  0  0  0  0  0
   36.9030   33.4970   38.8250 H   0  0  0  0  0  0  0  0  0  0  0  0
  1 23  1  0  0  0  0
  1  4  1  0  0  0  0
  2  3  1  0  0  0  0
  3  9  1  0  0  0  0
  4  5  1  0  0  0  0
  4  3  2  0  0  0  0
  5  6  2  0  0  0  0
  6 11  1  0  0  0  0
  6  7  1  0  0  0  0
  7  8  1  0  0  0  0
  9  7  2  0  0  0  0
  9 14  1  0  0  0  0
 10  5  1  0  0  0  0
 12 13  1  0  0  0  0
 13 14  2  0  0  0  0
 13 18  1  0  0  0  0
 14 15  1  0  0  0  0
 15 19  1  0  0  0  0
 15 16  2  0  0  0  0
 16 20  1  0  0  0  0
 17 16  1  0  0  0  0
 17 21  1  0  0  0  0
 18 17  2  0  0  0  0
 22 18  1  0  0  0  0
 23 25  1  0  0  0  0
 24 23  2  0  0  0  0
 25 27  1  0  0  0  0
 25 26  1  0  0  0  0
 27 32  1  0  0  0  0
 28 27  2  0  0  0  0
 28 29  1  0  0  0  0
 29 30  2  0  0  0  0
 30 31  1  0  0  0  0
 31 34  1  0  0  0  0
 32 31  2  0  0  0  0
 33 29  1  0  0  0  0
 34 35  2  0  0  0  0
 35 36  1  0  0  0  0
 37 35  1  0  0  0  0
 37 38  1  0  0  0  0
 39 37  1  0  0  0  0
 40 39  1  0  0  0  0
 41 39  2  0  0  0  0
 41 34  1  0  0  0  0
 42 28  1  0  0  0  0
 42 43  1  0  0  0  0
 44 42  1  0  0  0  0
M  END
>  <minimizedAffinity>
-6.93272257

$$$$

 OpenBabel03252501433D

 44 47  0  0  0  0  0  0  0  0999 V2000
   39.0320   32.7500   38.9890 O   0  0  0  0  0  0  0  0  0  0  0  0
   39.0320   30.9390   41.3490 Cl  0  0  0  0  0  0  0  0  0  0  0  0
   38.2160   30.6780   39.8180 C   0  0  0  0  0  0  0  0  0  0  0  0
   38.2740   31.5880   38.7670 C   0  0  0  0  0  0  0  0  0  0  0  0
   37.6180   31.3350   37.5940 C   0  0  0  0  0  0  0  0  0  0  0  0
   36.8750   30.1910   37.3840 C   0  0  0  0  0  0  0  0  0  0  0  0
   36.7990   29.2530   38.4330 C   0  0  0  0  0  0  0  0  0  0  0  0
   35.8760   27.7710   38.2490 Cl  0  0  0  0  0  0  0  0  0  0  0  0
   37.4750   29.5440   39.6020 C   0  0  0  0  0  0  0  0  0  0  0  0
   37.6850   32.0640   36.7990 H   0  0  0  0  0  0  0  0  0  0  0  0
   36.3560   29.9900   36.4590 H   0  0  0  0  0  0  0  0  0  0  0  0
   39.3040   27.5330   39.7640 F   0  0  0  0  0  0  0  0  0  0  0  0
   38.3450   27.5720   40.7490 C   0  0  0  0  0  0  0  0  0  0  0  0
   37.4020   28.5790   40.6960 C   0  0  0  0  0  0  0  0  0  0  0  0
   36.4430   28.5850   41.7140 C   0  0  0  0  0  0  0  0  0  0  0  0
   36.4880   27.6070   42.6940 C   0  0  0  0  0  0  0  0  0  0  0  0
   37.4710   26.6140   42.6890 C   0  0  0  0  0  0  0  0  0  0  0  0
   38.4370   26.5800   41.6940 C   0  0  0  0  0  0  0  0  0  0  0  0
   35.7090   29.3700   41.6730 H   0  0  0  0  0  0  0  0  0  0  0  0
   35.7380   27.6300   43.4730 H   0  0  0  0  0  0  0  0  0  0  0  0
   37.4770   25.8650   43.4710 H   0  0  0  0  0  0  0  0  0  0  0  0
   39.2140   25.8280   41.6540 H   0  0  0  0  0  0  0  0  0  0  0  0
   40.3890   32.7070   38.6650 C   0  0  0  0  0  0  0  0  0  0  0  0
   41.3770   32.4750   39.4560 O   0  0  0  0  0  0  0  0  0  0  0  0
   40.8140   32.9370   37.3170 N   0  0  0  0  0  0  0  0  0  0  0  0
   40.1790   33.1060   36.5410 H   0  0  0  0  0  0  0  0  0  0  0  0
   42.2640   32.8870   37.2680 C   0  0  0  0  0  0  0  0  0  0  0  0
   43.1180   33.9160   37.5130 C   0  0  0  0  0  0  0  0  0  0  0  0
   44.4620   33.6640   37.4150 C   0  0  0  0  0  0  0  0  0  0  0  0
   44.8410   32.4120   37.0810 N   0  0  0  0  0  0  0  0  0  0  0  0
   43.9860   31.4100   36.8430 C   0  0  0  0  0  0  0  0  0  0  0  0
   42.6540   31.6410   36.9360 N   0  0  0  0  0  0  0  0  0  0  0  0
   45.1500   34.4750   37.6080 H   0  0  0  0  0  0  0  0  0  0  0  0
   44.4880   30.0710   36.4840 C   0  0  0  0  0  0  0  0  0  0  0  0
   45.5530   29.8230   35.6700 C   0  0  0  0  0  0  0  0  0  0  0  0
   46.2170   30.5000   35.1470 H   0  0  0  0  0  0  0  0  0  0  0  0
   45.6450   28.4700   35.6270 N   0  0  0  0  0  0  0  0  0  0  0  0
   46.3830   27.9720   35.0700 H   0  0  0  0  0  0  0  0  0  0  0  0
   44.6750   27.8790   36.3840 C   0  0  0  0  0  0  0  0  0  0  0  0
   44.6130   26.7990   36.4540 H   0  0  0  0  0  0  0  0  0  0  0  0
   43.9580   28.9120   36.9140 N   0  0  0  0  0  0  0  0  0  0  0  0
   42.5440   35.1610   37.8510 N   0  0  0  0  0  0  0  0  0  0  0  0
   42.5610   35.3080   38.8850 H   0  0  0  0  0  0  0  0  0  0  0  0
   42.2820   35.5390   36.8990 H   0  0  0  0  0  0  0  0  0  0  0  0
  3  2  1  0  0  0  0
  4  1  1  0  0  0  0
  4  3  2  0  0  0  0
  5  4  1  0  0  0  0
  6  5  2  0  0  0  0
  6  7  1  0  0  0  0
  7  9  2  0  0  0  0
  8  7  1  0  0  0  0
  9  3  1  0  0  0  0
  9 14  1  0  0  0  0
 10  5  1  0  0  0  0
 11  6  1  0  0  0  0
 12 13  1  0  0  0  0
 13 18  1  0  0  0  0
 14 13  2  0  0  0  0
 14 15  1  0  0  0  0
 15 16  2  0  0  0  0
 16 20  1  0  0  0  0
 17 16  1  0  0  0  0
 17 21  1  0  0  0  0
 18 17  2  0  0  0  0
 19 15  1  0  0  0  0
 22 18  1  0  0  0  0
 23  1  1  0  0  0  0
 23 24  2  0  0  0  0
 25 23  1  0  0  0  0
 26 25  1  0  0  0  0
 27 25  1  0  0  0  0
 27 28  1  0  0  0  0
 28 42  1  0  0  0  0
 29 28  2  0  0  0  0
 29 33  1  0  0  0  0
 30 29  1  0  0  0  0
 31 32  1  0  0  0  0
 31 30  2  0  0  0  0
 32 27  2  0  0  0  0
 34 31  1  0  0  0  0
 34 41  1  0  0  0  0
 35 34  2  0  0  0  0
 36 35  1  0  0  0  0
 37 35  1  0  0  0  0
 37 39  1  0  0  0  0
 38 37  1  0  0  0  0
 39 40  1  0  0  0  0
 39 41  2  0  0  0  0
 42 43  1  0  0  0  0
 44 42  1  0  0  0  0
M  END
>  <minimizedAffinity>
-6.88165569

$$$$

 OpenBabel03252501433D

 44 47  0  0  0  0  0  0  0  0999 V2000
   38.6580   33.1990   39.3970 O   0  0  0  0  0  0  0  0  0  0  0  0
   37.7840   31.8790   36.8780 Cl  0  0  0  0  0  0  0  0  0  0  0  0
   37.6490   31.2410   38.5060 C   0  0  0  0  0  0  0  0  0  0  0  0
   38.0880   31.9350   39.6290 C   0  0  0  0  0  0  0  0  0  0  0  0
   37.9590   31.3910   40.8770 C   0  0  0  0  0  0  0  0  0  0  0  0
   37.3990   30.1490   41.0960 C   0  0  0  0  0  0  0  0  0  0  0  0
   36.9450   29.4230   39.9750 C   0  0  0  0  0  0  0  0  0  0  0  0
   36.2190   27.8360   40.1660 Cl  0  0  0  0  0  0  0  0  0  0  0  0
   37.0930   30.0070   38.7320 C   0  0  0  0  0  0  0  0  0  0  0  0
   38.3110   31.9580   41.7260 H   0  0  0  0  0  0  0  0  0  0  0  0
   37.2950   29.7170   42.0800 H   0  0  0  0  0  0  0  0  0  0  0  0
   38.8490   28.5130   37.2830 F   0  0  0  0  0  0  0  0  0  0  0  0
   37.5430   28.5160   36.8520 C   0  0  0  0  0  0  0  0  0  0  0  0
   36.6270   29.2640   37.5650 C   0  0  0  0  0  0  0  0  0  0  0  0
   35.3100   29.2420   37.0950 C   0  0  0  0  0  0  0  0  0  0  0  0
   35.0020   28.4930   35.9720 C   0  0  0  0  0  0  0  0  0  0  0  0
   35.9790   27.7570   35.2960 C   0  0  0  0  0  0  0  0  0  0  0  0
   37.2940   27.7560   35.7360 C   0  0  0  0  0  0  0  0  0  0  0  0
   34.5960   29.8250   37.6510 H   0  0  0  0  0  0  0  0  0  0  0  0
   33.9770   28.4900   35.6260 H   0  0  0  0  0  0  0  0  0  0  0  0
   35.7030   27.1820   34.4210 H   0  0  0  0  0  0  0  0  0  0  0  0
   38.0790   27.2000   35.2410 H   0  0  0  0  0  0  0  0  0  0  0  0
   40.0510   33.2860   39.3780 C   0  0  0  0  0  0  0  0  0  0  0  0
   40.8980   32.3450   39.6130 O   0  0  0  0  0  0  0  0  0  0  0  0
   40.6900   34.5300   39.0710 N   0  0  0  0  0  0  0  0  0  0  0  0
   40.1900   35.3810   38.8260 H   0  0  0  0  0  0  0  0  0  0  0  0
   42.1280   34.3550   39.1710 C   0  0  0  0  0  0  0  0  0  0  0  0
   42.9970   34.1960   38.1380 C   0  0  0  0  0  0  0  0  0  0  0  0
   44.3250   34.0460   38.4410 C   0  0  0  0  0  0  0  0  0  0  0  0
   44.6750   34.0660   39.7440 N   0  0  0  0  0  0  0  0  0  0  0  0
   43.8060   34.2250   40.7500 C   0  0  0  0  0  0  0  0  0  0  0  0
   42.4890   34.3750   40.4680 N   0  0  0  0  0  0  0  0  0  0  0  0
   45.0250   33.9180   37.6270 H   0  0  0  0  0  0  0  0  0  0  0  0
   44.2760   34.2350   42.1480 C   0  0  0  0  0  0  0  0  0  0  0  0
   44.1820   33.1890   43.0160 C   0  0  0  0  0  0  0  0  0  0  0  0
   43.7740   32.1950   42.8850 H   0  0  0  0  0  0  0  0  0  0  0  0
   44.7350   33.6480   44.1680 N   0  0  0  0  0  0  0  0  0  0  0  0
   44.8080   33.0570   45.0330 H   0  0  0  0  0  0  0  0  0  0  0  0
   45.1650   34.9370   44.0370 C   0  0  0  0  0  0  0  0  0  0  0  0
   45.6320   35.4490   44.8690 H   0  0  0  0  0  0  0  0  0  0  0  0
   44.8630   35.2840   42.7520 N   0  0  0  0  0  0  0  0  0  0  0  0
   42.4540   34.2000   36.8340 N   0  0  0  0  0  0  0  0  0  0  0  0
   42.5740   35.1360   36.3860 H   0  0  0  0  0  0  0  0  0  0  0  0
   42.0940   33.2090   36.7500 H   0  0  0  0  0  0  0  0  0  0  0  0
  1  4  1  0  0  0  0
  2  3  1  0  0  0  0
  3  9  2  0  0  0  0
  3  4  1  0  0  0  0
  4  5  2  0  0  0  0
  5  6  1  0  0  0  0
  5 10  1  0  0  0  0
  6 11  1  0  0  0  0
  7  8  1  0  0  0  0
  7  6  2  0  0  0  0
  9  7  1  0  0  0  0
 13 12  1  0  0  0  0
 13 14  1  0  0  0  0
 14  9  1  0  0  0  0
 15 14  2  0  0  0  0
 15 19  1  0  0  0  0
 16 15  1  0  0  0  0
 17 18  1  0  0  0  0
 17 16  2  0  0  0  0
 18 13  2  0  0  0  0
 20 16  1  0  0  0  0
 21 17  1  0  0  0  0
 22 18  1  0  0  0  0
 23  1  1  0  0  0  0
 23 24  2  0  0  0  0
 25 27  1  0  0  0  0
 25 23  1  0  0  0  0
 26 25  1  0  0  0  0
 27 32  1  0  0  0  0
 28 29  1  0  0  0  0
 28 27  2  0  0  0  0
 29 30  2  0  0  0  0
 30 31  1  0  0  0  0
 31 34  1  0  0  0  0
 32 31  2  0  0  0  0
 33 29  1  0  0  0  0
 34 41  1  0  0  0  0
 34 35  2  0  0  0  0
 35 37  1  0  0  0  0
 36 35  1  0  0  0  0
 37 38  1  0  0  0  0
 39 37  1  0  0  0  0
 39 40  1  0  0  0  0
 41 39  2  0  0  0  0
 42 28  1  0  0  0  0
 43 42  1  0  0  0  0
 44 42  1  0  0  0  0
M  END
>  <minimizedAffinity>
-6.76076126

$$$$

 OpenBabel03252501433D

 44 47  0  0  0  0  0  0  0  0999 V2000
   37.2720   29.3870   41.1510 O   0  0  0  0  0  0  0  0  0  0  0  0
   37.1660   27.0410   39.3260 Cl  0  0  0  0  0  0  0  0  0  0  0  0
   37.8540   27.0930   40.9380 C   0  0  0  0  0  0  0  0  0  0  0  0
   37.8580   28.2430   41.7210 C   0  0  0  0  0  0  0  0  0  0  0  0
   38.4080   28.2300   42.9730 C   0  0  0  0  0  0  0  0  0  0  0  0
   38.9820   27.1020   43.5250 C   0  0  0  0  0  0  0  0  0  0  0  0
   38.9920   25.9230   42.7530 C   0  0  0  0  0  0  0  0  0  0  0  0
   39.7000   24.4440   43.3810 Cl  0  0  0  0  0  0  0  0  0  0  0  0
   38.4260   25.9770   41.4940 C   0  0  0  0  0  0  0  0  0  0  0  0
   38.3930   29.1420   43.5530 H   0  0  0  0  0  0  0  0  0  0  0  0
   39.4170   27.0890   44.5130 H   0  0  0  0  0  0  0  0  0  0  0  0
   36.3790   24.1940   41.7050 F   0  0  0  0  0  0  0  0  0  0  0  0
   37.3790   23.8780   40.8170 C   0  0  0  0  0  0  0  0  0  0  0  0
   38.4320   24.7600   40.6860 C   0  0  0  0  0  0  0  0  0  0  0  0
   39.4310   24.4040   39.7740 C   0  0  0  0  0  0  0  0  0  0  0  0
   39.3140   23.2170   39.0690 C   0  0  0  0  0  0  0  0  0  0  0  0
   38.2190   22.3670   39.2490 C   0  0  0  0  0  0  0  0  0  0  0  0
   37.2120   22.6910   40.1460 C   0  0  0  0  0  0  0  0  0  0  0  0
   40.2520   25.0920   39.6710 H   0  0  0  0  0  0  0  0  0  0  0  0
   40.0960   22.9600   38.3680 H   0  0  0  0  0  0  0  0  0  0  0  0
   38.1600   21.4470   38.6820 H   0  0  0  0  0  0  0  0  0  0  0  0
   36.3490   22.0600   40.3150 H   0  0  0  0  0  0  0  0  0  0  0  0
   38.1250   30.3350   40.5850 C   0  0  0  0  0  0  0  0  0  0  0  0
   37.9140   31.5980   40.4490 O   0  0  0  0  0  0  0  0  0  0  0  0
   39.4030   29.9390   40.0720 N   0  0  0  0  0  0  0  0  0  0  0  0
   39.7640   28.9890   40.1170 H   0  0  0  0  0  0  0  0  0  0  0  0
   40.0590   31.1000   39.4990 C   0  0  0  0  0  0  0  0  0  0  0  0
   39.9760   31.5210   38.2090 C   0  0  0  0  0  0  0  0  0  0  0  0
   40.6740   32.6490   37.8620 C   0  0  0  0  0  0  0  0  0  0  0  0
   41.3930   33.2600   38.8260 N   0  0  0  0  0  0  0  0  0  0  0  0
   41.4630   32.8320   40.0930 C   0  0  0  0  0  0  0  0  0  0  0  0
   40.7790   31.7200   40.4530 N   0  0  0  0  0  0  0  0  0  0  0  0
   40.6160   32.9920   36.8380 H   0  0  0  0  0  0  0  0  0  0  0  0
   42.2760   33.5630   41.0830 C   0  0  0  0  0  0  0  0  0  0  0  0
   42.9200   32.9980   42.1420 C   0  0  0  0  0  0  0  0  0  0  0  0
   42.9760   31.9670   42.4680 H   0  0  0  0  0  0  0  0  0  0  0  0
   43.5300   34.0360   42.7680 N   0  0  0  0  0  0  0  0  0  0  0  0
   44.1120   33.9110   43.6320 H   0  0  0  0  0  0  0  0  0  0  0  0
   43.2830   35.2180   42.1310 C   0  0  0  0  0  0  0  0  0  0  0  0
   43.7000   36.1440   42.5070 H   0  0  0  0  0  0  0  0  0  0  0  0
   42.4880   34.8920   41.0700 N   0  0  0  0  0  0  0  0  0  0  0  0
   39.1740   30.7570   37.3330 N   0  0  0  0  0  0  0  0  0  0  0  0
   38.2350   31.1980   37.2120 H   0  0  0  0  0  0  0  0  0  0  0  0
   39.8260   29.9620   37.0850 H   0  0  0  0  0  0  0  0  0  0  0  0
  1  4  1  0  0  0  0
  2  3  1  0  0  0  0
  3  9  2  0  0  0  0
  3  4  1  0  0  0  0
  4  5  2  0  0  0  0
  5  6  1  0  0  0  0
  5 10  1  0  0  0  0
  6 11  1  0  0  0  0
  7  8  1  0  0  0  0
  7  6  2  0  0  0  0
  9  7  1  0  0  0  0
 13 12  1  0  0  0  0
 14 13  1  0  0  0  0
 14  9  1  0  0  0  0
 15 14  2  0  0  0  0
 16 17  2  0  0  0  0
 16 15  1  0  0  0  0
 17 18  1  0  0  0  0
 18 22  1  0  0  0  0
 18 13  2  0  0  0  0
 19 15  1  0  0  0  0
 20 16  1  0  0  0  0
 21 17  1  0  0  0  0
 23  1  1  0  0  0  0
 24 23  2  0  0  0  0
 25 26  1  0  0  0  0
 25 23  1  0  0  0  0
 27 25  1  0  0  0  0
 27 32  1  0  0  0  0
 28 27  2  0  0  0  0
 29 28  1  0  0  0  0
 29 30  2  0  0  0  0
 30 31  1  0  0  0  0
 31 32  2  0  0  0  0
 31 34  1  0  0  0  0
 33 29  1  0  0  0  0
 34 35  2  0  0  0  0
 35 36  1  0  0  0  0
 35 37  1  0  0  0  0
 37 38  1  0  0  0  0
 39 40  1  0  0  0  0
 39 37  1  0  0  0  0
 41 34  1  0  0  0  0
 41 39  2  0  0  0  0
 42 28  1  0  0  0  0
 43 42  1  0  0  0  0
 44 42  1  0  0  0  0
M  END
>  <minimizedAffinity>
-6.72066832

$$$$

 OpenBabel03252501433D

 44 47  0  0  0  0  0  0  0  0999 V2000
   40.1720   28.7110   37.1290 O   0  0  0  0  0  0  0  0  0  0  0  0
   40.1250   27.6480   39.9070 Cl  0  0  0  0  0  0  0  0  0  0  0  0
   38.8470   28.5320   39.0940 C   0  0  0  0  0  0  0  0  0  0  0  0
   38.9610   28.9920   37.7860 C   0  0  0  0  0  0  0  0  0  0  0  0
   37.9330   29.6770   37.1990 C   0  0  0  0  0  0  0  0  0  0  0  0
   36.7470   29.9490   37.8510 C   0  0  0  0  0  0  0  0  0  0  0  0
   36.6060   29.4930   39.1780 C   0  0  0  0  0  0  0  0  0  0  0  0
   35.1290   29.7960   40.0790 Cl  0  0  0  0  0  0  0  0  0  0  0  0
   37.6660   28.8060   39.7350 C   0  0  0  0  0  0  0  0  0  0  0  0
   38.0560   30.0200   36.1820 H   0  0  0  0  0  0  0  0  0  0  0  0
   35.9340   30.4890   37.3900 H   0  0  0  0  0  0  0  0  0  0  0  0
   38.3520   30.4310   41.8090 F   0  0  0  0  0  0  0  0  0  0  0  0
   37.8860   29.1800   42.1380 C   0  0  0  0  0  0  0  0  0  0  0  0
   37.5300   28.3310   41.1100 C   0  0  0  0  0  0  0  0  0  0  0  0
   37.0620   27.0670   41.4830 C   0  0  0  0  0  0  0  0  0  0  0  0
   36.9820   26.7430   42.8280 C   0  0  0  0  0  0  0  0  0  0  0  0
   37.3590   27.6510   43.8200 C   0  0  0  0  0  0  0  0  0  0  0  0
   37.8270   28.9130   43.4830 C   0  0  0  0  0  0  0  0  0  0  0  0
   36.7830   26.4050   40.6820 H   0  0  0  0  0  0  0  0  0  0  0  0
   36.6170   25.7600   43.0950 H   0  0  0  0  0  0  0  0  0  0  0  0
   37.2840   27.3650   44.8610 H   0  0  0  0  0  0  0  0  0  0  0  0
   38.1290   29.6440   44.2210 H   0  0  0  0  0  0  0  0  0  0  0  0
   41.2440   29.5750   37.3560 C   0  0  0  0  0  0  0  0  0  0  0  0
   42.3060   29.3410   38.0450 O   0  0  0  0  0  0  0  0  0  0  0  0
   41.2410   30.8910   36.7920 N   0  0  0  0  0  0  0  0  0  0  0  0
   40.5030   31.2500   36.1890 H   0  0  0  0  0  0  0  0  0  0  0  0
   42.4390   31.5890   37.2220 C   0  0  0  0  0  0  0  0  0  0  0  0
   43.6680   31.5160   36.6460 C   0  0  0  0  0  0  0  0  0  0  0  0
   44.6770   32.2570   37.2050 C   0  0  0  0  0  0  0  0  0  0  0  0
   44.3770   33.0050   38.2870 N   0  0  0  0  0  0  0  0  0  0  0  0
   43.1600   33.0660   38.8410 C   0  0  0  0  0  0  0  0  0  0  0  0
   42.1510   32.3410   38.3020 N   0  0  0  0  0  0  0  0  0  0  0  0
   45.6590   32.2060   36.7550 H   0  0  0  0  0  0  0  0  0  0  0  0
   42.9210   33.9120   40.0250 C   0  0  0  0  0  0  0  0  0  0  0  0
   41.8280   34.7020   40.2190 C   0  0  0  0  0  0  0  0  0  0  0  0
   40.9580   34.8720   39.5980 H   0  0  0  0  0  0  0  0  0  0  0  0
   42.0360   35.2860   41.4270 N   0  0  0  0  0  0  0  0  0  0  0  0
   41.3520   35.9590   41.8530 H   0  0  0  0  0  0  0  0  0  0  0  0
   43.2160   34.8830   41.9800 C   0  0  0  0  0  0  0  0  0  0  0  0
   43.5290   35.2590   42.9470 H   0  0  0  0  0  0  0  0  0  0  0  0
   43.7570   34.0160   41.0750 N   0  0  0  0  0  0  0  0  0  0  0  0
   43.8000   30.6800   35.5160 N   0  0  0  0  0  0  0  0  0  0  0  0
   43.7620   31.2390   34.6350 H   0  0  0  0  0  0  0  0  0  0  0  0
   43.8990   29.7280   35.9660 H   0  0  0  0  0  0  0  0  0  0  0  0
  1 23  1  0  0  0  0
  1  4  1  0  0  0  0
  3  9  1  0  0  0  0
  3  2  1  0  0  0  0
  4  3  2  0  0  0  0
  5  4  1  0  0  0  0
  5  6  2  0  0  0  0
  6  7  1  0  0  0  0
  7  9  2  0  0  0  0
  7  8  1  0  0  0  0
  9 14  1  0  0  0  0
 10  5  1  0  0  0  0
 11  6  1  0  0  0  0
 12 13  1  0  0  0  0
 13 18  1  0  0  0  0
 14 15  1  0  0  0  0
 14 13  2  0  0  0  0
 15 16  2  0  0  0  0
 16 20  1  0  0  0  0
 16 17  1  0  0  0  0
 17 21  1  0  0  0  0
 18 17  2  0  0  0  0
 18 22  1  0  0  0  0
 19 15  1  0  0  0  0
 23 24  2  0  0  0  0
 25 27  1  0  0  0  0
 25 23  1  0  0  0  0
 26 25  1  0  0  0  0
 27 32  1  0  0  0  0
 28 29  1  0  0  0  0
 28 27  2  0  0  0  0
 29 30  2  0  0  0  0
 30 31  1  0  0  0  0
 31 34  1  0  0  0  0
 32 31  2  0  0  0  0
 33 29  1  0  0  0  0
 34 35  2  0  0  0  0
 34 41  1  0  0  0  0
 35 37  1  0  0  0  0
 36 35  1  0  0  0  0
 37 38  1  0  0  0  0
 37 39  1  0  0  0  0
 39 40  1  0  0  0  0
 41 39  2  0  0  0  0
 42 44  1  0  0  0  0
 42 28  1  0  0  0  0
 43 42  1  0  0  0  0
M  END
>  <minimizedAffinity>
-6.60231304

$$$$
