
 OpenBabel03242510383D

 30 32  0  0  0  0  0  0  0  0999 V2000
   47.4900   31.8160   44.8010 Cl  0  0  0  0  0  0  0  0  0  0  0  0
   46.6940   31.9180   46.3630 C   0  0  0  0  0  0  0  0  0  0  0  0
   45.8270   32.9790   46.5770 C   0  0  0  0  0  0  0  0  0  0  0  0
   45.2120   33.0600   47.7780 C   0  0  0  0  0  0  0  0  0  0  0  0
   45.4620   32.0960   48.7490 C   0  0  0  0  0  0  0  0  0  0  0  0
   46.3190   31.0490   48.5330 C   0  0  0  0  0  0  0  0  0  0  0  0
   46.9560   30.9560   47.3040 C   0  0  0  0  0  0  0  0  0  0  0  0
   44.5230   33.8600   48.0190 H   0  0  0  0  0  0  0  0  0  0  0  0
   44.9820   32.1410   49.7180 H   0  0  0  0  0  0  0  0  0  0  0  0
   46.5490   30.2720   49.2550 H   0  0  0  0  0  0  0  0  0  0  0  0
   44.5310   35.8500   44.7280 C   0  0  0  0  0  0  0  0  0  0  0  0
   45.2150   35.8010   43.4880 C   0  0  0  0  0  0  0  0  0  0  0  0
   46.1370   34.7270   43.3400 C   0  0  0  0  0  0  0  0  0  0  0  0
   46.2830   33.8620   44.3660 N   0  0  0  0  0  0  0  0  0  0  0  0
   45.6050   33.9580   45.5220 C   0  0  0  0  0  0  0  0  0  0  0  0
   44.7300   34.9600   45.6890 N   0  0  0  0  0  0  0  0  0  0  0  0
   43.8220   36.6550   44.8740 H   0  0  0  0  0  0  0  0  0  0  0  0
   45.0480   36.5280   42.7080 H   0  0  0  0  0  0  0  0  0  0  0  0
   46.8250   34.7060   42.0490 C   0  0  0  0  0  0  0  0  0  0  0  0
   47.6230   33.5640   41.9950 F   0  0  0  0  0  0  0  0  0  0  0  0
   47.7010   35.7620   42.0380 F   0  0  0  0  0  0  0  0  0  0  0  0
   45.9750   34.6760   40.9660 F   0  0  0  0  0  0  0  0  0  0  0  0
   47.8770   29.8580   47.0280 C   0  0  0  0  0  0  0  0  0  0  0  0
   49.1450   29.7250   47.5470 C   0  0  0  0  0  0  0  0  0  0  0  0
   49.6650   30.3880   48.2300 H   0  0  0  0  0  0  0  0  0  0  0  0
   49.7410   28.6060   47.1000 N   0  0  0  0  0  0  0  0  0  0  0  0
   50.6760   28.1750   47.2660 H   0  0  0  0  0  0  0  0  0  0  0  0
   48.8360   28.0270   46.2880 C   0  0  0  0  0  0  0  0  0  0  0  0
   48.9310   27.0930   45.7210 H   0  0  0  0  0  0  0  0  0  0  0  0
   47.6920   28.7710   46.2270 N   0  0  0  0  0  0  0  0  0  0  0  0
  1  2  1  0  0  0  0
  2  3  2  0  0  0  0
  2  7  1  0  0  0  0
  3  4  1  0  0  0  0
  4  8  1  0  0  0  0
  4  5  2  0  0  0  0
  5  9  1  0  0  0  0
  6  5  1  0  0  0  0
  6 10  1  0  0  0  0
  7  6  2  0  0  0  0
 11 17  1  0  0  0  0
 11 16  1  0  0  0  0
 12 11  2  0  0  0  0
 13 12  1  0  0  0  0
 13 14  2  0  0  0  0
 14 15  1  0  0  0  0
 15 16  2  0  0  0  0
 15  3  1  0  0  0  0
 18 12  1  0  0  0  0
 19 13  1  0  0  0  0
 20 19  1  0  0  0  0
 21 19  1  0  0  0  0
 22 19  1  0  0  0  0
 23  7  1  0  0  0  0
 23 24  2  0  0  0  0
 24 25  1  0  0  0  0
 26 27  1  0  0  0  0
 26 24  1  0  0  0  0
 28 26  1  0  0  0  0
 29 28  1  0  0  0  0
 30 28  2  0  0  0  0
 30 23  1  0  0  0  0
M  END
>  <minimizedAffinity>
-5.84788036

>  <minimizedRMSD>
0.394020796

$$$$
