
 OpenBabel03252508403D

 40 43  0  0  0  0  0  0  0  0999 V2000
   37.9050   27.8760   41.1810 C   0  0  0  0  0  0  0  0  0  0  0  0
   37.8030   28.9250   42.0530 C   0  0  0  0  0  0  0  0  0  0  0  0
   37.2540   28.6730   43.2870 C   0  0  0  0  0  0  0  0  0  0  0  0
   36.8130   27.4420   43.6800 C   0  0  0  0  0  0  0  0  0  0  0  0
   36.9260   26.4060   42.7880 C   0  0  0  0  0  0  0  0  0  0  0  0
   37.4670   26.6050   41.5410 C   0  0  0  0  0  0  0  0  0  0  0  0
   37.1850   29.5230   43.9580 H   0  0  0  0  0  0  0  0  0  0  0  0
   36.3990   27.3520   44.6690 H   0  0  0  0  0  0  0  0  0  0  0  0
   36.5710   25.4310   43.1140 H   0  0  0  0  0  0  0  0  0  0  0  0
   37.9490   32.3830   40.5520 C   0  0  0  0  0  0  0  0  0  0  0  0
   37.4250   31.1390   40.9730 C   0  0  0  0  0  0  0  0  0  0  0  0
   38.2820   30.2120   41.6010 C   0  0  0  0  0  0  0  0  0  0  0  0
   39.5760   30.6120   41.7450 N   0  0  0  0  0  0  0  0  0  0  0  0
   40.0350   31.7960   41.3350 C   0  0  0  0  0  0  0  0  0  0  0  0
   39.2190   32.6770   40.7390 N   0  0  0  0  0  0  0  0  0  0  0  0
   37.0510   33.2750   39.9290 N   0  0  0  0  0  0  0  0  0  0  0  0
   36.3820   30.8870   40.8250 H   0  0  0  0  0  0  0  0  0  0  0  0
   41.0670   32.0910   41.4620 H   0  0  0  0  0  0  0  0  0  0  0  0
   36.0980   33.6350   40.2030 H   0  0  0  0  0  0  0  0  0  0  0  0
   37.4040   33.6480   39.0230 H   0  0  0  0  0  0  0  0  0  0  0  0
   37.5470   25.4400   40.6580 C   0  0  0  0  0  0  0  0  0  0  0  0
   36.4920   25.2930   39.7860 C   0  0  0  0  0  0  0  0  0  0  0  0
   36.4070   24.2340   38.8710 C   0  0  0  0  0  0  0  0  0  0  0  0
   37.4330   23.3140   38.8570 C   0  0  0  0  0  0  0  0  0  0  0  0
   38.4930   23.4480   39.7190 C   0  0  0  0  0  0  0  0  0  0  0  0
   38.5580   24.5090   40.6250 C   0  0  0  0  0  0  0  0  0  0  0  0
   35.6450   25.9630   39.7280 H   0  0  0  0  0  0  0  0  0  0  0  0
   35.5800   24.1210   38.1900 H   0  0  0  0  0  0  0  0  0  0  0  0
   37.4780   22.4650   38.2040 H   0  0  0  0  0  0  0  0  0  0  0  0
   39.3440   22.7960   39.7980 H   0  0  0  0  0  0  0  0  0  0  0  0
   39.6360   24.7450   41.5820 C   0  0  0  0  0  0  0  0  0  0  0  0
   39.9060   24.3880   42.9020 C   0  0  0  0  0  0  0  0  0  0  0  0
   39.1600   23.7740   43.4030 H   0  0  0  0  0  0  0  0  0  0  0  0
   41.1020   24.9280   43.2450 N   0  0  0  0  0  0  0  0  0  0  0  0
   41.3670   24.6940   44.2390 H   0  0  0  0  0  0  0  0  0  0  0  0
   41.5790   25.6080   42.1800 C   0  0  0  0  0  0  0  0  0  0  0  0
   42.5360   26.0940   42.3150 H   0  0  0  0  0  0  0  0  0  0  0  0
   40.6960   25.4990   41.1750 N   0  0  0  0  0  0  0  0  0  0  0  0
   38.9350   28.2010   38.8050 N   0  0  0  0  0  0  0  0  0  0  0  0
   38.4650   28.0530   39.8710 C   0  0  0  0  0  0  0  0  0  0  0  0
  1  6  2  0  0  0  0
  1  2  1  0  0  0  0
  2  3  2  0  0  0  0
  3  4  1  0  0  0  0
  3  7  1  0  0  0  0
  4  8  1  0  0  0  0
  5  9  1  0  0  0  0
  5  4  2  0  0  0  0
  6  5  1  0  0  0  0
 10 15  2  0  0  0  0
 10 11  1  0  0  0  0
 11 12  2  0  0  0  0
 12 13  1  0  0  0  0
 12  2  1  0  0  0  0
 14 18  1  0  0  0  0
 14 13  2  0  0  0  0
 15 14  1  0  0  0  0
 16 19  1  0  0  0  0
 16 10  1  0  0  0  0
 17 11  1  0  0  0  0
 20 16  1  0  0  0  0
 21  6  1  0  0  0  0
 22 21  2  0  0  0  0
 23 22  1  0  0  0  0
 24 23  2  0  0  0  0
 24 25  1  0  0  0  0
 25 30  1  0  0  0  0
 25 26  2  0  0  0  0
 26 21  1  0  0  0  0
 26 31  1  0  0  0  0
 27 22  1  0  0  0  0
 28 23  1  0  0  0  0
 29 24  1  0  0  0  0
 31 32  2  0  0  0  0
 32 34  1  0  0  0  0
 32 33  1  0  0  0  0
 34 35  1  0  0  0  0
 36 37  1  0  0  0  0
 36 34  1  0  0  0  0
 38 31  1  0  0  0  0
 38 36  2  0  0  0  0
 39 40  3  0  0  0  0
 40  1  1  0  0  0  0
M  END
>  <minimizedAffinity>
-6.29479218

$$$$

 OpenBabel03252508403D

 40 43  0  0  0  0  0  0  0  0999 V2000
   38.5780   27.5440   41.3850 C   0  0  0  0  0  0  0  0  0  0  0  0
   39.0270   27.5100   42.6770 C   0  0  0  0  0  0  0  0  0  0  0  0
   38.0870   27.5740   43.6770 C   0  0  0  0  0  0  0  0  0  0  0  0
   36.7440   27.6670   43.4460 C   0  0  0  0  0  0  0  0  0  0  0  0
   36.3180   27.7000   42.1440 C   0  0  0  0  0  0  0  0  0  0  0  0
   37.2170   27.6390   41.1060 C   0  0  0  0  0  0  0  0  0  0  0  0
   38.4710   27.5460   44.6910 H   0  0  0  0  0  0  0  0  0  0  0  0
   36.0920   27.7120   44.3020 H   0  0  0  0  0  0  0  0  0  0  0  0
   35.2460   27.7740   41.9740 H   0  0  0  0  0  0  0  0  0  0  0  0
   42.4850   26.1270   43.2740 C   0  0  0  0  0  0  0  0  0  0  0  0
   41.0850   26.1640   43.0800 C   0  0  0  0  0  0  0  0  0  0  0  0
   40.4550   27.4100   42.8800 C   0  0  0  0  0  0  0  0  0  0  0  0
   41.2780   28.4940   42.8940 N   0  0  0  0  0  0  0  0  0  0  0  0
   42.5980   28.4200   43.0790 C   0  0  0  0  0  0  0  0  0  0  0  0
   43.1950   27.2350   43.2690 N   0  0  0  0  0  0  0  0  0  0  0  0
   43.0670   24.8560   43.4710 N   0  0  0  0  0  0  0  0  0  0  0  0
   40.4910   25.2590   43.0820 H   0  0  0  0  0  0  0  0  0  0  0  0
   43.2310   29.2960   43.0850 H   0  0  0  0  0  0  0  0  0  0  0  0
   42.9970   23.9490   42.9370 H   0  0  0  0  0  0  0  0  0  0  0  0
   43.6860   24.8130   44.3080 H   0  0  0  0  0  0  0  0  0  0  0  0
   36.6700   27.6800   39.7490 C   0  0  0  0  0  0  0  0  0  0  0  0
   36.3860   26.4520   39.1950 C   0  0  0  0  0  0  0  0  0  0  0  0
   35.8570   26.3060   37.9050 C   0  0  0  0  0  0  0  0  0  0  0  0
   35.6180   27.4510   37.1770 C   0  0  0  0  0  0  0  0  0  0  0  0
   35.8950   28.6840   37.7150 C   0  0  0  0  0  0  0  0  0  0  0  0
   36.4230   28.8070   39.0020 C   0  0  0  0  0  0  0  0  0  0  0  0
   36.5420   25.5030   39.6920 H   0  0  0  0  0  0  0  0  0  0  0  0
   35.6340   25.3440   37.4750 H   0  0  0  0  0  0  0  0  0  0  0  0
   35.2160   27.4650   36.1830 H   0  0  0  0  0  0  0  0  0  0  0  0
   35.7510   29.6380   37.2430 H   0  0  0  0  0  0  0  0  0  0  0  0
   36.7540   30.0640   39.6680 C   0  0  0  0  0  0  0  0  0  0  0  0
   36.1410   30.9020   40.5980 C   0  0  0  0  0  0  0  0  0  0  0  0
   35.1630   30.5940   40.9620 H   0  0  0  0  0  0  0  0  0  0  0  0
   36.9710   31.9500   40.8280 N   0  0  0  0  0  0  0  0  0  0  0  0
   36.5650   32.6260   41.5280 H   0  0  0  0  0  0  0  0  0  0  0  0
   38.0760   31.7870   40.0680 C   0  0  0  0  0  0  0  0  0  0  0  0
   38.8300   32.5590   40.1520 H   0  0  0  0  0  0  0  0  0  0  0  0
   37.9470   30.6500   39.3670 N   0  0  0  0  0  0  0  0  0  0  0  0
   40.2510   27.4380   39.3850 N   0  0  0  0  0  0  0  0  0  0  0  0
   39.4920   27.4830   40.2810 C   0  0  0  0  0  0  0  0  0  0  0  0
  1  2  1  0  0  0  0
  2 12  1  0  0  0  0
  2  3  2  0  0  0  0
  3  7  1  0  0  0  0
  4  3  1  0  0  0  0
  4  8  1  0  0  0  0
  5  4  2  0  0  0  0
  6  1  2  0  0  0  0
  6  5  1  0  0  0  0
  9  5  1  0  0  0  0
 10 16  1  0  0  0  0
 11 17  1  0  0  0  0
 11 10  2  0  0  0  0
 12 13  2  0  0  0  0
 12 11  1  0  0  0  0
 13 14  1  0  0  0  0
 14 18  1  0  0  0  0
 14 15  2  0  0  0  0
 15 10  1  0  0  0  0
 16 20  1  0  0  0  0
 19 16  1  0  0  0  0
 21  6  1  0  0  0  0
 22 27  1  0  0  0  0
 22 21  1  0  0  0  0
 23 22  2  0  0  0  0
 24 25  2  0  0  0  0
 24 23  1  0  0  0  0
 25 26  1  0  0  0  0
 26 31  1  0  0  0  0
 26 21  2  0  0  0  0
 28 23  1  0  0  0  0
 29 24  1  0  0  0  0
 30 25  1  0  0  0  0
 31 32  2  0  0  0  0
 32 34  1  0  0  0  0
 32 33  1  0  0  0  0
 34 35  1  0  0  0  0
 36 37  1  0  0  0  0
 36 34  1  0  0  0  0
 38 31  1  0  0  0  0
 38 36  2  0  0  0  0
 39 40  3  0  0  0  0
 40  1  1  0  0  0  0
M  END
>  <minimizedAffinity>
-6.20456553

$$$$

 OpenBabel03252508403D

 40 43  0  0  0  0  0  0  0  0999 V2000
   38.6600   30.2910   38.6360 C   0  0  0  0  0  0  0  0  0  0  0  0
   40.0230   30.2730   38.7530 C   0  0  0  0  0  0  0  0  0  0  0  0
   40.6430   29.0470   38.7470 C   0  0  0  0  0  0  0  0  0  0  0  0
   39.9740   27.8630   38.6300 C   0  0  0  0  0  0  0  0  0  0  0  0
   38.6080   27.9060   38.5150 C   0  0  0  0  0  0  0  0  0  0  0  0
   37.9390   29.1060   38.5160 C   0  0  0  0  0  0  0  0  0  0  0  0
   41.7240   29.0630   38.8410 H   0  0  0  0  0  0  0  0  0  0  0  0
   40.5560   26.9570   38.6370 H   0  0  0  0  0  0  0  0  0  0  0  0
   38.0880   26.9560   38.4230 H   0  0  0  0  0  0  0  0  0  0  0  0
   41.8490   33.4670   37.9200 C   0  0  0  0  0  0  0  0  0  0  0  0
   41.2000   32.2230   37.7420 C   0  0  0  0  0  0  0  0  0  0  0  0
   40.6950   31.5470   38.8720 C   0  0  0  0  0  0  0  0  0  0  0  0
   40.8860   32.1740   40.0660 N   0  0  0  0  0  0  0  0  0  0  0  0
   41.5040   33.3500   40.1940 C   0  0  0  0  0  0  0  0  0  0  0  0
   41.9840   33.9910   39.1190 N   0  0  0  0  0  0  0  0  0  0  0  0
   42.3370   34.1020   36.7580 N   0  0  0  0  0  0  0  0  0  0  0  0
   41.0830   31.7820   36.7600 H   0  0  0  0  0  0  0  0  0  0  0  0
   41.6440   33.8270   41.1540 H   0  0  0  0  0  0  0  0  0  0  0  0
   41.8920   34.3320   35.8300 H   0  0  0  0  0  0  0  0  0  0  0  0
   43.3320   34.3990   36.8390 H   0  0  0  0  0  0  0  0  0  0  0  0
   36.4810   29.0550   38.3880 C   0  0  0  0  0  0  0  0  0  0  0  0
   36.0080   29.0160   37.0960 C   0  0  0  0  0  0  0  0  0  0  0  0
   34.6410   28.9640   36.7900 C   0  0  0  0  0  0  0  0  0  0  0  0
   33.7490   28.9530   37.8410 C   0  0  0  0  0  0  0  0  0  0  0  0
   34.2050   28.9910   39.1360 C   0  0  0  0  0  0  0  0  0  0  0  0
   35.5710   29.0430   39.4190 C   0  0  0  0  0  0  0  0  0  0  0  0
   36.6330   29.0220   36.2130 H   0  0  0  0  0  0  0  0  0  0  0  0
   34.2740   28.9330   35.7780 H   0  0  0  0  0  0  0  0  0  0  0  0
   32.6830   28.9150   37.7310 H   0  0  0  0  0  0  0  0  0  0  0  0
   33.6060   28.9860   40.0280 H   0  0  0  0  0  0  0  0  0  0  0  0
   36.1620   29.0860   40.7540 C   0  0  0  0  0  0  0  0  0  0  0  0
   36.5690   30.0790   41.6430 C   0  0  0  0  0  0  0  0  0  0  0  0
   36.4370   31.1090   41.3160 H   0  0  0  0  0  0  0  0  0  0  0  0
   37.0520   29.4730   42.7550 N   0  0  0  0  0  0  0  0  0  0  0  0
   37.3790   30.1730   43.4730 H   0  0  0  0  0  0  0  0  0  0  0  0
   36.9580   28.1370   42.5820 C   0  0  0  0  0  0  0  0  0  0  0  0
   37.3130   27.5240   43.4000 H   0  0  0  0  0  0  0  0  0  0  0  0
   36.4210   27.9010   41.3750 N   0  0  0  0  0  0  0  0  0  0  0  0
   37.3470   32.5470   38.6430 N   0  0  0  0  0  0  0  0  0  0  0  0
   37.9330   31.5290   38.6350 C   0  0  0  0  0  0  0  0  0  0  0  0
  1  2  1  0  0  0  0
  2 12  1  0  0  0  0
  3  2  2  0  0  0  0
  3  7  1  0  0  0  0
  4  8  1  0  0  0  0
  4  3  1  0  0  0  0
  5  6  1  0  0  0  0
  5  4  2  0  0  0  0
  6  1  2  0  0  0  0
  9  5  1  0  0  0  0
 10 15  1  0  0  0  0
 11 10  2  0  0  0  0
 11 12  1  0  0  0  0
 12 13  2  0  0  0  0
 13 14  1  0  0  0  0
 14 18  1  0  0  0  0
 15 14  2  0  0  0  0
 16 20  1  0  0  0  0
 16 10  1  0  0  0  0
 17 11  1  0  0  0  0
 19 16  1  0  0  0  0
 21  6  1  0  0  0  0
 21 26  1  0  0  0  0
 22 21  2  0  0  0  0
 23 22  1  0  0  0  0
 23 24  2  0  0  0  0
 24 25  1  0  0  0  0
 25 26  2  0  0  0  0
 25 30  1  0  0  0  0
 26 31  1  0  0  0  0
 27 22  1  0  0  0  0
 28 23  1  0  0  0  0
 29 24  1  0  0  0  0
 31 38  1  0  0  0  0
 31 32  2  0  0  0  0
 32 34  1  0  0  0  0
 33 32  1  0  0  0  0
 34 35  1  0  0  0  0
 36 34  1  0  0  0  0
 36 37  1  0  0  0  0
 38 36  2  0  0  0  0
 40  1  1  0  0  0  0
 40 39  3  0  0  0  0
M  END
>  <minimizedAffinity>
-6.19946909

$$$$

 OpenBabel03252508403D

 40 43  0  0  0  0  0  0  0  0999 V2000
   39.3050   31.2750   40.3440 C   0  0  0  0  0  0  0  0  0  0  0  0
   39.3540   32.5560   39.8680 C   0  0  0  0  0  0  0  0  0  0  0  0
   38.1610   33.2180   39.7050 C   0  0  0  0  0  0  0  0  0  0  0  0
   36.9450   32.6660   39.9930 C   0  0  0  0  0  0  0  0  0  0  0  0
   36.9210   31.3800   40.4690 C   0  0  0  0  0  0  0  0  0  0  0  0
   38.0860   30.6740   40.6490 C   0  0  0  0  0  0  0  0  0  0  0  0
   38.2290   34.2320   39.3260 H   0  0  0  0  0  0  0  0  0  0  0  0
   36.0700   33.2710   39.8280 H   0  0  0  0  0  0  0  0  0  0  0  0
   35.9470   30.9530   40.6930 H   0  0  0  0  0  0  0  0  0  0  0  0
   42.3610   33.8980   38.0290 C   0  0  0  0  0  0  0  0  0  0  0  0
   41.0730   33.3590   38.2530 C   0  0  0  0  0  0  0  0  0  0  0  0
   40.6590   33.1060   39.5770 C   0  0  0  0  0  0  0  0  0  0  0  0
   41.5660   33.4110   40.5460 N   0  0  0  0  0  0  0  0  0  0  0  0
   42.7740   33.9190   40.2950 C   0  0  0  0  0  0  0  0  0  0  0  0
   43.1660   34.1600   39.0360 N   0  0  0  0  0  0  0  0  0  0  0  0
   42.7280   34.1320   36.6860 N   0  0  0  0  0  0  0  0  0  0  0  0
   40.4020   33.1400   37.4320 H   0  0  0  0  0  0  0  0  0  0  0  0
   43.4770   34.1540   41.0820 H   0  0  0  0  0  0  0  0  0  0  0  0
   42.2490   34.6360   35.8930 H   0  0  0  0  0  0  0  0  0  0  0  0
   43.6550   33.7260   36.4370 H   0  0  0  0  0  0  0  0  0  0  0  0
   37.9630   29.3080   41.1620 C   0  0  0  0  0  0  0  0  0  0  0  0
   37.9710   29.1950   42.5340 C   0  0  0  0  0  0  0  0  0  0  0  0
   37.8630   27.9620   43.1940 C   0  0  0  0  0  0  0  0  0  0  0  0
   37.7430   26.8290   42.4190 C   0  0  0  0  0  0  0  0  0  0  0  0
   37.7330   26.9250   41.0490 C   0  0  0  0  0  0  0  0  0  0  0  0
   37.8430   28.1630   40.4120 C   0  0  0  0  0  0  0  0  0  0  0  0
   38.0620   30.0280   43.2190 H   0  0  0  0  0  0  0  0  0  0  0  0
   37.8690   27.8770   44.2670 H   0  0  0  0  0  0  0  0  0  0  0  0
   37.6540   25.8340   42.8090 H   0  0  0  0  0  0  0  0  0  0  0  0
   37.6450   26.1150   40.3490 H   0  0  0  0  0  0  0  0  0  0  0  0
   37.8430   28.3770   38.9670 C   0  0  0  0  0  0  0  0  0  0  0  0
   36.8930   28.6880   37.9950 C   0  0  0  0  0  0  0  0  0  0  0  0
   35.8690   28.8190   38.3390 H   0  0  0  0  0  0  0  0  0  0  0  0
   37.5250   28.7540   36.7980 N   0  0  0  0  0  0  0  0  0  0  0  0
   36.8590   28.9870   36.0140 H   0  0  0  0  0  0  0  0  0  0  0  0
   38.8360   28.4930   36.9980 C   0  0  0  0  0  0  0  0  0  0  0  0
   39.4650   28.5110   36.1180 H   0  0  0  0  0  0  0  0  0  0  0  0
   39.0290   28.2650   38.3060 N   0  0  0  0  0  0  0  0  0  0  0  0
   41.4910   29.8980   40.7110 N   0  0  0  0  0  0  0  0  0  0  0  0
   40.5040   30.5120   40.5430 C   0  0  0  0  0  0  0  0  0  0  0  0
  1 40  1  0  0  0  0
  1  6  1  0  0  0  0
  2  1  2  0  0  0  0
  3  2  1  0  0  0  0
  3  4  2  0  0  0  0
  4  5  1  0  0  0  0
  5  6  2  0  0  0  0
  5  9  1  0  0  0  0
  6 21  1  0  0  0  0
  7  3  1  0  0  0  0
  8  4  1  0  0  0  0
 10 11  2  0  0  0  0
 10 15  1  0  0  0  0
 11 12  1  0  0  0  0
 12  2  1  0  0  0  0
 12 13  2  0  0  0  0
 14 13  1  0  0  0  0
 14 18  1  0  0  0  0
 15 14  2  0  0  0  0
 16 10  1  0  0  0  0
 17 11  1  0  0  0  0
 19 16  1  0  0  0  0
 20 16  1  0  0  0  0
 21 22  1  0  0  0  0
 22 23  2  0  0  0  0
 22 27  1  0  0  0  0
 23 28  1  0  0  0  0
 24 29  1  0  0  0  0
 24 23  1  0  0  0  0
 25 24  2  0  0  0  0
 26 25  1  0  0  0  0
 26 21  2  0  0  0  0
 30 25  1  0  0  0  0
 31 26  1  0  0  0  0
 32 33  1  0  0  0  0
 32 31  2  0  0  0  0
 34 36  1  0  0  0  0
 34 32  1  0  0  0  0
 35 34  1  0  0  0  0
 36 38  2  0  0  0  0
 37 36  1  0  0  0  0
 38 31  1  0  0  0  0
 40 39  3  0  0  0  0
M  END
>  <minimizedAffinity>
-5.9888711

$$$$

 OpenBabel03252508403D

 40 43  0  0  0  0  0  0  0  0999 V2000
   38.4300   28.1550   41.3540 C   0  0  0  0  0  0  0  0  0  0  0  0
   38.9590   28.4680   42.5750 C   0  0  0  0  0  0  0  0  0  0  0  0
   38.1640   28.2750   43.6790 C   0  0  0  0  0  0  0  0  0  0  0  0
   36.8890   27.7900   43.6150 C   0  0  0  0  0  0  0  0  0  0  0  0
   36.3800   27.4840   42.3800 C   0  0  0  0  0  0  0  0  0  0  0  0
   37.1340   27.6590   41.2440 C   0  0  0  0  0  0  0  0  0  0  0  0
   38.6090   28.5310   44.6350 H   0  0  0  0  0  0  0  0  0  0  0  0
   36.3500   27.6770   44.5410 H   0  0  0  0  0  0  0  0  0  0  0  0
   35.3630   27.0990   42.3430 H   0  0  0  0  0  0  0  0  0  0  0  0
   41.9240   30.8000   42.6390 C   0  0  0  0  0  0  0  0  0  0  0  0
   40.5790   30.3610   42.6120 C   0  0  0  0  0  0  0  0  0  0  0  0
   40.3120   28.9760   42.6020 C   0  0  0  0  0  0  0  0  0  0  0  0
   41.4070   28.1660   42.6160 N   0  0  0  0  0  0  0  0  0  0  0  0
   42.6620   28.6170   42.6410 C   0  0  0  0  0  0  0  0  0  0  0  0
   42.9150   29.9340   42.6510 N   0  0  0  0  0  0  0  0  0  0  0  0
   42.1380   32.1940   42.6480 N   0  0  0  0  0  0  0  0  0  0  0  0
   39.7560   31.0640   42.6020 H   0  0  0  0  0  0  0  0  0  0  0  0
   43.5150   27.9530   42.6530 H   0  0  0  0  0  0  0  0  0  0  0  0
   41.7470   32.9720   43.2430 H   0  0  0  0  0  0  0  0  0  0  0  0
   42.8150   32.5110   41.9220 H   0  0  0  0  0  0  0  0  0  0  0  0
   36.5080   27.3040   39.9690 C   0  0  0  0  0  0  0  0  0  0  0  0
   35.8880   28.3430   39.3120 C   0  0  0  0  0  0  0  0  0  0  0  0
   35.2390   28.1810   38.0800 C   0  0  0  0  0  0  0  0  0  0  0  0
   35.2330   26.9220   37.5190 C   0  0  0  0  0  0  0  0  0  0  0  0
   35.8480   25.8750   38.1610 C   0  0  0  0  0  0  0  0  0  0  0  0
   36.4880   26.0580   39.3890 C   0  0  0  0  0  0  0  0  0  0  0  0
   35.8420   29.3600   39.6770 H   0  0  0  0  0  0  0  0  0  0  0  0
   34.7550   28.9960   37.5680 H   0  0  0  0  0  0  0  0  0  0  0  0
   34.7700   26.6770   36.5830 H   0  0  0  0  0  0  0  0  0  0  0  0
   35.9060   24.8580   37.8200 H   0  0  0  0  0  0  0  0  0  0  0  0
   37.1700   25.0180   40.1540 C   0  0  0  0  0  0  0  0  0  0  0  0
   36.8220   24.1130   41.1550 C   0  0  0  0  0  0  0  0  0  0  0  0
   35.7880   24.1370   41.4970 H   0  0  0  0  0  0  0  0  0  0  0  0
   37.9240   23.3880   41.4670 N   0  0  0  0  0  0  0  0  0  0  0  0
   37.7280   22.6800   42.2230 H   0  0  0  0  0  0  0  0  0  0  0  0
   38.9440   23.8170   40.6900 C   0  0  0  0  0  0  0  0  0  0  0  0
   39.8940   23.3200   40.8360 H   0  0  0  0  0  0  0  0  0  0  0  0
   38.4910   24.8000   39.8980 N   0  0  0  0  0  0  0  0  0  0  0  0
   39.8060   28.4650   39.1570 N   0  0  0  0  0  0  0  0  0  0  0  0
   39.1920   28.3270   40.1500 C   0  0  0  0  0  0  0  0  0  0  0  0
  1  2  1  0  0  0  0
  2 12  1  0  0  0  0
  2  3  2  0  0  0  0
  3  7  1  0  0  0  0
  4  3  1  0  0  0  0
  4  8  1  0  0  0  0
  5  4  2  0  0  0  0
  6  1  2  0  0  0  0
  6  5  1  0  0  0  0
  9  5  1  0  0  0  0
 10 16  1  0  0  0  0
 10 15  1  0  0  0  0
 11 10  2  0  0  0  0
 12 11  1  0  0  0  0
 12 13  2  0  0  0  0
 13 14  1  0  0  0  0
 14 15  2  0  0  0  0
 14 18  1  0  0  0  0
 16 19  1  0  0  0  0
 17 11  1  0  0  0  0
 20 16  1  0  0  0  0
 21  6  1  0  0  0  0
 22 27  1  0  0  0  0
 22 21  2  0  0  0  0
 23 22  1  0  0  0  0
 24 23  2  0  0  0  0
 24 25  1  0  0  0  0
 25 26  2  0  0  0  0
 26 21  1  0  0  0  0
 26 31  1  0  0  0  0
 28 23  1  0  0  0  0
 29 24  1  0  0  0  0
 30 25  1  0  0  0  0
 31 32  2  0  0  0  0
 32 34  1  0  0  0  0
 32 33  1  0  0  0  0
 34 35  1  0  0  0  0
 36 37  1  0  0  0  0
 36 34  1  0  0  0  0
 38 31  1  0  0  0  0
 38 36  2  0  0  0  0
 39 40  3  0  0  0  0
 40  1  1  0  0  0  0
M  END
>  <minimizedAffinity>
-5.87880898

$$$$

 OpenBabel03252508403D

 40 43  0  0  0  0  0  0  0  0999 V2000
   38.4840   27.4390   41.4670 C   0  0  0  0  0  0  0  0  0  0  0  0
   37.4880   26.5540   41.7760 C   0  0  0  0  0  0  0  0  0  0  0  0
   36.7210   26.8240   42.8840 C   0  0  0  0  0  0  0  0  0  0  0  0
   36.9030   27.9190   43.6800 C   0  0  0  0  0  0  0  0  0  0  0  0
   37.9080   28.7920   43.3500 C   0  0  0  0  0  0  0  0  0  0  0  0
   38.7040   28.5680   42.2520 C   0  0  0  0  0  0  0  0  0  0  0  0
   35.9390   26.1060   43.1060 H   0  0  0  0  0  0  0  0  0  0  0  0
   36.2480   28.0380   44.5250 H   0  0  0  0  0  0  0  0  0  0  0  0
   38.0420   29.6600   43.9910 H   0  0  0  0  0  0  0  0  0  0  0  0
   37.6620   23.0610   40.3640 C   0  0  0  0  0  0  0  0  0  0  0  0
   37.8520   24.1460   41.2510 C   0  0  0  0  0  0  0  0  0  0  0  0
   37.3250   25.4090   40.9100 C   0  0  0  0  0  0  0  0  0  0  0  0
   36.6640   25.4680   39.7210 N   0  0  0  0  0  0  0  0  0  0  0  0
   36.5040   24.4210   38.9090 C   0  0  0  0  0  0  0  0  0  0  0  0
   37.0050   23.2210   39.2350 N   0  0  0  0  0  0  0  0  0  0  0  0
   38.2090   21.8190   40.7500 N   0  0  0  0  0  0  0  0  0  0  0  0
   38.3910   24.0250   42.1820 H   0  0  0  0  0  0  0  0  0  0  0  0
   35.9740   24.4940   37.9700 H   0  0  0  0  0  0  0  0  0  0  0  0
   38.1450   21.2570   41.6410 H   0  0  0  0  0  0  0  0  0  0  0  0
   38.7890   21.3760   40.0070 H   0  0  0  0  0  0  0  0  0  0  0  0
   39.7510   29.5530   41.9770 C   0  0  0  0  0  0  0  0  0  0  0  0
   40.9560   29.3170   42.5990 C   0  0  0  0  0  0  0  0  0  0  0  0
   42.0670   30.1590   42.4470 C   0  0  0  0  0  0  0  0  0  0  0  0
   41.9260   31.2630   41.6360 C   0  0  0  0  0  0  0  0  0  0  0  0
   40.7320   31.5140   41.0070 C   0  0  0  0  0  0  0  0  0  0  0  0
   39.6370   30.6620   41.1730 C   0  0  0  0  0  0  0  0  0  0  0  0
   41.1550   28.4770   43.2530 H   0  0  0  0  0  0  0  0  0  0  0  0
   43.0080   29.9700   42.9350 H   0  0  0  0  0  0  0  0  0  0  0  0
   42.7040   31.9770   41.4430 H   0  0  0  0  0  0  0  0  0  0  0  0
   40.5090   32.3390   40.3550 H   0  0  0  0  0  0  0  0  0  0  0  0
   38.3260   30.8340   40.5530 C   0  0  0  0  0  0  0  0  0  0  0  0
   37.1070   31.4050   40.9160 C   0  0  0  0  0  0  0  0  0  0  0  0
   37.0570   31.8590   41.9050 H   0  0  0  0  0  0  0  0  0  0  0  0
   36.2440   31.2430   39.8840 N   0  0  0  0  0  0  0  0  0  0  0  0
   35.2970   31.6560   40.0950 H   0  0  0  0  0  0  0  0  0  0  0  0
   36.8900   30.5890   38.8940 C   0  0  0  0  0  0  0  0  0  0  0  0
   36.3130   30.3890   38.0000 H   0  0  0  0  0  0  0  0  0  0  0  0
   38.1460   30.3410   39.2950 N   0  0  0  0  0  0  0  0  0  0  0  0
   40.0150   27.0550   39.3890 N   0  0  0  0  0  0  0  0  0  0  0  0
   39.3310   27.2320   40.3270 C   0  0  0  0  0  0  0  0  0  0  0  0
  1  2  2  0  0  0  0
  1  6  1  0  0  0  0
  2  3  1  0  0  0  0
  3  7  1  0  0  0  0
  3  4  2  0  0  0  0
  4  8  1  0  0  0  0
  5  4  1  0  0  0  0
  5  9  1  0  0  0  0
  6  5  2  0  0  0  0
 10 16  1  0  0  0  0
 10 11  1  0  0  0  0
 11 17  1  0  0  0  0
 12 11  2  0  0  0  0
 12  2  1  0  0  0  0
 13 12  1  0  0  0  0
 14 15  1  0  0  0  0
 14 13  2  0  0  0  0
 15 10  2  0  0  0  0
 16 19  1  0  0  0  0
 18 14  1  0  0  0  0
 20 16  1  0  0  0  0
 21  6  1  0  0  0  0
 21 22  1  0  0  0  0
 22 27  1  0  0  0  0
 23 22  2  0  0  0  0
 23 28  1  0  0  0  0
 24 23  1  0  0  0  0
 25 26  1  0  0  0  0
 25 24  2  0  0  0  0
 26 21  2  0  0  0  0
 29 24  1  0  0  0  0
 30 25  1  0  0  0  0
 31 32  2  0  0  0  0
 31 26  1  0  0  0  0
 32 33  1  0  0  0  0
 34 35  1  0  0  0  0
 34 32  1  0  0  0  0
 36 38  2  0  0  0  0
 36 34  1  0  0  0  0
 37 36  1  0  0  0  0
 38 31  1  0  0  0  0
 39 40  3  0  0  0  0
 40  1  1  0  0  0  0
M  END
>  <minimizedAffinity>
-5.78608274

$$$$

 OpenBabel03252508403D

 40 43  0  0  0  0  0  0  0  0999 V2000
   37.8780   28.9790   40.2050 C   0  0  0  0  0  0  0  0  0  0  0  0
   37.7820   30.3410   40.1240 C   0  0  0  0  0  0  0  0  0  0  0  0
   36.5560   30.9070   40.3780 C   0  0  0  0  0  0  0  0  0  0  0  0
   35.4440   30.1840   40.7050 C   0  0  0  0  0  0  0  0  0  0  0  0
   35.5650   28.8200   40.7810 C   0  0  0  0  0  0  0  0  0  0  0  0
   36.7690   28.2050   40.5350 C   0  0  0  0  0  0  0  0  0  0  0  0
   36.5080   31.9880   40.3060 H   0  0  0  0  0  0  0  0  0  0  0  0
   34.5310   30.7250   40.8850 H   0  0  0  0  0  0  0  0  0  0  0  0
   34.6720   28.2570   41.0420 H   0  0  0  0  0  0  0  0  0  0  0  0
   40.4280   32.1900   38.1710 C   0  0  0  0  0  0  0  0  0  0  0  0
   39.2380   31.4780   38.4510 C   0  0  0  0  0  0  0  0  0  0  0  0
   38.9800   31.0710   39.7770 C   0  0  0  0  0  0  0  0  0  0  0  0
   39.9310   31.4090   40.6910 N   0  0  0  0  0  0  0  0  0  0  0  0
   41.0430   32.0830   40.3890 C   0  0  0  0  0  0  0  0  0  0  0  0
   41.2860   32.4690   39.1280 N   0  0  0  0  0  0  0  0  0  0  0  0
   40.6390   32.5740   36.8300 N   0  0  0  0  0  0  0  0  0  0  0  0
   38.5240   31.2430   37.6720 H   0  0  0  0  0  0  0  0  0  0  0  0
   41.7830   32.3400   41.1330 H   0  0  0  0  0  0  0  0  0  0  0  0
   40.0320   33.0750   36.1270 H   0  0  0  0  0  0  0  0  0  0  0  0
   41.5790   32.3070   36.4690 H   0  0  0  0  0  0  0  0  0  0  0  0
   36.8030   26.7450   40.6390 C   0  0  0  0  0  0  0  0  0  0  0  0
   37.0860   26.2540   41.8940 C   0  0  0  0  0  0  0  0  0  0  0  0
   37.1580   24.8820   42.1730 C   0  0  0  0  0  0  0  0  0  0  0  0
   36.9330   24.0040   41.1350 C   0  0  0  0  0  0  0  0  0  0  0  0
   36.6480   24.4770   39.8780 C   0  0  0  0  0  0  0  0  0  0  0  0
   36.5820   25.8480   39.6210 C   0  0  0  0  0  0  0  0  0  0  0  0
   37.2770   26.8670   42.7650 H   0  0  0  0  0  0  0  0  0  0  0  0
   37.3790   24.5010   43.1560 H   0  0  0  0  0  0  0  0  0  0  0  0
   36.9610   22.9360   41.2270 H   0  0  0  0  0  0  0  0  0  0  0  0
   36.4560   23.8900   38.9980 H   0  0  0  0  0  0  0  0  0  0  0  0
   36.2880   26.4570   38.3260 C   0  0  0  0  0  0  0  0  0  0  0  0
   35.1570   26.9530   37.6800 C   0  0  0  0  0  0  0  0  0  0  0  0
   34.2200   26.9040   38.2310 H   0  0  0  0  0  0  0  0  0  0  0  0
   35.5360   27.3990   36.4560 N   0  0  0  0  0  0  0  0  0  0  0  0
   34.7220   27.7900   35.9120 H   0  0  0  0  0  0  0  0  0  0  0  0
   36.8650   27.1930   36.3250 C   0  0  0  0  0  0  0  0  0  0  0  0
   37.3040   27.5050   35.3870 H   0  0  0  0  0  0  0  0  0  0  0  0
   37.3210   26.6250   37.4520 N   0  0  0  0  0  0  0  0  0  0  0  0
   40.1350   27.7560   39.7350 N   0  0  0  0  0  0  0  0  0  0  0  0
   39.1210   28.3080   39.9540 C   0  0  0  0  0  0  0  0  0  0  0  0
  1  6  1  0  0  0  0
  2  1  2  0  0  0  0
  2  3  1  0  0  0  0
  3  4  2  0  0  0  0
  4  5  1  0  0  0  0
  4  8  1  0  0  0  0
  5  9  1  0  0  0  0
  6 21  1  0  0  0  0
  6  5  2  0  0  0  0
  7  3  1  0  0  0  0
 10 11  2  0  0  0  0
 10 15  1  0  0  0  0
 11 12  1  0  0  0  0
 12  2  1  0  0  0  0
 12 13  2  0  0  0  0
 14 13  1  0  0  0  0
 14 18  1  0  0  0  0
 15 14  2  0  0  0  0
 16 10  1  0  0  0  0
 17 11  1  0  0  0  0
 19 16  1  0  0  0  0
 20 16  1  0  0  0  0
 21 22  1  0  0  0  0
 22 23  2  0  0  0  0
 22 27  1  0  0  0  0
 23 28  1  0  0  0  0
 24 29  1  0  0  0  0
 24 23  1  0  0  0  0
 25 24  2  0  0  0  0
 26 25  1  0  0  0  0
 26 21  2  0  0  0  0
 30 25  1  0  0  0  0
 31 26  1  0  0  0  0
 32 33  1  0  0  0  0
 32 31  2  0  0  0  0
 34 32  1  0  0  0  0
 35 34  1  0  0  0  0
 36 34  1  0  0  0  0
 36 38  2  0  0  0  0
 37 36  1  0  0  0  0
 38 31  1  0  0  0  0
 39 40  3  0  0  0  0
 40  1  1  0  0  0  0
M  END
>  <minimizedAffinity>
-5.76755524

$$$$

 OpenBabel03252508403D

 40 43  0  0  0  0  0  0  0  0999 V2000
   38.9760   30.9720   39.1450 C   0  0  0  0  0  0  0  0  0  0  0  0
   39.3480   32.2410   39.4960 C   0  0  0  0  0  0  0  0  0  0  0  0
   38.3810   33.0630   40.0230 C   0  0  0  0  0  0  0  0  0  0  0  0
   37.0850   32.6780   40.2130 C   0  0  0  0  0  0  0  0  0  0  0  0
   36.7350   31.4010   39.8540 C   0  0  0  0  0  0  0  0  0  0  0  0
   37.6640   30.5400   39.3220 C   0  0  0  0  0  0  0  0  0  0  0  0
   38.7040   34.0630   40.2920 H   0  0  0  0  0  0  0  0  0  0  0  0
   36.4060   33.3990   40.6330 H   0  0  0  0  0  0  0  0  0  0  0  0
   35.7000   31.1080   40.0110 H   0  0  0  0  0  0  0  0  0  0  0  0
   42.5160   33.5570   37.9270 C   0  0  0  0  0  0  0  0  0  0  0  0
   41.1520   33.2170   38.0800 C   0  0  0  0  0  0  0  0  0  0  0  0
   40.7290   32.6100   39.2810 C   0  0  0  0  0  0  0  0  0  0  0  0
   41.7040   32.3990   40.2080 N   0  0  0  0  0  0  0  0  0  0  0  0
   42.9830   32.7340   40.0270 C   0  0  0  0  0  0  0  0  0  0  0  0
   43.3830   33.3110   38.8850 N   0  0  0  0  0  0  0  0  0  0  0  0
   42.8880   34.1610   36.7070 N   0  0  0  0  0  0  0  0  0  0  0  0
   40.4290   33.4150   37.2980 H   0  0  0  0  0  0  0  0  0  0  0  0
   43.7390   32.5560   40.7790 H   0  0  0  0  0  0  0  0  0  0  0  0
   42.5000   34.9820   36.1700 H   0  0  0  0  0  0  0  0  0  0  0  0
   43.7060   33.7020   36.2540 H   0  0  0  0  0  0  0  0  0  0  0  0
   37.2000   29.1970   38.9690 C   0  0  0  0  0  0  0  0  0  0  0  0
   36.6850   29.0700   37.6990 C   0  0  0  0  0  0  0  0  0  0  0  0
   36.1960   27.8560   37.1960 C   0  0  0  0  0  0  0  0  0  0  0  0
   36.2420   26.7550   38.0240 C   0  0  0  0  0  0  0  0  0  0  0  0
   36.7530   26.8640   39.2940 C   0  0  0  0  0  0  0  0  0  0  0  0
   37.2350   28.0840   39.7750 C   0  0  0  0  0  0  0  0  0  0  0  0
   36.6090   29.8780   36.9830 H   0  0  0  0  0  0  0  0  0  0  0  0
   35.7940   27.7600   36.2020 H   0  0  0  0  0  0  0  0  0  0  0  0
   35.8980   25.7760   37.7510 H   0  0  0  0  0  0  0  0  0  0  0  0
   36.8390   26.0790   40.0220 H   0  0  0  0  0  0  0  0  0  0  0  0
   37.7970   28.3100   41.1040 C   0  0  0  0  0  0  0  0  0  0  0  0
   39.0650   28.2690   41.6810 C   0  0  0  0  0  0  0  0  0  0  0  0
   39.8920   28.0090   41.0230 H   0  0  0  0  0  0  0  0  0  0  0  0
   38.9380   28.5840   42.9940 N   0  0  0  0  0  0  0  0  0  0  0  0
   39.8670   28.5720   43.4920 H   0  0  0  0  0  0  0  0  0  0  0  0
   37.6320   28.8180   43.2470 C   0  0  0  0  0  0  0  0  0  0  0  0
   37.3840   29.0820   44.2660 H   0  0  0  0  0  0  0  0  0  0  0  0
   36.9410   28.6530   42.1080 N   0  0  0  0  0  0  0  0  0  0  0  0
   40.6980   29.3030   38.1180 N   0  0  0  0  0  0  0  0  0  0  0  0
   39.9230   30.0500   38.5870 C   0  0  0  0  0  0  0  0  0  0  0  0
  1  6  2  0  0  0  0
  1  2  1  0  0  0  0
  2  3  2  0  0  0  0
  3  4  1  0  0  0  0
  3  7  1  0  0  0  0
  4  8  1  0  0  0  0
  5  9  1  0  0  0  0
  5  4  2  0  0  0  0
  6  5  1  0  0  0  0
 10 11  2  0  0  0  0
 10 15  1  0  0  0  0
 11 12  1  0  0  0  0
 12  2  1  0  0  0  0
 12 13  2  0  0  0  0
 14 13  1  0  0  0  0
 14 18  1  0  0  0  0
 15 14  2  0  0  0  0
 16 10  1  0  0  0  0
 17 11  1  0  0  0  0
 19 16  1  0  0  0  0
 20 16  1  0  0  0  0
 21  6  1  0  0  0  0
 21 26  1  0  0  0  0
 22 21  2  0  0  0  0
 23 22  1  0  0  0  0
 23 24  2  0  0  0  0
 24 25  1  0  0  0  0
 25 26  2  0  0  0  0
 25 30  1  0  0  0  0
 26 31  1  0  0  0  0
 27 22  1  0  0  0  0
 28 23  1  0  0  0  0
 29 24  1  0  0  0  0
 31 32  2  0  0  0  0
 31 38  1  0  0  0  0
 32 34  1  0  0  0  0
 33 32  1  0  0  0  0
 34 36  1  0  0  0  0
 34 35  1  0  0  0  0
 36 37  1  0  0  0  0
 38 36  2  0  0  0  0
 39 40  3  0  0  0  0
 40  1  1  0  0  0  0
M  END
>  <minimizedAffinity>
-5.76228523

$$$$

 OpenBabel03252508403D

 40 43  0  0  0  0  0  0  0  0999 V2000
   38.0790   28.8130   39.3240 C   0  0  0  0  0  0  0  0  0  0  0  0
   37.6990   30.0520   38.8880 C   0  0  0  0  0  0  0  0  0  0  0  0
   36.3690   30.2420   38.5990 C   0  0  0  0  0  0  0  0  0  0  0  0
   35.4220   29.2670   38.7260 C   0  0  0  0  0  0  0  0  0  0  0  0
   35.8270   28.0320   39.1640 C   0  0  0  0  0  0  0  0  0  0  0  0
   37.1450   27.7900   39.4660 C   0  0  0  0  0  0  0  0  0  0  0  0
   36.0950   31.2340   38.2560 H   0  0  0  0  0  0  0  0  0  0  0  0
   34.4070   29.5200   38.4720 H   0  0  0  0  0  0  0  0  0  0  0  0
   35.0630   27.2640   39.2600 H   0  0  0  0  0  0  0  0  0  0  0  0
   40.0280   32.9200   39.6470 C   0  0  0  0  0  0  0  0  0  0  0  0
   39.0080   31.9560   39.8200 C   0  0  0  0  0  0  0  0  0  0  0  0
   38.7290   31.0580   38.7690 C   0  0  0  0  0  0  0  0  0  0  0  0
   39.4910   31.2090   37.6500 N   0  0  0  0  0  0  0  0  0  0  0  0
   40.4460   32.1310   37.5230 C   0  0  0  0  0  0  0  0  0  0  0  0
   40.7100   32.9840   38.5230 N   0  0  0  0  0  0  0  0  0  0  0  0
   40.2670   33.7950   40.7280 N   0  0  0  0  0  0  0  0  0  0  0  0
   38.4400   31.8950   40.7400 H   0  0  0  0  0  0  0  0  0  0  0  0
   41.0380   32.2310   36.6240 H   0  0  0  0  0  0  0  0  0  0  0  0
   40.4330   33.6300   41.7560 H   0  0  0  0  0  0  0  0  0  0  0  0
   40.2810   34.7990   40.4480 H   0  0  0  0  0  0  0  0  0  0  0  0
   37.4850   26.4420   39.9270 C   0  0  0  0  0  0  0  0  0  0  0  0
   37.6740   25.5130   38.9300 C   0  0  0  0  0  0  0  0  0  0  0  0
   38.0040   24.1750   39.1930 C   0  0  0  0  0  0  0  0  0  0  0  0
   38.1420   23.7960   40.5100 C   0  0  0  0  0  0  0  0  0  0  0  0
   37.9570   24.7110   41.5170 C   0  0  0  0  0  0  0  0  0  0  0  0
   37.6280   26.0390   41.2340 C   0  0  0  0  0  0  0  0  0  0  0  0
   37.5860   25.7200   37.8720 H   0  0  0  0  0  0  0  0  0  0  0  0
   38.1520   23.4500   38.4100 H   0  0  0  0  0  0  0  0  0  0  0  0
   38.3910   22.8040   40.8330 H   0  0  0  0  0  0  0  0  0  0  0  0
   38.0380   24.5300   42.5730 H   0  0  0  0  0  0  0  0  0  0  0  0
   37.4100   27.0900   42.2240 C   0  0  0  0  0  0  0  0  0  0  0  0
   36.3070   27.7190   42.7980 C   0  0  0  0  0  0  0  0  0  0  0  0
   35.3260   27.3840   42.4650 H   0  0  0  0  0  0  0  0  0  0  0  0
   36.7640   28.6430   43.6800 N   0  0  0  0  0  0  0  0  0  0  0  0
   35.9750   29.1580   44.1520 H   0  0  0  0  0  0  0  0  0  0  0  0
   38.1140   28.6050   43.6680 C   0  0  0  0  0  0  0  0  0  0  0  0
   38.6160   29.2980   44.3300 H   0  0  0  0  0  0  0  0  0  0  0  0
   38.5060   27.6690   42.7900 N   0  0  0  0  0  0  0  0  0  0  0  0
   40.5650   28.2880   39.9210 N   0  0  0  0  0  0  0  0  0  0  0  0
   39.4480   28.5290   39.6470 C   0  0  0  0  0  0  0  0  0  0  0  0
  1  6  1  0  0  0  0
  1 40  1  0  0  0  0
  2  1  2  0  0  0  0
  3  4  2  0  0  0  0
  3  2  1  0  0  0  0
  4  5  1  0  0  0  0
  5  9  1  0  0  0  0
  5  6  2  0  0  0  0
  6 21  1  0  0  0  0
  7  3  1  0  0  0  0
  8  4  1  0  0  0  0
 10 11  1  0  0  0  0
 10 16  1  0  0  0  0
 11 17  1  0  0  0  0
 12  2  1  0  0  0  0
 12 11  2  0  0  0  0
 13 12  1  0  0  0  0
 14 13  2  0  0  0  0
 14 15  1  0  0  0  0
 15 10  2  0  0  0  0
 16 19  1  0  0  0  0
 18 14  1  0  0  0  0
 20 16  1  0  0  0  0
 21 26  1  0  0  0  0
 22 23  1  0  0  0  0
 22 21  2  0  0  0  0
 23 24  2  0  0  0  0
 24 29  1  0  0  0  0
 24 25  1  0  0  0  0
 25 30  1  0  0  0  0
 26 25  2  0  0  0  0
 26 31  1  0  0  0  0
 27 22  1  0  0  0  0
 28 23  1  0  0  0  0
 31 38  1  0  0  0  0
 31 32  2  0  0  0  0
 32 34  1  0  0  0  0
 33 32  1  0  0  0  0
 34 35  1  0  0  0  0
 36 34  1  0  0  0  0
 36 37  1  0  0  0  0
 38 36  2  0  0  0  0
 40 39  3  0  0  0  0
M  END
>  <minimizedAffinity>
-5.71383429

$$$$
