
 OpenBabel03252507583D

 26 28  0  0  1  0  0  0  0  0999 V2000
   37.7270   28.2870   42.9590 C   0  0  1  0  0  0  0  0  0  0  0  0
   36.5120   27.4890   43.3050 C   0  0  0  0  0  0  0  0  0  0  0  0
   37.4300   27.0060   42.2380 C   0  0  2  0  0  0  0  0  0  0  0  0
   38.4590   28.3060   43.7750 H   0  0  0  0  0  0  0  0  0  0  0  0
   35.5500   27.9750   43.0130 H   0  0  0  0  0  0  0  0  0  0  0  0
   36.4340   26.9990   44.2930 H   0  0  0  0  0  0  0  0  0  0  0  0
   37.0150   27.0390   41.2100 H   0  0  0  0  0  0  0  0  0  0  0  0
   38.5470   31.3670   41.1340 C   0  0  0  0  0  0  0  0  0  0  0  0
   37.3240   31.7280   40.5210 C   0  0  0  0  0  0  0  0  0  0  0  0
   36.2170   30.8870   40.7520 C   0  0  0  0  0  0  0  0  0  0  0  0
   36.3930   29.7900   41.5430 N   0  0  0  0  0  0  0  0  0  0  0  0
   37.6060   29.5070   42.0970 C   0  0  0  0  0  0  0  0  0  0  0  0
   38.6730   30.2620   41.9130 N   0  0  0  0  0  0  0  0  0  0  0  0
   37.2210   32.5910   39.9110 H   0  0  0  0  0  0  0  0  0  0  0  0
   35.2580   31.1150   40.3100 H   0  0  0  0  0  0  0  0  0  0  0  0
   39.6290   32.2660   40.8620 C   0  0  0  0  0  0  0  0  0  0  0  0
   39.5220   33.5270   40.7830 O   0  0  0  0  0  0  0  0  0  0  0  0
   40.4970   31.6190   40.7530 H   0  0  0  0  0  0  0  0  0  0  0  0
   38.2890   25.8200   42.4840 C   0  0  0  0  0  0  0  0  0  0  0  0
   37.8890   24.5130   42.1980 C   0  0  0  0  0  0  0  0  0  0  0  0
   36.9450   24.1580   41.7750 H   0  0  0  0  0  0  0  0  0  0  0  0
   38.9280   23.7130   42.5540 N   0  0  0  0  0  0  0  0  0  0  0  0
   38.8890   22.6560   42.4390 H   0  0  0  0  0  0  0  0  0  0  0  0
   39.9430   24.4690   43.0430 C   0  0  0  0  0  0  0  0  0  0  0  0
   40.8980   24.0770   43.4010 H   0  0  0  0  0  0  0  0  0  0  0  0
   39.5360   25.7680   42.9950 N   0  0  0  0  0  0  0  0  0  0  0  0
  1  2  1  0  0  0  0
  1  4  1  1  0  0  0
  2  6  1  0  0  0  0
  3  7  1  6  0  0  0
  3 19  1  0  0  0  0
  3  1  1  0  0  0  0
  3  2  1  0  0  0  0
  5  2  1  0  0  0  0
  8 13  1  0  0  0  0
  9 10  1  0  0  0  0
  9  8  2  0  0  0  0
 10 11  2  0  0  0  0
 11 12  1  0  0  0  0
 12  1  1  0  0  0  0
 13 12  2  0  0  0  0
 14  9  1  0  0  0  0
 15 10  1  0  0  0  0
 16  8  1  0  0  0  0
 17 16  2  0  0  0  0
 18 16  1  0  0  0  0
 19 26  1  0  0  0  0
 20 19  2  0  0  0  0
 20 22  1  0  0  0  0
 21 20  1  0  0  0  0
 22 24  1  0  0  0  0
 23 22  1  0  0  0  0
 24 25  1  0  0  0  0
 26 24  2  0  0  0  0
M  END
>  <minimizedAffinity>
-4.89480829

$$$$

 OpenBabel03252507583D

 26 28  0  0  1  0  0  0  0  0999 V2000
   38.7260   30.0900   42.6200 C   0  0  1  0  0  0  0  0  0  0  0  0
   40.1250   30.5930   42.4760 C   0  0  0  0  0  0  0  0  0  0  0  0
   39.1930   30.6710   41.3190 C   0  0  2  0  0  0  0  0  0  0  0  0
   38.1350   30.6960   43.3160 H   0  0  0  0  0  0  0  0  0  0  0  0
   40.9020   29.7910   42.4930 H   0  0  0  0  0  0  0  0  0  0  0  0
   40.4540   31.4870   43.0390 H   0  0  0  0  0  0  0  0  0  0  0  0
   39.4360   29.9960   40.4730 H   0  0  0  0  0  0  0  0  0  0  0  0
   39.0730   26.4510   42.9830 C   0  0  0  0  0  0  0  0  0  0  0  0
   37.8830   25.9430   42.4090 C   0  0  0  0  0  0  0  0  0  0  0  0
   36.9650   26.8820   41.8980 C   0  0  0  0  0  0  0  0  0  0  0  0
   37.2780   28.2070   41.9890 N   0  0  0  0  0  0  0  0  0  0  0  0
   38.4450   28.6190   42.5580 C   0  0  0  0  0  0  0  0  0  0  0  0
   39.3390   27.7810   43.0500 N   0  0  0  0  0  0  0  0  0  0  0  0
   37.6710   24.9050   42.3550 H   0  0  0  0  0  0  0  0  0  0  0  0
   36.0400   26.5500   41.4490 H   0  0  0  0  0  0  0  0  0  0  0  0
   39.9640   25.4450   43.4780 C   0  0  0  0  0  0  0  0  0  0  0  0
   39.8030   24.1950   43.3270 O   0  0  0  0  0  0  0  0  0  0  0  0
   40.7510   26.0030   43.9790 H   0  0  0  0  0  0  0  0  0  0  0  0
   38.6650   31.9880   40.8820 C   0  0  0  0  0  0  0  0  0  0  0  0
   37.3670   32.1720   40.4020 C   0  0  0  0  0  0  0  0  0  0  0  0
   36.5690   31.4360   40.2730 H   0  0  0  0  0  0  0  0  0  0  0  0
   37.2560   33.4940   40.1060 N   0  0  0  0  0  0  0  0  0  0  0  0
   36.3580   33.9100   39.7190 H   0  0  0  0  0  0  0  0  0  0  0  0
   38.4250   34.1250   40.3830 C   0  0  0  0  0  0  0  0  0  0  0  0
   38.6080   35.1930   40.2380 H   0  0  0  0  0  0  0  0  0  0  0  0
   39.2870   33.1850   40.8610 N   0  0  0  0  0  0  0  0  0  0  0  0
  1  4  1  1  0  0  0
  2  5  1  0  0  0  0
  2  1  1  0  0  0  0
  2  6  1  0  0  0  0
  3  7  1  6  0  0  0
  3  2  1  0  0  0  0
  3  1  1  0  0  0  0
  8 13  1  0  0  0  0
  8 16  1  0  0  0  0
  9  8  2  0  0  0  0
 10 11  2  0  0  0  0
 10  9  1  0  0  0  0
 11 12  1  0  0  0  0
 12  1  1  0  0  0  0
 12 13  2  0  0  0  0
 14  9  1  0  0  0  0
 15 10  1  0  0  0  0
 16 18  1  0  0  0  0
 17 16  2  0  0  0  0
 19  3  1  0  0  0  0
 20 19  2  0  0  0  0
 21 20  1  0  0  0  0
 22 24  1  0  0  0  0
 22 20  1  0  0  0  0
 23 22  1  0  0  0  0
 24 26  2  0  0  0  0
 25 24  1  0  0  0  0
 26 19  1  0  0  0  0
M  END
>  <minimizedAffinity>
-4.78857088

$$$$

 OpenBabel03252507583D

 26 28  0  0  1  0  0  0  0  0999 V2000
   38.4480   28.4550   42.3220 C   0  0  1  0  0  0  0  0  0  0  0  0
   37.7340   28.1920   43.6080 C   0  0  0  0  0  0  0  0  0  0  0  0
   37.6410   27.2040   42.4980 C   0  0  2  0  0  0  0  0  0  0  0  0
   39.5380   28.4310   42.4380 H   0  0  0  0  0  0  0  0  0  0  0  0
   36.8720   28.8760   43.7970 H   0  0  0  0  0  0  0  0  0  0  0  0
   38.3100   28.0000   44.5320 H   0  0  0  0  0  0  0  0  0  0  0  0
   36.6420   27.1230   42.0220 H   0  0  0  0  0  0  0  0  0  0  0  0
   37.8710   30.3360   39.2200 C   0  0  0  0  0  0  0  0  0  0  0  0
   36.7810   31.1790   39.5390 C   0  0  0  0  0  0  0  0  0  0  0  0
   36.2530   31.0830   40.8420 C   0  0  0  0  0  0  0  0  0  0  0  0
   36.8210   30.1910   41.7040 N   0  0  0  0  0  0  0  0  0  0  0  0
   37.8710   29.4100   41.3210 C   0  0  0  0  0  0  0  0  0  0  0  0
   38.4020   29.4620   40.1140 N   0  0  0  0  0  0  0  0  0  0  0  0
   36.3630   31.8630   38.8430 H   0  0  0  0  0  0  0  0  0  0  0  0
   35.4210   31.7040   41.1400 H   0  0  0  0  0  0  0  0  0  0  0  0
   38.3620   30.4870   37.8820 C   0  0  0  0  0  0  0  0  0  0  0  0
   38.0340   31.4230   37.0910 O   0  0  0  0  0  0  0  0  0  0  0  0
   39.0370   29.6450   37.7450 H   0  0  0  0  0  0  0  0  0  0  0  0
   38.3410   25.8990   42.6110 C   0  0  0  0  0  0  0  0  0  0  0  0
   37.8710   24.7240   42.0200 C   0  0  0  0  0  0  0  0  0  0  0  0
   36.9730   24.5690   41.4150 H   0  0  0  0  0  0  0  0  0  0  0  0
   38.7670   23.7540   42.3400 N   0  0  0  0  0  0  0  0  0  0  0  0
   38.6490   22.7500   42.0120 H   0  0  0  0  0  0  0  0  0  0  0  0
   39.7620   24.2810   43.0990 C   0  0  0  0  0  0  0  0  0  0  0  0
   40.6120   23.7180   43.4910 H   0  0  0  0  0  0  0  0  0  0  0  0
   39.4870   25.6060   43.2590 N   0  0  0  0  0  0  0  0  0  0  0  0
  1  4  1  1  0  0  0
  1  3  1  0  0  0  0
  1  2  1  0  0  0  0
  2  5  1  0  0  0  0
  2  6  1  0  0  0  0
  3  7  1  6  0  0  0
  3 19  1  0  0  0  0
  3  2  1  0  0  0  0
  8  9  2  0  0  0  0
  8 13  1  0  0  0  0
  9 10  1  0  0  0  0
 10 15  1  0  0  0  0
 10 11  2  0  0  0  0
 12 11  1  0  0  0  0
 12  1  1  0  0  0  0
 13 12  2  0  0  0  0
 14  9  1  0  0  0  0
 16  8  1  0  0  0  0
 17 16  2  0  0  0  0
 18 16  1  0  0  0  0
 19 26  1  0  0  0  0
 20 22  1  0  0  0  0
 20 19  2  0  0  0  0
 21 20  1  0  0  0  0
 22 24  1  0  0  0  0
 23 22  1  0  0  0  0
 24 26  2  0  0  0  0
 24 25  1  0  0  0  0
M  END
>  <minimizedAffinity>
-4.50419474

$$$$

 OpenBabel03252507583D

 26 28  0  0  1  0  0  0  0  0999 V2000
   37.8420   28.4160   42.7910 C   0  0  1  0  0  0  0  0  0  0  0  0
   36.5610   27.7630   42.3830 C   0  0  0  0  0  0  0  0  0  0  0  0
   37.8490   27.2680   41.8250 C   0  0  2  0  0  0  0  0  0  0  0  0
   38.0760   28.2490   43.8490 H   0  0  0  0  0  0  0  0  0  0  0  0
   35.9050   28.4050   41.7470 H   0  0  0  0  0  0  0  0  0  0  0  0
   35.9710   27.1900   43.1230 H   0  0  0  0  0  0  0  0  0  0  0  0
   37.9980   27.4630   40.7430 H   0  0  0  0  0  0  0  0  0  0  0  0
   37.7990   31.5020   40.7990 C   0  0  0  0  0  0  0  0  0  0  0  0
   39.0490   32.1010   41.0850 C   0  0  0  0  0  0  0  0  0  0  0  0
   39.9000   31.4180   41.9770 C   0  0  0  0  0  0  0  0  0  0  0  0
   39.4690   30.2350   42.5030 N   0  0  0  0  0  0  0  0  0  0  0  0
   38.2480   29.7220   42.1790 C   0  0  0  0  0  0  0  0  0  0  0  0
   37.4150   30.3210   41.3500 N   0  0  0  0  0  0  0  0  0  0  0  0
   39.3530   33.0240   40.6580 H   0  0  0  0  0  0  0  0  0  0  0  0
   40.8660   31.8290   42.2300 H   0  0  0  0  0  0  0  0  0  0  0  0
   36.9850   32.2450   39.8840 C   0  0  0  0  0  0  0  0  0  0  0  0
   37.3280   32.5660   38.7050 O   0  0  0  0  0  0  0  0  0  0  0  0
   36.0690   32.4410   40.4350 H   0  0  0  0  0  0  0  0  0  0  0  0
   38.3880   25.9560   42.2620 C   0  0  0  0  0  0  0  0  0  0  0  0
   37.6870   24.7550   42.1230 C   0  0  0  0  0  0  0  0  0  0  0  0
   36.6940   24.5820   41.7000 H   0  0  0  0  0  0  0  0  0  0  0  0
   38.4930   23.7860   42.6300 N   0  0  0  0  0  0  0  0  0  0  0  0
   38.2010   22.7640   42.6480 H   0  0  0  0  0  0  0  0  0  0  0  0
   39.6530   24.3370   43.0710 C   0  0  0  0  0  0  0  0  0  0  0  0
   40.4760   23.7800   43.5240 H   0  0  0  0  0  0  0  0  0  0  0  0
   39.5750   25.6770   42.8390 N   0  0  0  0  0  0  0  0  0  0  0  0
  1  4  1  1  0  0  0
  2  1  1  0  0  0  0
  2  6  1  0  0  0  0
  3  7  1  6  0  0  0
  3 19  1  0  0  0  0
  3  2  1  0  0  0  0
  3  1  1  0  0  0  0
  5  2  1  0  0  0  0
  8  9  2  0  0  0  0
  8 13  1  0  0  0  0
  9 10  1  0  0  0  0
 10 15  1  0  0  0  0
 10 11  2  0  0  0  0
 12 11  1  0  0  0  0
 12  1  1  0  0  0  0
 13 12  2  0  0  0  0
 14  9  1  0  0  0  0
 16 18  1  0  0  0  0
 16  8  1  0  0  0  0
 17 16  2  0  0  0  0
 19 26  1  0  0  0  0
 20 19  2  0  0  0  0
 20 22  1  0  0  0  0
 21 20  1  0  0  0  0
 22 23  1  0  0  0  0
 22 24  1  0  0  0  0
 24 25  1  0  0  0  0
 26 24  2  0  0  0  0
M  END
>  <minimizedAffinity>
-4.49952221

$$$$

 OpenBabel03252507583D

 26 28  0  0  1  0  0  0  0  0999 V2000
   39.1480   30.0870   42.7760 C   0  0  1  0  0  0  0  0  0  0  0  0
   40.4000   30.8640   42.5260 C   0  0  0  0  0  0  0  0  0  0  0  0
   39.4420   30.6330   41.4100 C   0  0  2  0  0  0  0  0  0  0  0  0
   38.4580   30.6140   43.4450 H   0  0  0  0  0  0  0  0  0  0  0  0
   41.3330   30.2510   42.5750 H   0  0  0  0  0  0  0  0  0  0  0  0
   40.5400   31.8550   42.9960 H   0  0  0  0  0  0  0  0  0  0  0  0
   39.8040   29.9500   40.6140 H   0  0  0  0  0  0  0  0  0  0  0  0
   38.1740   26.5510   42.5760 C   0  0  0  0  0  0  0  0  0  0  0  0
   39.3280   25.8620   43.0180 C   0  0  0  0  0  0  0  0  0  0  0  0
   40.4430   26.6420   43.3820 C   0  0  0  0  0  0  0  0  0  0  0  0
   40.3400   27.9990   43.2870 N   0  0  0  0  0  0  0  0  0  0  0  0
   39.1930   28.5910   42.8510 C   0  0  0  0  0  0  0  0  0  0  0  0
   38.1210   27.9060   42.4980 N   0  0  0  0  0  0  0  0  0  0  0  0
   39.3740   24.8030   43.0800 H   0  0  0  0  0  0  0  0  0  0  0  0
   41.3500   26.1680   43.7270 H   0  0  0  0  0  0  0  0  0  0  0  0
   37.0770   25.6990   42.2250 C   0  0  0  0  0  0  0  0  0  0  0  0
   37.0000   25.0180   41.1580 O   0  0  0  0  0  0  0  0  0  0  0  0
   36.3850   25.7920   43.0590 H   0  0  0  0  0  0  0  0  0  0  0  0
   38.6290   31.7600   40.8890 C   0  0  0  0  0  0  0  0  0  0  0  0
   37.2790   31.6390   40.5530 C   0  0  0  0  0  0  0  0  0  0  0  0
   36.6300   30.7610   40.6100 H   0  0  0  0  0  0  0  0  0  0  0  0
   36.8860   32.8660   40.1190 N   0  0  0  0  0  0  0  0  0  0  0  0
   35.8900   33.0560   39.7980 H   0  0  0  0  0  0  0  0  0  0  0  0
   37.9320   33.7290   40.1740 C   0  0  0  0  0  0  0  0  0  0  0  0
   37.8890   34.7810   39.8830 H   0  0  0  0  0  0  0  0  0  0  0  0
   39.0020   33.0340   40.6510 N   0  0  0  0  0  0  0  0  0  0  0  0
  1 12  1  0  0  0  0
  1  4  1  1  0  0  0
  2  5  1  0  0  0  0
  2  1  1  0  0  0  0
  2  6  1  0  0  0  0
  3  7  1  6  0  0  0
  3  2  1  0  0  0  0
  3  1  1  0  0  0  0
  8  9  1  0  0  0  0
  9 14  1  0  0  0  0
  9 10  2  0  0  0  0
 10 15  1  0  0  0  0
 11 10  1  0  0  0  0
 12 11  2  0  0  0  0
 13  8  2  0  0  0  0
 13 12  1  0  0  0  0
 16  8  1  0  0  0  0
 16 18  1  0  0  0  0
 17 16  2  0  0  0  0
 19  3  1  0  0  0  0
 20 21  1  0  0  0  0
 20 19  2  0  0  0  0
 22 24  1  0  0  0  0
 22 20  1  0  0  0  0
 23 22  1  0  0  0  0
 24 26  2  0  0  0  0
 25 24  1  0  0  0  0
 26 19  1  0  0  0  0
M  END
>  <minimizedAffinity>
-4.49774313

$$$$

 OpenBabel03252507583D

 26 28  0  0  1  0  0  0  0  0999 V2000
   37.5940   29.3270   39.7390 C   0  0  1  0  0  0  0  0  0  0  0  0
   36.5300   30.3440   39.4820 C   0  0  0  0  0  0  0  0  0  0  0  0
   37.9200   30.7910   39.7680 C   0  0  2  0  0  0  0  0  0  0  0  0
   37.8210   28.7280   38.8500 H   0  0  0  0  0  0  0  0  0  0  0  0
   35.7620   30.4130   40.2900 H   0  0  0  0  0  0  0  0  0  0  0  0
   36.0710   30.4250   38.4790 H   0  0  0  0  0  0  0  0  0  0  0  0
   38.0590   31.3030   40.7430 H   0  0  0  0  0  0  0  0  0  0  0  0
   38.9600   27.7900   42.7830 C   0  0  0  0  0  0  0  0  0  0  0  0
   37.8070   27.4330   43.5220 C   0  0  0  0  0  0  0  0  0  0  0  0
   36.5560   27.7350   42.9480 C   0  0  0  0  0  0  0  0  0  0  0  0
   36.5360   28.3460   41.7290 N   0  0  0  0  0  0  0  0  0  0  0  0
   37.6910   28.6610   41.0780 C   0  0  0  0  0  0  0  0  0  0  0  0
   38.8870   28.3990   41.5710 N   0  0  0  0  0  0  0  0  0  0  0  0
   37.8590   26.9570   44.4700 H   0  0  0  0  0  0  0  0  0  0  0  0
   35.6430   27.4840   43.4690 H   0  0  0  0  0  0  0  0  0  0  0  0
   40.1970   27.4520   43.4210 C   0  0  0  0  0  0  0  0  0  0  0  0
   40.5790   26.2700   43.6790 O   0  0  0  0  0  0  0  0  0  0  0  0
   40.6760   28.4100   43.6060 H   0  0  0  0  0  0  0  0  0  0  0  0
   38.7480   31.3710   38.6810 C   0  0  0  0  0  0  0  0  0  0  0  0
   38.2300   31.7390   37.4370 C   0  0  0  0  0  0  0  0  0  0  0  0
   37.2020   31.6690   37.0710 H   0  0  0  0  0  0  0  0  0  0  0  0
   39.2770   32.2230   36.7190 N   0  0  0  0  0  0  0  0  0  0  0  0
   39.1600   32.5780   35.7240 H   0  0  0  0  0  0  0  0  0  0  0  0
   40.4090   32.1690   37.4650 C   0  0  0  0  0  0  0  0  0  0  0  0
   41.3960   32.4970   37.1280 H   0  0  0  0  0  0  0  0  0  0  0  0
   40.0690   31.6410   38.6740 N   0  0  0  0  0  0  0  0  0  0  0  0
  1  4  1  6  0  0  0
  1  3  1  0  0  0  0
  1 12  1  0  0  0  0
  2  1  1  0  0  0  0
  2  3  1  0  0  0  0
  2  5  1  0  0  0  0
  3  7  1  1  0  0  0
  6  2  1  0  0  0  0
  8 16  1  0  0  0  0
  8  9  1  0  0  0  0
  9 14  1  0  0  0  0
 10 15  1  0  0  0  0
 10  9  2  0  0  0  0
 11 10  1  0  0  0  0
 12 13  1  0  0  0  0
 12 11  2  0  0  0  0
 13  8  2  0  0  0  0
 16 18  1  0  0  0  0
 16 17  2  0  0  0  0
 19  3  1  0  0  0  0
 20 19  2  0  0  0  0
 21 20  1  0  0  0  0
 22 20  1  0  0  0  0
 22 24  1  0  0  0  0
 23 22  1  0  0  0  0
 24 26  2  0  0  0  0
 25 24  1  0  0  0  0
 26 19  1  0  0  0  0
M  END
>  <minimizedAffinity>
-4.38420343

$$$$

 OpenBabel03252507583D

 26 28  0  0  1  0  0  0  0  0999 V2000
   37.8960   27.7290   41.6540 C   0  0  1  0  0  0  0  0  0  0  0  0
   36.9700   27.1670   42.6830 C   0  0  0  0  0  0  0  0  0  0  0  0
   37.0120   26.5640   41.3230 C   0  0  2  0  0  0  0  0  0  0  0  0
   38.9500   27.5670   41.9090 H   0  0  0  0  0  0  0  0  0  0  0  0
   36.1230   27.8440   42.9500 H   0  0  0  0  0  0  0  0  0  0  0  0
   37.3780   26.6560   43.5750 H   0  0  0  0  0  0  0  0  0  0  0  0
   36.1010   26.7240   40.7100 H   0  0  0  0  0  0  0  0  0  0  0  0
   37.7180   30.3400   39.0760 C   0  0  0  0  0  0  0  0  0  0  0  0
   36.8520   31.3060   39.6400 C   0  0  0  0  0  0  0  0  0  0  0  0
   36.3340   31.0360   40.9230 C   0  0  0  0  0  0  0  0  0  0  0  0
   36.6970   29.8710   41.5320 N   0  0  0  0  0  0  0  0  0  0  0  0
   37.5370   28.9870   40.9230 C   0  0  0  0  0  0  0  0  0  0  0  0
   38.0490   29.1930   39.7240 N   0  0  0  0  0  0  0  0  0  0  0  0
   36.5900   32.2040   39.1370 H   0  0  0  0  0  0  0  0  0  0  0  0
   35.6690   31.7390   41.4010 H   0  0  0  0  0  0  0  0  0  0  0  0
   38.2110   30.6780   37.7750 C   0  0  0  0  0  0  0  0  0  0  0  0
   37.7440   31.6010   37.0400 O   0  0  0  0  0  0  0  0  0  0  0  0
   39.0290   29.9810   37.6060 H   0  0  0  0  0  0  0  0  0  0  0  0
   37.6190   25.2230   41.1270 C   0  0  0  0  0  0  0  0  0  0  0  0
   37.6340   24.2380   42.1170 C   0  0  0  0  0  0  0  0  0  0  0  0
   37.2310   24.2750   43.1330 H   0  0  0  0  0  0  0  0  0  0  0  0
   38.2680   23.1660   41.5730 N   0  0  0  0  0  0  0  0  0  0  0  0
   38.4170   22.2650   42.1190 H   0  0  0  0  0  0  0  0  0  0  0  0
   38.6410   23.4500   40.3000 C   0  0  0  0  0  0  0  0  0  0  0  0
   39.1670   22.7610   39.6350 H   0  0  0  0  0  0  0  0  0  0  0  0
   38.2350   24.7230   40.0370 N   0  0  0  0  0  0  0  0  0  0  0  0
  1  4  1  1  0  0  0
  1  2  1  0  0  0  0
  2  5  1  0  0  0  0
  2  6  1  0  0  0  0
  3  7  1  6  0  0  0
  3  1  1  0  0  0  0
  3  2  1  0  0  0  0
  8  9  2  0  0  0  0
  8 13  1  0  0  0  0
  9 10  1  0  0  0  0
 10 15  1  0  0  0  0
 10 11  2  0  0  0  0
 12 11  1  0  0  0  0
 12  1  1  0  0  0  0
 13 12  2  0  0  0  0
 14  9  1  0  0  0  0
 16  8  1  0  0  0  0
 17 16  2  0  0  0  0
 18 16  1  0  0  0  0
 19  3  1  0  0  0  0
 19 20  2  0  0  0  0
 20 21  1  0  0  0  0
 22 20  1  0  0  0  0
 22 23  1  0  0  0  0
 24 22  1  0  0  0  0
 25 24  1  0  0  0  0
 26 24  2  0  0  0  0
 26 19  1  0  0  0  0
M  END
>  <minimizedAffinity>
-4.24887562

$$$$

 OpenBabel03252507583D

 26 28  0  0  1  0  0  0  0  0999 V2000
   37.0930   28.4700   42.1990 C   0  0  1  0  0  0  0  0  0  0  0  0
   37.7070   28.7030   43.5410 C   0  0  0  0  0  0  0  0  0  0  0  0
   38.5090   28.9510   42.3120 C   0  0  2  0  0  0  0  0  0  0  0  0
   36.2850   29.1770   41.9820 H   0  0  0  0  0  0  0  0  0  0  0  0
   37.8890   27.7700   44.1270 H   0  0  0  0  0  0  0  0  0  0  0  0
   37.3350   29.5210   44.1860 H   0  0  0  0  0  0  0  0  0  0  0  0
   39.3450   28.2410   42.1440 H   0  0  0  0  0  0  0  0  0  0  0  0
   36.6120   25.6470   39.8980 C   0  0  0  0  0  0  0  0  0  0  0  0
   36.7470   24.5110   40.7310 C   0  0  0  0  0  0  0  0  0  0  0  0
   37.0070   24.7420   42.0960 C   0  0  0  0  0  0  0  0  0  0  0  0
   37.1120   26.0330   42.5240 N   0  0  0  0  0  0  0  0  0  0  0  0
   36.9710   27.0770   41.6590 C   0  0  0  0  0  0  0  0  0  0  0  0
   36.7260   26.9150   40.3720 N   0  0  0  0  0  0  0  0  0  0  0  0
   36.6590   23.5190   40.3640 H   0  0  0  0  0  0  0  0  0  0  0  0
   37.1180   23.9120   42.7770 H   0  0  0  0  0  0  0  0  0  0  0  0
   36.3440   25.3420   38.5240 C   0  0  0  0  0  0  0  0  0  0  0  0
   35.4010   25.8450   37.8400 O   0  0  0  0  0  0  0  0  0  0  0  0
   37.1110   24.6190   38.2540 H   0  0  0  0  0  0  0  0  0  0  0  0
   38.8360   30.3430   41.9110 C   0  0  0  0  0  0  0  0  0  0  0  0
   39.9160   31.0570   42.4370 C   0  0  0  0  0  0  0  0  0  0  0  0
   40.6550   30.7430   43.1780 H   0  0  0  0  0  0  0  0  0  0  0  0
   39.8910   32.2760   41.8370 N   0  0  0  0  0  0  0  0  0  0  0  0
   40.6120   33.0260   42.0560 H   0  0  0  0  0  0  0  0  0  0  0  0
   38.8480   32.3400   40.9700 C   0  0  0  0  0  0  0  0  0  0  0  0
   38.5980   33.2090   40.3560 H   0  0  0  0  0  0  0  0  0  0  0  0
   38.2050   31.1400   41.0260 N   0  0  0  0  0  0  0  0  0  0  0  0
  1  4  1  6  0  0  0
  1  3  1  0  0  0  0
  1  2  1  0  0  0  0
  2  5  1  0  0  0  0
  2  6  1  0  0  0  0
  3  7  1  6  0  0  0
  3  2  1  0  0  0  0
  8 13  2  0  0  0  0
  8  9  1  0  0  0  0
  9 10  2  0  0  0  0
 10 11  1  0  0  0  0
 10 15  1  0  0  0  0
 12  1  1  0  0  0  0
 12 11  2  0  0  0  0
 13 12  1  0  0  0  0
 14  9  1  0  0  0  0
 16  8  1  0  0  0  0
 17 16  2  0  0  0  0
 18 16  1  0  0  0  0
 19  3  1  0  0  0  0
 19 20  2  0  0  0  0
 20 21  1  0  0  0  0
 22 23  1  0  0  0  0
 22 20  1  0  0  0  0
 24 26  2  0  0  0  0
 24 22  1  0  0  0  0
 25 24  1  0  0  0  0
 26 19  1  0  0  0  0
M  END
>  <minimizedAffinity>
-4.23744583

$$$$

 OpenBabel03252507583D

 26 28  0  0  1  0  0  0  0  0999 V2000
   39.5020   31.5260   41.3190 C   0  0  1  0  0  0  0  0  0  0  0  0
   40.9450   31.5000   41.7050 C   0  0  0  0  0  0  0  0  0  0  0  0
   40.5450   31.1010   40.3280 C   0  0  2  0  0  0  0  0  0  0  0  0
   39.0960   32.5440   41.2910 H   0  0  0  0  0  0  0  0  0  0  0  0
   41.2040   30.7060   42.4460 H   0  0  0  0  0  0  0  0  0  0  0  0
   41.4770   32.4450   41.9220 H   0  0  0  0  0  0  0  0  0  0  0  0
   40.6730   30.0240   40.0950 H   0  0  0  0  0  0  0  0  0  0  0  0
   36.6700   29.1900   41.4490 C   0  0  0  0  0  0  0  0  0  0  0  0
   36.9520   28.3870   42.5790 C   0  0  0  0  0  0  0  0  0  0  0  0
   38.1360   28.6690   43.2900 C   0  0  0  0  0  0  0  0  0  0  0  0
   38.9270   29.6880   42.8470 N   0  0  0  0  0  0  0  0  0  0  0  0
   38.5880   30.4170   41.7460 C   0  0  0  0  0  0  0  0  0  0  0  0
   37.4910   30.1940   41.0470 N   0  0  0  0  0  0  0  0  0  0  0  0
   36.3130   27.6000   42.8970 H   0  0  0  0  0  0  0  0  0  0  0  0
   38.4000   28.0880   44.1610 H   0  0  0  0  0  0  0  0  0  0  0  0
   35.4510   28.8530   40.7760 C   0  0  0  0  0  0  0  0  0  0  0  0
   35.0930   29.3150   39.6500 O   0  0  0  0  0  0  0  0  0  0  0  0
   34.9590   28.1500   41.4440 H   0  0  0  0  0  0  0  0  0  0  0  0
   40.8600   31.9880   39.1800 C   0  0  0  0  0  0  0  0  0  0  0  0
   40.2550   31.8640   37.9280 C   0  0  0  0  0  0  0  0  0  0  0  0
   39.4990   31.1470   37.5950 H   0  0  0  0  0  0  0  0  0  0  0  0
   40.7930   32.8390   37.1490 N   0  0  0  0  0  0  0  0  0  0  0  0
   40.5040   32.9720   36.1350 H   0  0  0  0  0  0  0  0  0  0  0  0
   41.6970   33.5530   37.8670 C   0  0  0  0  0  0  0  0  0  0  0  0
   42.2760   34.3960   37.4810 H   0  0  0  0  0  0  0  0  0  0  0  0
   41.7300   33.0170   39.1190 N   0  0  0  0  0  0  0  0  0  0  0  0
  1  4  1  6  0  0  0
  1  2  1  0  0  0  0
  1 12  1  0  0  0  0
  2  6  1  0  0  0  0
  2  5  1  0  0  0  0
  3  7  1  6  0  0  0
  3  1  1  0  0  0  0
  3  2  1  0  0  0  0
  8  9  1  0  0  0  0
  9 14  1  0  0  0  0
  9 10  2  0  0  0  0
 10 15  1  0  0  0  0
 11 10  1  0  0  0  0
 12 11  2  0  0  0  0
 13  8  2  0  0  0  0
 13 12  1  0  0  0  0
 16 18  1  0  0  0  0
 16  8  1  0  0  0  0
 17 16  2  0  0  0  0
 19  3  1  0  0  0  0
 20 19  2  0  0  0  0
 21 20  1  0  0  0  0
 22 24  1  0  0  0  0
 22 20  1  0  0  0  0
 23 22  1  0  0  0  0
 24 26  2  0  0  0  0
 25 24  1  0  0  0  0
 26 19  1  0  0  0  0
M  END
>  <minimizedAffinity>
-4.13413477

$$$$
