
 OpenBabel03252501183D

 20 21  0  0  0  0  0  0  0  0999 V2000
   39.8110   29.2840   42.1890 C   0  0  0  0  0  0  0  0  0  0  0  0
   38.5150   28.7620   41.9350 C   0  0  0  0  0  0  0  0  0  0  0  0
   38.2810   27.4940   42.4590 C   0  0  0  0  0  0  0  0  0  0  0  0
   39.2800   26.8630   43.1580 N   0  0  0  0  0  0  0  0  0  0  0  0
   40.4910   27.4170   43.3640 C   0  0  0  0  0  0  0  0  0  0  0  0
   40.7500   28.6390   42.8710 N   0  0  0  0  0  0  0  0  0  0  0  0
   40.1040   30.2610   41.8290 H   0  0  0  0  0  0  0  0  0  0  0  0
   41.1260   26.7540   43.9360 H   0  0  0  0  0  0  0  0  0  0  0  0
   37.5870   29.5750   41.1630 C   0  0  0  0  0  0  0  0  0  0  0  0
   36.6630   30.4310   41.7190 C   0  0  0  0  0  0  0  0  0  0  0  0
   36.4610   30.6500   42.7730 H   0  0  0  0  0  0  0  0  0  0  0  0
   35.9660   31.0280   40.7620 N   0  0  0  0  0  0  0  0  0  0  0  0
   35.2030   31.7230   40.8520 H   0  0  0  0  0  0  0  0  0  0  0  0
   36.4070   30.5890   39.5790 C   0  0  0  0  0  0  0  0  0  0  0  0
   36.1320   30.8010   38.5560 H   0  0  0  0  0  0  0  0  0  0  0  0
   37.3810   29.7170   39.8450 N   0  0  0  0  0  0  0  0  0  0  0  0
   36.9580   26.9330   42.2090 C   0  0  0  0  0  0  0  0  0  0  0  0
   36.0100   27.5880   42.9860 F   0  0  0  0  0  0  0  0  0  0  0  0
   36.9870   25.6360   42.7210 F   0  0  0  0  0  0  0  0  0  0  0  0
   36.5670   27.0050   40.9170 F   0  0  0  0  0  0  0  0  0  0  0  0
  1  6  1  0  0  0  0
  2  1  2  0  0  0  0
  2  3  1  0  0  0  0
  3  4  2  0  0  0  0
  4  5  1  0  0  0  0
  5  8  1  0  0  0  0
  6  5  2  0  0  0  0
  7  1  1  0  0  0  0
  9 10  2  0  0  0  0
  9  2  1  0  0  0  0
 10 11  1  0  0  0  0
 12 13  1  0  0  0  0
 12 10  1  0  0  0  0
 14 16  2  0  0  0  0
 14 12  1  0  0  0  0
 15 14  1  0  0  0  0
 16  9  1  0  0  0  0
 17  3  1  0  0  0  0
 17 19  1  0  0  0  0
 17 18  1  0  0  0  0
 20 17  1  0  0  0  0
M  END
>  <minimizedAffinity>
-4.3141427

$$$$

 OpenBabel03252501183D

 20 21  0  0  0  0  0  0  0  0999 V2000
   36.6450   27.8180   39.5050 C   0  0  0  0  0  0  0  0  0  0  0  0
   37.2110   28.5020   40.6130 C   0  0  0  0  0  0  0  0  0  0  0  0
   37.6420   27.6820   41.6510 C   0  0  0  0  0  0  0  0  0  0  0  0
   37.4950   26.3210   41.5350 N   0  0  0  0  0  0  0  0  0  0  0  0
   36.9480   25.7350   40.4520 C   0  0  0  0  0  0  0  0  0  0  0  0
   36.5210   26.4980   39.4330 N   0  0  0  0  0  0  0  0  0  0  0  0
   36.2760   28.3540   38.6410 H   0  0  0  0  0  0  0  0  0  0  0  0
   36.9290   24.6590   40.5660 H   0  0  0  0  0  0  0  0  0  0  0  0
   37.2750   29.9550   40.5620 C   0  0  0  0  0  0  0  0  0  0  0  0
   36.2030   30.7850   40.8030 C   0  0  0  0  0  0  0  0  0  0  0  0
   35.1690   30.5320   41.0620 H   0  0  0  0  0  0  0  0  0  0  0  0
   36.5750   32.0520   40.6810 N   0  0  0  0  0  0  0  0  0  0  0  0
   36.0050   32.9100   40.7990 H   0  0  0  0  0  0  0  0  0  0  0  0
   37.8720   32.0850   40.3640 C   0  0  0  0  0  0  0  0  0  0  0  0
   38.5730   32.8840   40.1720 H   0  0  0  0  0  0  0  0  0  0  0  0
   38.2720   30.8140   40.2980 N   0  0  0  0  0  0  0  0  0  0  0  0
   38.2260   28.3600   42.8030 C   0  0  0  0  0  0  0  0  0  0  0  0
   39.4090   28.9890   42.4350 F   0  0  0  0  0  0  0  0  0  0  0  0
   38.6280   27.3530   43.6800 F   0  0  0  0  0  0  0  0  0  0  0  0
   37.4150   29.2850   43.3640 F   0  0  0  0  0  0  0  0  0  0  0  0
  1  2  1  0  0  0  0
  2  3  2  0  0  0  0
  3 17  1  0  0  0  0
  4  3  1  0  0  0  0
  5  8  1  0  0  0  0
  5  4  2  0  0  0  0
  6  1  2  0  0  0  0
  6  5  1  0  0  0  0
  7  1  1  0  0  0  0
  9  2  1  0  0  0  0
  9 10  2  0  0  0  0
 10 11  1  0  0  0  0
 12 13  1  0  0  0  0
 12 10  1  0  0  0  0
 14 12  1  0  0  0  0
 15 14  1  0  0  0  0
 16 14  2  0  0  0  0
 16  9  1  0  0  0  0
 17 20  1  0  0  0  0
 17 19  1  0  0  0  0
 18 17  1  0  0  0  0
M  END
>  <minimizedAffinity>
-4.29009151

$$$$

 OpenBabel03252501183D

 20 21  0  0  0  0  0  0  0  0999 V2000
   37.3550   30.9820   37.4250 C   0  0  0  0  0  0  0  0  0  0  0  0
   37.1440   30.9920   38.8300 C   0  0  0  0  0  0  0  0  0  0  0  0
   36.3340   29.9680   39.3090 C   0  0  0  0  0  0  0  0  0  0  0  0
   35.8140   29.0550   38.4240 N   0  0  0  0  0  0  0  0  0  0  0  0
   36.0540   29.1030   37.0990 C   0  0  0  0  0  0  0  0  0  0  0  0
   36.8320   30.0790   36.6040 N   0  0  0  0  0  0  0  0  0  0  0  0
   37.9680   31.7310   36.9430 H   0  0  0  0  0  0  0  0  0  0  0  0
   35.5510   28.2930   36.5880 H   0  0  0  0  0  0  0  0  0  0  0  0
   37.7710   32.0500   39.6090 C   0  0  0  0  0  0  0  0  0  0  0  0
   37.3440   33.3580   39.6220 C   0  0  0  0  0  0  0  0  0  0  0  0
   36.5080   33.8240   39.0880 H   0  0  0  0  0  0  0  0  0  0  0  0
   38.1150   34.0790   40.4250 N   0  0  0  0  0  0  0  0  0  0  0  0
   38.0540   35.0890   40.6480 H   0  0  0  0  0  0  0  0  0  0  0  0
   39.0480   33.2780   40.9470 C   0  0  0  0  0  0  0  0  0  0  0  0
   39.8660   33.4370   41.6340 H   0  0  0  0  0  0  0  0  0  0  0  0
   38.8230   32.0640   40.4430 N   0  0  0  0  0  0  0  0  0  0  0  0
   36.0990   29.9580   40.7480 C   0  0  0  0  0  0  0  0  0  0  0  0
   37.2260   29.4830   41.4100 F   0  0  0  0  0  0  0  0  0  0  0  0
   35.1290   28.9820   40.9740 F   0  0  0  0  0  0  0  0  0  0  0  0
   35.7890   31.1690   41.2630 F   0  0  0  0  0  0  0  0  0  0  0  0
  1  2  1  0  0  0  0
  2  3  2  0  0  0  0
  2  9  1  0  0  0  0
  3 17  1  0  0  0  0
  4  3  1  0  0  0  0
  5  4  2  0  0  0  0
  6  5  1  0  0  0  0
  6  1  2  0  0  0  0
  7  1  1  0  0  0  0
  8  5  1  0  0  0  0
  9 10  2  0  0  0  0
  9 16  1  0  0  0  0
 10 12  1  0  0  0  0
 11 10  1  0  0  0  0
 12 13  1  0  0  0  0
 12 14  1  0  0  0  0
 14 15  1  0  0  0  0
 16 14  2  0  0  0  0
 17 19  1  0  0  0  0
 17 20  1  0  0  0  0
 17 18  1  0  0  0  0
M  END
>  <minimizedAffinity>
-4.28722191

$$$$

 OpenBabel03252501183D

 20 21  0  0  0  0  0  0  0  0999 V2000
   40.5140   27.3320   42.9360 C   0  0  0  0  0  0  0  0  0  0  0  0
   39.1940   26.9740   42.5530 C   0  0  0  0  0  0  0  0  0  0  0  0
   38.9640   25.6060   42.4520 C   0  0  0  0  0  0  0  0  0  0  0  0
   39.9890   24.7320   42.7210 N   0  0  0  0  0  0  0  0  0  0  0  0
   41.2210   25.1390   43.0810 C   0  0  0  0  0  0  0  0  0  0  0  0
   41.4780   26.4530   43.1870 N   0  0  0  0  0  0  0  0  0  0  0  0
   40.8070   28.3680   43.0460 H   0  0  0  0  0  0  0  0  0  0  0  0
   41.8740   24.2920   43.2450 H   0  0  0  0  0  0  0  0  0  0  0  0
   38.2410   28.0430   42.2990 C   0  0  0  0  0  0  0  0  0  0  0  0
   37.5920   28.7510   43.2850 C   0  0  0  0  0  0  0  0  0  0  0  0
   37.6630   28.6550   44.3750 H   0  0  0  0  0  0  0  0  0  0  0  0
   36.7900   29.6560   42.7410 N   0  0  0  0  0  0  0  0  0  0  0  0
   36.1700   30.3410   43.2120 H   0  0  0  0  0  0  0  0  0  0  0  0
   36.8900   29.5660   41.4120 C   0  0  0  0  0  0  0  0  0  0  0  0
   36.4260   30.0960   40.5930 H   0  0  0  0  0  0  0  0  0  0  0  0
   37.7670   28.5910   41.1690 N   0  0  0  0  0  0  0  0  0  0  0  0
   37.6160   25.2110   42.0570 C   0  0  0  0  0  0  0  0  0  0  0  0
   37.4850   23.8290   42.1310 F   0  0  0  0  0  0  0  0  0  0  0  0
   37.5150   25.4950   40.6960 F   0  0  0  0  0  0  0  0  0  0  0  0
   36.6390   25.7670   42.8080 F   0  0  0  0  0  0  0  0  0  0  0  0
  1  7  1  0  0  0  0
  1  6  1  0  0  0  0
  2  1  2  0  0  0  0
  3  2  1  0  0  0  0
  3  4  2  0  0  0  0
  4  5  1  0  0  0  0
  5  6  2  0  0  0  0
  5  8  1  0  0  0  0
  9  2  1  0  0  0  0
  9 10  2  0  0  0  0
 10 11  1  0  0  0  0
 12 13  1  0  0  0  0
 12 10  1  0  0  0  0
 14 12  1  0  0  0  0
 15 14  1  0  0  0  0
 16 14  2  0  0  0  0
 16  9  1  0  0  0  0
 17 18  1  0  0  0  0
 17  3  1  0  0  0  0
 17 20  1  0  0  0  0
 19 17  1  0  0  0  0
M  END
>  <minimizedAffinity>
-4.27357388

$$$$

 OpenBabel03252501183D

 20 21  0  0  0  0  0  0  0  0999 V2000
   40.4370   27.1430   42.7600 C   0  0  0  0  0  0  0  0  0  0  0  0
   39.0750   26.9330   42.4180 C   0  0  0  0  0  0  0  0  0  0  0  0
   38.6860   25.5990   42.3500 C   0  0  0  0  0  0  0  0  0  0  0  0
   39.6110   24.6170   42.6100 N   0  0  0  0  0  0  0  0  0  0  0  0
   40.8920   24.8860   42.9300 C   0  0  0  0  0  0  0  0  0  0  0  0
   41.3000   26.1630   43.0030 N   0  0  0  0  0  0  0  0  0  0  0  0
   40.8490   28.1390   42.8410 H   0  0  0  0  0  0  0  0  0  0  0  0
   41.4480   23.9730   43.0940 H   0  0  0  0  0  0  0  0  0  0  0  0
   38.2430   28.1000   42.1670 C   0  0  0  0  0  0  0  0  0  0  0  0
   37.6390   28.8450   43.1550 C   0  0  0  0  0  0  0  0  0  0  0  0
   37.6640   28.7140   44.2420 H   0  0  0  0  0  0  0  0  0  0  0  0
   36.9500   29.8410   42.6140 N   0  0  0  0  0  0  0  0  0  0  0  0
   36.3880   30.5730   43.0850 H   0  0  0  0  0  0  0  0  0  0  0  0
   37.0830   29.7760   41.2860 C   0  0  0  0  0  0  0  0  0  0  0  0
   36.7020   30.3710   40.4690 H   0  0  0  0  0  0  0  0  0  0  0  0
   37.8630   28.7230   41.0400 N   0  0  0  0  0  0  0  0  0  0  0  0
   37.2920   25.3550   41.9980 C   0  0  0  0  0  0  0  0  0  0  0  0
   36.4540   25.9560   42.9300 F   0  0  0  0  0  0  0  0  0  0  0  0
   37.0830   23.9880   42.1770 F   0  0  0  0  0  0  0  0  0  0  0  0
   36.9490   25.8060   40.7710 F   0  0  0  0  0  0  0  0  0  0  0  0
  1  7  1  0  0  0  0
  1  6  1  0  0  0  0
  2  1  2  0  0  0  0
  3  2  1  0  0  0  0
  3  4  2  0  0  0  0
  4  5  1  0  0  0  0
  5  6  2  0  0  0  0
  5  8  1  0  0  0  0
  9  2  1  0  0  0  0
  9 10  2  0  0  0  0
 10 11  1  0  0  0  0
 12 13  1  0  0  0  0
 12 10  1  0  0  0  0
 14 12  1  0  0  0  0
 15 14  1  0  0  0  0
 16 14  2  0  0  0  0
 16  9  1  0  0  0  0
 17 19  1  0  0  0  0
 17  3  1  0  0  0  0
 17 18  1  0  0  0  0
 20 17  1  0  0  0  0
M  END
>  <minimizedAffinity>
-4.26755619

$$$$

 OpenBabel03252501183D

 20 21  0  0  0  0  0  0  0  0999 V2000
   36.0750   30.4960   40.8690 C   0  0  0  0  0  0  0  0  0  0  0  0
   36.8770   31.0900   39.8580 C   0  0  0  0  0  0  0  0  0  0  0  0
   36.7370   30.5280   38.5930 C   0  0  0  0  0  0  0  0  0  0  0  0
   35.8680   29.4790   38.4180 N   0  0  0  0  0  0  0  0  0  0  0  0
   35.1340   28.9620   39.4220 C   0  0  0  0  0  0  0  0  0  0  0  0
   35.2450   29.4810   40.6560 N   0  0  0  0  0  0  0  0  0  0  0  0
   36.1020   30.8520   41.8900 H   0  0  0  0  0  0  0  0  0  0  0  0
   34.5180   28.1470   39.0690 H   0  0  0  0  0  0  0  0  0  0  0  0
   37.7500   32.1910   40.2350 C   0  0  0  0  0  0  0  0  0  0  0  0
   38.9150   32.0430   40.9530 C   0  0  0  0  0  0  0  0  0  0  0  0
   39.3790   31.1340   41.3510 H   0  0  0  0  0  0  0  0  0  0  0  0
   39.4870   33.2260   41.1390 N   0  0  0  0  0  0  0  0  0  0  0  0
   40.3680   33.4500   41.6370 H   0  0  0  0  0  0  0  0  0  0  0  0
   38.7270   34.1590   40.5590 C   0  0  0  0  0  0  0  0  0  0  0  0
   38.8070   35.2320   40.4660 H   0  0  0  0  0  0  0  0  0  0  0  0
   37.6890   33.5150   40.0230 N   0  0  0  0  0  0  0  0  0  0  0  0
   37.5530   31.1180   37.5370 C   0  0  0  0  0  0  0  0  0  0  0  0
   37.3510   30.4340   36.3440 F   0  0  0  0  0  0  0  0  0  0  0  0
   38.8770   30.8410   37.8730 F   0  0  0  0  0  0  0  0  0  0  0  0
   37.3030   32.4280   37.3190 F   0  0  0  0  0  0  0  0  0  0  0  0
  1  7  1  0  0  0  0
  2  9  1  0  0  0  0
  2  1  2  0  0  0  0
  3  2  1  0  0  0  0
  4  3  2  0  0  0  0
  4  5  1  0  0  0  0
  5  6  2  0  0  0  0
  6  1  1  0  0  0  0
  8  5  1  0  0  0  0
  9 10  2  0  0  0  0
 10 12  1  0  0  0  0
 10 11  1  0  0  0  0
 12 13  1  0  0  0  0
 14 12  1  0  0  0  0
 15 14  1  0  0  0  0
 16  9  1  0  0  0  0
 16 14  2  0  0  0  0
 17 19  1  0  0  0  0
 17  3  1  0  0  0  0
 18 17  1  0  0  0  0
 20 17  1  0  0  0  0
M  END
>  <minimizedAffinity>
-4.25826883

$$$$

 OpenBabel03252501183D

 20 21  0  0  0  0  0  0  0  0999 V2000
   36.2010   27.3750   39.3670 C   0  0  0  0  0  0  0  0  0  0  0  0
   36.7040   27.0880   40.6640 C   0  0  0  0  0  0  0  0  0  0  0  0
   36.5670   28.1190   41.5870 C   0  0  0  0  0  0  0  0  0  0  0  0
   35.9790   29.2970   41.1950 N   0  0  0  0  0  0  0  0  0  0  0  0
   35.5220   29.5040   39.9450 C   0  0  0  0  0  0  0  0  0  0  0  0
   35.6390   28.5290   39.0290 N   0  0  0  0  0  0  0  0  0  0  0  0
   36.2540   26.6470   38.5690 H   0  0  0  0  0  0  0  0  0  0  0  0
   35.0970   30.4950   39.8500 H   0  0  0  0  0  0  0  0  0  0  0  0
   37.3050   25.7820   40.8920 C   0  0  0  0  0  0  0  0  0  0  0  0
   38.5630   25.4250   40.4630 C   0  0  0  0  0  0  0  0  0  0  0  0
   39.3030   26.0110   39.9070 H   0  0  0  0  0  0  0  0  0  0  0  0
   38.8270   24.1760   40.8220 N   0  0  0  0  0  0  0  0  0  0  0  0
   39.6830   23.6180   40.6500 H   0  0  0  0  0  0  0  0  0  0  0  0
   37.7700   23.6920   41.4820 C   0  0  0  0  0  0  0  0  0  0  0  0
   37.5510   22.7400   41.9420 H   0  0  0  0  0  0  0  0  0  0  0  0
   36.8680   24.6750   41.5120 N   0  0  0  0  0  0  0  0  0  0  0  0
   37.0780   27.8510   42.9270 C   0  0  0  0  0  0  0  0  0  0  0  0
   38.2950   27.1830   42.8470 F   0  0  0  0  0  0  0  0  0  0  0  0
   36.2090   26.9180   43.4910 F   0  0  0  0  0  0  0  0  0  0  0  0
   37.2560   28.9610   43.6790 F   0  0  0  0  0  0  0  0  0  0  0  0
  1  2  1  0  0  0  0
  2  9  1  0  0  0  0
  2  3  2  0  0  0  0
  3 17  1  0  0  0  0
  4  3  1  0  0  0  0
  5  4  2  0  0  0  0
  6  1  2  0  0  0  0
  6  5  1  0  0  0  0
  7  1  1  0  0  0  0
  8  5  1  0  0  0  0
  9 16  1  0  0  0  0
 10 12  1  0  0  0  0
 10  9  2  0  0  0  0
 11 10  1  0  0  0  0
 12 14  1  0  0  0  0
 13 12  1  0  0  0  0
 14 16  2  0  0  0  0
 14 15  1  0  0  0  0
 17 19  1  0  0  0  0
 17 20  1  0  0  0  0
 18 17  1  0  0  0  0
M  END
>  <minimizedAffinity>
-4.13474607

$$$$

 OpenBabel03252501183D

 20 21  0  0  0  0  0  0  0  0999 V2000
   38.2810   28.6840   39.0330 C   0  0  0  0  0  0  0  0  0  0  0  0
   38.2620   29.3030   40.3110 C   0  0  0  0  0  0  0  0  0  0  0  0
   38.4490   28.4380   41.3840 C   0  0  0  0  0  0  0  0  0  0  0  0
   38.6310   27.0990   41.1410 N   0  0  0  0  0  0  0  0  0  0  0  0
   38.6380   26.5750   39.8990 C   0  0  0  0  0  0  0  0  0  0  0  0
   38.4600   27.3830   38.8420 N   0  0  0  0  0  0  0  0  0  0  0  0
   38.1450   29.2600   38.1270 H   0  0  0  0  0  0  0  0  0  0  0  0
   38.7970   25.5060   39.9330 H   0  0  0  0  0  0  0  0  0  0  0  0
   38.0450   30.7410   40.3730 C   0  0  0  0  0  0  0  0  0  0  0  0
   36.8030   31.3360   40.3830 C   0  0  0  0  0  0  0  0  0  0  0  0
   35.8090   30.8760   40.3480 H   0  0  0  0  0  0  0  0  0  0  0  0
   36.9330   32.6540   40.4440 N   0  0  0  0  0  0  0  0  0  0  0  0
   36.1920   33.3790   40.4670 H   0  0  0  0  0  0  0  0  0  0  0  0
   38.2350   32.9510   40.4760 C   0  0  0  0  0  0  0  0  0  0  0  0
   38.7870   33.8780   40.5250 H   0  0  0  0  0  0  0  0  0  0  0  0
   38.8840   31.7860   40.4330 N   0  0  0  0  0  0  0  0  0  0  0  0
   38.4310   29.0480   42.7090 C   0  0  0  0  0  0  0  0  0  0  0  0
   38.6760   28.0830   43.6790 F   0  0  0  0  0  0  0  0  0  0  0  0
   37.1120   29.4390   42.9350 F   0  0  0  0  0  0  0  0  0  0  0  0
   39.3340   30.0420   42.8670 F   0  0  0  0  0  0  0  0  0  0  0  0
  1  2  1  0  0  0  0
  2  9  1  0  0  0  0
  2  3  2  0  0  0  0
  3 17  1  0  0  0  0
  4  3  1  0  0  0  0
  5  8  1  0  0  0  0
  5  4  2  0  0  0  0
  6  1  2  0  0  0  0
  6  5  1  0  0  0  0
  7  1  1  0  0  0  0
  9 10  2  0  0  0  0
  9 16  1  0  0  0  0
 10 12  1  0  0  0  0
 11 10  1  0  0  0  0
 12 13  1  0  0  0  0
 12 14  1  0  0  0  0
 14 15  1  0  0  0  0
 16 14  2  0  0  0  0
 17 20  1  0  0  0  0
 17 19  1  0  0  0  0
 17 18  1  0  0  0  0
M  END
>  <minimizedAffinity>
-4.11558723

$$$$

 OpenBabel03252501183D

 20 21  0  0  0  0  0  0  0  0999 V2000
   37.9710   28.3190   39.1080 C   0  0  0  0  0  0  0  0  0  0  0  0
   37.6230   29.3260   40.0470 C   0  0  0  0  0  0  0  0  0  0  0  0
   37.5170   30.6090   39.5180 C   0  0  0  0  0  0  0  0  0  0  0  0
   37.7460   30.8030   38.1780 N   0  0  0  0  0  0  0  0  0  0  0  0
   38.0730   29.8000   37.3400 C   0  0  0  0  0  0  0  0  0  0  0  0
   38.1850   28.5500   37.8180 N   0  0  0  0  0  0  0  0  0  0  0  0
   38.0820   27.2850   39.4070 H   0  0  0  0  0  0  0  0  0  0  0  0
   38.2090   30.1690   36.3320 H   0  0  0  0  0  0  0  0  0  0  0  0
   37.4280   28.9320   41.4340 C   0  0  0  0  0  0  0  0  0  0  0  0
   36.3510   28.2040   41.8860 C   0  0  0  0  0  0  0  0  0  0  0  0
   35.4940   27.8080   41.3310 H   0  0  0  0  0  0  0  0  0  0  0  0
   36.4560   28.0040   43.1930 N   0  0  0  0  0  0  0  0  0  0  0  0
   35.8110   27.4950   43.8260 H   0  0  0  0  0  0  0  0  0  0  0  0
   37.5810   28.5830   43.6220 C   0  0  0  0  0  0  0  0  0  0  0  0
   38.0530   28.6690   44.5890 H   0  0  0  0  0  0  0  0  0  0  0  0
   38.1490   29.1350   42.5480 N   0  0  0  0  0  0  0  0  0  0  0  0
   37.1630   31.6630   40.4620 C   0  0  0  0  0  0  0  0  0  0  0  0
   36.8650   32.8350   39.7770 F   0  0  0  0  0  0  0  0  0  0  0  0
   38.3320   31.9610   41.1630 F   0  0  0  0  0  0  0  0  0  0  0  0
   36.1100   31.3590   41.2550 F   0  0  0  0  0  0  0  0  0  0  0  0
  1  7  1  0  0  0  0
  1  2  1  0  0  0  0
  2  9  1  0  0  0  0
  3  2  2  0  0  0  0
  3 17  1  0  0  0  0
  4  3  1  0  0  0  0
  5  6  1  0  0  0  0
  5  4  2  0  0  0  0
  6  1  2  0  0  0  0
  8  5  1  0  0  0  0
  9 10  2  0  0  0  0
  9 16  1  0  0  0  0
 10 12  1  0  0  0  0
 11 10  1  0  0  0  0
 12 14  1  0  0  0  0
 12 13  1  0  0  0  0
 14 15  1  0  0  0  0
 16 14  2  0  0  0  0
 17 19  1  0  0  0  0
 17 20  1  0  0  0  0
 18 17  1  0  0  0  0
M  END
>  <minimizedAffinity>
-4.10972881

$$$$
