
 OpenBabel03252505393D

 27 29  0  0  1  0  0  0  0  0999 V2000
   45.9700   33.9440   42.0920 C   0  0  1  0  0  0  0  0  0  0  0  0
   46.3790   35.3780   42.5010 C   0  0  0  0  0  0  0  0  0  0  0  0
   47.1520   34.5740   41.5070 C   0  0  1  0  0  0  0  0  0  0  0  0
   44.9950   33.9350   41.5230 H   0  0  0  0  0  0  0  0  0  0  0  0
   45.7540   36.2200   42.1420 H   0  0  0  0  0  0  0  0  0  0  0  0
   46.7360   35.5200   43.5230 H   0  0  0  0  0  0  0  0  0  0  0  0
   47.0140   34.9100   40.4330 H   0  0  0  0  0  0  0  0  0  0  0  0
   46.0280   32.9630   43.1980 C   0  0  0  0  0  0  0  0  0  0  0  0
   46.2770   31.6230   42.8510 C   0  0  0  0  0  0  0  0  0  0  0  0
   46.3580   30.6780   43.8690 C   0  0  0  0  0  0  0  0  0  0  0  0
   46.1880   31.1100   45.1500 N   0  0  0  0  0  0  0  0  0  0  0  0
   45.9490   32.4010   45.4460 C   0  0  0  0  0  0  0  0  0  0  0  0
   45.8710   33.3230   44.4570 N   0  0  0  0  0  0  0  0  0  0  0  0
   46.4070   31.2160   41.8790 H   0  0  0  0  0  0  0  0  0  0  0  0
   46.5480   29.6300   43.6790 H   0  0  0  0  0  0  0  0  0  0  0  0
   45.7920   32.6690   46.9090 C   0  0  0  0  0  0  0  0  0  0  0  0
   44.8990   33.6990   47.1480 F   0  0  0  0  0  0  0  0  0  0  0  0
   47.0110   32.9450   47.4810 F   0  0  0  0  0  0  0  0  0  0  0  0
   45.3500   31.4830   47.5300 F   0  0  0  0  0  0  0  0  0  0  0  0
   48.5450   34.2880   41.8880 C   0  0  0  0  0  0  0  0  0  0  0  0
   49.2970   35.2340   42.5910 C   0  0  0  0  0  0  0  0  0  0  0  0
   49.0340   36.2340   42.9330 H   0  0  0  0  0  0  0  0  0  0  0  0
   50.5270   34.7720   42.8540 N   0  0  0  0  0  0  0  0  0  0  0  0
   51.3200   35.2280   43.3560 H   0  0  0  0  0  0  0  0  0  0  0  0
   50.5820   33.5360   42.3290 C   0  0  0  0  0  0  0  0  0  0  0  0
   51.3730   32.7940   42.3020 H   0  0  0  0  0  0  0  0  0  0  0  0
   49.3980   33.2620   41.7590 N   0  0  0  0  0  0  0  0  0  0  0  0
  1  4  1  6  0  0  0
  1  2  1  0  0  0  0
  1  8  1  0  0  0  0
  2  6  1  0  0  0  0
  3  7  1  6  0  0  0
  3 20  1  0  0  0  0
  3  1  1  0  0  0  0
  3  2  1  0  0  0  0
  5  2  1  0  0  0  0
  8 13  1  0  0  0  0
  9  8  2  0  0  0  0
  9 10  1  0  0  0  0
 10 11  2  0  0  0  0
 11 12  1  0  0  0  0
 12 16  1  0  0  0  0
 13 12  2  0  0  0  0
 14  9  1  0  0  0  0
 15 10  1  0  0  0  0
 16 17  1  0  0  0  0
 16 18  1  0  0  0  0
 16 19  1  0  0  0  0
 20 21  2  0  0  0  0
 21 23  1  0  0  0  0
 21 22  1  0  0  0  0
 23 24  1  0  0  0  0
 25 23  1  0  0  0  0
 26 25  1  0  0  0  0
 27 20  1  0  0  0  0
 27 25  2  0  0  0  0
M  END
>  <minimizedAffinity>
-4.9251647

>  <minimizedRMSD>
2.40378594

$$$$
