
 OpenBabel03252509223D

 26 28  0  0  1  0  0  0  0  0999 V2000
   46.8580   34.8270   42.0280 C   0  0  1  0  0  0  0  0  0  0  0  0
   48.2430   35.5160   42.1420 C   0  0  0  0  0  0  0  0  0  0  0  0
   47.9960   34.0170   41.7910 C   0  0  2  0  0  0  0  0  0  0  0  0
   46.2080   35.2690   41.2560 H   0  0  0  0  0  0  0  0  0  0  0  0
   48.4540   36.1800   41.3090 H   0  0  0  0  0  0  0  0  0  0  0  0
   48.6570   35.7310   43.1240 H   0  0  0  0  0  0  0  0  0  0  0  0
   48.3890   33.3260   42.5640 H   0  0  0  0  0  0  0  0  0  0  0  0
   44.5630   35.5240   44.9000 C   0  0  0  0  0  0  0  0  0  0  0  0
   45.1900   35.6780   43.6370 C   0  0  0  0  0  0  0  0  0  0  0  0
   46.1910   34.7730   43.3910 C   0  0  0  0  0  0  0  0  0  0  0  0
   46.5540   33.7990   44.3010 N   0  0  0  0  0  0  0  0  0  0  0  0
   45.9240   33.7020   45.4810 C   0  0  0  0  0  0  0  0  0  0  0  0
   44.9250   34.5610   45.7910 N   0  0  0  0  0  0  0  0  0  0  0  0
   43.7720   36.1880   45.1720 H   0  0  0  0  0  0  0  0  0  0  0  0
   46.1800   32.9550   46.2170 H   0  0  0  0  0  0  0  0  0  0  0  0
   44.8190   36.6940   42.7260 N   0  0  0  0  0  0  0  0  0  0  0  0
   44.5030   36.6600   41.7450 H   0  0  0  0  0  0  0  0  0  0  0  0
   44.9220   37.5910   43.2510 H   0  0  0  0  0  0  0  0  0  0  0  0
   48.3010   33.6500   40.3610 C   0  0  0  0  0  0  0  0  0  0  0  0
   49.1270   32.6600   39.8600 C   0  0  0  0  0  0  0  0  0  0  0  0
   49.6950   31.9790   40.4750 H   0  0  0  0  0  0  0  0  0  0  0  0
   49.0600   32.7400   38.5100 N   0  0  0  0  0  0  0  0  0  0  0  0
   49.5720   32.1250   37.8450 H   0  0  0  0  0  0  0  0  0  0  0  0
   48.2160   33.7500   38.1420 C   0  0  0  0  0  0  0  0  0  0  0  0
   47.9500   34.0690   37.1410 H   0  0  0  0  0  0  0  0  0  0  0  0
   47.7720   34.2840   39.2980 N   0  0  0  0  0  0  0  0  0  0  0  0
  1  4  1  6  0  0  0
  1  2  1  0  0  0  0
  1 10  1  0  0  0  0
  2  6  1  0  0  0  0
  3  1  1  0  0  0  0
  3  2  1  0  0  0  0
  3  7  1  1  0  0  0
  5  2  1  0  0  0  0
  8 14  1  0  0  0  0
  8 13  1  0  0  0  0
  9  8  2  0  0  0  0
 10  9  1  0  0  0  0
 10 11  2  0  0  0  0
 11 12  1  0  0  0  0
 12 13  2  0  0  0  0
 12 15  1  0  0  0  0
 16 18  1  0  0  0  0
 16  9  1  0  0  0  0
 17 16  1  0  0  0  0
 19  3  1  0  0  0  0
 20 19  2  0  0  0  0
 20 21  1  0  0  0  0
 22 20  1  0  0  0  0
 23 22  1  0  0  0  0
 24 22  1  0  0  0  0
 24 26  2  0  0  0  0
 25 24  1  0  0  0  0
 26 19  1  0  0  0  0
M  END
>  <minimizedAffinity>
-4.67042828

>  <minimizedRMSD>
0.804205

$$$$
