
 OpenBabel03252507473D

 36 38  0  0  0  0  0  0  0  0999 V2000
   36.5440   27.7440   42.3890 C   0  0  0  0  0  0  0  0  0  0  0  0
   36.3090   28.5250   41.6190 H   0  0  0  0  0  0  0  0  0  0  0  0
   35.6020   27.5820   42.9510 H   0  0  0  0  0  0  0  0  0  0  0  0
   37.0070   26.5090   41.7320 C   0  0  0  0  0  0  0  0  0  0  0  0
   37.2490   26.5930   40.3700 C   0  0  0  0  0  0  0  0  0  0  0  0
   37.6880   25.5060   39.6390 C   0  0  0  0  0  0  0  0  0  0  0  0
   37.8670   24.3340   40.3490 N   0  0  0  0  0  0  0  0  0  0  0  0
   37.6230   24.2840   41.6710 C   0  0  0  0  0  0  0  0  0  0  0  0
   37.2050   25.3460   42.3340 N   0  0  0  0  0  0  0  0  0  0  0  0
   37.8670   25.6100   38.5830 H   0  0  0  0  0  0  0  0  0  0  0  0
   37.7810   23.3340   42.1860 H   0  0  0  0  0  0  0  0  0  0  0  0
   36.9900   28.1600   39.4970 S   0  0  0  0  0  0  0  0  0  0  0  0
   35.4520   28.0800   38.5930 C   0  0  0  0  0  0  0  0  0  0  0  0
   34.3580   28.9100   38.7370 C   0  0  0  0  0  0  0  0  0  0  0  0
   34.2840   29.7380   39.4300 H   0  0  0  0  0  0  0  0  0  0  0  0
   33.3730   28.5470   37.8800 N   0  0  0  0  0  0  0  0  0  0  0  0
   32.4250   28.9380   37.7130 H   0  0  0  0  0  0  0  0  0  0  0  0
   33.8970   27.4950   37.2310 C   0  0  0  0  0  0  0  0  0  0  0  0
   33.4700   26.8710   36.4460 H   0  0  0  0  0  0  0  0  0  0  0  0
   35.1430   27.1740   37.6210 N   0  0  0  0  0  0  0  0  0  0  0  0
   37.5260   28.2780   43.3970 C   0  0  0  0  0  0  0  0  0  0  0  0
   38.0020   27.4040   43.8710 H   0  0  0  0  0  0  0  0  0  0  0  0
   36.9570   28.9160   44.1090 H   0  0  0  0  0  0  0  0  0  0  0  0
   38.6080   29.0950   42.8120 C   0  0  0  0  0  0  0  0  0  0  0  0
   39.9390   28.5960   42.7900 C   0  0  0  0  0  0  0  0  0  0  0  0
   40.8810   29.9510   41.9820 S   0  0  0  0  0  0  0  0  0  0  0  0
   39.2860   30.9810   41.8100 C   0  0  0  0  0  0  0  0  0  0  0  0
   38.5100   30.2870   42.2790 N   0  0  0  0  0  0  0  0  0  0  0  0
   40.2940   27.6460   43.1620 H   0  0  0  0  0  0  0  0  0  0  0  0
   39.2610   32.2540   41.2240 O   0  0  0  0  0  0  0  0  0  0  0  0
   38.3340   31.5940   38.8430 O   0  0  0  0  0  0  0  0  0  0  0  0
   38.1040   32.5330   40.0200 P   0  0  0  0  0  0  0  0  0  0  0  0
   36.5790   32.2410   40.6690 O   0  0  0  0  0  0  0  0  0  0  0  0
   35.8610   32.7530   40.2480 H   0  0  0  0  0  0  0  0  0  0  0  0
   38.1830   34.1600   39.5280 O   0  0  0  0  0  0  0  0  0  0  0  0
   39.0160   34.3560   39.0380 H   0  0  0  0  0  0  0  0  0  0  0  0
  1  3  1  0  0  0  0
  1 21  1  0  0  0  0
  2  1  1  0  0  0  0
  4  9  1  0  0  0  0
  4  1  1  0  0  0  0
  5  4  2  0  0  0  0
  6  7  2  0  0  0  0
  6  5  1  0  0  0  0
  7  8  1  0  0  0  0
  8 11  1  0  0  0  0
  8  9  2  0  0  0  0
 10  6  1  0  0  0  0
 12  5  1  0  0  0  0
 13 14  2  0  0  0  0
 13 12  1  0  0  0  0
 14 15  1  0  0  0  0
 16 14  1  0  0  0  0
 17 16  1  0  0  0  0
 18 20  2  0  0  0  0
 18 16  1  0  0  0  0
 19 18  1  0  0  0  0
 20 13  1  0  0  0  0
 21 22  1  0  0  0  0
 21 23  1  0  0  0  0
 24 21  1  0  0  0  0
 25 24  2  0  0  0  0
 25 29  1  0  0  0  0
 26 25  1  0  0  0  0
 27 26  1  0  0  0  0
 27 28  2  0  0  0  0
 28 24  1  0  0  0  0
 30 27  1  0  0  0  0
 31 32  2  0  0  0  0
 32 33  1  0  0  0  0
 32 30  1  0  0  0  0
 34 33  1  0  0  0  0
 35 32  1  0  0  0  0
 36 35  1  0  0  0  0
M  END
>  <minimizedAffinity>
-5.16628838

$$$$

 OpenBabel03252507473D

 36 38  0  0  0  0  0  0  0  0999 V2000
   36.5010   28.5580   39.7770 C   0  0  0  0  0  0  0  0  0  0  0  0
   37.2300   29.0990   39.1190 H   0  0  0  0  0  0  0  0  0  0  0  0
   36.3880   27.5470   39.3340 H   0  0  0  0  0  0  0  0  0  0  0  0
   37.0140   28.4950   41.1570 C   0  0  0  0  0  0  0  0  0  0  0  0
   38.1830   29.1940   41.4080 C   0  0  0  0  0  0  0  0  0  0  0  0
   38.7660   29.2160   42.6620 C   0  0  0  0  0  0  0  0  0  0  0  0
   38.1110   28.4960   43.6420 N   0  0  0  0  0  0  0  0  0  0  0  0
   36.9770   27.8270   43.3670 C   0  0  0  0  0  0  0  0  0  0  0  0
   36.4520   27.8330   42.1570 N   0  0  0  0  0  0  0  0  0  0  0  0
   39.6740   29.7710   42.8180 H   0  0  0  0  0  0  0  0  0  0  0  0
   36.4980   27.2740   44.1790 H   0  0  0  0  0  0  0  0  0  0  0  0
   38.9950   30.1140   40.0740 S   0  0  0  0  0  0  0  0  0  0  0  0
   38.3490   31.7790   40.0320 C   0  0  0  0  0  0  0  0  0  0  0  0
   38.7420   32.8440   40.8180 C   0  0  0  0  0  0  0  0  0  0  0  0
   39.5110   32.8140   41.5790 H   0  0  0  0  0  0  0  0  0  0  0  0
   38.0280   33.9520   40.5040 N   0  0  0  0  0  0  0  0  0  0  0  0
   38.0540   34.9190   40.8830 H   0  0  0  0  0  0  0  0  0  0  0  0
   37.2110   33.5300   39.5270 C   0  0  0  0  0  0  0  0  0  0  0  0
   36.4520   34.0720   38.9620 H   0  0  0  0  0  0  0  0  0  0  0  0
   37.3630   32.2320   39.2060 N   0  0  0  0  0  0  0  0  0  0  0  0
   35.1380   29.1910   39.6840 C   0  0  0  0  0  0  0  0  0  0  0  0
   35.2730   30.2670   39.8830 H   0  0  0  0  0  0  0  0  0  0  0  0
   34.4840   28.6800   40.4240 H   0  0  0  0  0  0  0  0  0  0  0  0
   34.5080   29.0730   38.3530 C   0  0  0  0  0  0  0  0  0  0  0  0
   35.3170   28.8600   37.2040 C   0  0  0  0  0  0  0  0  0  0  0  0
   34.0910   28.7870   35.8380 S   0  0  0  0  0  0  0  0  0  0  0  0
   32.6680   29.0630   37.0760 C   0  0  0  0  0  0  0  0  0  0  0  0
   33.2330   29.1420   38.0650 N   0  0  0  0  0  0  0  0  0  0  0  0
   36.3920   28.7660   37.1620 H   0  0  0  0  0  0  0  0  0  0  0  0
   31.3220   29.1250   36.6890 O   0  0  0  0  0  0  0  0  0  0  0  0
   30.3740   31.5200   37.2630 O   0  0  0  0  0  0  0  0  0  0  0  0
   30.2790   30.0500   37.6500 P   0  0  0  0  0  0  0  0  0  0  0  0
   28.7040   29.5140   37.3930 O   0  0  0  0  0  0  0  0  0  0  0  0
   28.1070   29.6500   38.1550 H   0  0  0  0  0  0  0  0  0  0  0  0
   30.6700   29.8220   39.2900 O   0  0  0  0  0  0  0  0  0  0  0  0
   31.5410   30.2230   39.5190 H   0  0  0  0  0  0  0  0  0  0  0  0
  1  4  1  0  0  0  0
  2  1  1  0  0  0  0
  3  1  1  0  0  0  0
  4  5  2  0  0  0  0
  4  9  1  0  0  0  0
  5  6  1  0  0  0  0
  6 10  1  0  0  0  0
  6  7  2  0  0  0  0
  8  7  1  0  0  0  0
  8 11  1  0  0  0  0
  9  8  2  0  0  0  0
 12  5  1  0  0  0  0
 13 12  1  0  0  0  0
 13 14  2  0  0  0  0
 14 15  1  0  0  0  0
 16 14  1  0  0  0  0
 16 17  1  0  0  0  0
 18 16  1  0  0  0  0
 19 18  1  0  0  0  0
 20 18  2  0  0  0  0
 20 13  1  0  0  0  0
 21  1  1  0  0  0  0
 21 22  1  0  0  0  0
 21 23  1  0  0  0  0
 24 21  1  0  0  0  0
 25 24  2  0  0  0  0
 26 27  1  0  0  0  0
 26 25  1  0  0  0  0
 27 28  2  0  0  0  0
 28 24  1  0  0  0  0
 29 25  1  0  0  0  0
 30 27  1  0  0  0  0
 30 32  1  0  0  0  0
 31 32  2  0  0  0  0
 32 35  1  0  0  0  0
 33 32  1  0  0  0  0
 33 34  1  0  0  0  0
 35 36  1  0  0  0  0
M  END
>  <minimizedAffinity>
-5.12994814

$$$$

 OpenBabel03252507473D

 36 38  0  0  0  0  0  0  0  0999 V2000
   36.5220   27.9650   42.4580 C   0  0  0  0  0  0  0  0  0  0  0  0
   36.4060   29.0750   42.3540 H   0  0  0  0  0  0  0  0  0  0  0  0
   35.5600   27.6000   42.8720 H   0  0  0  0  0  0  0  0  0  0  0  0
   36.8160   27.3610   41.1470 C   0  0  0  0  0  0  0  0  0  0  0  0
   36.3800   28.0660   40.0360 C   0  0  0  0  0  0  0  0  0  0  0  0
   36.5960   27.6070   38.7500 C   0  0  0  0  0  0  0  0  0  0  0  0
   37.2680   26.4050   38.6440 N   0  0  0  0  0  0  0  0  0  0  0  0
   37.6790   25.7440   39.7420 C   0  0  0  0  0  0  0  0  0  0  0  0
   37.4540   26.2170   40.9530 N   0  0  0  0  0  0  0  0  0  0  0  0
   36.2430   28.1830   37.9120 H   0  0  0  0  0  0  0  0  0  0  0  0
   38.2070   24.7980   39.6030 H   0  0  0  0  0  0  0  0  0  0  0  0
   35.4990   29.6350   40.2460 S   0  0  0  0  0  0  0  0  0  0  0  0
   36.5690   30.9790   39.7560 C   0  0  0  0  0  0  0  0  0  0  0  0
   36.9820   31.2890   38.4770 C   0  0  0  0  0  0  0  0  0  0  0  0
   36.7070   30.7500   37.5790 H   0  0  0  0  0  0  0  0  0  0  0  0
   37.7900   32.3770   38.4900 N   0  0  0  0  0  0  0  0  0  0  0  0
   38.2770   32.8850   37.7260 H   0  0  0  0  0  0  0  0  0  0  0  0
   37.8490   32.7040   39.7900 C   0  0  0  0  0  0  0  0  0  0  0  0
   38.3820   33.5150   40.2870 H   0  0  0  0  0  0  0  0  0  0  0  0
   37.1330   31.8970   40.5930 N   0  0  0  0  0  0  0  0  0  0  0  0
   37.5570   27.6390   43.5020 C   0  0  0  0  0  0  0  0  0  0  0  0
   37.6250   26.5400   43.5500 H   0  0  0  0  0  0  0  0  0  0  0  0
   37.2260   28.1070   44.4550 H   0  0  0  0  0  0  0  0  0  0  0  0
   38.9100   28.1430   43.1880 C   0  0  0  0  0  0  0  0  0  0  0  0
   39.0820   29.4880   42.7610 C   0  0  0  0  0  0  0  0  0  0  0  0
   40.8970   29.6160   42.5060 S   0  0  0  0  0  0  0  0  0  0  0  0
   41.1170   27.7960   43.0290 C   0  0  0  0  0  0  0  0  0  0  0  0
   40.0400   27.4870   43.2510 N   0  0  0  0  0  0  0  0  0  0  0  0
   38.3190   30.2400   42.6240 H   0  0  0  0  0  0  0  0  0  0  0  0
   42.3660   27.1610   43.0720 O   0  0  0  0  0  0  0  0  0  0  0  0
   43.0370   25.4350   41.1920 O   0  0  0  0  0  0  0  0  0  0  0  0
   42.4310   25.5410   42.5860 P   0  0  0  0  0  0  0  0  0  0  0  0
   43.4000   24.6970   43.6740 O   0  0  0  0  0  0  0  0  0  0  0  0
   43.1760   23.7500   43.7570 H   0  0  0  0  0  0  0  0  0  0  0  0
   40.8650   24.8760   42.6240 O   0  0  0  0  0  0  0  0  0  0  0  0
   40.2860   25.2590   41.9250 H   0  0  0  0  0  0  0  0  0  0  0  0
  1  3  1  0  0  0  0
  1 21  1  0  0  0  0
  2  1  1  0  0  0  0
  4  1  1  0  0  0  0
  5 12  1  0  0  0  0
  5  4  2  0  0  0  0
  6  5  1  0  0  0  0
  7  6  2  0  0  0  0
  7  8  1  0  0  0  0
  8  9  2  0  0  0  0
  9  4  1  0  0  0  0
 10  6  1  0  0  0  0
 11  8  1  0  0  0  0
 13 12  1  0  0  0  0
 13 20  1  0  0  0  0
 14 16  1  0  0  0  0
 14 13  2  0  0  0  0
 15 14  1  0  0  0  0
 16 18  1  0  0  0  0
 17 16  1  0  0  0  0
 18 19  1  0  0  0  0
 18 20  2  0  0  0  0
 21 22  1  0  0  0  0
 21 23  1  0  0  0  0
 24 28  1  0  0  0  0
 24 21  1  0  0  0  0
 25 24  2  0  0  0  0
 26 25  1  0  0  0  0
 26 27  1  0  0  0  0
 27 30  1  0  0  0  0
 27 28  2  0  0  0  0
 29 25  1  0  0  0  0
 31 32  2  0  0  0  0
 32 35  1  0  0  0  0
 32 30  1  0  0  0  0
 32 33  1  0  0  0  0
 33 34  1  0  0  0  0
 36 35  1  0  0  0  0
M  END
>  <minimizedAffinity>
-5.09946442

$$$$

 OpenBabel03252507473D

 36 38  0  0  0  0  0  0  0  0999 V2000
   39.3770   28.2290   43.1130 C   0  0  0  0  0  0  0  0  0  0  0  0
   38.5930   28.9080   42.6840 H   0  0  0  0  0  0  0  0  0  0  0  0
   39.3890   28.4360   44.2030 H   0  0  0  0  0  0  0  0  0  0  0  0
   39.0410   26.8240   42.8280 C   0  0  0  0  0  0  0  0  0  0  0  0
   37.7220   26.5640   42.4930 C   0  0  0  0  0  0  0  0  0  0  0  0
   37.2810   25.2870   42.2010 C   0  0  0  0  0  0  0  0  0  0  0  0
   38.2350   24.2900   42.2680 N   0  0  0  0  0  0  0  0  0  0  0  0
   39.5080   24.5740   42.5970 C   0  0  0  0  0  0  0  0  0  0  0  0
   39.8900   25.8080   42.8670 N   0  0  0  0  0  0  0  0  0  0  0  0
   36.2490   25.1250   41.9440 H   0  0  0  0  0  0  0  0  0  0  0  0
   40.2240   23.7490   42.6350 H   0  0  0  0  0  0  0  0  0  0  0  0
   36.5190   27.9180   42.4280 S   0  0  0  0  0  0  0  0  0  0  0  0
   36.2580   28.3900   40.7250 C   0  0  0  0  0  0  0  0  0  0  0  0
   37.1420   28.2390   39.6760 C   0  0  0  0  0  0  0  0  0  0  0  0
   38.1310   27.8040   39.7430 H   0  0  0  0  0  0  0  0  0  0  0  0
   36.5990   28.7130   38.5280 N   0  0  0  0  0  0  0  0  0  0  0  0
   36.9680   28.7620   37.5580 H   0  0  0  0  0  0  0  0  0  0  0  0
   35.3880   29.1450   38.9120 C   0  0  0  0  0  0  0  0  0  0  0  0
   34.5900   29.6070   38.3300 H   0  0  0  0  0  0  0  0  0  0  0  0
   35.1330   28.9750   40.2220 N   0  0  0  0  0  0  0  0  0  0  0  0
   40.7420   28.6220   42.6160 C   0  0  0  0  0  0  0  0  0  0  0  0
   41.0800   27.8150   41.9440 H   0  0  0  0  0  0  0  0  0  0  0  0
   41.3930   28.7610   43.5060 H   0  0  0  0  0  0  0  0  0  0  0  0
   40.7620   29.8740   41.8310 C   0  0  0  0  0  0  0  0  0  0  0  0
   41.8970   30.1940   41.0390 C   0  0  0  0  0  0  0  0  0  0  0  0
   41.4390   31.8050   40.2830 S   0  0  0  0  0  0  0  0  0  0  0  0
   39.7600   31.7700   41.1840 C   0  0  0  0  0  0  0  0  0  0  0  0
   39.8250   30.7850   41.7590 N   0  0  0  0  0  0  0  0  0  0  0  0
   42.8030   29.6180   40.9200 H   0  0  0  0  0  0  0  0  0  0  0  0
   38.8040   32.7870   41.0550 O   0  0  0  0  0  0  0  0  0  0  0  0
   37.9460   31.5490   38.8890 O   0  0  0  0  0  0  0  0  0  0  0  0
   37.5210   32.5180   39.9850 P   0  0  0  0  0  0  0  0  0  0  0  0
   36.2400   31.8480   40.8470 O   0  0  0  0  0  0  0  0  0  0  0  0
   35.3590   32.0430   40.4710 H   0  0  0  0  0  0  0  0  0  0  0  0
   37.0140   34.0030   39.3250 O   0  0  0  0  0  0  0  0  0  0  0  0
   37.6890   34.3840   38.7170 H   0  0  0  0  0  0  0  0  0  0  0  0
  1  3  1  0  0  0  0
  2  1  1  0  0  0  0
  4  9  1  0  0  0  0
  4  1  1  0  0  0  0
  5  4  2  0  0  0  0
  6  7  2  0  0  0  0
  6  5  1  0  0  0  0
  7  8  1  0  0  0  0
  8 11  1  0  0  0  0
  8  9  2  0  0  0  0
 10  6  1  0  0  0  0
 12  5  1  0  0  0  0
 13 12  1  0  0  0  0
 14 15  1  0  0  0  0
 14 13  2  0  0  0  0
 16 18  1  0  0  0  0
 16 14  1  0  0  0  0
 17 16  1  0  0  0  0
 18 20  2  0  0  0  0
 19 18  1  0  0  0  0
 20 13  1  0  0  0  0
 21  1  1  0  0  0  0
 21 23  1  0  0  0  0
 22 21  1  0  0  0  0
 24 21  1  0  0  0  0
 25 24  2  0  0  0  0
 26 25  1  0  0  0  0
 26 27  1  0  0  0  0
 27 28  2  0  0  0  0
 28 24  1  0  0  0  0
 29 25  1  0  0  0  0
 30 27  1  0  0  0  0
 31 32  2  0  0  0  0
 32 33  1  0  0  0  0
 32 30  1  0  0  0  0
 34 33  1  0  0  0  0
 35 32  1  0  0  0  0
 36 35  1  0  0  0  0
M  END
>  <minimizedAffinity>
-5.04674911

$$$$

 OpenBabel03252507473D

 36 38  0  0  0  0  0  0  0  0999 V2000
   37.7380   29.7510   37.8830 C   0  0  0  0  0  0  0  0  0  0  0  0
   38.6800   29.5840   38.4690 H   0  0  0  0  0  0  0  0  0  0  0  0
   38.0660   30.0310   36.8610 H   0  0  0  0  0  0  0  0  0  0  0  0
   36.9210   28.5250   37.8780 C   0  0  0  0  0  0  0  0  0  0  0  0
   37.2790   27.5460   38.7900 C   0  0  0  0  0  0  0  0  0  0  0  0
   36.5910   26.3510   38.8850 C   0  0  0  0  0  0  0  0  0  0  0  0
   35.5290   26.1960   38.0150 N   0  0  0  0  0  0  0  0  0  0  0  0
   35.2060   27.1660   37.1400 C   0  0  0  0  0  0  0  0  0  0  0  0
   35.8880   28.2940   37.0820 N   0  0  0  0  0  0  0  0  0  0  0  0
   36.8990   25.6140   39.6070 H   0  0  0  0  0  0  0  0  0  0  0  0
   34.3570   26.9940   36.4750 H   0  0  0  0  0  0  0  0  0  0  0  0
   38.6870   27.8110   39.9000 S   0  0  0  0  0  0  0  0  0  0  0  0
   38.0840   28.3190   41.5020 C   0  0  0  0  0  0  0  0  0  0  0  0
   37.1050   29.2570   41.7630 C   0  0  0  0  0  0  0  0  0  0  0  0
   36.5600   29.8210   41.0180 H   0  0  0  0  0  0  0  0  0  0  0  0
   36.9110   29.3790   43.0990 N   0  0  0  0  0  0  0  0  0  0  0  0
   36.2660   29.9780   43.6510 H   0  0  0  0  0  0  0  0  0  0  0  0
   37.7850   28.5050   43.6210 C   0  0  0  0  0  0  0  0  0  0  0  0
   37.9910   28.2540   44.6630 H   0  0  0  0  0  0  0  0  0  0  0  0
   38.5140   27.8420   42.7060 N   0  0  0  0  0  0  0  0  0  0  0  0
   36.9970   30.9510   38.4090 C   0  0  0  0  0  0  0  0  0  0  0  0
   36.3590   30.5940   39.2340 H   0  0  0  0  0  0  0  0  0  0  0  0
   36.4260   31.3870   37.5610 H   0  0  0  0  0  0  0  0  0  0  0  0
   37.8720   32.0050   38.9640 C   0  0  0  0  0  0  0  0  0  0  0  0
   37.3180   33.0220   39.7870 C   0  0  0  0  0  0  0  0  0  0  0  0
   38.7750   34.0580   40.2090 S   0  0  0  0  0  0  0  0  0  0  0  0
   39.9050   32.9180   39.1810 C   0  0  0  0  0  0  0  0  0  0  0  0
   39.1620   32.1420   38.7940 N   0  0  0  0  0  0  0  0  0  0  0  0
   36.2860   33.1430   40.0840 H   0  0  0  0  0  0  0  0  0  0  0  0
   41.2840   33.1320   39.0460 O   0  0  0  0  0  0  0  0  0  0  0  0
   42.8990   31.3600   37.9410 O   0  0  0  0  0  0  0  0  0  0  0  0
   42.0230   32.5680   37.6310 P   0  0  0  0  0  0  0  0  0  0  0  0
   40.8190   32.1130   36.5470 O   0  0  0  0  0  0  0  0  0  0  0  0
   41.0790   32.1850   35.6080 H   0  0  0  0  0  0  0  0  0  0  0  0
   42.9370   33.8230   36.9330 O   0  0  0  0  0  0  0  0  0  0  0  0
   43.7250   34.0510   37.4790 H   0  0  0  0  0  0  0  0  0  0  0  0
  1 21  1  0  0  0  0
  1  2  1  0  0  0  0
  3  1  1  0  0  0  0
  4  1  1  0  0  0  0
  4  5  1  0  0  0  0
  5  6  2  0  0  0  0
  5 12  1  0  0  0  0
  6 10  1  0  0  0  0
  7  6  1  0  0  0  0
  8  7  2  0  0  0  0
  9  8  1  0  0  0  0
  9  4  2  0  0  0  0
 11  8  1  0  0  0  0
 12 13  1  0  0  0  0
 13 14  2  0  0  0  0
 13 20  1  0  0  0  0
 14 16  1  0  0  0  0
 15 14  1  0  0  0  0
 16 18  1  0  0  0  0
 16 17  1  0  0  0  0
 18 19  1  0  0  0  0
 20 18  2  0  0  0  0
 21 24  1  0  0  0  0
 21 22  1  0  0  0  0
 23 21  1  0  0  0  0
 24 25  2  0  0  0  0
 25 29  1  0  0  0  0
 25 26  1  0  0  0  0
 27 26  1  0  0  0  0
 28 24  1  0  0  0  0
 28 27  2  0  0  0  0
 30 27  1  0  0  0  0
 32 31  2  0  0  0  0
 32 30  1  0  0  0  0
 33 32  1  0  0  0  0
 34 33  1  0  0  0  0
 35 36  1  0  0  0  0
 35 32  1  0  0  0  0
M  END
>  <minimizedAffinity>
-4.99941158

$$$$

 OpenBabel03252507473D

 36 38  0  0  0  0  0  0  0  0999 V2000
   36.9450   27.2660   42.2560 C   0  0  0  0  0  0  0  0  0  0  0  0
   36.1270   26.6370   42.6950 H   0  0  0  0  0  0  0  0  0  0  0  0
   37.8100   26.5840   42.1220 H   0  0  0  0  0  0  0  0  0  0  0  0
   36.5060   27.8470   40.9750 C   0  0  0  0  0  0  0  0  0  0  0  0
   37.2500   27.5030   39.8590 C   0  0  0  0  0  0  0  0  0  0  0  0
   36.9400   27.9800   38.5990 C   0  0  0  0  0  0  0  0  0  0  0  0
   35.8460   28.8210   38.5260 N   0  0  0  0  0  0  0  0  0  0  0  0
   35.1430   29.1370   39.6290 C   0  0  0  0  0  0  0  0  0  0  0  0
   35.4720   28.6590   40.8140 N   0  0  0  0  0  0  0  0  0  0  0  0
   37.5410   27.6890   37.7550 H   0  0  0  0  0  0  0  0  0  0  0  0
   34.2860   29.8060   39.5160 H   0  0  0  0  0  0  0  0  0  0  0  0
   38.6770   26.3980   40.0250 S   0  0  0  0  0  0  0  0  0  0  0  0
   38.1010   24.7150   40.1830 C   0  0  0  0  0  0  0  0  0  0  0  0
   38.7500   23.6680   40.8060 C   0  0  0  0  0  0  0  0  0  0  0  0
   39.7140   23.7280   41.2940 H   0  0  0  0  0  0  0  0  0  0  0  0
   38.0090   22.5370   40.7270 N   0  0  0  0  0  0  0  0  0  0  0  0
   38.1790   21.5740   41.0790 H   0  0  0  0  0  0  0  0  0  0  0  0
   36.9170   22.9270   40.0510 C   0  0  0  0  0  0  0  0  0  0  0  0
   36.0380   22.3580   39.7470 H   0  0  0  0  0  0  0  0  0  0  0  0
   36.9220   24.2260   39.7000 N   0  0  0  0  0  0  0  0  0  0  0  0
   37.4010   28.3020   43.2480 C   0  0  0  0  0  0  0  0  0  0  0  0
   37.7680   27.7560   44.1320 H   0  0  0  0  0  0  0  0  0  0  0  0
   36.5330   28.9630   43.4620 H   0  0  0  0  0  0  0  0  0  0  0  0
   38.5140   29.1470   42.7690 C   0  0  0  0  0  0  0  0  0  0  0  0
   39.8530   28.6810   42.8750 C   0  0  0  0  0  0  0  0  0  0  0  0
   40.8340   30.0600   42.1610 S   0  0  0  0  0  0  0  0  0  0  0  0
   39.2380   31.0510   41.8360 C   0  0  0  0  0  0  0  0  0  0  0  0
   38.4380   30.3380   42.2290 N   0  0  0  0  0  0  0  0  0  0  0  0
   40.1930   27.7390   43.2800 H   0  0  0  0  0  0  0  0  0  0  0  0
   39.2370   32.3250   41.2510 O   0  0  0  0  0  0  0  0  0  0  0  0
   37.9860   34.1570   39.8220 O   0  0  0  0  0  0  0  0  0  0  0  0
   38.0130   32.6660   40.1330 P   0  0  0  0  0  0  0  0  0  0  0  0
   38.3310   31.8130   38.7180 O   0  0  0  0  0  0  0  0  0  0  0  0
   37.5340   31.5900   38.1980 H   0  0  0  0  0  0  0  0  0  0  0  0
   36.5170   32.1460   40.7570 O   0  0  0  0  0  0  0  0  0  0  0  0
   36.2290   32.6920   41.5250 H   0  0  0  0  0  0  0  0  0  0  0  0
  1  2  1  0  0  0  0
  1 21  1  0  0  0  0
  3  1  1  0  0  0  0
  4  1  1  0  0  0  0
  5 12  1  0  0  0  0
  5  4  2  0  0  0  0
  6  5  1  0  0  0  0
  7  6  2  0  0  0  0
  7  8  1  0  0  0  0
  8  9  2  0  0  0  0
  9  4  1  0  0  0  0
 10  6  1  0  0  0  0
 11  8  1  0  0  0  0
 12 13  1  0  0  0  0
 13 14  2  0  0  0  0
 14 15  1  0  0  0  0
 16 14  1  0  0  0  0
 16 17  1  0  0  0  0
 18 16  1  0  0  0  0
 19 18  1  0  0  0  0
 20 18  2  0  0  0  0
 20 13  1  0  0  0  0
 21 23  1  0  0  0  0
 21 22  1  0  0  0  0
 24 25  2  0  0  0  0
 24 21  1  0  0  0  0
 25 29  1  0  0  0  0
 26 25  1  0  0  0  0
 27 26  1  0  0  0  0
 27 28  2  0  0  0  0
 28 24  1  0  0  0  0
 30 27  1  0  0  0  0
 31 32  2  0  0  0  0
 32 35  1  0  0  0  0
 32 30  1  0  0  0  0
 33 32  1  0  0  0  0
 34 33  1  0  0  0  0
 35 36  1  0  0  0  0
M  END
>  <minimizedAffinity>
-4.9654541

$$$$

 OpenBabel03252507473D

 36 38  0  0  0  0  0  0  0  0999 V2000
   36.6200   30.5200   39.0110 C   0  0  0  0  0  0  0  0  0  0  0  0
   37.6360   30.7780   39.4100 H   0  0  0  0  0  0  0  0  0  0  0  0
   36.1610   31.4850   38.7140 H   0  0  0  0  0  0  0  0  0  0  0  0
   36.7440   29.6010   37.8670 C   0  0  0  0  0  0  0  0  0  0  0  0
   38.0050   29.0730   37.6380 C   0  0  0  0  0  0  0  0  0  0  0  0
   38.2520   28.1970   36.5980 C   0  0  0  0  0  0  0  0  0  0  0  0
   37.1660   27.8850   35.8030 N   0  0  0  0  0  0  0  0  0  0  0  0
   35.9540   28.4140   36.0500 C   0  0  0  0  0  0  0  0  0  0  0  0
   35.7600   29.2460   37.0550 N   0  0  0  0  0  0  0  0  0  0  0  0
   39.2440   27.8070   36.4530 H   0  0  0  0  0  0  0  0  0  0  0  0
   35.1280   28.1340   35.3920 H   0  0  0  0  0  0  0  0  0  0  0  0
   39.3880   29.5280   38.7170 S   0  0  0  0  0  0  0  0  0  0  0  0
   40.3180   30.8480   37.9540 C   0  0  0  0  0  0  0  0  0  0  0  0
   39.9520   32.1760   37.8580 C   0  0  0  0  0  0  0  0  0  0  0  0
   39.0350   32.6050   38.2420 H   0  0  0  0  0  0  0  0  0  0  0  0
   40.9080   32.8850   37.2110 N   0  0  0  0  0  0  0  0  0  0  0  0
   40.9720   33.8920   36.9630 H   0  0  0  0  0  0  0  0  0  0  0  0
   41.8400   31.9630   36.9270 C   0  0  0  0  0  0  0  0  0  0  0  0
   42.7960   32.0650   36.4110 H   0  0  0  0  0  0  0  0  0  0  0  0
   41.5350   30.7230   37.3500 N   0  0  0  0  0  0  0  0  0  0  0  0
   35.7450   29.9800   40.1090 C   0  0  0  0  0  0  0  0  0  0  0  0
   35.0680   29.2450   39.6440 H   0  0  0  0  0  0  0  0  0  0  0  0
   35.2160   30.8430   40.5680 H   0  0  0  0  0  0  0  0  0  0  0  0
   36.4820   29.2720   41.1760 C   0  0  0  0  0  0  0  0  0  0  0  0
   37.4500   29.9700   41.9480 C   0  0  0  0  0  0  0  0  0  0  0  0
   38.0660   28.6840   43.1070 S   0  0  0  0  0  0  0  0  0  0  0  0
   36.8880   27.3990   42.3350 C   0  0  0  0  0  0  0  0  0  0  0  0
   36.3630   28.0180   41.5320 N   0  0  0  0  0  0  0  0  0  0  0  0
   37.7420   31.0060   41.8620 H   0  0  0  0  0  0  0  0  0  0  0  0
   36.8180   26.0690   42.7720 O   0  0  0  0  0  0  0  0  0  0  0  0
   36.3460   24.0060   41.1960 O   0  0  0  0  0  0  0  0  0  0  0  0
   37.4620   24.8800   41.7530 P   0  0  0  0  0  0  0  0  0  0  0  0
   38.2530   25.6440   40.4790 O   0  0  0  0  0  0  0  0  0  0  0  0
   38.9870   25.1240   40.0950 H   0  0  0  0  0  0  0  0  0  0  0  0
   38.5950   23.9490   42.6170 O   0  0  0  0  0  0  0  0  0  0  0  0
   38.1640   23.3930   43.3060 H   0  0  0  0  0  0  0  0  0  0  0  0
  1  2  1  0  0  0  0
  1 21  1  0  0  0  0
  3  1  1  0  0  0  0
  4  1  1  0  0  0  0
  5  4  1  0  0  0  0
  5 12  1  0  0  0  0
  6  5  2  0  0  0  0
  7  8  2  0  0  0  0
  7  6  1  0  0  0  0
  8  9  1  0  0  0  0
  9  4  2  0  0  0  0
 10  6  1  0  0  0  0
 11  8  1  0  0  0  0
 13 12  1  0  0  0  0
 14 13  2  0  0  0  0
 14 15  1  0  0  0  0
 16 14  1  0  0  0  0
 17 16  1  0  0  0  0
 18 16  1  0  0  0  0
 18 20  2  0  0  0  0
 19 18  1  0  0  0  0
 20 13  1  0  0  0  0
 21 23  1  0  0  0  0
 21 24  1  0  0  0  0
 22 21  1  0  0  0  0
 24 28  1  0  0  0  0
 24 25  2  0  0  0  0
 25 26  1  0  0  0  0
 27 30  1  0  0  0  0
 27 26  1  0  0  0  0
 28 27  2  0  0  0  0
 29 25  1  0  0  0  0
 31 32  2  0  0  0  0
 32 35  1  0  0  0  0
 32 30  1  0  0  0  0
 33 32  1  0  0  0  0
 34 33  1  0  0  0  0
 35 36  1  0  0  0  0
M  END
>  <minimizedAffinity>
-4.96450901

$$$$

 OpenBabel03252507473D

 36 38  0  0  0  0  0  0  0  0999 V2000
   35.2990   29.3380   39.7440 C   0  0  0  0  0  0  0  0  0  0  0  0
   34.2540   29.6210   40.0350 H   0  0  0  0  0  0  0  0  0  0  0  0
   35.7100   30.2170   39.2070 H   0  0  0  0  0  0  0  0  0  0  0  0
   36.0890   29.0140   40.9450 C   0  0  0  0  0  0  0  0  0  0  0  0
   37.0200   29.9610   41.3390 C   0  0  0  0  0  0  0  0  0  0  0  0
   37.8220   29.7780   42.4500 C   0  0  0  0  0  0  0  0  0  0  0  0
   37.6370   28.5940   43.1370 N   0  0  0  0  0  0  0  0  0  0  0  0
   36.7250   27.6930   42.7290 C   0  0  0  0  0  0  0  0  0  0  0  0
   35.9780   27.9070   41.6630 N   0  0  0  0  0  0  0  0  0  0  0  0
   38.5330   30.5370   42.7260 H   0  0  0  0  0  0  0  0  0  0  0  0
   36.6180   26.7730   43.3080 H   0  0  0  0  0  0  0  0  0  0  0  0
   37.2150   31.4930   40.3900 S   0  0  0  0  0  0  0  0  0  0  0  0
   38.5560   31.2950   39.2270 C   0  0  0  0  0  0  0  0  0  0  0  0
   39.2950   30.1520   38.9960 C   0  0  0  0  0  0  0  0  0  0  0  0
   39.1570   29.2020   39.4960 H   0  0  0  0  0  0  0  0  0  0  0  0
   40.2300   30.3780   38.0420 N   0  0  0  0  0  0  0  0  0  0  0  0
   40.9500   29.7590   37.6200 H   0  0  0  0  0  0  0  0  0  0  0  0
   40.0360   31.6650   37.7140 C   0  0  0  0  0  0  0  0  0  0  0  0
   40.5550   32.2910   36.9880 H   0  0  0  0  0  0  0  0  0  0  0  0
   39.0420   32.2620   38.3970 N   0  0  0  0  0  0  0  0  0  0  0  0
   35.2800   28.2230   38.7330 C   0  0  0  0  0  0  0  0  0  0  0  0
   35.1950   27.2810   39.3000 H   0  0  0  0  0  0  0  0  0  0  0  0
   36.2140   28.3000   38.1360 H   0  0  0  0  0  0  0  0  0  0  0  0
   34.1340   28.2720   37.8020 C   0  0  0  0  0  0  0  0  0  0  0  0
   33.9920   27.2730   36.8010 C   0  0  0  0  0  0  0  0  0  0  0  0
   32.4530   27.7690   35.9290 S   0  0  0  0  0  0  0  0  0  0  0  0
   32.2600   29.2710   37.0880 C   0  0  0  0  0  0  0  0  0  0  0  0
   33.1720   29.1600   37.7660 N   0  0  0  0  0  0  0  0  0  0  0  0
   34.6420   26.4310   36.6120 H   0  0  0  0  0  0  0  0  0  0  0  0
   31.1990   30.1810   36.9860 O   0  0  0  0  0  0  0  0  0  0  0  0
   28.9190   29.3940   38.0580 O   0  0  0  0  0  0  0  0  0  0  0  0
   30.1330   30.2820   38.2980 P   0  0  0  0  0  0  0  0  0  0  0  0
   30.9380   29.7540   39.6790 O   0  0  0  0  0  0  0  0  0  0  0  0
   30.6080   30.1500   40.5090 H   0  0  0  0  0  0  0  0  0  0  0  0
   29.6700   31.9030   38.5260 O   0  0  0  0  0  0  0  0  0  0  0  0
   29.0970   32.2280   37.7930 H   0  0  0  0  0  0  0  0  0  0  0  0
  1  2  1  0  0  0  0
  1  4  1  0  0  0  0
  3  1  1  0  0  0  0
  4  5  2  0  0  0  0
  4  9  1  0  0  0  0
  5  6  1  0  0  0  0
  6 10  1  0  0  0  0
  6  7  2  0  0  0  0
  8  7  1  0  0  0  0
  8 11  1  0  0  0  0
  9  8  2  0  0  0  0
 12  5  1  0  0  0  0
 13 12  1  0  0  0  0
 14 13  2  0  0  0  0
 14 15  1  0  0  0  0
 16 14  1  0  0  0  0
 17 16  1  0  0  0  0
 18 16  1  0  0  0  0
 18 20  2  0  0  0  0
 19 18  1  0  0  0  0
 20 13  1  0  0  0  0
 21 22  1  0  0  0  0
 21  1  1  0  0  0  0
 23 21  1  0  0  0  0
 24 21  1  0  0  0  0
 25 24  2  0  0  0  0
 26 25  1  0  0  0  0
 26 27  1  0  0  0  0
 27 28  2  0  0  0  0
 28 24  1  0  0  0  0
 29 25  1  0  0  0  0
 30 27  1  0  0  0  0
 30 32  1  0  0  0  0
 31 32  2  0  0  0  0
 32 35  1  0  0  0  0
 32 33  1  0  0  0  0
 33 34  1  0  0  0  0
 36 35  1  0  0  0  0
M  END
>  <minimizedAffinity>
-4.94766474

$$$$

 OpenBabel03252507473D

 36 38  0  0  0  0  0  0  0  0999 V2000
   36.5160   26.3590   39.5580 C   0  0  0  0  0  0  0  0  0  0  0  0
   37.0780   27.1640   39.0160 H   0  0  0  0  0  0  0  0  0  0  0  0
   35.4860   26.7480   39.6890 H   0  0  0  0  0  0  0  0  0  0  0  0
   36.5330   25.1120   38.7740 C   0  0  0  0  0  0  0  0  0  0  0  0
   35.7400   25.0920   37.6380 C   0  0  0  0  0  0  0  0  0  0  0  0
   35.6700   23.9830   36.8160 C   0  0  0  0  0  0  0  0  0  0  0  0
   36.4370   22.9000   37.2000 N   0  0  0  0  0  0  0  0  0  0  0  0
   37.1970   22.9500   38.3100 C   0  0  0  0  0  0  0  0  0  0  0  0
   37.2370   24.0290   39.0670 N   0  0  0  0  0  0  0  0  0  0  0  0
   35.0440   24.0050   35.9420 H   0  0  0  0  0  0  0  0  0  0  0  0
   37.7860   22.0660   38.5680 H   0  0  0  0  0  0  0  0  0  0  0  0
   34.7550   26.5470   37.1940 S   0  0  0  0  0  0  0  0  0  0  0  0
   35.7860   27.7060   36.3090 C   0  0  0  0  0  0  0  0  0  0  0  0
   36.8950   27.4150   35.5410 C   0  0  0  0  0  0  0  0  0  0  0  0
   37.2970   26.4250   35.3670 H   0  0  0  0  0  0  0  0  0  0  0  0
   37.4240   28.5490   35.0230 N   0  0  0  0  0  0  0  0  0  0  0  0
   38.2460   28.7100   34.4080 H   0  0  0  0  0  0  0  0  0  0  0  0
   36.6150   29.5120   35.4930 C   0  0  0  0  0  0  0  0  0  0  0  0
   36.6460   30.5910   35.3420 H   0  0  0  0  0  0  0  0  0  0  0  0
   35.6160   29.0590   36.2710 N   0  0  0  0  0  0  0  0  0  0  0  0
   37.0590   26.1860   40.9510 C   0  0  0  0  0  0  0  0  0  0  0  0
   37.7140   25.3000   40.9300 H   0  0  0  0  0  0  0  0  0  0  0  0
   36.1890   26.0810   41.6360 H   0  0  0  0  0  0  0  0  0  0  0  0
   37.8810   27.3190   41.4240 C   0  0  0  0  0  0  0  0  0  0  0  0
   38.9040   27.0980   42.3860 C   0  0  0  0  0  0  0  0  0  0  0  0
   39.6130   28.7750   42.6340 S   0  0  0  0  0  0  0  0  0  0  0  0
   38.3830   29.5020   41.3730 C   0  0  0  0  0  0  0  0  0  0  0  0
   37.7950   28.5740   41.0610 N   0  0  0  0  0  0  0  0  0  0  0  0
   39.1840   26.1630   42.8490 H   0  0  0  0  0  0  0  0  0  0  0  0
   38.3520   30.8620   41.0350 O   0  0  0  0  0  0  0  0  0  0  0  0
   36.7120   30.8870   38.9670 O   0  0  0  0  0  0  0  0  0  0  0  0
   36.9200   31.4630   40.3620 P   0  0  0  0  0  0  0  0  0  0  0  0
   35.6350   31.0020   41.3460 O   0  0  0  0  0  0  0  0  0  0  0  0
   34.8710   31.6100   41.3160 H   0  0  0  0  0  0  0  0  0  0  0  0
   36.9870   33.1630   40.3170 O   0  0  0  0  0  0  0  0  0  0  0  0
   37.6520   33.4870   39.6660 H   0  0  0  0  0  0  0  0  0  0  0  0
  1  3  1  0  0  0  0
  1 21  1  0  0  0  0
  2  1  1  0  0  0  0
  4  9  1  0  0  0  0
  4  1  1  0  0  0  0
  5  4  2  0  0  0  0
  6  7  2  0  0  0  0
  6  5  1  0  0  0  0
  7  8  1  0  0  0  0
  8 11  1  0  0  0  0
  8  9  2  0  0  0  0
 10  6  1  0  0  0  0
 12  5  1  0  0  0  0
 13 12  1  0  0  0  0
 14 13  2  0  0  0  0
 15 14  1  0  0  0  0
 16 18  1  0  0  0  0
 16 14  1  0  0  0  0
 17 16  1  0  0  0  0
 18 20  2  0  0  0  0
 19 18  1  0  0  0  0
 20 13  1  0  0  0  0
 21 24  1  0  0  0  0
 21 23  1  0  0  0  0
 22 21  1  0  0  0  0
 24 25  2  0  0  0  0
 25 26  1  0  0  0  0
 25 29  1  0  0  0  0
 27 26  1  0  0  0  0
 28 27  2  0  0  0  0
 28 24  1  0  0  0  0
 30 27  1  0  0  0  0
 31 32  2  0  0  0  0
 32 30  1  0  0  0  0
 32 33  1  0  0  0  0
 34 33  1  0  0  0  0
 35 32  1  0  0  0  0
 36 35  1  0  0  0  0
M  END
>  <minimizedAffinity>
-4.93588018

$$$$
