
 OpenBabel03242522243D

 27 29  0  0  0  0  0  0  0  0999 V2000
   39.6930   33.8660   40.0320 C   0  0  0  0  0  0  0  0  0  0  0  0
   39.0340   32.8940   40.7970 C   0  0  0  0  0  0  0  0  0  0  0  0
   39.2760   31.5460   40.6160 C   0  0  0  0  0  0  0  0  0  0  0  0
   40.1920   31.2150   39.6550 N   0  0  0  0  0  0  0  0  0  0  0  0
   40.8130   32.1610   38.9350 C   0  0  0  0  0  0  0  0  0  0  0  0
   40.5670   33.4640   39.1210 N   0  0  0  0  0  0  0  0  0  0  0  0
   39.4030   34.8890   40.2820 H   0  0  0  0  0  0  0  0  0  0  0  0
   38.3100   33.1450   41.5560 H   0  0  0  0  0  0  0  0  0  0  0  0
   36.8060   30.5810   39.3590 Cl  0  0  0  0  0  0  0  0  0  0  0  0
   37.4140   30.0020   40.8930 C   0  0  0  0  0  0  0  0  0  0  0  0
   38.5980   30.5170   41.4050 C   0  0  0  0  0  0  0  0  0  0  0  0
   39.0410   30.0260   42.6170 C   0  0  0  0  0  0  0  0  0  0  0  0
   38.3320   29.0540   43.2970 C   0  0  0  0  0  0  0  0  0  0  0  0
   37.1540   28.5780   42.7330 C   0  0  0  0  0  0  0  0  0  0  0  0
   36.2680   27.3490   43.6050 Cl  0  0  0  0  0  0  0  0  0  0  0  0
   36.6620   29.0370   41.5160 C   0  0  0  0  0  0  0  0  0  0  0  0
   39.9670   30.4470   42.9900 H   0  0  0  0  0  0  0  0  0  0  0  0
   38.6950   28.6780   44.2480 H   0  0  0  0  0  0  0  0  0  0  0  0
   35.7440   28.6580   41.0880 H   0  0  0  0  0  0  0  0  0  0  0  0
   41.7900   31.7960   37.9100 C   0  0  0  0  0  0  0  0  0  0  0  0
   42.8500   32.6380   37.5740 C   0  0  0  0  0  0  0  0  0  0  0  0
   43.1020   33.6200   37.9860 H   0  0  0  0  0  0  0  0  0  0  0  0
   43.5830   32.0330   36.5950 N   0  0  0  0  0  0  0  0  0  0  0  0
   44.4470   32.4560   36.1580 H   0  0  0  0  0  0  0  0  0  0  0  0
   42.9970   30.8550   36.3330 C   0  0  0  0  0  0  0  0  0  0  0  0
   43.3920   30.1760   35.5840 H   0  0  0  0  0  0  0  0  0  0  0  0
   41.9050   30.7040   37.1280 N   0  0  0  0  0  0  0  0  0  0  0  0
  1  7  1  0  0  0  0
  1  2  1  0  0  0  0
  2  8  1  0  0  0  0
  3  2  2  0  0  0  0
  3 11  1  0  0  0  0
  4  3  1  0  0  0  0
  5  6  1  0  0  0  0
  5  4  2  0  0  0  0
  6  1  2  0  0  0  0
  9 10  1  0  0  0  0
 10 11  2  0  0  0  0
 10 16  1  0  0  0  0
 11 12  1  0  0  0  0
 12 17  1  0  0  0  0
 12 13  2  0  0  0  0
 13 18  1  0  0  0  0
 14 13  1  0  0  0  0
 14 15  1  0  0  0  0
 16 14  2  0  0  0  0
 19 16  1  0  0  0  0
 20  5  1  0  0  0  0
 21 20  2  0  0  0  0
 21 22  1  0  0  0  0
 23 21  1  0  0  0  0
 24 23  1  0  0  0  0
 25 23  1  0  0  0  0
 25 27  2  0  0  0  0
 26 25  1  0  0  0  0
 27 20  1  0  0  0  0
M  END
>  <minimizedAffinity>
-5.3286581

$$$$

 OpenBabel03242522243D

 27 29  0  0  0  0  0  0  0  0999 V2000
   36.7230   31.4360   40.6990 C   0  0  0  0  0  0  0  0  0  0  0  0
   37.0480   30.2110   41.2990 C   0  0  0  0  0  0  0  0  0  0  0  0
   38.2970   29.6410   41.1460 C   0  0  0  0  0  0  0  0  0  0  0  0
   39.1950   30.3350   40.3830 N   0  0  0  0  0  0  0  0  0  0  0  0
   38.8640   31.5070   39.8180 C   0  0  0  0  0  0  0  0  0  0  0  0
   37.6490   32.0470   39.9740 N   0  0  0  0  0  0  0  0  0  0  0  0
   35.7030   31.7660   40.9030 H   0  0  0  0  0  0  0  0  0  0  0  0
   36.3460   29.6570   41.9020 H   0  0  0  0  0  0  0  0  0  0  0  0
   37.9370   27.3540   39.3420 Cl  0  0  0  0  0  0  0  0  0  0  0  0
   38.5100   27.2210   40.9880 C   0  0  0  0  0  0  0  0  0  0  0  0
   38.6530   28.3640   41.7640 C   0  0  0  0  0  0  0  0  0  0  0  0
   39.1140   28.2090   43.0560 C   0  0  0  0  0  0  0  0  0  0  0  0
   39.4240   26.9600   43.5610 C   0  0  0  0  0  0  0  0  0  0  0  0
   39.2600   25.8540   42.7350 C   0  0  0  0  0  0  0  0  0  0  0  0
   39.6550   24.2810   43.3870 Cl  0  0  0  0  0  0  0  0  0  0  0  0
   38.7990   25.9520   41.4270 C   0  0  0  0  0  0  0  0  0  0  0  0
   39.2150   29.1180   43.6370 H   0  0  0  0  0  0  0  0  0  0  0  0
   39.7850   26.8560   44.5790 H   0  0  0  0  0  0  0  0  0  0  0  0
   38.6770   25.0830   40.7940 H   0  0  0  0  0  0  0  0  0  0  0  0
   39.8320   32.2410   39.0040 C   0  0  0  0  0  0  0  0  0  0  0  0
   39.9480   32.0250   37.6310 C   0  0  0  0  0  0  0  0  0  0  0  0
   39.3840   31.3350   36.9960 H   0  0  0  0  0  0  0  0  0  0  0  0
   40.9260   32.8460   37.1500 N   0  0  0  0  0  0  0  0  0  0  0  0
   41.2180   32.8840   36.1350 H   0  0  0  0  0  0  0  0  0  0  0  0
   41.4000   33.5470   38.1900 C   0  0  0  0  0  0  0  0  0  0  0  0
   42.1930   34.2780   38.0700 H   0  0  0  0  0  0  0  0  0  0  0  0
   40.7400   33.1850   39.3210 N   0  0  0  0  0  0  0  0  0  0  0  0
  1  7  1  0  0  0  0
  1  2  1  0  0  0  0
  2  8  1  0  0  0  0
  3  2  2  0  0  0  0
  3 11  1  0  0  0  0
  4  3  1  0  0  0  0
  5  6  1  0  0  0  0
  5  4  2  0  0  0  0
  6  1  2  0  0  0  0
  9 10  1  0  0  0  0
 10 16  2  0  0  0  0
 10 11  1  0  0  0  0
 11 12  2  0  0  0  0
 12 13  1  0  0  0  0
 12 17  1  0  0  0  0
 13 18  1  0  0  0  0
 14 15  1  0  0  0  0
 14 13  2  0  0  0  0
 16 14  1  0  0  0  0
 19 16  1  0  0  0  0
 20 27  1  0  0  0  0
 20  5  1  0  0  0  0
 21 20  2  0  0  0  0
 22 21  1  0  0  0  0
 23 21  1  0  0  0  0
 23 25  1  0  0  0  0
 24 23  1  0  0  0  0
 25 27  2  0  0  0  0
 26 25  1  0  0  0  0
M  END
>  <minimizedAffinity>
-5.195467

$$$$

 OpenBabel03242522243D

 27 29  0  0  0  0  0  0  0  0999 V2000
   39.1260   34.1560   40.0600 C   0  0  0  0  0  0  0  0  0  0  0  0
   38.4690   33.0860   40.6840 C   0  0  0  0  0  0  0  0  0  0  0  0
   38.9480   31.7930   40.5950 C   0  0  0  0  0  0  0  0  0  0  0  0
   40.0930   31.6160   39.8690 N   0  0  0  0  0  0  0  0  0  0  0  0
   40.7080   32.6540   39.2800 C   0  0  0  0  0  0  0  0  0  0  0  0
   40.2320   33.9020   39.3750 N   0  0  0  0  0  0  0  0  0  0  0  0
   38.6370   35.1190   40.2140 H   0  0  0  0  0  0  0  0  0  0  0  0
   37.5650   33.2170   41.2580 H   0  0  0  0  0  0  0  0  0  0  0  0
   40.2770   30.9190   43.0610 Cl  0  0  0  0  0  0  0  0  0  0  0  0
   38.8330   30.1770   42.4110 C   0  0  0  0  0  0  0  0  0  0  0  0
   38.2740   30.6660   41.2380 C   0  0  0  0  0  0  0  0  0  0  0  0
   37.1310   30.0500   40.7670 C   0  0  0  0  0  0  0  0  0  0  0  0
   36.5630   28.9840   41.4390 C   0  0  0  0  0  0  0  0  0  0  0  0
   37.1700   28.5410   42.6080 C   0  0  0  0  0  0  0  0  0  0  0  0
   36.4400   27.1930   43.4480 Cl  0  0  0  0  0  0  0  0  0  0  0  0
   38.3200   29.1230   43.1280 C   0  0  0  0  0  0  0  0  0  0  0  0
   36.7180   30.4540   39.8500 H   0  0  0  0  0  0  0  0  0  0  0  0
   35.6640   28.5130   41.0550 H   0  0  0  0  0  0  0  0  0  0  0  0
   38.7820   28.7680   44.0390 H   0  0  0  0  0  0  0  0  0  0  0  0
   41.9320   32.4530   38.5070 C   0  0  0  0  0  0  0  0  0  0  0  0
   42.0690   32.9440   37.2090 C   0  0  0  0  0  0  0  0  0  0  0  0
   41.3470   33.5100   36.6120 H   0  0  0  0  0  0  0  0  0  0  0  0
   43.3070   32.6020   36.7500 N   0  0  0  0  0  0  0  0  0  0  0  0
   43.6700   32.8520   35.7890 H   0  0  0  0  0  0  0  0  0  0  0  0
   43.9180   31.9220   37.7300 C   0  0  0  0  0  0  0  0  0  0  0  0
   44.9260   31.5350   37.6140 H   0  0  0  0  0  0  0  0  0  0  0  0
   43.0890   31.8260   38.8030 N   0  0  0  0  0  0  0  0  0  0  0  0
  1  7  1  0  0  0  0
  1  2  1  0  0  0  0
  2  8  1  0  0  0  0
  3  2  2  0  0  0  0
  3 11  1  0  0  0  0
  4  3  1  0  0  0  0
  5  6  1  0  0  0  0
  5  4  2  0  0  0  0
  6  1  2  0  0  0  0
 10  9  1  0  0  0  0
 10 16  1  0  0  0  0
 11 10  2  0  0  0  0
 12 11  1  0  0  0  0
 12 13  2  0  0  0  0
 13 14  1  0  0  0  0
 14 16  2  0  0  0  0
 14 15  1  0  0  0  0
 16 19  1  0  0  0  0
 17 12  1  0  0  0  0
 18 13  1  0  0  0  0
 20 27  1  0  0  0  0
 20  5  1  0  0  0  0
 21 20  2  0  0  0  0
 22 21  1  0  0  0  0
 23 21  1  0  0  0  0
 23 25  1  0  0  0  0
 24 23  1  0  0  0  0
 25 27  2  0  0  0  0
 26 25  1  0  0  0  0
M  END
>  <minimizedAffinity>
-5.17305708

$$$$

 OpenBabel03242522243D

 27 29  0  0  0  0  0  0  0  0999 V2000
   40.6010   30.0250   42.8790 C   0  0  0  0  0  0  0  0  0  0  0  0
   40.1310   28.7500   42.5340 C   0  0  0  0  0  0  0  0  0  0  0  0
   39.1090   28.5810   41.6200 C   0  0  0  0  0  0  0  0  0  0  0  0
   38.5860   29.7200   41.0720 N   0  0  0  0  0  0  0  0  0  0  0  0
   39.0510   30.9310   41.4150 C   0  0  0  0  0  0  0  0  0  0  0  0
   40.0420   31.0800   42.3040 N   0  0  0  0  0  0  0  0  0  0  0  0
   41.4100   30.0090   43.6120 H   0  0  0  0  0  0  0  0  0  0  0  0
   40.5380   27.8480   42.9600 H   0  0  0  0  0  0  0  0  0  0  0  0
   36.9850   27.6200   43.4020 Cl  0  0  0  0  0  0  0  0  0  0  0  0
   37.6010   26.7170   42.0370 C   0  0  0  0  0  0  0  0  0  0  0  0
   38.6060   27.2590   41.2480 C   0  0  0  0  0  0  0  0  0  0  0  0
   39.0560   26.5100   40.1780 C   0  0  0  0  0  0  0  0  0  0  0  0
   38.5240   25.2650   39.9020 C   0  0  0  0  0  0  0  0  0  0  0  0
   37.5200   24.7770   40.7290 C   0  0  0  0  0  0  0  0  0  0  0  0
   36.8570   23.2000   40.3680 Cl  0  0  0  0  0  0  0  0  0  0  0  0
   37.0290   25.4870   41.8190 C   0  0  0  0  0  0  0  0  0  0  0  0
   39.8400   26.9600   39.5810 H   0  0  0  0  0  0  0  0  0  0  0  0
   38.8890   24.6900   39.0570 H   0  0  0  0  0  0  0  0  0  0  0  0
   36.2470   25.0950   42.4550 H   0  0  0  0  0  0  0  0  0  0  0  0
   38.4840   32.1420   40.8240 C   0  0  0  0  0  0  0  0  0  0  0  0
   37.1860   32.1700   40.3140 C   0  0  0  0  0  0  0  0  0  0  0  0
   36.4470   31.3640   40.2760 H   0  0  0  0  0  0  0  0  0  0  0  0
   36.9430   33.4240   39.8330 N   0  0  0  0  0  0  0  0  0  0  0  0
   36.0300   33.7190   39.3890 H   0  0  0  0  0  0  0  0  0  0  0  0
   38.0520   34.1480   40.0390 C   0  0  0  0  0  0  0  0  0  0  0  0
   38.1150   35.1910   39.7430 H   0  0  0  0  0  0  0  0  0  0  0  0
   38.9940   33.3760   40.6410 N   0  0  0  0  0  0  0  0  0  0  0  0
  1  7  1  0  0  0  0
  2  1  1  0  0  0  0
  2  8  1  0  0  0  0
  3  2  2  0  0  0  0
  4  5  2  0  0  0  0
  4  3  1  0  0  0  0
  5  6  1  0  0  0  0
  6  1  2  0  0  0  0
 10  9  1  0  0  0  0
 11  3  1  0  0  0  0
 11 10  2  0  0  0  0
 12 11  1  0  0  0  0
 13 12  2  0  0  0  0
 13 14  1  0  0  0  0
 14 16  2  0  0  0  0
 15 14  1  0  0  0  0
 16 10  1  0  0  0  0
 16 19  1  0  0  0  0
 17 12  1  0  0  0  0
 18 13  1  0  0  0  0
 20  5  1  0  0  0  0
 21 20  2  0  0  0  0
 22 21  1  0  0  0  0
 23 25  1  0  0  0  0
 23 21  1  0  0  0  0
 24 23  1  0  0  0  0
 25 27  2  0  0  0  0
 26 25  1  0  0  0  0
 27 20  1  0  0  0  0
M  END
>  <minimizedAffinity>
-5.12707758

$$$$

 OpenBabel03242522243D

 27 29  0  0  0  0  0  0  0  0999 V2000
   36.2490   30.8100   41.0390 C   0  0  0  0  0  0  0  0  0  0  0  0
   36.2730   29.4090   41.0800 C   0  0  0  0  0  0  0  0  0  0  0  0
   37.2110   28.6810   40.3730 C   0  0  0  0  0  0  0  0  0  0  0  0
   38.1110   29.4000   39.6360 N   0  0  0  0  0  0  0  0  0  0  0  0
   38.0730   30.7420   39.6120 C   0  0  0  0  0  0  0  0  0  0  0  0
   37.1570   31.4340   40.3020 N   0  0  0  0  0  0  0  0  0  0  0  0
   35.4560   31.2520   41.6440 H   0  0  0  0  0  0  0  0  0  0  0  0
   35.5670   28.8340   41.6570 H   0  0  0  0  0  0  0  0  0  0  0  0
   38.9750   27.6230   42.4660 Cl  0  0  0  0  0  0  0  0  0  0  0  0
   38.0630   26.6250   41.3580 C   0  0  0  0  0  0  0  0  0  0  0  0
   37.2490   27.2190   40.4030 C   0  0  0  0  0  0  0  0  0  0  0  0
   36.5440   26.3900   39.5540 C   0  0  0  0  0  0  0  0  0  0  0  0
   36.6430   25.0140   39.6510 C   0  0  0  0  0  0  0  0  0  0  0  0
   37.4740   24.4790   40.6280 C   0  0  0  0  0  0  0  0  0  0  0  0
   37.5900   22.7390   40.7380 Cl  0  0  0  0  0  0  0  0  0  0  0  0
   38.2070   25.2670   41.5080 C   0  0  0  0  0  0  0  0  0  0  0  0
   35.9170   26.8830   38.8200 H   0  0  0  0  0  0  0  0  0  0  0  0
   36.0810   24.3770   38.9760 H   0  0  0  0  0  0  0  0  0  0  0  0
   38.8500   24.8370   42.2640 H   0  0  0  0  0  0  0  0  0  0  0  0
   39.0400   31.5010   38.8210 C   0  0  0  0  0  0  0  0  0  0  0  0
   38.9040   31.6490   37.4410 C   0  0  0  0  0  0  0  0  0  0  0  0
   38.1210   31.2570   36.7840 H   0  0  0  0  0  0  0  0  0  0  0  0
   39.9490   32.3980   36.9860 N   0  0  0  0  0  0  0  0  0  0  0  0
   40.0890   32.6610   35.9720 H   0  0  0  0  0  0  0  0  0  0  0  0
   40.7080   32.7050   38.0480 C   0  0  0  0  0  0  0  0  0  0  0  0
   41.6090   33.3020   37.9510 H   0  0  0  0  0  0  0  0  0  0  0  0
   40.1620   32.1620   39.1680 N   0  0  0  0  0  0  0  0  0  0  0  0
  1  2  1  0  0  0  0
  1  7  1  0  0  0  0
  2  8  1  0  0  0  0
  3 11  1  0  0  0  0
  3  2  2  0  0  0  0
  4  3  1  0  0  0  0
  5  4  2  0  0  0  0
  5  6  1  0  0  0  0
  6  1  2  0  0  0  0
 10 16  1  0  0  0  0
 10  9  1  0  0  0  0
 11 10  2  0  0  0  0
 12 13  2  0  0  0  0
 12 11  1  0  0  0  0
 13 14  1  0  0  0  0
 14 15  1  0  0  0  0
 14 16  2  0  0  0  0
 16 19  1  0  0  0  0
 17 12  1  0  0  0  0
 18 13  1  0  0  0  0
 20 27  1  0  0  0  0
 20  5  1  0  0  0  0
 21 20  2  0  0  0  0
 22 21  1  0  0  0  0
 23 21  1  0  0  0  0
 23 25  1  0  0  0  0
 24 23  1  0  0  0  0
 25 27  2  0  0  0  0
 26 25  1  0  0  0  0
M  END
>  <minimizedAffinity>
-5.12299824

$$$$

 OpenBabel03242522243D

 27 29  0  0  0  0  0  0  0  0999 V2000
   37.3100   32.7530   39.9530 C   0  0  0  0  0  0  0  0  0  0  0  0
   37.0100   31.4410   40.3460 C   0  0  0  0  0  0  0  0  0  0  0  0
   37.9730   30.6130   40.8900 C   0  0  0  0  0  0  0  0  0  0  0  0
   39.2270   31.1410   41.0230 N   0  0  0  0  0  0  0  0  0  0  0  0
   39.4930   32.4000   40.6410 C   0  0  0  0  0  0  0  0  0  0  0  0
   38.5500   33.1920   40.1160 N   0  0  0  0  0  0  0  0  0  0  0  0
   36.4550   33.2920   39.5410 H   0  0  0  0  0  0  0  0  0  0  0  0
   36.0240   31.0170   40.2450 H   0  0  0  0  0  0  0  0  0  0  0  0
   38.3520   28.6550   38.7360 Cl  0  0  0  0  0  0  0  0  0  0  0  0
   37.8230   28.2430   40.3510 C   0  0  0  0  0  0  0  0  0  0  0  0
   37.6780   29.2410   41.3050 C   0  0  0  0  0  0  0  0  0  0  0  0
   37.2630   28.8660   42.5670 C   0  0  0  0  0  0  0  0  0  0  0  0
   37.0030   27.5430   42.8720 C   0  0  0  0  0  0  0  0  0  0  0  0
   37.1670   26.5910   41.8740 C   0  0  0  0  0  0  0  0  0  0  0  0
   36.8330   24.9220   42.2730 Cl  0  0  0  0  0  0  0  0  0  0  0  0
   37.5810   26.9120   40.5860 C   0  0  0  0  0  0  0  0  0  0  0  0
   37.1590   29.6670   43.2900 H   0  0  0  0  0  0  0  0  0  0  0  0
   36.6780   27.2670   43.8700 H   0  0  0  0  0  0  0  0  0  0  0  0
   37.7060   26.1600   39.8190 H   0  0  0  0  0  0  0  0  0  0  0  0
   40.8380   32.9540   40.7880 C   0  0  0  0  0  0  0  0  0  0  0  0
   41.8590   32.2450   41.4210 C   0  0  0  0  0  0  0  0  0  0  0  0
   41.8230   31.2470   41.8680 H   0  0  0  0  0  0  0  0  0  0  0  0
   42.9860   33.0130   41.4060 N   0  0  0  0  0  0  0  0  0  0  0  0
   43.9110   32.7120   41.8210 H   0  0  0  0  0  0  0  0  0  0  0  0
   42.6750   34.1590   40.7850 C   0  0  0  0  0  0  0  0  0  0  0  0
   43.4080   34.9470   40.6420 H   0  0  0  0  0  0  0  0  0  0  0  0
   41.3700   34.1320   40.4060 N   0  0  0  0  0  0  0  0  0  0  0  0
  1  6  2  0  0  0  0
  1  2  1  0  0  0  0
  2  3  2  0  0  0  0
  3  4  1  0  0  0  0
  3 11  1  0  0  0  0
  5 20  1  0  0  0  0
  5  4  2  0  0  0  0
  6  5  1  0  0  0  0
  7  1  1  0  0  0  0
  8  2  1  0  0  0  0
  9 10  1  0  0  0  0
 10 16  2  0  0  0  0
 10 11  1  0  0  0  0
 11 12  2  0  0  0  0
 12 13  1  0  0  0  0
 12 17  1  0  0  0  0
 13 18  1  0  0  0  0
 14 15  1  0  0  0  0
 14 13  2  0  0  0  0
 16 14  1  0  0  0  0
 19 16  1  0  0  0  0
 20 21  2  0  0  0  0
 21 22  1  0  0  0  0
 23 21  1  0  0  0  0
 23 24  1  0  0  0  0
 25 23  1  0  0  0  0
 26 25  1  0  0  0  0
 27 25  2  0  0  0  0
 27 20  1  0  0  0  0
M  END
>  <minimizedAffinity>
-4.97877455

$$$$

 OpenBabel03242522243D

 27 29  0  0  0  0  0  0  0  0999 V2000
   37.3750   27.8870   43.6800 C   0  0  0  0  0  0  0  0  0  0  0  0
   37.4600   26.7500   42.8650 C   0  0  0  0  0  0  0  0  0  0  0  0
   37.6210   26.8520   41.4970 C   0  0  0  0  0  0  0  0  0  0  0  0
   37.6960   28.1180   40.9850 N   0  0  0  0  0  0  0  0  0  0  0  0
   37.6150   29.1950   41.7830 C   0  0  0  0  0  0  0  0  0  0  0  0
   37.4580   29.0800   43.1070 N   0  0  0  0  0  0  0  0  0  0  0  0
   37.2480   27.6570   44.7390 H   0  0  0  0  0  0  0  0  0  0  0  0
   37.4010   25.7480   43.2600 H   0  0  0  0  0  0  0  0  0  0  0  0
   40.3790   25.9310   41.0910 Cl  0  0  0  0  0  0  0  0  0  0  0  0
   38.9770   25.1690   40.3750 C   0  0  0  0  0  0  0  0  0  0  0  0
   37.7100   25.6760   40.6310 C   0  0  0  0  0  0  0  0  0  0  0  0
   36.6330   25.0380   40.0480 C   0  0  0  0  0  0  0  0  0  0  0  0
   36.8100   23.9320   39.2380 C   0  0  0  0  0  0  0  0  0  0  0  0
   38.1030   23.4720   39.0200 C   0  0  0  0  0  0  0  0  0  0  0  0
   38.3110   22.0720   37.9930 Cl  0  0  0  0  0  0  0  0  0  0  0  0
   39.2220   24.0760   39.5820 C   0  0  0  0  0  0  0  0  0  0  0  0
   35.6580   25.4560   40.2650 H   0  0  0  0  0  0  0  0  0  0  0  0
   35.9530   23.4420   38.7880 H   0  0  0  0  0  0  0  0  0  0  0  0
   40.2240   23.7070   39.4040 H   0  0  0  0  0  0  0  0  0  0  0  0
   37.6960   30.5430   41.2240 C   0  0  0  0  0  0  0  0  0  0  0  0
   36.5540   31.2630   40.8770 C   0  0  0  0  0  0  0  0  0  0  0  0
   35.5040   30.9640   40.9590 H   0  0  0  0  0  0  0  0  0  0  0  0
   36.9440   32.4750   40.3870 N   0  0  0  0  0  0  0  0  0  0  0  0
   36.2740   33.2190   40.0500 H   0  0  0  0  0  0  0  0  0  0  0  0
   38.2840   32.5060   40.4300 C   0  0  0  0  0  0  0  0  0  0  0  0
   38.8450   33.3710   40.0920 H   0  0  0  0  0  0  0  0  0  0  0  0
   38.7500   31.3340   40.9370 N   0  0  0  0  0  0  0  0  0  0  0  0
  1  7  1  0  0  0  0
  2  8  1  0  0  0  0
  2  1  2  0  0  0  0
  3  2  1  0  0  0  0
  4  3  2  0  0  0  0
  4  5  1  0  0  0  0
  5  6  2  0  0  0  0
  6  1  1  0  0  0  0
 10 11  1  0  0  0  0
 10  9  1  0  0  0  0
 11  3  1  0  0  0  0
 12 17  1  0  0  0  0
 12 11  2  0  0  0  0
 13 12  1  0  0  0  0
 14 13  2  0  0  0  0
 14 16  1  0  0  0  0
 15 14  1  0  0  0  0
 16 10  2  0  0  0  0
 18 13  1  0  0  0  0
 19 16  1  0  0  0  0
 20  5  1  0  0  0  0
 21 22  1  0  0  0  0
 21 20  2  0  0  0  0
 23 25  1  0  0  0  0
 23 21  1  0  0  0  0
 24 23  1  0  0  0  0
 25 27  2  0  0  0  0
 26 25  1  0  0  0  0
 27 20  1  0  0  0  0
M  END
>  <minimizedAffinity>
-4.97395039

$$$$

 OpenBabel03242522243D

 27 29  0  0  0  0  0  0  0  0999 V2000
   37.1700   32.5460   39.8970 C   0  0  0  0  0  0  0  0  0  0  0  0
   36.9060   31.2410   40.3360 C   0  0  0  0  0  0  0  0  0  0  0  0
   37.7940   30.2080   40.1040 C   0  0  0  0  0  0  0  0  0  0  0  0
   38.9390   30.5280   39.4270 N   0  0  0  0  0  0  0  0  0  0  0  0
   39.1730   31.7850   39.0170 C   0  0  0  0  0  0  0  0  0  0  0  0
   38.3020   32.7760   39.2490 N   0  0  0  0  0  0  0  0  0  0  0  0
   36.3820   33.2590   40.1490 H   0  0  0  0  0  0  0  0  0  0  0  0
   36.0060   30.9790   40.8690 H   0  0  0  0  0  0  0  0  0  0  0  0
   38.6700   29.7210   42.8620 Cl  0  0  0  0  0  0  0  0  0  0  0  0
   37.9200   28.5120   41.8450 C   0  0  0  0  0  0  0  0  0  0  0  0
   37.5350   28.8400   40.5530 C   0  0  0  0  0  0  0  0  0  0  0  0
   36.9420   27.8530   39.7900 C   0  0  0  0  0  0  0  0  0  0  0  0
   36.7390   26.5830   40.2950 C   0  0  0  0  0  0  0  0  0  0  0  0
   37.1460   26.3160   41.5970 C   0  0  0  0  0  0  0  0  0  0  0  0
   36.8830   24.7050   42.2220 Cl  0  0  0  0  0  0  0  0  0  0  0  0
   37.7480   27.2710   42.4090 C   0  0  0  0  0  0  0  0  0  0  0  0
   36.6520   28.1390   38.7860 H   0  0  0  0  0  0  0  0  0  0  0  0
   36.2710   25.8200   39.6820 H   0  0  0  0  0  0  0  0  0  0  0  0
   38.0600   27.0500   43.4200 H   0  0  0  0  0  0  0  0  0  0  0  0
   40.4000   32.1160   38.2950 C   0  0  0  0  0  0  0  0  0  0  0  0
   41.0290   33.3510   38.4460 C   0  0  0  0  0  0  0  0  0  0  0  0
   40.7340   34.1980   39.0740 H   0  0  0  0  0  0  0  0  0  0  0  0
   42.1380   33.3660   37.6520 N   0  0  0  0  0  0  0  0  0  0  0  0
   42.8000   34.1870   37.5770 H   0  0  0  0  0  0  0  0  0  0  0  0
   42.1950   32.1800   37.0300 C   0  0  0  0  0  0  0  0  0  0  0  0
   42.9930   31.9380   36.3350 H   0  0  0  0  0  0  0  0  0  0  0  0
   41.1410   31.4140   37.4150 N   0  0  0  0  0  0  0  0  0  0  0  0
  1  7  1  0  0  0  0
  1  2  1  0  0  0  0
  2  8  1  0  0  0  0
  3  2  2  0  0  0  0
  3 11  1  0  0  0  0
  4  3  1  0  0  0  0
  5  6  1  0  0  0  0
  5  4  2  0  0  0  0
  6  1  2  0  0  0  0
 10 16  1  0  0  0  0
 10  9  1  0  0  0  0
 11 10  2  0  0  0  0
 12 13  2  0  0  0  0
 12 11  1  0  0  0  0
 13 14  1  0  0  0  0
 14 15  1  0  0  0  0
 14 16  2  0  0  0  0
 16 19  1  0  0  0  0
 17 12  1  0  0  0  0
 18 13  1  0  0  0  0
 20 21  2  0  0  0  0
 20  5  1  0  0  0  0
 21 22  1  0  0  0  0
 23 21  1  0  0  0  0
 24 23  1  0  0  0  0
 25 27  2  0  0  0  0
 25 23  1  0  0  0  0
 26 25  1  0  0  0  0
 27 20  1  0  0  0  0
M  END
>  <minimizedAffinity>
-4.95870686

$$$$

 OpenBabel03242522243D

 27 29  0  0  0  0  0  0  0  0999 V2000
   36.9450   32.1060   39.9660 C   0  0  0  0  0  0  0  0  0  0  0  0
   36.7240   30.7330   40.1410 C   0  0  0  0  0  0  0  0  0  0  0  0
   37.7280   29.8900   40.5770 C   0  0  0  0  0  0  0  0  0  0  0  0
   38.9420   30.4670   40.8290 N   0  0  0  0  0  0  0  0  0  0  0  0
   39.1330   31.7840   40.6570 C   0  0  0  0  0  0  0  0  0  0  0  0
   38.1500   32.5890   40.2330 N   0  0  0  0  0  0  0  0  0  0  0  0
   36.0650   32.6500   39.6170 H   0  0  0  0  0  0  0  0  0  0  0  0
   35.7710   30.2700   39.9440 H   0  0  0  0  0  0  0  0  0  0  0  0
   37.6400   29.1010   43.4030 Cl  0  0  0  0  0  0  0  0  0  0  0  0
   37.4650   27.9840   42.0690 C   0  0  0  0  0  0  0  0  0  0  0  0
   37.5160   28.4550   40.7640 C   0  0  0  0  0  0  0  0  0  0  0  0
   37.3670   27.5350   39.7440 C   0  0  0  0  0  0  0  0  0  0  0  0
   37.1730   26.1930   40.0120 C   0  0  0  0  0  0  0  0  0  0  0  0
   37.1320   25.7840   41.3400 C   0  0  0  0  0  0  0  0  0  0  0  0
   36.8870   24.0840   41.6640 Cl  0  0  0  0  0  0  0  0  0  0  0  0
   37.2760   26.6660   42.4050 C   0  0  0  0  0  0  0  0  0  0  0  0
   37.4110   27.9320   38.7360 H   0  0  0  0  0  0  0  0  0  0  0  0
   37.0580   25.4850   39.1980 H   0  0  0  0  0  0  0  0  0  0  0  0
   37.2410   26.3340   43.4340 H   0  0  0  0  0  0  0  0  0  0  0  0
   40.4350   32.3900   40.9290 C   0  0  0  0  0  0  0  0  0  0  0  0
   40.6730   33.7470   40.7090 C   0  0  0  0  0  0  0  0  0  0  0  0
   39.9860   34.5100   40.3320 H   0  0  0  0  0  0  0  0  0  0  0  0
   41.9670   34.0140   41.0510 N   0  0  0  0  0  0  0  0  0  0  0  0
   42.4090   34.9720   40.9800 H   0  0  0  0  0  0  0  0  0  0  0  0
   42.5120   32.8630   41.4690 C   0  0  0  0  0  0  0  0  0  0  0  0
   43.5440   32.8080   41.8000 H   0  0  0  0  0  0  0  0  0  0  0  0
   41.5870   31.8700   41.3980 N   0  0  0  0  0  0  0  0  0  0  0  0
  1  2  2  0  0  0  0
  1  6  1  0  0  0  0
  2  3  1  0  0  0  0
  3 11  1  0  0  0  0
  3  4  2  0  0  0  0
  5  4  1  0  0  0  0
  5 20  1  0  0  0  0
  6  5  2  0  0  0  0
  7  1  1  0  0  0  0
  8  2  1  0  0  0  0
 10 16  1  0  0  0  0
 10  9  1  0  0  0  0
 11 10  2  0  0  0  0
 12 13  2  0  0  0  0
 12 11  1  0  0  0  0
 13 14  1  0  0  0  0
 14 15  1  0  0  0  0
 14 16  2  0  0  0  0
 16 19  1  0  0  0  0
 17 12  1  0  0  0  0
 18 13  1  0  0  0  0
 20 27  1  0  0  0  0
 21 20  2  0  0  0  0
 21 23  1  0  0  0  0
 22 21  1  0  0  0  0
 23 25  1  0  0  0  0
 24 23  1  0  0  0  0
 25 26  1  0  0  0  0
 27 25  2  0  0  0  0
M  END
>  <minimizedAffinity>
-4.92568207

$$$$
