
 OpenBabel03252507213D

 43 46  0  0  1  0  0  0  0  0999 V2000
   39.0560   29.2420   40.3680 C   0  0  0  0  0  0  0  0  0  0  0  0
   39.6330   28.7710   39.3500 O   0  0  0  0  0  0  0  0  0  0  0  0
   38.5760   28.4550   41.4720 N   0  0  0  0  0  0  0  0  0  0  0  0
   38.6880   28.6640   42.9090 C   0  0  0  0  0  0  0  0  0  0  0  0
   37.2820   28.5470   43.5320 C   0  0  0  0  0  0  0  0  0  0  0  0
   36.7630   27.1410   43.3380 C   0  0  0  0  0  0  0  0  0  0  0  0
   37.6160   26.4150   42.3360 C   0  0  0  0  0  0  0  0  0  0  0  0
   37.8570   27.2550   41.1040 C   0  0  2  0  0  0  0  0  0  0  0  0
   38.9540   29.7390   43.1350 H   0  0  0  0  0  0  0  0  0  0  0  0
   39.3900   28.0020   43.4110 H   0  0  0  0  0  0  0  0  0  0  0  0
   37.3230   28.8800   44.5650 H   0  0  0  0  0  0  0  0  0  0  0  0
   36.6130   29.2200   42.9320 H   0  0  0  0  0  0  0  0  0  0  0  0
   36.7830   26.5890   44.3020 H   0  0  0  0  0  0  0  0  0  0  0  0
   35.6940   27.1270   43.0230 H   0  0  0  0  0  0  0  0  0  0  0  0
   38.5970   26.1760   42.8400 H   0  0  0  0  0  0  0  0  0  0  0  0
   37.1870   25.4420   42.0840 H   0  0  0  0  0  0  0  0  0  0  0  0
   36.8610   27.5900   40.7490 H   0  0  0  0  0  0  0  0  0  0  0  0
   39.9270   31.4670   40.8990 C   0  0  0  0  0  0  0  0  0  0  0  0
   38.8660   30.6720   40.4270 C   0  0  0  0  0  0  0  0  0  0  0  0
   37.6930   31.2820   40.0400 C   0  0  0  0  0  0  0  0  0  0  0  0
   37.6010   32.6240   40.1260 N   0  0  0  0  0  0  0  0  0  0  0  0
   38.6250   33.4000   40.5830 C   0  0  0  0  0  0  0  0  0  0  0  0
   39.7650   32.8040   40.9580 N   0  0  0  0  0  0  0  0  0  0  0  0
   40.8390   30.9790   41.1970 H   0  0  0  0  0  0  0  0  0  0  0  0
   38.4940   34.4700   40.6300 H   0  0  0  0  0  0  0  0  0  0  0  0
   36.6060   30.4520   39.5600 C   0  0  0  0  0  0  0  0  0  0  0  0
   35.6400   30.0200   40.4190 C   0  0  0  0  0  0  0  0  0  0  0  0
   34.6090   29.2290   39.9440 C   0  0  0  0  0  0  0  0  0  0  0  0
   34.5140   28.8550   38.6250 C   0  0  0  0  0  0  0  0  0  0  0  0
   35.5210   29.3190   37.7830 C   0  0  0  0  0  0  0  0  0  0  0  0
   36.5020   30.0830   38.2850 N   0  0  0  0  0  0  0  0  0  0  0  0
   35.5870   30.2270   41.4560 H   0  0  0  0  0  0  0  0  0  0  0  0
   33.8040   28.8490   40.5750 H   0  0  0  0  0  0  0  0  0  0  0  0
   33.7150   28.2410   38.2540 H   0  0  0  0  0  0  0  0  0  0  0  0
   35.5130   29.0650   36.7280 H   0  0  0  0  0  0  0  0  0  0  0  0
   38.4900   26.4740   40.0220 C   0  0  0  0  0  0  0  0  0  0  0  0
   38.0840   26.2080   38.7200 C   0  0  0  0  0  0  0  0  0  0  0  0
   37.1640   26.5770   38.3010 H   0  0  0  0  0  0  0  0  0  0  0  0
   38.9710   25.4450   38.0640 N   0  0  0  0  0  0  0  0  0  0  0  0
   38.9750   25.0750   37.1030 H   0  0  0  0  0  0  0  0  0  0  0  0
   39.9670   25.2080   38.9350 C   0  0  0  0  0  0  0  0  0  0  0  0
   40.8950   24.6550   38.8880 H   0  0  0  0  0  0  0  0  0  0  0  0
   39.6860   25.8160   40.0990 N   0  0  0  0  0  0  0  0  0  0  0  0
  1 19  1  0  0  0  0
  1  3  1  0  0  0  0
  2  1  2  0  0  0  0
  3  4  1  0  0  0  0
  4  9  1  0  0  0  0
  4 10  1  0  0  0  0
  4  5  1  0  0  0  0
  5 11  1  0  0  0  0
  6  5  1  0  0  0  0
  6 13  1  0  0  0  0
  7 15  1  0  0  0  0
  7  6  1  0  0  0  0
  8 17  1  6  0  0  0
  8  3  1  0  0  0  0
  8  7  1  0  0  0  0
 12  5  1  0  0  0  0
 14  6  1  0  0  0  0
 16  7  1  0  0  0  0
 18 23  1  0  0  0  0
 18 24  1  0  0  0  0
 19 18  2  0  0  0  0
 20 21  2  0  0  0  0
 20 19  1  0  0  0  0
 21 22  1  0  0  0  0
 22 25  1  0  0  0  0
 22 23  2  0  0  0  0
 26 20  1  0  0  0  0
 26 27  1  0  0  0  0
 27 32  1  0  0  0  0
 28 27  2  0  0  0  0
 28 33  1  0  0  0  0
 29 28  1  0  0  0  0
 30 31  1  0  0  0  0
 30 29  2  0  0  0  0
 31 26  2  0  0  0  0
 34 29  1  0  0  0  0
 35 30  1  0  0  0  0
 36 43  1  0  0  0  0
 36  8  1  0  0  0  0
 37 36  2  0  0  0  0
 38 37  1  0  0  0  0
 39 37  1  0  0  0  0
 39 41  1  0  0  0  0
 40 39  1  0  0  0  0
 41 43  2  0  0  0  0
 42 41  1  0  0  0  0
M  END
>  <minimizedAffinity>
-5.83350229

$$$$

 OpenBabel03252507213D

 43 46  0  0  1  0  0  0  0  0999 V2000
   39.2770   29.7620   41.4290 C   0  0  0  0  0  0  0  0  0  0  0  0
   38.7770   30.7620   42.0120 O   0  0  0  0  0  0  0  0  0  0  0  0
   39.9140   29.8020   40.1400 N   0  0  0  0  0  0  0  0  0  0  0  0
   41.1530   29.1980   39.6720 C   0  0  0  0  0  0  0  0  0  0  0  0
   40.8590   28.4180   38.3740 C   0  0  0  0  0  0  0  0  0  0  0  0
   40.4150   29.3840   37.3000 C   0  0  0  0  0  0  0  0  0  0  0  0
   40.0890   30.7160   37.9120 C   0  0  0  0  0  0  0  0  0  0  0  0
   39.2100   30.5640   39.1310 C   0  0  2  0  0  0  0  0  0  0  0  0
   41.4810   28.3710   40.3700 H   0  0  0  0  0  0  0  0  0  0  0  0
   41.9730   29.8970   39.5260 H   0  0  0  0  0  0  0  0  0  0  0  0
   41.7260   27.8160   38.1170 H   0  0  0  0  0  0  0  0  0  0  0  0
   39.9780   27.7580   38.5940 H   0  0  0  0  0  0  0  0  0  0  0  0
   41.2220   29.5160   36.5470 H   0  0  0  0  0  0  0  0  0  0  0  0
   39.5440   28.9970   36.7200 H   0  0  0  0  0  0  0  0  0  0  0  0
   41.0670   31.2030   38.1980 H   0  0  0  0  0  0  0  0  0  0  0  0
   39.6460   31.3910   37.1760 H   0  0  0  0  0  0  0  0  0  0  0  0
   38.3460   29.9410   38.8220 H   0  0  0  0  0  0  0  0  0  0  0  0
   40.2070   28.1700   43.0390 C   0  0  0  0  0  0  0  0  0  0  0  0
   39.2030   28.4880   42.1050 C   0  0  0  0  0  0  0  0  0  0  0  0
   38.1940   27.5800   41.8710 C   0  0  0  0  0  0  0  0  0  0  0  0
   38.2010   26.4140   42.5480 N   0  0  0  0  0  0  0  0  0  0  0  0
   39.1700   26.1000   43.4540 C   0  0  0  0  0  0  0  0  0  0  0  0
   40.1500   26.9850   43.6790 N   0  0  0  0  0  0  0  0  0  0  0  0
   40.9890   28.8880   43.2130 H   0  0  0  0  0  0  0  0  0  0  0  0
   39.1250   25.1510   43.9660 H   0  0  0  0  0  0  0  0  0  0  0  0
   37.1690   27.9170   40.9040 C   0  0  0  0  0  0  0  0  0  0  0  0
   36.0880   28.6590   41.2770 C   0  0  0  0  0  0  0  0  0  0  0  0
   35.1190   28.9730   40.3410 C   0  0  0  0  0  0  0  0  0  0  0  0
   35.2000   28.5630   39.0310 C   0  0  0  0  0  0  0  0  0  0  0  0
   36.3190   27.8090   38.6930 C   0  0  0  0  0  0  0  0  0  0  0  0
   37.2350   27.5280   39.6330 N   0  0  0  0  0  0  0  0  0  0  0  0
   35.8940   29.0390   42.2470 H   0  0  0  0  0  0  0  0  0  0  0  0
   34.2310   29.5620   40.5700 H   0  0  0  0  0  0  0  0  0  0  0  0
   34.4490   28.8050   38.3020 H   0  0  0  0  0  0  0  0  0  0  0  0
   36.4520   27.4500   37.6780 H   0  0  0  0  0  0  0  0  0  0  0  0
   38.6940   31.8650   39.6020 C   0  0  0  0  0  0  0  0  0  0  0  0
   37.3970   32.3230   39.7980 C   0  0  0  0  0  0  0  0  0  0  0  0
   36.5230   31.7240   39.6100 H   0  0  0  0  0  0  0  0  0  0  0  0
   37.3740   33.5880   40.2440 N   0  0  0  0  0  0  0  0  0  0  0  0
   36.5920   34.2140   40.4850 H   0  0  0  0  0  0  0  0  0  0  0  0
   38.6610   33.9660   40.3430 C   0  0  0  0  0  0  0  0  0  0  0  0
   39.1580   34.8750   40.6500 H   0  0  0  0  0  0  0  0  0  0  0  0
   39.4470   32.9460   39.9630 N   0  0  0  0  0  0  0  0  0  0  0  0
  1  2  2  0  0  0  0
  1 19  1  0  0  0  0
  3  1  1  0  0  0  0
  4  3  1  0  0  0  0
  4  9  1  0  0  0  0
  5 12  1  0  0  0  0
  5  4  1  0  0  0  0
  6  7  1  0  0  0  0
  6  5  1  0  0  0  0
  7 15  1  0  0  0  0
  7  8  1  0  0  0  0
  8 17  1  6  0  0  0
  8 36  1  0  0  0  0
  8  3  1  0  0  0  0
 10  4  1  0  0  0  0
 11  5  1  0  0  0  0
 13  6  1  0  0  0  0
 14  6  1  0  0  0  0
 16  7  1  0  0  0  0
 18 24  1  0  0  0  0
 18 23  1  0  0  0  0
 19 18  2  0  0  0  0
 20 19  1  0  0  0  0
 20 21  2  0  0  0  0
 21 22  1  0  0  0  0
 22 23  2  0  0  0  0
 22 25  1  0  0  0  0
 26 27  1  0  0  0  0
 26 20  1  0  0  0  0
 27 32  1  0  0  0  0
 28 33  1  0  0  0  0
 28 27  2  0  0  0  0
 29 28  1  0  0  0  0
 30 29  2  0  0  0  0
 30 31  1  0  0  0  0
 31 26  2  0  0  0  0
 34 29  1  0  0  0  0
 35 30  1  0  0  0  0
 36 37  2  0  0  0  0
 36 43  1  0  0  0  0
 37 39  1  0  0  0  0
 38 37  1  0  0  0  0
 39 41  1  0  0  0  0
 39 40  1  0  0  0  0
 41 42  1  0  0  0  0
 43 41  2  0  0  0  0
M  END
>  <minimizedAffinity>
-5.76235914

$$$$

 OpenBabel03252507213D

 43 46  0  0  1  0  0  0  0  0999 V2000
   39.4870   29.0450   39.8120 C   0  0  0  0  0  0  0  0  0  0  0  0
   39.6510   30.2740   40.0440 O   0  0  0  0  0  0  0  0  0  0  0  0
   38.3670   28.4890   39.1030 N   0  0  0  0  0  0  0  0  0  0  0  0
   38.3080   27.4760   38.0590 C   0  0  0  0  0  0  0  0  0  0  0  0
   37.2810   26.4040   38.4730 C   0  0  0  0  0  0  0  0  0  0  0  0
   35.9070   27.0290   38.5470 C   0  0  0  0  0  0  0  0  0  0  0  0
   36.0240   28.5270   38.5190 C   0  0  0  0  0  0  0  0  0  0  0  0
   37.0740   29.0160   39.4870 C   0  0  2  0  0  0  0  0  0  0  0  0
   39.2690   26.8790   38.0310 H   0  0  0  0  0  0  0  0  0  0  0  0
   38.0890   27.8590   37.0650 H   0  0  0  0  0  0  0  0  0  0  0  0
   37.3610   25.5560   37.7990 H   0  0  0  0  0  0  0  0  0  0  0  0
   37.5480   26.0970   39.5200 H   0  0  0  0  0  0  0  0  0  0  0  0
   35.2880   26.6950   37.6860 H   0  0  0  0  0  0  0  0  0  0  0  0
   35.3410   26.6980   39.4500 H   0  0  0  0  0  0  0  0  0  0  0  0
   36.3000   28.8220   37.4650 H   0  0  0  0  0  0  0  0  0  0  0  0
   35.0560   29.0020   38.6990 H   0  0  0  0  0  0  0  0  0  0  0  0
   36.8370   28.5610   40.4700 H   0  0  0  0  0  0  0  0  0  0  0  0
   41.7160   28.0560   39.5910 C   0  0  0  0  0  0  0  0  0  0  0  0
   40.4990   28.1330   40.2950 C   0  0  0  0  0  0  0  0  0  0  0  0
   40.3180   27.3450   41.4090 C   0  0  0  0  0  0  0  0  0  0  0  0
   41.3160   26.5220   41.7900 N   0  0  0  0  0  0  0  0  0  0  0  0
   42.4970   26.4420   41.1140 C   0  0  0  0  0  0  0  0  0  0  0  0
   42.6700   27.2110   40.0300 N   0  0  0  0  0  0  0  0  0  0  0  0
   41.8450   28.6780   38.7230 H   0  0  0  0  0  0  0  0  0  0  0  0
   43.2600   25.7650   41.4650 H   0  0  0  0  0  0  0  0  0  0  0  0
   39.0590   27.4310   42.1220 C   0  0  0  0  0  0  0  0  0  0  0  0
   38.1350   26.4350   42.0080 C   0  0  0  0  0  0  0  0  0  0  0  0
   36.9380   26.5320   42.6960 C   0  0  0  0  0  0  0  0  0  0  0  0
   36.6360   27.6050   43.5010 C   0  0  0  0  0  0  0  0  0  0  0  0
   37.6070   28.5980   43.5880 C   0  0  0  0  0  0  0  0  0  0  0  0
   38.7530   28.4630   42.9040 N   0  0  0  0  0  0  0  0  0  0  0  0
   38.2310   25.5560   41.4250 H   0  0  0  0  0  0  0  0  0  0  0  0
   36.1570   25.7740   42.6510 H   0  0  0  0  0  0  0  0  0  0  0  0
   35.7080   27.6830   44.0360 H   0  0  0  0  0  0  0  0  0  0  0  0
   37.4400   29.4750   44.2040 H   0  0  0  0  0  0  0  0  0  0  0  0
   37.0380   30.4850   39.6410 C   0  0  0  0  0  0  0  0  0  0  0  0
   36.8090   31.2880   40.7510 C   0  0  0  0  0  0  0  0  0  0  0  0
   36.6090   30.8960   41.7340 H   0  0  0  0  0  0  0  0  0  0  0  0
   36.8680   32.5930   40.4460 N   0  0  0  0  0  0  0  0  0  0  0  0
   36.7470   33.4360   41.0260 H   0  0  0  0  0  0  0  0  0  0  0  0
   37.1370   32.6520   39.1310 C   0  0  0  0  0  0  0  0  0  0  0  0
   37.2800   33.4580   38.4250 H   0  0  0  0  0  0  0  0  0  0  0  0
   37.2400   31.4030   38.6490 N   0  0  0  0  0  0  0  0  0  0  0  0
  1  2  2  0  0  0  0
  1 19  1  0  0  0  0
  3  8  1  0  0  0  0
  3  1  1  0  0  0  0
  4  5  1  0  0  0  0
  4  3  1  0  0  0  0
  5  6  1  0  0  0  0
  5 12  1  0  0  0  0
  6 14  1  0  0  0  0
  7  6  1  0  0  0  0
  7 16  1  0  0  0  0
  7  8  1  0  0  0  0
  8 36  1  0  0  0  0
  8 17  1  1  0  0  0
  9  4  1  0  0  0  0
 10  4  1  0  0  0  0
 11  5  1  0  0  0  0
 13  6  1  0  0  0  0
 15  7  1  0  0  0  0
 18 23  2  0  0  0  0
 18 19  1  0  0  0  0
 19 20  2  0  0  0  0
 20 21  1  0  0  0  0
 20 26  1  0  0  0  0
 22 25  1  0  0  0  0
 22 21  2  0  0  0  0
 23 22  1  0  0  0  0
 24 18  1  0  0  0  0
 26 31  1  0  0  0  0
 27 26  2  0  0  0  0
 27 28  1  0  0  0  0
 28 29  2  0  0  0  0
 29 30  1  0  0  0  0
 29 34  1  0  0  0  0
 30 35  1  0  0  0  0
 31 30  2  0  0  0  0
 32 27  1  0  0  0  0
 33 28  1  0  0  0  0
 36 37  2  0  0  0  0
 37 38  1  0  0  0  0
 39 37  1  0  0  0  0
 39 40  1  0  0  0  0
 41 39  1  0  0  0  0
 42 41  1  0  0  0  0
 43 41  2  0  0  0  0
 43 36  1  0  0  0  0
M  END
>  <minimizedAffinity>
-5.60219097

$$$$

 OpenBabel03252507213D

 43 46  0  0  1  0  0  0  0  0999 V2000
   38.8140   29.1940   39.5970 C   0  0  0  0  0  0  0  0  0  0  0  0
   38.2220   28.3170   38.9110 O   0  0  0  0  0  0  0  0  0  0  0  0
   38.3190   30.5240   39.8270 N   0  0  0  0  0  0  0  0  0  0  0  0
   38.2560   31.3200   41.0450 C   0  0  0  0  0  0  0  0  0  0  0  0
   38.8890   32.6970   40.7630 C   0  0  0  0  0  0  0  0  0  0  0  0
   38.0640   33.4250   39.7280 C   0  0  0  0  0  0  0  0  0  0  0  0
   37.1050   32.4710   39.0740 C   0  0  0  0  0  0  0  0  0  0  0  0
   37.7950   31.1950   38.6560 C   0  0  2  0  0  0  0  0  0  0  0  0
   38.9530   30.8990   41.8300 H   0  0  0  0  0  0  0  0  0  0  0  0
   37.2590   31.4300   41.4650 H   0  0  0  0  0  0  0  0  0  0  0  0
   39.0160   33.2290   41.7020 H   0  0  0  0  0  0  0  0  0  0  0  0
   39.8880   32.4960   40.2910 H   0  0  0  0  0  0  0  0  0  0  0  0
   37.4900   34.2490   40.2050 H   0  0  0  0  0  0  0  0  0  0  0  0
   38.6990   33.9280   38.9600 H   0  0  0  0  0  0  0  0  0  0  0  0
   36.2930   32.2450   39.8240 H   0  0  0  0  0  0  0  0  0  0  0  0
   36.5880   32.9440   38.2360 H   0  0  0  0  0  0  0  0  0  0  0  0
   38.6770   31.4940   38.0530 H   0  0  0  0  0  0  0  0  0  0  0  0
   41.2610   29.1920   39.5170 C   0  0  0  0  0  0  0  0  0  0  0  0
   40.0800   28.8340   40.1940 C   0  0  0  0  0  0  0  0  0  0  0  0
   40.1720   28.1600   41.3910 C   0  0  0  0  0  0  0  0  0  0  0  0
   41.3950   27.8640   41.8760 N   0  0  0  0  0  0  0  0  0  0  0  0
   42.5430   28.2080   41.2260 C   0  0  0  0  0  0  0  0  0  0  0  0
   42.4490   28.8640   40.0620 N   0  0  0  0  0  0  0  0  0  0  0  0
   41.1750   29.7200   38.5830 H   0  0  0  0  0  0  0  0  0  0  0  0
   43.4940   27.9450   41.6620 H   0  0  0  0  0  0  0  0  0  0  0  0
   38.9480   27.7930   42.0760 C   0  0  0  0  0  0  0  0  0  0  0  0
   38.4270   28.6080   43.0350 C   0  0  0  0  0  0  0  0  0  0  0  0
   37.2570   28.2440   43.6790 C   0  0  0  0  0  0  0  0  0  0  0  0
   36.5890   27.0780   43.3880 C   0  0  0  0  0  0  0  0  0  0  0  0
   37.1560   26.2760   42.4020 C   0  0  0  0  0  0  0  0  0  0  0  0
   38.2910   26.6680   41.8040 N   0  0  0  0  0  0  0  0  0  0  0  0
   38.8330   29.5300   43.3630 H   0  0  0  0  0  0  0  0  0  0  0  0
   36.7860   28.8470   44.4550 H   0  0  0  0  0  0  0  0  0  0  0  0
   35.6810   26.7920   43.8870 H   0  0  0  0  0  0  0  0  0  0  0  0
   36.6850   25.3410   42.1180 H   0  0  0  0  0  0  0  0  0  0  0  0
   36.9260   30.3520   37.8100 C   0  0  0  0  0  0  0  0  0  0  0  0
   37.0550   29.9300   36.4930 C   0  0  0  0  0  0  0  0  0  0  0  0
   37.8880   30.1940   35.8650 H   0  0  0  0  0  0  0  0  0  0  0  0
   36.0230   29.1630   36.1090 N   0  0  0  0  0  0  0  0  0  0  0  0
   35.8130   28.6980   35.2140 H   0  0  0  0  0  0  0  0  0  0  0  0
   35.2110   29.0780   37.1770 C   0  0  0  0  0  0  0  0  0  0  0  0
   34.2690   28.5850   37.3710 H   0  0  0  0  0  0  0  0  0  0  0  0
   35.7430   29.7820   38.1890 N   0  0  0  0  0  0  0  0  0  0  0  0
  1  3  1  0  0  0  0
  1 19  1  0  0  0  0
  2  1  2  0  0  0  0
  3  4  1  0  0  0  0
  4 10  1  0  0  0  0
  4  9  1  0  0  0  0
  5  4  1  0  0  0  0
  5 11  1  0  0  0  0
  6 13  1  0  0  0  0
  6  5  1  0  0  0  0
  7  6  1  0  0  0  0
  7 15  1  0  0  0  0
  8 17  1  6  0  0  0
  8  7  1  0  0  0  0
  8  3  1  0  0  0  0
 12  5  1  0  0  0  0
 14  6  1  0  0  0  0
 16  7  1  0  0  0  0
 18 23  2  0  0  0  0
 18 19  1  0  0  0  0
 19 20  2  0  0  0  0
 20 21  1  0  0  0  0
 20 26  1  0  0  0  0
 22 25  1  0  0  0  0
 22 21  2  0  0  0  0
 23 22  1  0  0  0  0
 24 18  1  0  0  0  0
 26 27  1  0  0  0  0
 27 32  1  0  0  0  0
 27 28  2  0  0  0  0
 28 33  1  0  0  0  0
 29 28  1  0  0  0  0
 29 34  1  0  0  0  0
 30 29  2  0  0  0  0
 31 26  2  0  0  0  0
 31 30  1  0  0  0  0
 35 30  1  0  0  0  0
 36 43  1  0  0  0  0
 36  8  1  0  0  0  0
 37 36  2  0  0  0  0
 38 37  1  0  0  0  0
 39 37  1  0  0  0  0
 39 41  1  0  0  0  0
 40 39  1  0  0  0  0
 41 42  1  0  0  0  0
 41 43  2  0  0  0  0
M  END
>  <minimizedAffinity>
-5.53747082

$$$$

 OpenBabel03252507213D

 43 46  0  0  1  0  0  0  0  0999 V2000
   39.4740   27.2720   40.1240 C   0  0  0  0  0  0  0  0  0  0  0  0
   39.4750   26.1090   39.6350 O   0  0  0  0  0  0  0  0  0  0  0  0
   39.0570   27.5950   41.4610 N   0  0  0  0  0  0  0  0  0  0  0  0
   39.6620   28.4620   42.4630 C   0  0  0  0  0  0  0  0  0  0  0  0
   38.5870   29.4400   42.9790 C   0  0  0  0  0  0  0  0  0  0  0  0
   37.4980   28.6630   43.6800 C   0  0  0  0  0  0  0  0  0  0  0  0
   37.6340   27.1990   43.3710 C   0  0  0  0  0  0  0  0  0  0  0  0
   37.8290   26.9620   41.8920 C   0  0  2  0  0  0  0  0  0  0  0  0
   40.4060   29.1650   41.9830 H   0  0  0  0  0  0  0  0  0  0  0  0
   40.1380   27.9380   43.2900 H   0  0  0  0  0  0  0  0  0  0  0  0
   39.0650   30.2050   43.5850 H   0  0  0  0  0  0  0  0  0  0  0  0
   38.1160   29.9010   42.0700 H   0  0  0  0  0  0  0  0  0  0  0  0
   37.5670   28.8120   44.7790 H   0  0  0  0  0  0  0  0  0  0  0  0
   36.4790   29.0260   43.4070 H   0  0  0  0  0  0  0  0  0  0  0  0
   38.5260   26.8160   43.9460 H   0  0  0  0  0  0  0  0  0  0  0  0
   36.7850   26.6320   43.7620 H   0  0  0  0  0  0  0  0  0  0  0  0
   37.0090   27.4980   41.3740 H   0  0  0  0  0  0  0  0  0  0  0  0
   41.2940   28.4260   38.9620 C   0  0  0  0  0  0  0  0  0  0  0  0
   39.9240   28.3530   39.2780 C   0  0  0  0  0  0  0  0  0  0  0  0
   39.0690   29.3060   38.7730 C   0  0  0  0  0  0  0  0  0  0  0  0
   39.5740   30.2810   37.9900 N   0  0  0  0  0  0  0  0  0  0  0  0
   40.8990   30.3570   37.6800 C   0  0  0  0  0  0  0  0  0  0  0  0
   41.7290   29.4280   38.1720 N   0  0  0  0  0  0  0  0  0  0  0  0
   41.9520   27.6730   39.3620 H   0  0  0  0  0  0  0  0  0  0  0  0
   41.2470   31.1600   37.0480 H   0  0  0  0  0  0  0  0  0  0  0  0
   37.6620   29.2230   39.1090 C   0  0  0  0  0  0  0  0  0  0  0  0
   37.1030   30.1290   39.9600 C   0  0  0  0  0  0  0  0  0  0  0  0
   35.7580   30.0360   40.2710 C   0  0  0  0  0  0  0  0  0  0  0  0
   34.9480   29.0550   39.7500 C   0  0  0  0  0  0  0  0  0  0  0  0
   35.5590   28.1520   38.8850 C   0  0  0  0  0  0  0  0  0  0  0  0
   36.8660   28.2790   38.6120 N   0  0  0  0  0  0  0  0  0  0  0  0
   37.6040   30.9320   40.4360 H   0  0  0  0  0  0  0  0  0  0  0  0
   35.2480   30.7260   40.9430 H   0  0  0  0  0  0  0  0  0  0  0  0
   33.9030   28.9800   39.9890 H   0  0  0  0  0  0  0  0  0  0  0  0
   34.9830   27.3500   38.4350 H   0  0  0  0  0  0  0  0  0  0  0  0
   37.7310   25.5290   41.5470 C   0  0  0  0  0  0  0  0  0  0  0  0
   38.4190   24.4200   42.0220 C   0  0  0  0  0  0  0  0  0  0  0  0
   39.1860   24.4770   42.7740 H   0  0  0  0  0  0  0  0  0  0  0  0
   38.0110   23.2860   41.4300 N   0  0  0  0  0  0  0  0  0  0  0  0
   38.3100   22.3080   41.5490 H   0  0  0  0  0  0  0  0  0  0  0  0
   37.0500   23.6500   40.5630 C   0  0  0  0  0  0  0  0  0  0  0  0
   36.4240   23.1140   39.8630 H   0  0  0  0  0  0  0  0  0  0  0  0
   36.8800   24.9800   40.6290 N   0  0  0  0  0  0  0  0  0  0  0  0
  1  3  1  0  0  0  0
  2  1  2  0  0  0  0
  3  8  1  0  0  0  0
  3  4  1  0  0  0  0
  4  5  1  0  0  0  0
  4 10  1  0  0  0  0
  5 11  1  0  0  0  0
  5  6  1  0  0  0  0
  6 13  1  0  0  0  0
  7  6  1  0  0  0  0
  7 16  1  0  0  0  0
  7 15  1  0  0  0  0
  8 17  1  6  0  0  0
  8  7  1  0  0  0  0
  9  4  1  0  0  0  0
 12  5  1  0  0  0  0
 14  6  1  0  0  0  0
 18 19  1  0  0  0  0
 18 24  1  0  0  0  0
 19  1  1  0  0  0  0
 20 26  1  0  0  0  0
 20 19  2  0  0  0  0
 21 20  1  0  0  0  0
 22 21  2  0  0  0  0
 22 23  1  0  0  0  0
 23 18  2  0  0  0  0
 25 22  1  0  0  0  0
 26 27  1  0  0  0  0
 27 28  2  0  0  0  0
 27 32  1  0  0  0  0
 28 33  1  0  0  0  0
 29 34  1  0  0  0  0
 29 28  1  0  0  0  0
 30 29  2  0  0  0  0
 31 30  1  0  0  0  0
 31 26  2  0  0  0  0
 35 30  1  0  0  0  0
 36  8  1  0  0  0  0
 36 37  2  0  0  0  0
 37 38  1  0  0  0  0
 39 40  1  0  0  0  0
 39 37  1  0  0  0  0
 41 43  2  0  0  0  0
 41 39  1  0  0  0  0
 42 41  1  0  0  0  0
 43 36  1  0  0  0  0
M  END
>  <minimizedAffinity>
-5.50064754

$$$$

 OpenBabel03252507213D

 43 46  0  0  1  0  0  0  0  0999 V2000
   37.9720   29.8690   39.4670 C   0  0  0  0  0  0  0  0  0  0  0  0
   37.4010   30.6770   40.2490 O   0  0  0  0  0  0  0  0  0  0  0  0
   39.3450   29.9640   39.0530 N   0  0  0  0  0  0  0  0  0  0  0  0
   40.3800   28.9450   38.9480 C   0  0  0  0  0  0  0  0  0  0  0  0
   41.0100   29.0300   37.5430 C   0  0  0  0  0  0  0  0  0  0  0  0
   41.6990   30.3650   37.3820 C   0  0  0  0  0  0  0  0  0  0  0  0
   41.2800   31.2930   38.4870 C   0  0  0  0  0  0  0  0  0  0  0  0
   39.7820   31.2910   38.6720 C   0  0  2  0  0  0  0  0  0  0  0  0
   39.9210   27.9120   38.9350 H   0  0  0  0  0  0  0  0  0  0  0  0
   41.1460   28.9930   39.7190 H   0  0  0  0  0  0  0  0  0  0  0  0
   41.6490   28.1650   37.3870 H   0  0  0  0  0  0  0  0  0  0  0  0
   40.1570   29.0210   36.8120 H   0  0  0  0  0  0  0  0  0  0  0  0
   42.8030   30.2330   37.4160 H   0  0  0  0  0  0  0  0  0  0  0  0
   41.4970   30.8270   36.3870 H   0  0  0  0  0  0  0  0  0  0  0  0
   41.7880   30.9410   39.4320 H   0  0  0  0  0  0  0  0  0  0  0  0
   41.6660   32.3020   38.3220 H   0  0  0  0  0  0  0  0  0  0  0  0
   39.3380   31.4850   37.6740 H   0  0  0  0  0  0  0  0  0  0  0  0
   36.7100   28.8560   37.6290 C   0  0  0  0  0  0  0  0  0  0  0  0
   37.1870   28.7710   38.9510 C   0  0  0  0  0  0  0  0  0  0  0  0
   36.8920   27.6530   39.6990 C   0  0  0  0  0  0  0  0  0  0  0  0
   36.1540   26.6740   39.1380 N   0  0  0  0  0  0  0  0  0  0  0  0
   35.6880   26.7500   37.8590 C   0  0  0  0  0  0  0  0  0  0  0  0
   35.9770   27.8390   37.1340 N   0  0  0  0  0  0  0  0  0  0  0  0
   36.9480   29.7350   37.0550 H   0  0  0  0  0  0  0  0  0  0  0  0
   35.1020   25.9360   37.4630 H   0  0  0  0  0  0  0  0  0  0  0  0
   37.3850   27.5800   41.0590 C   0  0  0  0  0  0  0  0  0  0  0  0
   36.5970   27.9740   42.0990 C   0  0  0  0  0  0  0  0  0  0  0  0
   37.0820   27.8960   43.3920 C   0  0  0  0  0  0  0  0  0  0  0  0
   38.3440   27.4320   43.6790 C   0  0  0  0  0  0  0  0  0  0  0  0
   39.1150   27.0400   42.5880 C   0  0  0  0  0  0  0  0  0  0  0  0
   38.6040   27.1320   41.3510 N   0  0  0  0  0  0  0  0  0  0  0  0
   35.6100   28.3530   42.0280 H   0  0  0  0  0  0  0  0  0  0  0  0
   36.5070   28.1940   44.2690 H   0  0  0  0  0  0  0  0  0  0  0  0
   38.7240   27.3710   44.6820 H   0  0  0  0  0  0  0  0  0  0  0  0
   40.1210   26.6620   42.7360 H   0  0  0  0  0  0  0  0  0  0  0  0
   39.3390   32.3620   39.5870 C   0  0  0  0  0  0  0  0  0  0  0  0
   39.6810   32.6480   40.9030 C   0  0  0  0  0  0  0  0  0  0  0  0
   40.3810   32.0610   41.4730 H   0  0  0  0  0  0  0  0  0  0  0  0
   39.0360   33.7300   41.3650 N   0  0  0  0  0  0  0  0  0  0  0  0
   39.0620   34.2010   42.2800 H   0  0  0  0  0  0  0  0  0  0  0  0
   38.2670   34.1610   40.3500 C   0  0  0  0  0  0  0  0  0  0  0  0
   37.5750   34.9820   40.2240 H   0  0  0  0  0  0  0  0  0  0  0  0
   38.4440   33.3520   39.2930 N   0  0  0  0  0  0  0  0  0  0  0  0
  1  2  2  0  0  0  0
  3  1  1  0  0  0  0
  4  3  1  0  0  0  0
  4 10  1  0  0  0  0
  5  4  1  0  0  0  0
  6 13  1  0  0  0  0
  6  5  1  0  0  0  0
  6  7  1  0  0  0  0
  7  8  1  0  0  0  0
  7 15  1  0  0  0  0
  8 17  1  6  0  0  0
  8  3  1  0  0  0  0
  8 36  1  0  0  0  0
  9  4  1  0  0  0  0
 11  5  1  0  0  0  0
 12  5  1  0  0  0  0
 14  6  1  0  0  0  0
 16  7  1  0  0  0  0
 18 19  1  0  0  0  0
 19  1  1  0  0  0  0
 19 20  2  0  0  0  0
 20 26  1  0  0  0  0
 21 20  1  0  0  0  0
 22 21  2  0  0  0  0
 23 18  2  0  0  0  0
 23 22  1  0  0  0  0
 24 18  1  0  0  0  0
 25 22  1  0  0  0  0
 26 31  2  0  0  0  0
 26 27  1  0  0  0  0
 27 28  2  0  0  0  0
 28 29  1  0  0  0  0
 28 33  1  0  0  0  0
 29 34  1  0  0  0  0
 30 35  1  0  0  0  0
 30 29  2  0  0  0  0
 31 30  1  0  0  0  0
 32 27  1  0  0  0  0
 36 37  2  0  0  0  0
 37 39  1  0  0  0  0
 37 38  1  0  0  0  0
 39 40  1  0  0  0  0
 41 39  1  0  0  0  0
 42 41  1  0  0  0  0
 43 36  1  0  0  0  0
 43 41  2  0  0  0  0
M  END
>  <minimizedAffinity>
-5.45514297

$$$$

 OpenBabel03252507213D

 43 46  0  0  1  0  0  0  0  0999 V2000
   39.4050   28.7710   39.3680 C   0  0  0  0  0  0  0  0  0  0  0  0
   40.3290   29.6110   39.5450 O   0  0  0  0  0  0  0  0  0  0  0  0
   38.0130   29.1040   39.2310 N   0  0  0  0  0  0  0  0  0  0  0  0
   37.0080   28.6260   38.2920 C   0  0  0  0  0  0  0  0  0  0  0  0
   35.7740   28.1610   39.0910 C   0  0  0  0  0  0  0  0  0  0  0  0
   35.1670   29.3440   39.8090 C   0  0  0  0  0  0  0  0  0  0  0  0
   36.1240   30.5020   39.7870 C   0  0  0  0  0  0  0  0  0  0  0  0
   37.5170   30.0740   40.1840 C   0  0  2  0  0  0  0  0  0  0  0  0
   37.3460   27.6630   37.8050 H   0  0  0  0  0  0  0  0  0  0  0  0
   36.7250   29.3420   37.5250 H   0  0  0  0  0  0  0  0  0  0  0  0
   35.0960   27.6350   38.4230 H   0  0  0  0  0  0  0  0  0  0  0  0
   36.1540   27.4660   39.8860 H   0  0  0  0  0  0  0  0  0  0  0  0
   34.2180   29.6460   39.3150 H   0  0  0  0  0  0  0  0  0  0  0  0
   34.8770   29.0970   40.8570 H   0  0  0  0  0  0  0  0  0  0  0  0
   36.1290   30.9130   38.7360 H   0  0  0  0  0  0  0  0  0  0  0  0
   35.7620   31.3250   40.4080 H   0  0  0  0  0  0  0  0  0  0  0  0
   37.4210   29.5360   41.1490 H   0  0  0  0  0  0  0  0  0  0  0  0
   40.4860   26.9310   38.1690 C   0  0  0  0  0  0  0  0  0  0  0  0
   39.7750   27.3770   39.2990 C   0  0  0  0  0  0  0  0  0  0  0  0
   39.4600   26.4750   40.2910 C   0  0  0  0  0  0  0  0  0  0  0  0
   39.8450   25.1910   40.1450 N   0  0  0  0  0  0  0  0  0  0  0  0
   40.5330   24.7520   39.0530 C   0  0  0  0  0  0  0  0  0  0  0  0
   40.8380   25.6320   38.0910 N   0  0  0  0  0  0  0  0  0  0  0  0
   40.7260   27.6460   37.4010 H   0  0  0  0  0  0  0  0  0  0  0  0
   40.8150   23.7130   38.9910 H   0  0  0  0  0  0  0  0  0  0  0  0
   38.7240   26.9450   41.4470 C   0  0  0  0  0  0  0  0  0  0  0  0
   37.4520   26.5120   41.6750 C   0  0  0  0  0  0  0  0  0  0  0  0
   36.7630   26.9700   42.7840 C   0  0  0  0  0  0  0  0  0  0  0  0
   37.3130   27.8560   43.6800 C   0  0  0  0  0  0  0  0  0  0  0  0
   38.6140   28.2720   43.4090 C   0  0  0  0  0  0  0  0  0  0  0  0
   39.2450   27.8020   42.3220 N   0  0  0  0  0  0  0  0  0  0  0  0
   36.9030   25.8350   41.0720 H   0  0  0  0  0  0  0  0  0  0  0  0
   35.7450   26.6650   43.0270 H   0  0  0  0  0  0  0  0  0  0  0  0
   36.7810   28.2130   44.5410 H   0  0  0  0  0  0  0  0  0  0  0  0
   39.1150   28.9700   44.0700 H   0  0  0  0  0  0  0  0  0  0  0  0
   38.4090   31.2330   40.3920 C   0  0  0  0  0  0  0  0  0  0  0  0
   39.1800   31.6160   41.4830 C   0  0  0  0  0  0  0  0  0  0  0  0
   39.2230   31.0570   42.4020 H   0  0  0  0  0  0  0  0  0  0  0  0
   39.8510   32.7530   41.2480 N   0  0  0  0  0  0  0  0  0  0  0  0
   40.4990   33.2980   41.8350 H   0  0  0  0  0  0  0  0  0  0  0  0
   39.5230   33.1220   39.9970 C   0  0  0  0  0  0  0  0  0  0  0  0
   39.7960   33.9500   39.3590 H   0  0  0  0  0  0  0  0  0  0  0  0
   38.6680   32.2220   39.4850 N   0  0  0  0  0  0  0  0  0  0  0  0
  1  2  2  0  0  0  0
  3  1  1  0  0  0  0
  3  8  1  0  0  0  0
  4  5  1  0  0  0  0
  4  3  1  0  0  0  0
  5  6  1  0  0  0  0
  5 12  1  0  0  0  0
  6 14  1  0  0  0  0
  7  6  1  0  0  0  0
  7  8  1  0  0  0  0
  7 16  1  0  0  0  0
  8 36  1  0  0  0  0
  8 17  1  1  0  0  0
  9  4  1  0  0  0  0
 10  4  1  0  0  0  0
 11  5  1  0  0  0  0
 13  6  1  0  0  0  0
 15  7  1  0  0  0  0
 18 19  1  0  0  0  0
 19  1  1  0  0  0  0
 19 20  2  0  0  0  0
 20 26  1  0  0  0  0
 21 20  1  0  0  0  0
 22 21  2  0  0  0  0
 23 18  2  0  0  0  0
 23 22  1  0  0  0  0
 24 18  1  0  0  0  0
 25 22  1  0  0  0  0
 26 27  2  0  0  0  0
 26 31  1  0  0  0  0
 27 28  1  0  0  0  0
 28 33  1  0  0  0  0
 28 29  2  0  0  0  0
 29 34  1  0  0  0  0
 30 29  1  0  0  0  0
 30 35  1  0  0  0  0
 31 30  2  0  0  0  0
 32 27  1  0  0  0  0
 36 37  2  0  0  0  0
 37 38  1  0  0  0  0
 39 37  1  0  0  0  0
 39 40  1  0  0  0  0
 41 39  1  0  0  0  0
 42 41  1  0  0  0  0
 43 41  2  0  0  0  0
 43 36  1  0  0  0  0
M  END
>  <minimizedAffinity>
-5.36002254

$$$$

 OpenBabel03252507213D

 43 46  0  0  1  0  0  0  0  0999 V2000
   37.5340   26.8310   40.1860 C   0  0  0  0  0  0  0  0  0  0  0  0
   37.1650   27.4770   41.2040 O   0  0  0  0  0  0  0  0  0  0  0  0
   37.9150   27.4260   38.9340 N   0  0  0  0  0  0  0  0  0  0  0  0
   39.0370   27.1450   38.0490 C   0  0  0  0  0  0  0  0  0  0  0  0
   38.4940   26.9320   36.6220 C   0  0  0  0  0  0  0  0  0  0  0  0
   37.8640   28.2150   36.1290 C   0  0  0  0  0  0  0  0  0  0  0  0
   37.6740   29.1650   37.2770 C   0  0  0  0  0  0  0  0  0  0  0  0
   37.0410   28.4790   38.4640 C   0  0  2  0  0  0  0  0  0  0  0  0
   39.4820   26.1320   38.2820 H   0  0  0  0  0  0  0  0  0  0  0  0
   39.8210   27.8980   38.0570 H   0  0  0  0  0  0  0  0  0  0  0  0
   39.2900   26.5440   35.9930 H   0  0  0  0  0  0  0  0  0  0  0  0
   37.6630   26.1820   36.7070 H   0  0  0  0  0  0  0  0  0  0  0  0
   38.5140   28.6920   35.3640 H   0  0  0  0  0  0  0  0  0  0  0  0
   36.8950   28.0350   35.6070 H   0  0  0  0  0  0  0  0  0  0  0  0
   38.6930   29.5620   37.5570 H   0  0  0  0  0  0  0  0  0  0  0  0
   37.1060   30.0470   36.9690 H   0  0  0  0  0  0  0  0  0  0  0  0
   36.1270   27.9750   38.0880 H   0  0  0  0  0  0  0  0  0  0  0  0
   36.5870   24.6450   39.6190 C   0  0  0  0  0  0  0  0  0  0  0  0
   37.5760   25.3900   40.2890 C   0  0  0  0  0  0  0  0  0  0  0  0
   38.5410   24.7250   41.0110 C   0  0  0  0  0  0  0  0  0  0  0  0
   38.5060   23.3780   41.0520 N   0  0  0  0  0  0  0  0  0  0  0  0
   37.5510   22.6500   40.4060 C   0  0  0  0  0  0  0  0  0  0  0  0
   36.6140   23.3010   39.7040 N   0  0  0  0  0  0  0  0  0  0  0  0
   35.8390   25.1780   39.0570 H   0  0  0  0  0  0  0  0  0  0  0  0
   37.5740   21.5740   40.4750 H   0  0  0  0  0  0  0  0  0  0  0  0
   39.5510   25.5030   41.7000 C   0  0  0  0  0  0  0  0  0  0  0  0
   39.4340   25.7540   43.0340 C   0  0  0  0  0  0  0  0  0  0  0  0
   40.4080   26.4980   43.6770 C   0  0  0  0  0  0  0  0  0  0  0  0
   41.5050   27.0030   43.0190 C   0  0  0  0  0  0  0  0  0  0  0  0
   41.5840   26.7220   41.6580 C   0  0  0  0  0  0  0  0  0  0  0  0
   40.6180   25.9970   41.0750 N   0  0  0  0  0  0  0  0  0  0  0  0
   38.6460   25.4330   43.6650 H   0  0  0  0  0  0  0  0  0  0  0  0
   40.3770   26.7360   44.7410 H   0  0  0  0  0  0  0  0  0  0  0  0
   42.2620   27.5810   43.5150 H   0  0  0  0  0  0  0  0  0  0  0  0
   42.4210   27.0860   41.0720 H   0  0  0  0  0  0  0  0  0  0  0  0
   36.6370   29.4450   39.5060 C   0  0  0  0  0  0  0  0  0  0  0  0
   35.4220   29.6490   40.1490 C   0  0  0  0  0  0  0  0  0  0  0  0
   34.5390   29.0690   39.9430 H   0  0  0  0  0  0  0  0  0  0  0  0
   35.4910   30.6460   41.0440 N   0  0  0  0  0  0  0  0  0  0  0  0
   34.7830   31.0450   41.6780 H   0  0  0  0  0  0  0  0  0  0  0  0
   36.7550   31.1000   40.9920 C   0  0  0  0  0  0  0  0  0  0  0  0
   37.2980   31.8790   41.5090 H   0  0  0  0  0  0  0  0  0  0  0  0
   37.4390   30.3900   40.0810 N   0  0  0  0  0  0  0  0  0  0  0  0
  1 19  1  0  0  0  0
  1  2  2  0  0  0  0
  3  1  1  0  0  0  0
  4 10  1  0  0  0  0
  4  9  1  0  0  0  0
  4  3  1  0  0  0  0
  5 12  1  0  0  0  0
  5  4  1  0  0  0  0
  6  5  1  0  0  0  0
  6  7  1  0  0  0  0
  7 15  1  0  0  0  0
  7  8  1  0  0  0  0
  8 17  1  6  0  0  0
  8  3  1  0  0  0  0
  8 36  1  0  0  0  0
 11  5  1  0  0  0  0
 13  6  1  0  0  0  0
 14  6  1  0  0  0  0
 16  7  1  0  0  0  0
 18 23  2  0  0  0  0
 18 19  1  0  0  0  0
 19 20  2  0  0  0  0
 20 21  1  0  0  0  0
 20 26  1  0  0  0  0
 22 25  1  0  0  0  0
 22 21  2  0  0  0  0
 23 22  1  0  0  0  0
 24 18  1  0  0  0  0
 26 27  1  0  0  0  0
 27 32  1  0  0  0  0
 27 28  2  0  0  0  0
 28 33  1  0  0  0  0
 29 34  1  0  0  0  0
 29 28  1  0  0  0  0
 30 29  2  0  0  0  0
 31 30  1  0  0  0  0
 31 26  2  0  0  0  0
 35 30  1  0  0  0  0
 36 43  1  0  0  0  0
 36 37  2  0  0  0  0
 37 39  1  0  0  0  0
 38 37  1  0  0  0  0
 39 40  1  0  0  0  0
 41 39  1  0  0  0  0
 41 42  1  0  0  0  0
 43 41  2  0  0  0  0
M  END
>  <minimizedAffinity>
-5.35388231

$$$$

 OpenBabel03252507213D

 43 46  0  0  1  0  0  0  0  0999 V2000
   37.5560   27.0490   38.8020 C   0  0  0  0  0  0  0  0  0  0  0  0
   38.6230   26.9540   38.1380 O   0  0  0  0  0  0  0  0  0  0  0  0
   36.9310   28.2890   39.1730 N   0  0  0  0  0  0  0  0  0  0  0  0
   35.5350   28.7030   39.1250 C   0  0  0  0  0  0  0  0  0  0  0  0
   35.1430   29.2650   40.5070 C   0  0  0  0  0  0  0  0  0  0  0  0
   35.9540   30.5080   40.7900 C   0  0  0  0  0  0  0  0  0  0  0  0
   37.0910   30.6120   39.8130 C   0  0  0  0  0  0  0  0  0  0  0  0
   37.8300   29.3020   39.6840 C   0  0  2  0  0  0  0  0  0  0  0  0
   34.8570   27.8030   39.0390 H   0  0  0  0  0  0  0  0  0  0  0  0
   35.2990   29.4140   38.3370 H   0  0  0  0  0  0  0  0  0  0  0  0
   34.0670   29.4050   40.5400 H   0  0  0  0  0  0  0  0  0  0  0  0
   35.4610   28.4980   41.2620 H   0  0  0  0  0  0  0  0  0  0  0  0
   35.3130   31.4120   40.7020 H   0  0  0  0  0  0  0  0  0  0  0  0
   36.3370   30.5320   41.8370 H   0  0  0  0  0  0  0  0  0  0  0  0
   36.6500   30.9080   38.8160 H   0  0  0  0  0  0  0  0  0  0  0  0
   37.7640   31.4320   40.0760 H   0  0  0  0  0  0  0  0  0  0  0  0
   38.0960   28.9850   40.7130 H   0  0  0  0  0  0  0  0  0  0  0  0
   36.1910   25.0890   38.2630 C   0  0  0  0  0  0  0  0  0  0  0  0
   36.9180   25.8210   39.2200 C   0  0  0  0  0  0  0  0  0  0  0  0
   36.9960   25.3460   40.5100 C   0  0  0  0  0  0  0  0  0  0  0  0
   36.3710   24.1900   40.8140 N   0  0  0  0  0  0  0  0  0  0  0  0
   35.6660   23.4760   39.8920 C   0  0  0  0  0  0  0  0  0  0  0  0
   35.5920   23.9410   38.6380 N   0  0  0  0  0  0  0  0  0  0  0  0
   36.1390   25.4710   37.2580 H   0  0  0  0  0  0  0  0  0  0  0  0
   35.1860   22.5570   40.1920 H   0  0  0  0  0  0  0  0  0  0  0  0
   37.7430   26.1120   41.4870 C   0  0  0  0  0  0  0  0  0  0  0  0
   37.0900   26.8220   42.4500 C   0  0  0  0  0  0  0  0  0  0  0  0
   37.8190   27.5470   43.3760 C   0  0  0  0  0  0  0  0  0  0  0  0
   39.1930   27.5830   43.3680 C   0  0  0  0  0  0  0  0  0  0  0  0
   39.8190   26.8440   42.3690 C   0  0  0  0  0  0  0  0  0  0  0  0
   39.0740   26.1550   41.4910 N   0  0  0  0  0  0  0  0  0  0  0  0
   36.0400   26.8880   42.5760 H   0  0  0  0  0  0  0  0  0  0  0  0
   37.3620   28.1360   44.1720 H   0  0  0  0  0  0  0  0  0  0  0  0
   39.7610   28.1460   44.0850 H   0  0  0  0  0  0  0  0  0  0  0  0
   40.9010   26.8240   42.2980 H   0  0  0  0  0  0  0  0  0  0  0  0
   39.0810   29.4490   38.9120 C   0  0  0  0  0  0  0  0  0  0  0  0
   39.3180   29.9210   37.6270 C   0  0  0  0  0  0  0  0  0  0  0  0
   38.5390   30.2700   36.9720 H   0  0  0  0  0  0  0  0  0  0  0  0
   40.6220   29.8850   37.3130 N   0  0  0  0  0  0  0  0  0  0  0  0
   41.1260   30.1570   36.4570 H   0  0  0  0  0  0  0  0  0  0  0  0
   41.2470   29.3880   38.3950 C   0  0  0  0  0  0  0  0  0  0  0  0
   42.2780   29.1700   38.6360 H   0  0  0  0  0  0  0  0  0  0  0  0
   40.3360   29.1290   39.3460 N   0  0  0  0  0  0  0  0  0  0  0  0
  1  3  1  0  0  0  0
  1 19  1  0  0  0  0
  2  1  2  0  0  0  0
  3  8  1  0  0  0  0
  4  3  1  0  0  0  0
  4  5  1  0  0  0  0
  5 11  1  0  0  0  0
  5  6  1  0  0  0  0
  5 12  1  0  0  0  0
  6 14  1  0  0  0  0
  7 16  1  0  0  0  0
  7  6  1  0  0  0  0
  8  7  1  0  0  0  0
  8 17  1  1  0  0  0
  9  4  1  0  0  0  0
 10  4  1  0  0  0  0
 13  6  1  0  0  0  0
 15  7  1  0  0  0  0
 18 23  2  0  0  0  0
 18 19  1  0  0  0  0
 19 20  2  0  0  0  0
 20 21  1  0  0  0  0
 20 26  1  0  0  0  0
 22 25  1  0  0  0  0
 22 21  2  0  0  0  0
 23 22  1  0  0  0  0
 24 18  1  0  0  0  0
 26 31  2  0  0  0  0
 26 27  1  0  0  0  0
 27 32  1  0  0  0  0
 27 28  2  0  0  0  0
 28 33  1  0  0  0  0
 29 28  1  0  0  0  0
 29 34  1  0  0  0  0
 30 29  2  0  0  0  0
 31 30  1  0  0  0  0
 35 30  1  0  0  0  0
 36 43  1  0  0  0  0
 36  8  1  0  0  0  0
 37 36  2  0  0  0  0
 38 37  1  0  0  0  0
 39 37  1  0  0  0  0
 39 41  1  0  0  0  0
 40 39  1  0  0  0  0
 41 42  1  0  0  0  0
 41 43  2  0  0  0  0
M  END
>  <minimizedAffinity>
-5.34137344

$$$$
