
 OpenBabel03252507573D

 26 28  0  0  1  0  0  0  0  0999 V2000
   46.5870   32.4870   46.1850 C   0  0  1  0  0  0  0  0  0  0  0  0
   47.0130   32.7680   47.5890 C   0  0  0  0  0  0  0  0  0  0  0  0
   45.6730   32.1740   47.3320 C   0  0  2  0  0  0  0  0  0  0  0  0
   47.1820   31.6930   45.7200 H   0  0  0  0  0  0  0  0  0  0  0  0
   47.0860   33.8560   47.8330 H   0  0  0  0  0  0  0  0  0  0  0  0
   47.8430   32.1950   48.0410 H   0  0  0  0  0  0  0  0  0  0  0  0
   44.8130   32.8420   47.5460 H   0  0  0  0  0  0  0  0  0  0  0  0
   46.1920   34.7720   43.3360 C   0  0  0  0  0  0  0  0  0  0  0  0
   45.1710   35.6570   43.7570 C   0  0  0  0  0  0  0  0  0  0  0  0
   44.6260   35.4460   45.0400 C   0  0  0  0  0  0  0  0  0  0  0  0
   45.1120   34.4130   45.7850 N   0  0  0  0  0  0  0  0  0  0  0  0
   46.0970   33.6010   45.3090 C   0  0  0  0  0  0  0  0  0  0  0  0
   46.6420   33.7560   44.1170 N   0  0  0  0  0  0  0  0  0  0  0  0
   44.8160   36.4520   43.1500 H   0  0  0  0  0  0  0  0  0  0  0  0
   43.8440   36.0920   45.4120 H   0  0  0  0  0  0  0  0  0  0  0  0
   46.7040   35.0440   42.0270 C   0  0  0  0  0  0  0  0  0  0  0  0
   47.9070   35.3580   41.7700 O   0  0  0  0  0  0  0  0  0  0  0  0
   45.8470   34.9190   41.3690 H   0  0  0  0  0  0  0  0  0  0  0  0
   45.4120   30.7560   47.6870 C   0  0  0  0  0  0  0  0  0  0  0  0
   45.2750   30.3090   49.0030 C   0  0  0  0  0  0  0  0  0  0  0  0
   45.3300   30.8790   49.9340 H   0  0  0  0  0  0  0  0  0  0  0  0
   45.0490   28.9710   48.9260 N   0  0  0  0  0  0  0  0  0  0  0  0
   44.9050   28.3750   49.7940 H   0  0  0  0  0  0  0  0  0  0  0  0
   45.0410   28.5810   47.6260 C   0  0  0  0  0  0  0  0  0  0  0  0
   44.8800   27.5560   47.2830 H   0  0  0  0  0  0  0  0  0  0  0  0
   45.2670   29.6920   46.8710 N   0  0  0  0  0  0  0  0  0  0  0  0
  1  4  1  6  0  0  0
  1  3  1  0  0  0  0
  1  2  1  0  0  0  0
  2  5  1  0  0  0  0
  2  6  1  0  0  0  0
  3  7  1  1  0  0  0
  3  2  1  0  0  0  0
  3 19  1  0  0  0  0
  8  9  2  0  0  0  0
  8 13  1  0  0  0  0
  9 10  1  0  0  0  0
 10 15  1  0  0  0  0
 10 11  2  0  0  0  0
 12 11  1  0  0  0  0
 12  1  1  0  0  0  0
 13 12  2  0  0  0  0
 14  9  1  0  0  0  0
 16  8  1  0  0  0  0
 17 16  2  0  0  0  0
 18 16  1  0  0  0  0
 19 20  2  0  0  0  0
 20 21  1  0  0  0  0
 22 20  1  0  0  0  0
 22 23  1  0  0  0  0
 24 22  1  0  0  0  0
 25 24  1  0  0  0  0
 26 24  2  0  0  0  0
 26 19  1  0  0  0  0
M  END
>  <minimizedAffinity>
-4.89171696

>  <minimizedRMSD>
0.865689754

$$$$
