
 OpenBabel03252503563D

 19 20  0  0  0  0  0  0  0  0999 V2000
   46.1760   34.7980   43.3000 C   0  0  0  0  0  0  0  0  0  0  0  0
   45.2570   35.8540   43.3280 C   0  0  0  0  0  0  0  0  0  0  0  0
   44.4920   36.0110   44.4840 C   0  0  0  0  0  0  0  0  0  0  0  0
   44.6810   35.1380   45.5070 N   0  0  0  0  0  0  0  0  0  0  0  0
   45.5760   34.1380   45.4340 C   0  0  0  0  0  0  0  0  0  0  0  0
   46.3290   33.9560   44.3390 N   0  0  0  0  0  0  0  0  0  0  0  0
   45.1390   36.5320   42.4830 H   0  0  0  0  0  0  0  0  0  0  0  0
   43.7660   36.8130   44.5580 H   0  0  0  0  0  0  0  0  0  0  0  0
   45.7940   33.1890   46.5220 C   0  0  0  0  0  0  0  0  0  0  0  0
   46.9070   32.3820   46.4010 C   0  0  0  0  0  0  0  0  0  0  0  0
   47.7010   32.2670   45.6670 H   0  0  0  0  0  0  0  0  0  0  0  0
   46.9460   31.5740   47.4940 N   0  0  0  0  0  0  0  0  0  0  0  0
   47.6300   30.8160   47.7850 H   0  0  0  0  0  0  0  0  0  0  0  0
   45.8770   31.8710   48.2810 C   0  0  0  0  0  0  0  0  0  0  0  0
   45.6250   31.4030   49.2230 H   0  0  0  0  0  0  0  0  0  0  0  0
   45.1660   32.8700   47.6800 N   0  0  0  0  0  0  0  0  0  0  0  0
   46.9370   34.6860   42.0810 C   0  0  0  0  0  0  0  0  0  0  0  0
   47.9620   35.3450   41.7740 O   0  0  0  0  0  0  0  0  0  0  0  0
   46.5460   33.9430   41.3910 H   0  0  0  0  0  0  0  0  0  0  0  0
  1  2  2  0  0  0  0
  1  6  1  0  0  0  0
  2  3  1  0  0  0  0
  3  8  1  0  0  0  0
  3  4  2  0  0  0  0
  5  4  1  0  0  0  0
  5  9  1  0  0  0  0
  6  5  2  0  0  0  0
  7  2  1  0  0  0  0
  9 16  1  0  0  0  0
 10  9  2  0  0  0  0
 10 12  1  0  0  0  0
 11 10  1  0  0  0  0
 12 13  1  0  0  0  0
 12 14  1  0  0  0  0
 14 15  1  0  0  0  0
 16 14  2  0  0  0  0
 17  1  1  0  0  0  0
 18 17  2  0  0  0  0
 19 17  1  0  0  0  0
M  END
>  <minimizedAffinity>
-4.35935497

>  <minimizedRMSD>
0.236083567

$$$$
