
 OpenBabel03252509233D

 26 28  0  0  1  0  0  0  0  0999 V2000
   46.5340   34.9800   41.9370 C   0  0  1  0  0  0  0  0  0  0  0  0
   48.0550   35.2820   41.9170 C   0  0  0  0  0  0  0  0  0  0  0  0
   47.3750   33.9900   41.3710 C   0  0  2  0  0  0  0  0  0  0  0  0
   45.9320   35.7140   41.3770 H   0  0  0  0  0  0  0  0  0  0  0  0
   48.3270   36.0340   41.1820 H   0  0  0  0  0  0  0  0  0  0  0  0
   48.6350   35.1850   42.8320 H   0  0  0  0  0  0  0  0  0  0  0  0
   47.6650   33.0820   41.9360 H   0  0  0  0  0  0  0  0  0  0  0  0
   44.6680   35.4290   45.1490 C   0  0  0  0  0  0  0  0  0  0  0  0
   45.1200   35.6930   43.8310 C   0  0  0  0  0  0  0  0  0  0  0  0
   46.0580   34.8060   43.3690 C   0  0  0  0  0  0  0  0  0  0  0  0
   46.5200   33.7490   44.1280 N   0  0  0  0  0  0  0  0  0  0  0  0
   46.0550   33.5490   45.3690 C   0  0  0  0  0  0  0  0  0  0  0  0
   45.1270   34.3840   45.8910 N   0  0  0  0  0  0  0  0  0  0  0  0
   43.9360   36.0720   45.5860 H   0  0  0  0  0  0  0  0  0  0  0  0
   46.3920   32.7340   45.9930 H   0  0  0  0  0  0  0  0  0  0  0  0
   44.6500   36.7930   43.0760 N   0  0  0  0  0  0  0  0  0  0  0  0
   44.2030   36.8530   42.1490 H   0  0  0  0  0  0  0  0  0  0  0  0
   44.8430   37.6360   43.6600 H   0  0  0  0  0  0  0  0  0  0  0  0
   47.3840   33.8650   39.8690 C   0  0  0  0  0  0  0  0  0  0  0  0
   48.2910   34.3580   38.9480 C   0  0  0  0  0  0  0  0  0  0  0  0
   49.1660   34.9340   39.2090 H   0  0  0  0  0  0  0  0  0  0  0  0
   47.8530   33.9750   37.7240 N   0  0  0  0  0  0  0  0  0  0  0  0
   48.3240   34.1940   36.8230 H   0  0  0  0  0  0  0  0  0  0  0  0
   46.6990   33.2550   37.8440 C   0  0  0  0  0  0  0  0  0  0  0  0
   46.1020   32.8100   37.0560 H   0  0  0  0  0  0  0  0  0  0  0  0
   46.4420   33.2080   39.1670 N   0  0  0  0  0  0  0  0  0  0  0  0
  1  4  1  6  0  0  0
  1 10  1  0  0  0  0
  2  1  1  0  0  0  0
  2  6  1  0  0  0  0
  3  2  1  0  0  0  0
  3  7  1  1  0  0  0
  3  1  1  0  0  0  0
  5  2  1  0  0  0  0
  8 14  1  0  0  0  0
  8 13  1  0  0  0  0
  9  8  2  0  0  0  0
 10  9  1  0  0  0  0
 10 11  2  0  0  0  0
 11 12  1  0  0  0  0
 12 13  2  0  0  0  0
 12 15  1  0  0  0  0
 16 18  1  0  0  0  0
 16  9  1  0  0  0  0
 17 16  1  0  0  0  0
 19  3  1  0  0  0  0
 20 21  1  0  0  0  0
 20 19  2  0  0  0  0
 22 24  1  0  0  0  0
 22 20  1  0  0  0  0
 23 22  1  0  0  0  0
 24 26  2  0  0  0  0
 25 24  1  0  0  0  0
 26 19  1  0  0  0  0
M  END
>  <minimizedAffinity>
-4.84875584

>  <minimizedRMSD>
0.0583479926

$$$$
