
 OpenBabel03252509233D

 26 28  0  0  1  0  0  0  0  0999 V2000
   46.4700   34.9750   41.9190 C   0  0  1  0  0  0  0  0  0  0  0  0
   47.9980   35.2330   41.8690 C   0  0  0  0  0  0  0  0  0  0  0  0
   47.2690   33.9670   41.3240 C   0  0  2  0  0  0  0  0  0  0  0  0
   45.8770   35.7320   41.3800 H   0  0  0  0  0  0  0  0  0  0  0  0
   48.2760   35.9850   41.1360 H   0  0  0  0  0  0  0  0  0  0  0  0
   48.5940   35.1100   42.7700 H   0  0  0  0  0  0  0  0  0  0  0  0
   47.5450   33.0450   41.8730 H   0  0  0  0  0  0  0  0  0  0  0  0
   44.6700   35.4270   45.1680 C   0  0  0  0  0  0  0  0  0  0  0  0
   45.0990   35.6930   43.8430 C   0  0  0  0  0  0  0  0  0  0  0  0
   46.0190   34.7990   43.3590 C   0  0  0  0  0  0  0  0  0  0  0  0
   46.4860   33.7340   44.1040 N   0  0  0  0  0  0  0  0  0  0  0  0
   46.0430   33.5330   45.3540 C   0  0  0  0  0  0  0  0  0  0  0  0
   45.1330   34.3740   45.8960 N   0  0  0  0  0  0  0  0  0  0  0  0
   43.9530   36.0750   45.6220 H   0  0  0  0  0  0  0  0  0  0  0  0
   46.3840   32.7120   45.9670 H   0  0  0  0  0  0  0  0  0  0  0  0
   44.6250   36.8000   43.1020 N   0  0  0  0  0  0  0  0  0  0  0  0
   44.1610   36.8690   42.1840 H   0  0  0  0  0  0  0  0  0  0  0  0
   44.8370   37.6390   43.6860 H   0  0  0  0  0  0  0  0  0  0  0  0
   47.2420   33.8580   39.8210 C   0  0  0  0  0  0  0  0  0  0  0  0
   48.1470   34.3300   38.8860 C   0  0  0  0  0  0  0  0  0  0  0  0
   49.0470   34.8720   39.1350 H   0  0  0  0  0  0  0  0  0  0  0  0
   47.6700   33.9770   37.6690 N   0  0  0  0  0  0  0  0  0  0  0  0
   48.1300   34.1880   36.7590 H   0  0  0  0  0  0  0  0  0  0  0  0
   46.4930   33.2960   37.8050 C   0  0  0  0  0  0  0  0  0  0  0  0
   45.8650   32.8810   37.0250 H   0  0  0  0  0  0  0  0  0  0  0  0
   46.2630   33.2440   39.1330 N   0  0  0  0  0  0  0  0  0  0  0  0
  1  4  1  6  0  0  0
  1 10  1  0  0  0  0
  2  1  1  0  0  0  0
  2  6  1  0  0  0  0
  3  2  1  0  0  0  0
  3  7  1  1  0  0  0
  3  1  1  0  0  0  0
  5  2  1  0  0  0  0
  8 14  1  0  0  0  0
  8 13  1  0  0  0  0
  9  8  2  0  0  0  0
 10  9  1  0  0  0  0
 10 11  2  0  0  0  0
 11 12  1  0  0  0  0
 12 13  2  0  0  0  0
 12 15  1  0  0  0  0
 16 18  1  0  0  0  0
 16  9  1  0  0  0  0
 17 16  1  0  0  0  0
 19  3  1  0  0  0  0
 20 21  1  0  0  0  0
 20 19  2  0  0  0  0
 22 24  1  0  0  0  0
 22 20  1  0  0  0  0
 23 22  1  0  0  0  0
 24 26  2  0  0  0  0
 25 24  1  0  0  0  0
 26 19  1  0  0  0  0
M  END
>  <minimizedAffinity>
-4.94130945

>  <minimizedRMSD>
0.185645968

$$$$
