
 OpenBabel03252503583D

 19 20  0  0  0  0  0  0  0  0999 V2000
   37.1620   27.0310   41.3080 C   0  0  0  0  0  0  0  0  0  0  0  0
   37.2060   26.6720   42.6610 C   0  0  0  0  0  0  0  0  0  0  0  0
   37.4130   27.6920   43.5900 C   0  0  0  0  0  0  0  0  0  0  0  0
   37.5580   28.9620   43.1340 N   0  0  0  0  0  0  0  0  0  0  0  0
   37.5090   29.2580   41.8230 C   0  0  0  0  0  0  0  0  0  0  0  0
   37.3110   28.3050   40.9010 N   0  0  0  0  0  0  0  0  0  0  0  0
   37.0840   25.6380   42.9830 H   0  0  0  0  0  0  0  0  0  0  0  0
   37.4550   27.4680   44.6510 H   0  0  0  0  0  0  0  0  0  0  0  0
   37.6620   30.6170   41.3130 C   0  0  0  0  0  0  0  0  0  0  0  0
   36.5210   31.1980   40.7990 C   0  0  0  0  0  0  0  0  0  0  0  0
   35.4870   30.8870   40.6720 H   0  0  0  0  0  0  0  0  0  0  0  0
   36.8530   32.4480   40.3760 N   0  0  0  0  0  0  0  0  0  0  0  0
   36.2750   33.2140   39.9240 H   0  0  0  0  0  0  0  0  0  0  0  0
   38.1770   32.6410   40.6220 C   0  0  0  0  0  0  0  0  0  0  0  0
   38.7450   33.5330   40.4000 H   0  0  0  0  0  0  0  0  0  0  0  0
   38.6760   31.5100   41.2000 N   0  0  0  0  0  0  0  0  0  0  0  0
   36.9460   25.9360   40.3950 C   0  0  0  0  0  0  0  0  0  0  0  0
   36.6530   24.7520   40.7000 O   0  0  0  0  0  0  0  0  0  0  0  0
   37.0580   26.2130   39.3500 H   0  0  0  0  0  0  0  0  0  0  0  0
  1  2  1  0  0  0  0
  2  7  1  0  0  0  0
  2  3  2  0  0  0  0
  3  8  1  0  0  0  0
  4  3  1  0  0  0  0
  5  4  2  0  0  0  0
  6  1  2  0  0  0  0
  6  5  1  0  0  0  0
  9  5  1  0  0  0  0
 10  9  2  0  0  0  0
 11 10  1  0  0  0  0
 12 14  1  0  0  0  0
 12 10  1  0  0  0  0
 13 12  1  0  0  0  0
 14 16  2  0  0  0  0
 15 14  1  0  0  0  0
 16  9  1  0  0  0  0
 17 18  2  0  0  0  0
 17  1  1  0  0  0  0
 19 17  1  0  0  0  0
M  END
>  <minimizedAffinity>
-4.16279745

$$$$

 OpenBabel03252503583D

 19 20  0  0  0  0  0  0  0  0999 V2000
   37.3370   28.9830   42.3540 C   0  0  0  0  0  0  0  0  0  0  0  0
   36.2800   28.3290   41.7090 C   0  0  0  0  0  0  0  0  0  0  0  0
   35.6830   28.9820   40.6300 C   0  0  0  0  0  0  0  0  0  0  0  0
   36.1560   30.2030   40.2710 N   0  0  0  0  0  0  0  0  0  0  0  0
   37.1740   30.7920   40.9220 C   0  0  0  0  0  0  0  0  0  0  0  0
   37.7730   30.1950   41.9630 N   0  0  0  0  0  0  0  0  0  0  0  0
   35.9330   27.3480   42.0300 H   0  0  0  0  0  0  0  0  0  0  0  0
   34.8600   28.5200   40.0950 H   0  0  0  0  0  0  0  0  0  0  0  0
   37.6970   32.1030   40.5520 C   0  0  0  0  0  0  0  0  0  0  0  0
   37.0940   32.7070   39.4680 C   0  0  0  0  0  0  0  0  0  0  0  0
   36.2890   32.4410   38.7860 H   0  0  0  0  0  0  0  0  0  0  0  0
   37.7060   33.9060   39.2740 N   0  0  0  0  0  0  0  0  0  0  0  0
   37.5460   34.6690   38.5540 H   0  0  0  0  0  0  0  0  0  0  0  0
   38.6720   34.0470   40.2200 C   0  0  0  0  0  0  0  0  0  0  0  0
   39.3370   34.8920   40.3350 H   0  0  0  0  0  0  0  0  0  0  0  0
   38.6660   32.9340   41.0090 N   0  0  0  0  0  0  0  0  0  0  0  0
   37.9150   28.2610   43.4600 C   0  0  0  0  0  0  0  0  0  0  0  0
   38.8720   27.4470   43.4060 O   0  0  0  0  0  0  0  0  0  0  0  0
   37.4420   28.4760   44.4140 H   0  0  0  0  0  0  0  0  0  0  0  0
  1 17  1  0  0  0  0
  2  7  1  0  0  0  0
  2  1  2  0  0  0  0
  3  2  1  0  0  0  0
  4  3  2  0  0  0  0
  4  5  1  0  0  0  0
  5  6  2  0  0  0  0
  6  1  1  0  0  0  0
  8  3  1  0  0  0  0
  9  5  1  0  0  0  0
  9 16  1  0  0  0  0
 10  9  2  0  0  0  0
 11 10  1  0  0  0  0
 12 10  1  0  0  0  0
 12 14  1  0  0  0  0
 13 12  1  0  0  0  0
 14 15  1  0  0  0  0
 14 16  2  0  0  0  0
 17 19  1  0  0  0  0
 18 17  2  0  0  0  0
M  END
>  <minimizedAffinity>
-4.16060638

$$$$

 OpenBabel03252503583D

 19 20  0  0  0  0  0  0  0  0999 V2000
   38.0300   28.6700   42.8460 C   0  0  0  0  0  0  0  0  0  0  0  0
   39.3420   28.2260   43.0540 C   0  0  0  0  0  0  0  0  0  0  0  0
   40.3760   29.0240   42.5630 C   0  0  0  0  0  0  0  0  0  0  0  0
   40.0540   30.1750   41.9180 N   0  0  0  0  0  0  0  0  0  0  0  0
   38.7780   30.5590   41.7410 C   0  0  0  0  0  0  0  0  0  0  0  0
   37.7580   29.8180   42.1990 N   0  0  0  0  0  0  0  0  0  0  0  0
   39.5550   27.2950   43.5790 H   0  0  0  0  0  0  0  0  0  0  0  0
   41.4110   28.7270   42.6980 H   0  0  0  0  0  0  0  0  0  0  0  0
   38.4110   31.7910   41.0510 C   0  0  0  0  0  0  0  0  0  0  0  0
   37.1220   31.8440   40.5600 C   0  0  0  0  0  0  0  0  0  0  0  0
   36.2690   31.1700   40.5570 H   0  0  0  0  0  0  0  0  0  0  0  0
   36.9640   33.0530   39.9560 N   0  0  0  0  0  0  0  0  0  0  0  0
   36.1340   33.4870   39.4580 H   0  0  0  0  0  0  0  0  0  0  0  0
   38.1330   33.7390   40.0680 C   0  0  0  0  0  0  0  0  0  0  0  0
   38.3300   34.7330   39.6890 H   0  0  0  0  0  0  0  0  0  0  0  0
   39.0260   32.9600   40.7450 N   0  0  0  0  0  0  0  0  0  0  0  0
   37.0040   27.8050   43.3750 C   0  0  0  0  0  0  0  0  0  0  0  0
   36.7150   26.6510   42.9690 O   0  0  0  0  0  0  0  0  0  0  0  0
   36.4550   28.2400   44.2050 H   0  0  0  0  0  0  0  0  0  0  0  0
  1  2  1  0  0  0  0
  1 17  1  0  0  0  0
  2  7  1  0  0  0  0
  3  8  1  0  0  0  0
  3  2  2  0  0  0  0
  4  3  1  0  0  0  0
  5  4  2  0  0  0  0
  5  6  1  0  0  0  0
  6  1  2  0  0  0  0
  9  5  1  0  0  0  0
 10  9  2  0  0  0  0
 11 10  1  0  0  0  0
 12 14  1  0  0  0  0
 12 10  1  0  0  0  0
 13 12  1  0  0  0  0
 14 16  2  0  0  0  0
 15 14  1  0  0  0  0
 16  9  1  0  0  0  0
 17 19  1  0  0  0  0
 18 17  2  0  0  0  0
M  END
>  <minimizedAffinity>
-4.05408859

$$$$

 OpenBabel03252503583D

 19 20  0  0  0  0  0  0  0  0999 V2000
   37.8840   26.4710   42.2810 C   0  0  0  0  0  0  0  0  0  0  0  0
   39.0140   26.3670   43.1000 C   0  0  0  0  0  0  0  0  0  0  0  0
   39.7230   27.5390   43.3690 C   0  0  0  0  0  0  0  0  0  0  0  0
   39.2800   28.7010   42.8250 N   0  0  0  0  0  0  0  0  0  0  0  0
   38.1890   28.7510   42.0430 C   0  0  0  0  0  0  0  0  0  0  0  0
   37.4820   27.6460   41.7620 N   0  0  0  0  0  0  0  0  0  0  0  0
   39.3340   25.4120   43.5170 H   0  0  0  0  0  0  0  0  0  0  0  0
   40.6060   27.5140   43.9990 H   0  0  0  0  0  0  0  0  0  0  0  0
   37.6960   29.9900   41.4490 C   0  0  0  0  0  0  0  0  0  0  0  0
   36.3260   30.1530   41.4490 C   0  0  0  0  0  0  0  0  0  0  0  0
   35.4790   29.5660   41.7950 H   0  0  0  0  0  0  0  0  0  0  0  0
   36.0570   31.3510   40.8620 N   0  0  0  0  0  0  0  0  0  0  0  0
   35.1400   31.8480   40.6660 H   0  0  0  0  0  0  0  0  0  0  0  0
   37.2380   31.9230   40.5040 C   0  0  0  0  0  0  0  0  0  0  0  0
   37.3630   32.8790   40.0150 H   0  0  0  0  0  0  0  0  0  0  0  0
   38.2500   31.0820   40.8660 N   0  0  0  0  0  0  0  0  0  0  0  0
   37.1920   25.2290   42.0380 C   0  0  0  0  0  0  0  0  0  0  0  0
   37.6020   24.0750   42.3220 O   0  0  0  0  0  0  0  0  0  0  0  0
   36.2250   25.3560   41.5590 H   0  0  0  0  0  0  0  0  0  0  0  0
  1  2  1  0  0  0  0
  2  3  2  0  0  0  0
  2  7  1  0  0  0  0
  3  8  1  0  0  0  0
  4  3  1  0  0  0  0
  5  4  2  0  0  0  0
  6  5  1  0  0  0  0
  6  1  2  0  0  0  0
  9  5  1  0  0  0  0
 10  9  2  0  0  0  0
 10 11  1  0  0  0  0
 12 10  1  0  0  0  0
 13 12  1  0  0  0  0
 14 12  1  0  0  0  0
 14 16  2  0  0  0  0
 15 14  1  0  0  0  0
 16  9  1  0  0  0  0
 17  1  1  0  0  0  0
 17 18  2  0  0  0  0
 19 17  1  0  0  0  0
M  END
>  <minimizedAffinity>
-3.98820662

$$$$

 OpenBabel03252503583D

 19 20  0  0  0  0  0  0  0  0999 V2000
   39.7700   28.1250   42.9620 C   0  0  0  0  0  0  0  0  0  0  0  0
   38.7650   27.3560   43.5590 C   0  0  0  0  0  0  0  0  0  0  0  0
   37.4490   27.8040   43.4300 C   0  0  0  0  0  0  0  0  0  0  0  0
   37.2220   28.9500   42.7390 N   0  0  0  0  0  0  0  0  0  0  0  0
   38.2220   29.6560   42.1820 C   0  0  0  0  0  0  0  0  0  0  0  0
   39.4980   29.2570   42.2850 N   0  0  0  0  0  0  0  0  0  0  0  0
   38.9920   26.4410   44.1060 H   0  0  0  0  0  0  0  0  0  0  0  0
   36.6330   27.2450   43.8740 H   0  0  0  0  0  0  0  0  0  0  0  0
   37.9980   30.8900   41.4350 C   0  0  0  0  0  0  0  0  0  0  0  0
   36.7050   31.1070   41.0070 C   0  0  0  0  0  0  0  0  0  0  0  0
   35.7640   30.5680   41.0880 H   0  0  0  0  0  0  0  0  0  0  0  0
   36.6890   32.2910   40.3370 N   0  0  0  0  0  0  0  0  0  0  0  0
   35.9030   32.8160   39.8540 H   0  0  0  0  0  0  0  0  0  0  0  0
   37.9500   32.8010   40.3480 C   0  0  0  0  0  0  0  0  0  0  0  0
   38.2670   33.7320   39.8980 H   0  0  0  0  0  0  0  0  0  0  0  0
   38.7580   31.9360   41.0260 N   0  0  0  0  0  0  0  0  0  0  0  0
   41.1080   27.6140   43.1280 C   0  0  0  0  0  0  0  0  0  0  0  0
   42.1110   28.2560   43.5310 O   0  0  0  0  0  0  0  0  0  0  0  0
   41.2080   26.5640   42.8660 H   0  0  0  0  0  0  0  0  0  0  0  0
  1 17  1  0  0  0  0
  1  2  1  0  0  0  0
  2  7  1  0  0  0  0
  3  2  2  0  0  0  0
  3  8  1  0  0  0  0
  4  3  1  0  0  0  0
  5  6  1  0  0  0  0
  5  4  2  0  0  0  0
  6  1  2  0  0  0  0
  9  5  1  0  0  0  0
 10 11  1  0  0  0  0
 10  9  2  0  0  0  0
 12 14  1  0  0  0  0
 12 10  1  0  0  0  0
 13 12  1  0  0  0  0
 14 16  2  0  0  0  0
 15 14  1  0  0  0  0
 16  9  1  0  0  0  0
 17 18  2  0  0  0  0
 19 17  1  0  0  0  0
M  END
>  <minimizedAffinity>
-3.91879272

$$$$

 OpenBabel03252503583D

 19 20  0  0  0  0  0  0  0  0999 V2000
   36.7190   28.7190   41.5990 C   0  0  0  0  0  0  0  0  0  0  0  0
   37.4180   29.1180   42.7450 C   0  0  0  0  0  0  0  0  0  0  0  0
   38.1230   28.1360   43.4420 C   0  0  0  0  0  0  0  0  0  0  0  0
   38.0930   26.8630   42.9730 N   0  0  0  0  0  0  0  0  0  0  0  0
   37.4060   26.5270   41.8670 C   0  0  0  0  0  0  0  0  0  0  0  0
   36.7160   27.4430   41.1710 N   0  0  0  0  0  0  0  0  0  0  0  0
   37.4150   30.1530   43.0860 H   0  0  0  0  0  0  0  0  0  0  0  0
   38.6820   28.3920   44.3360 H   0  0  0  0  0  0  0  0  0  0  0  0
   37.3610   25.1640   41.3470 C   0  0  0  0  0  0  0  0  0  0  0  0
   38.1980   24.2570   41.9640 C   0  0  0  0  0  0  0  0  0  0  0  0
   38.9180   24.3010   42.7790 H   0  0  0  0  0  0  0  0  0  0  0  0
   38.0210   23.0550   41.3530 N   0  0  0  0  0  0  0  0  0  0  0  0
   38.4680   22.1080   41.5210 H   0  0  0  0  0  0  0  0  0  0  0  0
   37.0910   23.2110   40.3730 C   0  0  0  0  0  0  0  0  0  0  0  0
   36.7300   22.4400   39.7050 H   0  0  0  0  0  0  0  0  0  0  0  0
   36.6830   24.5130   40.3700 N   0  0  0  0  0  0  0  0  0  0  0  0
   36.0090   29.7750   40.9210 C   0  0  0  0  0  0  0  0  0  0  0  0
   36.1890   31.0110   41.0630 O   0  0  0  0  0  0  0  0  0  0  0  0
   35.2530   29.4150   40.2280 H   0  0  0  0  0  0  0  0  0  0  0  0
  1  2  1  0  0  0  0
  2  7  1  0  0  0  0
  2  3  2  0  0  0  0
  3  8  1  0  0  0  0
  4  3  1  0  0  0  0
  5  4  2  0  0  0  0
  6  1  2  0  0  0  0
  6  5  1  0  0  0  0
  9  5  1  0  0  0  0
  9 10  2  0  0  0  0
 10 11  1  0  0  0  0
 12 13  1  0  0  0  0
 12 10  1  0  0  0  0
 14 12  1  0  0  0  0
 15 14  1  0  0  0  0
 16 14  2  0  0  0  0
 16  9  1  0  0  0  0
 17 18  2  0  0  0  0
 17  1  1  0  0  0  0
 19 17  1  0  0  0  0
M  END
>  <minimizedAffinity>
-3.86722016

$$$$

 OpenBabel03252503583D

 19 20  0  0  0  0  0  0  0  0999 V2000
   37.9220   32.2600   39.8640 C   0  0  0  0  0  0  0  0  0  0  0  0
   37.3400   31.9850   38.6200 C   0  0  0  0  0  0  0  0  0  0  0  0
   36.7140   30.7480   38.4620 C   0  0  0  0  0  0  0  0  0  0  0  0
   36.7050   29.8890   39.5130 N   0  0  0  0  0  0  0  0  0  0  0  0
   37.2770   30.1980   40.6900 C   0  0  0  0  0  0  0  0  0  0  0  0
   37.8880   31.3770   40.8790 N   0  0  0  0  0  0  0  0  0  0  0  0
   37.3710   32.7040   37.8020 H   0  0  0  0  0  0  0  0  0  0  0  0
   36.2480   30.4840   37.5180 H   0  0  0  0  0  0  0  0  0  0  0  0
   37.2780   29.2890   41.8320 C   0  0  0  0  0  0  0  0  0  0  0  0
   36.4290   28.2050   41.7380 C   0  0  0  0  0  0  0  0  0  0  0  0
   35.7260   27.8380   40.9940 H   0  0  0  0  0  0  0  0  0  0  0  0
   36.5630   27.4800   42.8810 N   0  0  0  0  0  0  0  0  0  0  0  0
   36.0950   26.5850   43.2050 H   0  0  0  0  0  0  0  0  0  0  0  0
   37.4790   28.1010   43.6720 C   0  0  0  0  0  0  0  0  0  0  0  0
   37.8070   27.7740   44.6490 H   0  0  0  0  0  0  0  0  0  0  0  0
   37.9200   29.2180   43.0240 N   0  0  0  0  0  0  0  0  0  0  0  0
   38.5540   33.5520   39.9680 C   0  0  0  0  0  0  0  0  0  0  0  0
   38.8430   34.1600   41.0290 O   0  0  0  0  0  0  0  0  0  0  0  0
   38.7830   34.0030   39.0070 H   0  0  0  0  0  0  0  0  0  0  0  0
  1 17  1  0  0  0  0
  1  6  1  0  0  0  0
  2  1  2  0  0  0  0
  3  2  1  0  0  0  0
  3  4  2  0  0  0  0
  4  5  1  0  0  0  0
  5  6  2  0  0  0  0
  5  9  1  0  0  0  0
  7  2  1  0  0  0  0
  8  3  1  0  0  0  0
  9 16  1  0  0  0  0
 10  9  2  0  0  0  0
 10 12  1  0  0  0  0
 11 10  1  0  0  0  0
 12 13  1  0  0  0  0
 12 14  1  0  0  0  0
 14 15  1  0  0  0  0
 16 14  2  0  0  0  0
 17 18  2  0  0  0  0
 19 17  1  0  0  0  0
M  END
>  <minimizedAffinity>
-3.79070091

$$$$

 OpenBabel03252503583D

 19 20  0  0  0  0  0  0  0  0999 V2000
   37.6420   25.1920   41.4010 C   0  0  0  0  0  0  0  0  0  0  0  0
   37.1960   24.5020   40.2670 C   0  0  0  0  0  0  0  0  0  0  0  0
   36.5370   25.2390   39.2820 C   0  0  0  0  0  0  0  0  0  0  0  0
   36.3680   26.5720   39.4780 N   0  0  0  0  0  0  0  0  0  0  0  0
   36.8140   27.1910   40.5840 C   0  0  0  0  0  0  0  0  0  0  0  0
   37.4510   26.5160   41.5520 N   0  0  0  0  0  0  0  0  0  0  0  0
   37.3540   23.4300   40.1510 H   0  0  0  0  0  0  0  0  0  0  0  0
   36.1710   24.7530   38.3840 H   0  0  0  0  0  0  0  0  0  0  0  0
   36.6420   28.6230   40.8130 C   0  0  0  0  0  0  0  0  0  0  0  0
   35.3600   29.1080   40.6490 C   0  0  0  0  0  0  0  0  0  0  0  0
   34.4000   28.6750   40.3800 H   0  0  0  0  0  0  0  0  0  0  0  0
   35.3940   30.4440   40.9010 N   0  0  0  0  0  0  0  0  0  0  0  0
   34.6310   31.1820   40.8850 H   0  0  0  0  0  0  0  0  0  0  0  0
   36.6720   30.7850   41.2150 C   0  0  0  0  0  0  0  0  0  0  0  0
   37.0270   31.7750   41.4660 H   0  0  0  0  0  0  0  0  0  0  0  0
   37.4430   29.6600   41.1610 N   0  0  0  0  0  0  0  0  0  0  0  0
   38.3150   24.3800   42.3830 C   0  0  0  0  0  0  0  0  0  0  0  0
   39.4950   24.5220   42.7920 O   0  0  0  0  0  0  0  0  0  0  0  0
   37.6980   23.5780   42.7800 H   0  0  0  0  0  0  0  0  0  0  0  0
  1  6  1  0  0  0  0
  1 17  1  0  0  0  0
  2  1  2  0  0  0  0
  3  4  2  0  0  0  0
  3  2  1  0  0  0  0
  4  5  1  0  0  0  0
  5  9  1  0  0  0  0
  5  6  2  0  0  0  0
  7  2  1  0  0  0  0
  8  3  1  0  0  0  0
  9 16  1  0  0  0  0
 10  9  2  0  0  0  0
 10 12  1  0  0  0  0
 11 10  1  0  0  0  0
 12 14  1  0  0  0  0
 13 12  1  0  0  0  0
 14 15  1  0  0  0  0
 16 14  2  0  0  0  0
 17 19  1  0  0  0  0
 17 18  2  0  0  0  0
M  END
>  <minimizedAffinity>
-3.69852543

$$$$

 OpenBabel03252503583D

 19 20  0  0  0  0  0  0  0  0999 V2000
   36.6390   28.7660   41.4500 C   0  0  0  0  0  0  0  0  0  0  0  0
   37.2640   29.9290   41.9160 C   0  0  0  0  0  0  0  0  0  0  0  0
   38.4340   29.7760   42.6600 C   0  0  0  0  0  0  0  0  0  0  0  0
   38.8950   28.5190   42.8880 N   0  0  0  0  0  0  0  0  0  0  0  0
   38.2590   27.4310   42.4200 C   0  0  0  0  0  0  0  0  0  0  0  0
   37.1320   27.5390   41.7000 N   0  0  0  0  0  0  0  0  0  0  0  0
   36.8580   30.9190   41.7090 H   0  0  0  0  0  0  0  0  0  0  0  0
   38.9580   30.6440   43.0450 H   0  0  0  0  0  0  0  0  0  0  0  0
   38.7390   26.0730   42.6530 C   0  0  0  0  0  0  0  0  0  0  0  0
   37.9970   25.0650   42.0700 C   0  0  0  0  0  0  0  0  0  0  0  0
   37.1030   25.0240   41.4520 H   0  0  0  0  0  0  0  0  0  0  0  0
   38.5880   23.8830   42.3930 N   0  0  0  0  0  0  0  0  0  0  0  0
   38.3360   22.8810   42.1490 H   0  0  0  0  0  0  0  0  0  0  0  0
   39.6770   24.1490   43.1630 C   0  0  0  0  0  0  0  0  0  0  0  0
   40.3580   23.4210   43.5810 H   0  0  0  0  0  0  0  0  0  0  0  0
   39.7700   25.5010   43.3230 N   0  0  0  0  0  0  0  0  0  0  0  0
   35.4340   28.9860   40.6870 C   0  0  0  0  0  0  0  0  0  0  0  0
   35.1880   28.5510   39.5340 O   0  0  0  0  0  0  0  0  0  0  0  0
   34.6970   29.5940   41.2050 H   0  0  0  0  0  0  0  0  0  0  0  0
  1  6  2  0  0  0  0
  1  2  1  0  0  0  0
  2  3  2  0  0  0  0
  3  4  1  0  0  0  0
  3  8  1  0  0  0  0
  5  9  1  0  0  0  0
  5  4  2  0  0  0  0
  6  5  1  0  0  0  0
  7  2  1  0  0  0  0
  9 16  1  0  0  0  0
 10 12  1  0  0  0  0
 10  9  2  0  0  0  0
 11 10  1  0  0  0  0
 12 14  1  0  0  0  0
 13 12  1  0  0  0  0
 14 16  2  0  0  0  0
 14 15  1  0  0  0  0
 17 19  1  0  0  0  0
 17  1  1  0  0  0  0
 18 17  2  0  0  0  0
M  END
>  <minimizedAffinity>
-3.68562913

$$$$
