
 OpenBabel03242517223D

 42 45  0  0  1  0  0  0  0  0999 V2000
   44.6390   35.3440   45.4790 C   0  0  0  0  0  0  0  0  0  0  0  0
   44.4140   35.9320   44.2180 C   0  0  0  0  0  0  0  0  0  0  0  0
   44.9270   35.2970   43.0710 C   0  0  0  0  0  0  0  0  0  0  0  0
   45.6150   34.1460   43.2510 N   0  0  0  0  0  0  0  0  0  0  0  0
   45.8180   33.6000   44.4790 C   0  0  0  0  0  0  0  0  0  0  0  0
   45.3290   34.1990   45.5990 N   0  0  0  0  0  0  0  0  0  0  0  0
   46.5580   32.3800   44.5670 N   0  0  0  0  0  0  0  0  0  0  0  0
   46.4950   31.6730   45.8410 C   0  0  0  0  0  0  0  0  0  0  0  0
   47.5300   30.6420   46.0490 C   0  0  0  0  0  0  0  0  0  0  0  0
   47.8660   29.9700   44.7550 C   0  0  0  0  0  0  0  0  0  0  0  0
   48.4370   31.0270   43.8560 C   0  0  0  0  0  0  0  0  0  0  0  0
   47.3130   31.9060   43.4340 C   0  0  2  0  0  0  0  0  0  0  0  0
   44.2660   35.7880   46.3990 H   0  0  0  0  0  0  0  0  0  0  0  0
   43.8560   36.8500   44.1620 H   0  0  0  0  0  0  0  0  0  0  0  0
   44.7650   35.7330   42.0930 H   0  0  0  0  0  0  0  0  0  0  0  0
   45.4530   31.2680   45.9280 H   0  0  0  0  0  0  0  0  0  0  0  0
   46.5740   32.4140   46.6670 H   0  0  0  0  0  0  0  0  0  0  0  0
   48.4230   31.0970   46.5070 H   0  0  0  0  0  0  0  0  0  0  0  0
   47.1430   29.8860   46.7720 H   0  0  0  0  0  0  0  0  0  0  0  0
   48.5380   29.1060   44.8380 H   0  0  0  0  0  0  0  0  0  0  0  0
   46.9170   29.6310   44.2660 H   0  0  0  0  0  0  0  0  0  0  0  0
   49.2220   31.5530   44.4190 H   0  0  0  0  0  0  0  0  0  0  0  0
   48.9180   30.6080   42.9440 H   0  0  0  0  0  0  0  0  0  0  0  0
   46.5910   31.2810   42.8410 H   0  0  0  0  0  0  0  0  0  0  0  0
   46.7990   31.9130   40.6060 F   0  0  0  0  0  0  0  0  0  0  0  0
   47.4910   32.9630   41.1200 C   0  0  0  0  0  0  0  0  0  0  0  0
   47.7470   32.9730   42.4990 C   0  0  0  0  0  0  0  0  0  0  0  0
   48.4560   34.0680   42.9680 C   0  0  0  0  0  0  0  0  0  0  0  0
   48.8910   35.0900   42.1560 C   0  0  0  0  0  0  0  0  0  0  0  0
   48.6310   35.0620   40.8110 C   0  0  0  0  0  0  0  0  0  0  0  0
   47.9290   33.9900   40.3040 C   0  0  0  0  0  0  0  0  0  0  0  0
   48.6570   34.0890   44.0150 H   0  0  0  0  0  0  0  0  0  0  0  0
   49.4440   35.9480   42.5140 H   0  0  0  0  0  0  0  0  0  0  0  0
   48.9420   35.8340   40.1040 H   0  0  0  0  0  0  0  0  0  0  0  0
   47.6160   33.8950   38.8790 C   0  0  0  0  0  0  0  0  0  0  0  0
   48.3580   34.4230   37.8410 C   0  0  0  0  0  0  0  0  0  0  0  0
   49.2800   34.9870   37.9280 H   0  0  0  0  0  0  0  0  0  0  0  0
   47.7800   34.1480   36.6560 N   0  0  0  0  0  0  0  0  0  0  0  0
   48.0320   34.3710   35.6700 H   0  0  0  0  0  0  0  0  0  0  0  0
   46.6570   33.4340   36.9270 C   0  0  0  0  0  0  0  0  0  0  0  0
   45.9200   33.0270   36.2450 H   0  0  0  0  0  0  0  0  0  0  0  0
   46.5710   33.2890   38.2750 N   0  0  0  0  0  0  0  0  0  0  0  0
  1  6  1  0  0  0  0
  1 13  1  0  0  0  0
  2  1  2  0  0  0  0
  3  4  2  0  0  0  0
  3  2  1  0  0  0  0
  4  5  1  0  0  0  0
  5  7  1  0  0  0  0
  5  6  2  0  0  0  0
  7  8  1  0  0  0  0
  8 16  1  0  0  0  0
  8  9  1  0  0  0  0
  8 17  1  0  0  0  0
  9 18  1  0  0  0  0
  9 19  1  0  0  0  0
 10 20  1  0  0  0  0
 10  9  1  0  0  0  0
 11 22  1  0  0  0  0
 11 10  1  0  0  0  0
 12 24  1  6  0  0  0
 12 11  1  0  0  0  0
 12  7  1  0  0  0  0
 14  2  1  0  0  0  0
 15  3  1  0  0  0  0
 21 10  1  0  0  0  0
 23 11  1  0  0  0  0
 25 26  1  0  0  0  0
 26 27  1  0  0  0  0
 27 28  2  0  0  0  0
 27 12  1  0  0  0  0
 28 32  1  0  0  0  0
 29 33  1  0  0  0  0
 29 28  1  0  0  0  0
 30 29  2  0  0  0  0
 31 30  1  0  0  0  0
 31 26  2  0  0  0  0
 34 30  1  0  0  0  0
 35 31  1  0  0  0  0
 36 37  1  0  0  0  0
 36 35  2  0  0  0  0
 38 40  1  0  0  0  0
 38 36  1  0  0  0  0
 39 38  1  0  0  0  0
 40 42  2  0  0  0  0
 41 40  1  0  0  0  0
 42 35  1  0  0  0  0
M  END
>  <minimizedAffinity>
-6.57618427

>  <minimizedRMSD>
0.877781391

$$$$
