
 OpenBabel03252507183D

 43 46  0  0  1  0  0  0  0  0999 V2000
   47.3060   33.4150   43.0470 C   0  0  0  0  0  0  0  0  0  0  0  0
   48.3180   33.1070   43.7320 O   0  0  0  0  0  0  0  0  0  0  0  0
   47.0630   32.9690   41.7020 N   0  0  0  0  0  0  0  0  0  0  0  0
   45.8540   32.4550   41.0730 C   0  0  0  0  0  0  0  0  0  0  0  0
   45.6020   33.2480   39.7740 C   0  0  0  0  0  0  0  0  0  0  0  0
   46.7350   32.9960   38.8060 C   0  0  0  0  0  0  0  0  0  0  0  0
   47.8810   32.3370   39.5200 C   0  0  0  0  0  0  0  0  0  0  0  0
   48.2040   33.0420   40.8150 C   0  0  2  0  0  0  0  0  0  0  0  0
   44.9430   32.7200   41.6880 H   0  0  0  0  0  0  0  0  0  0  0  0
   45.8630   31.3850   40.8780 H   0  0  0  0  0  0  0  0  0  0  0  0
   44.6140   33.0030   39.3950 H   0  0  0  0  0  0  0  0  0  0  0  0
   45.6550   34.3340   40.0510 H   0  0  0  0  0  0  0  0  0  0  0  0
   46.3920   32.3360   37.9790 H   0  0  0  0  0  0  0  0  0  0  0  0
   47.0740   33.9310   38.3020 H   0  0  0  0  0  0  0  0  0  0  0  0
   47.5790   31.2680   39.7250 H   0  0  0  0  0  0  0  0  0  0  0  0
   48.7580   32.2600   38.8710 H   0  0  0  0  0  0  0  0  0  0  0  0
   48.3330   34.1160   40.5680 H   0  0  0  0  0  0  0  0  0  0  0  0
   45.9510   35.4530   42.9780 C   0  0  0  0  0  0  0  0  0  0  0  0
   46.3220   34.2790   43.6580 C   0  0  0  0  0  0  0  0  0  0  0  0
   45.7380   33.9950   44.8730 C   0  0  0  0  0  0  0  0  0  0  0  0
   44.8270   34.8560   45.3700 N   0  0  0  0  0  0  0  0  0  0  0  0
   44.4630   35.9960   44.7170 C   0  0  0  0  0  0  0  0  0  0  0  0
   45.0330   36.2680   43.5350 N   0  0  0  0  0  0  0  0  0  0  0  0
   46.4140   35.6620   42.0290 H   0  0  0  0  0  0  0  0  0  0  0  0
   43.7290   36.6480   45.1630 H   0  0  0  0  0  0  0  0  0  0  0  0
   46.1320   32.7850   45.5660 C   0  0  0  0  0  0  0  0  0  0  0  0
   45.7270   31.5670   45.1070 C   0  0  0  0  0  0  0  0  0  0  0  0
   46.1120   30.4210   45.7800 C   0  0  0  0  0  0  0  0  0  0  0  0
   46.8970   30.4580   46.9080 C   0  0  0  0  0  0  0  0  0  0  0  0
   47.2880   31.7220   47.3410 C   0  0  0  0  0  0  0  0  0  0  0  0
   46.8920   32.8060   46.6580 N   0  0  0  0  0  0  0  0  0  0  0  0
   45.1210   31.3890   44.2570 H   0  0  0  0  0  0  0  0  0  0  0  0
   45.8250   29.4170   45.4690 H   0  0  0  0  0  0  0  0  0  0  0  0
   47.1980   29.5700   47.4320 H   0  0  0  0  0  0  0  0  0  0  0  0
   47.9090   31.8300   48.2240 H   0  0  0  0  0  0  0  0  0  0  0  0
   49.4670   32.5540   41.4070 C   0  0  0  0  0  0  0  0  0  0  0  0
   50.5880   33.2320   41.8700 C   0  0  0  0  0  0  0  0  0  0  0  0
   50.6810   34.3030   41.8500 H   0  0  0  0  0  0  0  0  0  0  0  0
   51.5240   32.3910   42.3360 N   0  0  0  0  0  0  0  0  0  0  0  0
   52.4540   32.5630   42.7430 H   0  0  0  0  0  0  0  0  0  0  0  0
   51.0180   31.1550   42.1820 C   0  0  0  0  0  0  0  0  0  0  0  0
   51.3790   30.1600   42.4000 H   0  0  0  0  0  0  0  0  0  0  0  0
   49.7970   31.2470   41.6300 N   0  0  0  0  0  0  0  0  0  0  0  0
  1 19  1  0  0  0  0
  1  2  2  0  0  0  0
  3  1  1  0  0  0  0
  4  9  1  0  0  0  0
  4  3  1  0  0  0  0
  5 12  1  0  0  0  0
  5  4  1  0  0  0  0
  6  7  1  0  0  0  0
  6  5  1  0  0  0  0
  7 15  1  0  0  0  0
  7  8  1  0  0  0  0
  8 17  1  6  0  0  0
  8 36  1  0  0  0  0
  8  3  1  0  0  0  0
 10  4  1  0  0  0  0
 11  5  1  0  0  0  0
 13  6  1  0  0  0  0
 14  6  1  0  0  0  0
 16  7  1  0  0  0  0
 18 23  2  0  0  0  0
 18 19  1  0  0  0  0
 19 20  2  0  0  0  0
 20 21  1  0  0  0  0
 20 26  1  0  0  0  0
 22 25  1  0  0  0  0
 22 21  2  0  0  0  0
 23 22  1  0  0  0  0
 24 18  1  0  0  0  0
 26 31  1  0  0  0  0
 27 26  2  0  0  0  0
 27 28  1  0  0  0  0
 28 29  2  0  0  0  0
 29 30  1  0  0  0  0
 29 34  1  0  0  0  0
 30 35  1  0  0  0  0
 31 30  2  0  0  0  0
 32 27  1  0  0  0  0
 33 28  1  0  0  0  0
 36 43  1  0  0  0  0
 36 37  2  0  0  0  0
 37 39  1  0  0  0  0
 38 37  1  0  0  0  0
 39 40  1  0  0  0  0
 41 39  1  0  0  0  0
 41 42  1  0  0  0  0
 43 41  2  0  0  0  0
M  END
>  <minimizedAffinity>
-5.5705595

>  <minimizedRMSD>
0.557253003

$$$$
