
 OpenBabel03252507453D

 36 38  0  0  0  0  0  0  0  0999 V2000
   47.2030   34.5120   40.9210 C   0  0  0  0  0  0  0  0  0  0  0  0
   47.3250   35.3490   40.1850 H   0  0  0  0  0  0  0  0  0  0  0  0
   46.6070   33.7350   40.3980 H   0  0  0  0  0  0  0  0  0  0  0  0
   48.5230   34.0020   41.3310 C   0  0  0  0  0  0  0  0  0  0  0  0
   48.9000   32.7800   40.7980 C   0  0  0  0  0  0  0  0  0  0  0  0
   50.1150   32.1940   41.1030 C   0  0  0  0  0  0  0  0  0  0  0  0
   50.9240   32.9020   41.9710 N   0  0  0  0  0  0  0  0  0  0  0  0
   50.5290   34.0870   42.4720 C   0  0  0  0  0  0  0  0  0  0  0  0
   49.3610   34.6120   42.1550 N   0  0  0  0  0  0  0  0  0  0  0  0
   50.3740   31.2450   40.6680 H   0  0  0  0  0  0  0  0  0  0  0  0
   51.2060   34.6060   43.1540 H   0  0  0  0  0  0  0  0  0  0  0  0
   47.7890   31.9010   39.6680 S   0  0  0  0  0  0  0  0  0  0  0  0
   48.1100   32.4370   37.9950 C   0  0  0  0  0  0  0  0  0  0  0  0
   47.7100   33.6210   37.4100 C   0  0  0  0  0  0  0  0  0  0  0  0
   47.1390   34.4020   37.8960 H   0  0  0  0  0  0  0  0  0  0  0  0
   48.1360   33.6830   36.1250 N   0  0  0  0  0  0  0  0  0  0  0  0
   48.0230   34.4120   35.3940 H   0  0  0  0  0  0  0  0  0  0  0  0
   48.7900   32.5220   35.9580 C   0  0  0  0  0  0  0  0  0  0  0  0
   49.3050   32.1250   35.0830 H   0  0  0  0  0  0  0  0  0  0  0  0
   48.8030   31.7370   37.0510 N   0  0  0  0  0  0  0  0  0  0  0  0
   46.3550   34.9520   42.0830 C   0  0  0  0  0  0  0  0  0  0  0  0
   46.6290   35.9980   42.2990 H   0  0  0  0  0  0  0  0  0  0  0  0
   46.5580   34.2560   42.9260 H   0  0  0  0  0  0  0  0  0  0  0  0
   44.9020   34.9340   41.8120 C   0  0  0  0  0  0  0  0  0  0  0  0
   43.9980   35.4820   42.7620 C   0  0  0  0  0  0  0  0  0  0  0  0
   42.3580   35.2220   41.9760 S   0  0  0  0  0  0  0  0  0  0  0  0
   43.1900   34.4020   40.4700 C   0  0  0  0  0  0  0  0  0  0  0  0
   44.2940   34.4560   40.7560 N   0  0  0  0  0  0  0  0  0  0  0  0
   44.2350   35.9370   43.7120 H   0  0  0  0  0  0  0  0  0  0  0  0
   42.4680   33.9130   39.3730 O   0  0  0  0  0  0  0  0  0  0  0  0
   40.5040   34.3080   37.6540 O   0  0  0  0  0  0  0  0  0  0  0  0
   41.5650   35.0290   38.4750 P   0  0  0  0  0  0  0  0  0  0  0  0
   40.8090   36.0850   39.5460 O   0  0  0  0  0  0  0  0  0  0  0  0
   40.6350   36.9730   39.1750 H   0  0  0  0  0  0  0  0  0  0  0  0
   42.6090   35.9250   37.4740 O   0  0  0  0  0  0  0  0  0  0  0  0
   42.9930   35.3710   36.7550 H   0  0  0  0  0  0  0  0  0  0  0  0
  1  4  1  0  0  0  0
  1 21  1  0  0  0  0
  2  1  1  0  0  0  0
  3  1  1  0  0  0  0
  4  9  1  0  0  0  0
  5  6  1  0  0  0  0
  5  4  2  0  0  0  0
  6  7  2  0  0  0  0
  7  8  1  0  0  0  0
  8 11  1  0  0  0  0
  9  8  2  0  0  0  0
 10  6  1  0  0  0  0
 12  5  1  0  0  0  0
 13 12  1  0  0  0  0
 14 15  1  0  0  0  0
 14 13  2  0  0  0  0
 16 14  1  0  0  0  0
 17 16  1  0  0  0  0
 18 16  1  0  0  0  0
 18 20  2  0  0  0  0
 19 18  1  0  0  0  0
 20 13  1  0  0  0  0
 21 22  1  0  0  0  0
 21 23  1  0  0  0  0
 24 21  1  0  0  0  0
 24 25  2  0  0  0  0
 25 29  1  0  0  0  0
 26 25  1  0  0  0  0
 27 28  2  0  0  0  0
 27 26  1  0  0  0  0
 28 24  1  0  0  0  0
 30 27  1  0  0  0  0
 31 32  2  0  0  0  0
 32 30  1  0  0  0  0
 32 33  1  0  0  0  0
 34 33  1  0  0  0  0
 35 32  1  0  0  0  0
 36 35  1  0  0  0  0
M  END
>  <minimizedAffinity>
-5.11343193

>  <minimizedRMSD>
0.186323196

$$$$
