
 OpenBabel03252509153D

 24 26  0  0  0  0  0  0  0  0999 V2000
   45.9150   33.1030   46.2190 C   0  0  0  0  0  0  0  0  0  0  0  0
   45.4340   32.9550   47.5460 C   0  0  0  0  0  0  0  0  0  0  0  0
   46.0810   32.0890   48.3480 C   0  0  0  0  0  0  0  0  0  0  0  0
   47.1950   31.3680   47.8630 C   0  0  0  0  0  0  0  0  0  0  0  0
   47.3360   31.9600   46.1420 S   0  0  0  0  0  0  0  0  0  0  0  0
   44.5800   33.5200   47.8910 H   0  0  0  0  0  0  0  0  0  0  0  0
   45.8390   31.8670   49.3680 H   0  0  0  0  0  0  0  0  0  0  0  0
   44.2890   35.9210   44.4380 C   0  0  0  0  0  0  0  0  0  0  0  0
   44.2970   35.4030   43.1160 C   0  0  0  0  0  0  0  0  0  0  0  0
   44.8470   34.1400   42.9010 C   0  0  0  0  0  0  0  0  0  0  0  0
   45.3480   33.4740   43.9820 N   0  0  0  0  0  0  0  0  0  0  0  0
   45.3210   34.0040   45.2260 C   0  0  0  0  0  0  0  0  0  0  0  0
   44.7920   35.2300   45.4630 N   0  0  0  0  0  0  0  0  0  0  0  0
   43.8670   36.8970   44.6200 H   0  0  0  0  0  0  0  0  0  0  0  0
   43.8900   35.9600   42.2820 H   0  0  0  0  0  0  0  0  0  0  0  0
   44.8910   33.6740   41.9300 H   0  0  0  0  0  0  0  0  0  0  0  0
   48.0850   30.4070   48.4080 C   0  0  0  0  0  0  0  0  0  0  0  0
   48.7670   30.5720   49.5910 C   0  0  0  0  0  0  0  0  0  0  0  0
   48.7750   31.3980   50.3070 H   0  0  0  0  0  0  0  0  0  0  0  0
   49.4970   29.4540   49.7550 N   0  0  0  0  0  0  0  0  0  0  0  0
   50.1360   29.2770   50.5830 H   0  0  0  0  0  0  0  0  0  0  0  0
   49.2940   28.5960   48.7140 C   0  0  0  0  0  0  0  0  0  0  0  0
   49.8100   27.6290   48.6800 H   0  0  0  0  0  0  0  0  0  0  0  0
   48.4040   29.2150   47.8810 N   0  0  0  0  0  0  0  0  0  0  0  0
  1  2  2  0  0  0  0
  2  6  1  0  0  0  0
  2  3  1  0  0  0  0
  3  7  1  0  0  0  0
  4  3  2  0  0  0  0
  4 17  1  0  0  0  0
  5  1  1  0  0  0  0
  5  4  1  0  0  0  0
  8 14  1  0  0  0  0
  8 13  1  0  0  0  0
  9  8  2  0  0  0  0
 10  9  1  0  0  0  0
 10 11  2  0  0  0  0
 11 12  1  0  0  0  0
 12 13  2  0  0  0  0
 12  1  1  0  0  0  0
 15  9  1  0  0  0  0
 16 10  1  0  0  0  0
 17 18  2  0  0  0  0
 18 20  1  0  0  0  0
 18 19  1  0  0  0  0
 20 21  1  0  0  0  0
 22 20  1  0  0  0  0
 23 22  1  0  0  0  0
 24 17  1  0  0  0  0
 24 22  2  0  0  0  0
M  END
>  <minimizedAffinity>
-4.40340328

>  <minimizedRMSD>
1.04259276

$$$$
