
 OpenBabel03252505213D

 27 29  0  0  0  0  0  0  0  0999 V2000
   46.7510   32.5710   44.1130 F   0  0  0  0  0  0  0  0  0  0  0  0
   45.9830   33.6710   44.2920 C   0  0  0  0  0  0  0  0  0  0  0  0
   45.5420   33.9470   45.5700 C   0  0  0  0  0  0  0  0  0  0  0  0
   44.7660   35.0540   45.7700 C   0  0  0  0  0  0  0  0  0  0  0  0
   44.4330   35.8720   44.7160 C   0  0  0  0  0  0  0  0  0  0  0  0
   44.8650   35.6120   43.4250 C   0  0  0  0  0  0  0  0  0  0  0  0
   45.6650   34.4700   43.2310 C   0  0  0  0  0  0  0  0  0  0  0  0
   44.3970   35.3090   46.7580 H   0  0  0  0  0  0  0  0  0  0  0  0
   43.8130   36.7440   44.9200 H   0  0  0  0  0  0  0  0  0  0  0  0
   44.5740   36.2890   42.6340 H   0  0  0  0  0  0  0  0  0  0  0  0
   47.5220   31.8680   47.8270 C   0  0  0  0  0  0  0  0  0  0  0  0
   46.5730   31.4240   48.7780 C   0  0  0  0  0  0  0  0  0  0  0  0
   45.2540   31.8580   48.6180 C   0  0  0  0  0  0  0  0  0  0  0  0
   44.9720   32.6740   47.5620 N   0  0  0  0  0  0  0  0  0  0  0  0
   45.9010   33.0710   46.6840 C   0  0  0  0  0  0  0  0  0  0  0  0
   47.1800   32.6690   46.8110 N   0  0  0  0  0  0  0  0  0  0  0  0
   48.5570   31.5520   47.9190 H   0  0  0  0  0  0  0  0  0  0  0  0
   46.8630   30.7700   49.6010 H   0  0  0  0  0  0  0  0  0  0  0  0
   44.4860   31.5570   49.3070 H   0  0  0  0  0  0  0  0  0  0  0  0
   46.1050   34.2220   41.8630 C   0  0  0  0  0  0  0  0  0  0  0  0
   47.2340   34.6450   41.1970 C   0  0  0  0  0  0  0  0  0  0  0  0
   48.0160   35.2640   41.6140 H   0  0  0  0  0  0  0  0  0  0  0  0
   47.2670   34.1960   39.9360 N   0  0  0  0  0  0  0  0  0  0  0  0
   47.9780   34.3400   39.1900 H   0  0  0  0  0  0  0  0  0  0  0  0
   46.1340   33.4790   39.8150 C   0  0  0  0  0  0  0  0  0  0  0  0
   45.7640   32.9330   38.9360 H   0  0  0  0  0  0  0  0  0  0  0  0
   45.4410   33.4950   40.9660 N   0  0  0  0  0  0  0  0  0  0  0  0
  1  2  1  0  0  0  0
  2  3  1  0  0  0  0
  3  4  2  0  0  0  0
  3 15  1  0  0  0  0
  4  8  1  0  0  0  0
  5  9  1  0  0  0  0
  5  4  1  0  0  0  0
  6  5  2  0  0  0  0
  7  6  1  0  0  0  0
  7  2  2  0  0  0  0
 10  6  1  0  0  0  0
 11 17  1  0  0  0  0
 11 12  1  0  0  0  0
 12 18  1  0  0  0  0
 13 12  2  0  0  0  0
 13 19  1  0  0  0  0
 14 13  1  0  0  0  0
 15 16  1  0  0  0  0
 15 14  2  0  0  0  0
 16 11  2  0  0  0  0
 20  7  1  0  0  0  0
 21 22  1  0  0  0  0
 21 20  2  0  0  0  0
 23 21  1  0  0  0  0
 24 23  1  0  0  0  0
 25 23  1  0  0  0  0
 25 27  2  0  0  0  0
 26 25  1  0  0  0  0
 27 20  1  0  0  0  0
M  END
>  <minimizedAffinity>
-5.39025354

>  <minimizedRMSD>
7.01938772

$$$$
