
 OpenBabel03242517493D

 42 45  0  0  0  0  0  0  0  0999 V2000
   38.4980   29.7530   42.3010 C   0  0  0  0  0  0  0  0  0  0  0  0
   37.2080   29.4640   41.8470 C   0  0  0  0  0  0  0  0  0  0  0  0
   36.6910   28.1990   42.1230 C   0  0  0  0  0  0  0  0  0  0  0  0
   37.4530   27.3250   42.8080 N   0  0  0  0  0  0  0  0  0  0  0  0
   38.7010   27.6480   43.2300 C   0  0  0  0  0  0  0  0  0  0  0  0
   39.2490   28.8430   42.9950 N   0  0  0  0  0  0  0  0  0  0  0  0
   38.9530   30.7270   42.1140 H   0  0  0  0  0  0  0  0  0  0  0  0
   35.7020   28.0030   41.7650 H   0  0  0  0  0  0  0  0  0  0  0  0
   39.4700   26.6080   43.9840 C   0  0  0  0  0  0  0  0  0  0  0  0
   38.7990   25.7830   44.2910 H   0  0  0  0  0  0  0  0  0  0  0  0
   39.9290   27.0270   44.8820 H   0  0  0  0  0  0  0  0  0  0  0  0
   40.5720   26.0130   43.1310 C   0  0  0  0  0  0  0  0  0  0  0  0
   40.6010   26.4420   42.1200 H   0  0  0  0  0  0  0  0  0  0  0  0
   40.3550   24.9090   43.0770 H   0  0  0  0  0  0  0  0  0  0  0  0
   41.8490   26.1990   43.8560 C   0  0  0  0  0  0  0  0  0  0  0  0
   42.9990   25.4640   43.5500 C   0  0  0  0  0  0  0  0  0  0  0  0
   43.1210   24.7100   42.8020 H   0  0  0  0  0  0  0  0  0  0  0  0
   43.9090   25.9520   44.4440 N   0  0  0  0  0  0  0  0  0  0  0  0
   44.8880   25.5630   44.4360 H   0  0  0  0  0  0  0  0  0  0  0  0
   43.3410   26.9070   45.2240 C   0  0  0  0  0  0  0  0  0  0  0  0
   43.9690   27.3690   45.9730 H   0  0  0  0  0  0  0  0  0  0  0  0
   42.0560   27.0680   44.8630 N   0  0  0  0  0  0  0  0  0  0  0  0
   36.2810   30.6860   40.9510 S   0  0  0  0  0  0  0  0  0  0  0  0
   36.4280   30.3970   39.2050 C   0  0  0  0  0  0  0  0  0  0  0  0
   35.6770   29.4500   38.5140 C   0  0  0  0  0  0  0  0  0  0  0  0
   35.8530   29.2840   37.1420 C   0  0  0  0  0  0  0  0  0  0  0  0
   36.7520   30.0350   36.4470 C   0  0  0  0  0  0  0  0  0  0  0  0
   37.4980   30.9760   37.1370 C   0  0  0  0  0  0  0  0  0  0  0  0
   37.3460   31.1630   38.4950 C   0  0  0  0  0  0  0  0  0  0  0  0
   34.9780   28.8760   39.0870 H   0  0  0  0  0  0  0  0  0  0  0  0
   35.2590   28.5430   36.6270 H   0  0  0  0  0  0  0  0  0  0  0  0
   36.9050   29.9240   35.3820 H   0  0  0  0  0  0  0  0  0  0  0  0
   38.2310   31.6040   36.6350 H   0  0  0  0  0  0  0  0  0  0  0  0
   38.1410   32.1610   39.2050 C   0  0  0  0  0  0  0  0  0  0  0  0
   39.4240   31.9830   39.6040 C   0  0  0  0  0  0  0  0  0  0  0  0
   40.1620   32.9590   40.2830 C   0  0  0  0  0  0  0  0  0  0  0  0
   39.5680   34.1290   40.5530 N   0  0  0  0  0  0  0  0  0  0  0  0
   38.2950   34.3070   40.1570 C   0  0  0  0  0  0  0  0  0  0  0  0
   37.6050   33.3580   39.5060 N   0  0  0  0  0  0  0  0  0  0  0  0
   39.9010   31.0230   39.3800 H   0  0  0  0  0  0  0  0  0  0  0  0
   41.1910   32.7800   40.5890 H   0  0  0  0  0  0  0  0  0  0  0  0
   37.7220   35.2270   40.3290 H   0  0  0  0  0  0  0  0  0  0  0  0
  1  6  1  0  0  0  0
  2  3  1  0  0  0  0
  2  1  2  0  0  0  0
  3  4  2  0  0  0  0
  4  5  1  0  0  0  0
  5  9  1  0  0  0  0
  6  5  2  0  0  0  0
  7  1  1  0  0  0  0
  8  3  1  0  0  0  0
  9 10  1  0  0  0  0
  9 11  1  0  0  0  0
 12 15  1  0  0  0  0
 12  9  1  0  0  0  0
 13 12  1  0  0  0  0
 14 12  1  0  0  0  0
 15 22  1  0  0  0  0
 16 15  2  0  0  0  0
 16 18  1  0  0  0  0
 17 16  1  0  0  0  0
 18 20  1  0  0  0  0
 19 18  1  0  0  0  0
 20 21  1  0  0  0  0
 22 20  2  0  0  0  0
 23  2  1  0  0  0  0
 24 23  1  0  0  0  0
 25 30  1  0  0  0  0
 25 24  1  0  0  0  0
 26 25  2  0  0  0  0
 27 28  2  0  0  0  0
 27 26  1  0  0  0  0
 28 29  1  0  0  0  0
 29 24  2  0  0  0  0
 29 34  1  0  0  0  0
 31 26  1  0  0  0  0
 32 27  1  0  0  0  0
 33 28  1  0  0  0  0
 34 39  2  0  0  0  0
 34 35  1  0  0  0  0
 35 36  2  0  0  0  0
 36 37  1  0  0  0  0
 36 41  1  0  0  0  0
 38 42  1  0  0  0  0
 38 37  2  0  0  0  0
 39 38  1  0  0  0  0
 40 35  1  0  0  0  0
M  END
>  <minimizedAffinity>
-6.26435471

$$$$

 OpenBabel03242517493D

 42 45  0  0  0  0  0  0  0  0999 V2000
   38.0070   29.6020   42.2010 C   0  0  0  0  0  0  0  0  0  0  0  0
   36.9370   28.7200   42.0230 C   0  0  0  0  0  0  0  0  0  0  0  0
   35.9440   29.0800   41.1140 C   0  0  0  0  0  0  0  0  0  0  0  0
   36.0620   30.2490   40.4560 N   0  0  0  0  0  0  0  0  0  0  0  0
   37.1190   31.0750   40.6600 C   0  0  0  0  0  0  0  0  0  0  0  0
   38.1000   30.7850   41.5180 N   0  0  0  0  0  0  0  0  0  0  0  0
   38.8130   29.3730   42.9000 H   0  0  0  0  0  0  0  0  0  0  0  0
   35.1360   28.3880   40.9960 H   0  0  0  0  0  0  0  0  0  0  0  0
   37.1610   32.3540   39.8820 C   0  0  0  0  0  0  0  0  0  0  0  0
   36.9830   33.2170   40.5520 H   0  0  0  0  0  0  0  0  0  0  0  0
   36.4000   32.3670   39.0990 H   0  0  0  0  0  0  0  0  0  0  0  0
   38.5110   32.5540   39.2230 C   0  0  0  0  0  0  0  0  0  0  0  0
   38.4300   32.7130   38.1380 H   0  0  0  0  0  0  0  0  0  0  0  0
   39.0960   31.6150   39.4340 H   0  0  0  0  0  0  0  0  0  0  0  0
   39.1800   33.6820   39.9070 C   0  0  0  0  0  0  0  0  0  0  0  0
   40.4860   33.5920   40.4010 C   0  0  0  0  0  0  0  0  0  0  0  0
   41.1490   32.7550   40.3600 H   0  0  0  0  0  0  0  0  0  0  0  0
   40.6860   34.8310   40.9370 N   0  0  0  0  0  0  0  0  0  0  0  0
   41.6130   35.0450   41.3900 H   0  0  0  0  0  0  0  0  0  0  0  0
   39.5800   35.6010   40.7760 C   0  0  0  0  0  0  0  0  0  0  0  0
   39.6200   36.6100   41.1630 H   0  0  0  0  0  0  0  0  0  0  0  0
   38.6350   34.8920   40.1330 N   0  0  0  0  0  0  0  0  0  0  0  0
   36.8710   27.1990   42.9390 S   0  0  0  0  0  0  0  0  0  0  0  0
   38.4790   26.4450   42.9760 C   0  0  0  0  0  0  0  0  0  0  0  0
   39.4600   26.7660   43.9100 C   0  0  0  0  0  0  0  0  0  0  0  0
   40.6970   26.1280   43.8710 C   0  0  0  0  0  0  0  0  0  0  0  0
   40.9780   25.1840   42.9290 C   0  0  0  0  0  0  0  0  0  0  0  0
   40.0000   24.8670   42.0010 C   0  0  0  0  0  0  0  0  0  0  0  0
   38.7660   25.4820   42.0150 C   0  0  0  0  0  0  0  0  0  0  0  0
   39.2090   27.5110   44.6370 H   0  0  0  0  0  0  0  0  0  0  0  0
   41.4440   26.3920   44.6050 H   0  0  0  0  0  0  0  0  0  0  0  0
   41.9320   24.6760   42.8790 H   0  0  0  0  0  0  0  0  0  0  0  0
   40.1680   24.1210   41.2260 H   0  0  0  0  0  0  0  0  0  0  0  0
   37.7470   25.1340   41.0280 C   0  0  0  0  0  0  0  0  0  0  0  0
   36.8810   24.0990   41.1460 C   0  0  0  0  0  0  0  0  0  0  0  0
   35.9140   23.7910   40.1820 C   0  0  0  0  0  0  0  0  0  0  0  0
   35.8440   24.5570   39.0860 N   0  0  0  0  0  0  0  0  0  0  0  0
   36.7040   25.5850   38.9680 C   0  0  0  0  0  0  0  0  0  0  0  0
   37.6230   25.8640   39.9040 N   0  0  0  0  0  0  0  0  0  0  0  0
   36.9450   23.4780   42.0450 H   0  0  0  0  0  0  0  0  0  0  0  0
   35.2340   22.9500   40.3110 H   0  0  0  0  0  0  0  0  0  0  0  0
   36.7270   26.2690   38.1110 H   0  0  0  0  0  0  0  0  0  0  0  0
  1  7  1  0  0  0  0
  2  1  1  0  0  0  0
  2 23  1  0  0  0  0
  3  2  2  0  0  0  0
  4  5  2  0  0  0  0
  4  3  1  0  0  0  0
  5  6  1  0  0  0  0
  6  1  2  0  0  0  0
  8  3  1  0  0  0  0
  9 10  1  0  0  0  0
  9  5  1  0  0  0  0
 11  9  1  0  0  0  0
 12 14  1  0  0  0  0
 12  9  1  0  0  0  0
 12 15  1  0  0  0  0
 13 12  1  0  0  0  0
 15 22  1  0  0  0  0
 15 16  2  0  0  0  0
 16 18  1  0  0  0  0
 17 16  1  0  0  0  0
 18 19  1  0  0  0  0
 20 18  1  0  0  0  0
 20 21  1  0  0  0  0
 22 20  2  0  0  0  0
 23 24  1  0  0  0  0
 24 25  1  0  0  0  0
 25 30  1  0  0  0  0
 26 25  2  0  0  0  0
 26 31  1  0  0  0  0
 27 26  1  0  0  0  0
 28 29  1  0  0  0  0
 28 27  2  0  0  0  0
 29 24  2  0  0  0  0
 32 27  1  0  0  0  0
 33 28  1  0  0  0  0
 34 35  1  0  0  0  0
 34 29  1  0  0  0  0
 35 40  1  0  0  0  0
 36 41  1  0  0  0  0
 36 35  2  0  0  0  0
 37 36  1  0  0  0  0
 38 37  2  0  0  0  0
 38 39  1  0  0  0  0
 39 34  2  0  0  0  0
 42 38  1  0  0  0  0
M  END
>  <minimizedAffinity>
-6.22185326

$$$$

 OpenBabel03242517493D

 42 45  0  0  0  0  0  0  0  0999 V2000
   36.8680   27.9980   41.9730 C   0  0  0  0  0  0  0  0  0  0  0  0
   37.2380   29.3430   41.8750 C   0  0  0  0  0  0  0  0  0  0  0  0
   38.4260   29.7350   42.4900 C   0  0  0  0  0  0  0  0  0  0  0  0
   39.1540   28.8080   43.1420 N   0  0  0  0  0  0  0  0  0  0  0  0
   38.7570   27.5130   43.2110 C   0  0  0  0  0  0  0  0  0  0  0  0
   37.6290   27.0780   42.6430 N   0  0  0  0  0  0  0  0  0  0  0  0
   35.9490   27.6340   41.5120 H   0  0  0  0  0  0  0  0  0  0  0  0
   38.6870   30.7690   42.4000 H   0  0  0  0  0  0  0  0  0  0  0  0
   39.6330   26.5560   43.9590 C   0  0  0  0  0  0  0  0  0  0  0  0
   39.2150   26.3600   44.9650 H   0  0  0  0  0  0  0  0  0  0  0  0
   40.6430   26.9550   44.0800 H   0  0  0  0  0  0  0  0  0  0  0  0
   39.7400   25.2280   43.2380 C   0  0  0  0  0  0  0  0  0  0  0  0
   38.8650   25.0200   42.6060 H   0  0  0  0  0  0  0  0  0  0  0  0
   39.8300   24.4480   44.0450 H   0  0  0  0  0  0  0  0  0  0  0  0
   41.0010   25.2400   42.4620 C   0  0  0  0  0  0  0  0  0  0  0  0
   42.2580   25.2210   43.0740 C   0  0  0  0  0  0  0  0  0  0  0  0
   42.4830   25.1960   44.1190 H   0  0  0  0  0  0  0  0  0  0  0  0
   43.1080   25.2420   42.0050 N   0  0  0  0  0  0  0  0  0  0  0  0
   44.1470   25.2340   42.1820 H   0  0  0  0  0  0  0  0  0  0  0  0
   42.4070   25.2720   40.8430 C   0  0  0  0  0  0  0  0  0  0  0  0
   42.9760   25.2910   39.9240 H   0  0  0  0  0  0  0  0  0  0  0  0
   41.0900   25.2710   41.1190 N   0  0  0  0  0  0  0  0  0  0  0  0
   36.2090   30.4910   40.9920 S   0  0  0  0  0  0  0  0  0  0  0  0
   36.3470   30.2060   39.2450 C   0  0  0  0  0  0  0  0  0  0  0  0
   35.6290   29.2260   38.5640 C   0  0  0  0  0  0  0  0  0  0  0  0
   35.7950   29.0660   37.1910 C   0  0  0  0  0  0  0  0  0  0  0  0
   36.6530   29.8550   36.4840 C   0  0  0  0  0  0  0  0  0  0  0  0
   37.3650   30.8280   37.1630 C   0  0  0  0  0  0  0  0  0  0  0  0
   37.2220   31.0100   38.5230 C   0  0  0  0  0  0  0  0  0  0  0  0
   34.9640   28.6230   39.1460 H   0  0  0  0  0  0  0  0  0  0  0  0
   35.2280   28.3000   36.6830 H   0  0  0  0  0  0  0  0  0  0  0  0
   36.7970   29.7490   35.4170 H   0  0  0  0  0  0  0  0  0  0  0  0
   38.0640   31.4870   36.6510 H   0  0  0  0  0  0  0  0  0  0  0  0
   37.9820   32.0420   39.2220 C   0  0  0  0  0  0  0  0  0  0  0  0
   37.5260   33.2910   39.4860 C   0  0  0  0  0  0  0  0  0  0  0  0
   38.2790   34.2590   40.1590 C   0  0  0  0  0  0  0  0  0  0  0  0
   39.5140   33.9360   40.5620 N   0  0  0  0  0  0  0  0  0  0  0  0
   39.9690   32.6970   40.3000 C   0  0  0  0  0  0  0  0  0  0  0  0
   39.2310   31.7820   39.6540 N   0  0  0  0  0  0  0  0  0  0  0  0
   36.5150   33.5470   39.1530 H   0  0  0  0  0  0  0  0  0  0  0  0
   37.8790   35.2530   40.3530 H   0  0  0  0  0  0  0  0  0  0  0  0
   40.9640   32.3350   40.5880 H   0  0  0  0  0  0  0  0  0  0  0  0
  1  6  1  0  0  0  0
  2  1  2  0  0  0  0
  2  3  1  0  0  0  0
  3  4  2  0  0  0  0
  4  5  1  0  0  0  0
  5  9  1  0  0  0  0
  6  5  2  0  0  0  0
  7  1  1  0  0  0  0
  8  3  1  0  0  0  0
  9 11  1  0  0  0  0
  9 10  1  0  0  0  0
 12  9  1  0  0  0  0
 12 14  1  0  0  0  0
 13 12  1  0  0  0  0
 15 16  2  0  0  0  0
 15 12  1  0  0  0  0
 16 17  1  0  0  0  0
 18 19  1  0  0  0  0
 18 16  1  0  0  0  0
 20 22  2  0  0  0  0
 20 18  1  0  0  0  0
 21 20  1  0  0  0  0
 22 15  1  0  0  0  0
 23  2  1  0  0  0  0
 24 23  1  0  0  0  0
 25 30  1  0  0  0  0
 25 24  1  0  0  0  0
 26 25  2  0  0  0  0
 27 28  2  0  0  0  0
 27 26  1  0  0  0  0
 28 29  1  0  0  0  0
 29 34  1  0  0  0  0
 29 24  2  0  0  0  0
 31 26  1  0  0  0  0
 32 27  1  0  0  0  0
 33 28  1  0  0  0  0
 34 35  2  0  0  0  0
 34 39  1  0  0  0  0
 35 36  1  0  0  0  0
 36 41  1  0  0  0  0
 36 37  2  0  0  0  0
 38 37  1  0  0  0  0
 38 42  1  0  0  0  0
 39 38  2  0  0  0  0
 40 35  1  0  0  0  0
M  END
>  <minimizedAffinity>
-6.17453575

$$$$

 OpenBabel03242517493D

 42 45  0  0  0  0  0  0  0  0999 V2000
   38.8820   29.6910   42.0580 C   0  0  0  0  0  0  0  0  0  0  0  0
   37.4960   29.5240   41.9870 C   0  0  0  0  0  0  0  0  0  0  0  0
   36.9460   28.4020   42.6040 C   0  0  0  0  0  0  0  0  0  0  0  0
   37.7680   27.5410   43.2340 N   0  0  0  0  0  0  0  0  0  0  0  0
   39.1090   27.7430   43.2780 C   0  0  0  0  0  0  0  0  0  0  0  0
   39.6930   28.7990   42.7050 N   0  0  0  0  0  0  0  0  0  0  0  0
   39.3680   30.5500   41.5920 H   0  0  0  0  0  0  0  0  0  0  0  0
   35.8820   28.2970   42.5360 H   0  0  0  0  0  0  0  0  0  0  0  0
   39.9400   26.7300   44.0010 C   0  0  0  0  0  0  0  0  0  0  0  0
   39.2910   25.9700   44.4780 H   0  0  0  0  0  0  0  0  0  0  0  0
   40.5470   27.1970   44.7810 H   0  0  0  0  0  0  0  0  0  0  0  0
   40.8760   26.0070   43.0540 C   0  0  0  0  0  0  0  0  0  0  0  0
   41.6870   25.4840   43.5800 H   0  0  0  0  0  0  0  0  0  0  0  0
   41.3000   26.8000   42.3770 H   0  0  0  0  0  0  0  0  0  0  0  0
   40.0570   25.0860   42.2330 C   0  0  0  0  0  0  0  0  0  0  0  0
   39.2580   24.0870   42.7980 C   0  0  0  0  0  0  0  0  0  0  0  0
   39.1260   23.8550   43.8330 H   0  0  0  0  0  0  0  0  0  0  0  0
   38.7010   23.4980   41.6990 N   0  0  0  0  0  0  0  0  0  0  0  0
   38.0360   22.6920   41.8370 H   0  0  0  0  0  0  0  0  0  0  0  0
   39.1370   24.1020   40.5650 C   0  0  0  0  0  0  0  0  0  0  0  0
   38.7610   23.7190   39.6260 H   0  0  0  0  0  0  0  0  0  0  0  0
   39.9840   25.0950   40.8890 N   0  0  0  0  0  0  0  0  0  0  0  0
   36.4940   30.7160   41.1320 S   0  0  0  0  0  0  0  0  0  0  0  0
   36.5520   30.4130   39.3830 C   0  0  0  0  0  0  0  0  0  0  0  0
   35.8240   29.4080   38.7500 C   0  0  0  0  0  0  0  0  0  0  0  0
   35.9250   29.2360   37.3720 C   0  0  0  0  0  0  0  0  0  0  0  0
   36.7290   30.0340   36.6150 C   0  0  0  0  0  0  0  0  0  0  0  0
   37.4510   31.0320   37.2470 C   0  0  0  0  0  0  0  0  0  0  0  0
   37.3710   31.2270   38.6100 C   0  0  0  0  0  0  0  0  0  0  0  0
   35.2020   28.7980   39.3720 H   0  0  0  0  0  0  0  0  0  0  0  0
   35.3510   28.4500   36.9020 H   0  0  0  0  0  0  0  0  0  0  0  0
   36.8230   29.9180   35.5430 H   0  0  0  0  0  0  0  0  0  0  0  0
   38.1090   31.6990   36.6930 H   0  0  0  0  0  0  0  0  0  0  0  0
   38.1420   32.2850   39.2580 C   0  0  0  0  0  0  0  0  0  0  0  0
   37.6470   33.4980   39.6040 C   0  0  0  0  0  0  0  0  0  0  0  0
   38.4110   34.4920   40.2260 C   0  0  0  0  0  0  0  0  0  0  0  0
   39.6970   34.2310   40.4920 N   0  0  0  0  0  0  0  0  0  0  0  0
   40.1890   33.0270   40.1490 C   0  0  0  0  0  0  0  0  0  0  0  0
   39.4400   32.0870   39.5540 N   0  0  0  0  0  0  0  0  0  0  0  0
   36.5940   33.7030   39.3820 H   0  0  0  0  0  0  0  0  0  0  0  0
   37.9780   35.4560   40.4880 H   0  0  0  0  0  0  0  0  0  0  0  0
   41.2270   32.7170   40.3240 H   0  0  0  0  0  0  0  0  0  0  0  0
  1  6  1  0  0  0  0
  2  1  2  0  0  0  0
  2  3  1  0  0  0  0
  3  4  2  0  0  0  0
  4  5  1  0  0  0  0
  5  9  1  0  0  0  0
  6  5  2  0  0  0  0
  7  1  1  0  0  0  0
  8  3  1  0  0  0  0
  9 10  1  0  0  0  0
  9 11  1  0  0  0  0
 12 13  1  0  0  0  0
 12  9  1  0  0  0  0
 14 12  1  0  0  0  0
 15 16  2  0  0  0  0
 15 12  1  0  0  0  0
 16 17  1  0  0  0  0
 18 19  1  0  0  0  0
 18 16  1  0  0  0  0
 20 22  2  0  0  0  0
 20 18  1  0  0  0  0
 21 20  1  0  0  0  0
 22 15  1  0  0  0  0
 23  2  1  0  0  0  0
 24 23  1  0  0  0  0
 25 30  1  0  0  0  0
 25 24  1  0  0  0  0
 26 25  2  0  0  0  0
 27 28  2  0  0  0  0
 27 26  1  0  0  0  0
 28 29  1  0  0  0  0
 29 34  1  0  0  0  0
 29 24  2  0  0  0  0
 31 26  1  0  0  0  0
 32 27  1  0  0  0  0
 33 28  1  0  0  0  0
 34 39  2  0  0  0  0
 34 35  1  0  0  0  0
 35 36  2  0  0  0  0
 36 41  1  0  0  0  0
 36 37  1  0  0  0  0
 38 42  1  0  0  0  0
 38 37  2  0  0  0  0
 39 38  1  0  0  0  0
 40 35  1  0  0  0  0
M  END
>  <minimizedAffinity>
-6.07859802

$$$$

 OpenBabel03242517493D

 42 45  0  0  0  0  0  0  0  0999 V2000
   38.8680   30.8790   39.8760 C   0  0  0  0  0  0  0  0  0  0  0  0
   37.7110   31.5320   40.3090 C   0  0  0  0  0  0  0  0  0  0  0  0
   37.7110   32.9260   40.2980 C   0  0  0  0  0  0  0  0  0  0  0  0
   38.8140   33.5700   39.8730 N   0  0  0  0  0  0  0  0  0  0  0  0
   39.9160   32.8940   39.4610 C   0  0  0  0  0  0  0  0  0  0  0  0
   39.9760   31.5600   39.4500 N   0  0  0  0  0  0  0  0  0  0  0  0
   38.9260   29.7890   39.8640 H   0  0  0  0  0  0  0  0  0  0  0  0
   36.8130   33.4030   40.6330 H   0  0  0  0  0  0  0  0  0  0  0  0
   41.0950   33.6990   39.0080 C   0  0  0  0  0  0  0  0  0  0  0  0
   41.0720   33.8270   37.9080 H   0  0  0  0  0  0  0  0  0  0  0  0
   42.0350   33.2120   39.2740 H   0  0  0  0  0  0  0  0  0  0  0  0
   41.0920   35.0800   39.6320 C   0  0  0  0  0  0  0  0  0  0  0  0
   40.0810   35.4200   39.8960 H   0  0  0  0  0  0  0  0  0  0  0  0
   41.5430   35.7660   38.8600 H   0  0  0  0  0  0  0  0  0  0  0  0
   41.9960   35.0440   40.8040 C   0  0  0  0  0  0  0  0  0  0  0  0
   41.9830   36.0340   41.7920 C   0  0  0  0  0  0  0  0  0  0  0  0
   41.3630   36.9030   41.8460 H   0  0  0  0  0  0  0  0  0  0  0  0
   42.9520   35.6060   42.6520 N   0  0  0  0  0  0  0  0  0  0  0  0
   43.1590   36.1800   43.5110 H   0  0  0  0  0  0  0  0  0  0  0  0
   43.5020   34.4470   42.2090 C   0  0  0  0  0  0  0  0  0  0  0  0
   44.2850   34.0090   42.8120 H   0  0  0  0  0  0  0  0  0  0  0  0
   42.9100   34.0890   41.0550 N   0  0  0  0  0  0  0  0  0  0  0  0
   36.3040   30.5930   40.8510 S   0  0  0  0  0  0  0  0  0  0  0  0
   36.0100   29.2450   39.7330 C   0  0  0  0  0  0  0  0  0  0  0  0
   35.3550   29.3840   38.5120 C   0  0  0  0  0  0  0  0  0  0  0  0
   35.1640   28.2750   37.6920 C   0  0  0  0  0  0  0  0  0  0  0  0
   35.6080   27.0390   38.0560 C   0  0  0  0  0  0  0  0  0  0  0  0
   36.2590   26.9040   39.2710 C   0  0  0  0  0  0  0  0  0  0  0  0
   36.4620   27.9840   40.1040 C   0  0  0  0  0  0  0  0  0  0  0  0
   35.0190   30.3670   38.2540 H   0  0  0  0  0  0  0  0  0  0  0  0
   34.6540   28.4060   36.7490 H   0  0  0  0  0  0  0  0  0  0  0  0
   35.4710   26.1640   37.4350 H   0  0  0  0  0  0  0  0  0  0  0  0
   36.6340   25.9420   39.6140 H   0  0  0  0  0  0  0  0  0  0  0  0
   37.1510   27.8210   41.3820 C   0  0  0  0  0  0  0  0  0  0  0  0
   36.5360   27.7650   42.5880 C   0  0  0  0  0  0  0  0  0  0  0  0
   37.2240   27.6070   43.7960 C   0  0  0  0  0  0  0  0  0  0  0  0
   38.5590   27.5090   43.7580 N   0  0  0  0  0  0  0  0  0  0  0  0
   39.1710   27.5650   42.5610 C   0  0  0  0  0  0  0  0  0  0  0  0
   38.4930   27.7160   41.4140 N   0  0  0  0  0  0  0  0  0  0  0  0
   35.4440   27.8460   42.6090 H   0  0  0  0  0  0  0  0  0  0  0  0
   36.6950   27.5670   44.7470 H   0  0  0  0  0  0  0  0  0  0  0  0
   40.2570   27.4950   42.4240 H   0  0  0  0  0  0  0  0  0  0  0  0
  1  2  1  0  0  0  0
  2 23  1  0  0  0  0
  3  2  2  0  0  0  0
  3  8  1  0  0  0  0
  4  3  1  0  0  0  0
  5  4  2  0  0  0  0
  6  5  1  0  0  0  0
  6  1  2  0  0  0  0
  7  1  1  0  0  0  0
  9 11  1  0  0  0  0
  9  5  1  0  0  0  0
  9 12  1  0  0  0  0
 10  9  1  0  0  0  0
 12 13  1  0  0  0  0
 12 15  1  0  0  0  0
 14 12  1  0  0  0  0
 15 22  1  0  0  0  0
 15 16  2  0  0  0  0
 16 17  1  0  0  0  0
 16 18  1  0  0  0  0
 18 19  1  0  0  0  0
 20 18  1  0  0  0  0
 20 21  1  0  0  0  0
 22 20  2  0  0  0  0
 24 29  1  0  0  0  0
 24 23  1  0  0  0  0
 25 24  2  0  0  0  0
 26 27  2  0  0  0  0
 26 25  1  0  0  0  0
 27 28  1  0  0  0  0
 28 33  1  0  0  0  0
 28 29  2  0  0  0  0
 29 34  1  0  0  0  0
 30 25  1  0  0  0  0
 31 26  1  0  0  0  0
 32 27  1  0  0  0  0
 34 39  2  0  0  0  0
 34 35  1  0  0  0  0
 35 40  1  0  0  0  0
 35 36  2  0  0  0  0
 36 41  1  0  0  0  0
 37 36  1  0  0  0  0
 38 37  2  0  0  0  0
 39 38  1  0  0  0  0
 42 38  1  0  0  0  0
M  END
>  <minimizedAffinity>
-6.00912237

$$$$

 OpenBabel03242517493D

 42 45  0  0  0  0  0  0  0  0999 V2000
   38.7910   30.7840   41.5090 C   0  0  0  0  0  0  0  0  0  0  0  0
   37.6190   31.2410   40.8980 C   0  0  0  0  0  0  0  0  0  0  0  0
   37.6760   32.4530   40.2110 C   0  0  0  0  0  0  0  0  0  0  0  0
   38.8450   33.1190   40.1690 N   0  0  0  0  0  0  0  0  0  0  0  0
   39.9590   32.6370   40.7770 C   0  0  0  0  0  0  0  0  0  0  0  0
   39.9660   31.4840   41.4490 N   0  0  0  0  0  0  0  0  0  0  0  0
   38.8050   29.8430   42.0600 H   0  0  0  0  0  0  0  0  0  0  0  0
   36.7660   32.7810   39.7520 H   0  0  0  0  0  0  0  0  0  0  0  0
   41.2120   33.4500   40.6750 C   0  0  0  0  0  0  0  0  0  0  0  0
   42.0920   32.7860   40.5700 H   0  0  0  0  0  0  0  0  0  0  0  0
   41.3570   34.0710   41.5610 H   0  0  0  0  0  0  0  0  0  0  0  0
   41.1790   34.3640   39.4660 C   0  0  0  0  0  0  0  0  0  0  0  0
   40.9930   35.4130   39.7370 H   0  0  0  0  0  0  0  0  0  0  0  0
   40.3470   33.9780   38.8130 H   0  0  0  0  0  0  0  0  0  0  0  0
   42.4570   34.1920   38.7400 C   0  0  0  0  0  0  0  0  0  0  0  0
   42.5290   34.1730   37.3430 C   0  0  0  0  0  0  0  0  0  0  0  0
   41.7300   34.2730   36.6400 H   0  0  0  0  0  0  0  0  0  0  0  0
   43.8640   33.9950   37.1180 N   0  0  0  0  0  0  0  0  0  0  0  0
   44.2090   33.9440   36.1230 H   0  0  0  0  0  0  0  0  0  0  0  0
   44.5360   33.9140   38.2940 C   0  0  0  0  0  0  0  0  0  0  0  0
   45.6070   33.7730   38.2420 H   0  0  0  0  0  0  0  0  0  0  0  0
   43.6650   34.0360   39.3120 N   0  0  0  0  0  0  0  0  0  0  0  0
   36.1230   30.2900   41.0100 S   0  0  0  0  0  0  0  0  0  0  0  0
   36.5140   28.5740   41.2500 C   0  0  0  0  0  0  0  0  0  0  0  0
   36.7030   27.9940   42.5020 C   0  0  0  0  0  0  0  0  0  0  0  0
   37.0070   26.6390   42.6040 C   0  0  0  0  0  0  0  0  0  0  0  0
   37.1270   25.8540   41.4970 C   0  0  0  0  0  0  0  0  0  0  0  0
   36.9390   26.4330   40.2540 C   0  0  0  0  0  0  0  0  0  0  0  0
   36.6360   27.7720   40.1210 C   0  0  0  0  0  0  0  0  0  0  0  0
   36.6010   28.6360   43.3520 H   0  0  0  0  0  0  0  0  0  0  0  0
   37.1500   26.2100   43.5850 H   0  0  0  0  0  0  0  0  0  0  0  0
   37.3640   24.7990   41.5540 H   0  0  0  0  0  0  0  0  0  0  0  0
   37.0230   25.8550   39.3360 H   0  0  0  0  0  0  0  0  0  0  0  0
   36.4420   28.3650   38.8010 C   0  0  0  0  0  0  0  0  0  0  0  0
   35.2510   28.4440   38.1590 C   0  0  0  0  0  0  0  0  0  0  0  0
   35.0960   29.0190   36.8920 C   0  0  0  0  0  0  0  0  0  0  0  0
   36.1800   29.5170   36.2840 N   0  0  0  0  0  0  0  0  0  0  0  0
   37.3630   29.4400   36.9210 C   0  0  0  0  0  0  0  0  0  0  0  0
   37.4900   28.8840   38.1350 N   0  0  0  0  0  0  0  0  0  0  0  0
   34.3700   28.0340   38.6630 H   0  0  0  0  0  0  0  0  0  0  0  0
   34.1220   29.0640   36.4070 H   0  0  0  0  0  0  0  0  0  0  0  0
   38.3070   29.8170   36.5080 H   0  0  0  0  0  0  0  0  0  0  0  0
  1  7  1  0  0  0  0
  2 23  1  0  0  0  0
  2  1  2  0  0  0  0
  3  2  1  0  0  0  0
  4  3  2  0  0  0  0
  4  5  1  0  0  0  0
  5  6  2  0  0  0  0
  6  1  1  0  0  0  0
  8  3  1  0  0  0  0
  9  5  1  0  0  0  0
  9 11  1  0  0  0  0
 10  9  1  0  0  0  0
 12 13  1  0  0  0  0
 12  9  1  0  0  0  0
 14 12  1  0  0  0  0
 15 22  1  0  0  0  0
 15 12  1  0  0  0  0
 16 15  2  0  0  0  0
 17 16  1  0  0  0  0
 18 16  1  0  0  0  0
 18 20  1  0  0  0  0
 19 18  1  0  0  0  0
 20 22  2  0  0  0  0
 21 20  1  0  0  0  0
 23 24  1  0  0  0  0
 24 25  1  0  0  0  0
 25 26  2  0  0  0  0
 25 30  1  0  0  0  0
 26 31  1  0  0  0  0
 27 32  1  0  0  0  0
 27 26  1  0  0  0  0
 28 27  2  0  0  0  0
 29 28  1  0  0  0  0
 29 24  2  0  0  0  0
 33 28  1  0  0  0  0
 34 29  1  0  0  0  0
 35 40  1  0  0  0  0
 35 34  1  0  0  0  0
 36 35  2  0  0  0  0
 37 36  1  0  0  0  0
 37 38  2  0  0  0  0
 38 39  1  0  0  0  0
 39 34  2  0  0  0  0
 41 36  1  0  0  0  0
 42 38  1  0  0  0  0
M  END
>  <minimizedAffinity>
-5.82798815

$$$$

 OpenBabel03242517493D

 42 45  0  0  0  0  0  0  0  0999 V2000
   36.4770   28.9800   41.5050 C   0  0  0  0  0  0  0  0  0  0  0  0
   37.5380   28.8640   42.4080 C   0  0  0  0  0  0  0  0  0  0  0  0
   38.5010   29.8710   42.4090 C   0  0  0  0  0  0  0  0  0  0  0  0
   38.3650   30.8980   41.5480 N   0  0  0  0  0  0  0  0  0  0  0  0
   37.3170   30.9700   40.6890 C   0  0  0  0  0  0  0  0  0  0  0  0
   36.3640   30.0360   40.6420 N   0  0  0  0  0  0  0  0  0  0  0  0
   35.6940   28.2210   41.4600 H   0  0  0  0  0  0  0  0  0  0  0  0
   39.3030   29.7600   43.1090 H   0  0  0  0  0  0  0  0  0  0  0  0
   37.2530   32.1510   39.7700 C   0  0  0  0  0  0  0  0  0  0  0  0
   37.0170   33.0690   40.3410 H   0  0  0  0  0  0  0  0  0  0  0  0
   36.4840   32.0180   39.0060 H   0  0  0  0  0  0  0  0  0  0  0  0
   38.5760   32.3740   39.0660 C   0  0  0  0  0  0  0  0  0  0  0  0
   38.4750   32.3770   37.9710 H   0  0  0  0  0  0  0  0  0  0  0  0
   39.2430   31.5270   39.3910 H   0  0  0  0  0  0  0  0  0  0  0  0
   39.1480   33.6390   39.5800 C   0  0  0  0  0  0  0  0  0  0  0  0
   40.5060   33.9520   39.4560 C   0  0  0  0  0  0  0  0  0  0  0  0
   41.2790   33.3670   39.0050 H   0  0  0  0  0  0  0  0  0  0  0  0
   40.5830   35.1770   40.0540 N   0  0  0  0  0  0  0  0  0  0  0  0
   41.5180   35.6610   40.1030 H   0  0  0  0  0  0  0  0  0  0  0  0
   39.3610   35.5640   40.5000 C   0  0  0  0  0  0  0  0  0  0  0  0
   39.2960   36.5230   40.9940 H   0  0  0  0  0  0  0  0  0  0  0  0
   38.4600   34.6090   40.2080 N   0  0  0  0  0  0  0  0  0  0  0  0
   37.6300   27.4700   43.5050 S   0  0  0  0  0  0  0  0  0  0  0  0
   37.8290   25.9750   42.5680 C   0  0  0  0  0  0  0  0  0  0  0  0
   36.7630   25.2130   42.0970 C   0  0  0  0  0  0  0  0  0  0  0  0
   37.0040   24.0510   41.3680 C   0  0  0  0  0  0  0  0  0  0  0  0
   38.2730   23.6340   41.0980 C   0  0  0  0  0  0  0  0  0  0  0  0
   39.3310   24.3940   41.5670 C   0  0  0  0  0  0  0  0  0  0  0  0
   39.1240   25.5490   42.2920 C   0  0  0  0  0  0  0  0  0  0  0  0
   35.7790   25.5660   42.3240 H   0  0  0  0  0  0  0  0  0  0  0  0
   36.1630   23.4750   41.0120 H   0  0  0  0  0  0  0  0  0  0  0  0
   38.4840   22.7350   40.5340 H   0  0  0  0  0  0  0  0  0  0  0  0
   40.3650   24.1100   41.3830 H   0  0  0  0  0  0  0  0  0  0  0  0
   40.2520   26.3380   42.7790 C   0  0  0  0  0  0  0  0  0  0  0  0
   40.7720   26.2500   44.0270 C   0  0  0  0  0  0  0  0  0  0  0  0
   41.8570   27.0200   44.4650 C   0  0  0  0  0  0  0  0  0  0  0  0
   42.4060   27.8880   43.6060 N   0  0  0  0  0  0  0  0  0  0  0  0
   41.8910   27.9750   42.3660 C   0  0  0  0  0  0  0  0  0  0  0  0
   40.8510   27.2280   41.9660 N   0  0  0  0  0  0  0  0  0  0  0  0
   40.3160   25.5380   44.7230 H   0  0  0  0  0  0  0  0  0  0  0  0
   42.2470   26.9230   45.4760 H   0  0  0  0  0  0  0  0  0  0  0  0
   42.2690   28.6540   41.5910 H   0  0  0  0  0  0  0  0  0  0  0  0
  1  2  1  0  0  0  0
  2  3  2  0  0  0  0
  2 23  1  0  0  0  0
  3  8  1  0  0  0  0
  4  3  1  0  0  0  0
  5  4  2  0  0  0  0
  6  5  1  0  0  0  0
  6  1  2  0  0  0  0
  7  1  1  0  0  0  0
  9 10  1  0  0  0  0
  9  5  1  0  0  0  0
 11  9  1  0  0  0  0
 12 14  1  0  0  0  0
 12 15  1  0  0  0  0
 12  9  1  0  0  0  0
 13 12  1  0  0  0  0
 15 22  1  0  0  0  0
 16 15  2  0  0  0  0
 16 18  1  0  0  0  0
 17 16  1  0  0  0  0
 18 19  1  0  0  0  0
 18 20  1  0  0  0  0
 20 21  1  0  0  0  0
 22 20  2  0  0  0  0
 24 23  1  0  0  0  0
 25 30  1  0  0  0  0
 25 24  2  0  0  0  0
 26 25  1  0  0  0  0
 27 26  2  0  0  0  0
 27 28  1  0  0  0  0
 28 29  2  0  0  0  0
 29 24  1  0  0  0  0
 29 34  1  0  0  0  0
 31 26  1  0  0  0  0
 32 27  1  0  0  0  0
 33 28  1  0  0  0  0
 34 35  1  0  0  0  0
 35 36  2  0  0  0  0
 35 40  1  0  0  0  0
 36 41  1  0  0  0  0
 37 36  1  0  0  0  0
 38 37  2  0  0  0  0
 39 38  1  0  0  0  0
 39 34  2  0  0  0  0
 42 38  1  0  0  0  0
M  END
>  <minimizedAffinity>
-5.81088781

$$$$

 OpenBabel03242517493D

 42 45  0  0  0  0  0  0  0  0999 V2000
   38.9520   30.9750   41.8840 C   0  0  0  0  0  0  0  0  0  0  0  0
   37.7910   31.1760   41.1300 C   0  0  0  0  0  0  0  0  0  0  0  0
   36.7640   30.2430   41.2620 C   0  0  0  0  0  0  0  0  0  0  0  0
   36.9370   29.2040   42.1000 N   0  0  0  0  0  0  0  0  0  0  0  0
   38.0810   29.0480   42.8130 C   0  0  0  0  0  0  0  0  0  0  0  0
   39.0990   29.9080   42.7280 N   0  0  0  0  0  0  0  0  0  0  0  0
   39.7890   31.6720   41.8210 H   0  0  0  0  0  0  0  0  0  0  0  0
   35.8860   30.4190   40.6750 H   0  0  0  0  0  0  0  0  0  0  0  0
   38.1790   27.8600   43.7190 C   0  0  0  0  0  0  0  0  0  0  0  0
   37.2870   27.2150   43.6020 H   0  0  0  0  0  0  0  0  0  0  0  0
   38.2460   28.1630   44.7660 H   0  0  0  0  0  0  0  0  0  0  0  0
   39.3990   27.0210   43.3970 C   0  0  0  0  0  0  0  0  0  0  0  0
   40.0660   26.8990   44.2620 H   0  0  0  0  0  0  0  0  0  0  0  0
   39.9350   27.5650   42.5690 H   0  0  0  0  0  0  0  0  0  0  0  0
   38.9230   25.7230   42.8680 C   0  0  0  0  0  0  0  0  0  0  0  0
   39.7090   24.5670   42.9010 C   0  0  0  0  0  0  0  0  0  0  0  0
   40.7010   24.4540   43.2850 H   0  0  0  0  0  0  0  0  0  0  0  0
   38.8930   23.6380   42.3230 N   0  0  0  0  0  0  0  0  0  0  0  0
   39.2430   22.6490   42.2170 H   0  0  0  0  0  0  0  0  0  0  0  0
   37.7090   24.2000   41.9720 C   0  0  0  0  0  0  0  0  0  0  0  0
   36.9770   23.5570   41.5030 H   0  0  0  0  0  0  0  0  0  0  0  0
   37.7190   25.5020   42.3090 N   0  0  0  0  0  0  0  0  0  0  0  0
   37.6590   32.5800   40.0500 S   0  0  0  0  0  0  0  0  0  0  0  0
   39.2220   32.8920   39.2690 C   0  0  0  0  0  0  0  0  0  0  0  0
   40.0750   33.9290   39.6370 C   0  0  0  0  0  0  0  0  0  0  0  0
   41.2860   34.1060   38.9720 C   0  0  0  0  0  0  0  0  0  0  0  0
   41.6660   33.2790   37.9570 C   0  0  0  0  0  0  0  0  0  0  0  0
   40.8160   32.2490   37.5940 C   0  0  0  0  0  0  0  0  0  0  0  0
   39.6100   32.0490   38.2330 C   0  0  0  0  0  0  0  0  0  0  0  0
   39.7500   34.5610   40.4370 H   0  0  0  0  0  0  0  0  0  0  0  0
   41.9330   34.9170   39.2740 H   0  0  0  0  0  0  0  0  0  0  0  0
   42.6010   33.3990   37.4270 H   0  0  0  0  0  0  0  0  0  0  0  0
   41.0650   31.5580   36.7910 H   0  0  0  0  0  0  0  0  0  0  0  0
   38.7270   30.9560   37.8350 C   0  0  0  0  0  0  0  0  0  0  0  0
   37.6140   31.1010   37.0760 C   0  0  0  0  0  0  0  0  0  0  0  0
   36.7860   30.0330   36.7100 C   0  0  0  0  0  0  0  0  0  0  0  0
   37.1110   28.8050   37.1340 N   0  0  0  0  0  0  0  0  0  0  0  0
   38.2160   28.6590   37.8880 C   0  0  0  0  0  0  0  0  0  0  0  0
   38.9960   29.6960   38.2270 N   0  0  0  0  0  0  0  0  0  0  0  0
   37.3560   32.1090   36.7340 H   0  0  0  0  0  0  0  0  0  0  0  0
   35.8990   30.1890   36.0990 H   0  0  0  0  0  0  0  0  0  0  0  0
   38.5660   27.6980   38.2830 H   0  0  0  0  0  0  0  0  0  0  0  0
  1  6  1  0  0  0  0
  2  3  1  0  0  0  0
  2  1  2  0  0  0  0
  3  4  2  0  0  0  0
  4  5  1  0  0  0  0
  5  9  1  0  0  0  0
  6  5  2  0  0  0  0
  7  1  1  0  0  0  0
  8  3  1  0  0  0  0
  9 11  1  0  0  0  0
 10  9  1  0  0  0  0
 12  9  1  0  0  0  0
 12 13  1  0  0  0  0
 14 12  1  0  0  0  0
 15 16  2  0  0  0  0
 15 12  1  0  0  0  0
 16 17  1  0  0  0  0
 18 16  1  0  0  0  0
 19 18  1  0  0  0  0
 20 22  2  0  0  0  0
 20 18  1  0  0  0  0
 21 20  1  0  0  0  0
 22 15  1  0  0  0  0
 23  2  1  0  0  0  0
 24 25  1  0  0  0  0
 24 23  1  0  0  0  0
 25 30  1  0  0  0  0
 26 31  1  0  0  0  0
 26 25  2  0  0  0  0
 27 26  1  0  0  0  0
 28 27  2  0  0  0  0
 28 29  1  0  0  0  0
 29 24  2  0  0  0  0
 32 27  1  0  0  0  0
 33 28  1  0  0  0  0
 34 39  1  0  0  0  0
 34 29  1  0  0  0  0
 35 34  2  0  0  0  0
 36 35  1  0  0  0  0
 36 37  2  0  0  0  0
 37 38  1  0  0  0  0
 38 39  2  0  0  0  0
 38 42  1  0  0  0  0
 40 35  1  0  0  0  0
 41 36  1  0  0  0  0
M  END
>  <minimizedAffinity>
-5.73425865

$$$$

 OpenBabel03242517493D

 42 45  0  0  0  0  0  0  0  0999 V2000
   41.1420   29.2710   42.4980 C   0  0  0  0  0  0  0  0  0  0  0  0
   40.5710   30.4510   42.0090 C   0  0  0  0  0  0  0  0  0  0  0  0
   39.1830   30.5660   42.0550 C   0  0  0  0  0  0  0  0  0  0  0  0
   38.4650   29.5460   42.5620 N   0  0  0  0  0  0  0  0  0  0  0  0
   39.0620   28.4190   43.0250 C   0  0  0  0  0  0  0  0  0  0  0  0
   40.3860   28.2510   43.0080 N   0  0  0  0  0  0  0  0  0  0  0  0
   42.2230   29.1250   42.4870 H   0  0  0  0  0  0  0  0  0  0  0  0
   38.7710   31.4780   41.6760 H   0  0  0  0  0  0  0  0  0  0  0  0
   38.1780   27.3400   43.5700 C   0  0  0  0  0  0  0  0  0  0  0  0
   37.6130   27.7130   44.4460 H   0  0  0  0  0  0  0  0  0  0  0  0
   38.7600   26.4710   43.8850 H   0  0  0  0  0  0  0  0  0  0  0  0
   37.1720   26.8760   42.5360 C   0  0  0  0  0  0  0  0  0  0  0  0
   37.1030   27.5610   41.6790 H   0  0  0  0  0  0  0  0  0  0  0  0
   36.1830   26.8250   43.0720 H   0  0  0  0  0  0  0  0  0  0  0  0
   37.5500   25.5050   42.1270 C   0  0  0  0  0  0  0  0  0  0  0  0
   38.7160   24.8800   42.5830 C   0  0  0  0  0  0  0  0  0  0  0  0
   39.4560   25.2710   43.2480 H   0  0  0  0  0  0  0  0  0  0  0  0
   38.6600   23.6640   41.9670 N   0  0  0  0  0  0  0  0  0  0  0  0
   39.4360   22.9710   42.1380 H   0  0  0  0  0  0  0  0  0  0  0  0
   37.5440   23.5710   41.2000 C   0  0  0  0  0  0  0  0  0  0  0  0
   37.3910   22.6470   40.6610 H   0  0  0  0  0  0  0  0  0  0  0  0
   36.8450   24.7160   41.2950 N   0  0  0  0  0  0  0  0  0  0  0  0
   41.6050   31.7410   41.3590 S   0  0  0  0  0  0  0  0  0  0  0  0
   41.8570   31.4950   39.6190 C   0  0  0  0  0  0  0  0  0  0  0  0
   42.5790   30.4290   39.0870 C   0  0  0  0  0  0  0  0  0  0  0  0
   42.7310   30.3080   37.7080 C   0  0  0  0  0  0  0  0  0  0  0  0
   42.1840   31.2150   36.8520 C   0  0  0  0  0  0  0  0  0  0  0  0
   41.4660   32.2730   37.3830 C   0  0  0  0  0  0  0  0  0  0  0  0
   41.2980   32.4200   38.7450 C   0  0  0  0  0  0  0  0  0  0  0  0
   42.9970   29.7330   39.7850 H   0  0  0  0  0  0  0  0  0  0  0  0
   43.2950   29.4730   37.3180 H   0  0  0  0  0  0  0  0  0  0  0  0
   42.2890   31.1410   35.7780 H   0  0  0  0  0  0  0  0  0  0  0  0
   41.0070   33.0290   36.7480 H   0  0  0  0  0  0  0  0  0  0  0  0
   40.5380   33.5430   39.2860 C   0  0  0  0  0  0  0  0  0  0  0  0
   39.2440   33.4780   39.6830 C   0  0  0  0  0  0  0  0  0  0  0  0
   38.5410   34.5730   40.1990 C   0  0  0  0  0  0  0  0  0  0  0  0
   39.1800   35.7450   40.3040 N   0  0  0  0  0  0  0  0  0  0  0  0
   40.4650   35.8110   39.9110 C   0  0  0  0  0  0  0  0  0  0  0  0
   41.1210   34.7490   39.4190 N   0  0  0  0  0  0  0  0  0  0  0  0
   38.7290   32.5160   39.5930 H   0  0  0  0  0  0  0  0  0  0  0  0
   37.5010   34.4830   40.5070 H   0  0  0  0  0  0  0  0  0  0  0  0
   41.0750   36.7220   39.9560 H   0  0  0  0  0  0  0  0  0  0  0  0
  1  6  1  0  0  0  0
  2  3  1  0  0  0  0
  2  1  2  0  0  0  0
  3  4  2  0  0  0  0
  4  5  1  0  0  0  0
  5  9  1  0  0  0  0
  6  5  2  0  0  0  0
  7  1  1  0  0  0  0
  8  3  1  0  0  0  0
  9 11  1  0  0  0  0
  9 10  1  0  0  0  0
 12 14  1  0  0  0  0
 12  9  1  0  0  0  0
 13 12  1  0  0  0  0
 15 12  1  0  0  0  0
 15 16  2  0  0  0  0
 16 17  1  0  0  0  0
 18 19  1  0  0  0  0
 18 16  1  0  0  0  0
 20 22  2  0  0  0  0
 20 18  1  0  0  0  0
 21 20  1  0  0  0  0
 22 15  1  0  0  0  0
 23  2  1  0  0  0  0
 24 23  1  0  0  0  0
 25 24  1  0  0  0  0
 25 30  1  0  0  0  0
 26 25  2  0  0  0  0
 27 28  2  0  0  0  0
 27 26  1  0  0  0  0
 28 29  1  0  0  0  0
 29 34  1  0  0  0  0
 29 24  2  0  0  0  0
 31 26  1  0  0  0  0
 32 27  1  0  0  0  0
 33 28  1  0  0  0  0
 34 39  2  0  0  0  0
 34 35  1  0  0  0  0
 35 36  2  0  0  0  0
 36 37  1  0  0  0  0
 36 41  1  0  0  0  0
 38 42  1  0  0  0  0
 38 37  2  0  0  0  0
 39 38  1  0  0  0  0
 40 35  1  0  0  0  0
M  END
>  <minimizedAffinity>
-5.6794467

$$$$
