
 OpenBabel03252508163D

 36 39  0  0  1  0  0  0  0  0999 V2000
   38.6820   26.9320   43.6800 C   0  0  0  0  0  0  0  0  0  0  0  0
   39.0250   27.0640   44.7100 H   0  0  0  0  0  0  0  0  0  0  0  0
   37.7590   26.3100   43.6730 H   0  0  0  0  0  0  0  0  0  0  0  0
   39.6760   26.2630   42.7620 C   0  0  1  0  0  0  0  0  0  0  0  0
   40.2910   25.0020   43.2520 C   0  0  0  0  0  0  0  0  0  0  0  0
   39.3450   24.9530   42.1520 C   0  0  1  0  0  0  0  0  0  0  0  0
   40.2370   26.9510   42.0900 H   0  0  0  0  0  0  0  0  0  0  0  0
   41.3810   24.8250   43.1060 H   0  0  0  0  0  0  0  0  0  0  0  0
   39.9680   24.6390   44.2530 H   0  0  0  0  0  0  0  0  0  0  0  0
   39.8130   24.7170   41.1470 H   0  0  0  0  0  0  0  0  0  0  0  0
   37.9460   24.4780   42.2520 C   0  0  0  0  0  0  0  0  0  0  0  0
   37.4980   23.5320   41.1080 C   0  0  0  0  0  0  0  0  0  0  0  0
   36.9870   24.9140   41.1350 C   0  0  0  0  0  0  0  0  0  0  0  0
   37.4920   24.2850   43.2420 H   0  0  0  0  0  0  0  0  0  0  0  0
   36.8120   22.7170   41.3860 H   0  0  0  0  0  0  0  0  0  0  0  0
   38.2490   23.2940   40.3370 H   0  0  0  0  0  0  0  0  0  0  0  0
   37.3830   25.6920   40.4300 H   0  0  0  0  0  0  0  0  0  0  0  0
   35.9490   25.1470   41.4450 H   0  0  0  0  0  0  0  0  0  0  0  0
   38.4220   28.3950   41.8310 C   0  0  0  0  0  3  0  0  0  0  0  0
   38.2450   28.2620   43.0890 C   0  0  0  0  0  3  0  0  0  0  0  0
   36.4550   31.3250   40.7780 C   0  0  0  0  0  0  0  0  0  0  0  0
   37.3340   32.0250   39.9620 C   0  0  0  0  0  0  0  0  0  0  0  0
   38.5740   31.4780   39.8040 C   0  0  0  0  0  0  0  0  0  0  0  0
   38.8850   30.3200   40.4230 N   0  0  0  0  0  0  0  0  0  0  0  0
   38.0280   29.6580   41.2050 C   0  0  0  0  0  0  0  0  0  0  0  0
   36.8170   30.1810   41.3680 N   0  0  0  0  0  0  0  0  0  0  0  0
   35.4590   31.7100   40.9400 H   0  0  0  0  0  0  0  0  0  0  0  0
   37.0090   32.9460   39.5010 H   0  0  0  0  0  0  0  0  0  0  0  0
   39.5610   32.1410   38.9680 C   0  0  0  0  0  0  0  0  0  0  0  0
   39.7250   31.9760   37.6060 C   0  0  0  0  0  0  0  0  0  0  0  0
   39.0820   31.2950   37.0280 H   0  0  0  0  0  0  0  0  0  0  0  0
   40.7430   32.7570   37.1760 N   0  0  0  0  0  0  0  0  0  0  0  0
   40.9910   32.7460   36.1710 H   0  0  0  0  0  0  0  0  0  0  0  0
   41.1970   33.3930   38.2730 C   0  0  0  0  0  0  0  0  0  0  0  0
   42.0280   34.0840   38.1640 H   0  0  0  0  0  0  0  0  0  0  0  0
   40.4860   33.0250   39.3640 N   0  0  0  0  0  0  0  0  0  0  0  0
  1  2  1  0  0  0  0
  3  1  1  0  0  0  0
  4  7  1  6  0  0  0
  4  5  1  0  0  0  0
  4  1  1  0  0  0  0
  5  9  1  0  0  0  0
  6 10  1  6  0  0  0
  6 11  1  0  0  0  0
  6  4  1  0  0  0  0
  6  5  1  0  0  0  0
  8  5  1  0  0  0  0
 11 14  1  0  0  0  0
 12 13  1  0  0  0  0
 12 15  1  0  0  0  0
 12 11  1  0  0  0  0
 13 18  1  0  0  0  0
 13 11  1  0  0  0  0
 16 12  1  0  0  0  0
 17 13  1  0  0  0  0
 19 20  2  0  0  0  0
 20  1  1  0  0  0  0
 21 27  1  0  0  0  0
 21 26  1  0  0  0  0
 22 21  2  0  0  0  0
 23 22  1  0  0  0  0
 23 24  2  0  0  0  0
 24 25  1  0  0  0  0
 25 26  2  0  0  0  0
 25 19  1  0  0  0  0
 28 22  1  0  0  0  0
 29 36  1  0  0  0  0
 29 23  1  0  0  0  0
 30 29  2  0  0  0  0
 31 30  1  0  0  0  0
 32 30  1  0  0  0  0
 32 34  1  0  0  0  0
 33 32  1  0  0  0  0
 34 36  2  0  0  0  0
 35 34  1  0  0  0  0
M  END
>  <minimizedAffinity>
-5.31273937

$$$$

 OpenBabel03252508163D

 36 39  0  0  1  0  0  0  0  0999 V2000
   36.4110   23.4270   40.0090 C   0  0  0  0  0  0  0  0  0  0  0  0
   37.3270   22.9080   39.7130 H   0  0  0  0  0  0  0  0  0  0  0  0
   35.7450   22.7220   40.5560 H   0  0  0  0  0  0  0  0  0  0  0  0
   35.6090   23.9990   38.8660 C   0  0  1  0  0  0  0  0  0  0  0  0
   35.4620   23.1410   37.6610 C   0  0  0  0  0  0  0  0  0  0  0  0
   34.3070   23.3890   38.5040 C   0  0  1  0  0  0  0  0  0  0  0  0
   35.6340   25.1090   38.7790 H   0  0  0  0  0  0  0  0  0  0  0  0
   35.5640   23.5910   36.6460 H   0  0  0  0  0  0  0  0  0  0  0  0
   35.9440   22.1390   37.6930 H   0  0  0  0  0  0  0  0  0  0  0  0
   33.5290   24.0680   38.0380 H   0  0  0  0  0  0  0  0  0  0  0  0
   33.7160   22.4120   39.4490 C   0  0  0  0  0  0  0  0  0  0  0  0
   32.5230   21.6010   38.8810 C   0  0  0  0  0  0  0  0  0  0  0  0
   32.2620   22.6570   39.8740 C   0  0  0  0  0  0  0  0  0  0  0  0
   34.3590   21.8800   40.1750 H   0  0  0  0  0  0  0  0  0  0  0  0
   32.4470   20.5510   39.2030 H   0  0  0  0  0  0  0  0  0  0  0  0
   32.2290   21.8130   37.8400 H   0  0  0  0  0  0  0  0  0  0  0  0
   31.8250   23.6450   39.5690 H   0  0  0  0  0  0  0  0  0  0  0  0
   32.0150   22.4190   40.9280 H   0  0  0  0  0  0  0  0  0  0  0  0
   36.9390   25.6780   40.5370 C   0  0  0  0  0  3  0  0  0  0  0  0
   36.7190   24.5170   41.0220 C   0  0  0  0  0  3  0  0  0  0  0  0
   37.7890   27.5530   43.5910 C   0  0  0  0  0  0  0  0  0  0  0  0
   37.7890   28.8750   43.1660 C   0  0  0  0  0  0  0  0  0  0  0  0
   37.5060   29.0840   41.8470 C   0  0  0  0  0  0  0  0  0  0  0  0
   37.2460   28.0350   41.0390 N   0  0  0  0  0  0  0  0  0  0  0  0
   37.2500   26.7680   41.4620 C   0  0  0  0  0  0  0  0  0  0  0  0
   37.5250   26.5520   42.7450 N   0  0  0  0  0  0  0  0  0  0  0  0
   38.0070   27.3270   44.6240 H   0  0  0  0  0  0  0  0  0  0  0  0
   38.0060   29.6590   43.8760 H   0  0  0  0  0  0  0  0  0  0  0  0
   37.4820   30.4350   41.3120 C   0  0  0  0  0  0  0  0  0  0  0  0
   36.3660   31.1310   40.8930 C   0  0  0  0  0  0  0  0  0  0  0  0
   35.3590   30.6860   40.9380 H   0  0  0  0  0  0  0  0  0  0  0  0
   36.7350   32.3580   40.4580 N   0  0  0  0  0  0  0  0  0  0  0  0
   36.0070   33.0050   40.1090 H   0  0  0  0  0  0  0  0  0  0  0  0
   38.0720   32.4070   40.6130 C   0  0  0  0  0  0  0  0  0  0  0  0
   38.5940   33.3140   40.3230 H   0  0  0  0  0  0  0  0  0  0  0  0
   38.5340   31.2440   41.1300 N   0  0  0  0  0  0  0  0  0  0  0  0
  1  3  1  0  0  0  0
  1 20  1  0  0  0  0
  2  1  1  0  0  0  0
  4  7  1  6  0  0  0
  4  1  1  0  0  0  0
  5  9  1  0  0  0  0
  5  6  1  0  0  0  0
  5  4  1  0  0  0  0
  6 10  1  6  0  0  0
  6  4  1  0  0  0  0
  6 11  1  0  0  0  0
  8  5  1  0  0  0  0
 11 13  1  0  0  0  0
 11 14  1  0  0  0  0
 12 15  1  0  0  0  0
 12 11  1  0  0  0  0
 12 13  1  0  0  0  0
 13 18  1  0  0  0  0
 16 12  1  0  0  0  0
 17 13  1  0  0  0  0
 19 20  2  0  0  0  0
 19 25  1  0  0  0  0
 21 27  1  0  0  0  0
 22 21  1  0  0  0  0
 22 28  1  0  0  0  0
 23 22  2  0  0  0  0
 24 25  2  0  0  0  0
 24 23  1  0  0  0  0
 25 26  1  0  0  0  0
 26 21  2  0  0  0  0
 29 23  1  0  0  0  0
 30 31  1  0  0  0  0
 30 29  2  0  0  0  0
 32 34  1  0  0  0  0
 32 30  1  0  0  0  0
 33 32  1  0  0  0  0
 34 36  2  0  0  0  0
 35 34  1  0  0  0  0
 36 29  1  0  0  0  0
M  END
>  <minimizedAffinity>
-5.19749022

$$$$

 OpenBabel03252508163D

 36 39  0  0  1  0  0  0  0  0999 V2000
   37.1040   28.9180   41.5950 C   0  0  0  0  0  0  0  0  0  0  0  0
   36.1830   28.7900   41.0190 H   0  0  0  0  0  0  0  0  0  0  0  0
   37.9030   28.2720   41.1670 H   0  0  0  0  0  0  0  0  0  0  0  0
   36.9890   28.5720   43.0590 C   0  0  1  0  0  0  0  0  0  0  0  0
   36.5780   27.1820   43.3850 C   0  0  0  0  0  0  0  0  0  0  0  0
   37.9380   27.6060   43.6620 C   0  0  1  0  0  0  0  0  0  0  0  0
   36.7170   29.4210   43.7260 H   0  0  0  0  0  0  0  0  0  0  0  0
   35.8350   27.0000   44.1950 H   0  0  0  0  0  0  0  0  0  0  0  0
   36.3940   26.4960   42.5280 H   0  0  0  0  0  0  0  0  0  0  0  0
   38.1710   27.7270   44.7640 H   0  0  0  0  0  0  0  0  0  0  0  0
   39.1290   27.2210   42.8690 C   0  0  0  0  0  0  0  0  0  0  0  0
   40.2480   26.5180   43.6790 C   0  0  0  0  0  0  0  0  0  0  0  0
   40.4520   27.9070   43.2340 C   0  0  0  0  0  0  0  0  0  0  0  0
   39.0170   26.8940   41.8180 H   0  0  0  0  0  0  0  0  0  0  0  0
   40.7990   25.7180   43.1610 H   0  0  0  0  0  0  0  0  0  0  0  0
   40.0600   26.3620   44.7550 H   0  0  0  0  0  0  0  0  0  0  0  0
   40.3740   28.7640   43.9550 H   0  0  0  0  0  0  0  0  0  0  0  0
   41.1230   28.1570   42.3880 H   0  0  0  0  0  0  0  0  0  0  0  0
   38.4740   30.5060   40.4870 C   0  0  0  0  0  3  0  0  0  0  0  0
   37.6390   30.3320   41.4380 C   0  0  0  0  0  3  0  0  0  0  0  0
   38.9380   34.1590   40.5640 C   0  0  0  0  0  0  0  0  0  0  0  0
   40.1120   34.3480   39.8480 C   0  0  0  0  0  0  0  0  0  0  0  0
   40.7130   33.2210   39.3680 C   0  0  0  0  0  0  0  0  0  0  0  0
   40.1610   32.0120   39.5990 N   0  0  0  0  0  0  0  0  0  0  0  0
   39.0300   31.8460   40.2900 C   0  0  0  0  0  0  0  0  0  0  0  0
   38.4360   32.9360   40.7630 N   0  0  0  0  0  0  0  0  0  0  0  0
   38.4180   35.0150   40.9680 H   0  0  0  0  0  0  0  0  0  0  0  0
   40.4890   35.3500   39.7050 H   0  0  0  0  0  0  0  0  0  0  0  0
   41.9470   33.3220   38.6060 C   0  0  0  0  0  0  0  0  0  0  0  0
   42.1030   33.0540   37.2600 C   0  0  0  0  0  0  0  0  0  0  0  0
   41.2560   32.7280   36.6360 H   0  0  0  0  0  0  0  0  0  0  0  0
   43.3930   33.2580   36.9060 N   0  0  0  0  0  0  0  0  0  0  0  0
   43.6730   33.0990   35.9220 H   0  0  0  0  0  0  0  0  0  0  0  0
   44.0180   33.6480   38.0330 C   0  0  0  0  0  0  0  0  0  0  0  0
   45.0810   33.8700   37.9850 H   0  0  0  0  0  0  0  0  0  0  0  0
   43.1490   33.6890   39.0690 N   0  0  0  0  0  0  0  0  0  0  0  0
  1  4  1  0  0  0  0
  2  1  1  0  0  0  0
  3  1  1  0  0  0  0
  4  5  1  0  0  0  0
  4  6  1  0  0  0  0
  4  7  1  1  0  0  0
  5  6  1  0  0  0  0
  5  8  1  0  0  0  0
  6 10  1  1  0  0  0
  9  5  1  0  0  0  0
 11 13  1  0  0  0  0
 11  6  1  0  0  0  0
 11 12  1  0  0  0  0
 12 16  1  0  0  0  0
 13 12  1  0  0  0  0
 13 17  1  0  0  0  0
 14 11  1  0  0  0  0
 15 12  1  0  0  0  0
 18 13  1  0  0  0  0
 19 20  2  0  0  0  0
 20  1  1  0  0  0  0
 21 26  1  0  0  0  0
 21 27  1  0  0  0  0
 22 21  2  0  0  0  0
 23 24  2  0  0  0  0
 23 22  1  0  0  0  0
 24 25  1  0  0  0  0
 25 19  1  0  0  0  0
 25 26  2  0  0  0  0
 28 22  1  0  0  0  0
 29 36  1  0  0  0  0
 29 23  1  0  0  0  0
 30 29  2  0  0  0  0
 31 30  1  0  0  0  0
 32 30  1  0  0  0  0
 32 34  1  0  0  0  0
 33 32  1  0  0  0  0
 34 36  2  0  0  0  0
 35 34  1  0  0  0  0
M  END
>  <minimizedAffinity>
-5.16104794

$$$$

 OpenBabel03252508163D

 36 39  0  0  1  0  0  0  0  0999 V2000
   36.2800   28.7090   41.5000 C   0  0  0  0  0  0  0  0  0  0  0  0
   35.1900   28.6350   41.5370 H   0  0  0  0  0  0  0  0  0  0  0  0
   36.6670   28.0780   40.6680 H   0  0  0  0  0  0  0  0  0  0  0  0
   36.9890   28.2700   42.7570 C   0  0  1  0  0  0  0  0  0  0  0  0
   36.2310   27.3760   43.6710 C   0  0  0  0  0  0  0  0  0  0  0  0
   37.3610   26.8450   42.9310 C   0  0  1  0  0  0  0  0  0  0  0  0
   37.7410   28.9900   43.1530 H   0  0  0  0  0  0  0  0  0  0  0  0
   36.2700   27.5480   44.7710 H   0  0  0  0  0  0  0  0  0  0  0  0
   35.2030   27.0890   43.3580 H   0  0  0  0  0  0  0  0  0  0  0  0
   38.2700   26.6210   43.5690 H   0  0  0  0  0  0  0  0  0  0  0  0
   37.2640   25.9570   41.7490 C   0  0  0  0  0  0  0  0  0  0  0  0
   38.0460   24.6240   41.8730 C   0  0  0  0  0  0  0  0  0  0  0  0
   38.5660   25.6790   40.9870 C   0  0  0  0  0  0  0  0  0  0  0  0
   36.3290   25.9150   41.1590 H   0  0  0  0  0  0  0  0  0  0  0  0
   37.5810   23.7380   41.4140 H   0  0  0  0  0  0  0  0  0  0  0  0
   38.5900   24.4540   42.8170 H   0  0  0  0  0  0  0  0  0  0  0  0
   39.4500   26.3040   41.2860 H   0  0  0  0  0  0  0  0  0  0  0  0
   38.4820   25.6090   39.8840 H   0  0  0  0  0  0  0  0  0  0  0  0
   37.9660   30.3190   41.0610 C   0  0  0  0  0  3  0  0  0  0  0  0
   36.7070   30.1210   41.1310 C   0  0  0  0  0  3  0  0  0  0  0  0
   38.0560   33.8300   39.9550 C   0  0  0  0  0  0  0  0  0  0  0  0
   39.4020   34.1620   40.0490 C   0  0  0  0  0  0  0  0  0  0  0  0
   40.2350   33.1770   40.4950 C   0  0  0  0  0  0  0  0  0  0  0  0
   39.7360   31.9650   40.8150 N   0  0  0  0  0  0  0  0  0  0  0  0
   38.4390   31.6610   40.7180 C   0  0  0  0  0  0  0  0  0  0  0  0
   37.6170   32.6120   40.2850 N   0  0  0  0  0  0  0  0  0  0  0  0
   37.3500   34.5700   39.6070 H   0  0  0  0  0  0  0  0  0  0  0  0
   39.7220   35.1550   39.7730 H   0  0  0  0  0  0  0  0  0  0  0  0
   41.6600   33.4330   40.6260 C   0  0  0  0  0  0  0  0  0  0  0  0
   42.3980   34.3490   39.9020 C   0  0  0  0  0  0  0  0  0  0  0  0
   41.9310   34.9850   39.1330 H   0  0  0  0  0  0  0  0  0  0  0  0
   43.6900   34.3030   40.3010 N   0  0  0  0  0  0  0  0  0  0  0  0
   44.3750   34.9350   39.8500 H   0  0  0  0  0  0  0  0  0  0  0  0
   43.7360   33.3630   41.2640 C   0  0  0  0  0  0  0  0  0  0  0  0
   44.6920   33.1530   41.7360 H   0  0  0  0  0  0  0  0  0  0  0  0
   42.5090   32.8290   41.4670 N   0  0  0  0  0  0  0  0  0  0  0  0
  1  2  1  0  0  0  0
  1  4  1  0  0  0  0
  3  1  1  0  0  0  0
  4  6  1  0  0  0  0
  4  7  1  1  0  0  0
  4  5  1  0  0  0  0
  5  8  1  0  0  0  0
  6 10  1  1  0  0  0
  6  5  1  0  0  0  0
  9  5  1  0  0  0  0
 11 12  1  0  0  0  0
 11  6  1  0  0  0  0
 12 16  1  0  0  0  0
 13 17  1  0  0  0  0
 13 11  1  0  0  0  0
 13 12  1  0  0  0  0
 14 11  1  0  0  0  0
 15 12  1  0  0  0  0
 18 13  1  0  0  0  0
 19 20  2  0  0  0  0
 20  1  1  0  0  0  0
 21 22  2  0  0  0  0
 21 26  1  0  0  0  0
 22 23  1  0  0  0  0
 23 29  1  0  0  0  0
 23 24  2  0  0  0  0
 25 24  1  0  0  0  0
 25 19  1  0  0  0  0
 26 25  2  0  0  0  0
 27 21  1  0  0  0  0
 28 22  1  0  0  0  0
 29 36  1  0  0  0  0
 30 32  1  0  0  0  0
 30 29  2  0  0  0  0
 31 30  1  0  0  0  0
 32 34  1  0  0  0  0
 33 32  1  0  0  0  0
 34 36  2  0  0  0  0
 34 35  1  0  0  0  0
M  END
>  <minimizedAffinity>
-5.09672451

$$$$

 OpenBabel03252508163D

 36 39  0  0  1  0  0  0  0  0999 V2000
   32.9340   28.7850   37.5980 C   0  0  0  0  0  0  0  0  0  0  0  0
   32.7790   27.7030   37.5710 H   0  0  0  0  0  0  0  0  0  0  0  0
   32.1700   29.2530   38.2590 H   0  0  0  0  0  0  0  0  0  0  0  0
   32.8440   29.4720   36.2580 C   0  0  1  0  0  0  0  0  0  0  0  0
   31.8700   28.9100   35.2860 C   0  0  0  0  0  0  0  0  0  0  0  0
   31.6090   30.2040   35.8900 C   0  0  1  0  0  0  0  0  0  0  0  0
   33.7840   29.9580   35.9110 H   0  0  0  0  0  0  0  0  0  0  0  0
   32.1570   28.8020   34.2150 H   0  0  0  0  0  0  0  0  0  0  0  0
   31.2730   28.0330   35.6200 H   0  0  0  0  0  0  0  0  0  0  0  0
   31.7180   31.0790   35.1780 H   0  0  0  0  0  0  0  0  0  0  0  0
   30.6140   30.4610   36.9570 C   0  0  0  0  0  0  0  0  0  0  0  0
   29.2630   31.0360   36.4600 C   0  0  0  0  0  0  0  0  0  0  0  0
   30.1970   31.9220   37.1750 C   0  0  0  0  0  0  0  0  0  0  0  0
   30.5590   29.7960   37.8390 H   0  0  0  0  0  0  0  0  0  0  0  0
   28.3600   30.6940   36.9890 H   0  0  0  0  0  0  0  0  0  0  0  0
   29.1590   31.1950   35.3740 H   0  0  0  0  0  0  0  0  0  0  0  0
   30.8050   32.6890   36.6260 H   0  0  0  0  0  0  0  0  0  0  0  0
   30.0230   32.2290   38.2260 H   0  0  0  0  0  0  0  0  0  0  0  0
   34.2590   29.1040   39.5390 C   0  0  0  0  0  3  0  0  0  0  0  0
   34.2600   29.1170   38.2620 C   0  0  0  0  0  3  0  0  0  0  0  0
   37.2290   28.8630   41.7030 C   0  0  0  0  0  0  0  0  0  0  0  0
   37.8360   30.1040   41.5550 C   0  0  0  0  0  0  0  0  0  0  0  0
   37.2150   30.9810   40.7140 C   0  0  0  0  0  0  0  0  0  0  0  0
   36.0770   30.6210   40.0830 N   0  0  0  0  0  0  0  0  0  0  0  0
   35.5050   29.4240   40.2370 C   0  0  0  0  0  0  0  0  0  0  0  0
   36.1010   28.5600   41.0530 N   0  0  0  0  0  0  0  0  0  0  0  0
   37.6760   28.1280   42.3560 H   0  0  0  0  0  0  0  0  0  0  0  0
   38.7460   30.3160   42.0950 H   0  0  0  0  0  0  0  0  0  0  0  0
   37.7770   32.3030   40.4960 C   0  0  0  0  0  0  0  0  0  0  0  0
   37.3440   33.2370   39.5750 C   0  0  0  0  0  0  0  0  0  0  0  0
   36.4940   33.0320   38.9050 H   0  0  0  0  0  0  0  0  0  0  0  0
   38.1100   34.3490   39.6630 N   0  0  0  0  0  0  0  0  0  0  0  0
   37.9090   35.1460   39.0340 H   0  0  0  0  0  0  0  0  0  0  0  0
   39.0060   34.0910   40.6350 C   0  0  0  0  0  0  0  0  0  0  0  0
   39.7360   34.8570   40.8820 H   0  0  0  0  0  0  0  0  0  0  0  0
   38.8120   32.8530   41.1450 N   0  0  0  0  0  0  0  0  0  0  0  0
  1  3  1  0  0  0  0
  1 20  1  0  0  0  0
  2  1  1  0  0  0  0
  4  7  1  6  0  0  0
  4  1  1  0  0  0  0
  5  9  1  0  0  0  0
  5  6  1  0  0  0  0
  5  4  1  0  0  0  0
  6 10  1  6  0  0  0
  6  4  1  0  0  0  0
  6 11  1  0  0  0  0
  8  5  1  0  0  0  0
 11 13  1  0  0  0  0
 11 14  1  0  0  0  0
 12 11  1  0  0  0  0
 12 15  1  0  0  0  0
 12 13  1  0  0  0  0
 13 18  1  0  0  0  0
 16 12  1  0  0  0  0
 17 13  1  0  0  0  0
 19 25  1  0  0  0  0
 20 19  2  0  0  0  0
 21 27  1  0  0  0  0
 22 21  1  0  0  0  0
 22 28  1  0  0  0  0
 23 22  2  0  0  0  0
 24 25  2  0  0  0  0
 24 23  1  0  0  0  0
 25 26  1  0  0  0  0
 26 21  2  0  0  0  0
 29 23  1  0  0  0  0
 29 36  1  0  0  0  0
 30 32  1  0  0  0  0
 30 29  2  0  0  0  0
 31 30  1  0  0  0  0
 32 34  1  0  0  0  0
 33 32  1  0  0  0  0
 34 35  1  0  0  0  0
 34 36  2  0  0  0  0
M  END
>  <minimizedAffinity>
-5.05223989

$$$$

 OpenBabel03252508163D

 36 39  0  0  1  0  0  0  0  0999 V2000
   37.1830   25.8180   42.4610 C   0  0  0  0  0  0  0  0  0  0  0  0
   37.3700   25.6860   43.5310 H   0  0  0  0  0  0  0  0  0  0  0  0
   36.2300   25.3120   42.1860 H   0  0  0  0  0  0  0  0  0  0  0  0
   38.2560   25.2650   41.5570 C   0  0  1  0  0  0  0  0  0  0  0  0
   38.7310   23.8880   41.8510 C   0  0  0  0  0  0  0  0  0  0  0  0
   37.9450   24.1310   40.6550 C   0  0  1  0  0  0  0  0  0  0  0  0
   38.9400   26.0250   41.1150 H   0  0  0  0  0  0  0  0  0  0  0  0
   39.8210   23.6580   41.8080 H   0  0  0  0  0  0  0  0  0  0  0  0
   38.2550   23.3620   42.7080 H   0  0  0  0  0  0  0  0  0  0  0  0
   38.5340   24.0600   39.6900 H   0  0  0  0  0  0  0  0  0  0  0  0
   36.5220   23.7570   40.4810 C   0  0  0  0  0  0  0  0  0  0  0  0
   36.2320   22.8590   39.2510 C   0  0  0  0  0  0  0  0  0  0  0  0
   35.8230   24.2730   39.2160 C   0  0  0  0  0  0  0  0  0  0  0  0
   35.8790   23.5870   41.3640 H   0  0  0  0  0  0  0  0  0  0  0  0
   35.4520   22.0930   39.3770 H   0  0  0  0  0  0  0  0  0  0  0  0
   37.0970   22.5760   38.6280 H   0  0  0  0  0  0  0  0  0  0  0  0
   36.3970   25.0290   38.6160 H   0  0  0  0  0  0  0  0  0  0  0  0
   34.7640   24.5780   39.3330 H   0  0  0  0  0  0  0  0  0  0  0  0
   37.6160   27.7580   41.1690 C   0  0  0  0  0  3  0  0  0  0  0  0
   36.9380   27.2830   42.1400 C   0  0  0  0  0  3  0  0  0  0  0  0
   36.2350   31.1650   40.9410 C   0  0  0  0  0  0  0  0  0  0  0  0
   37.1130   31.8100   40.0800 C   0  0  0  0  0  0  0  0  0  0  0  0
   38.1550   31.0630   39.6110 C   0  0  0  0  0  0  0  0  0  0  0  0
   38.2840   29.7740   39.9880 N   0  0  0  0  0  0  0  0  0  0  0  0
   37.4300   29.1670   40.8160 C   0  0  0  0  0  0  0  0  0  0  0  0
   36.4120   29.8840   41.2810 N   0  0  0  0  0  0  0  0  0  0  0  0
   35.3930   31.7060   41.3440 H   0  0  0  0  0  0  0  0  0  0  0  0
   36.9410   32.8450   39.8260 H   0  0  0  0  0  0  0  0  0  0  0  0
   39.1250   31.6540   38.7040 C   0  0  0  0  0  0  0  0  0  0  0  0
   38.9880   31.7980   37.3370 C   0  0  0  0  0  0  0  0  0  0  0  0
   38.0830   31.4560   36.8110 H   0  0  0  0  0  0  0  0  0  0  0  0
   40.0940   32.3910   36.8320 N   0  0  0  0  0  0  0  0  0  0  0  0
   40.1450   32.5700   35.8140 H   0  0  0  0  0  0  0  0  0  0  0  0
   40.9000   32.6080   37.8890 C   0  0  0  0  0  0  0  0  0  0  0  0
   41.8610   33.0830   37.7170 H   0  0  0  0  0  0  0  0  0  0  0  0
   40.3200   32.1630   39.0280 N   0  0  0  0  0  0  0  0  0  0  0  0
  1  2  1  0  0  0  0
  3  1  1  0  0  0  0
  4  7  1  6  0  0  0
  4  5  1  0  0  0  0
  4  1  1  0  0  0  0
  5  9  1  0  0  0  0
  6 10  1  6  0  0  0
  6  4  1  0  0  0  0
  6  5  1  0  0  0  0
  8  5  1  0  0  0  0
 11  6  1  0  0  0  0
 11 14  1  0  0  0  0
 12 15  1  0  0  0  0
 12 11  1  0  0  0  0
 13 12  1  0  0  0  0
 13 18  1  0  0  0  0
 13 11  1  0  0  0  0
 16 12  1  0  0  0  0
 17 13  1  0  0  0  0
 19 20  2  0  0  0  0
 20  1  1  0  0  0  0
 21 26  1  0  0  0  0
 21 27  1  0  0  0  0
 22 21  2  0  0  0  0
 23 24  2  0  0  0  0
 23 22  1  0  0  0  0
 24 25  1  0  0  0  0
 25 19  1  0  0  0  0
 25 26  2  0  0  0  0
 28 22  1  0  0  0  0
 29 36  1  0  0  0  0
 29 23  1  0  0  0  0
 30 29  2  0  0  0  0
 31 30  1  0  0  0  0
 32 30  1  0  0  0  0
 32 34  1  0  0  0  0
 33 32  1  0  0  0  0
 34 36  2  0  0  0  0
 35 34  1  0  0  0  0
M  END
>  <minimizedAffinity>
-5.00101852

$$$$

 OpenBabel03252508163D

 36 39  0  0  1  0  0  0  0  0999 V2000
   37.0090   26.5540   42.8950 C   0  0  0  0  0  0  0  0  0  0  0  0
   36.7770   26.4370   43.9580 H   0  0  0  0  0  0  0  0  0  0  0  0
   36.0630   26.5950   42.3110 H   0  0  0  0  0  0  0  0  0  0  0  0
   37.8490   25.4480   42.3040 C   0  0  1  0  0  0  0  0  0  0  0  0
   37.1740   24.1410   42.0910 C   0  0  0  0  0  0  0  0  0  0  0  0
   37.5480   24.9460   40.9430 C   0  0  1  0  0  0  0  0  0  0  0  0
   38.9350   25.5000   42.5430 H   0  0  0  0  0  0  0  0  0  0  0  0
   37.7040   23.1960   42.3530 H   0  0  0  0  0  0  0  0  0  0  0  0
   36.1000   24.0760   42.3730 H   0  0  0  0  0  0  0  0  0  0  0  0
   38.4130   24.5250   40.3430 H   0  0  0  0  0  0  0  0  0  0  0  0
   36.6070   25.7300   40.1090 C   0  0  0  0  0  0  0  0  0  0  0  0
   36.7010   25.4510   38.5870 C   0  0  0  0  0  0  0  0  0  0  0  0
   37.2280   26.7210   39.1150 C   0  0  0  0  0  0  0  0  0  0  0  0
   35.6010   25.9810   40.4920 H   0  0  0  0  0  0  0  0  0  0  0  0
   35.7540   25.4710   38.0250 H   0  0  0  0  0  0  0  0  0  0  0  0
   37.4420   24.7000   38.2640 H   0  0  0  0  0  0  0  0  0  0  0  0
   38.3320   26.8910   39.2220 H   0  0  0  0  0  0  0  0  0  0  0  0
   36.6880   27.6790   38.9780 H   0  0  0  0  0  0  0  0  0  0  0  0
   38.9440   27.8860   42.5660 C   0  0  0  0  0  3  0  0  0  0  0  0
   37.6690   27.8990   42.6380 C   0  0  0  0  0  3  0  0  0  0  0  0
   41.5260   30.5100   42.4850 C   0  0  0  0  0  0  0  0  0  0  0  0
   40.8770   31.5810   41.8850 C   0  0  0  0  0  0  0  0  0  0  0  0
   39.5790   31.3700   41.5200 C   0  0  0  0  0  0  0  0  0  0  0  0
   39.0000   30.1730   41.7480 N   0  0  0  0  0  0  0  0  0  0  0  0
   39.6370   29.1530   42.3280 C   0  0  0  0  0  0  0  0  0  0  0  0
   40.9020   29.3460   42.6870 N   0  0  0  0  0  0  0  0  0  0  0  0
   42.5550   30.6190   42.7960 H   0  0  0  0  0  0  0  0  0  0  0  0
   41.4100   32.5080   41.7380 H   0  0  0  0  0  0  0  0  0  0  0  0
   38.8190   32.4340   40.8840 C   0  0  0  0  0  0  0  0  0  0  0  0
   37.5310   32.3410   40.3940 C   0  0  0  0  0  0  0  0  0  0  0  0
   36.9590   31.4020   40.4550 H   0  0  0  0  0  0  0  0  0  0  0  0
   37.1580   33.5340   39.8750 N   0  0  0  0  0  0  0  0  0  0  0  0
   36.2120   33.6270   39.4650 H   0  0  0  0  0  0  0  0  0  0  0  0
   38.2160   34.3490   40.0490 C   0  0  0  0  0  0  0  0  0  0  0  0
   38.1420   35.3750   39.7020 H   0  0  0  0  0  0  0  0  0  0  0  0
   39.2280   33.6900   40.6600 N   0  0  0  0  0  0  0  0  0  0  0  0
  1  2  1  0  0  0  0
  3  1  1  0  0  0  0
  4  7  1  1  0  0  0
  4  1  1  0  0  0  0
  5  4  1  0  0  0  0
  5  8  1  0  0  0  0
  5  9  1  0  0  0  0
  6 10  1  6  0  0  0
  6  5  1  0  0  0  0
  6  4  1  0  0  0  0
 11 14  1  0  0  0  0
 11  6  1  0  0  0  0
 12 13  1  0  0  0  0
 12 11  1  0  0  0  0
 13 17  1  0  0  0  0
 13 11  1  0  0  0  0
 15 12  1  0  0  0  0
 16 12  1  0  0  0  0
 18 13  1  0  0  0  0
 19 20  2  0  0  0  0
 20  1  1  0  0  0  0
 21 26  1  0  0  0  0
 21 27  1  0  0  0  0
 22 21  2  0  0  0  0
 23 24  2  0  0  0  0
 23 22  1  0  0  0  0
 24 25  1  0  0  0  0
 25 19  1  0  0  0  0
 25 26  2  0  0  0  0
 28 22  1  0  0  0  0
 29 23  1  0  0  0  0
 30 31  1  0  0  0  0
 30 29  2  0  0  0  0
 32 34  1  0  0  0  0
 32 30  1  0  0  0  0
 33 32  1  0  0  0  0
 34 36  2  0  0  0  0
 35 34  1  0  0  0  0
 36 29  1  0  0  0  0
M  END
>  <minimizedAffinity>
-4.89544964

$$$$

 OpenBabel03252508163D

 36 39  0  0  1  0  0  0  0  0999 V2000
   37.6240   25.5260   39.4170 C   0  0  0  0  0  0  0  0  0  0  0  0
   37.2770   25.1230   38.4610 H   0  0  0  0  0  0  0  0  0  0  0  0
   38.6750   25.2070   39.5940 H   0  0  0  0  0  0  0  0  0  0  0  0
   36.8190   25.0910   40.6170 C   0  0  1  0  0  0  0  0  0  0  0  0
   36.6580   23.6270   40.8160 C   0  0  0  0  0  0  0  0  0  0  0  0
   37.4900   24.3840   41.7330 C   0  0  1  0  0  0  0  0  0  0  0  0
   36.0260   25.8040   40.9380 H   0  0  0  0  0  0  0  0  0  0  0  0
   35.6670   23.2160   41.1150 H   0  0  0  0  0  0  0  0  0  0  0  0
   37.1490   22.9600   40.0730 H   0  0  0  0  0  0  0  0  0  0  0  0
   37.0460   24.5090   42.7680 H   0  0  0  0  0  0  0  0  0  0  0  0
   38.9720   24.3680   41.7500 C   0  0  0  0  0  0  0  0  0  0  0  0
   39.6040   24.2880   43.1640 C   0  0  0  0  0  0  0  0  0  0  0  0
   39.6670   25.5600   42.4230 C   0  0  0  0  0  0  0  0  0  0  0  0
   39.5330   23.8630   40.9420 H   0  0  0  0  0  0  0  0  0  0  0  0
   40.5250   23.6920   43.2560 H   0  0  0  0  0  0  0  0  0  0  0  0
   38.9070   24.2430   44.0180 H   0  0  0  0  0  0  0  0  0  0  0  0
   39.0010   26.4230   42.6940 H   0  0  0  0  0  0  0  0  0  0  0  0
   40.6030   25.9130   41.9460 H   0  0  0  0  0  0  0  0  0  0  0  0
   37.1300   27.6590   40.3270 C   0  0  0  0  0  3  0  0  0  0  0  0
   37.6940   27.0430   39.3620 C   0  0  0  0  0  3  0  0  0  0  0  0
   36.3020   31.1840   41.0000 C   0  0  0  0  0  0  0  0  0  0  0  0
   37.2390   31.8820   40.2500 C   0  0  0  0  0  0  0  0  0  0  0  0
   38.1290   31.1270   39.5430 C   0  0  0  0  0  0  0  0  0  0  0  0
   38.0650   29.7800   39.6000 N   0  0  0  0  0  0  0  0  0  0  0  0
   37.1570   29.1230   40.3260 C   0  0  0  0  0  0  0  0  0  0  0  0
   36.2850   29.8470   41.0200 N   0  0  0  0  0  0  0  0  0  0  0  0
   35.5720   31.7290   41.5800 H   0  0  0  0  0  0  0  0  0  0  0  0
   37.2230   32.9620   40.2560 H   0  0  0  0  0  0  0  0  0  0  0  0
   39.1460   31.7710   38.7290 C   0  0  0  0  0  0  0  0  0  0  0  0
   39.2150   31.7660   37.3490 C   0  0  0  0  0  0  0  0  0  0  0  0
   38.4620   31.2460   36.7370 H   0  0  0  0  0  0  0  0  0  0  0  0
   40.2990   32.4700   36.9490 N   0  0  0  0  0  0  0  0  0  0  0  0
   40.4910   32.5610   35.9360 H   0  0  0  0  0  0  0  0  0  0  0  0
   40.8870   32.9010   38.0820 C   0  0  0  0  0  0  0  0  0  0  0  0
   41.7910   33.4970   38.0010 H   0  0  0  0  0  0  0  0  0  0  0  0
   40.1940   32.4810   39.1660 N   0  0  0  0  0  0  0  0  0  0  0  0
  1  3  1  0  0  0  0
  1  4  1  0  0  0  0
  2  1  1  0  0  0  0
  4  5  1  0  0  0  0
  4  7  1  1  0  0  0
  4  6  1  0  0  0  0
  5  8  1  0  0  0  0
  5  6  1  0  0  0  0
  6 11  1  0  0  0  0
  6 10  1  1  0  0  0
  9  5  1  0  0  0  0
 11 13  1  0  0  0  0
 11 12  1  0  0  0  0
 12 15  1  0  0  0  0
 12 16  1  0  0  0  0
 13 17  1  0  0  0  0
 13 12  1  0  0  0  0
 14 11  1  0  0  0  0
 18 13  1  0  0  0  0
 20  1  1  0  0  0  0
 20 19  2  0  0  0  0
 21 26  1  0  0  0  0
 21 27  1  0  0  0  0
 22 28  1  0  0  0  0
 22 21  2  0  0  0  0
 23 24  2  0  0  0  0
 23 22  1  0  0  0  0
 24 25  1  0  0  0  0
 25 19  1  0  0  0  0
 25 26  2  0  0  0  0
 29 36  1  0  0  0  0
 29 23  1  0  0  0  0
 30 29  2  0  0  0  0
 31 30  1  0  0  0  0
 32 30  1  0  0  0  0
 32 34  1  0  0  0  0
 33 32  1  0  0  0  0
 34 36  2  0  0  0  0
 35 34  1  0  0  0  0
M  END
>  <minimizedAffinity>
-4.86192417

$$$$

 OpenBabel03252508163D

 36 39  0  0  1  0  0  0  0  0999 V2000
   39.0490   26.9690   43.0130 C   0  0  0  0  0  0  0  0  0  0  0  0
   39.5750   27.4150   43.8620 H   0  0  0  0  0  0  0  0  0  0  0  0
   38.0140   26.7000   43.3180 H   0  0  0  0  0  0  0  0  0  0  0  0
   39.6880   25.7200   42.4570 C   0  0  1  0  0  0  0  0  0  0  0  0
   39.5720   24.4890   43.2820 C   0  0  0  0  0  0  0  0  0  0  0  0
   38.8350   24.5840   42.0350 C   0  0  1  0  0  0  0  0  0  0  0  0
   40.5760   25.8920   41.8060 H   0  0  0  0  0  0  0  0  0  0  0  0
   40.4530   23.8180   43.4010 H   0  0  0  0  0  0  0  0  0  0  0  0
   39.0150   24.5750   44.2410 H   0  0  0  0  0  0  0  0  0  0  0  0
   39.2310   23.9170   41.2090 H   0  0  0  0  0  0  0  0  0  0  0  0
   37.3770   24.8200   41.9230 C   0  0  0  0  0  0  0  0  0  0  0  0
   36.6320   23.8470   40.9740 C   0  0  0  0  0  0  0  0  0  0  0  0
   36.8490   25.2390   40.5440 C   0  0  0  0  0  0  0  0  0  0  0  0
   36.8010   25.1740   42.7990 H   0  0  0  0  0  0  0  0  0  0  0  0
   35.6170   23.5460   41.2770 H   0  0  0  0  0  0  0  0  0  0  0  0
   37.2420   23.0720   40.4790 H   0  0  0  0  0  0  0  0  0  0  0  0
   37.6310   25.4950   39.7800 H   0  0  0  0  0  0  0  0  0  0  0  0
   36.0280   25.9830   40.5400 H   0  0  0  0  0  0  0  0  0  0  0  0
   37.7000   28.5160   41.8250 C   0  0  0  0  0  3  0  0  0  0  0  0
   38.8620   27.9920   41.9040 C   0  0  0  0  0  3  0  0  0  0  0  0
   36.9950   31.6810   40.0780 C   0  0  0  0  0  0  0  0  0  0  0  0
   36.9610   31.3080   38.7410 C   0  0  0  0  0  0  0  0  0  0  0  0
   37.1870   29.9890   38.4770 C   0  0  0  0  0  0  0  0  0  0  0  0
   37.4260   29.1300   39.4900 N   0  0  0  0  0  0  0  0  0  0  0  0
   37.4560   29.5030   40.7720 C   0  0  0  0  0  0  0  0  0  0  0  0
   37.2370   30.7860   41.0410 N   0  0  0  0  0  0  0  0  0  0  0  0
   36.8230   32.7120   40.3470 H   0  0  0  0  0  0  0  0  0  0  0  0
   36.7620   32.0560   37.9880 H   0  0  0  0  0  0  0  0  0  0  0  0
   37.1710   29.5060   37.1060 C   0  0  0  0  0  0  0  0  0  0  0  0
   38.0530   28.6050   36.5430 C   0  0  0  0  0  0  0  0  0  0  0  0
   38.8760   28.1640   37.1280 H   0  0  0  0  0  0  0  0  0  0  0  0
   37.7230   28.3980   35.2480 N   0  0  0  0  0  0  0  0  0  0  0  0
   38.2930   27.7430   34.6850 H   0  0  0  0  0  0  0  0  0  0  0  0
   36.6430   29.1710   35.0240 C   0  0  0  0  0  0  0  0  0  0  0  0
   36.1990   29.1650   34.0330 H   0  0  0  0  0  0  0  0  0  0  0  0
   36.3020   29.8470   36.1450 N   0  0  0  0  0  0  0  0  0  0  0  0
  1  3  1  0  0  0  0
  1  2  1  0  0  0  0
  4  7  1  6  0  0  0
  4  1  1  0  0  0  0
  4  5  1  0  0  0  0
  5  8  1  0  0  0  0
  5  9  1  0  0  0  0
  6 10  1  6  0  0  0
  6  4  1  0  0  0  0
  6  5  1  0  0  0  0
 11  6  1  0  0  0  0
 11 14  1  0  0  0  0
 12 15  1  0  0  0  0
 12 11  1  0  0  0  0
 13 12  1  0  0  0  0
 13 11  1  0  0  0  0
 16 12  1  0  0  0  0
 17 13  1  0  0  0  0
 18 13  1  0  0  0  0
 19 20  2  0  0  0  0
 20  1  1  0  0  0  0
 21 27  1  0  0  0  0
 21 26  1  0  0  0  0
 22 21  2  0  0  0  0
 23 22  1  0  0  0  0
 23 24  2  0  0  0  0
 24 25  1  0  0  0  0
 25 26  2  0  0  0  0
 25 19  1  0  0  0  0
 28 22  1  0  0  0  0
 29 23  1  0  0  0  0
 30 29  2  0  0  0  0
 30 31  1  0  0  0  0
 32 30  1  0  0  0  0
 33 32  1  0  0  0  0
 34 32  1  0  0  0  0
 34 36  2  0  0  0  0
 35 34  1  0  0  0  0
 36 29  1  0  0  0  0
M  END
>  <minimizedAffinity>
-4.84448862

$$$$
