
 OpenBabel03252509203D

 24 26  0  0  0  0  0  0  0  0999 V2000
   44.8590   35.7090   43.2320 C   0  0  0  0  0  0  0  0  0  0  0  0
   45.4420   34.4570   42.9860 C   0  0  0  0  0  0  0  0  0  0  0  0
   45.6160   33.6690   44.1050 C   0  0  0  0  0  0  0  0  0  0  0  0
   45.2290   34.1370   45.3460 N   0  0  0  0  0  0  0  0  0  0  0  0
   44.6770   35.3460   45.5260 C   0  0  0  0  0  0  0  0  0  0  0  0
   44.5030   36.1140   44.4460 N   0  0  0  0  0  0  0  0  0  0  0  0
   44.6480   36.4540   42.4660 H   0  0  0  0  0  0  0  0  0  0  0  0
   44.4510   35.5140   46.5580 H   0  0  0  0  0  0  0  0  0  0  0  0
   46.1020   32.2440   43.9460 C   0  0  0  0  0  0  0  0  0  0  0  0
   47.6290   32.2030   44.0400 C   0  0  0  0  0  0  0  0  0  0  0  0
   46.6790   31.5900   45.1050 C   0  0  0  0  0  0  0  0  0  0  0  0
   45.8270   31.7890   42.9730 H   0  0  0  0  0  0  0  0  0  0  0  0
   48.1780   33.0770   44.4390 H   0  0  0  0  0  0  0  0  0  0  0  0
   48.1950   31.5140   43.4220 H   0  0  0  0  0  0  0  0  0  0  0  0
   46.6670   30.4650   45.0720 H   0  0  0  0  0  0  0  0  0  0  0  0
   46.6320   32.0550   46.0920 H   0  0  0  0  0  0  0  0  0  0  0  0
   45.7910   34.1500   41.6180 C   0  0  0  0  0  0  0  0  0  0  0  0
   46.8660   34.3030   40.8080 C   0  0  0  0  0  0  0  0  0  0  0  0
   47.8020   34.7210   41.0530 H   0  0  0  0  0  0  0  0  0  0  0  0
   46.6320   33.8850   39.5600 N   0  0  0  0  0  0  0  0  0  0  0  0
   47.2620   33.8790   38.7330 H   0  0  0  0  0  0  0  0  0  0  0  0
   45.3730   33.4480   39.5430 C   0  0  0  0  0  0  0  0  0  0  0  0
   44.7780   33.0260   38.7440 H   0  0  0  0  0  0  0  0  0  0  0  0
   44.8940   33.6140   40.7710 N   0  0  0  0  0  0  0  0  0  0  0  0
  1  6  1  0  0  0  0
  2  1  2  0  0  0  0
  2  3  1  0  0  0  0
  3  4  2  0  0  0  0
  4  5  1  0  0  0  0
  5  8  1  0  0  0  0
  6  5  2  0  0  0  0
  7  1  1  0  0  0  0
  9 10  1  0  0  0  0
  9  3  1  0  0  0  0
  9 11  1  0  0  0  0
 10 13  1  0  0  0  0
 10 11  1  0  0  0  0
 11 16  1  0  0  0  0
 12  9  1  0  0  0  0
 14 10  1  0  0  0  0
 15 11  1  0  0  0  0
 17  2  1  0  0  0  0
 18 19  1  0  0  0  0
 18 17  2  0  0  0  0
 20 18  1  0  0  0  0
 21 20  1  0  0  0  0
 22 20  1  0  0  0  0
 22 24  2  0  0  0  0
 23 22  1  0  0  0  0
 24 17  1  0  0  0  0
M  END
>  <minimizedAffinity>
-3.84267592

>  <minimizedRMSD>
3.31167889

$$$$
