
 OpenBabel03252509153D

 24 26  0  0  0  0  0  0  0  0999 V2000
   46.0180   32.9480   45.9220 C   0  0  0  0  0  0  0  0  0  0  0  0
   45.6250   32.7540   47.2710 C   0  0  0  0  0  0  0  0  0  0  0  0
   46.0670   31.6470   47.8950 C   0  0  0  0  0  0  0  0  0  0  0  0
   46.8930   30.7280   47.2090 C   0  0  0  0  0  0  0  0  0  0  0  0
   47.0540   31.4890   45.5570 S   0  0  0  0  0  0  0  0  0  0  0  0
   44.9930   33.4740   47.7710 H   0  0  0  0  0  0  0  0  0  0  0  0
   45.8570   31.3600   48.9060 H   0  0  0  0  0  0  0  0  0  0  0  0
   44.5010   36.0630   44.5970 C   0  0  0  0  0  0  0  0  0  0  0  0
   45.1170   36.1020   43.3180 C   0  0  0  0  0  0  0  0  0  0  0  0
   46.0040   35.0820   42.9770 C   0  0  0  0  0  0  0  0  0  0  0  0
   46.2280   34.1010   43.8990 N   0  0  0  0  0  0  0  0  0  0  0  0
   45.6200   34.1010   45.1070 C   0  0  0  0  0  0  0  0  0  0  0  0
   44.7530   35.0810   45.4650 N   0  0  0  0  0  0  0  0  0  0  0  0
   43.8110   36.8440   44.8750 H   0  0  0  0  0  0  0  0  0  0  0  0
   44.9150   36.8960   42.6120 H   0  0  0  0  0  0  0  0  0  0  0  0
   46.5120   35.0370   42.0280 H   0  0  0  0  0  0  0  0  0  0  0  0
   47.5220   29.4990   47.5390 C   0  0  0  0  0  0  0  0  0  0  0  0
   48.6600   29.3980   48.3050 C   0  0  0  0  0  0  0  0  0  0  0  0
   49.2760   30.1670   48.7840 H   0  0  0  0  0  0  0  0  0  0  0  0
   48.9350   28.0850   48.3870 N   0  0  0  0  0  0  0  0  0  0  0  0
   49.7600   27.6810   48.9160 H   0  0  0  0  0  0  0  0  0  0  0  0
   48.0050   27.3610   47.6970 C   0  0  0  0  0  0  0  0  0  0  0  0
   48.0700   26.2670   47.6550 H   0  0  0  0  0  0  0  0  0  0  0  0
   47.1290   28.2700   47.1740 N   0  0  0  0  0  0  0  0  0  0  0  0
  1  2  2  0  0  0  0
  2  6  1  0  0  0  0
  2  3  1  0  0  0  0
  3  7  1  0  0  0  0
  4 17  1  0  0  0  0
  4  3  2  0  0  0  0
  5  1  1  0  0  0  0
  5  4  1  0  0  0  0
  8 14  1  0  0  0  0
  8 13  1  0  0  0  0
  9  8  2  0  0  0  0
 10  9  1  0  0  0  0
 10 11  2  0  0  0  0
 11 12  1  0  0  0  0
 12 13  2  0  0  0  0
 12  1  1  0  0  0  0
 15  9  1  0  0  0  0
 16 10  1  0  0  0  0
 17 18  2  0  0  0  0
 18 20  1  0  0  0  0
 18 19  1  0  0  0  0
 20 21  1  0  0  0  0
 22 20  1  0  0  0  0
 23 22  1  0  0  0  0
 24 17  1  0  0  0  0
 24 22  2  0  0  0  0
M  END
>  <minimizedAffinity>
-4.53664207

>  <minimizedRMSD>
1.32666397

$$$$
