
 OpenBabel03252508593D

 44 46  0  0  1  0  0  0  0  0999 V2000
   46.7270   34.3800   43.6490 N   0  0  0  0  0  0  0  0  0  0  0  0
   46.3360   35.2080   42.5580 C   0  0  0  0  0  0  0  0  0  0  0  0
   44.8440   35.3790   42.3920 C   0  0  0  0  0  0  0  0  0  0  0  0
   44.0560   35.3470   43.6730 C   0  0  0  0  0  0  0  0  0  0  0  0
   44.9640   35.2700   44.8780 C   0  0  0  0  0  0  0  0  0  0  0  0
   45.8150   33.9750   44.6070 C   0  0  2  0  0  0  0  0  0  0  0  0
   46.7310   34.9340   41.5800 H   0  0  0  0  0  0  0  0  0  0  0  0
   46.7290   36.2320   42.7690 H   0  0  0  0  0  0  0  0  0  0  0  0
   44.6400   36.3620   41.9140 H   0  0  0  0  0  0  0  0  0  0  0  0
   44.4690   34.6110   41.6540 H   0  0  0  0  0  0  0  0  0  0  0  0
   43.4630   34.3980   43.6690 H   0  0  0  0  0  0  0  0  0  0  0  0
   43.3050   36.1600   43.7480 H   0  0  0  0  0  0  0  0  0  0  0  0
   44.3580   35.1370   45.7800 H   0  0  0  0  0  0  0  0  0  0  0  0
   45.6340   36.1330   44.8730 H   0  0  0  0  0  0  0  0  0  0  0  0
   45.1090   33.1740   44.3100 H   0  0  0  0  0  0  0  0  0  0  0  0
   47.8590   33.5440   43.3710 C   0  0  0  0  0  0  0  0  0  0  0  0
   48.5870   34.1290   42.8050 H   0  0  0  0  0  0  0  0  0  0  0  0
   48.3510   33.2140   44.3120 H   0  0  0  0  0  0  0  0  0  0  0  0
   47.3900   32.3560   42.5820 C   0  0  0  0  0  0  0  0  0  0  0  0
   47.4740   31.4210   43.1500 H   0  0  0  0  0  0  0  0  0  0  0  0
   46.3180   32.4490   42.3040 H   0  0  0  0  0  0  0  0  0  0  0  0
   50.2240   31.6720   40.2080 C   0  0  0  0  0  0  0  0  0  0  0  0
   49.4670   31.7640   41.3910 C   0  0  0  0  0  0  0  0  0  0  0  0
   48.1850   32.2620   41.3280 C   0  0  0  0  0  0  0  0  0  0  0  0
   47.7180   32.6380   40.1310 N   0  0  0  0  0  0  0  0  0  0  0  0
   48.4530   32.5460   39.0030 C   0  0  0  0  0  0  0  0  0  0  0  0
   49.7070   32.0650   39.0320 N   0  0  0  0  0  0  0  0  0  0  0  0
   51.2060   31.2710   40.3750 H   0  0  0  0  0  0  0  0  0  0  0  0
   49.8510   31.4570   42.3590 H   0  0  0  0  0  0  0  0  0  0  0  0
   48.0890   32.8460   38.0310 H   0  0  0  0  0  0  0  0  0  0  0  0
   46.4150   33.7750   45.8410 O   0  0  0  0  0  0  0  0  0  0  0  0
   45.6940   31.2620   45.3410 O   0  0  0  0  0  0  0  0  0  0  0  0
   46.1700   32.2230   46.4400 P   0  0  2  0  0  0  0  0  0  0  0  0
   44.8430   32.3340   47.5160 O   0  0  0  0  0  0  0  0  0  0  0  0
   45.0000   33.0800   48.1610 H   0  0  0  0  0  0  0  0  0  0  0  0
   47.4760   31.6300   47.2800 O   0  0  0  0  0  0  0  0  0  0  0  0
   47.6540   30.2610   47.4500 C   0  0  0  0  0  0  0  0  0  0  0  0
   46.7040   29.2860   47.7600 C   0  0  0  0  0  0  0  0  0  0  0  0
   45.6600   29.4590   47.9190 H   0  0  0  0  0  0  0  0  0  0  0  0
   47.2750   28.0790   47.8370 N   0  0  0  0  0  0  0  0  0  0  0  0
   46.8000   27.1750   48.0530 H   0  0  0  0  0  0  0  0  0  0  0  0
   48.5770   28.2900   47.5760 C   0  0  0  0  0  0  0  0  0  0  0  0
   49.3110   27.4910   47.5630 H   0  0  0  0  0  0  0  0  0  0  0  0
   48.8320   29.5910   47.3400 N   0  0  0  0  0  0  0  0  0  0  0  0
  1  6  1  0  0  0  0
  2  8  1  0  0  0  0
  2  1  1  0  0  0  0
  3  2  1  0  0  0  0
  3  4  1  0  0  0  0
  4 12  1  0  0  0  0
  4  5  1  0  0  0  0
  5 13  1  0  0  0  0
  6 15  1  6  0  0  0
  6  5  1  0  0  0  0
  6 31  1  0  0  0  0
  7  2  1  0  0  0  0
  9  3  1  0  0  0  0
 10  3  1  0  0  0  0
 11  4  1  0  0  0  0
 14  5  1  0  0  0  0
 16  1  1  0  0  0  0
 16 18  1  0  0  0  0
 17 16  1  0  0  0  0
 19 20  1  0  0  0  0
 19 16  1  0  0  0  0
 21 19  1  0  0  0  0
 22 28  1  0  0  0  0
 22 23  1  0  0  0  0
 23 29  1  0  0  0  0
 24 23  2  0  0  0  0
 24 19  1  0  0  0  0
 25 24  1  0  0  0  0
 26 27  1  0  0  0  0
 26 25  2  0  0  0  0
 27 22  2  0  0  0  0
 30 26  1  0  0  0  0
 31 33  1  0  0  0  0
 33 32  2  6  0  0  0
 33 36  1  0  0  0  0
 33 34  1  0  0  0  0
 34 35  1  0  0  0  0
 36 37  1  0  0  0  0
 37 38  2  0  0  0  0
 38 40  1  0  0  0  0
 38 39  1  0  0  0  0
 40 41  1  0  0  0  0
 42 40  1  0  0  0  0
 43 42  1  0  0  0  0
 44 37  1  0  0  0  0
 44 42  2  0  0  0  0
M  END
>  <minimizedAffinity>
-4.49949598

>  <minimizedRMSD>
1.84259593

$$$$
