
 OpenBabel03252509153D

 24 26  0  0  0  0  0  0  0  0999 V2000
   45.8740   33.2010   46.2700 C   0  0  0  0  0  0  0  0  0  0  0  0
   45.3310   33.0430   47.5710 C   0  0  0  0  0  0  0  0  0  0  0  0
   45.9790   32.2240   48.4200 C   0  0  0  0  0  0  0  0  0  0  0  0
   47.1560   31.5590   48.0050 C   0  0  0  0  0  0  0  0  0  0  0  0
   47.3570   32.1370   46.2850 S   0  0  0  0  0  0  0  0  0  0  0  0
   44.4300   33.5630   47.8610 H   0  0  0  0  0  0  0  0  0  0  0  0
   45.6960   32.0010   49.4290 H   0  0  0  0  0  0  0  0  0  0  0  0
   44.2550   35.9330   44.3520 C   0  0  0  0  0  0  0  0  0  0  0  0
   44.2770   35.3570   43.0550 C   0  0  0  0  0  0  0  0  0  0  0  0
   44.8330   34.0880   42.9000 C   0  0  0  0  0  0  0  0  0  0  0  0
   45.3260   33.4720   44.0130 N   0  0  0  0  0  0  0  0  0  0  0  0
   45.2860   34.0560   45.2330 C   0  0  0  0  0  0  0  0  0  0  0  0
   44.7510   35.2890   45.4120 N   0  0  0  0  0  0  0  0  0  0  0  0
   43.8280   36.9140   44.4880 H   0  0  0  0  0  0  0  0  0  0  0  0
   43.8760   35.8770   42.1940 H   0  0  0  0  0  0  0  0  0  0  0  0
   44.8880   33.5810   41.9510 H   0  0  0  0  0  0  0  0  0  0  0  0
   48.0670   30.6560   48.6110 C   0  0  0  0  0  0  0  0  0  0  0  0
   48.2870   29.3710   48.1670 C   0  0  0  0  0  0  0  0  0  0  0  0
   47.8530   28.8150   47.3310 H   0  0  0  0  0  0  0  0  0  0  0  0
   49.2090   28.8490   48.9950 N   0  0  0  0  0  0  0  0  0  0  0  0
   49.5910   27.8630   48.9120 H   0  0  0  0  0  0  0  0  0  0  0  0
   49.5710   29.7630   49.9420 C   0  0  0  0  0  0  0  0  0  0  0  0
   50.3160   29.5080   50.7050 H   0  0  0  0  0  0  0  0  0  0  0  0
   48.8420   30.8880   49.6800 N   0  0  0  0  0  0  0  0  0  0  0  0
  1  5  1  0  0  0  0
  1  2  2  0  0  0  0
  2  6  1  0  0  0  0
  2  3  1  0  0  0  0
  3  7  1  0  0  0  0
  4  3  2  0  0  0  0
  4 17  1  0  0  0  0
  5  4  1  0  0  0  0
  8 14  1  0  0  0  0
  8 13  1  0  0  0  0
  9  8  2  0  0  0  0
 10  9  1  0  0  0  0
 10 11  2  0  0  0  0
 11 12  1  0  0  0  0
 12 13  2  0  0  0  0
 12  1  1  0  0  0  0
 15  9  1  0  0  0  0
 16 10  1  0  0  0  0
 17 24  1  0  0  0  0
 18 17  2  0  0  0  0
 18 20  1  0  0  0  0
 19 18  1  0  0  0  0
 20 22  1  0  0  0  0
 21 20  1  0  0  0  0
 22 23  1  0  0  0  0
 24 22  2  0  0  0  0
M  END
>  <minimizedAffinity>
-4.4367938

>  <minimizedRMSD>
1.06648445

$$$$
