
 OpenBabel03252506243D

 44 48  0  0  0  0  0  0  0  0999 V2000
   45.3100   30.1410   48.5190 C   0  0  0  0  0  0  0  0  0  0  0  0
   44.5410   30.9360   48.3210 H   0  0  0  0  0  0  0  0  0  0  0  0
   45.1990   29.9490   49.6170 H   0  0  0  0  0  0  0  0  0  0  0  0
   45.3050   27.6090   48.1370 C   0  0  0  0  0  0  0  0  0  0  0  0
   44.9740   28.9030   47.8350 C   0  0  0  0  0  0  0  0  0  0  0  0
   44.1890   29.0830   46.6930 C   0  0  0  0  0  0  0  0  0  0  0  0
   43.7670   28.0320   45.9090 C   0  0  0  0  0  0  0  0  0  0  0  0
   43.0350   27.9050   44.7980 N   0  0  0  0  0  0  0  0  0  0  0  0
   42.9130   26.6260   44.4260 C   0  0  0  0  0  0  0  0  0  0  0  0
   43.6040   25.8370   45.3400 C   0  0  0  0  0  0  0  0  0  0  0  0
   44.1190   26.7420   46.2400 C   0  0  0  0  0  0  0  0  0  0  0  0
   44.8880   26.5500   47.3580 C   0  0  0  0  0  0  0  0  0  0  0  0
   45.9190   27.5150   49.0380 H   0  0  0  0  0  0  0  0  0  0  0  0
   43.8530   30.0470   46.3360 H   0  0  0  0  0  0  0  0  0  0  0  0
   42.6120   28.7110   44.2870 H   0  0  0  0  0  0  0  0  0  0  0  0
   42.3610   26.2970   43.5550 H   0  0  0  0  0  0  0  0  0  0  0  0
   43.6860   24.7650   45.3020 H   0  0  0  0  0  0  0  0  0  0  0  0
   45.2810   25.1990   47.7440 C   0  0  0  0  0  0  0  0  0  0  0  0
   45.2060   24.6340   49.0010 C   0  0  0  0  0  0  0  0  0  0  0  0
   44.8240   25.1750   49.8720 H   0  0  0  0  0  0  0  0  0  0  0  0
   45.6480   23.3640   49.0280 N   0  0  0  0  0  0  0  0  0  0  0  0
   45.6670   22.7780   49.8920 H   0  0  0  0  0  0  0  0  0  0  0  0
   46.0190   23.1110   47.7400 C   0  0  0  0  0  0  0  0  0  0  0  0
   46.4270   22.1450   47.4380 H   0  0  0  0  0  0  0  0  0  0  0  0
   45.7980   24.2060   46.9830 N   0  0  0  0  0  0  0  0  0  0  0  0
   46.6680   30.6970   48.2900 C   0  0  0  0  0  0  0  0  0  0  0  0
   46.9820   31.3370   49.1320 H   0  0  0  0  0  0  0  0  0  0  0  0
   47.3700   29.8390   48.2940 H   0  0  0  0  0  0  0  0  0  0  0  0
   46.3410   32.8770   45.4700 C   0  0  0  0  0  0  0  0  0  0  0  0
   47.1850   31.8650   44.9610 C   0  0  0  0  0  0  0  0  0  0  0  0
   47.4020   30.9520   45.9330 C   0  0  0  0  0  0  0  0  0  0  0  0
   46.7270   31.3670   47.0030 N   0  0  0  0  0  0  0  0  0  0  0  0
   46.0950   32.5130   46.7270 N   0  0  0  0  0  0  0  0  0  0  0  0
   47.5800   31.8570   43.9400 H   0  0  0  0  0  0  0  0  0  0  0  0
   48.0110   30.0530   45.8540 H   0  0  0  0  0  0  0  0  0  0  0  0
   44.5230   35.9020   44.5560 C   0  0  0  0  0  0  0  0  0  0  0  0
   45.0230   36.2110   43.2930 C   0  0  0  0  0  0  0  0  0  0  0  0
   45.9890   35.3650   42.7650 C   0  0  0  0  0  0  0  0  0  0  0  0
   46.3810   34.3020   43.5090 N   0  0  0  0  0  0  0  0  0  0  0  0
   45.8910   34.0250   44.7140 C   0  0  0  0  0  0  0  0  0  0  0  0
   44.9490   34.8360   45.2440 N   0  0  0  0  0  0  0  0  0  0  0  0
   43.7670   36.5670   44.9610 H   0  0  0  0  0  0  0  0  0  0  0  0
   44.7130   37.0520   42.7040 H   0  0  0  0  0  0  0  0  0  0  0  0
   46.4490   35.5020   41.8000 H   0  0  0  0  0  0  0  0  0  0  0  0
  1  3  1  0  0  0  0
  2  1  1  0  0  0  0
  4 13  1  0  0  0  0
  5  4  1  0  0  0  0
  5  1  1  0  0  0  0
  6  5  2  0  0  0  0
  7 11  2  0  0  0  0
  7  6  1  0  0  0  0
  8  7  1  0  0  0  0
  9  8  1  0  0  0  0
  9 10  2  0  0  0  0
 10 11  1  0  0  0  0
 11 12  1  0  0  0  0
 12 18  1  0  0  0  0
 12  4  2  0  0  0  0
 14  6  1  0  0  0  0
 15  8  1  0  0  0  0
 16  9  1  0  0  0  0
 17 10  1  0  0  0  0
 18 19  2  0  0  0  0
 19 21  1  0  0  0  0
 19 20  1  0  0  0  0
 21 22  1  0  0  0  0
 23 21  1  0  0  0  0
 24 23  1  0  0  0  0
 25 23  2  0  0  0  0
 25 18  1  0  0  0  0
 26 28  1  0  0  0  0
 26  1  1  0  0  0  0
 26 27  1  0  0  0  0
 29 33  2  0  0  0  0
 30 29  1  0  0  0  0
 30 31  2  0  0  0  0
 31 32  1  0  0  0  0
 32 26  1  0  0  0  0
 33 32  1  0  0  0  0
 34 30  1  0  0  0  0
 35 31  1  0  0  0  0
 36 42  1  0  0  0  0
 36 41  1  0  0  0  0
 37 36  2  0  0  0  0
 38 37  1  0  0  0  0
 38 39  2  0  0  0  0
 39 40  1  0  0  0  0
 40 41  2  0  0  0  0
 40 29  1  0  0  0  0
 43 37  1  0  0  0  0
 44 38  1  0  0  0  0
M  END
>  <minimizedAffinity>
-5.56335926

>  <minimizedRMSD>
1.04168713

$$$$
