
 OpenBabel03252506273D

 44 48  0  0  0  0  0  0  0  0999 V2000
   35.1710   29.1400   38.7070 C   0  0  0  0  0  0  0  0  0  0  0  0
   34.2230   28.6140   38.4120 H   0  0  0  0  0  0  0  0  0  0  0  0
   34.8000   30.1030   39.1430 H   0  0  0  0  0  0  0  0  0  0  0  0
   36.3890   27.1660   39.7910 C   0  0  0  0  0  0  0  0  0  0  0  0
   35.8590   28.4280   39.7710 C   0  0  0  0  0  0  0  0  0  0  0  0
   35.9910   29.1660   40.9510 C   0  0  0  0  0  0  0  0  0  0  0  0
   36.6130   28.6650   42.0730 C   0  0  0  0  0  0  0  0  0  0  0  0
   36.8770   29.1230   43.3010 N   0  0  0  0  0  0  0  0  0  0  0  0
   37.5260   28.2170   44.0410 C   0  0  0  0  0  0  0  0  0  0  0  0
   37.7130   27.0750   43.2690 C   0  0  0  0  0  0  0  0  0  0  0  0
   37.1350   27.3910   42.0600 C   0  0  0  0  0  0  0  0  0  0  0  0
   37.0140   26.6560   40.9100 C   0  0  0  0  0  0  0  0  0  0  0  0
   36.2650   26.6260   38.8470 H   0  0  0  0  0  0  0  0  0  0  0  0
   35.6210   30.1730   41.0780 H   0  0  0  0  0  0  0  0  0  0  0  0
   36.6070   30.0740   43.6360 H   0  0  0  0  0  0  0  0  0  0  0  0
   37.8370   28.3790   45.0650 H   0  0  0  0  0  0  0  0  0  0  0  0
   38.2060   26.1760   43.5950 H   0  0  0  0  0  0  0  0  0  0  0  0
   37.5550   25.3020   40.8550 C   0  0  0  0  0  0  0  0  0  0  0  0
   36.9460   24.1410   41.2880 C   0  0  0  0  0  0  0  0  0  0  0  0
   35.9480   24.1270   41.7380 H   0  0  0  0  0  0  0  0  0  0  0  0
   37.7080   23.0500   41.0960 N   0  0  0  0  0  0  0  0  0  0  0  0
   37.4130   22.0850   41.3630 H   0  0  0  0  0  0  0  0  0  0  0  0
   38.8460   23.5350   40.5190 C   0  0  0  0  0  0  0  0  0  0  0  0
   39.6730   22.8790   40.2390 H   0  0  0  0  0  0  0  0  0  0  0  0
   38.7470   24.8730   40.3790 N   0  0  0  0  0  0  0  0  0  0  0  0
   35.9570   29.4660   37.4890 C   0  0  0  0  0  0  0  0  0  0  0  0
   36.1160   28.5690   36.8670 H   0  0  0  0  0  0  0  0  0  0  0  0
   35.3290   30.1430   36.8740 H   0  0  0  0  0  0  0  0  0  0  0  0
   38.5070   31.7070   38.6250 C   0  0  0  0  0  0  0  0  0  0  0  0
   39.2660   30.6100   38.1600 C   0  0  0  0  0  0  0  0  0  0  0  0
   38.4220   29.6650   37.6910 C   0  0  0  0  0  0  0  0  0  0  0  0
   37.1890   30.1420   37.8520 N   0  0  0  0  0  0  0  0  0  0  0  0
   37.2400   31.3580   38.4080 N   0  0  0  0  0  0  0  0  0  0  0  0
   40.3600   30.5700   38.1910 H   0  0  0  0  0  0  0  0  0  0  0  0
   38.6980   28.7020   37.2650 H   0  0  0  0  0  0  0  0  0  0  0  0
   40.9110   34.2980   39.5170 C   0  0  0  0  0  0  0  0  0  0  0  0
   40.1580   35.1890   40.2780 C   0  0  0  0  0  0  0  0  0  0  0  0
   38.8180   34.8850   40.4780 C   0  0  0  0  0  0  0  0  0  0  0  0
   38.3340   33.7480   39.9220 N   0  0  0  0  0  0  0  0  0  0  0  0
   39.0700   32.9090   39.1980 C   0  0  0  0  0  0  0  0  0  0  0  0
   40.3760   33.1890   38.9930 N   0  0  0  0  0  0  0  0  0  0  0  0
   41.9580   34.5430   39.3670 H   0  0  0  0  0  0  0  0  0  0  0  0
   40.5410   36.0900   40.7180 H   0  0  0  0  0  0  0  0  0  0  0  0
   38.1390   35.4970   41.0460 H   0  0  0  0  0  0  0  0  0  0  0  0
  1  3  1  0  0  0  0
  1  5  1  0  0  0  0
  2  1  1  0  0  0  0
  4 12  1  0  0  0  0
  5  4  2  0  0  0  0
  5  6  1  0  0  0  0
  6 14  1  0  0  0  0
  6  7  2  0  0  0  0
  7  8  1  0  0  0  0
  8 15  1  0  0  0  0
  8  9  1  0  0  0  0
  9 16  1  0  0  0  0
 10 17  1  0  0  0  0
 10  9  2  0  0  0  0
 11  7  1  0  0  0  0
 11 10  1  0  0  0  0
 12 11  2  0  0  0  0
 13  4  1  0  0  0  0
 18 12  1  0  0  0  0
 18 19  2  0  0  0  0
 19 20  1  0  0  0  0
 21 19  1  0  0  0  0
 21 22  1  0  0  0  0
 23 21  1  0  0  0  0
 24 23  1  0  0  0  0
 25 23  2  0  0  0  0
 25 18  1  0  0  0  0
 26 32  1  0  0  0  0
 26  1  1  0  0  0  0
 27 26  1  0  0  0  0
 28 26  1  0  0  0  0
 29 40  1  0  0  0  0
 30 34  1  0  0  0  0
 30 29  1  0  0  0  0
 31 32  1  0  0  0  0
 31 30  2  0  0  0  0
 32 33  1  0  0  0  0
 33 29  2  0  0  0  0
 35 31  1  0  0  0  0
 36 37  1  0  0  0  0
 37 38  2  0  0  0  0
 37 43  1  0  0  0  0
 38 44  1  0  0  0  0
 39 38  1  0  0  0  0
 40 39  2  0  0  0  0
 41 40  1  0  0  0  0
 41 36  2  0  0  0  0
 42 36  1  0  0  0  0
M  END
>  <minimizedAffinity>
-6.78450394

$$$$

 OpenBabel03252506273D

 44 48  0  0  0  0  0  0  0  0999 V2000
   38.4950   33.7440   39.5890 C   0  0  0  0  0  0  0  0  0  0  0  0
   38.6080   34.3700   38.6640 H   0  0  0  0  0  0  0  0  0  0  0  0
   37.8090   34.3570   40.2280 H   0  0  0  0  0  0  0  0  0  0  0  0
   37.7900   31.7390   38.1600 C   0  0  0  0  0  0  0  0  0  0  0  0
   37.8050   32.4970   39.3010 C   0  0  0  0  0  0  0  0  0  0  0  0
   37.0430   32.0130   40.3670 C   0  0  0  0  0  0  0  0  0  0  0  0
   36.3160   30.8460   40.2900 C   0  0  0  0  0  0  0  0  0  0  0  0
   35.5220   30.1610   41.1190 N   0  0  0  0  0  0  0  0  0  0  0  0
   35.0420   29.0520   40.5450 C   0  0  0  0  0  0  0  0  0  0  0  0
   35.5390   28.9800   39.2480 C   0  0  0  0  0  0  0  0  0  0  0  0
   36.3220   30.1060   39.1280 C   0  0  0  0  0  0  0  0  0  0  0  0
   37.0650   30.5690   38.0740 C   0  0  0  0  0  0  0  0  0  0  0  0
   38.4000   32.1540   37.3520 H   0  0  0  0  0  0  0  0  0  0  0  0
   36.9620   32.5060   41.3260 H   0  0  0  0  0  0  0  0  0  0  0  0
   35.3070   30.4600   42.0960 H   0  0  0  0  0  0  0  0  0  0  0  0
   34.3790   28.3510   41.0360 H   0  0  0  0  0  0  0  0  0  0  0  0
   35.3270   28.1980   38.5400 H   0  0  0  0  0  0  0  0  0  0  0  0
   37.0990   29.8150   36.8250 C   0  0  0  0  0  0  0  0  0  0  0  0
   37.9800   28.8100   36.4790 C   0  0  0  0  0  0  0  0  0  0  0  0
   38.7790   28.4670   37.1440 H   0  0  0  0  0  0  0  0  0  0  0  0
   37.7460   28.3120   35.2520 N   0  0  0  0  0  0  0  0  0  0  0  0
   38.3120   27.5470   34.8220 H   0  0  0  0  0  0  0  0  0  0  0  0
   36.6750   29.0270   34.7990 C   0  0  0  0  0  0  0  0  0  0  0  0
   36.2420   28.8510   33.8130 H   0  0  0  0  0  0  0  0  0  0  0  0
   36.2960   29.9170   35.7400 N   0  0  0  0  0  0  0  0  0  0  0  0
   39.8030   33.6500   40.2870 C   0  0  0  0  0  0  0  0  0  0  0  0
   39.9150   34.4580   41.0310 H   0  0  0  0  0  0  0  0  0  0  0  0
   39.7860   32.7100   40.8750 H   0  0  0  0  0  0  0  0  0  0  0  0
   42.3280   32.7500   37.9150 C   0  0  0  0  0  0  0  0  0  0  0  0
   42.4830   34.1510   37.9910 C   0  0  0  0  0  0  0  0  0  0  0  0
   41.5780   34.6420   38.8670 C   0  0  0  0  0  0  0  0  0  0  0  0
   40.8860   33.6000   39.3220 N   0  0  0  0  0  0  0  0  0  0  0  0
   41.3320   32.4730   38.7560 N   0  0  0  0  0  0  0  0  0  0  0  0
   43.2280   34.7140   37.4170 H   0  0  0  0  0  0  0  0  0  0  0  0
   41.4450   35.6860   39.1440 H   0  0  0  0  0  0  0  0  0  0  0  0
   45.2090   31.2860   36.2280 C   0  0  0  0  0  0  0  0  0  0  0  0
   44.6560   30.2400   35.4920 C   0  0  0  0  0  0  0  0  0  0  0  0
   43.2840   30.0480   35.5870 C   0  0  0  0  0  0  0  0  0  0  0  0
   42.5770   30.8870   36.3840 N   0  0  0  0  0  0  0  0  0  0  0  0
   43.1250   31.8800   37.0780 C   0  0  0  0  0  0  0  0  0  0  0  0
   44.4580   32.0820   36.9980 N   0  0  0  0  0  0  0  0  0  0  0  0
   46.2810   31.4290   36.1480 H   0  0  0  0  0  0  0  0  0  0  0  0
   45.2150   29.5760   34.8620 H   0  0  0  0  0  0  0  0  0  0  0  0
   42.7450   29.2740   35.0670 H   0  0  0  0  0  0  0  0  0  0  0  0
  1  3  1  0  0  0  0
  1 26  1  0  0  0  0
  2  1  1  0  0  0  0
  4  5  1  0  0  0  0
  5  1  1  0  0  0  0
  5  6  2  0  0  0  0
  6 14  1  0  0  0  0
  7  6  1  0  0  0  0
  7  8  1  0  0  0  0
  8 15  1  0  0  0  0
  9 16  1  0  0  0  0
  9  8  1  0  0  0  0
 10  9  2  0  0  0  0
 11 10  1  0  0  0  0
 11  7  2  0  0  0  0
 12  4  2  0  0  0  0
 12 11  1  0  0  0  0
 13  4  1  0  0  0  0
 17 10  1  0  0  0  0
 18 12  1  0  0  0  0
 19 18  2  0  0  0  0
 19 20  1  0  0  0  0
 21 19  1  0  0  0  0
 22 21  1  0  0  0  0
 23 21  1  0  0  0  0
 23 25  2  0  0  0  0
 24 23  1  0  0  0  0
 25 18  1  0  0  0  0
 26 28  1  0  0  0  0
 26 27  1  0  0  0  0
 29 30  1  0  0  0  0
 29 33  2  0  0  0  0
 30 31  2  0  0  0  0
 31 35  1  0  0  0  0
 31 32  1  0  0  0  0
 32 26  1  0  0  0  0
 33 32  1  0  0  0  0
 34 30  1  0  0  0  0
 36 41  1  0  0  0  0
 37 38  1  0  0  0  0
 37 36  2  0  0  0  0
 38 39  2  0  0  0  0
 39 40  1  0  0  0  0
 40 29  1  0  0  0  0
 41 40  2  0  0  0  0
 42 36  1  0  0  0  0
 43 37  1  0  0  0  0
 44 38  1  0  0  0  0
M  END
>  <minimizedAffinity>
-6.65092611

$$$$

 OpenBabel03252506273D

 44 48  0  0  0  0  0  0  0  0999 V2000
   36.1370   29.9450   38.6450 C   0  0  0  0  0  0  0  0  0  0  0  0
   35.4210   29.4840   37.9120 H   0  0  0  0  0  0  0  0  0  0  0  0
   35.5290   30.7600   39.1140 H   0  0  0  0  0  0  0  0  0  0  0  0
   36.7740   27.6730   39.6410 C   0  0  0  0  0  0  0  0  0  0  0  0
   36.4810   29.0090   39.7030 C   0  0  0  0  0  0  0  0  0  0  0  0
   36.5140   29.5830   40.9760 C   0  0  0  0  0  0  0  0  0  0  0  0
   36.8200   28.8610   42.1090 C   0  0  0  0  0  0  0  0  0  0  0  0
   36.9240   29.1330   43.4130 N   0  0  0  0  0  0  0  0  0  0  0  0
   37.2580   28.0480   44.1220 C   0  0  0  0  0  0  0  0  0  0  0  0
   37.3880   26.9760   43.2460 C   0  0  0  0  0  0  0  0  0  0  0  0
   37.1090   27.5180   42.0110 C   0  0  0  0  0  0  0  0  0  0  0  0
   37.0810   26.9410   40.7680 C   0  0  0  0  0  0  0  0  0  0  0  0
   36.7370   27.2650   38.6250 H   0  0  0  0  0  0  0  0  0  0  0  0
   36.3050   30.6250   41.1750 H   0  0  0  0  0  0  0  0  0  0  0  0
   36.7630   30.0790   43.8240 H   0  0  0  0  0  0  0  0  0  0  0  0
   37.3950   28.0430   45.1960 H   0  0  0  0  0  0  0  0  0  0  0  0
   37.6490   25.9700   43.5240 H   0  0  0  0  0  0  0  0  0  0  0  0
   37.3820   25.5210   40.6220 C   0  0  0  0  0  0  0  0  0  0  0  0
   38.6010   24.9530   40.3120 C   0  0  0  0  0  0  0  0  0  0  0  0
   39.5040   25.5460   40.1360 H   0  0  0  0  0  0  0  0  0  0  0  0
   38.5500   23.6110   40.2510 N   0  0  0  0  0  0  0  0  0  0  0  0
   39.3750   23.0110   40.0280 H   0  0  0  0  0  0  0  0  0  0  0  0
   37.2490   23.3120   40.5330 C   0  0  0  0  0  0  0  0  0  0  0  0
   36.8880   22.2830   40.5600 H   0  0  0  0  0  0  0  0  0  0  0  0
   36.5610   24.4530   40.7530 N   0  0  0  0  0  0  0  0  0  0  0  0
   37.2590   30.5810   37.9100 C   0  0  0  0  0  0  0  0  0  0  0  0
   38.0300   29.8380   37.6420 H   0  0  0  0  0  0  0  0  0  0  0  0
   36.8480   30.9390   36.9440 H   0  0  0  0  0  0  0  0  0  0  0  0
   39.2330   32.9810   39.6870 C   0  0  0  0  0  0  0  0  0  0  0  0
   37.9430   33.5520   39.7580 C   0  0  0  0  0  0  0  0  0  0  0  0
   37.0730   32.7410   39.1160 C   0  0  0  0  0  0  0  0  0  0  0  0
   37.7800   31.7070   38.6630 N   0  0  0  0  0  0  0  0  0  0  0  0
   39.0650   31.8500   39.0030 N   0  0  0  0  0  0  0  0  0  0  0  0
   37.7230   34.5000   40.2600 H   0  0  0  0  0  0  0  0  0  0  0  0
   36.0030   32.9040   38.9960 H   0  0  0  0  0  0  0  0  0  0  0  0
   41.6160   35.4700   40.8760 C   0  0  0  0  0  0  0  0  0  0  0  0
   42.6740   34.7020   41.3560 C   0  0  0  0  0  0  0  0  0  0  0  0
   42.5540   33.3220   41.2640 C   0  0  0  0  0  0  0  0  0  0  0  0
   41.4210   32.8160   40.7170 N   0  0  0  0  0  0  0  0  0  0  0  0
   40.4220   33.5680   40.2640 C   0  0  0  0  0  0  0  0  0  0  0  0
   40.5210   34.9130   40.3440 N   0  0  0  0  0  0  0  0  0  0  0  0
   41.7180   36.5480   40.9510 H   0  0  0  0  0  0  0  0  0  0  0  0
   43.5700   35.1020   41.7900 H   0  0  0  0  0  0  0  0  0  0  0  0
   43.3040   32.6270   41.6010 H   0  0  0  0  0  0  0  0  0  0  0  0
  1  3  1  0  0  0  0
  1  5  1  0  0  0  0
  2  1  1  0  0  0  0
  4  5  2  0  0  0  0
  4 12  1  0  0  0  0
  5  6  1  0  0  0  0
  6 14  1  0  0  0  0
  6  7  2  0  0  0  0
  7  8  1  0  0  0  0
  8 15  1  0  0  0  0
  8  9  1  0  0  0  0
  9 16  1  0  0  0  0
 10 17  1  0  0  0  0
 10  9  2  0  0  0  0
 11  7  1  0  0  0  0
 11 10  1  0  0  0  0
 12 11  2  0  0  0  0
 13  4  1  0  0  0  0
 18 25  1  0  0  0  0
 18 12  1  0  0  0  0
 19 18  2  0  0  0  0
 20 19  1  0  0  0  0
 21 19  1  0  0  0  0
 21 23  1  0  0  0  0
 22 21  1  0  0  0  0
 23 24  1  0  0  0  0
 23 25  2  0  0  0  0
 26  1  1  0  0  0  0
 26 32  1  0  0  0  0
 27 26  1  0  0  0  0
 28 26  1  0  0  0  0
 29 30  1  0  0  0  0
 29 40  1  0  0  0  0
 30 34  1  0  0  0  0
 31 30  2  0  0  0  0
 32 33  1  0  0  0  0
 32 31  1  0  0  0  0
 33 29  2  0  0  0  0
 35 31  1  0  0  0  0
 36 42  1  0  0  0  0
 36 37  1  0  0  0  0
 37 43  1  0  0  0  0
 38 37  2  0  0  0  0
 38 44  1  0  0  0  0
 39 38  1  0  0  0  0
 40 41  1  0  0  0  0
 40 39  2  0  0  0  0
 41 36  2  0  0  0  0
M  END
>  <minimizedAffinity>
-6.56664276

$$$$

 OpenBabel03252506273D

 44 48  0  0  0  0  0  0  0  0999 V2000
   36.3530   28.0350   42.1600 C   0  0  0  0  0  0  0  0  0  0  0  0
   35.6370   28.4850   42.8990 H   0  0  0  0  0  0  0  0  0  0  0  0
   35.7900   27.1490   41.7690 H   0  0  0  0  0  0  0  0  0  0  0  0
   36.6870   28.6490   39.6960 C   0  0  0  0  0  0  0  0  0  0  0  0
   36.5760   28.9260   41.0330 C   0  0  0  0  0  0  0  0  0  0  0  0
   36.6930   30.2710   41.3910 C   0  0  0  0  0  0  0  0  0  0  0  0
   36.9070   31.2700   40.4670 C   0  0  0  0  0  0  0  0  0  0  0  0
   37.0560   32.5970   40.5140 N   0  0  0  0  0  0  0  0  0  0  0  0
   37.2470   33.1200   39.2980 C   0  0  0  0  0  0  0  0  0  0  0  0
   37.2260   32.0850   38.3680 C   0  0  0  0  0  0  0  0  0  0  0  0
   37.0150   30.9580   39.1290 C   0  0  0  0  0  0  0  0  0  0  0  0
   36.9020   29.6420   38.7630 C   0  0  0  0  0  0  0  0  0  0  0  0
   36.5880   27.5850   39.4610 H   0  0  0  0  0  0  0  0  0  0  0  0
   36.6260   30.6350   42.4070 H   0  0  0  0  0  0  0  0  0  0  0  0
   37.0260   33.1530   41.3970 H   0  0  0  0  0  0  0  0  0  0  0  0
   37.3900   34.1760   39.1060 H   0  0  0  0  0  0  0  0  0  0  0  0
   37.3530   32.1980   37.3060 H   0  0  0  0  0  0  0  0  0  0  0  0
   37.0090   29.2690   37.3560 C   0  0  0  0  0  0  0  0  0  0  0  0
   38.1030   28.7200   36.7190 C   0  0  0  0  0  0  0  0  0  0  0  0
   39.0420   28.5020   37.2350 H   0  0  0  0  0  0  0  0  0  0  0  0
   37.8830   28.4900   35.4120 N   0  0  0  0  0  0  0  0  0  0  0  0
   38.5960   28.0790   34.7700 H   0  0  0  0  0  0  0  0  0  0  0  0
   36.6000   28.9090   35.2100 C   0  0  0  0  0  0  0  0  0  0  0  0
   36.1240   28.8510   34.2300 H   0  0  0  0  0  0  0  0  0  0  0  0
   36.0880   29.3710   36.3700 N   0  0  0  0  0  0  0  0  0  0  0  0
   37.5520   27.5310   42.8760 C   0  0  0  0  0  0  0  0  0  0  0  0
   38.3840   28.2550   42.8150 H   0  0  0  0  0  0  0  0  0  0  0  0
   37.2860   27.4780   43.9510 H   0  0  0  0  0  0  0  0  0  0  0  0
   37.7290   24.3140   41.3160 C   0  0  0  0  0  0  0  0  0  0  0  0
   38.9400   24.3550   42.0420 C   0  0  0  0  0  0  0  0  0  0  0  0
   39.0150   25.5350   42.6960 C   0  0  0  0  0  0  0  0  0  0  0  0
   37.9050   26.2070   42.3970 N   0  0  0  0  0  0  0  0  0  0  0  0
   37.1390   25.4800   41.5760 N   0  0  0  0  0  0  0  0  0  0  0  0
   39.6730   23.5410   42.0490 H   0  0  0  0  0  0  0  0  0  0  0  0
   39.8260   25.8680   43.3410 H   0  0  0  0  0  0  0  0  0  0  0  0
   37.6900   21.0570   39.6780 C   0  0  0  0  0  0  0  0  0  0  0  0
   36.5110   21.0820   38.9370 C   0  0  0  0  0  0  0  0  0  0  0  0
   35.7340   22.2310   39.0110 C   0  0  0  0  0  0  0  0  0  0  0  0
   36.1730   23.2470   39.7940 N   0  0  0  0  0  0  0  0  0  0  0  0
   37.3030   23.2030   40.4940 C   0  0  0  0  0  0  0  0  0  0  0  0
   38.0720   22.0940   40.4340 N   0  0  0  0  0  0  0  0  0  0  0  0
   38.2910   20.1560   39.6140 H   0  0  0  0  0  0  0  0  0  0  0  0
   36.1630   20.2780   38.3180 H   0  0  0  0  0  0  0  0  0  0  0  0
   34.8040   22.3660   38.4850 H   0  0  0  0  0  0  0  0  0  0  0  0
  1 26  1  0  0  0  0
  1  2  1  0  0  0  0
  3  1  1  0  0  0  0
  4  5  1  0  0  0  0
  5  6  2  0  0  0  0
  5  1  1  0  0  0  0
  6 14  1  0  0  0  0
  7  8  1  0  0  0  0
  7  6  1  0  0  0  0
  8 15  1  0  0  0  0
  9  8  1  0  0  0  0
 10 11  1  0  0  0  0
 10  9  2  0  0  0  0
 11  7  2  0  0  0  0
 12 11  1  0  0  0  0
 12  4  2  0  0  0  0
 13  4  1  0  0  0  0
 16  9  1  0  0  0  0
 17 10  1  0  0  0  0
 18 12  1  0  0  0  0
 19 20  1  0  0  0  0
 19 18  2  0  0  0  0
 21 19  1  0  0  0  0
 22 21  1  0  0  0  0
 23 21  1  0  0  0  0
 23 25  2  0  0  0  0
 24 23  1  0  0  0  0
 25 18  1  0  0  0  0
 26 28  1  0  0  0  0
 27 26  1  0  0  0  0
 29 33  2  0  0  0  0
 29 30  1  0  0  0  0
 30 34  1  0  0  0  0
 30 31  2  0  0  0  0
 31 35  1  0  0  0  0
 32 31  1  0  0  0  0
 32 26  1  0  0  0  0
 33 32  1  0  0  0  0
 36 41  1  0  0  0  0
 37 38  1  0  0  0  0
 37 36  2  0  0  0  0
 38 39  2  0  0  0  0
 39 40  1  0  0  0  0
 40 29  1  0  0  0  0
 41 40  2  0  0  0  0
 42 36  1  0  0  0  0
 43 37  1  0  0  0  0
 44 38  1  0  0  0  0
M  END
>  <minimizedAffinity>
-6.43895102

$$$$

 OpenBabel03252506273D

 44 48  0  0  0  0  0  0  0  0999 V2000
   36.6390   31.1640   38.8720 C   0  0  0  0  0  0  0  0  0  0  0  0
   35.9270   31.2690   39.7340 H   0  0  0  0  0  0  0  0  0  0  0  0
   36.0800   31.6310   38.0210 H   0  0  0  0  0  0  0  0  0  0  0  0
   39.0930   31.8220   38.5470 C   0  0  0  0  0  0  0  0  0  0  0  0
   37.8380   31.9590   39.0790 C   0  0  0  0  0  0  0  0  0  0  0  0
   37.6620   33.0280   39.9620 C   0  0  0  0  0  0  0  0  0  0  0  0
   38.6790   33.8970   40.2880 C   0  0  0  0  0  0  0  0  0  0  0  0
   38.8000   34.9700   41.0750 N   0  0  0  0  0  0  0  0  0  0  0  0
   40.0390   35.4740   41.0430 C   0  0  0  0  0  0  0  0  0  0  0  0
   40.8060   34.6950   40.1820 C   0  0  0  0  0  0  0  0  0  0  0  0
   39.9300   33.7310   39.7360 C   0  0  0  0  0  0  0  0  0  0  0  0
   40.1170   32.6880   38.8670 C   0  0  0  0  0  0  0  0  0  0  0  0
   39.1860   30.9750   37.8610 H   0  0  0  0  0  0  0  0  0  0  0  0
   36.7280   33.2560   40.4550 H   0  0  0  0  0  0  0  0  0  0  0  0
   38.0180   35.3630   41.6440 H   0  0  0  0  0  0  0  0  0  0  0  0
   40.3570   36.3420   41.6050 H   0  0  0  0  0  0  0  0  0  0  0  0
   41.8440   34.8550   39.9540 H   0  0  0  0  0  0  0  0  0  0  0  0
   41.4280   32.4770   38.2600 C   0  0  0  0  0  0  0  0  0  0  0  0
   41.9890   33.1870   37.2170 C   0  0  0  0  0  0  0  0  0  0  0  0
   41.4770   34.0170   36.7220 H   0  0  0  0  0  0  0  0  0  0  0  0
   43.2160   32.7460   36.8880 N   0  0  0  0  0  0  0  0  0  0  0  0
   43.7930   33.1610   36.1230 H   0  0  0  0  0  0  0  0  0  0  0  0
   43.4450   31.7160   37.7540 C   0  0  0  0  0  0  0  0  0  0  0  0
   44.3750   31.1450   37.7350 H   0  0  0  0  0  0  0  0  0  0  0  0
   42.3780   31.5630   38.5660 N   0  0  0  0  0  0  0  0  0  0  0  0
   36.8260   29.7240   38.5560 C   0  0  0  0  0  0  0  0  0  0  0  0
   36.0450   29.3660   37.8630 H   0  0  0  0  0  0  0  0  0  0  0  0
   37.7790   29.6400   37.9950 H   0  0  0  0  0  0  0  0  0  0  0  0
   37.6770   27.5000   41.2280 C   0  0  0  0  0  0  0  0  0  0  0  0
   36.5200   28.1350   41.7320 C   0  0  0  0  0  0  0  0  0  0  0  0
   36.0760   29.0210   40.8140 C   0  0  0  0  0  0  0  0  0  0  0  0
   36.9110   28.9480   39.7800 N   0  0  0  0  0  0  0  0  0  0  0  0
   37.8640   28.0430   40.0260 N   0  0  0  0  0  0  0  0  0  0  0  0
   36.0850   27.9170   42.7130 H   0  0  0  0  0  0  0  0  0  0  0  0
   35.2040   29.6670   40.9050 H   0  0  0  0  0  0  0  0  0  0  0  0
   39.0980   24.2660   42.1290 C   0  0  0  0  0  0  0  0  0  0  0  0
   39.8560   24.5500   43.2630 C   0  0  0  0  0  0  0  0  0  0  0  0
   39.8690   25.8650   43.7090 C   0  0  0  0  0  0  0  0  0  0  0  0
   39.1480   26.7800   43.0150 N   0  0  0  0  0  0  0  0  0  0  0  0
   38.4300   26.4880   41.9340 C   0  0  0  0  0  0  0  0  0  0  0  0
   38.4050   25.2130   41.4860 N   0  0  0  0  0  0  0  0  0  0  0  0
   39.0920   23.2360   41.7880 H   0  0  0  0  0  0  0  0  0  0  0  0
   40.4260   23.8270   43.8120 H   0  0  0  0  0  0  0  0  0  0  0  0
   40.4170   26.2050   44.5710 H   0  0  0  0  0  0  0  0  0  0  0  0
  1  5  1  0  0  0  0
  1  2  1  0  0  0  0
  3  1  1  0  0  0  0
  4 12  2  0  0  0  0
  4  5  1  0  0  0  0
  5  6  2  0  0  0  0
  6  7  1  0  0  0  0
  6 14  1  0  0  0  0
  7  8  1  0  0  0  0
  8 15  1  0  0  0  0
  9  8  1  0  0  0  0
  9 16  1  0  0  0  0
 10  9  2  0  0  0  0
 11 10  1  0  0  0  0
 11  7  2  0  0  0  0
 12 11  1  0  0  0  0
 13  4  1  0  0  0  0
 17 10  1  0  0  0  0
 18 25  1  0  0  0  0
 18 12  1  0  0  0  0
 19 18  2  0  0  0  0
 20 19  1  0  0  0  0
 21 19  1  0  0  0  0
 21 23  1  0  0  0  0
 22 21  1  0  0  0  0
 23 25  2  0  0  0  0
 24 23  1  0  0  0  0
 26  1  1  0  0  0  0
 26 32  1  0  0  0  0
 27 26  1  0  0  0  0
 28 26  1  0  0  0  0
 29 30  1  0  0  0  0
 29 40  1  0  0  0  0
 30 34  1  0  0  0  0
 31 35  1  0  0  0  0
 31 30  2  0  0  0  0
 32 33  1  0  0  0  0
 32 31  1  0  0  0  0
 33 29  2  0  0  0  0
 36 37  1  0  0  0  0
 37 38  2  0  0  0  0
 37 43  1  0  0  0  0
 38 44  1  0  0  0  0
 39 38  1  0  0  0  0
 40 39  2  0  0  0  0
 41 40  1  0  0  0  0
 41 36  2  0  0  0  0
 42 36  1  0  0  0  0
M  END
>  <minimizedAffinity>
-6.35677099

$$$$

 OpenBabel03252506273D

 44 48  0  0  0  0  0  0  0  0999 V2000
   37.6290   30.5190   37.6910 C   0  0  0  0  0  0  0  0  0  0  0  0
   37.4660   30.6500   36.5880 H   0  0  0  0  0  0  0  0  0  0  0  0
   38.1910   29.5520   37.7520 H   0  0  0  0  0  0  0  0  0  0  0  0
   39.8180   31.8230   37.9470 C   0  0  0  0  0  0  0  0  0  0  0  0
   38.5030   31.5530   38.2210 C   0  0  0  0  0  0  0  0  0  0  0  0
   37.8870   32.3920   39.1510 C   0  0  0  0  0  0  0  0  0  0  0  0
   38.5490   33.4320   39.7660 C   0  0  0  0  0  0  0  0  0  0  0  0
   38.2290   34.3670   40.6660 N   0  0  0  0  0  0  0  0  0  0  0  0
   39.2640   35.1680   40.9410 C   0  0  0  0  0  0  0  0  0  0  0  0
   40.3530   34.7520   40.1820 C   0  0  0  0  0  0  0  0  0  0  0  0
   39.8720   33.6770   39.4700 C   0  0  0  0  0  0  0  0  0  0  0  0
   40.4890   32.8610   38.5580 C   0  0  0  0  0  0  0  0  0  0  0  0
   40.2600   31.1420   37.2130 H   0  0  0  0  0  0  0  0  0  0  0  0
   36.8560   32.2970   39.4620 H   0  0  0  0  0  0  0  0  0  0  0  0
   37.2830   34.4560   41.0980 H   0  0  0  0  0  0  0  0  0  0  0  0
   39.2250   35.9920   41.6410 H   0  0  0  0  0  0  0  0  0  0  0  0
   41.3290   35.2050   40.1900 H   0  0  0  0  0  0  0  0  0  0  0  0
   41.8900   33.0870   38.2150 C   0  0  0  0  0  0  0  0  0  0  0  0
   42.3900   33.9850   37.2930 C   0  0  0  0  0  0  0  0  0  0  0  0
   41.7500   34.6450   36.7010 H   0  0  0  0  0  0  0  0  0  0  0  0
   43.7320   33.9520   37.2100 N   0  0  0  0  0  0  0  0  0  0  0  0
   44.2850   34.5590   36.5670 H   0  0  0  0  0  0  0  0  0  0  0  0
   44.1000   32.9970   38.1130 C   0  0  0  0  0  0  0  0  0  0  0  0
   45.1470   32.7360   38.2790 H   0  0  0  0  0  0  0  0  0  0  0  0
   43.0000   32.4890   38.7070 N   0  0  0  0  0  0  0  0  0  0  0  0
   36.3200   30.3260   38.3660 C   0  0  0  0  0  0  0  0  0  0  0  0
   35.8880   31.2930   38.6790 H   0  0  0  0  0  0  0  0  0  0  0  0
   35.6210   29.9250   37.6040 H   0  0  0  0  0  0  0  0  0  0  0  0
   37.1290   27.6080   40.5500 C   0  0  0  0  0  0  0  0  0  0  0  0
   36.2410   28.3670   41.3440 C   0  0  0  0  0  0  0  0  0  0  0  0
   35.8430   29.4480   40.6380 C   0  0  0  0  0  0  0  0  0  0  0  0
   36.4500   29.3740   39.4540 N   0  0  0  0  0  0  0  0  0  0  0  0
   37.2150   28.2790   39.4020 N   0  0  0  0  0  0  0  0  0  0  0  0
   35.9480   28.0920   42.3620 H   0  0  0  0  0  0  0  0  0  0  0  0
   35.1590   30.2260   40.9730 H   0  0  0  0  0  0  0  0  0  0  0  0
   37.6310   24.3600   42.1280 C   0  0  0  0  0  0  0  0  0  0  0  0
   38.9430   24.0360   41.7900 C   0  0  0  0  0  0  0  0  0  0  0  0
   39.6470   24.9480   41.0140 C   0  0  0  0  0  0  0  0  0  0  0  0
   39.0140   26.0870   40.6400 N   0  0  0  0  0  0  0  0  0  0  0  0
   37.7600   26.3780   40.9740 C   0  0  0  0  0  0  0  0  0  0  0  0
   37.0600   25.5030   41.7290 N   0  0  0  0  0  0  0  0  0  0  0  0
   37.0890   23.6430   42.7350 H   0  0  0  0  0  0  0  0  0  0  0  0
   39.4430   23.1340   42.0860 H   0  0  0  0  0  0  0  0  0  0  0  0
   40.6640   24.8060   40.6900 H   0  0  0  0  0  0  0  0  0  0  0  0
  1  3  1  0  0  0  0
  1  5  1  0  0  0  0
  1 26  1  0  0  0  0
  2  1  1  0  0  0  0
  4  5  2  0  0  0  0
  4 12  1  0  0  0  0
  5  6  1  0  0  0  0
  6 14  1  0  0  0  0
  6  7  2  0  0  0  0
  7  8  1  0  0  0  0
  8  9  1  0  0  0  0
  8 15  1  0  0  0  0
  9 16  1  0  0  0  0
 10 17  1  0  0  0  0
 10  9  2  0  0  0  0
 11  7  1  0  0  0  0
 11 10  1  0  0  0  0
 12 11  2  0  0  0  0
 13  4  1  0  0  0  0
 18 12  1  0  0  0  0
 18 25  1  0  0  0  0
 19 18  2  0  0  0  0
 20 19  1  0  0  0  0
 21 19  1  0  0  0  0
 21 23  1  0  0  0  0
 22 21  1  0  0  0  0
 23 24  1  0  0  0  0
 23 25  2  0  0  0  0
 26 27  1  0  0  0  0
 26 32  1  0  0  0  0
 28 26  1  0  0  0  0
 29 40  1  0  0  0  0
 29 30  1  0  0  0  0
 30 34  1  0  0  0  0
 31 35  1  0  0  0  0
 31 30  2  0  0  0  0
 32 31  1  0  0  0  0
 33 32  1  0  0  0  0
 33 29  2  0  0  0  0
 36 42  1  0  0  0  0
 37 43  1  0  0  0  0
 37 36  1  0  0  0  0
 38 37  2  0  0  0  0
 39 40  2  0  0  0  0
 39 38  1  0  0  0  0
 40 41  1  0  0  0  0
 41 36  2  0  0  0  0
 44 38  1  0  0  0  0
M  END
>  <minimizedAffinity>
-6.20861101

$$$$

 OpenBabel03252506273D

 44 48  0  0  0  0  0  0  0  0999 V2000
   33.6570   28.5510   36.9170 C   0  0  0  0  0  0  0  0  0  0  0  0
   33.7170   28.1450   37.9620 H   0  0  0  0  0  0  0  0  0  0  0  0
   33.5060   27.6310   36.2950 H   0  0  0  0  0  0  0  0  0  0  0  0
   31.9650   29.9640   35.6130 C   0  0  0  0  0  0  0  0  0  0  0  0
   32.4750   29.3800   36.7410 C   0  0  0  0  0  0  0  0  0  0  0  0
   31.7620   29.6040   37.9220 C   0  0  0  0  0  0  0  0  0  0  0  0
   30.6150   30.3640   37.9630 C   0  0  0  0  0  0  0  0  0  0  0  0
   29.7530   30.7390   38.9130 N   0  0  0  0  0  0  0  0  0  0  0  0
   28.7700   31.5020   38.4210 C   0  0  0  0  0  0  0  0  0  0  0  0
   28.9780   31.6550   37.0540 C   0  0  0  0  0  0  0  0  0  0  0  0
   30.1280   30.9380   36.8090 C   0  0  0  0  0  0  0  0  0  0  0  0
   30.8160   30.7260   35.6440 C   0  0  0  0  0  0  0  0  0  0  0  0
   32.5530   29.7610   34.7120 H   0  0  0  0  0  0  0  0  0  0  0  0
   32.0480   29.2060   38.8860 H   0  0  0  0  0  0  0  0  0  0  0  0
   29.8410   30.4650   39.9170 H   0  0  0  0  0  0  0  0  0  0  0  0
   27.9650   31.9140   39.0160 H   0  0  0  0  0  0  0  0  0  0  0  0
   28.3510   32.2190   36.3870 H   0  0  0  0  0  0  0  0  0  0  0  0
   30.3330   31.3170   34.3990 C   0  0  0  0  0  0  0  0  0  0  0  0
   30.6640   32.5500   33.8770 C   0  0  0  0  0  0  0  0  0  0  0  0
   31.3550   33.2390   34.3720 H   0  0  0  0  0  0  0  0  0  0  0  0
   30.0480   32.8030   32.7080 N   0  0  0  0  0  0  0  0  0  0  0  0
   30.1760   33.6860   32.1670 H   0  0  0  0  0  0  0  0  0  0  0  0
   29.2960   31.6870   32.4780 C   0  0  0  0  0  0  0  0  0  0  0  0
   28.6700   31.5890   31.5900 H   0  0  0  0  0  0  0  0  0  0  0  0
   29.4710   30.8090   33.4880 N   0  0  0  0  0  0  0  0  0  0  0  0
   34.9650   29.1450   36.5390 C   0  0  0  0  0  0  0  0  0  0  0  0
   35.4700   28.5350   35.7700 H   0  0  0  0  0  0  0  0  0  0  0  0
   34.7470   30.1160   36.0490 H   0  0  0  0  0  0  0  0  0  0  0  0
   36.6380   29.0190   39.7010 C   0  0  0  0  0  0  0  0  0  0  0  0
   37.1500   30.2130   39.1450 C   0  0  0  0  0  0  0  0  0  0  0  0
   36.5980   30.3960   37.9260 C   0  0  0  0  0  0  0  0  0  0  0  0
   35.7760   29.3680   37.7220 N   0  0  0  0  0  0  0  0  0  0  0  0
   35.8000   28.5490   38.7780 N   0  0  0  0  0  0  0  0  0  0  0  0
   37.8760   30.8580   39.6520 H   0  0  0  0  0  0  0  0  0  0  0  0
   36.7900   31.2240   37.2450 H   0  0  0  0  0  0  0  0  0  0  0  0
   37.4500   26.6640   42.3630 C   0  0  0  0  0  0  0  0  0  0  0  0
   37.6910   27.4880   43.4610 C   0  0  0  0  0  0  0  0  0  0  0  0
   37.5690   28.8580   43.2700 C   0  0  0  0  0  0  0  0  0  0  0  0
   37.2270   29.3010   42.0360 N   0  0  0  0  0  0  0  0  0  0  0  0
   37.0010   28.4980   41.0000 C   0  0  0  0  0  0  0  0  0  0  0  0
   37.1140   27.1610   41.1670 N   0  0  0  0  0  0  0  0  0  0  0  0
   37.5460   25.5950   42.5210 H   0  0  0  0  0  0  0  0  0  0  0  0
   37.9620   27.1370   44.4380 H   0  0  0  0  0  0  0  0  0  0  0  0
   37.7310   29.5910   44.0420 H   0  0  0  0  0  0  0  0  0  0  0  0
  1  2  1  0  0  0  0
  3  1  1  0  0  0  0
  4 12  2  0  0  0  0
  4  5  1  0  0  0  0
  5  1  1  0  0  0  0
  5  6  2  0  0  0  0
  6  7  1  0  0  0  0
  6 14  1  0  0  0  0
  7  8  1  0  0  0  0
  8 15  1  0  0  0  0
  9  8  1  0  0  0  0
  9 16  1  0  0  0  0
 10  9  2  0  0  0  0
 11 10  1  0  0  0  0
 11  7  2  0  0  0  0
 12 11  1  0  0  0  0
 13  4  1  0  0  0  0
 17 10  1  0  0  0  0
 18 12  1  0  0  0  0
 19 20  1  0  0  0  0
 19 18  2  0  0  0  0
 21 19  1  0  0  0  0
 22 21  1  0  0  0  0
 23 21  1  0  0  0  0
 23 25  2  0  0  0  0
 24 23  1  0  0  0  0
 25 18  1  0  0  0  0
 26  1  1  0  0  0  0
 26 32  1  0  0  0  0
 27 26  1  0  0  0  0
 28 26  1  0  0  0  0
 29 40  1  0  0  0  0
 30 34  1  0  0  0  0
 30 29  1  0  0  0  0
 31 30  2  0  0  0  0
 32 31  1  0  0  0  0
 32 33  1  0  0  0  0
 33 29  2  0  0  0  0
 35 31  1  0  0  0  0
 36 42  1  0  0  0  0
 36 37  1  0  0  0  0
 37 43  1  0  0  0  0
 38 37  2  0  0  0  0
 38 44  1  0  0  0  0
 39 38  1  0  0  0  0
 40 41  1  0  0  0  0
 40 39  2  0  0  0  0
 41 36  2  0  0  0  0
M  END
>  <minimizedAffinity>
-6.15154648

$$$$

 OpenBabel03252506273D

 44 48  0  0  0  0  0  0  0  0999 V2000
   36.5730   29.5770   41.9960 C   0  0  0  0  0  0  0  0  0  0  0  0
   35.8830   29.7120   42.8720 H   0  0  0  0  0  0  0  0  0  0  0  0
   37.4050   30.2940   42.2160 H   0  0  0  0  0  0  0  0  0  0  0  0
   36.8710   27.1640   41.1910 C   0  0  0  0  0  0  0  0  0  0  0  0
   37.1540   28.2440   41.9840 C   0  0  0  0  0  0  0  0  0  0  0  0
   38.1570   28.0560   42.9390 C   0  0  0  0  0  0  0  0  0  0  0  0
   38.8280   26.8620   43.0850 C   0  0  0  0  0  0  0  0  0  0  0  0
   39.7980   26.4060   43.8830 N   0  0  0  0  0  0  0  0  0  0  0  0
   40.1050   25.1320   43.6140 C   0  0  0  0  0  0  0  0  0  0  0  0
   39.2950   24.6970   42.5700 C   0  0  0  0  0  0  0  0  0  0  0  0
   38.5190   25.7950   42.2710 C   0  0  0  0  0  0  0  0  0  0  0  0
   37.5380   25.9650   41.3300 C   0  0  0  0  0  0  0  0  0  0  0  0
   36.0820   27.3560   40.4580 H   0  0  0  0  0  0  0  0  0  0  0  0
   38.4830   28.8190   43.6310 H   0  0  0  0  0  0  0  0  0  0  0  0
   40.2570   26.9790   44.6250 H   0  0  0  0  0  0  0  0  0  0  0  0
   40.8630   24.5650   44.1390 H   0  0  0  0  0  0  0  0  0  0  0  0
   39.3120   23.7140   42.1340 H   0  0  0  0  0  0  0  0  0  0  0  0
   37.1810   24.8590   40.4470 C   0  0  0  0  0  0  0  0  0  0  0  0
   37.6850   24.5980   39.1890 C   0  0  0  0  0  0  0  0  0  0  0  0
   38.4390   25.2300   38.7100 H   0  0  0  0  0  0  0  0  0  0  0  0
   37.1510   23.4970   38.6320 N   0  0  0  0  0  0  0  0  0  0  0  0
   37.4100   23.1450   37.6840 H   0  0  0  0  0  0  0  0  0  0  0  0
   36.2720   23.0400   39.5710 C   0  0  0  0  0  0  0  0  0  0  0  0
   35.6730   22.1420   39.4080 H   0  0  0  0  0  0  0  0  0  0  0  0
   36.2960   23.8540   40.6470 N   0  0  0  0  0  0  0  0  0  0  0  0
   35.8950   30.0340   40.7560 C   0  0  0  0  0  0  0  0  0  0  0  0
   35.4870   29.1790   40.1890 H   0  0  0  0  0  0  0  0  0  0  0  0
   35.0130   30.6260   41.0720 H   0  0  0  0  0  0  0  0  0  0  0  0
   38.3070   32.3790   39.5360 C   0  0  0  0  0  0  0  0  0  0  0  0
   37.8410   31.7900   38.3400 C   0  0  0  0  0  0  0  0  0  0  0  0
   36.9060   30.8640   38.6480 C   0  0  0  0  0  0  0  0  0  0  0  0
   36.7870   30.8700   39.9740 N   0  0  0  0  0  0  0  0  0  0  0  0
   37.6210   31.7720   40.5030 N   0  0  0  0  0  0  0  0  0  0  0  0
   38.2030   32.0650   37.3430 H   0  0  0  0  0  0  0  0  0  0  0  0
   36.3580   30.2380   37.9460 H   0  0  0  0  0  0  0  0  0  0  0  0
   40.0150   35.4730   40.4330 C   0  0  0  0  0  0  0  0  0  0  0  0
   41.2180   35.3920   39.7360 C   0  0  0  0  0  0  0  0  0  0  0  0
   41.4300   34.2620   38.9570 C   0  0  0  0  0  0  0  0  0  0  0  0
   40.4580   33.3180   38.9270 N   0  0  0  0  0  0  0  0  0  0  0  0
   39.3150   33.4150   39.6000 C   0  0  0  0  0  0  0  0  0  0  0  0
   39.0910   34.5080   40.3630 N   0  0  0  0  0  0  0  0  0  0  0  0
   39.8560   36.3600   41.0380 H   0  0  0  0  0  0  0  0  0  0  0  0
   41.9880   36.1390   39.7600 H   0  0  0  0  0  0  0  0  0  0  0  0
   42.3200   34.0880   38.3760 H   0  0  0  0  0  0  0  0  0  0  0  0
  1  3  1  0  0  0  0
  1  2  1  0  0  0  0
  4 12  2  0  0  0  0
  4  5  1  0  0  0  0
  5  1  1  0  0  0  0
  5  6  2  0  0  0  0
  6  7  1  0  0  0  0
  6 14  1  0  0  0  0
  7  8  1  0  0  0  0
  8 15  1  0  0  0  0
  9  8  1  0  0  0  0
  9 16  1  0  0  0  0
 10  9  2  0  0  0  0
 11 10  1  0  0  0  0
 11  7  2  0  0  0  0
 12 11  1  0  0  0  0
 13  4  1  0  0  0  0
 17 10  1  0  0  0  0
 18 25  1  0  0  0  0
 18 12  1  0  0  0  0
 19 18  2  0  0  0  0
 20 19  1  0  0  0  0
 21 19  1  0  0  0  0
 21 23  1  0  0  0  0
 22 21  1  0  0  0  0
 23 25  2  0  0  0  0
 24 23  1  0  0  0  0
 26 28  1  0  0  0  0
 26  1  1  0  0  0  0
 27 26  1  0  0  0  0
 29 40  1  0  0  0  0
 29 33  2  0  0  0  0
 30 31  2  0  0  0  0
 30 29  1  0  0  0  0
 31 32  1  0  0  0  0
 32 33  1  0  0  0  0
 32 26  1  0  0  0  0
 34 30  1  0  0  0  0
 35 31  1  0  0  0  0
 36 42  1  0  0  0  0
 37 43  1  0  0  0  0
 37 36  2  0  0  0  0
 38 37  1  0  0  0  0
 39 38  2  0  0  0  0
 39 40  1  0  0  0  0
 40 41  2  0  0  0  0
 41 36  1  0  0  0  0
 44 38  1  0  0  0  0
M  END
>  <minimizedAffinity>
-6.13333082

$$$$

 OpenBabel03252506273D

 44 48  0  0  0  0  0  0  0  0999 V2000
   35.7430   29.4780   37.9470 C   0  0  0  0  0  0  0  0  0  0  0  0
   34.9360   30.1320   38.3730 H   0  0  0  0  0  0  0  0  0  0  0  0
   35.5250   29.4890   36.8480 H   0  0  0  0  0  0  0  0  0  0  0  0
   37.4300   31.1930   38.8270 C   0  0  0  0  0  0  0  0  0  0  0  0
   37.0560   30.0780   38.1250 C   0  0  0  0  0  0  0  0  0  0  0  0
   38.0830   29.3930   37.4720 C   0  0  0  0  0  0  0  0  0  0  0  0
   39.3970   29.8040   37.5200 C   0  0  0  0  0  0  0  0  0  0  0  0
   40.5520   29.3650   37.0110 N   0  0  0  0  0  0  0  0  0  0  0  0
   41.5800   30.1450   37.3650 C   0  0  0  0  0  0  0  0  0  0  0  0
   41.0930   31.1760   38.1620 C   0  0  0  0  0  0  0  0  0  0  0  0
   39.7400   30.9300   38.2340 C   0  0  0  0  0  0  0  0  0  0  0  0
   38.7430   31.6120   38.8810 C   0  0  0  0  0  0  0  0  0  0  0  0
   36.5950   31.6970   39.3230 H   0  0  0  0  0  0  0  0  0  0  0  0
   37.9350   28.4990   36.8820 H   0  0  0  0  0  0  0  0  0  0  0  0
   40.6360   28.5150   36.4110 H   0  0  0  0  0  0  0  0  0  0  0  0
   42.6050   29.9730   37.0640 H   0  0  0  0  0  0  0  0  0  0  0  0
   41.6850   31.9610   38.5970 H   0  0  0  0  0  0  0  0  0  0  0  0
   39.0640   32.8110   39.6490 C   0  0  0  0  0  0  0  0  0  0  0  0
   38.5790   33.1600   40.8930 C   0  0  0  0  0  0  0  0  0  0  0  0
   37.8710   32.5390   41.4500 H   0  0  0  0  0  0  0  0  0  0  0  0
   39.0710   34.3320   41.3330 N   0  0  0  0  0  0  0  0  0  0  0  0
   38.8170   34.7560   42.2520 H   0  0  0  0  0  0  0  0  0  0  0  0
   39.9000   34.7440   40.3300 C   0  0  0  0  0  0  0  0  0  0  0  0
   40.4570   35.6810   40.3930 H   0  0  0  0  0  0  0  0  0  0  0  0
   39.8910   33.8350   39.3340 N   0  0  0  0  0  0  0  0  0  0  0  0
   35.5610   28.0860   38.4310 C   0  0  0  0  0  0  0  0  0  0  0  0
   34.5080   27.7690   38.3420 H   0  0  0  0  0  0  0  0  0  0  0  0
   36.1260   27.4290   37.7400 H   0  0  0  0  0  0  0  0  0  0  0  0
   37.3660   27.2320   41.4020 C   0  0  0  0  0  0  0  0  0  0  0  0
   36.4280   28.1690   41.8880 C   0  0  0  0  0  0  0  0  0  0  0  0
   35.6600   28.5900   40.8590 C   0  0  0  0  0  0  0  0  0  0  0  0
   36.0930   27.9480   39.7750 N   0  0  0  0  0  0  0  0  0  0  0  0
   37.1080   27.1400   40.0980 N   0  0  0  0  0  0  0  0  0  0  0  0
   36.3640   28.4800   42.9370 H   0  0  0  0  0  0  0  0  0  0  0  0
   34.8470   29.3120   40.9090 H   0  0  0  0  0  0  0  0  0  0  0  0
   39.6140   24.6600   42.6770 C   0  0  0  0  0  0  0  0  0  0  0  0
   40.2370   25.2820   43.7560 C   0  0  0  0  0  0  0  0  0  0  0  0
   39.8730   26.5920   44.0360 C   0  0  0  0  0  0  0  0  0  0  0  0
   38.9410   27.1770   43.2440 N   0  0  0  0  0  0  0  0  0  0  0  0
   38.3570   26.5660   42.2180 C   0  0  0  0  0  0  0  0  0  0  0  0
   38.6980   25.2900   41.9310 N   0  0  0  0  0  0  0  0  0  0  0  0
   39.9030   23.6360   42.4650 H   0  0  0  0  0  0  0  0  0  0  0  0
   40.9750   24.8190   44.3820 H   0  0  0  0  0  0  0  0  0  0  0  0
   40.2860   27.1740   44.8420 H   0  0  0  0  0  0  0  0  0  0  0  0
  1  5  1  0  0  0  0
  1  2  1  0  0  0  0
  1 26  1  0  0  0  0
  3  1  1  0  0  0  0
  4 12  1  0  0  0  0
  4 13  1  0  0  0  0
  5  4  2  0  0  0  0
  6  7  2  0  0  0  0
  6  5  1  0  0  0  0
  7 11  1  0  0  0  0
  8  9  1  0  0  0  0
  8  7  1  0  0  0  0
  9 10  2  0  0  0  0
 10 11  1  0  0  0  0
 10 17  1  0  0  0  0
 11 12  2  0  0  0  0
 12 18  1  0  0  0  0
 14  6  1  0  0  0  0
 15  8  1  0  0  0  0
 16  9  1  0  0  0  0
 18 19  2  0  0  0  0
 19 21  1  0  0  0  0
 19 20  1  0  0  0  0
 21 22  1  0  0  0  0
 23 24  1  0  0  0  0
 23 21  1  0  0  0  0
 25 18  1  0  0  0  0
 25 23  2  0  0  0  0
 26 32  1  0  0  0  0
 27 26  1  0  0  0  0
 28 26  1  0  0  0  0
 29 30  1  0  0  0  0
 29 40  1  0  0  0  0
 30 34  1  0  0  0  0
 31 35  1  0  0  0  0
 31 30  2  0  0  0  0
 32 33  1  0  0  0  0
 32 31  1  0  0  0  0
 33 29  2  0  0  0  0
 36 37  1  0  0  0  0
 37 38  2  0  0  0  0
 37 43  1  0  0  0  0
 38 44  1  0  0  0  0
 39 38  1  0  0  0  0
 40 39  2  0  0  0  0
 41 40  1  0  0  0  0
 41 36  2  0  0  0  0
 42 36  1  0  0  0  0
M  END
>  <minimizedAffinity>
-6.09739161

$$$$
