
 OpenBabel03242523573D

 20 21  0  0  0  0  0  0  0  0999 V2000
   44.5490   36.0920   44.3890 C   0  0  0  0  0  0  0  0  0  0  0  0
   45.3070   36.0410   43.2100 C   0  0  0  0  0  0  0  0  0  0  0  0
   46.2140   34.9940   43.0910 C   0  0  0  0  0  0  0  0  0  0  0  0
   46.3180   34.0920   44.1000 N   0  0  0  0  0  0  0  0  0  0  0  0
   45.5700   34.1760   45.2220 C   0  0  0  0  0  0  0  0  0  0  0  0
   44.6820   35.1810   45.3650 N   0  0  0  0  0  0  0  0  0  0  0  0
   43.8290   36.8920   44.5250 H   0  0  0  0  0  0  0  0  0  0  0  0
   45.2070   36.7680   42.4210 H   0  0  0  0  0  0  0  0  0  0  0  0
   47.0620   34.8340   41.9040 C   0  0  0  0  0  0  0  0  0  0  0  0
   48.3400   35.3660   41.8100 C   0  0  0  0  0  0  0  0  0  0  0  0
   48.9210   35.9390   42.4930 H   0  0  0  0  0  0  0  0  0  0  0  0
   48.8140   35.0260   40.5970 N   0  0  0  0  0  0  0  0  0  0  0  0
   49.7260   35.2010   40.0810 H   0  0  0  0  0  0  0  0  0  0  0  0
   47.8970   34.3090   39.9260 C   0  0  0  0  0  0  0  0  0  0  0  0
   47.7800   33.8200   38.9680 H   0  0  0  0  0  0  0  0  0  0  0  0
   46.8370   34.2020   40.7390 N   0  0  0  0  0  0  0  0  0  0  0  0
   45.8320   33.0950   46.2050 C   0  0  0  0  0  0  0  0  0  0  0  0
   44.9990   33.1580   47.2820 F   0  0  0  0  0  0  0  0  0  0  0  0
   47.1560   33.1670   46.6460 F   0  0  0  0  0  0  0  0  0  0  0  0
   45.7430   31.8570   45.5610 F   0  0  0  0  0  0  0  0  0  0  0  0
  1  7  1  0  0  0  0
  1  6  1  0  0  0  0
  2  1  2  0  0  0  0
  3  2  1  0  0  0  0
  3  4  2  0  0  0  0
  4  5  1  0  0  0  0
  5  6  2  0  0  0  0
  5 17  1  0  0  0  0
  8  2  1  0  0  0  0
  9  3  1  0  0  0  0
 10  9  2  0  0  0  0
 10 11  1  0  0  0  0
 12 10  1  0  0  0  0
 13 12  1  0  0  0  0
 14 12  1  0  0  0  0
 14 16  2  0  0  0  0
 15 14  1  0  0  0  0
 16  9  1  0  0  0  0
 17 19  1  0  0  0  0
 17 18  1  0  0  0  0
 20 17  1  0  0  0  0
M  END
>  <minimizedAffinity>
-5.32315922

>  <minimizedRMSD>
0.517529845

$$$$
