
 OpenBabel03252508593D

 44 46  0  0  1  0  0  0  0  0999 V2000
   46.7170   34.4070   43.6210 N   0  0  0  0  0  0  0  0  0  0  0  0
   46.3070   35.2370   42.5380 C   0  0  0  0  0  0  0  0  0  0  0  0
   44.8120   35.3960   42.3890 C   0  0  0  0  0  0  0  0  0  0  0  0
   44.0390   35.3520   43.6780 C   0  0  0  0  0  0  0  0  0  0  0  0
   44.9600   35.2770   44.8730 C   0  0  0  0  0  0  0  0  0  0  0  0
   45.8190   33.9900   44.5870 C   0  0  2  0  0  0  0  0  0  0  0  0
   46.6940   34.9710   41.5540 H   0  0  0  0  0  0  0  0  0  0  0  0
   46.6940   36.2630   42.7490 H   0  0  0  0  0  0  0  0  0  0  0  0
   44.5950   36.3790   41.9180 H   0  0  0  0  0  0  0  0  0  0  0  0
   44.4360   34.6280   41.6520 H   0  0  0  0  0  0  0  0  0  0  0  0
   43.4530   34.3970   43.6760 H   0  0  0  0  0  0  0  0  0  0  0  0
   43.2820   36.1570   43.7650 H   0  0  0  0  0  0  0  0  0  0  0  0
   44.3650   35.1340   45.7810 H   0  0  0  0  0  0  0  0  0  0  0  0
   45.6230   36.1450   44.8650 H   0  0  0  0  0  0  0  0  0  0  0  0
   45.1160   33.1850   44.2940 H   0  0  0  0  0  0  0  0  0  0  0  0
   47.8530   33.5810   43.3270 C   0  0  0  0  0  0  0  0  0  0  0  0
   48.5720   34.1770   42.7610 H   0  0  0  0  0  0  0  0  0  0  0  0
   48.3540   33.2470   44.2610 H   0  0  0  0  0  0  0  0  0  0  0  0
   47.3860   32.3970   42.5310 C   0  0  0  0  0  0  0  0  0  0  0  0
   47.4620   31.4610   43.0970 H   0  0  0  0  0  0  0  0  0  0  0  0
   46.3180   32.4950   42.2430 H   0  0  0  0  0  0  0  0  0  0  0  0
   50.1660   31.5470   40.1460 C   0  0  0  0  0  0  0  0  0  0  0  0
   49.3980   31.6400   41.3220 C   0  0  0  0  0  0  0  0  0  0  0  0
   48.1930   32.3030   41.2840 C   0  0  0  0  0  0  0  0  0  0  0  0
   47.8070   32.8320   40.1160 N   0  0  0  0  0  0  0  0  0  0  0  0
   48.5510   32.7380   38.9950 C   0  0  0  0  0  0  0  0  0  0  0  0
   49.7320   32.0980   39.0000 N   0  0  0  0  0  0  0  0  0  0  0  0
   51.0840   31.0100   40.2920 H   0  0  0  0  0  0  0  0  0  0  0  0
   49.7170   31.2080   42.2660 H   0  0  0  0  0  0  0  0  0  0  0  0
   48.2520   33.1600   38.0460 H   0  0  0  0  0  0  0  0  0  0  0  0
   46.4340   33.7890   45.8130 O   0  0  0  0  0  0  0  0  0  0  0  0
   45.7020   31.2770   45.3310 O   0  0  0  0  0  0  0  0  0  0  0  0
   46.1800   32.2430   46.4230 P   0  0  2  0  0  0  0  0  0  0  0  0
   44.8520   32.3690   47.4960 O   0  0  0  0  0  0  0  0  0  0  0  0
   45.0100   33.1190   48.1350 H   0  0  0  0  0  0  0  0  0  0  0  0
   47.4820   31.6510   47.2710 O   0  0  0  0  0  0  0  0  0  0  0  0
   47.6550   30.2820   47.4490 C   0  0  0  0  0  0  0  0  0  0  0  0
   46.6980   29.3120   47.7550 C   0  0  0  0  0  0  0  0  0  0  0  0
   45.6540   29.4880   47.9040 H   0  0  0  0  0  0  0  0  0  0  0  0
   47.2660   28.1020   47.8430 N   0  0  0  0  0  0  0  0  0  0  0  0
   46.7870   27.2020   48.0590 H   0  0  0  0  0  0  0  0  0  0  0  0
   48.5720   28.3080   47.5930 C   0  0  0  0  0  0  0  0  0  0  0  0
   49.3020   27.5080   47.5910 H   0  0  0  0  0  0  0  0  0  0  0  0
   48.8320   29.6090   47.3530 N   0  0  0  0  0  0  0  0  0  0  0  0
  1  6  1  0  0  0  0
  2  8  1  0  0  0  0
  2  1  1  0  0  0  0
  3  2  1  0  0  0  0
  3  4  1  0  0  0  0
  4 12  1  0  0  0  0
  4  5  1  0  0  0  0
  5 13  1  0  0  0  0
  6 15  1  6  0  0  0
  6  5  1  0  0  0  0
  6 31  1  0  0  0  0
  7  2  1  0  0  0  0
  9  3  1  0  0  0  0
 10  3  1  0  0  0  0
 11  4  1  0  0  0  0
 14  5  1  0  0  0  0
 16  1  1  0  0  0  0
 16 18  1  0  0  0  0
 17 16  1  0  0  0  0
 19 20  1  0  0  0  0
 19 16  1  0  0  0  0
 21 19  1  0  0  0  0
 22 28  1  0  0  0  0
 22 23  1  0  0  0  0
 23 29  1  0  0  0  0
 24 23  2  0  0  0  0
 24 19  1  0  0  0  0
 25 24  1  0  0  0  0
 26 27  1  0  0  0  0
 26 25  2  0  0  0  0
 27 22  2  0  0  0  0
 30 26  1  0  0  0  0
 31 33  1  0  0  0  0
 33 32  2  6  0  0  0
 33 36  1  0  0  0  0
 33 34  1  0  0  0  0
 34 35  1  0  0  0  0
 36 37  1  0  0  0  0
 37 38  2  0  0  0  0
 38 40  1  0  0  0  0
 38 39  1  0  0  0  0
 40 41  1  0  0  0  0
 42 40  1  0  0  0  0
 43 42  1  0  0  0  0
 44 37  1  0  0  0  0
 44 42  2  0  0  0  0
M  END
>  <minimizedAffinity>
-4.48620415

>  <minimizedRMSD>
1.81281161

$$$$
