
 OpenBabel03252509203D

 24 26  0  0  0  0  0  0  0  0999 V2000
   44.8600   35.7090   43.2310 C   0  0  0  0  0  0  0  0  0  0  0  0
   45.4420   34.4570   42.9860 C   0  0  0  0  0  0  0  0  0  0  0  0
   45.6160   33.6690   44.1050 C   0  0  0  0  0  0  0  0  0  0  0  0
   45.2290   34.1380   45.3460 N   0  0  0  0  0  0  0  0  0  0  0  0
   44.6760   35.3470   45.5260 C   0  0  0  0  0  0  0  0  0  0  0  0
   44.5030   36.1140   44.4450 N   0  0  0  0  0  0  0  0  0  0  0  0
   44.6480   36.4550   42.4660 H   0  0  0  0  0  0  0  0  0  0  0  0
   44.4510   35.5150   46.5570 H   0  0  0  0  0  0  0  0  0  0  0  0
   46.1020   32.2450   43.9470 C   0  0  0  0  0  0  0  0  0  0  0  0
   47.6290   32.2030   44.0400 C   0  0  0  0  0  0  0  0  0  0  0  0
   46.6790   31.5910   45.1050 C   0  0  0  0  0  0  0  0  0  0  0  0
   45.8260   31.7890   42.9730 H   0  0  0  0  0  0  0  0  0  0  0  0
   48.1780   33.0780   44.4380 H   0  0  0  0  0  0  0  0  0  0  0  0
   48.1950   31.5140   43.4220 H   0  0  0  0  0  0  0  0  0  0  0  0
   46.6670   30.4650   45.0720 H   0  0  0  0  0  0  0  0  0  0  0  0
   46.6330   32.0560   46.0920 H   0  0  0  0  0  0  0  0  0  0  0  0
   45.7920   34.1510   41.6190 C   0  0  0  0  0  0  0  0  0  0  0  0
   46.8670   34.3030   40.8080 C   0  0  0  0  0  0  0  0  0  0  0  0
   47.8040   34.7210   41.0530 H   0  0  0  0  0  0  0  0  0  0  0  0
   46.6340   33.8850   39.5600 N   0  0  0  0  0  0  0  0  0  0  0  0
   47.2630   33.8790   38.7340 H   0  0  0  0  0  0  0  0  0  0  0  0
   45.3740   33.4470   39.5430 C   0  0  0  0  0  0  0  0  0  0  0  0
   44.7790   33.0270   38.7440 H   0  0  0  0  0  0  0  0  0  0  0  0
   44.8950   33.6150   40.7720 N   0  0  0  0  0  0  0  0  0  0  0  0
  1  6  1  0  0  0  0
  2  1  2  0  0  0  0
  2  3  1  0  0  0  0
  3  4  2  0  0  0  0
  4  5  1  0  0  0  0
  5  8  1  0  0  0  0
  6  5  2  0  0  0  0
  7  1  1  0  0  0  0
  9 10  1  0  0  0  0
  9  3  1  0  0  0  0
  9 11  1  0  0  0  0
 10 13  1  0  0  0  0
 10 11  1  0  0  0  0
 11 16  1  0  0  0  0
 12  9  1  0  0  0  0
 14 10  1  0  0  0  0
 15 11  1  0  0  0  0
 17  2  1  0  0  0  0
 18 19  1  0  0  0  0
 18 17  2  0  0  0  0
 20 18  1  0  0  0  0
 21 20  1  0  0  0  0
 22 20  1  0  0  0  0
 22 24  2  0  0  0  0
 23 22  1  0  0  0  0
 24 17  1  0  0  0  0
M  END
>  <minimizedAffinity>
-3.84310174

>  <minimizedRMSD>
3.30364466

$$$$
