
 OpenBabel03252509203D

 24 26  0  0  0  0  0  0  0  0999 V2000
   44.7370   35.6430   45.3810 C   0  0  0  0  0  0  0  0  0  0  0  0
   45.2740   36.0860   44.1630 C   0  0  0  0  0  0  0  0  0  0  0  0
   45.8460   35.0990   43.3880 C   0  0  0  0  0  0  0  0  0  0  0  0
   45.8610   33.7910   43.8360 N   0  0  0  0  0  0  0  0  0  0  0  0
   45.3330   33.4210   45.0120 C   0  0  0  0  0  0  0  0  0  0  0  0
   44.7750   34.3720   45.7670 N   0  0  0  0  0  0  0  0  0  0  0  0
   44.2480   36.2850   46.1120 H   0  0  0  0  0  0  0  0  0  0  0  0
   45.4480   32.3690   45.1690 H   0  0  0  0  0  0  0  0  0  0  0  0
   46.3300   35.4310   41.9930 C   0  0  0  0  0  0  0  0  0  0  0  0
   47.8350   35.1750   41.8900 C   0  0  0  0  0  0  0  0  0  0  0  0
   46.7610   34.3370   41.1450 C   0  0  0  0  0  0  0  0  0  0  0  0
   46.1620   36.4900   41.7070 H   0  0  0  0  0  0  0  0  0  0  0  0
   48.3450   34.5810   42.6720 H   0  0  0  0  0  0  0  0  0  0  0  0
   48.4600   35.8290   41.2910 H   0  0  0  0  0  0  0  0  0  0  0  0
   46.7390   34.5530   40.0400 H   0  0  0  0  0  0  0  0  0  0  0  0
   46.6070   33.2990   41.4470 H   0  0  0  0  0  0  0  0  0  0  0  0
   45.1740   37.4980   43.8750 C   0  0  0  0  0  0  0  0  0  0  0  0
   45.0400   38.2840   42.7790 C   0  0  0  0  0  0  0  0  0  0  0  0
   44.9530   37.9760   41.7730 H   0  0  0  0  0  0  0  0  0  0  0  0
   45.0600   39.5870   43.0750 N   0  0  0  0  0  0  0  0  0  0  0  0
   44.9790   40.4110   42.4480 H   0  0  0  0  0  0  0  0  0  0  0  0
   45.2120   39.6660   44.3980 C   0  0  0  0  0  0  0  0  0  0  0  0
   45.2800   40.5230   45.0540 H   0  0  0  0  0  0  0  0  0  0  0  0
   45.2780   38.4190   44.8500 N   0  0  0  0  0  0  0  0  0  0  0  0
  1  6  1  0  0  0  0
  1  7  1  0  0  0  0
  2  1  2  0  0  0  0
  3  4  2  0  0  0  0
  3  2  1  0  0  0  0
  4  5  1  0  0  0  0
  5  8  1  0  0  0  0
  5  6  2  0  0  0  0
  9  3  1  0  0  0  0
 10  9  1  0  0  0  0
 10 13  1  0  0  0  0
 11 16  1  0  0  0  0
 11 10  1  0  0  0  0
 11  9  1  0  0  0  0
 12  9  1  0  0  0  0
 14 10  1  0  0  0  0
 15 11  1  0  0  0  0
 17  2  1  0  0  0  0
 17 24  1  0  0  0  0
 18 20  1  0  0  0  0
 18 17  2  0  0  0  0
 19 18  1  0  0  0  0
 20 22  1  0  0  0  0
 21 20  1  0  0  0  0
 22 24  2  0  0  0  0
 22 23  1  0  0  0  0
M  END
>  <minimizedAffinity>
-2.00405955

>  <minimizedRMSD>
1.68817699

$$$$
