
 OpenBabel03252509203D

 24 26  0  0  0  0  0  0  0  0999 V2000
   44.7370   35.6430   45.3800 C   0  0  0  0  0  0  0  0  0  0  0  0
   45.2750   36.0860   44.1620 C   0  0  0  0  0  0  0  0  0  0  0  0
   45.8480   35.1000   43.3880 C   0  0  0  0  0  0  0  0  0  0  0  0
   45.8630   33.7920   43.8350 N   0  0  0  0  0  0  0  0  0  0  0  0
   45.3340   33.4210   45.0110 C   0  0  0  0  0  0  0  0  0  0  0  0
   44.7750   34.3720   45.7650 N   0  0  0  0  0  0  0  0  0  0  0  0
   44.2460   36.2850   46.1100 H   0  0  0  0  0  0  0  0  0  0  0  0
   45.4490   32.3700   45.1680 H   0  0  0  0  0  0  0  0  0  0  0  0
   46.3330   35.4320   41.9930 C   0  0  0  0  0  0  0  0  0  0  0  0
   47.8380   35.1720   41.8910 C   0  0  0  0  0  0  0  0  0  0  0  0
   46.7610   34.3390   41.1440 C   0  0  0  0  0  0  0  0  0  0  0  0
   46.1700   36.4930   41.7100 H   0  0  0  0  0  0  0  0  0  0  0  0
   48.3460   34.5750   42.6720 H   0  0  0  0  0  0  0  0  0  0  0  0
   48.4650   35.8250   41.2930 H   0  0  0  0  0  0  0  0  0  0  0  0
   46.7410   34.5570   40.0390 H   0  0  0  0  0  0  0  0  0  0  0  0
   46.6040   33.3000   41.4440 H   0  0  0  0  0  0  0  0  0  0  0  0
   45.1750   37.4980   43.8750 C   0  0  0  0  0  0  0  0  0  0  0  0
   45.0400   38.2840   42.7790 C   0  0  0  0  0  0  0  0  0  0  0  0
   44.9540   37.9780   41.7740 H   0  0  0  0  0  0  0  0  0  0  0  0
   45.0600   39.5880   43.0760 N   0  0  0  0  0  0  0  0  0  0  0  0
   44.9780   40.4110   42.4490 H   0  0  0  0  0  0  0  0  0  0  0  0
   45.2120   39.6660   44.3980 C   0  0  0  0  0  0  0  0  0  0  0  0
   45.2790   40.5230   45.0550 H   0  0  0  0  0  0  0  0  0  0  0  0
   45.2780   38.4190   44.8500 N   0  0  0  0  0  0  0  0  0  0  0  0
  1  6  1  0  0  0  0
  1  7  1  0  0  0  0
  2  1  2  0  0  0  0
  3  4  2  0  0  0  0
  3  2  1  0  0  0  0
  4  5  1  0  0  0  0
  5  8  1  0  0  0  0
  5  6  2  0  0  0  0
  9  3  1  0  0  0  0
 10  9  1  0  0  0  0
 10 13  1  0  0  0  0
 11 16  1  0  0  0  0
 11 10  1  0  0  0  0
 11  9  1  0  0  0  0
 12  9  1  0  0  0  0
 14 10  1  0  0  0  0
 15 11  1  0  0  0  0
 17  2  1  0  0  0  0
 17 24  1  0  0  0  0
 18 20  1  0  0  0  0
 18 17  2  0  0  0  0
 19 18  1  0  0  0  0
 20 22  1  0  0  0  0
 21 20  1  0  0  0  0
 22 24  2  0  0  0  0
 22 23  1  0  0  0  0
M  END
>  <minimizedAffinity>
-2.00009656

>  <minimizedRMSD>
1.71260774

$$$$
