
 OpenBabel03252508143D

 36 39  0  0  1  0  0  0  0  0999 V2000
   46.2030   30.8590   46.7870 C   0  0  0  0  0  0  0  0  0  0  0  0
   45.5770   29.9850   46.5860 H   0  0  0  0  0  0  0  0  0  0  0  0
   47.2750   30.5640   46.7500 H   0  0  0  0  0  0  0  0  0  0  0  0
   45.9680   31.5130   48.1260 C   0  0  1  0  0  0  0  0  0  0  0  0
   45.7260   30.6040   49.2770 C   0  0  0  0  0  0  0  0  0  0  0  0
   46.9680   31.3510   49.2080 C   0  0  1  0  0  0  0  0  0  0  0  0
   45.4990   32.5220   48.0840 H   0  0  0  0  0  0  0  0  0  0  0  0
   44.9270   30.8480   50.0150 H   0  0  0  0  0  0  0  0  0  0  0  0
   45.7450   29.5110   49.0700 H   0  0  0  0  0  0  0  0  0  0  0  0
   47.0500   32.1880   49.9670 H   0  0  0  0  0  0  0  0  0  0  0  0
   48.2870   30.7790   48.8500 C   0  0  0  0  0  0  0  0  0  0  0  0
   49.1940   30.4320   50.0580 C   0  0  0  0  0  0  0  0  0  0  0  0
   49.5240   31.6040   49.2300 C   0  0  0  0  0  0  0  0  0  0  0  0
   48.3870   30.1210   47.9660 H   0  0  0  0  0  0  0  0  0  0  0  0
   49.8190   29.5300   49.9580 H   0  0  0  0  0  0  0  0  0  0  0  0
   48.7820   30.6300   51.0610 H   0  0  0  0  0  0  0  0  0  0  0  0
   49.3210   32.6470   49.5940 H   0  0  0  0  0  0  0  0  0  0  0  0
   50.3620   31.5910   48.5060 H   0  0  0  0  0  0  0  0  0  0  0  0
   45.8510   33.0880   46.0560 C   0  0  0  0  0  0  0  0  0  0  0  0
   46.0570   31.8860   45.6760 C   0  0  0  0  0  0  0  0  0  0  0  0
   44.6380   36.0220   44.1910 C   0  0  0  0  0  0  0  0  0  0  0  0
   45.4210   36.0190   43.0440 C   0  0  0  0  0  0  0  0  0  0  0  0
   46.3450   35.0190   42.9470 C   0  0  0  0  0  0  0  0  0  0  0  0
   46.4550   34.1060   43.9350 N   0  0  0  0  0  0  0  0  0  0  0  0
   45.6940   34.1210   45.0320 C   0  0  0  0  0  0  0  0  0  0  0  0
   44.7910   35.0910   45.1380 N   0  0  0  0  0  0  0  0  0  0  0  0
   43.8900   36.7900   44.3210 H   0  0  0  0  0  0  0  0  0  0  0  0
   45.2710   36.7860   42.2980 H   0  0  0  0  0  0  0  0  0  0  0  0
   47.2090   34.9360   41.7820 C   0  0  0  0  0  0  0  0  0  0  0  0
   48.4540   35.5170   41.6420 C   0  0  0  0  0  0  0  0  0  0  0  0
   48.9030   36.1170   42.4500 H   0  0  0  0  0  0  0  0  0  0  0  0
   48.9570   35.2210   40.4210 N   0  0  0  0  0  0  0  0  0  0  0  0
   49.8900   35.5860   40.1620 H   0  0  0  0  0  0  0  0  0  0  0  0
   48.0200   34.4620   39.8220 C   0  0  0  0  0  0  0  0  0  0  0  0
   48.2120   34.1020   38.8150 H   0  0  0  0  0  0  0  0  0  0  0  0
   46.9560   34.2840   40.6400 N   0  0  0  0  0  0  0  0  0  0  0  0
  1  4  1  0  0  0  0
  2  1  1  0  0  0  0
  3  1  1  0  0  0  0
  4  7  1  6  0  0  0
  4  6  1  0  0  0  0
  4  5  1  0  0  0  0
  5  8  1  0  0  0  0
  6  5  1  0  0  0  0
  6 10  1  1  0  0  0
  9  5  1  0  0  0  0
 11  6  1  0  0  0  0
 11 13  1  0  0  0  0
 11 12  1  0  0  0  0
 12 16  1  0  0  0  0
 13 17  1  0  0  0  0
 13 12  1  0  0  0  0
 14 11  1  0  0  0  0
 15 12  1  0  0  0  0
 18 13  1  0  0  0  0
 20 19  2  0  0  0  0
 20  1  1  0  0  0  0
 21 27  1  0  0  0  0
 21 26  1  0  0  0  0
 22 21  2  0  0  0  0
 23 22  1  0  0  0  0
 23 24  2  0  0  0  0
 24 25  1  0  0  0  0
 25 26  2  0  0  0  0
 25 19  1  0  0  0  0
 28 22  1  0  0  0  0
 29 23  1  0  0  0  0
 30 29  2  0  0  0  0
 30 31  1  0  0  0  0
 32 30  1  0  0  0  0
 33 32  1  0  0  0  0
 34 32  1  0  0  0  0
 34 36  2  0  0  0  0
 35 34  1  0  0  0  0
 36 29  1  0  0  0  0
M  END
>  <minimizedAffinity>
-5.92602634

>  <minimizedRMSD>
0.662956893

$$$$
