
 OpenBabel03242517093D

 33 35  0  0  1  0  0  0  0  0999 V2000
   36.7610   27.8960   41.1790 C   0  0  2  0  0  0  0  0  0  0  0  0
   37.9560   28.7220   40.9020 C   0  0  2  0  0  0  0  0  0  0  0  0
   39.0600   28.5340   41.9020 C   0  0  0  0  0  0  0  0  0  0  0  0
   38.6130   28.6980   43.3390 C   0  0  0  0  0  0  0  0  0  0  0  0
   37.2610   28.1040   43.6170 C   0  0  0  0  0  0  0  0  0  0  0  0
   36.8120   27.1780   42.5180 C   0  0  0  0  0  0  0  0  0  0  0  0
   35.7860   28.4680   41.2170 H   0  0  0  0  0  0  0  0  0  0  0  0
   38.4040   28.3770   39.9210 H   0  0  0  0  0  0  0  0  0  0  0  0
   39.7660   29.4010   41.7160 H   0  0  0  0  0  0  0  0  0  0  0  0
   39.6970   27.6590   41.7560 H   0  0  0  0  0  0  0  0  0  0  0  0
   39.4090   28.2700   43.9800 H   0  0  0  0  0  0  0  0  0  0  0  0
   38.5740   29.7790   43.5720 H   0  0  0  0  0  0  0  0  0  0  0  0
   37.3830   27.4450   44.5260 H   0  0  0  0  0  0  0  0  0  0  0  0
   36.5010   28.8430   43.9230 H   0  0  0  0  0  0  0  0  0  0  0  0
   35.8100   26.8210   42.7450 H   0  0  0  0  0  0  0  0  0  0  0  0
   37.5720   26.3800   42.4370 H   0  0  0  0  0  0  0  0  0  0  0  0
   36.5570   26.8660   40.1400 C   0  0  0  0  0  0  0  0  0  0  0  0
   36.8870   25.5470   40.5140 C   0  0  0  0  0  0  0  0  0  0  0  0
   36.7370   24.4910   39.6040 C   0  0  0  0  0  0  0  0  0  0  0  0
   36.2580   24.8380   38.3590 N   0  0  0  0  0  0  0  0  0  0  0  0
   35.9520   26.0960   38.0270 C   0  0  0  0  0  0  0  0  0  0  0  0
   36.1000   27.1080   38.9140 N   0  0  0  0  0  0  0  0  0  0  0  0
   37.2650   25.1940   41.4600 H   0  0  0  0  0  0  0  0  0  0  0  0
   36.9720   23.4610   39.8320 H   0  0  0  0  0  0  0  0  0  0  0  0
   35.5790   26.3030   37.0310 H   0  0  0  0  0  0  0  0  0  0  0  0
   37.6300   30.1680   40.7100 C   0  0  0  0  0  0  0  0  0  0  0  0
   36.4300   30.8150   40.8780 C   0  0  0  0  0  0  0  0  0  0  0  0
   35.4960   30.3700   41.1820 H   0  0  0  0  0  0  0  0  0  0  0  0
   36.5220   32.1300   40.6110 N   0  0  0  0  0  0  0  0  0  0  0  0
   35.7700   32.8590   40.6570 H   0  0  0  0  0  0  0  0  0  0  0  0
   37.8010   32.3440   40.2660 C   0  0  0  0  0  0  0  0  0  0  0  0
   38.2790   33.2780   39.9790 H   0  0  0  0  0  0  0  0  0  0  0  0
   38.4590   31.1730   40.3260 N   0  0  0  0  0  0  0  0  0  0  0  0
  1  7  1  1  0  0  0
  1  6  1  0  0  0  0
  2  8  1  6  0  0  0
  2  1  1  0  0  0  0
  2  3  1  0  0  0  0
  3  4  1  0  0  0  0
  4 12  1  0  0  0  0
  4  5  1  0  0  0  0
  4 11  1  0  0  0  0
  5 14  1  0  0  0  0
  5 13  1  0  0  0  0
  6 15  1  0  0  0  0
  6  5  1  0  0  0  0
  9  3  1  0  0  0  0
 10  3  1  0  0  0  0
 16  6  1  0  0  0  0
 17 18  1  0  0  0  0
 17  1  1  0  0  0  0
 18 23  1  0  0  0  0
 19 24  1  0  0  0  0
 19 18  2  0  0  0  0
 20 19  1  0  0  0  0
 21 20  2  0  0  0  0
 21 22  1  0  0  0  0
 22 17  2  0  0  0  0
 25 21  1  0  0  0  0
 26 27  2  0  0  0  0
 26  2  1  0  0  0  0
 27 28  1  0  0  0  0
 29 30  1  0  0  0  0
 29 27  1  0  0  0  0
 31 33  2  0  0  0  0
 31 29  1  0  0  0  0
 32 31  1  0  0  0  0
 33 26  1  0  0  0  0
M  END
>  <minimizedAffinity>
-4.97407722

$$$$

 OpenBabel03242517093D

 33 35  0  0  1  0  0  0  0  0999 V2000
   37.2830   27.7150   40.8300 C   0  0  2  0  0  0  0  0  0  0  0  0
   36.9040   26.7780   41.9090 C   0  0  2  0  0  0  0  0  0  0  0  0
   36.5140   27.4610   43.1880 C   0  0  0  0  0  0  0  0  0  0  0  0
   37.5370   28.4620   43.6800 C   0  0  0  0  0  0  0  0  0  0  0  0
   38.1640   29.2670   42.5770 C   0  0  0  0  0  0  0  0  0  0  0  0
   37.3930   29.1610   41.2890 C   0  0  0  0  0  0  0  0  0  0  0  0
   38.2870   27.5080   40.3520 H   0  0  0  0  0  0  0  0  0  0  0  0
   35.9670   26.2290   41.5870 H   0  0  0  0  0  0  0  0  0  0  0  0
   36.5150   26.6360   43.9660 H   0  0  0  0  0  0  0  0  0  0  0  0
   35.4920   27.8460   43.2350 H   0  0  0  0  0  0  0  0  0  0  0  0
   37.0390   29.0920   44.4420 H   0  0  0  0  0  0  0  0  0  0  0  0
   38.3380   27.9110   44.2080 H   0  0  0  0  0  0  0  0  0  0  0  0
   38.0750   30.3510   42.8850 H   0  0  0  0  0  0  0  0  0  0  0  0
   39.2500   29.1090   42.4690 H   0  0  0  0  0  0  0  0  0  0  0  0
   37.9190   29.7180   40.5160 H   0  0  0  0  0  0  0  0  0  0  0  0
   36.3690   29.5210   41.4940 H   0  0  0  0  0  0  0  0  0  0  0  0
   36.3160   27.6840   39.7150 C   0  0  0  0  0  0  0  0  0  0  0  0
   35.4200   28.7710   39.6520 C   0  0  0  0  0  0  0  0  0  0  0  0
   34.4570   28.8410   38.6370 C   0  0  0  0  0  0  0  0  0  0  0  0
   34.4570   27.7960   37.7380 N   0  0  0  0  0  0  0  0  0  0  0  0
   35.3170   26.7750   37.8180 C   0  0  0  0  0  0  0  0  0  0  0  0
   36.2440   26.7180   38.8030 N   0  0  0  0  0  0  0  0  0  0  0  0
   35.3540   29.6230   40.3100 H   0  0  0  0  0  0  0  0  0  0  0  0
   33.7440   29.6480   38.5360 H   0  0  0  0  0  0  0  0  0  0  0  0
   35.2660   25.9840   37.0800 H   0  0  0  0  0  0  0  0  0  0  0  0
   37.9310   25.7180   42.1450 C   0  0  0  0  0  0  0  0  0  0  0  0
   37.7710   24.3550   42.2050 C   0  0  0  0  0  0  0  0  0  0  0  0
   36.8470   23.8100   42.0930 H   0  0  0  0  0  0  0  0  0  0  0  0
   38.9330   23.7180   42.4340 N   0  0  0  0  0  0  0  0  0  0  0  0
   39.1060   22.6890   42.5270 H   0  0  0  0  0  0  0  0  0  0  0  0
   39.8650   24.6800   42.5230 C   0  0  0  0  0  0  0  0  0  0  0  0
   40.9330   24.5750   42.7020 H   0  0  0  0  0  0  0  0  0  0  0  0
   39.2650   25.8700   42.3500 N   0  0  0  0  0  0  0  0  0  0  0  0
  1  7  1  6  0  0  0
  1  6  1  0  0  0  0
  1  2  1  0  0  0  0
  2  8  1  6  0  0  0
  2 26  1  0  0  0  0
  2  3  1  0  0  0  0
  3 10  1  0  0  0  0
  3  4  1  0  0  0  0
  3  9  1  0  0  0  0
  4 12  1  0  0  0  0
  4 11  1  0  0  0  0
  5 13  1  0  0  0  0
  5  4  1  0  0  0  0
  6 16  1  0  0  0  0
  6  5  1  0  0  0  0
 14  5  1  0  0  0  0
 15  6  1  0  0  0  0
 17  1  1  0  0  0  0
 18 17  1  0  0  0  0
 18 23  1  0  0  0  0
 19 18  2  0  0  0  0
 20 21  2  0  0  0  0
 20 19  1  0  0  0  0
 21 22  1  0  0  0  0
 22 17  2  0  0  0  0
 24 19  1  0  0  0  0
 25 21  1  0  0  0  0
 26 27  2  0  0  0  0
 26 33  1  0  0  0  0
 27 29  1  0  0  0  0
 28 27  1  0  0  0  0
 29 31  1  0  0  0  0
 29 30  1  0  0  0  0
 31 32  1  0  0  0  0
 33 31  2  0  0  0  0
M  END
>  <minimizedAffinity>
-4.96545696

$$$$

 OpenBabel03242517093D

 33 35  0  0  1  0  0  0  0  0999 V2000
   37.0780   28.3790   39.8410 C   0  0  2  0  0  0  0  0  0  0  0  0
   36.2380   29.5370   40.2180 C   0  0  2  0  0  0  0  0  0  0  0  0
   34.7720   29.3160   39.9830 C   0  0  0  0  0  0  0  0  0  0  0  0
   34.4440   28.8470   38.5820 C   0  0  0  0  0  0  0  0  0  0  0  0
   35.4340   27.8570   38.0360 C   0  0  0  0  0  0  0  0  0  0  0  0
   36.3160   27.2840   39.1130 C   0  0  0  0  0  0  0  0  0  0  0  0
   37.9340   28.6210   39.1420 H   0  0  0  0  0  0  0  0  0  0  0  0
   36.3250   29.6860   41.3370 H   0  0  0  0  0  0  0  0  0  0  0  0
   34.3100   30.3490   40.0610 H   0  0  0  0  0  0  0  0  0  0  0  0
   34.2430   28.7490   40.7520 H   0  0  0  0  0  0  0  0  0  0  0  0
   33.4090   28.4520   38.6020 H   0  0  0  0  0  0  0  0  0  0  0  0
   34.4270   29.7280   37.9130 H   0  0  0  0  0  0  0  0  0  0  0  0
   34.8300   26.9810   37.6540 H   0  0  0  0  0  0  0  0  0  0  0  0
   35.9800   28.2130   37.1460 H   0  0  0  0  0  0  0  0  0  0  0  0
   37.0430   26.6170   38.6550 H   0  0  0  0  0  0  0  0  0  0  0  0
   35.6520   26.7970   39.8490 H   0  0  0  0  0  0  0  0  0  0  0  0
   37.7130   27.7580   41.0210 C   0  0  0  0  0  0  0  0  0  0  0  0
   37.4070   26.3990   41.2350 C   0  0  0  0  0  0  0  0  0  0  0  0
   37.9510   25.7110   42.3280 C   0  0  0  0  0  0  0  0  0  0  0  0
   38.7790   26.4480   43.1470 N   0  0  0  0  0  0  0  0  0  0  0  0
   39.0550   27.7370   42.9240 C   0  0  0  0  0  0  0  0  0  0  0  0
   38.5240   28.3910   41.8640 N   0  0  0  0  0  0  0  0  0  0  0  0
   36.7730   25.7540   40.6470 H   0  0  0  0  0  0  0  0  0  0  0  0
   37.7540   24.6700   42.5440 H   0  0  0  0  0  0  0  0  0  0  0  0
   39.7140   28.2610   43.6050 H   0  0  0  0  0  0  0  0  0  0  0  0
   36.7050   30.8170   39.6040 C   0  0  0  0  0  0  0  0  0  0  0  0
   37.1100   31.0630   38.3140 C   0  0  0  0  0  0  0  0  0  0  0  0
   37.1610   30.3480   37.5090 H   0  0  0  0  0  0  0  0  0  0  0  0
   37.4610   32.3480   38.1300 N   0  0  0  0  0  0  0  0  0  0  0  0
   37.8040   32.8110   37.2550 H   0  0  0  0  0  0  0  0  0  0  0  0
   37.2820   32.9490   39.3160 C   0  0  0  0  0  0  0  0  0  0  0  0
   37.4540   33.9910   39.5820 H   0  0  0  0  0  0  0  0  0  0  0  0
   36.8310   32.0350   40.1920 N   0  0  0  0  0  0  0  0  0  0  0  0
  1  7  1  6  0  0  0
  1  2  1  0  0  0  0
  1 17  1  0  0  0  0
  2  8  1  1  0  0  0
  3  9  1  0  0  0  0
  3  2  1  0  0  0  0
  3 10  1  0  0  0  0
  4 11  1  0  0  0  0
  4  3  1  0  0  0  0
  5  4  1  0  0  0  0
  5  6  1  0  0  0  0
  6  1  1  0  0  0  0
  6 16  1  0  0  0  0
 12  4  1  0  0  0  0
 13  5  1  0  0  0  0
 14  5  1  0  0  0  0
 15  6  1  0  0  0  0
 17 18  2  0  0  0  0
 17 22  1  0  0  0  0
 18 19  1  0  0  0  0
 19 24  1  0  0  0  0
 19 20  2  0  0  0  0
 21 20  1  0  0  0  0
 21 25  1  0  0  0  0
 22 21  2  0  0  0  0
 23 18  1  0  0  0  0
 26 33  1  0  0  0  0
 26  2  1  0  0  0  0
 27 26  2  0  0  0  0
 28 27  1  0  0  0  0
 29 27  1  0  0  0  0
 29 31  1  0  0  0  0
 30 29  1  0  0  0  0
 31 32  1  0  0  0  0
 31 33  2  0  0  0  0
M  END
>  <minimizedAffinity>
-4.71272087

$$$$

 OpenBabel03242517093D

 33 35  0  0  1  0  0  0  0  0999 V2000
   36.4750   30.1760   40.3150 C   0  0  2  0  0  0  0  0  0  0  0  0
   36.7880   29.5250   39.0240 C   0  0  2  0  0  0  0  0  0  0  0  0
   37.8490   30.2350   38.2350 C   0  0  0  0  0  0  0  0  0  0  0  0
   37.5770   31.7120   38.0420 C   0  0  0  0  0  0  0  0  0  0  0  0
   36.9950   32.3770   39.2560 C   0  0  0  0  0  0  0  0  0  0  0  0
   37.1430   31.5310   40.4920 C   0  0  0  0  0  0  0  0  0  0  0  0
   35.3780   30.3920   40.4850 H   0  0  0  0  0  0  0  0  0  0  0  0
   37.2330   28.5060   39.2410 H   0  0  0  0  0  0  0  0  0  0  0  0
   37.7830   29.7880   37.1960 H   0  0  0  0  0  0  0  0  0  0  0  0
   38.8820   30.0320   38.5280 H   0  0  0  0  0  0  0  0  0  0  0  0
   38.5260   32.1790   37.7100 H   0  0  0  0  0  0  0  0  0  0  0  0
   36.8640   31.8290   37.2040 H   0  0  0  0  0  0  0  0  0  0  0  0
   37.6260   33.2940   39.4510 H   0  0  0  0  0  0  0  0  0  0  0  0
   35.9800   32.7800   39.1030 H   0  0  0  0  0  0  0  0  0  0  0  0
   36.6590   32.0350   41.3260 H   0  0  0  0  0  0  0  0  0  0  0  0
   38.2230   31.3510   40.6340 H   0  0  0  0  0  0  0  0  0  0  0  0
   36.8810   29.3370   41.4610 C   0  0  0  0  0  0  0  0  0  0  0  0
   38.0480   29.7480   42.1360 C   0  0  0  0  0  0  0  0  0  0  0  0
   38.5260   29.0220   43.2370 C   0  0  0  0  0  0  0  0  0  0  0  0
   37.7870   27.9140   43.5890 N   0  0  0  0  0  0  0  0  0  0  0  0
   36.6820   27.5440   42.9330 C   0  0  0  0  0  0  0  0  0  0  0  0
   36.2290   28.2530   41.8720 N   0  0  0  0  0  0  0  0  0  0  0  0
   38.6800   30.5960   41.9270 H   0  0  0  0  0  0  0  0  0  0  0  0
   39.4130   29.2870   43.7940 H   0  0  0  0  0  0  0  0  0  0  0  0
   36.1450   26.6620   43.2600 H   0  0  0  0  0  0  0  0  0  0  0  0
   35.5710   29.2640   38.1960 C   0  0  0  0  0  0  0  0  0  0  0  0
   35.4610   29.1410   36.8330 C   0  0  0  0  0  0  0  0  0  0  0  0
   36.2600   29.2190   36.1130 H   0  0  0  0  0  0  0  0  0  0  0  0
   34.1950   28.9050   36.4460 N   0  0  0  0  0  0  0  0  0  0  0  0
   33.8240   28.7690   35.4750 H   0  0  0  0  0  0  0  0  0  0  0  0
   33.4690   28.8720   37.5740 C   0  0  0  0  0  0  0  0  0  0  0  0
   32.3990   28.7050   37.6880 H   0  0  0  0  0  0  0  0  0  0  0  0
   34.2920   29.0860   38.6150 N   0  0  0  0  0  0  0  0  0  0  0  0
  1  7  1  1  0  0  0
  1  6  1  0  0  0  0
  1 17  1  0  0  0  0
  2  8  1  1  0  0  0
  2  1  1  0  0  0  0
  3 10  1  0  0  0  0
  3  2  1  0  0  0  0
  4  3  1  0  0  0  0
  4  5  1  0  0  0  0
  5 13  1  0  0  0  0
  5  6  1  0  0  0  0
  6 16  1  0  0  0  0
  6 15  1  0  0  0  0
  9  3  1  0  0  0  0
 11  4  1  0  0  0  0
 12  4  1  0  0  0  0
 14  5  1  0  0  0  0
 17 22  2  0  0  0  0
 17 18  1  0  0  0  0
 18 19  2  0  0  0  0
 19 20  1  0  0  0  0
 19 24  1  0  0  0  0
 21 25  1  0  0  0  0
 21 20  2  0  0  0  0
 22 21  1  0  0  0  0
 23 18  1  0  0  0  0
 26 33  1  0  0  0  0
 26  2  1  0  0  0  0
 27 26  2  0  0  0  0
 28 27  1  0  0  0  0
 29 27  1  0  0  0  0
 29 31  1  0  0  0  0
 30 29  1  0  0  0  0
 31 32  1  0  0  0  0
 31 33  2  0  0  0  0
M  END
>  <minimizedAffinity>
-4.68222809

$$$$

 OpenBabel03242517093D

 33 35  0  0  1  0  0  0  0  0999 V2000
   37.3290   30.2550   41.0760 C   0  0  2  0  0  0  0  0  0  0  0  0
   38.1280   29.1220   40.5630 C   0  0  2  0  0  0  0  0  0  0  0  0
   37.4540   28.3650   39.4550 C   0  0  0  0  0  0  0  0  0  0  0  0
   36.0460   27.9230   39.7900 C   0  0  0  0  0  0  0  0  0  0  0  0
   35.2640   28.9480   40.5620 C   0  0  0  0  0  0  0  0  0  0  0  0
   35.9140   30.3050   40.5220 C   0  0  0  0  0  0  0  0  0  0  0  0
   37.1780   30.2610   42.1970 H   0  0  0  0  0  0  0  0  0  0  0  0
   39.0670   29.5390   40.0870 H   0  0  0  0  0  0  0  0  0  0  0  0
   38.0470   27.4040   39.3610 H   0  0  0  0  0  0  0  0  0  0  0  0
   37.5320   28.8040   38.4570 H   0  0  0  0  0  0  0  0  0  0  0  0
   35.5560   27.6390   38.8370 H   0  0  0  0  0  0  0  0  0  0  0  0
   36.1040   26.9990   40.3960 H   0  0  0  0  0  0  0  0  0  0  0  0
   34.2820   29.0760   40.0180 H   0  0  0  0  0  0  0  0  0  0  0  0
   34.9690   28.6180   41.5720 H   0  0  0  0  0  0  0  0  0  0  0  0
   35.3370   30.9910   41.1380 H   0  0  0  0  0  0  0  0  0  0  0  0
   35.9860   30.5980   39.4590 H   0  0  0  0  0  0  0  0  0  0  0  0
   37.9630   31.5530   40.7700 C   0  0  0  0  0  0  0  0  0  0  0  0
   37.1690   32.4660   40.0470 C   0  0  0  0  0  0  0  0  0  0  0  0
   37.6730   33.7270   39.6980 C   0  0  0  0  0  0  0  0  0  0  0  0
   38.9630   33.9890   40.1060 N   0  0  0  0  0  0  0  0  0  0  0  0
   39.6970   33.1070   40.7920 C   0  0  0  0  0  0  0  0  0  0  0  0
   39.2000   31.8920   41.1230 N   0  0  0  0  0  0  0  0  0  0  0  0
   36.1580   32.3410   39.6930 H   0  0  0  0  0  0  0  0  0  0  0  0
   37.1120   34.4690   39.1460 H   0  0  0  0  0  0  0  0  0  0  0  0
   40.7060   33.3740   41.0830 H   0  0  0  0  0  0  0  0  0  0  0  0
   38.5980   28.2050   41.6450 C   0  0  0  0  0  0  0  0  0  0  0  0
   39.4860   27.1600   41.5710 C   0  0  0  0  0  0  0  0  0  0  0  0
   40.0030   26.8160   40.6890 H   0  0  0  0  0  0  0  0  0  0  0  0
   39.6650   26.5610   42.7620 N   0  0  0  0  0  0  0  0  0  0  0  0
   40.2800   25.7460   42.9960 H   0  0  0  0  0  0  0  0  0  0  0  0
   38.8840   27.2270   43.6260 C   0  0  0  0  0  0  0  0  0  0  0  0
   38.7470   27.0510   44.6910 H   0  0  0  0  0  0  0  0  0  0  0  0
   38.2490   28.2060   42.9580 N   0  0  0  0  0  0  0  0  0  0  0  0
  1  7  1  1  0  0  0
  2  8  1  6  0  0  0
  2  1  1  0  0  0  0
  2 26  1  0  0  0  0
  3  4  1  0  0  0  0
  3  2  1  0  0  0  0
  4 12  1  0  0  0  0
  4  5  1  0  0  0  0
  5 14  1  0  0  0  0
  6  5  1  0  0  0  0
  6  1  1  0  0  0  0
  6 15  1  0  0  0  0
  9  3  1  0  0  0  0
 10  3  1  0  0  0  0
 11  4  1  0  0  0  0
 13  5  1  0  0  0  0
 16  6  1  0  0  0  0
 17  1  1  0  0  0  0
 17 22  1  0  0  0  0
 18 17  2  0  0  0  0
 19 18  1  0  0  0  0
 19 20  2  0  0  0  0
 20 21  1  0  0  0  0
 21 25  1  0  0  0  0
 21 22  2  0  0  0  0
 23 18  1  0  0  0  0
 24 19  1  0  0  0  0
 26 33  1  0  0  0  0
 27 26  2  0  0  0  0
 27 29  1  0  0  0  0
 28 27  1  0  0  0  0
 29 30  1  0  0  0  0
 29 31  1  0  0  0  0
 31 32  1  0  0  0  0
 33 31  2  0  0  0  0
M  END
>  <minimizedAffinity>
-4.63537025

$$$$

 OpenBabel03242517093D

 33 35  0  0  1  0  0  0  0  0999 V2000
   38.2120   29.4930   40.0330 C   0  0  2  0  0  0  0  0  0  0  0  0
   37.2720   30.5950   39.7380 C   0  0  2  0  0  0  0  0  0  0  0  0
   36.4530   30.3710   38.5000 C   0  0  0  0  0  0  0  0  0  0  0  0
   37.2790   30.0260   37.2790 C   0  0  0  0  0  0  0  0  0  0  0  0
   38.4310   29.1090   37.5750 C   0  0  0  0  0  0  0  0  0  0  0  0
   38.3020   28.4550   38.9250 C   0  0  0  0  0  0  0  0  0  0  0  0
   39.2860   29.8120   40.1890 H   0  0  0  0  0  0  0  0  0  0  0  0
   36.5100   30.6430   40.5740 H   0  0  0  0  0  0  0  0  0  0  0  0
   35.9990   31.3840   38.2680 H   0  0  0  0  0  0  0  0  0  0  0  0
   35.5780   29.7260   38.6130 H   0  0  0  0  0  0  0  0  0  0  0  0
   36.5850   29.6140   36.5200 H   0  0  0  0  0  0  0  0  0  0  0  0
   37.6810   30.9650   36.8530 H   0  0  0  0  0  0  0  0  0  0  0  0
   38.3620   28.2610   36.8310 H   0  0  0  0  0  0  0  0  0  0  0  0
   39.4200   29.5550   37.3810 H   0  0  0  0  0  0  0  0  0  0  0  0
   39.1850   27.8460   39.1080 H   0  0  0  0  0  0  0  0  0  0  0  0
   37.3530   27.8910   38.9220 H   0  0  0  0  0  0  0  0  0  0  0  0
   37.8430   28.7770   41.2710 C   0  0  0  0  0  0  0  0  0  0  0  0
   37.4790   27.4250   41.1100 C   0  0  0  0  0  0  0  0  0  0  0  0
   37.1060   26.6510   42.2180 C   0  0  0  0  0  0  0  0  0  0  0  0
   37.1230   27.3010   43.4340 N   0  0  0  0  0  0  0  0  0  0  0  0
   37.4720   28.5850   43.5620 C   0  0  0  0  0  0  0  0  0  0  0  0
   37.8310   29.3220   42.4840 N   0  0  0  0  0  0  0  0  0  0  0  0
   37.4400   26.8450   40.2010 H   0  0  0  0  0  0  0  0  0  0  0  0
   36.8190   25.6110   42.1590 H   0  0  0  0  0  0  0  0  0  0  0  0
   37.4650   29.0380   44.5460 H   0  0  0  0  0  0  0  0  0  0  0  0
   37.9350   31.9350   39.7220 C   0  0  0  0  0  0  0  0  0  0  0  0
   37.3750   33.1770   39.5490 C   0  0  0  0  0  0  0  0  0  0  0  0
   36.3320   33.3950   39.3870 H   0  0  0  0  0  0  0  0  0  0  0  0
   38.2940   34.1580   39.5970 N   0  0  0  0  0  0  0  0  0  0  0  0
   38.1500   35.1910   39.4970 H   0  0  0  0  0  0  0  0  0  0  0  0
   39.4700   33.5470   39.8050 C   0  0  0  0  0  0  0  0  0  0  0  0
   40.4580   33.9920   39.9050 H   0  0  0  0  0  0  0  0  0  0  0  0
   39.2530   32.2220   39.8790 N   0  0  0  0  0  0  0  0  0  0  0  0
  1  7  1  1  0  0  0
  1 17  1  0  0  0  0
  2  1  1  0  0  0  0
  2  8  1  1  0  0  0
  3 10  1  0  0  0  0
  3  2  1  0  0  0  0
  4  5  1  0  0  0  0
  4  3  1  0  0  0  0
  5  6  1  0  0  0  0
  6 15  1  0  0  0  0
  6  1  1  0  0  0  0
  9  3  1  0  0  0  0
 11  4  1  0  0  0  0
 12  4  1  0  0  0  0
 13  5  1  0  0  0  0
 14  5  1  0  0  0  0
 16  6  1  0  0  0  0
 17 22  1  0  0  0  0
 18 17  2  0  0  0  0
 18 19  1  0  0  0  0
 19 20  2  0  0  0  0
 20 21  1  0  0  0  0
 21 25  1  0  0  0  0
 22 21  2  0  0  0  0
 23 18  1  0  0  0  0
 24 19  1  0  0  0  0
 26  2  1  0  0  0  0
 26 33  1  0  0  0  0
 27 29  1  0  0  0  0
 27 26  2  0  0  0  0
 28 27  1  0  0  0  0
 29 31  1  0  0  0  0
 30 29  1  0  0  0  0
 31 33  2  0  0  0  0
 31 32  1  0  0  0  0
M  END
>  <minimizedAffinity>
-4.62191772

$$$$

 OpenBabel03242517093D

 33 35  0  0  1  0  0  0  0  0999 V2000
   38.4900   29.9470   40.4450 C   0  0  2  0  0  0  0  0  0  0  0  0
   38.1080   31.3280   40.8120 C   0  0  2  0  0  0  0  0  0  0  0  0
   36.9420   31.8570   40.0280 C   0  0  0  0  0  0  0  0  0  0  0  0
   37.1060   31.7240   38.5300 C   0  0  0  0  0  0  0  0  0  0  0  0
   37.7490   30.4330   38.1090 C   0  0  0  0  0  0  0  0  0  0  0  0
   37.7590   29.4170   39.2210 C   0  0  0  0  0  0  0  0  0  0  0  0
   39.5820   29.8080   40.1860 H   0  0  0  0  0  0  0  0  0  0  0  0
   37.7460   31.3200   41.8850 H   0  0  0  0  0  0  0  0  0  0  0  0
   36.9470   32.9730   40.2250 H   0  0  0  0  0  0  0  0  0  0  0  0
   35.9520   31.5480   40.3730 H   0  0  0  0  0  0  0  0  0  0  0  0
   36.1070   31.8730   38.0760 H   0  0  0  0  0  0  0  0  0  0  0  0
   37.7370   32.5600   38.1720 H   0  0  0  0  0  0  0  0  0  0  0  0
   37.0820   29.9890   37.3130 H   0  0  0  0  0  0  0  0  0  0  0  0
   38.7210   30.5600   37.6040 H   0  0  0  0  0  0  0  0  0  0  0  0
   38.2810   28.5260   38.8790 H   0  0  0  0  0  0  0  0  0  0  0  0
   36.7080   29.2460   39.5120 H   0  0  0  0  0  0  0  0  0  0  0  0
   38.2360   28.9980   41.5480 C   0  0  0  0  0  0  0  0  0  0  0  0
   36.9120   28.5270   41.6560 C   0  0  0  0  0  0  0  0  0  0  0  0
   36.5580   27.6260   42.6700 C   0  0  0  0  0  0  0  0  0  0  0  0
   37.5760   27.2540   43.5220 N   0  0  0  0  0  0  0  0  0  0  0  0
   38.8250   27.7150   43.3990 C   0  0  0  0  0  0  0  0  0  0  0  0
   39.1560   28.5840   42.4160 N   0  0  0  0  0  0  0  0  0  0  0  0
   36.0630   28.7660   41.0360 H   0  0  0  0  0  0  0  0  0  0  0  0
   35.5620   27.2290   42.8040 H   0  0  0  0  0  0  0  0  0  0  0  0
   39.5810   27.3840   44.1020 H   0  0  0  0  0  0  0  0  0  0  0  0
   39.2630   32.2760   40.7840 C   0  0  0  0  0  0  0  0  0  0  0  0
   39.2600   33.6480   40.8470 C   0  0  0  0  0  0  0  0  0  0  0  0
   38.3940   34.2860   40.9260 H   0  0  0  0  0  0  0  0  0  0  0  0
   40.5020   34.1610   40.7950 N   0  0  0  0  0  0  0  0  0  0  0  0
   40.7940   35.1670   40.8240 H   0  0  0  0  0  0  0  0  0  0  0  0
   41.3280   33.1080   40.6980 C   0  0  0  0  0  0  0  0  0  0  0  0
   42.4140   33.1010   40.6330 H   0  0  0  0  0  0  0  0  0  0  0  0
   40.5870   31.9860   40.6920 N   0  0  0  0  0  0  0  0  0  0  0  0
  1  7  1  6  0  0  0
  1  2  1  0  0  0  0
  1 17  1  0  0  0  0
  2  8  1  1  0  0  0
  3  9  1  0  0  0  0
  3 10  1  0  0  0  0
  3  2  1  0  0  0  0
  4  3  1  0  0  0  0
  5  4  1  0  0  0  0
  5  6  1  0  0  0  0
  6 16  1  0  0  0  0
  6  1  1  0  0  0  0
 11  4  1  0  0  0  0
 12  4  1  0  0  0  0
 13  5  1  0  0  0  0
 14  5  1  0  0  0  0
 15  6  1  0  0  0  0
 17 18  2  0  0  0  0
 17 22  1  0  0  0  0
 18 19  1  0  0  0  0
 19 24  1  0  0  0  0
 19 20  2  0  0  0  0
 21 20  1  0  0  0  0
 21 25  1  0  0  0  0
 22 21  2  0  0  0  0
 23 18  1  0  0  0  0
 26  2  1  0  0  0  0
 26 27  2  0  0  0  0
 27 28  1  0  0  0  0
 29 30  1  0  0  0  0
 29 27  1  0  0  0  0
 31 29  1  0  0  0  0
 32 31  1  0  0  0  0
 33 31  2  0  0  0  0
 33 26  1  0  0  0  0
M  END
>  <minimizedAffinity>
-4.58467817

$$$$

 OpenBabel03242517093D

 33 35  0  0  1  0  0  0  0  0999 V2000
   39.1250   28.0670   42.1980 C   0  0  2  0  0  0  0  0  0  0  0  0
   38.1010   29.0290   42.6600 C   0  0  2  0  0  0  0  0  0  0  0  0
   37.1580   28.4580   43.6800 C   0  0  0  0  0  0  0  0  0  0  0  0
   36.5180   27.1550   43.2540 C   0  0  0  0  0  0  0  0  0  0  0  0
   37.4580   26.2360   42.5260 C   0  0  0  0  0  0  0  0  0  0  0  0
   38.8970   26.6480   42.6940 C   0  0  0  0  0  0  0  0  0  0  0  0
   39.1950   27.9500   41.0750 H   0  0  0  0  0  0  0  0  0  0  0  0
   38.6290   29.8700   43.2040 H   0  0  0  0  0  0  0  0  0  0  0  0
   36.3030   29.2010   43.7270 H   0  0  0  0  0  0  0  0  0  0  0  0
   37.5230   28.4320   44.7090 H   0  0  0  0  0  0  0  0  0  0  0  0
   36.0820   26.6920   44.1610 H   0  0  0  0  0  0  0  0  0  0  0  0
   35.6680   27.3850   42.5840 H   0  0  0  0  0  0  0  0  0  0  0  0
   37.3790   25.2300   43.0360 H   0  0  0  0  0  0  0  0  0  0  0  0
   37.1660   26.0300   41.4830 H   0  0  0  0  0  0  0  0  0  0  0  0
   39.5250   25.9820   42.1070 H   0  0  0  0  0  0  0  0  0  0  0  0
   39.1120   26.6380   43.7780 H   0  0  0  0  0  0  0  0  0  0  0  0
   40.4810   28.4650   42.6260 C   0  0  0  0  0  0  0  0  0  0  0  0
   41.2530   27.4530   43.2310 C   0  0  0  0  0  0  0  0  0  0  0  0
   42.5540   27.7220   43.6790 C   0  0  0  0  0  0  0  0  0  0  0  0
   42.9980   29.0130   43.4860 N   0  0  0  0  0  0  0  0  0  0  0  0
   42.2470   29.9560   42.9090 C   0  0  0  0  0  0  0  0  0  0  0  0
   40.9920   29.6850   42.4790 N   0  0  0  0  0  0  0  0  0  0  0  0
   40.9830   26.4260   43.4190 H   0  0  0  0  0  0  0  0  0  0  0  0
   43.1930   26.9890   44.1500 H   0  0  0  0  0  0  0  0  0  0  0  0
   42.6540   30.9520   42.7850 H   0  0  0  0  0  0  0  0  0  0  0  0
   37.3640   29.6770   41.5330 C   0  0  0  0  0  0  0  0  0  0  0  0
   36.3810   30.6360   41.5790 C   0  0  0  0  0  0  0  0  0  0  0  0
   35.9640   31.0880   42.4650 H   0  0  0  0  0  0  0  0  0  0  0  0
   35.9520   30.9810   40.3520 N   0  0  0  0  0  0  0  0  0  0  0  0
   35.2170   31.6800   40.0910 H   0  0  0  0  0  0  0  0  0  0  0  0
   36.6670   30.2380   39.4930 C   0  0  0  0  0  0  0  0  0  0  0  0
   36.6190   30.2220   38.4060 H   0  0  0  0  0  0  0  0  0  0  0  0
   37.5080   29.4620   40.2000 N   0  0  0  0  0  0  0  0  0  0  0  0
  1  7  1  6  0  0  0
  1 17  1  0  0  0  0
  1  2  1  0  0  0  0
  1  6  1  0  0  0  0
  2  8  1  1  0  0  0
  2  3  1  0  0  0  0
  3  9  1  0  0  0  0
  3 10  1  0  0  0  0
  4  3  1  0  0  0  0
  4 11  1  0  0  0  0
  5  6  1  0  0  0  0
  5 13  1  0  0  0  0
  5  4  1  0  0  0  0
  6 16  1  0  0  0  0
 12  4  1  0  0  0  0
 14  5  1  0  0  0  0
 15  6  1  0  0  0  0
 17 18  1  0  0  0  0
 18 23  1  0  0  0  0
 18 19  2  0  0  0  0
 19 24  1  0  0  0  0
 20 19  1  0  0  0  0
 21 20  2  0  0  0  0
 22 17  2  0  0  0  0
 22 21  1  0  0  0  0
 25 21  1  0  0  0  0
 26 27  2  0  0  0  0
 26  2  1  0  0  0  0
 27 28  1  0  0  0  0
 29 27  1  0  0  0  0
 30 29  1  0  0  0  0
 31 33  2  0  0  0  0
 31 29  1  0  0  0  0
 32 31  1  0  0  0  0
 33 26  1  0  0  0  0
M  END
>  <minimizedAffinity>
-4.53861094

$$$$

 OpenBabel03242517093D

 33 35  0  0  1  0  0  0  0  0999 V2000
   38.2980   29.3190   41.4720 C   0  0  2  0  0  0  0  0  0  0  0  0
   37.1760   28.5300   40.9190 C   0  0  2  0  0  0  0  0  0  0  0  0
   36.1970   28.0690   41.9600 C   0  0  0  0  0  0  0  0  0  0  0  0
   36.8410   27.3480   43.1240 C   0  0  0  0  0  0  0  0  0  0  0  0
   38.1440   27.9560   43.5590 C   0  0  0  0  0  0  0  0  0  0  0  0
   38.3420   29.3370   42.9920 C   0  0  0  0  0  0  0  0  0  0  0  0
   39.3270   28.9520   41.1780 H   0  0  0  0  0  0  0  0  0  0  0  0
   36.5700   29.2050   40.2420 H   0  0  0  0  0  0  0  0  0  0  0  0
   35.5720   27.2810   41.4370 H   0  0  0  0  0  0  0  0  0  0  0  0
   35.4540   28.8040   42.2790 H   0  0  0  0  0  0  0  0  0  0  0  0
   36.0920   27.3080   43.9400 H   0  0  0  0  0  0  0  0  0  0  0  0
   37.0280   26.2990   42.8240 H   0  0  0  0  0  0  0  0  0  0  0  0
   38.0680   28.1060   44.6760 H   0  0  0  0  0  0  0  0  0  0  0  0
   39.0130   27.2880   43.4370 H   0  0  0  0  0  0  0  0  0  0  0  0
   39.3190   29.7050   43.2940 H   0  0  0  0  0  0  0  0  0  0  0  0
   37.4950   29.9540   43.3400 H   0  0  0  0  0  0  0  0  0  0  0  0
   38.2510   30.7240   41.0210 C   0  0  0  0  0  0  0  0  0  0  0  0
   37.2250   31.0400   40.1080 C   0  0  0  0  0  0  0  0  0  0  0  0
   37.0900   32.3440   39.6120 C   0  0  0  0  0  0  0  0  0  0  0  0
   38.0120   33.2580   40.0740 N   0  0  0  0  0  0  0  0  0  0  0  0
   38.9780   32.9350   40.9410 C   0  0  0  0  0  0  0  0  0  0  0  0
   39.0980   31.6730   41.4140 N   0  0  0  0  0  0  0  0  0  0  0  0
   36.4690   30.3890   39.7000 H   0  0  0  0  0  0  0  0  0  0  0  0
   36.3250   32.6460   38.9110 H   0  0  0  0  0  0  0  0  0  0  0  0
   39.6720   33.7010   41.2660 H   0  0  0  0  0  0  0  0  0  0  0  0
   37.6320   27.3980   40.0560 C   0  0  0  0  0  0  0  0  0  0  0  0
   36.8830   26.4500   39.4030 C   0  0  0  0  0  0  0  0  0  0  0  0
   35.8080   26.3630   39.4100 H   0  0  0  0  0  0  0  0  0  0  0  0
   37.6480   25.5850   38.7150 N   0  0  0  0  0  0  0  0  0  0  0  0
   37.3470   24.7690   38.1310 H   0  0  0  0  0  0  0  0  0  0  0  0
   38.9160   25.9750   38.9220 C   0  0  0  0  0  0  0  0  0  0  0  0
   39.8330   25.5330   38.5370 H   0  0  0  0  0  0  0  0  0  0  0  0
   38.9030   27.0550   39.7210 N   0  0  0  0  0  0  0  0  0  0  0  0
  1  7  1  6  0  0  0
  1  6  1  0  0  0  0
  2  8  1  6  0  0  0
  2  1  1  0  0  0  0
  2  3  1  0  0  0  0
  3 10  1  0  0  0  0
  3  4  1  0  0  0  0
  4  5  1  0  0  0  0
  4 11  1  0  0  0  0
  5 13  1  0  0  0  0
  6 15  1  0  0  0  0
  6 16  1  0  0  0  0
  6  5  1  0  0  0  0
  9  3  1  0  0  0  0
 12  4  1  0  0  0  0
 14  5  1  0  0  0  0
 17 22  1  0  0  0  0
 17  1  1  0  0  0  0
 18 17  2  0  0  0  0
 19 20  2  0  0  0  0
 19 18  1  0  0  0  0
 20 21  1  0  0  0  0
 21 25  1  0  0  0  0
 21 22  2  0  0  0  0
 23 18  1  0  0  0  0
 24 19  1  0  0  0  0
 26  2  1  0  0  0  0
 27 28  1  0  0  0  0
 27 26  2  0  0  0  0
 29 31  1  0  0  0  0
 29 27  1  0  0  0  0
 30 29  1  0  0  0  0
 31 33  2  0  0  0  0
 32 31  1  0  0  0  0
 33 26  1  0  0  0  0
M  END
>  <minimizedAffinity>
-4.52305889

$$$$
