
 OpenBabel03252509203D

 24 26  0  0  0  0  0  0  0  0999 V2000
   45.2750   33.8790   45.9120 C   0  0  0  0  0  0  0  0  0  0  0  0
   45.7960   33.9400   44.6120 C   0  0  0  0  0  0  0  0  0  0  0  0
   46.8710   33.1080   44.3780 C   0  0  0  0  0  0  0  0  0  0  0  0
   47.3540   32.3030   45.3930 N   0  0  0  0  0  0  0  0  0  0  0  0
   46.8180   32.2830   46.6220 C   0  0  0  0  0  0  0  0  0  0  0  0
   45.7740   33.0860   46.8540 N   0  0  0  0  0  0  0  0  0  0  0  0
   44.4280   34.4640   46.2680 H   0  0  0  0  0  0  0  0  0  0  0  0
   47.3360   31.5950   47.2550 H   0  0  0  0  0  0  0  0  0  0  0  0
   47.4270   32.9820   42.9760 C   0  0  0  0  0  0  0  0  0  0  0  0
   48.6640   33.8700   42.8250 C   0  0  0  0  0  0  0  0  0  0  0  0
   48.7050   32.3180   42.8090 C   0  0  0  0  0  0  0  0  0  0  0  0
   46.7110   33.2910   42.1870 H   0  0  0  0  0  0  0  0  0  0  0  0
   49.1570   34.2810   43.7270 H   0  0  0  0  0  0  0  0  0  0  0  0
   48.8560   34.3830   41.8890 H   0  0  0  0  0  0  0  0  0  0  0  0
   48.8970   31.9050   41.7790 H   0  0  0  0  0  0  0  0  0  0  0  0
   49.1810   31.8000   43.6440 H   0  0  0  0  0  0  0  0  0  0  0  0
   45.1630   34.8550   43.6910 C   0  0  0  0  0  0  0  0  0  0  0  0
   45.0880   36.1970   43.5150 C   0  0  0  0  0  0  0  0  0  0  0  0
   45.5570   36.9490   44.0870 H   0  0  0  0  0  0  0  0  0  0  0  0
   44.2830   36.5380   42.5050 N   0  0  0  0  0  0  0  0  0  0  0  0
   44.0370   37.4810   42.1410 H   0  0  0  0  0  0  0  0  0  0  0  0
   43.8140   35.3970   42.0000 C   0  0  0  0  0  0  0  0  0  0  0  0
   43.1350   35.2100   41.1790 H   0  0  0  0  0  0  0  0  0  0  0  0
   44.3460   34.4140   42.7170 N   0  0  0  0  0  0  0  0  0  0  0  0
  1  7  1  0  0  0  0
  1  6  1  0  0  0  0
  2  1  2  0  0  0  0
  3  2  1  0  0  0  0
  3  4  2  0  0  0  0
  4  5  1  0  0  0  0
  5  6  2  0  0  0  0
  5  8  1  0  0  0  0
  9  3  1  0  0  0  0
 10  9  1  0  0  0  0
 10 13  1  0  0  0  0
 11 10  1  0  0  0  0
 11  9  1  0  0  0  0
 11 16  1  0  0  0  0
 12  9  1  0  0  0  0
 14 10  1  0  0  0  0
 15 11  1  0  0  0  0
 17  2  1  0  0  0  0
 18 17  2  0  0  0  0
 18 19  1  0  0  0  0
 20 18  1  0  0  0  0
 21 20  1  0  0  0  0
 22 20  1  0  0  0  0
 22 24  2  0  0  0  0
 23 22  1  0  0  0  0
 24 17  1  0  0  0  0
M  END
>  <minimizedAffinity>
-3.90799022

>  <minimizedRMSD>
2.50272489

$$$$
