
 OpenBabel03242517053D

 33 35  0  0  1  0  0  0  0  0999 V2000
   46.4040   33.8920   43.1970 C   0  0  2  0  0  0  0  0  0  0  0  0
   45.8270   35.0200   42.4340 C   0  0  2  0  0  0  0  0  0  0  0  0
   45.4690   36.2020   43.2880 C   0  0  0  0  0  0  0  0  0  0  0  0
   44.5960   35.8520   44.4740 C   0  0  0  0  0  0  0  0  0  0  0  0
   44.9730   34.5550   45.1330 C   0  0  0  0  0  0  0  0  0  0  0  0
   46.3350   34.0770   44.7050 C   0  0  0  0  0  0  0  0  0  0  0  0
   45.9000   32.8950   43.0240 H   0  0  0  0  0  0  0  0  0  0  0  0
   46.6230   35.4140   41.7300 H   0  0  0  0  0  0  0  0  0  0  0  0
   44.8140   36.8480   42.6250 H   0  0  0  0  0  0  0  0  0  0  0  0
   46.2910   36.8700   43.5530 H   0  0  0  0  0  0  0  0  0  0  0  0
   44.6290   36.7120   45.1710 H   0  0  0  0  0  0  0  0  0  0  0  0
   43.5480   35.7740   44.1260 H   0  0  0  0  0  0  0  0  0  0  0  0
   45.0730   34.7760   46.2370 H   0  0  0  0  0  0  0  0  0  0  0  0
   44.1870   33.7830   45.0860 H   0  0  0  0  0  0  0  0  0  0  0  0
   46.5320   33.1130   45.1690 H   0  0  0  0  0  0  0  0  0  0  0  0
   47.0560   34.8690   44.9740 H   0  0  0  0  0  0  0  0  0  0  0  0
   47.8220   33.6680   42.8510 C   0  0  0  0  0  0  0  0  0  0  0  0
   48.6130   34.8280   42.7270 C   0  0  0  0  0  0  0  0  0  0  0  0
   49.9720   34.7320   42.3970 C   0  0  0  0  0  0  0  0  0  0  0  0
   50.4520   33.4530   42.2090 N   0  0  0  0  0  0  0  0  0  0  0  0
   49.6830   32.3670   42.3330 C   0  0  0  0  0  0  0  0  0  0  0  0
   48.3720   32.4720   42.6520 N   0  0  0  0  0  0  0  0  0  0  0  0
   48.3170   35.8570   42.8560 H   0  0  0  0  0  0  0  0  0  0  0  0
   50.6280   35.5840   42.2880 H   0  0  0  0  0  0  0  0  0  0  0  0
   50.1210   31.3890   42.1730 H   0  0  0  0  0  0  0  0  0  0  0  0
   44.6860   34.6080   41.5620 C   0  0  0  0  0  0  0  0  0  0  0  0
   44.3080   33.3470   41.1690 C   0  0  0  0  0  0  0  0  0  0  0  0
   44.7910   32.4190   41.4310 H   0  0  0  0  0  0  0  0  0  0  0  0
   43.2200   33.3680   40.3780 N   0  0  0  0  0  0  0  0  0  0  0  0
   42.7190   32.5600   39.9370 H   0  0  0  0  0  0  0  0  0  0  0  0
   42.8840   34.6610   40.2540 C   0  0  0  0  0  0  0  0  0  0  0  0
   42.0590   35.0970   39.6940 H   0  0  0  0  0  0  0  0  0  0  0  0
   43.7590   35.3970   40.9610 N   0  0  0  0  0  0  0  0  0  0  0  0
  1  7  1  6  0  0  0
  1  6  1  0  0  0  0
  2  8  1  6  0  0  0
  2  1  1  0  0  0  0
  2  3  1  0  0  0  0
  3 10  1  0  0  0  0
  3  4  1  0  0  0  0
  4  5  1  0  0  0  0
  4 11  1  0  0  0  0
  5 13  1  0  0  0  0
  6 16  1  0  0  0  0
  6  5  1  0  0  0  0
  6 15  1  0  0  0  0
  9  3  1  0  0  0  0
 12  4  1  0  0  0  0
 14  5  1  0  0  0  0
 17  1  1  0  0  0  0
 18 17  1  0  0  0  0
 18 23  1  0  0  0  0
 19 18  2  0  0  0  0
 20 21  2  0  0  0  0
 20 19  1  0  0  0  0
 21 22  1  0  0  0  0
 22 17  2  0  0  0  0
 24 19  1  0  0  0  0
 25 21  1  0  0  0  0
 26  2  1  0  0  0  0
 27 28  1  0  0  0  0
 27 26  2  0  0  0  0
 29 27  1  0  0  0  0
 30 29  1  0  0  0  0
 31 29  1  0  0  0  0
 31 33  2  0  0  0  0
 32 31  1  0  0  0  0
 33 26  1  0  0  0  0
M  END
>  <minimizedAffinity>
-4.87456656

>  <minimizedRMSD>
2.27989817

$$$$
