
 OpenBabel03252508593D

 44 46  0  0  1  0  0  0  0  0999 V2000
   46.7250   34.4680   43.5830 N   0  0  0  0  0  0  0  0  0  0  0  0
   46.2620   35.5480   42.7770 C   0  0  0  0  0  0  0  0  0  0  0  0
   44.7680   35.7720   42.8120 C   0  0  0  0  0  0  0  0  0  0  0  0
   44.1060   35.4290   44.1180 C   0  0  0  0  0  0  0  0  0  0  0  0
   45.1210   35.0420   45.1680 C   0  0  0  0  0  0  0  0  0  0  0  0
   45.8950   33.8470   44.4980 C   0  0  2  0  0  0  0  0  0  0  0  0
   46.5510   35.5230   41.7270 H   0  0  0  0  0  0  0  0  0  0  0  0
   46.7100   36.4810   43.1940 H   0  0  0  0  0  0  0  0  0  0  0  0
   44.5550   36.8450   42.6160 H   0  0  0  0  0  0  0  0  0  0  0  0
   44.2960   35.2170   41.9490 H   0  0  0  0  0  0  0  0  0  0  0  0
   43.4800   34.5180   43.9390 H   0  0  0  0  0  0  0  0  0  0  0  0
   43.3960   36.2060   44.4680 H   0  0  0  0  0  0  0  0  0  0  0  0
   44.6000   34.6940   46.0650 H   0  0  0  0  0  0  0  0  0  0  0  0
   45.8190   35.8710   45.3080 H   0  0  0  0  0  0  0  0  0  0  0  0
   45.1340   33.1540   44.0860 H   0  0  0  0  0  0  0  0  0  0  0  0
   47.7940   33.7150   42.9930 C   0  0  0  0  0  0  0  0  0  0  0  0
   48.4310   34.4040   42.4350 H   0  0  0  0  0  0  0  0  0  0  0  0
   48.4210   33.2350   43.7740 H   0  0  0  0  0  0  0  0  0  0  0  0
   47.1980   32.6760   42.0870 C   0  0  0  0  0  0  0  0  0  0  0  0
   47.3910   31.6560   42.4430 H   0  0  0  0  0  0  0  0  0  0  0  0
   46.0940   32.7740   42.0240 H   0  0  0  0  0  0  0  0  0  0  0  0
   49.0680   32.0060   38.8940 C   0  0  0  0  0  0  0  0  0  0  0  0
   48.5380   31.8490   40.1890 C   0  0  0  0  0  0  0  0  0  0  0  0
   47.7550   32.8490   40.7180 C   0  0  0  0  0  0  0  0  0  0  0  0
   47.5340   33.9340   39.9660 N   0  0  0  0  0  0  0  0  0  0  0  0
   48.0470   34.0750   38.7260 C   0  0  0  0  0  0  0  0  0  0  0  0
   48.8150   33.1170   38.1820 N   0  0  0  0  0  0  0  0  0  0  0  0
   49.6610   31.1670   38.5840 H   0  0  0  0  0  0  0  0  0  0  0  0
   48.7210   30.9660   40.7940 H   0  0  0  0  0  0  0  0  0  0  0  0
   47.8760   34.9460   38.1090 H   0  0  0  0  0  0  0  0  0  0  0  0
   46.6020   33.3370   45.5760 O   0  0  0  0  0  0  0  0  0  0  0  0
   45.5660   31.0490   44.6940 O   0  0  0  0  0  0  0  0  0  0  0  0
   46.2240   31.7310   45.9020 P   0  0  2  0  0  0  0  0  0  0  0  0
   44.9960   31.7650   47.0950 O   0  0  0  0  0  0  0  0  0  0  0  0
   45.2810   32.3550   47.8480 H   0  0  0  0  0  0  0  0  0  0  0  0
   47.5090   30.8630   46.5000 O   0  0  0  0  0  0  0  0  0  0  0  0
   47.3330   29.5760   46.9960 C   0  0  0  0  0  0  0  0  0  0  0  0
   48.2740   28.7280   47.5840 C   0  0  0  0  0  0  0  0  0  0  0  0
   49.3070   28.9560   47.7450 H   0  0  0  0  0  0  0  0  0  0  0  0
   47.7070   27.5650   47.9310 N   0  0  0  0  0  0  0  0  0  0  0  0
   48.1780   26.7530   48.3880 H   0  0  0  0  0  0  0  0  0  0  0  0
   46.4190   27.6780   47.5640 C   0  0  0  0  0  0  0  0  0  0  0  0
   45.6940   26.8880   47.7150 H   0  0  0  0  0  0  0  0  0  0  0  0
   46.1670   28.8760   47.0000 N   0  0  0  0  0  0  0  0  0  0  0  0
  1  6  1  0  0  0  0
  2  3  1  0  0  0  0
  2  8  1  0  0  0  0
  2  1  1  0  0  0  0
  3  4  1  0  0  0  0
  4 12  1  0  0  0  0
  4  5  1  0  0  0  0
  5 14  1  0  0  0  0
  5 13  1  0  0  0  0
  6 15  1  6  0  0  0
  6  5  1  0  0  0  0
  6 31  1  0  0  0  0
  7  2  1  0  0  0  0
  9  3  1  0  0  0  0
 10  3  1  0  0  0  0
 11  4  1  0  0  0  0
 16  1  1  0  0  0  0
 16 18  1  0  0  0  0
 17 16  1  0  0  0  0
 19 20  1  0  0  0  0
 19 16  1  0  0  0  0
 21 19  1  0  0  0  0
 22 23  1  0  0  0  0
 23 24  2  0  0  0  0
 23 29  1  0  0  0  0
 24 19  1  0  0  0  0
 25 24  1  0  0  0  0
 26 25  2  0  0  0  0
 27 26  1  0  0  0  0
 27 22  2  0  0  0  0
 28 22  1  0  0  0  0
 30 26  1  0  0  0  0
 31 33  1  0  0  0  0
 33 32  2  6  0  0  0
 33 36  1  0  0  0  0
 33 34  1  0  0  0  0
 34 35  1  0  0  0  0
 36 37  1  0  0  0  0
 37 44  1  0  0  0  0
 37 38  2  0  0  0  0
 38 39  1  0  0  0  0
 38 40  1  0  0  0  0
 40 41  1  0  0  0  0
 42 43  1  0  0  0  0
 42 40  1  0  0  0  0
 44 42  2  0  0  0  0
M  END
>  <minimizedAffinity>
-4.34106779

>  <minimizedRMSD>
1.22178471

$$$$
