
 OpenBabel03252508593D

 44 46  0  0  1  0  0  0  0  0999 V2000
   46.7940   34.3720   43.5030 N   0  0  0  0  0  0  0  0  0  0  0  0
   46.3570   35.5230   42.7870 C   0  0  0  0  0  0  0  0  0  0  0  0
   44.8760   35.8070   42.8820 C   0  0  0  0  0  0  0  0  0  0  0  0
   44.2350   35.4030   44.1820 C   0  0  0  0  0  0  0  0  0  0  0  0
   45.2610   34.9020   45.1710 C   0  0  0  0  0  0  0  0  0  0  0  0
   45.9630   33.7240   44.3990 C   0  0  2  0  0  0  0  0  0  0  0  0
   46.6160   35.5580   41.7290 H   0  0  0  0  0  0  0  0  0  0  0  0
   46.8570   36.4060   43.2530 H   0  0  0  0  0  0  0  0  0  0  0  0
   44.7050   36.8990   42.7660 H   0  0  0  0  0  0  0  0  0  0  0  0
   44.3570   35.3330   41.9980 H   0  0  0  0  0  0  0  0  0  0  0  0
   43.5650   34.5330   43.9600 H   0  0  0  0  0  0  0  0  0  0  0  0
   43.5700   36.1820   44.6050 H   0  0  0  0  0  0  0  0  0  0  0  0
   44.7500   34.5150   46.0590 H   0  0  0  0  0  0  0  0  0  0  0  0
   45.9980   35.6890   45.3470 H   0  0  0  0  0  0  0  0  0  0  0  0
   45.1610   33.0940   43.9640 H   0  0  0  0  0  0  0  0  0  0  0  0
   47.8120   33.6170   42.8310 C   0  0  0  0  0  0  0  0  0  0  0  0
   48.4740   34.3170   42.3170 H   0  0  0  0  0  0  0  0  0  0  0  0
   48.4280   33.0440   43.5580 H   0  0  0  0  0  0  0  0  0  0  0  0
   47.1480   32.6860   41.8580 C   0  0  0  0  0  0  0  0  0  0  0  0
   47.2410   31.6350   42.1610 H   0  0  0  0  0  0  0  0  0  0  0  0
   46.0590   32.8870   41.7800 H   0  0  0  0  0  0  0  0  0  0  0  0
   49.1860   32.1030   38.7530 C   0  0  0  0  0  0  0  0  0  0  0  0
   48.6130   31.9240   40.0250 C   0  0  0  0  0  0  0  0  0  0  0  0
   47.7510   32.8810   40.5110 C   0  0  0  0  0  0  0  0  0  0  0  0
   47.4990   33.9460   39.7400 N   0  0  0  0  0  0  0  0  0  0  0  0
   48.0540   34.1080   38.5220 C   0  0  0  0  0  0  0  0  0  0  0  0
   48.8990   33.1920   38.0190 N   0  0  0  0  0  0  0  0  0  0  0  0
   49.8400   31.2980   38.4760 H   0  0  0  0  0  0  0  0  0  0  0  0
   48.8210   31.0590   40.6470 H   0  0  0  0  0  0  0  0  0  0  0  0
   47.8590   34.9620   37.8890 H   0  0  0  0  0  0  0  0  0  0  0  0
   46.6760   33.1110   45.4180 O   0  0  0  0  0  0  0  0  0  0  0  0
   45.4620   30.9590   44.4300 O   0  0  0  0  0  0  0  0  0  0  0  0
   46.2530   31.4980   45.6300 P   0  0  2  0  0  0  0  0  0  0  0  0
   45.1370   31.4670   46.9280 O   0  0  0  0  0  0  0  0  0  0  0  0
   45.5140   31.9720   47.7030 H   0  0  0  0  0  0  0  0  0  0  0  0
   47.5440   30.5290   46.0280 O   0  0  0  0  0  0  0  0  0  0  0  0
   47.3530   29.3240   46.6960 C   0  0  0  0  0  0  0  0  0  0  0  0
   48.2430   28.6270   47.5160 C   0  0  0  0  0  0  0  0  0  0  0  0
   49.2400   28.9310   47.7580 H   0  0  0  0  0  0  0  0  0  0  0  0
   47.6800   27.5010   47.9730 N   0  0  0  0  0  0  0  0  0  0  0  0
   48.1180   26.7950   48.6040 H   0  0  0  0  0  0  0  0  0  0  0  0
   46.4430   27.4890   47.4460 C   0  0  0  0  0  0  0  0  0  0  0  0
   45.7320   26.6930   47.6340 H   0  0  0  0  0  0  0  0  0  0  0  0
   46.2210   28.5720   46.6750 N   0  0  0  0  0  0  0  0  0  0  0  0
  1  6  1  0  0  0  0
  2  3  1  0  0  0  0
  2  8  1  0  0  0  0
  2  1  1  0  0  0  0
  3  4  1  0  0  0  0
  4 12  1  0  0  0  0
  4  5  1  0  0  0  0
  5 14  1  0  0  0  0
  5 13  1  0  0  0  0
  6 15  1  6  0  0  0
  6  5  1  0  0  0  0
  6 31  1  0  0  0  0
  7  2  1  0  0  0  0
  9  3  1  0  0  0  0
 10  3  1  0  0  0  0
 11  4  1  0  0  0  0
 16  1  1  0  0  0  0
 16 18  1  0  0  0  0
 17 16  1  0  0  0  0
 19 20  1  0  0  0  0
 19 16  1  0  0  0  0
 21 19  1  0  0  0  0
 22 23  1  0  0  0  0
 23 24  2  0  0  0  0
 23 29  1  0  0  0  0
 24 19  1  0  0  0  0
 25 24  1  0  0  0  0
 26 25  2  0  0  0  0
 27 26  1  0  0  0  0
 27 22  2  0  0  0  0
 28 22  1  0  0  0  0
 30 26  1  0  0  0  0
 31 33  1  0  0  0  0
 33 32  2  6  0  0  0
 33 36  1  0  0  0  0
 33 34  1  0  0  0  0
 34 35  1  0  0  0  0
 36 37  1  0  0  0  0
 37 38  2  0  0  0  0
 38 39  1  0  0  0  0
 38 40  1  0  0  0  0
 40 41  1  0  0  0  0
 42 43  1  0  0  0  0
 42 40  1  0  0  0  0
 44 37  1  0  0  0  0
 44 42  2  0  0  0  0
M  END
>  <minimizedAffinity>
-4.2746172

>  <minimizedRMSD>
1.08399403

$$$$
