
 OpenBabel03242523443D

 30 32  0  0  1  0  0  0  0  0999 V2000
   37.1880   27.8090   39.2730 C   0  0  2  0  0  0  0  0  0  0  0  0
   38.1930   27.9880   38.9150 H   0  0  0  0  0  0  0  0  0  0  0  0
   36.6080   25.5070   39.9350 C   0  0  0  0  0  0  0  0  0  0  0  0
   37.2340   26.7290   40.2780 C   0  0  0  0  0  0  0  0  0  0  0  0
   37.8290   26.8260   41.5460 C   0  0  0  0  0  0  0  0  0  0  0  0
   37.7490   25.7360   42.3280 N   0  0  0  0  0  0  0  0  0  0  0  0
   37.1550   24.6070   41.9780 C   0  0  0  0  0  0  0  0  0  0  0  0
   36.5720   24.4730   40.7720 N   0  0  0  0  0  0  0  0  0  0  0  0
   36.1430   25.4120   38.9630 H   0  0  0  0  0  0  0  0  0  0  0  0
   38.3080   27.7570   41.8070 H   0  0  0  0  0  0  0  0  0  0  0  0
   37.1860   23.8290   42.7390 H   0  0  0  0  0  0  0  0  0  0  0  0
   36.6920   29.0400   39.9590 C   0  0  0  0  0  0  0  0  0  0  0  0
   35.4600   29.3140   40.5090 C   0  0  0  0  0  0  0  0  0  0  0  0
   35.4640   30.5580   41.0340 N   0  0  0  0  0  0  0  0  0  0  0  0
   36.7110   31.0690   40.8120 C   0  0  0  0  0  0  0  0  0  0  0  0
   37.4300   30.1370   40.1640 N   0  0  0  0  0  0  0  0  0  0  0  0
   34.6720   28.5660   40.4700 H   0  0  0  0  0  0  0  0  0  0  0  0
   34.5810   30.8900   41.4860 H   0  0  0  0  0  0  0  0  0  0  0  0
   36.9140   32.0660   41.1630 H   0  0  0  0  0  0  0  0  0  0  0  0
   36.2240   27.3960   38.2150 C   0  0  0  0  0  0  0  0  0  0  0  0
   35.1580   27.6000   38.5500 H   0  0  0  0  0  0  0  0  0  0  0  0
   36.2280   26.3180   37.9970 H   0  0  0  0  0  0  0  0  0  0  0  0
   36.4060   28.2200   36.9850 C   0  0  0  0  0  0  0  0  0  0  0  0
   37.4240   27.7960   36.1400 C   0  0  0  0  0  0  0  0  0  0  0  0
   38.1400   26.9710   36.1740 H   0  0  0  0  0  0  0  0  0  0  0  0
   37.5230   28.5920   35.0630 N   0  0  0  0  0  0  0  0  0  0  0  0
   38.1320   28.6140   34.2300 H   0  0  0  0  0  0  0  0  0  0  0  0
   36.5590   29.5000   35.2600 C   0  0  0  0  0  0  0  0  0  0  0  0
   36.2350   30.3630   34.6610 H   0  0  0  0  0  0  0  0  0  0  0  0
   35.8890   29.3020   36.3830 N   0  0  0  0  0  0  0  0  0  0  0  0
  1  2  1  6  0  0  0
  1 12  1  0  0  0  0
  1  4  1  0  0  0  0
  3  4  2  0  0  0  0
  3  8  1  0  0  0  0
  4  5  1  0  0  0  0
  5 10  1  0  0  0  0
  5  6  2  0  0  0  0
  7  6  1  0  0  0  0
  7 11  1  0  0  0  0
  8  7  2  0  0  0  0
  9  3  1  0  0  0  0
 12 16  1  0  0  0  0
 12 13  2  0  0  0  0
 13 14  1  0  0  0  0
 14 18  1  0  0  0  0
 15 14  1  0  0  0  0
 15 19  1  0  0  0  0
 16 15  2  0  0  0  0
 17 13  1  0  0  0  0
 20 21  1  0  0  0  0
 20  1  1  0  0  0  0
 22 20  1  0  0  0  0
 23 20  1  0  0  0  0
 24 25  1  0  0  0  0
 24 23  2  0  0  0  0
 26 28  1  0  0  0  0
 26 24  1  0  0  0  0
 27 26  1  0  0  0  0
 28 30  2  0  0  0  0
 29 28  1  0  0  0  0
 30 23  1  0  0  0  0
M  END
>  <minimizedAffinity>
-4.54823828

$$$$

 OpenBabel03242523443D

 30 32  0  0  1  0  0  0  0  0999 V2000
   36.1900   29.2960   39.6040 C   0  0  2  0  0  0  0  0  0  0  0  0
   35.5440   29.6870   40.3780 H   0  0  0  0  0  0  0  0  0  0  0  0
   35.8710   27.2260   38.3040 C   0  0  0  0  0  0  0  0  0  0  0  0
   35.3730   28.5000   38.6680 C   0  0  0  0  0  0  0  0  0  0  0  0
   34.1570   28.9140   38.1000 C   0  0  0  0  0  0  0  0  0  0  0  0
   33.5710   28.0520   37.2510 N   0  0  0  0  0  0  0  0  0  0  0  0
   34.0640   26.8670   36.9310 C   0  0  0  0  0  0  0  0  0  0  0  0
   35.2260   26.4320   37.4530 N   0  0  0  0  0  0  0  0  0  0  0  0
   36.8060   26.8890   38.7310 H   0  0  0  0  0  0  0  0  0  0  0  0
   33.7760   29.8840   38.3780 H   0  0  0  0  0  0  0  0  0  0  0  0
   33.4530   26.3030   36.2270 H   0  0  0  0  0  0  0  0  0  0  0  0
   36.7700   30.4370   38.8340 C   0  0  0  0  0  0  0  0  0  0  0  0
   36.9510   31.7520   39.1980 C   0  0  0  0  0  0  0  0  0  0  0  0
   37.5240   32.4310   38.1810 N   0  0  0  0  0  0  0  0  0  0  0  0
   37.7030   31.5320   37.1690 C   0  0  0  0  0  0  0  0  0  0  0  0
   37.2430   30.3410   37.5850 N   0  0  0  0  0  0  0  0  0  0  0  0
   36.6420   32.0870   40.1860 H   0  0  0  0  0  0  0  0  0  0  0  0
   37.7160   33.4480   38.3320 H   0  0  0  0  0  0  0  0  0  0  0  0
   38.1540   31.8880   36.2580 H   0  0  0  0  0  0  0  0  0  0  0  0
   37.2830   28.4160   40.1040 C   0  0  0  0  0  0  0  0  0  0  0  0
   38.2930   28.9140   39.9500 H   0  0  0  0  0  0  0  0  0  0  0  0
   37.3770   27.4630   39.5640 H   0  0  0  0  0  0  0  0  0  0  0  0
   37.1700   28.2190   41.5780 C   0  0  0  0  0  0  0  0  0  0  0  0
   37.3500   29.3660   42.3400 C   0  0  0  0  0  0  0  0  0  0  0  0
   37.5610   30.4110   42.0950 H   0  0  0  0  0  0  0  0  0  0  0  0
   37.2370   29.1010   43.6510 N   0  0  0  0  0  0  0  0  0  0  0  0
   37.3020   29.6640   44.5140 H   0  0  0  0  0  0  0  0  0  0  0  0
   36.9860   27.7860   43.6800 C   0  0  0  0  0  0  0  0  0  0  0  0
   36.8140   27.0930   44.5150 H   0  0  0  0  0  0  0  0  0  0  0  0
   36.9420   27.2460   42.4740 N   0  0  0  0  0  0  0  0  0  0  0  0
  1 20  1  0  0  0  0
  1  2  1  1  0  0  0
  3  4  1  0  0  0  0
  3  9  1  0  0  0  0
  4  1  1  0  0  0  0
  5 10  1  0  0  0  0
  5  4  2  0  0  0  0
  6  5  1  0  0  0  0
  7  6  2  0  0  0  0
  7  8  1  0  0  0  0
  8  3  2  0  0  0  0
 11  7  1  0  0  0  0
 12 13  2  0  0  0  0
 12  1  1  0  0  0  0
 13 17  1  0  0  0  0
 14 18  1  0  0  0  0
 14 13  1  0  0  0  0
 15 16  2  0  0  0  0
 15 14  1  0  0  0  0
 16 12  1  0  0  0  0
 19 15  1  0  0  0  0
 20 23  1  0  0  0  0
 21 20  1  0  0  0  0
 22 20  1  0  0  0  0
 23 24  2  0  0  0  0
 23 30  1  0  0  0  0
 24 26  1  0  0  0  0
 25 24  1  0  0  0  0
 26 28  1  0  0  0  0
 26 27  1  0  0  0  0
 28 29  1  0  0  0  0
 30 28  2  0  0  0  0
M  END
>  <minimizedAffinity>
-4.52995586

$$$$

 OpenBabel03242523443D

 30 32  0  0  1  0  0  0  0  0999 V2000
   37.0620   29.9310   40.1310 C   0  0  2  0  0  0  0  0  0  0  0  0
   37.9920   30.0050   39.5830 H   0  0  0  0  0  0  0  0  0  0  0  0
   36.3250   29.5160   37.8160 C   0  0  0  0  0  0  0  0  0  0  0  0
   35.9950   29.5330   39.1930 C   0  0  0  0  0  0  0  0  0  0  0  0
   34.6830   29.1910   39.5550 C   0  0  0  0  0  0  0  0  0  0  0  0
   33.8490   28.8750   38.5490 N   0  0  0  0  0  0  0  0  0  0  0  0
   34.1890   28.8690   37.2710 C   0  0  0  0  0  0  0  0  0  0  0  0
   35.4360   29.1900   36.8810 N   0  0  0  0  0  0  0  0  0  0  0  0
   37.3310   29.7760   37.5160 H   0  0  0  0  0  0  0  0  0  0  0  0
   34.4310   29.2020   40.6040 H   0  0  0  0  0  0  0  0  0  0  0  0
   33.3830   28.5880   36.5940 H   0  0  0  0  0  0  0  0  0  0  0  0
   37.1870   28.8490   41.1540 C   0  0  0  0  0  0  0  0  0  0  0  0
   37.4060   27.5000   40.9950 C   0  0  0  0  0  0  0  0  0  0  0  0
   37.4560   26.9030   42.2050 N   0  0  0  0  0  0  0  0  0  0  0  0
   37.2660   27.8870   43.1310 C   0  0  0  0  0  0  0  0  0  0  0  0
   37.1070   29.0480   42.4750 N   0  0  0  0  0  0  0  0  0  0  0  0
   37.5100   27.0820   39.9970 H   0  0  0  0  0  0  0  0  0  0  0  0
   37.6190   25.8690   42.2230 H   0  0  0  0  0  0  0  0  0  0  0  0
   37.2730   27.6060   44.1710 H   0  0  0  0  0  0  0  0  0  0  0  0
   36.6340   31.1990   40.7860 C   0  0  0  0  0  0  0  0  0  0  0  0
   36.5690   31.0600   41.9110 H   0  0  0  0  0  0  0  0  0  0  0  0
   35.6240   31.5320   40.5050 H   0  0  0  0  0  0  0  0  0  0  0  0
   37.6550   32.2670   40.5870 C   0  0  0  0  0  0  0  0  0  0  0  0
   37.3330   33.2160   39.6250 C   0  0  0  0  0  0  0  0  0  0  0  0
   36.4740   33.3610   38.9650 H   0  0  0  0  0  0  0  0  0  0  0  0
   38.3040   34.1360   39.5060 N   0  0  0  0  0  0  0  0  0  0  0  0
   38.4400   34.9760   38.9220 H   0  0  0  0  0  0  0  0  0  0  0  0
   39.2160   33.7390   40.4010 C   0  0  0  0  0  0  0  0  0  0  0  0
   40.1920   34.1580   40.6850 H   0  0  0  0  0  0  0  0  0  0  0  0
   38.8580   32.6430   41.0490 N   0  0  0  0  0  0  0  0  0  0  0  0
  1  2  1  6  0  0  0
  1 20  1  0  0  0  0
  1 12  1  0  0  0  0
  3  4  1  0  0  0  0
  4  5  2  0  0  0  0
  4  1  1  0  0  0  0
  5 10  1  0  0  0  0
  6  5  1  0  0  0  0
  7  6  2  0  0  0  0
  8  7  1  0  0  0  0
  8  3  2  0  0  0  0
  9  3  1  0  0  0  0
 11  7  1  0  0  0  0
 12 16  1  0  0  0  0
 13 12  2  0  0  0  0
 13 14  1  0  0  0  0
 14 18  1  0  0  0  0
 14 15  1  0  0  0  0
 15 19  1  0  0  0  0
 16 15  2  0  0  0  0
 17 13  1  0  0  0  0
 20 21  1  0  0  0  0
 22 20  1  0  0  0  0
 23 20  1  0  0  0  0
 23 30  1  0  0  0  0
 24 23  2  0  0  0  0
 25 24  1  0  0  0  0
 26 24  1  0  0  0  0
 26 28  1  0  0  0  0
 27 26  1  0  0  0  0
 28 29  1  0  0  0  0
 28 30  2  0  0  0  0
M  END
>  <minimizedAffinity>
-4.5269866

$$$$

 OpenBabel03242523443D

 30 32  0  0  1  0  0  0  0  0999 V2000
   37.7620   29.4040   39.7990 C   0  0  2  0  0  0  0  0  0  0  0  0
   38.6960   29.1320   39.3250 H   0  0  0  0  0  0  0  0  0  0  0  0
   36.6370   28.1230   41.5800 C   0  0  0  0  0  0  0  0  0  0  0  0
   37.7650   28.8780   41.1780 C   0  0  0  0  0  0  0  0  0  0  0  0
   38.7850   29.0820   42.1220 C   0  0  0  0  0  0  0  0  0  0  0  0
   38.5930   28.5360   43.3350 N   0  0  0  0  0  0  0  0  0  0  0  0
   37.5250   27.8360   43.6800 C   0  0  0  0  0  0  0  0  0  0  0  0
   36.5250   27.6170   42.8050 N   0  0  0  0  0  0  0  0  0  0  0  0
   35.8400   27.9540   40.8670 H   0  0  0  0  0  0  0  0  0  0  0  0
   39.6460   29.6550   41.8160 H   0  0  0  0  0  0  0  0  0  0  0  0
   37.5400   27.4710   44.7050 H   0  0  0  0  0  0  0  0  0  0  0  0
   37.6790   30.8930   39.8870 C   0  0  0  0  0  0  0  0  0  0  0  0
   36.7020   31.6970   40.4270 C   0  0  0  0  0  0  0  0  0  0  0  0
   37.0530   32.9930   40.2910 N   0  0  0  0  0  0  0  0  0  0  0  0
   38.2630   33.0020   39.6590 C   0  0  0  0  0  0  0  0  0  0  0  0
   38.6180   31.7280   39.4270 N   0  0  0  0  0  0  0  0  0  0  0  0
   35.8180   31.2470   40.8740 H   0  0  0  0  0  0  0  0  0  0  0  0
   36.3890   33.7110   40.6640 H   0  0  0  0  0  0  0  0  0  0  0  0
   38.7160   33.9580   39.4570 H   0  0  0  0  0  0  0  0  0  0  0  0
   36.5500   28.8690   39.1180 C   0  0  0  0  0  0  0  0  0  0  0  0
   35.6420   29.5020   39.3730 H   0  0  0  0  0  0  0  0  0  0  0  0
   36.2620   27.8570   39.4400 H   0  0  0  0  0  0  0  0  0  0  0  0
   36.6890   28.9710   37.6370 C   0  0  0  0  0  0  0  0  0  0  0  0
   37.8980   28.5160   37.1270 C   0  0  0  0  0  0  0  0  0  0  0  0
   38.7950   28.0870   37.5800 H   0  0  0  0  0  0  0  0  0  0  0  0
   37.9420   28.6480   35.7910 N   0  0  0  0  0  0  0  0  0  0  0  0
   38.6410   28.4330   35.0640 H   0  0  0  0  0  0  0  0  0  0  0  0
   36.7520   29.1840   35.4950 C   0  0  0  0  0  0  0  0  0  0  0  0
   36.3030   29.4810   34.5370 H   0  0  0  0  0  0  0  0  0  0  0  0
   35.9980   29.3830   36.5630 N   0  0  0  0  0  0  0  0  0  0  0  0
  1  2  1  6  0  0  0
  1 12  1  0  0  0  0
  1  4  1  0  0  0  0
  3  8  1  0  0  0  0
  4  3  2  0  0  0  0
  4  5  1  0  0  0  0
  5  6  2  0  0  0  0
  6  7  1  0  0  0  0
  7 11  1  0  0  0  0
  8  7  2  0  0  0  0
  9  3  1  0  0  0  0
 10  5  1  0  0  0  0
 12 13  2  0  0  0  0
 13 17  1  0  0  0  0
 14 13  1  0  0  0  0
 14 18  1  0  0  0  0
 15 14  1  0  0  0  0
 16 15  2  0  0  0  0
 16 12  1  0  0  0  0
 19 15  1  0  0  0  0
 20 21  1  0  0  0  0
 20 22  1  0  0  0  0
 20  1  1  0  0  0  0
 23 20  1  0  0  0  0
 24 25  1  0  0  0  0
 24 23  2  0  0  0  0
 26 24  1  0  0  0  0
 27 26  1  0  0  0  0
 28 26  1  0  0  0  0
 28 30  2  0  0  0  0
 29 28  1  0  0  0  0
 30 23  1  0  0  0  0
M  END
>  <minimizedAffinity>
-4.41884708

$$$$

 OpenBabel03242523443D

 30 32  0  0  1  0  0  0  0  0999 V2000
   37.6770   29.2150   39.7890 C   0  0  2  0  0  0  0  0  0  0  0  0
   38.6190   28.9500   39.3270 H   0  0  0  0  0  0  0  0  0  0  0  0
   38.8150   28.8080   41.9380 C   0  0  0  0  0  0  0  0  0  0  0  0
   37.6480   28.6500   41.1520 C   0  0  0  0  0  0  0  0  0  0  0  0
   36.5670   27.9560   41.7190 C   0  0  0  0  0  0  0  0  0  0  0  0
   36.7420   27.4990   42.9710 N   0  0  0  0  0  0  0  0  0  0  0  0
   37.8470   27.6630   43.6790 C   0  0  0  0  0  0  0  0  0  0  0  0
   38.9060   28.3220   43.1730 N   0  0  0  0  0  0  0  0  0  0  0  0
   39.6590   29.3400   41.5190 H   0  0  0  0  0  0  0  0  0  0  0  0
   35.6770   27.8370   41.1220 H   0  0  0  0  0  0  0  0  0  0  0  0
   37.8110   27.2250   44.6750 H   0  0  0  0  0  0  0  0  0  0  0  0
   37.6040   30.7020   39.9190 C   0  0  0  0  0  0  0  0  0  0  0  0
   36.6380   31.4960   40.4920 C   0  0  0  0  0  0  0  0  0  0  0  0
   36.9950   32.7940   40.3870 N   0  0  0  0  0  0  0  0  0  0  0  0
   38.1970   32.8140   39.7400 C   0  0  0  0  0  0  0  0  0  0  0  0
   38.5420   31.5440   39.4690 N   0  0  0  0  0  0  0  0  0  0  0  0
   35.7570   31.0400   40.9380 H   0  0  0  0  0  0  0  0  0  0  0  0
   36.3400   33.5050   40.7870 H   0  0  0  0  0  0  0  0  0  0  0  0
   38.6530   33.7730   39.5590 H   0  0  0  0  0  0  0  0  0  0  0  0
   36.4760   28.7100   39.0680 C   0  0  0  0  0  0  0  0  0  0  0  0
   35.5740   29.3630   39.2970 H   0  0  0  0  0  0  0  0  0  0  0  0
   36.1540   27.7050   39.3770 H   0  0  0  0  0  0  0  0  0  0  0  0
   36.6630   28.8130   37.5930 C   0  0  0  0  0  0  0  0  0  0  0  0
   37.8820   28.3420   37.1210 C   0  0  0  0  0  0  0  0  0  0  0  0
   38.7580   27.9000   37.6020 H   0  0  0  0  0  0  0  0  0  0  0  0
   37.9710   28.4760   35.7880 N   0  0  0  0  0  0  0  0  0  0  0  0
   38.6910   28.2530   35.0830 H   0  0  0  0  0  0  0  0  0  0  0  0
   36.7990   29.0290   35.4540 C   0  0  0  0  0  0  0  0  0  0  0  0
   36.3860   29.3340   34.4820 H   0  0  0  0  0  0  0  0  0  0  0  0
   36.0140   29.2370   36.4970 N   0  0  0  0  0  0  0  0  0  0  0  0
  1  2  1  6  0  0  0
  1 12  1  0  0  0  0
  1  4  1  0  0  0  0
  3  8  1  0  0  0  0
  4  5  1  0  0  0  0
  4  3  2  0  0  0  0
  5  6  2  0  0  0  0
  6  7  1  0  0  0  0
  7 11  1  0  0  0  0
  8  7  2  0  0  0  0
  9  3  1  0  0  0  0
 10  5  1  0  0  0  0
 12 13  2  0  0  0  0
 13 17  1  0  0  0  0
 14 13  1  0  0  0  0
 14 18  1  0  0  0  0
 15 14  1  0  0  0  0
 16 15  2  0  0  0  0
 16 12  1  0  0  0  0
 19 15  1  0  0  0  0
 20 21  1  0  0  0  0
 20 22  1  0  0  0  0
 20  1  1  0  0  0  0
 23 20  1  0  0  0  0
 24 23  2  0  0  0  0
 24 25  1  0  0  0  0
 26 24  1  0  0  0  0
 27 26  1  0  0  0  0
 28 26  1  0  0  0  0
 28 30  2  0  0  0  0
 29 28  1  0  0  0  0
 30 23  1  0  0  0  0
M  END
>  <minimizedAffinity>
-4.39774036

$$$$

 OpenBabel03242523443D

 30 32  0  0  1  0  0  0  0  0999 V2000
   37.5370   27.7500   40.9620 C   0  0  2  0  0  0  0  0  0  0  0  0
   38.0930   27.1470   40.2560 H   0  0  0  0  0  0  0  0  0  0  0  0
   39.0470   29.5760   40.2820 C   0  0  0  0  0  0  0  0  0  0  0  0
   38.3600   28.9190   41.3300 C   0  0  0  0  0  0  0  0  0  0  0  0
   38.5270   29.4140   42.6330 C   0  0  0  0  0  0  0  0  0  0  0  0
   39.3360   30.4810   42.7670 N   0  0  0  0  0  0  0  0  0  0  0  0
   39.9650   31.0720   41.7640 C   0  0  0  0  0  0  0  0  0  0  0  0
   39.8310   30.6280   40.5010 N   0  0  0  0  0  0  0  0  0  0  0  0
   38.9310   29.2090   39.2700 H   0  0  0  0  0  0  0  0  0  0  0  0
   38.0030   28.9160   43.4330 H   0  0  0  0  0  0  0  0  0  0  0  0
   40.5780   31.9210   42.0590 H   0  0  0  0  0  0  0  0  0  0  0  0
   36.3020   28.2620   40.2960 C   0  0  0  0  0  0  0  0  0  0  0  0
   35.3110   29.0860   40.7770 C   0  0  0  0  0  0  0  0  0  0  0  0
   34.3860   29.2940   39.8150 N   0  0  0  0  0  0  0  0  0  0  0  0
   34.8020   28.5930   38.7200 C   0  0  0  0  0  0  0  0  0  0  0  0
   35.9560   27.9810   39.0340 N   0  0  0  0  0  0  0  0  0  0  0  0
   35.3650   29.4580   41.7970 H   0  0  0  0  0  0  0  0  0  0  0  0
   33.5740   29.9080   40.0560 H   0  0  0  0  0  0  0  0  0  0  0  0
   34.1880   28.6340   37.8360 H   0  0  0  0  0  0  0  0  0  0  0  0
   37.1750   27.0420   42.2220 C   0  0  0  0  0  0  0  0  0  0  0  0
   36.1440   26.5730   42.1290 H   0  0  0  0  0  0  0  0  0  0  0  0
   37.0850   27.6990   43.0990 H   0  0  0  0  0  0  0  0  0  0  0  0
   38.0990   25.8980   42.4680 C   0  0  0  0  0  0  0  0  0  0  0  0
   37.6090   24.6550   42.0900 C   0  0  0  0  0  0  0  0  0  0  0  0
   36.6730   24.3170   41.6370 H   0  0  0  0  0  0  0  0  0  0  0  0
   38.4990   23.6820   42.3500 N   0  0  0  0  0  0  0  0  0  0  0  0
   38.5130   22.6590   42.2210 H   0  0  0  0  0  0  0  0  0  0  0  0
   39.5300   24.3440   42.8880 C   0  0  0  0  0  0  0  0  0  0  0  0
   40.5030   23.9980   43.2660 H   0  0  0  0  0  0  0  0  0  0  0  0
   39.3190   25.6470   42.9680 N   0  0  0  0  0  0  0  0  0  0  0  0
  1  2  1  6  0  0  0
  1  4  1  0  0  0  0
  1 20  1  0  0  0  0
  3  8  2  0  0  0  0
  3  4  1  0  0  0  0
  4  5  2  0  0  0  0
  5  6  1  0  0  0  0
  5 10  1  0  0  0  0
  7 11  1  0  0  0  0
  7  6  2  0  0  0  0
  8  7  1  0  0  0  0
  9  3  1  0  0  0  0
 12 13  2  0  0  0  0
 12  1  1  0  0  0  0
 13 17  1  0  0  0  0
 14 18  1  0  0  0  0
 14 13  1  0  0  0  0
 15 16  2  0  0  0  0
 15 14  1  0  0  0  0
 16 12  1  0  0  0  0
 19 15  1  0  0  0  0
 20 23  1  0  0  0  0
 20 22  1  0  0  0  0
 21 20  1  0  0  0  0
 23 30  1  0  0  0  0
 24 26  1  0  0  0  0
 24 23  2  0  0  0  0
 25 24  1  0  0  0  0
 26 28  1  0  0  0  0
 27 26  1  0  0  0  0
 28 30  2  0  0  0  0
 28 29  1  0  0  0  0
M  END
>  <minimizedAffinity>
-4.39759922

$$$$

 OpenBabel03242523443D

 30 32  0  0  1  0  0  0  0  0999 V2000
   37.7130   30.2430   39.7850 C   0  0  2  0  0  0  0  0  0  0  0  0
   38.5690   29.6110   39.9790 H   0  0  0  0  0  0  0  0  0  0  0  0
   39.4760   31.8910   40.2840 C   0  0  0  0  0  0  0  0  0  0  0  0
   38.1290   31.6520   39.9220 C   0  0  0  0  0  0  0  0  0  0  0  0
   37.2930   32.7650   39.7410 C   0  0  0  0  0  0  0  0  0  0  0  0
   37.8560   33.9720   39.9310 N   0  0  0  0  0  0  0  0  0  0  0  0
   39.1200   34.1610   40.2700 C   0  0  0  0  0  0  0  0  0  0  0  0
   39.9550   33.1200   40.4540 N   0  0  0  0  0  0  0  0  0  0  0  0
   40.1360   31.0460   40.4290 H   0  0  0  0  0  0  0  0  0  0  0  0
   36.2670   32.5850   39.4630 H   0  0  0  0  0  0  0  0  0  0  0  0
   39.4030   35.2060   40.3820 H   0  0  0  0  0  0  0  0  0  0  0  0
   37.2720   30.0400   38.3720 C   0  0  0  0  0  0  0  0  0  0  0  0
   37.8950   30.3760   37.1910 C   0  0  0  0  0  0  0  0  0  0  0  0
   37.1290   29.9920   36.1480 N   0  0  0  0  0  0  0  0  0  0  0  0
   36.0140   29.4100   36.6800 C   0  0  0  0  0  0  0  0  0  0  0  0
   36.1240   29.4510   38.0180 N   0  0  0  0  0  0  0  0  0  0  0  0
   38.8610   30.8750   37.2130 H   0  0  0  0  0  0  0  0  0  0  0  0
   37.4930   30.1910   35.1870 H   0  0  0  0  0  0  0  0  0  0  0  0
   35.2710   29.0330   35.9970 H   0  0  0  0  0  0  0  0  0  0  0  0
   36.5660   30.0220   40.7090 C   0  0  0  0  0  0  0  0  0  0  0  0
   35.7520   29.4200   40.1920 H   0  0  0  0  0  0  0  0  0  0  0  0
   36.0520   30.9430   41.0180 H   0  0  0  0  0  0  0  0  0  0  0  0
   36.9800   29.1890   41.8750 C   0  0  0  0  0  0  0  0  0  0  0  0
   36.5480   27.8700   41.8380 C   0  0  0  0  0  0  0  0  0  0  0  0
   35.9580   27.2880   41.1250 H   0  0  0  0  0  0  0  0  0  0  0  0
   36.9580   27.1950   42.9240 N   0  0  0  0  0  0  0  0  0  0  0  0
   36.8490   26.2250   43.2590 H   0  0  0  0  0  0  0  0  0  0  0  0
   37.6420   28.1120   43.6180 C   0  0  0  0  0  0  0  0  0  0  0  0
   38.1730   28.0550   44.5790 H   0  0  0  0  0  0  0  0  0  0  0  0
   37.6680   29.2920   43.0230 N   0  0  0  0  0  0  0  0  0  0  0  0
  1  4  1  0  0  0  0
  1  2  1  1  0  0  0
  1 20  1  0  0  0  0
  3  9  1  0  0  0  0
  3  8  1  0  0  0  0
  4  3  2  0  0  0  0
  5  4  1  0  0  0  0
  5  6  2  0  0  0  0
  6  7  1  0  0  0  0
  7 11  1  0  0  0  0
  7  8  2  0  0  0  0
 10  5  1  0  0  0  0
 12  1  1  0  0  0  0
 13 17  1  0  0  0  0
 13 12  2  0  0  0  0
 14 15  1  0  0  0  0
 14 13  1  0  0  0  0
 15 16  2  0  0  0  0
 16 12  1  0  0  0  0
 18 14  1  0  0  0  0
 19 15  1  0  0  0  0
 20 22  1  0  0  0  0
 20 23  1  0  0  0  0
 21 20  1  0  0  0  0
 23 30  1  0  0  0  0
 24 23  2  0  0  0  0
 24 26  1  0  0  0  0
 25 24  1  0  0  0  0
 26 27  1  0  0  0  0
 26 28  1  0  0  0  0
 28 29  1  0  0  0  0
 30 28  2  0  0  0  0
M  END
>  <minimizedAffinity>
-4.35976028

$$$$

 OpenBabel03242523443D

 30 32  0  0  1  0  0  0  0  0999 V2000
   37.2420   29.9380   39.5300 C   0  0  2  0  0  0  0  0  0  0  0  0
   36.2600   30.0140   39.9790 H   0  0  0  0  0  0  0  0  0  0  0  0
   38.2140   28.8080   37.5670 C   0  0  0  0  0  0  0  0  0  0  0  0
   37.0890   29.4390   38.1490 C   0  0  0  0  0  0  0  0  0  0  0  0
   35.9290   29.5570   37.3680 C   0  0  0  0  0  0  0  0  0  0  0  0
   35.9930   29.0550   36.1230 N   0  0  0  0  0  0  0  0  0  0  0  0
   37.0620   28.4710   35.6070 C   0  0  0  0  0  0  0  0  0  0  0  0
   38.1950   28.3380   36.3220 N   0  0  0  0  0  0  0  0  0  0  0  0
   39.1190   28.7070   38.1520 H   0  0  0  0  0  0  0  0  0  0  0  0
   35.0690   30.0360   37.8120 H   0  0  0  0  0  0  0  0  0  0  0  0
   36.9340   28.1250   34.5830 H   0  0  0  0  0  0  0  0  0  0  0  0
   37.8440   31.3030   39.4490 C   0  0  0  0  0  0  0  0  0  0  0  0
   37.2660   32.5110   39.1320 C   0  0  0  0  0  0  0  0  0  0  0  0
   38.1940   33.4890   39.1940 N   0  0  0  0  0  0  0  0  0  0  0  0
   39.3660   32.8890   39.5520 C   0  0  0  0  0  0  0  0  0  0  0  0
   39.1310   31.5750   39.7000 N   0  0  0  0  0  0  0  0  0  0  0  0
   36.2070   32.5550   38.8860 H   0  0  0  0  0  0  0  0  0  0  0  0
   37.8790   34.4630   38.9730 H   0  0  0  0  0  0  0  0  0  0  0  0
   40.2380   33.5130   39.6550 H   0  0  0  0  0  0  0  0  0  0  0  0
   38.1710   29.0160   40.2400 C   0  0  0  0  0  0  0  0  0  0  0  0
   39.1170   29.5670   40.5460 H   0  0  0  0  0  0  0  0  0  0  0  0
   38.5420   28.1850   39.6220 H   0  0  0  0  0  0  0  0  0  0  0  0
   37.5700   28.5410   41.5190 C   0  0  0  0  0  0  0  0  0  0  0  0
   37.6240   29.4510   42.5670 C   0  0  0  0  0  0  0  0  0  0  0  0
   38.0180   30.4650   42.6670 H   0  0  0  0  0  0  0  0  0  0  0  0
   37.0670   28.9430   43.6790 N   0  0  0  0  0  0  0  0  0  0  0  0
   36.9140   29.2930   44.6380 H   0  0  0  0  0  0  0  0  0  0  0  0
   36.6740   27.7220   43.2980 C   0  0  0  0  0  0  0  0  0  0  0  0
   36.1660   26.9150   43.8440 H   0  0  0  0  0  0  0  0  0  0  0  0
   36.9590   27.4620   42.0330 N   0  0  0  0  0  0  0  0  0  0  0  0
  1  2  1  1  0  0  0
  1 20  1  0  0  0  0
  3  4  1  0  0  0  0
  3  9  1  0  0  0  0
  4  1  1  0  0  0  0
  5 10  1  0  0  0  0
  5  4  2  0  0  0  0
  6  5  1  0  0  0  0
  7  6  2  0  0  0  0
  7  8  1  0  0  0  0
  8  3  2  0  0  0  0
 11  7  1  0  0  0  0
 12  1  1  0  0  0  0
 12 16  1  0  0  0  0
 13 14  1  0  0  0  0
 13 12  2  0  0  0  0
 14 15  1  0  0  0  0
 15 19  1  0  0  0  0
 15 16  2  0  0  0  0
 17 13  1  0  0  0  0
 18 14  1  0  0  0  0
 20 21  1  0  0  0  0
 20 23  1  0  0  0  0
 22 20  1  0  0  0  0
 23 30  1  0  0  0  0
 23 24  2  0  0  0  0
 24 25  1  0  0  0  0
 24 26  1  0  0  0  0
 26 27  1  0  0  0  0
 28 26  1  0  0  0  0
 28 29  1  0  0  0  0
 30 28  2  0  0  0  0
M  END
>  <minimizedAffinity>
-4.34419346

$$$$

 OpenBabel03242523443D

 30 32  0  0  1  0  0  0  0  0999 V2000
   36.3020   28.7310   39.7660 C   0  0  2  0  0  0  0  0  0  0  0  0
   37.1680   28.1150   39.5590 H   0  0  0  0  0  0  0  0  0  0  0  0
   37.1470   30.4540   38.2190 C   0  0  0  0  0  0  0  0  0  0  0  0
   36.6590   30.1400   39.5100 C   0  0  0  0  0  0  0  0  0  0  0  0
   36.5700   31.1820   40.4460 C   0  0  0  0  0  0  0  0  0  0  0  0
   36.9610   32.3980   40.0270 N   0  0  0  0  0  0  0  0  0  0  0  0
   37.4140   32.6580   38.8110 C   0  0  0  0  0  0  0  0  0  0  0  0
   37.5150   31.6880   37.8830 N   0  0  0  0  0  0  0  0  0  0  0  0
   37.2230   29.6650   37.4820 H   0  0  0  0  0  0  0  0  0  0  0  0
   36.1960   30.9440   41.4300 H   0  0  0  0  0  0  0  0  0  0  0  0
   37.6860   33.7000   38.6480 H   0  0  0  0  0  0  0  0  0  0  0  0
   35.2100   28.3650   38.8160 C   0  0  0  0  0  0  0  0  0  0  0  0
   33.9640   28.9220   38.6380 C   0  0  0  0  0  0  0  0  0  0  0  0
   33.3100   28.2700   37.6530 N   0  0  0  0  0  0  0  0  0  0  0  0
   34.1540   27.2930   37.2090 C   0  0  0  0  0  0  0  0  0  0  0  0
   35.2890   27.3700   37.9230 N   0  0  0  0  0  0  0  0  0  0  0  0
   33.6550   29.7630   39.2550 H   0  0  0  0  0  0  0  0  0  0  0  0
   32.3450   28.5990   37.4190 H   0  0  0  0  0  0  0  0  0  0  0  0
   33.8080   26.6560   36.4130 H   0  0  0  0  0  0  0  0  0  0  0  0
   35.8060   28.6410   41.1670 C   0  0  0  0  0  0  0  0  0  0  0  0
   34.9120   27.9430   41.2250 H   0  0  0  0  0  0  0  0  0  0  0  0
   35.4220   29.5900   41.5710 H   0  0  0  0  0  0  0  0  0  0  0  0
   36.8350   28.0270   42.0540 C   0  0  0  0  0  0  0  0  0  0  0  0
   37.2970   26.7830   41.6450 C   0  0  0  0  0  0  0  0  0  0  0  0
   37.0710   26.1360   40.7930 H   0  0  0  0  0  0  0  0  0  0  0  0
   38.2140   26.3010   42.4990 N   0  0  0  0  0  0  0  0  0  0  0  0
   38.7780   25.4370   42.5470 H   0  0  0  0  0  0  0  0  0  0  0  0
   38.3060   27.2600   43.4280 C   0  0  0  0  0  0  0  0  0  0  0  0
   38.9190   27.3410   44.3360 H   0  0  0  0  0  0  0  0  0  0  0  0
   37.5050   28.2850   43.1890 N   0  0  0  0  0  0  0  0  0  0  0  0
  1  2  1  6  0  0  0
  1 20  1  0  0  0  0
  3  4  1  0  0  0  0
  4  1  1  0  0  0  0
  4  5  2  0  0  0  0
  5 10  1  0  0  0  0
  6  5  1  0  0  0  0
  7  6  2  0  0  0  0
  8  3  2  0  0  0  0
  8  7  1  0  0  0  0
  9  3  1  0  0  0  0
 11  7  1  0  0  0  0
 12  1  1  0  0  0  0
 13 12  2  0  0  0  0
 13 17  1  0  0  0  0
 14 13  1  0  0  0  0
 15 14  1  0  0  0  0
 15 16  2  0  0  0  0
 16 12  1  0  0  0  0
 18 14  1  0  0  0  0
 19 15  1  0  0  0  0
 20 21  1  0  0  0  0
 20 22  1  0  0  0  0
 20 23  1  0  0  0  0
 23 30  1  0  0  0  0
 24 23  2  0  0  0  0
 24 26  1  0  0  0  0
 25 24  1  0  0  0  0
 26 27  1  0  0  0  0
 26 28  1  0  0  0  0
 28 29  1  0  0  0  0
 30 28  2  0  0  0  0
M  END
>  <minimizedAffinity>
-4.32488775

$$$$
