
 OpenBabel03252502543D

 30 32  0  0  0  0  0  0  0  0999 V2000
   39.4510   30.5200   42.5420 Br  0  0  0  0  0  0  0  0  0  0  0  0
   37.8570   29.9800   41.5880 C   0  0  0  0  0  0  0  0  0  0  0  0
   37.1390   28.9580   42.1520 C   0  0  0  0  0  0  0  0  0  0  0  0
   36.0030   28.6050   41.4290 C   0  0  0  0  0  0  0  0  0  0  0  0
   35.6150   29.2080   40.2580 C   0  0  0  0  0  0  0  0  0  0  0  0
   36.3830   30.2190   39.7560 C   0  0  0  0  0  0  0  0  0  0  0  0
   37.5330   30.6280   40.4240 C   0  0  0  0  0  0  0  0  0  0  0  0
   35.3700   27.7930   41.8120 H   0  0  0  0  0  0  0  0  0  0  0  0
   34.7160   28.8850   39.7400 H   0  0  0  0  0  0  0  0  0  0  0  0
   36.1110   30.7190   38.8350 H   0  0  0  0  0  0  0  0  0  0  0  0
   38.4020   31.7050   39.9420 C   0  0  0  0  0  0  0  0  0  0  0  0
   38.1000   33.0480   40.1270 C   0  0  0  0  0  0  0  0  0  0  0  0
   37.2340   33.4900   40.6220 H   0  0  0  0  0  0  0  0  0  0  0  0
   39.1210   33.7270   39.5540 N   0  0  0  0  0  0  0  0  0  0  0  0
   39.1690   34.7860   39.5380 H   0  0  0  0  0  0  0  0  0  0  0  0
   40.0190   32.8640   39.0380 C   0  0  0  0  0  0  0  0  0  0  0  0
   40.9440   33.1030   38.5170 H   0  0  0  0  0  0  0  0  0  0  0  0
   39.5740   31.5960   39.2770 N   0  0  0  0  0  0  0  0  0  0  0  0
   37.4500   28.2400   43.3920 C   0  0  0  0  0  0  0  0  0  0  0  0
   36.4870   27.9660   43.8860 H   0  0  0  0  0  0  0  0  0  0  0  0
   38.0000   28.8770   44.0890 H   0  0  0  0  0  0  0  0  0  0  0  0
   38.5390   24.8310   42.3630 C   0  0  0  0  0  0  0  0  0  0  0  0
   39.8520   24.7810   42.8630 C   0  0  0  0  0  0  0  0  0  0  0  0
   40.3220   25.9100   43.5340 C   0  0  0  0  0  0  0  0  0  0  0  0
   39.5120   26.9990   43.6800 N   0  0  0  0  0  0  0  0  0  0  0  0
   38.2450   26.9970   43.1750 C   0  0  0  0  0  0  0  0  0  0  0  0
   37.7950   25.9100   42.5290 N   0  0  0  0  0  0  0  0  0  0  0  0
   38.2150   23.9360   41.8490 H   0  0  0  0  0  0  0  0  0  0  0  0
   40.5060   23.9270   42.7570 H   0  0  0  0  0  0  0  0  0  0  0  0
   41.3300   25.9780   43.9650 H   0  0  0  0  0  0  0  0  0  0  0  0
  2  3  1  0  0  0  0
  2  1  1  0  0  0  0
  3 19  1  0  0  0  0
  4  8  1  0  0  0  0
  4  3  2  0  0  0  0
  5  4  1  0  0  0  0
  6  5  2  0  0  0  0
  6  7  1  0  0  0  0
  7  2  2  0  0  0  0
  9  5  1  0  0  0  0
 10  6  1  0  0  0  0
 11 12  2  0  0  0  0
 11  7  1  0  0  0  0
 12 13  1  0  0  0  0
 14 12  1  0  0  0  0
 15 14  1  0  0  0  0
 16 18  2  0  0  0  0
 16 14  1  0  0  0  0
 17 16  1  0  0  0  0
 18 11  1  0  0  0  0
 19 20  1  0  0  0  0
 19 21  1  0  0  0  0
 22 27  2  0  0  0  0
 22 23  1  0  0  0  0
 23 24  2  0  0  0  0
 24 25  1  0  0  0  0
 24 30  1  0  0  0  0
 26 19  1  0  0  0  0
 26 25  2  0  0  0  0
 27 26  1  0  0  0  0
 28 22  1  0  0  0  0
 29 23  1  0  0  0  0
M  END
>  <minimizedAffinity>
-5.39309454

$$$$

 OpenBabel03252502543D

 30 32  0  0  0  0  0  0  0  0999 V2000
   39.4680   27.0010   39.8570 Br  0  0  0  0  0  0  0  0  0  0  0  0
   38.5500   27.6140   41.4470 C   0  0  0  0  0  0  0  0  0  0  0  0
   38.7620   28.9230   41.7930 C   0  0  0  0  0  0  0  0  0  0  0  0
   38.0820   29.3160   42.9410 C   0  0  0  0  0  0  0  0  0  0  0  0
   37.2690   28.4900   43.6780 C   0  0  0  0  0  0  0  0  0  0  0  0
   37.1070   27.1970   43.2720 C   0  0  0  0  0  0  0  0  0  0  0  0
   37.7550   26.7320   42.1320 C   0  0  0  0  0  0  0  0  0  0  0  0
   38.1980   30.3520   43.2900 H   0  0  0  0  0  0  0  0  0  0  0  0
   36.7660   28.8590   44.5680 H   0  0  0  0  0  0  0  0  0  0  0  0
   36.4750   26.5160   43.8250 H   0  0  0  0  0  0  0  0  0  0  0  0
   37.6260   25.3580   41.6390 C   0  0  0  0  0  0  0  0  0  0  0  0
   38.4060   24.3150   42.1200 C   0  0  0  0  0  0  0  0  0  0  0  0
   39.1850   24.3410   42.8840 H   0  0  0  0  0  0  0  0  0  0  0  0
   38.0030   23.2190   41.4340 N   0  0  0  0  0  0  0  0  0  0  0  0
   38.4240   22.2590   41.5880 H   0  0  0  0  0  0  0  0  0  0  0  0
   37.0230   23.5490   40.5700 C   0  0  0  0  0  0  0  0  0  0  0  0
   36.4960   22.8910   39.8830 H   0  0  0  0  0  0  0  0  0  0  0  0
   36.7820   24.8870   40.6920 N   0  0  0  0  0  0  0  0  0  0  0  0
   39.6030   29.8970   41.0900 C   0  0  0  0  0  0  0  0  0  0  0  0
   40.1020   29.3760   40.2380 H   0  0  0  0  0  0  0  0  0  0  0  0
   40.3930   30.2780   41.7420 H   0  0  0  0  0  0  0  0  0  0  0  0
   38.3450   33.3360   40.4150 C   0  0  0  0  0  0  0  0  0  0  0  0
   37.3390   33.0970   39.4630 C   0  0  0  0  0  0  0  0  0  0  0  0
   37.1220   31.7720   39.0830 C   0  0  0  0  0  0  0  0  0  0  0  0
   37.8760   30.7760   39.6340 N   0  0  0  0  0  0  0  0  0  0  0  0
   38.8410   31.0620   40.5550 C   0  0  0  0  0  0  0  0  0  0  0  0
   39.0470   32.3370   40.9190 N   0  0  0  0  0  0  0  0  0  0  0  0
   38.4800   34.3760   40.6810 H   0  0  0  0  0  0  0  0  0  0  0  0
   36.7330   33.8740   39.0170 H   0  0  0  0  0  0  0  0  0  0  0  0
   36.3630   31.4730   38.3490 H   0  0  0  0  0  0  0  0  0  0  0  0
  1  2  1  0  0  0  0
  2  3  2  0  0  0  0
  2  7  1  0  0  0  0
  3  4  1  0  0  0  0
  4  8  1  0  0  0  0
  4  5  2  0  0  0  0
  5  9  1  0  0  0  0
  6  5  1  0  0  0  0
  6 10  1  0  0  0  0
  7  6  2  0  0  0  0
 11 12  2  0  0  0  0
 11  7  1  0  0  0  0
 12 13  1  0  0  0  0
 14 15  1  0  0  0  0
 14 12  1  0  0  0  0
 16 18  2  0  0  0  0
 16 14  1  0  0  0  0
 17 16  1  0  0  0  0
 18 11  1  0  0  0  0
 19 21  1  0  0  0  0
 19  3  1  0  0  0  0
 20 19  1  0  0  0  0
 22 28  1  0  0  0  0
 22 27  1  0  0  0  0
 23 22  2  0  0  0  0
 24 23  1  0  0  0  0
 24 25  2  0  0  0  0
 25 26  1  0  0  0  0
 26 27  2  0  0  0  0
 26 19  1  0  0  0  0
 29 23  1  0  0  0  0
 30 24  1  0  0  0  0
M  END
>  <minimizedAffinity>
-5.27555513

$$$$

 OpenBabel03252502543D

 30 32  0  0  0  0  0  0  0  0999 V2000
   36.2980   26.5170   39.3570 Br  0  0  0  0  0  0  0  0  0  0  0  0
   36.9720   27.1060   41.0720 C   0  0  0  0  0  0  0  0  0  0  0  0
   36.5430   28.3370   41.4930 C   0  0  0  0  0  0  0  0  0  0  0  0
   37.0550   28.7160   42.7300 C   0  0  0  0  0  0  0  0  0  0  0  0
   37.9120   27.9480   43.4790 C   0  0  0  0  0  0  0  0  0  0  0  0
   38.2980   26.7330   42.9930 C   0  0  0  0  0  0  0  0  0  0  0  0
   37.8260   26.2850   41.7630 C   0  0  0  0  0  0  0  0  0  0  0  0
   36.7610   29.6920   43.1430 H   0  0  0  0  0  0  0  0  0  0  0  0
   38.2780   28.3030   44.4400 H   0  0  0  0  0  0  0  0  0  0  0  0
   38.9720   26.0980   43.5530 H   0  0  0  0  0  0  0  0  0  0  0  0
   38.1980   24.9930   41.1820 C   0  0  0  0  0  0  0  0  0  0  0  0
   37.6180   23.7970   41.5850 C   0  0  0  0  0  0  0  0  0  0  0  0
   36.8490   23.6330   42.3420 H   0  0  0  0  0  0  0  0  0  0  0  0
   38.2090   22.8390   40.8330 N   0  0  0  0  0  0  0  0  0  0  0  0
   37.9670   21.8110   40.9180 H   0  0  0  0  0  0  0  0  0  0  0  0
   39.1110   23.3960   40.0010 C   0  0  0  0  0  0  0  0  0  0  0  0
   39.7450   22.8900   39.2760 H   0  0  0  0  0  0  0  0  0  0  0  0
   39.1100   24.7440   40.2150 N   0  0  0  0  0  0  0  0  0  0  0  0
   35.6330   29.2440   40.7870 C   0  0  0  0  0  0  0  0  0  0  0  0
   34.9180   29.6690   41.5310 H   0  0  0  0  0  0  0  0  0  0  0  0
   35.0410   28.7070   40.0410 H   0  0  0  0  0  0  0  0  0  0  0  0
   37.3250   32.4780   40.0470 C   0  0  0  0  0  0  0  0  0  0  0  0
   37.6160   32.3490   38.6780 C   0  0  0  0  0  0  0  0  0  0  0  0
   37.2250   31.1640   38.0530 C   0  0  0  0  0  0  0  0  0  0  0  0
   36.5900   30.1940   38.7720 N   0  0  0  0  0  0  0  0  0  0  0  0
   36.3310   30.3690   40.1010 C   0  0  0  0  0  0  0  0  0  0  0  0
   36.7080   31.5090   40.7000 N   0  0  0  0  0  0  0  0  0  0  0  0
   37.6450   33.4110   40.4920 H   0  0  0  0  0  0  0  0  0  0  0  0
   38.1170   33.1070   38.0940 H   0  0  0  0  0  0  0  0  0  0  0  0
   37.4010   30.9590   36.9880 H   0  0  0  0  0  0  0  0  0  0  0  0
  1  2  1  0  0  0  0
  2  3  2  0  0  0  0
  2  7  1  0  0  0  0
  3  4  1  0  0  0  0
  4  8  1  0  0  0  0
  4  5  2  0  0  0  0
  5  9  1  0  0  0  0
  6  5  1  0  0  0  0
  6 10  1  0  0  0  0
  7  6  2  0  0  0  0
 11 12  2  0  0  0  0
 11  7  1  0  0  0  0
 12 13  1  0  0  0  0
 14 15  1  0  0  0  0
 14 12  1  0  0  0  0
 16 18  2  0  0  0  0
 16 14  1  0  0  0  0
 17 16  1  0  0  0  0
 18 11  1  0  0  0  0
 19  3  1  0  0  0  0
 19 20  1  0  0  0  0
 21 19  1  0  0  0  0
 22 28  1  0  0  0  0
 22 27  1  0  0  0  0
 23 22  2  0  0  0  0
 24 23  1  0  0  0  0
 24 25  2  0  0  0  0
 25 26  1  0  0  0  0
 26 27  2  0  0  0  0
 26 19  1  0  0  0  0
 29 23  1  0  0  0  0
 30 24  1  0  0  0  0
M  END
>  <minimizedAffinity>
-5.25427246

$$$$

 OpenBabel03252502543D

 30 32  0  0  0  0  0  0  0  0999 V2000
   36.4800   30.6950   41.0270 Br  0  0  0  0  0  0  0  0  0  0  0  0
   38.1740   30.0670   41.7190 C   0  0  0  0  0  0  0  0  0  0  0  0
   38.1350   28.8920   42.4220 C   0  0  0  0  0  0  0  0  0  0  0  0
   39.3770   28.4820   42.8990 C   0  0  0  0  0  0  0  0  0  0  0  0
   40.5470   29.1730   42.6980 C   0  0  0  0  0  0  0  0  0  0  0  0
   40.5070   30.3370   41.9890 C   0  0  0  0  0  0  0  0  0  0  0  0
   39.3020   30.8100   41.4790 C   0  0  0  0  0  0  0  0  0  0  0  0
   39.4350   27.5480   43.4760 H   0  0  0  0  0  0  0  0  0  0  0  0
   41.4860   28.7990   43.0990 H   0  0  0  0  0  0  0  0  0  0  0  0
   41.4080   30.9100   41.8090 H   0  0  0  0  0  0  0  0  0  0  0  0
   39.1870   32.0510   40.7090 C   0  0  0  0  0  0  0  0  0  0  0  0
   39.4070   32.1030   39.3380 C   0  0  0  0  0  0  0  0  0  0  0  0
   39.6800   31.2930   38.6600 H   0  0  0  0  0  0  0  0  0  0  0  0
   39.2100   33.3970   38.9920 N   0  0  0  0  0  0  0  0  0  0  0  0
   39.3080   33.7470   37.9970 H   0  0  0  0  0  0  0  0  0  0  0  0
   38.8830   34.1220   40.0810 C   0  0  0  0  0  0  0  0  0  0  0  0
   38.6650   35.1870   40.1270 H   0  0  0  0  0  0  0  0  0  0  0  0
   38.8670   33.2860   41.1590 N   0  0  0  0  0  0  0  0  0  0  0  0
   36.9550   28.0680   42.7010 C   0  0  0  0  0  0  0  0  0  0  0  0
   36.0460   28.6680   42.4550 H   0  0  0  0  0  0  0  0  0  0  0  0
   36.8950   27.8120   43.7620 H   0  0  0  0  0  0  0  0  0  0  0  0
   37.0070   24.4810   41.7050 C   0  0  0  0  0  0  0  0  0  0  0  0
   36.8170   24.5610   40.3140 C   0  0  0  0  0  0  0  0  0  0  0  0
   36.6780   25.8350   39.7630 C   0  0  0  0  0  0  0  0  0  0  0  0
   36.7290   26.9340   40.5710 N   0  0  0  0  0  0  0  0  0  0  0  0
   36.9160   26.8010   41.9160 C   0  0  0  0  0  0  0  0  0  0  0  0
   37.0500   25.5750   42.4440 N   0  0  0  0  0  0  0  0  0  0  0  0
   37.1110   23.4750   42.0920 H   0  0  0  0  0  0  0  0  0  0  0  0
   36.7750   23.7010   39.6610 H   0  0  0  0  0  0  0  0  0  0  0  0
   36.5260   26.0130   38.6900 H   0  0  0  0  0  0  0  0  0  0  0  0
  1  2  1  0  0  0  0
  2  3  1  0  0  0  0
  3 19  1  0  0  0  0
  3  4  2  0  0  0  0
  4  8  1  0  0  0  0
  5  4  1  0  0  0  0
  5  9  1  0  0  0  0
  6  5  2  0  0  0  0
  7  2  2  0  0  0  0
  7  6  1  0  0  0  0
 10  6  1  0  0  0  0
 11 18  1  0  0  0  0
 11  7  1  0  0  0  0
 12 11  2  0  0  0  0
 13 12  1  0  0  0  0
 14 12  1  0  0  0  0
 14 16  1  0  0  0  0
 15 14  1  0  0  0  0
 16 17  1  0  0  0  0
 16 18  2  0  0  0  0
 19 21  1  0  0  0  0
 20 19  1  0  0  0  0
 22 28  1  0  0  0  0
 22 27  1  0  0  0  0
 23 22  2  0  0  0  0
 24 23  1  0  0  0  0
 24 25  2  0  0  0  0
 25 26  1  0  0  0  0
 26 27  2  0  0  0  0
 26 19  1  0  0  0  0
 29 23  1  0  0  0  0
 30 24  1  0  0  0  0
M  END
>  <minimizedAffinity>
-5.09660673

$$$$

 OpenBabel03252502543D

 30 32  0  0  0  0  0  0  0  0999 V2000
   37.7430   28.1630   42.9620 Br  0  0  0  0  0  0  0  0  0  0  0  0
   36.9480   27.9660   41.2090 C   0  0  0  0  0  0  0  0  0  0  0  0
   36.3450   29.0850   40.6970 C   0  0  0  0  0  0  0  0  0  0  0  0
   35.7880   28.8940   39.4360 C   0  0  0  0  0  0  0  0  0  0  0  0
   35.8250   27.7060   38.7470 C   0  0  0  0  0  0  0  0  0  0  0  0
   36.4430   26.6340   39.3230 C   0  0  0  0  0  0  0  0  0  0  0  0
   37.0240   26.7490   40.5820 C   0  0  0  0  0  0  0  0  0  0  0  0
   35.2830   29.7410   38.9520 H   0  0  0  0  0  0  0  0  0  0  0  0
   35.3690   27.6220   37.7640 H   0  0  0  0  0  0  0  0  0  0  0  0
   36.4930   25.6810   38.8130 H   0  0  0  0  0  0  0  0  0  0  0  0
   37.7030   25.6410   41.2580 C   0  0  0  0  0  0  0  0  0  0  0  0
   37.0140   24.6500   41.9460 C   0  0  0  0  0  0  0  0  0  0  0  0
   35.9380   24.5390   42.0860 H   0  0  0  0  0  0  0  0  0  0  0  0
   37.9680   23.8170   42.4250 N   0  0  0  0  0  0  0  0  0  0  0  0
   37.7420   22.9550   42.9990 H   0  0  0  0  0  0  0  0  0  0  0  0
   39.1900   24.2540   42.0610 C   0  0  0  0  0  0  0  0  0  0  0  0
   40.1510   23.8020   42.2930 H   0  0  0  0  0  0  0  0  0  0  0  0
   39.0310   25.3970   41.3310 N   0  0  0  0  0  0  0  0  0  0  0  0
   36.2410   30.4020   41.3320 C   0  0  0  0  0  0  0  0  0  0  0  0
   36.4510   30.2800   42.4220 H   0  0  0  0  0  0  0  0  0  0  0  0
   35.2290   30.8040   41.2430 H   0  0  0  0  0  0  0  0  0  0  0  0
   37.7280   33.2500   39.4500 C   0  0  0  0  0  0  0  0  0  0  0  0
   39.0770   33.1840   39.8390 C   0  0  0  0  0  0  0  0  0  0  0  0
   39.4350   32.1720   40.7300 C   0  0  0  0  0  0  0  0  0  0  0  0
   38.4870   31.3000   41.1830 N   0  0  0  0  0  0  0  0  0  0  0  0
   37.1900   31.4070   40.7740 C   0  0  0  0  0  0  0  0  0  0  0  0
   36.8480   32.3820   39.9170 N   0  0  0  0  0  0  0  0  0  0  0  0
   37.4930   34.0490   38.7590 H   0  0  0  0  0  0  0  0  0  0  0  0
   39.8390   33.8660   39.4900 H   0  0  0  0  0  0  0  0  0  0  0  0
   40.4590   32.0290   41.0980 H   0  0  0  0  0  0  0  0  0  0  0  0
  2  1  1  0  0  0  0
  3  2  1  0  0  0  0
  3 19  1  0  0  0  0
  4  3  2  0  0  0  0
  5  6  2  0  0  0  0
  5  4  1  0  0  0  0
  6  7  1  0  0  0  0
  7  2  2  0  0  0  0
  7 11  1  0  0  0  0
  8  4  1  0  0  0  0
  9  5  1  0  0  0  0
 10  6  1  0  0  0  0
 11 18  1  0  0  0  0
 11 12  2  0  0  0  0
 12 13  1  0  0  0  0
 12 14  1  0  0  0  0
 14 15  1  0  0  0  0
 16 17  1  0  0  0  0
 16 14  1  0  0  0  0
 18 16  2  0  0  0  0
 19 20  1  0  0  0  0
 21 19  1  0  0  0  0
 22 23  2  0  0  0  0
 22 27  1  0  0  0  0
 23 24  1  0  0  0  0
 24 30  1  0  0  0  0
 24 25  2  0  0  0  0
 26 25  1  0  0  0  0
 26 19  1  0  0  0  0
 27 26  2  0  0  0  0
 28 22  1  0  0  0  0
 29 23  1  0  0  0  0
M  END
>  <minimizedAffinity>
-5.05723095

$$$$

 OpenBabel03252502543D

 30 32  0  0  0  0  0  0  0  0999 V2000
   36.5450   26.8080   39.0450 Br  0  0  0  0  0  0  0  0  0  0  0  0
   36.6070   28.6810   39.5250 C   0  0  0  0  0  0  0  0  0  0  0  0
   36.5260   28.9590   40.8640 C   0  0  0  0  0  0  0  0  0  0  0  0
   36.5740   30.3180   41.1590 C   0  0  0  0  0  0  0  0  0  0  0  0
   36.6920   31.3090   40.2150 C   0  0  0  0  0  0  0  0  0  0  0  0
   36.7660   30.9550   38.9000 C   0  0  0  0  0  0  0  0  0  0  0  0
   36.7250   29.6150   38.5280 C   0  0  0  0  0  0  0  0  0  0  0  0
   36.5140   30.6290   42.2120 H   0  0  0  0  0  0  0  0  0  0  0  0
   36.7230   32.3550   40.5120 H   0  0  0  0  0  0  0  0  0  0  0  0
   36.8600   31.7060   38.1260 H   0  0  0  0  0  0  0  0  0  0  0  0
   36.8010   29.1640   37.1360 C   0  0  0  0  0  0  0  0  0  0  0  0
   38.0030   28.8560   36.5130 C   0  0  0  0  0  0  0  0  0  0  0  0
   39.0140   28.8940   36.9250 H   0  0  0  0  0  0  0  0  0  0  0  0
   37.6720   28.4850   35.2550 N   0  0  0  0  0  0  0  0  0  0  0  0
   38.3910   28.1900   34.5340 H   0  0  0  0  0  0  0  0  0  0  0  0
   36.3360   28.5540   35.0890 C   0  0  0  0  0  0  0  0  0  0  0  0
   35.7660   28.3200   34.1920 H   0  0  0  0  0  0  0  0  0  0  0  0
   35.7840   28.9790   36.2630 N   0  0  0  0  0  0  0  0  0  0  0  0
   36.3990   27.9930   41.9600 C   0  0  0  0  0  0  0  0  0  0  0  0
   35.7850   27.1340   41.5980 H   0  0  0  0  0  0  0  0  0  0  0  0
   35.8700   28.4310   42.8120 H   0  0  0  0  0  0  0  0  0  0  0  0
   39.8450   27.7260   43.3450 C   0  0  0  0  0  0  0  0  0  0  0  0
   40.0680   26.3390   43.3080 C   0  0  0  0  0  0  0  0  0  0  0  0
   39.0370   25.5410   42.8110 C   0  0  0  0  0  0  0  0  0  0  0  0
   37.8740   26.1190   42.3900 N   0  0  0  0  0  0  0  0  0  0  0  0
   37.7090   27.4720   42.4470 C   0  0  0  0  0  0  0  0  0  0  0  0
   38.7020   28.2370   42.9250 N   0  0  0  0  0  0  0  0  0  0  0  0
   40.6690   28.3070   43.7360 H   0  0  0  0  0  0  0  0  0  0  0  0
   40.9820   25.8660   43.6370 H   0  0  0  0  0  0  0  0  0  0  0  0
   39.1040   24.4470   42.7370 H   0  0  0  0  0  0  0  0  0  0  0  0
  1  2  1  0  0  0  0
  2  3  1  0  0  0  0
  3  4  2  0  0  0  0
  3 19  1  0  0  0  0
  4  8  1  0  0  0  0
  5  9  1  0  0  0  0
  5  4  1  0  0  0  0
  6  5  2  0  0  0  0
  7  6  1  0  0  0  0
  7  2  2  0  0  0  0
 10  6  1  0  0  0  0
 11  7  1  0  0  0  0
 12 13  1  0  0  0  0
 12 11  2  0  0  0  0
 14 12  1  0  0  0  0
 15 14  1  0  0  0  0
 16 14  1  0  0  0  0
 16 18  2  0  0  0  0
 17 16  1  0  0  0  0
 18 11  1  0  0  0  0
 19 26  1  0  0  0  0
 19 21  1  0  0  0  0
 20 19  1  0  0  0  0
 22 28  1  0  0  0  0
 23 22  1  0  0  0  0
 23 29  1  0  0  0  0
 24 23  2  0  0  0  0
 25 26  2  0  0  0  0
 25 24  1  0  0  0  0
 26 27  1  0  0  0  0
 27 22  2  0  0  0  0
 30 24  1  0  0  0  0
M  END
>  <minimizedAffinity>
-4.99210739

$$$$

 OpenBabel03252502543D

 30 32  0  0  0  0  0  0  0  0999 V2000
   37.0440   28.5040   38.9490 Br  0  0  0  0  0  0  0  0  0  0  0  0
   37.1550   28.0800   40.8340 C   0  0  0  0  0  0  0  0  0  0  0  0
   37.0350   26.7540   41.1570 C   0  0  0  0  0  0  0  0  0  0  0  0
   37.1210   26.5000   42.5220 C   0  0  0  0  0  0  0  0  0  0  0  0
   37.3080   27.4690   43.4780 C   0  0  0  0  0  0  0  0  0  0  0  0
   37.4180   28.7690   43.0800 C   0  0  0  0  0  0  0  0  0  0  0  0
   37.3420   29.1010   41.7300 C   0  0  0  0  0  0  0  0  0  0  0  0
   37.0350   25.4600   42.8680 H   0  0  0  0  0  0  0  0  0  0  0  0
   37.3660   27.2040   44.5310 H   0  0  0  0  0  0  0  0  0  0  0  0
   37.5660   29.5610   43.8020 H   0  0  0  0  0  0  0  0  0  0  0  0
   37.4520   30.4740   41.2330 C   0  0  0  0  0  0  0  0  0  0  0  0
   36.3410   31.2420   40.9040 C   0  0  0  0  0  0  0  0  0  0  0  0
   35.2860   30.9710   40.9570 H   0  0  0  0  0  0  0  0  0  0  0  0
   36.8370   32.4320   40.4910 N   0  0  0  0  0  0  0  0  0  0  0  0
   36.2190   33.2320   40.1730 H   0  0  0  0  0  0  0  0  0  0  0  0
   38.1830   32.4200   40.5560 C   0  0  0  0  0  0  0  0  0  0  0  0
   38.8670   33.2240   40.2930 H   0  0  0  0  0  0  0  0  0  0  0  0
   38.5750   31.1970   41.0190 N   0  0  0  0  0  0  0  0  0  0  0  0
   36.8340   25.6340   40.2320 C   0  0  0  0  0  0  0  0  0  0  0  0
   36.2600   26.0090   39.3510 H   0  0  0  0  0  0  0  0  0  0  0  0
   36.2370   24.8440   40.6940 H   0  0  0  0  0  0  0  0  0  0  0  0
   40.4130   25.0350   39.3940 C   0  0  0  0  0  0  0  0  0  0  0  0
   40.3640   23.7630   38.7960 C   0  0  0  0  0  0  0  0  0  0  0  0
   39.1130   23.1540   38.6980 C   0  0  0  0  0  0  0  0  0  0  0  0
   38.0060   23.7950   39.1740 N   0  0  0  0  0  0  0  0  0  0  0  0
   38.1080   25.0290   39.7470 C   0  0  0  0  0  0  0  0  0  0  0  0
   39.3120   25.6140   39.8400 N   0  0  0  0  0  0  0  0  0  0  0  0
   41.4010   25.4710   39.4510 H   0  0  0  0  0  0  0  0  0  0  0  0
   41.2300   23.2430   38.4140 H   0  0  0  0  0  0  0  0  0  0  0  0
   38.9600   22.1630   38.2490 H   0  0  0  0  0  0  0  0  0  0  0  0
  1  2  1  0  0  0  0
  2  3  2  0  0  0  0
  2  7  1  0  0  0  0
  3  4  1  0  0  0  0
  4  8  1  0  0  0  0
  4  5  2  0  0  0  0
  5  9  1  0  0  0  0
  6  5  1  0  0  0  0
  6 10  1  0  0  0  0
  7  6  2  0  0  0  0
 11  7  1  0  0  0  0
 12 13  1  0  0  0  0
 12 11  2  0  0  0  0
 14 16  1  0  0  0  0
 14 12  1  0  0  0  0
 15 14  1  0  0  0  0
 16 18  2  0  0  0  0
 17 16  1  0  0  0  0
 18 11  1  0  0  0  0
 19 21  1  0  0  0  0
 19  3  1  0  0  0  0
 20 19  1  0  0  0  0
 22 28  1  0  0  0  0
 22 27  1  0  0  0  0
 23 22  2  0  0  0  0
 24 23  1  0  0  0  0
 24 25  2  0  0  0  0
 25 26  1  0  0  0  0
 26 27  2  0  0  0  0
 26 19  1  0  0  0  0
 29 23  1  0  0  0  0
 30 24  1  0  0  0  0
M  END
>  <minimizedAffinity>
-4.94885254

$$$$

 OpenBabel03252502543D

 30 32  0  0  0  0  0  0  0  0999 V2000
   38.8040   28.6450   39.2120 Br  0  0  0  0  0  0  0  0  0  0  0  0
   38.4400   28.2490   41.0700 C   0  0  0  0  0  0  0  0  0  0  0  0
   38.6950   26.9630   41.4690 C   0  0  0  0  0  0  0  0  0  0  0  0
   38.4180   26.7270   42.8130 C   0  0  0  0  0  0  0  0  0  0  0  0
   37.9330   27.6770   43.6790 C   0  0  0  0  0  0  0  0  0  0  0  0
   37.7020   28.9360   43.2080 C   0  0  0  0  0  0  0  0  0  0  0  0
   37.9570   29.2470   41.8760 C   0  0  0  0  0  0  0  0  0  0  0  0
   38.5940   25.7200   43.2150 H   0  0  0  0  0  0  0  0  0  0  0  0
   37.7370   27.4280   44.7190 H   0  0  0  0  0  0  0  0  0  0  0  0
   37.3210   29.7120   43.8590 H   0  0  0  0  0  0  0  0  0  0  0  0
   37.7320   30.5780   41.3050 C   0  0  0  0  0  0  0  0  0  0  0  0
   36.4750   31.0210   40.9120 C   0  0  0  0  0  0  0  0  0  0  0  0
   35.5210   30.4940   40.9600 H   0  0  0  0  0  0  0  0  0  0  0  0
   36.6680   32.2760   40.4430 N   0  0  0  0  0  0  0  0  0  0  0  0
   35.8790   32.8760   40.0680 H   0  0  0  0  0  0  0  0  0  0  0  0
   37.9710   32.6090   40.5330 C   0  0  0  0  0  0  0  0  0  0  0  0
   38.4370   33.5460   40.2380 H   0  0  0  0  0  0  0  0  0  0  0  0
   38.6430   31.5500   41.0720 N   0  0  0  0  0  0  0  0  0  0  0  0
   39.2110   25.8680   40.6420 C   0  0  0  0  0  0  0  0  0  0  0  0
   40.0080   25.3410   41.2200 H   0  0  0  0  0  0  0  0  0  0  0  0
   39.6730   26.2480   39.7280 H   0  0  0  0  0  0  0  0  0  0  0  0
   36.1000   24.2690   39.3630 C   0  0  0  0  0  0  0  0  0  0  0  0
   36.3530   22.9070   39.6020 C   0  0  0  0  0  0  0  0  0  0  0  0
   37.5740   22.5790   40.1910 C   0  0  0  0  0  0  0  0  0  0  0  0
   38.4620   23.5660   40.5080 N   0  0  0  0  0  0  0  0  0  0  0  0
   38.1680   24.8750   40.2550 C   0  0  0  0  0  0  0  0  0  0  0  0
   36.9920   25.1880   39.6880 N   0  0  0  0  0  0  0  0  0  0  0  0
   35.1430   24.4800   38.9050 H   0  0  0  0  0  0  0  0  0  0  0  0
   35.6610   22.1140   39.3570 H   0  0  0  0  0  0  0  0  0  0  0  0
   37.8730   21.5480   40.4220 H   0  0  0  0  0  0  0  0  0  0  0  0
  1  2  1  0  0  0  0
  2  3  2  0  0  0  0
  2  7  1  0  0  0  0
  3  4  1  0  0  0  0
  4  8  1  0  0  0  0
  4  5  2  0  0  0  0
  5  9  1  0  0  0  0
  6  5  1  0  0  0  0
  6 10  1  0  0  0  0
  7  6  2  0  0  0  0
 11  7  1  0  0  0  0
 12 13  1  0  0  0  0
 12 11  2  0  0  0  0
 14 16  1  0  0  0  0
 14 12  1  0  0  0  0
 15 14  1  0  0  0  0
 16 18  2  0  0  0  0
 17 16  1  0  0  0  0
 18 11  1  0  0  0  0
 19 20  1  0  0  0  0
 19  3  1  0  0  0  0
 21 19  1  0  0  0  0
 22 23  2  0  0  0  0
 22 27  1  0  0  0  0
 23 24  1  0  0  0  0
 24 30  1  0  0  0  0
 24 25  2  0  0  0  0
 26 25  1  0  0  0  0
 26 19  1  0  0  0  0
 27 26  2  0  0  0  0
 28 22  1  0  0  0  0
 29 23  1  0  0  0  0
M  END
>  <minimizedAffinity>
-4.94590616

$$$$

 OpenBabel03252502543D

 30 32  0  0  0  0  0  0  0  0999 V2000
   38.6580   28.0800   37.5990 Br  0  0  0  0  0  0  0  0  0  0  0  0
   37.4390   28.8630   38.8810 C   0  0  0  0  0  0  0  0  0  0  0  0
   36.6220   27.9860   39.5450 C   0  0  0  0  0  0  0  0  0  0  0  0
   35.7640   28.5960   40.4550 C   0  0  0  0  0  0  0  0  0  0  0  0
   35.7200   29.9500   40.6850 C   0  0  0  0  0  0  0  0  0  0  0  0
   36.5630   30.7620   39.9850 C   0  0  0  0  0  0  0  0  0  0  0  0
   37.4510   30.2230   39.0580 C   0  0  0  0  0  0  0  0  0  0  0  0
   35.0730   27.9640   41.0300 H   0  0  0  0  0  0  0  0  0  0  0  0
   35.0240   30.3650   41.4110 H   0  0  0  0  0  0  0  0  0  0  0  0
   36.5590   31.8330   40.1380 H   0  0  0  0  0  0  0  0  0  0  0  0
   38.3830   31.0350   38.2730 C   0  0  0  0  0  0  0  0  0  0  0  0
   38.0160   31.6620   37.0890 C   0  0  0  0  0  0  0  0  0  0  0  0
   37.0470   31.6550   36.5850 H   0  0  0  0  0  0  0  0  0  0  0  0
   39.1270   32.3070   36.6640 N   0  0  0  0  0  0  0  0  0  0  0  0
   39.1530   32.8800   35.7730 H   0  0  0  0  0  0  0  0  0  0  0  0
   40.1410   32.1010   37.5290 C   0  0  0  0  0  0  0  0  0  0  0  0
   41.1560   32.4860   37.4630 H   0  0  0  0  0  0  0  0  0  0  0  0
   39.6820   31.3050   38.5380 N   0  0  0  0  0  0  0  0  0  0  0  0
   36.5770   26.5290   39.3860 C   0  0  0  0  0  0  0  0  0  0  0  0
   37.0520   26.2700   38.4090 H   0  0  0  0  0  0  0  0  0  0  0  0
   35.5460   26.1680   39.3480 H   0  0  0  0  0  0  0  0  0  0  0  0
   37.4440   24.1270   42.0960 C   0  0  0  0  0  0  0  0  0  0  0  0
   38.7390   24.5420   42.4500 C   0  0  0  0  0  0  0  0  0  0  0  0
   39.2740   25.6260   41.7540 C   0  0  0  0  0  0  0  0  0  0  0  0
   38.5400   26.2340   40.7760 N   0  0  0  0  0  0  0  0  0  0  0  0
   37.2860   25.7910   40.4710 C   0  0  0  0  0  0  0  0  0  0  0  0
   36.7740   24.7480   41.1410 N   0  0  0  0  0  0  0  0  0  0  0  0
   37.0680   23.2830   42.6590 H   0  0  0  0  0  0  0  0  0  0  0  0
   39.3330   24.0720   43.2220 H   0  0  0  0  0  0  0  0  0  0  0  0
   40.2750   26.0330   41.9500 H   0  0  0  0  0  0  0  0  0  0  0  0
  1  2  1  0  0  0  0
  2  7  2  0  0  0  0
  2  3  1  0  0  0  0
  3  4  2  0  0  0  0
  4  5  1  0  0  0  0
  4  8  1  0  0  0  0
  5  9  1  0  0  0  0
  6 10  1  0  0  0  0
  6  5  2  0  0  0  0
  7  6  1  0  0  0  0
 11 18  1  0  0  0  0
 11  7  1  0  0  0  0
 12 11  2  0  0  0  0
 13 12  1  0  0  0  0
 14 12  1  0  0  0  0
 14 16  1  0  0  0  0
 15 14  1  0  0  0  0
 16 18  2  0  0  0  0
 17 16  1  0  0  0  0
 19  3  1  0  0  0  0
 19 26  1  0  0  0  0
 20 19  1  0  0  0  0
 21 19  1  0  0  0  0
 22 23  1  0  0  0  0
 22 28  1  0  0  0  0
 23 29  1  0  0  0  0
 24 30  1  0  0  0  0
 24 23  2  0  0  0  0
 25 24  1  0  0  0  0
 26 25  2  0  0  0  0
 26 27  1  0  0  0  0
 27 22  2  0  0  0  0
M  END
>  <minimizedAffinity>
-4.88977766

$$$$
