
 OpenBabel03242522153D

 31 33  0  0  0  0  0  0  0  0999 V2000
   37.8050   31.1500   38.1920 C   0  0  0  0  0  0  0  0  0  0  0  0
   37.6040   30.9900   36.8570 C   0  0  0  0  0  0  0  0  0  0  0  0
   36.4340   29.5670   36.7840 S   0  0  0  0  0  0  0  0  0  0  0  0
   36.4310   29.4460   38.6520 C   0  0  0  0  0  0  0  0  0  0  0  0
   37.1430   30.2990   38.9060 N   0  0  0  0  0  0  0  0  0  0  0  0
   38.0390   31.5730   36.0290 H   0  0  0  0  0  0  0  0  0  0  0  0
   39.1530   34.0080   40.2270 C   0  0  0  0  0  0  0  0  0  0  0  0
   38.2430   33.0490   39.7380 C   0  0  0  0  0  0  0  0  0  0  0  0
   38.6860   32.1880   38.7600 C   0  0  0  0  0  0  0  0  0  0  0  0
   39.9850   32.3360   38.3390 N   0  0  0  0  0  0  0  0  0  0  0  0
   40.8190   33.2640   38.8320 C   0  0  0  0  0  0  0  0  0  0  0  0
   40.3950   34.1010   39.7800 N   0  0  0  0  0  0  0  0  0  0  0  0
   38.8650   34.7110   40.9940 H   0  0  0  0  0  0  0  0  0  0  0  0
   41.7810   33.1670   38.3320 H   0  0  0  0  0  0  0  0  0  0  0  0
   36.9410   33.0530   40.2940 N   0  0  0  0  0  0  0  0  0  0  0  0
   36.6810   32.1300   40.6580 H   0  0  0  0  0  0  0  0  0  0  0  0
   36.4950   34.0130   40.2230 H   0  0  0  0  0  0  0  0  0  0  0  0
   35.6380   28.4260   39.4230 C   0  0  0  0  0  0  0  0  0  0  0  0
   35.0630   27.8500   38.6380 H   0  0  0  0  0  0  0  0  0  0  0  0
   34.8590   28.9230   40.0240 H   0  0  0  0  0  0  0  0  0  0  0  0
   36.5170   27.5190   40.2160 C   0  0  0  0  0  0  0  0  0  0  0  0
   37.4300   27.3420   39.6010 H   0  0  0  0  0  0  0  0  0  0  0  0
   36.0050   26.5210   40.2470 H   0  0  0  0  0  0  0  0  0  0  0  0
   36.8300   27.9860   41.5760 C   0  0  0  0  0  0  0  0  0  0  0  0
   36.8840   29.1780   42.2500 C   0  0  0  0  0  0  0  0  0  0  0  0
   36.6560   30.0980   41.7410 H   0  0  0  0  0  0  0  0  0  0  0  0
   37.2300   29.0080   43.5270 N   0  0  0  0  0  0  0  0  0  0  0  0
   37.3470   29.7380   44.2650 H   0  0  0  0  0  0  0  0  0  0  0  0
   37.4020   27.6870   43.6790 C   0  0  0  0  0  0  0  0  0  0  0  0
   37.6910   27.1550   44.5890 H   0  0  0  0  0  0  0  0  0  0  0  0
   37.1660   27.0670   42.5200 N   0  0  0  0  0  0  0  0  0  0  0  0
  1  9  1  0  0  0  0
  1  5  1  0  0  0  0
  2  1  2  0  0  0  0
  3  2  1  0  0  0  0
  3  4  1  0  0  0  0
  4  5  2  0  0  0  0
  4 18  1  0  0  0  0
  6  2  1  0  0  0  0
  7 13  1  0  0  0  0
  8  7  2  0  0  0  0
  8 15  1  0  0  0  0
  9  8  1  0  0  0  0
 10  9  2  0  0  0  0
 10 11  1  0  0  0  0
 11 12  2  0  0  0  0
 12  7  1  0  0  0  0
 14 11  1  0  0  0  0
 15 16  1  0  0  0  0
 17 15  1  0  0  0  0
 18 20  1  0  0  0  0
 18 21  1  0  0  0  0
 19 18  1  0  0  0  0
 21 23  1  0  0  0  0
 21 24  1  0  0  0  0
 22 21  1  0  0  0  0
 24 25  2  0  0  0  0
 24 31  1  0  0  0  0
 25 27  1  0  0  0  0
 26 25  1  0  0  0  0
 27 29  1  0  0  0  0
 27 28  1  0  0  0  0
 29 30  1  0  0  0  0
 31 29  2  0  0  0  0
M  END
>  <minimizedAffinity>
-5.10181665

$$$$

 OpenBabel03242522153D

 31 33  0  0  0  0  0  0  0  0999 V2000
   38.1480   31.3130   40.1940 C   0  0  0  0  0  0  0  0  0  0  0  0
   36.8940   31.2970   39.6700 C   0  0  0  0  0  0  0  0  0  0  0  0
   36.0310   30.0350   40.6980 S   0  0  0  0  0  0  0  0  0  0  0  0
   37.5910   29.7480   41.6930 C   0  0  0  0  0  0  0  0  0  0  0  0
   38.2910   30.4850   41.1770 N   0  0  0  0  0  0  0  0  0  0  0  0
   36.5000   31.8970   38.8320 H   0  0  0  0  0  0  0  0  0  0  0  0
   40.5590   34.1610   39.7450 C   0  0  0  0  0  0  0  0  0  0  0  0
   39.5090   33.3940   40.2880 C   0  0  0  0  0  0  0  0  0  0  0  0
   39.2260   32.1860   39.6920 C   0  0  0  0  0  0  0  0  0  0  0  0
   39.9950   31.8270   38.6120 N   0  0  0  0  0  0  0  0  0  0  0  0
   40.9870   32.5890   38.1270 C   0  0  0  0  0  0  0  0  0  0  0  0
   41.2650   33.7610   38.7010 N   0  0  0  0  0  0  0  0  0  0  0  0
   40.8280   35.1170   40.1680 H   0  0  0  0  0  0  0  0  0  0  0  0
   41.4330   32.0770   37.2760 H   0  0  0  0  0  0  0  0  0  0  0  0
   38.8260   33.9320   41.4050 N   0  0  0  0  0  0  0  0  0  0  0  0
   38.8140   33.2780   42.1950 H   0  0  0  0  0  0  0  0  0  0  0  0
   38.4630   34.9080   41.2010 H   0  0  0  0  0  0  0  0  0  0  0  0
   37.6910   28.7640   42.8270 C   0  0  0  0  0  0  0  0  0  0  0  0
   37.4480   29.3620   43.7540 H   0  0  0  0  0  0  0  0  0  0  0  0
   38.7380   28.4500   42.9680 H   0  0  0  0  0  0  0  0  0  0  0  0
   36.7430   27.6240   42.6600 C   0  0  0  0  0  0  0  0  0  0  0  0
   36.0910   27.8770   41.7910 H   0  0  0  0  0  0  0  0  0  0  0  0
   36.0510   27.6500   43.5440 H   0  0  0  0  0  0  0  0  0  0  0  0
   37.3740   26.3020   42.5310 C   0  0  0  0  0  0  0  0  0  0  0  0
   36.9840   25.0150   42.2640 C   0  0  0  0  0  0  0  0  0  0  0  0
   35.9480   24.7900   42.0850 H   0  0  0  0  0  0  0  0  0  0  0  0
   38.0210   24.1750   42.2590 N   0  0  0  0  0  0  0  0  0  0  0  0
   38.0150   23.1450   42.0850 H   0  0  0  0  0  0  0  0  0  0  0  0
   39.0960   24.9320   42.5270 C   0  0  0  0  0  0  0  0  0  0  0  0
   40.1340   24.6040   42.6100 H   0  0  0  0  0  0  0  0  0  0  0  0
   38.7210   26.2030   42.6920 N   0  0  0  0  0  0  0  0  0  0  0  0
  1  5  1  0  0  0  0
  2  1  2  0  0  0  0
  2  3  1  0  0  0  0
  3  4  1  0  0  0  0
  4 18  1  0  0  0  0
  5  4  2  0  0  0  0
  6  2  1  0  0  0  0
  7 13  1  0  0  0  0
  7  8  1  0  0  0  0
  8 15  1  0  0  0  0
  9  1  1  0  0  0  0
  9  8  2  0  0  0  0
 10  9  1  0  0  0  0
 11 10  2  0  0  0  0
 11 12  1  0  0  0  0
 12  7  2  0  0  0  0
 14 11  1  0  0  0  0
 15 16  1  0  0  0  0
 17 15  1  0  0  0  0
 18 20  1  0  0  0  0
 18 19  1  0  0  0  0
 21 18  1  0  0  0  0
 21 23  1  0  0  0  0
 22 21  1  0  0  0  0
 24 21  1  0  0  0  0
 24 31  1  0  0  0  0
 25 24  2  0  0  0  0
 26 25  1  0  0  0  0
 27 25  1  0  0  0  0
 27 29  1  0  0  0  0
 28 27  1  0  0  0  0
 29 30  1  0  0  0  0
 29 31  2  0  0  0  0
M  END
>  <minimizedAffinity>
-5.08340263

$$$$

 OpenBabel03242522153D

 31 33  0  0  0  0  0  0  0  0999 V2000
   39.1280   30.6180   41.6320 C   0  0  0  0  0  0  0  0  0  0  0  0
   40.4370   30.2510   41.6070 C   0  0  0  0  0  0  0  0  0  0  0  0
   40.4510   28.6990   42.6020 S   0  0  0  0  0  0  0  0  0  0  0  0
   38.6040   28.8370   42.8800 C   0  0  0  0  0  0  0  0  0  0  0  0
   38.3890   29.7970   42.3050 N   0  0  0  0  0  0  0  0  0  0  0  0
   41.2770   30.7650   41.1110 H   0  0  0  0  0  0  0  0  0  0  0  0
   37.0510   32.9840   39.5800 C   0  0  0  0  0  0  0  0  0  0  0  0
   37.4750   31.7830   40.1820 C   0  0  0  0  0  0  0  0  0  0  0  0
   38.6110   31.8250   40.9590 C   0  0  0  0  0  0  0  0  0  0  0  0
   39.2390   33.0400   41.0830 N   0  0  0  0  0  0  0  0  0  0  0  0
   38.7990   34.1610   40.4910 C   0  0  0  0  0  0  0  0  0  0  0  0
   37.6990   34.1260   39.7380 N   0  0  0  0  0  0  0  0  0  0  0  0
   36.1680   33.0160   38.9590 H   0  0  0  0  0  0  0  0  0  0  0  0
   39.4720   34.9770   40.7500 H   0  0  0  0  0  0  0  0  0  0  0  0
   36.6980   30.6260   39.9350 N   0  0  0  0  0  0  0  0  0  0  0  0
   36.4030   30.1730   40.8060 H   0  0  0  0  0  0  0  0  0  0  0  0
   36.5760   30.4600   38.8940 H   0  0  0  0  0  0  0  0  0  0  0  0
   37.8030   27.8450   43.6790 C   0  0  0  0  0  0  0  0  0  0  0  0
   37.1950   28.4720   44.3970 H   0  0  0  0  0  0  0  0  0  0  0  0
   38.4690   27.2520   44.3280 H   0  0  0  0  0  0  0  0  0  0  0  0
   36.9190   27.0140   42.8110 C   0  0  0  0  0  0  0  0  0  0  0  0
   36.6720   27.6370   41.9210 H   0  0  0  0  0  0  0  0  0  0  0  0
   35.9440   26.9060   43.3560 H   0  0  0  0  0  0  0  0  0  0  0  0
   37.4630   25.6960   42.4480 C   0  0  0  0  0  0  0  0  0  0  0  0
   37.0150   24.5440   41.8540 C   0  0  0  0  0  0  0  0  0  0  0  0
   35.9950   24.4690   41.5210 H   0  0  0  0  0  0  0  0  0  0  0  0
   37.9800   23.6270   41.7650 N   0  0  0  0  0  0  0  0  0  0  0  0
   37.9200   22.6670   41.3600 H   0  0  0  0  0  0  0  0  0  0  0  0
   39.0660   24.1950   42.3100 C   0  0  0  0  0  0  0  0  0  0  0  0
   40.0590   23.7550   42.4230 H   0  0  0  0  0  0  0  0  0  0  0  0
   38.7680   25.4300   42.7220 N   0  0  0  0  0  0  0  0  0  0  0  0
  1  5  1  0  0  0  0
  2  1  2  0  0  0  0
  2  3  1  0  0  0  0
  3  4  1  0  0  0  0
  4 18  1  0  0  0  0
  5  4  2  0  0  0  0
  6  2  1  0  0  0  0
  7 12  2  0  0  0  0
  7  8  1  0  0  0  0
  8  9  2  0  0  0  0
  9 10  1  0  0  0  0
  9  1  1  0  0  0  0
 11 14  1  0  0  0  0
 11 10  2  0  0  0  0
 12 11  1  0  0  0  0
 13  7  1  0  0  0  0
 15  8  1  0  0  0  0
 15 16  1  0  0  0  0
 17 15  1  0  0  0  0
 18 20  1  0  0  0  0
 18 19  1  0  0  0  0
 21 23  1  0  0  0  0
 21 18  1  0  0  0  0
 22 21  1  0  0  0  0
 24 31  1  0  0  0  0
 24 21  1  0  0  0  0
 25 24  2  0  0  0  0
 26 25  1  0  0  0  0
 27 25  1  0  0  0  0
 27 29  1  0  0  0  0
 28 27  1  0  0  0  0
 29 30  1  0  0  0  0
 29 31  2  0  0  0  0
M  END
>  <minimizedAffinity>
-4.97474146

$$$$

 OpenBabel03242522153D

 31 33  0  0  0  0  0  0  0  0999 V2000
   37.8430   30.3470   40.9350 C   0  0  0  0  0  0  0  0  0  0  0  0
   37.6980   29.6700   42.1040 C   0  0  0  0  0  0  0  0  0  0  0  0
   36.5150   28.3270   41.6600 S   0  0  0  0  0  0  0  0  0  0  0  0
   36.4310   28.9550   39.8990 C   0  0  0  0  0  0  0  0  0  0  0  0
   37.1430   29.8430   39.9720 N   0  0  0  0  0  0  0  0  0  0  0  0
   38.1740   29.8810   43.0760 H   0  0  0  0  0  0  0  0  0  0  0  0
   39.1020   33.8320   40.3060 C   0  0  0  0  0  0  0  0  0  0  0  0
   38.2000   32.7550   40.4210 C   0  0  0  0  0  0  0  0  0  0  0  0
   38.7120   31.5300   40.7860 C   0  0  0  0  0  0  0  0  0  0  0  0
   40.0650   31.4590   41.0080 N   0  0  0  0  0  0  0  0  0  0  0  0
   40.8880   32.5120   40.8870 C   0  0  0  0  0  0  0  0  0  0  0  0
   40.3980   33.7010   40.5340 N   0  0  0  0  0  0  0  0  0  0  0  0
   38.7620   34.8170   40.0240 H   0  0  0  0  0  0  0  0  0  0  0  0
   41.9020   32.1880   41.1170 H   0  0  0  0  0  0  0  0  0  0  0  0
   36.8370   33.0220   40.1480 N   0  0  0  0  0  0  0  0  0  0  0  0
   36.2310   32.7360   40.9240 H   0  0  0  0  0  0  0  0  0  0  0  0
   36.7160   33.4660   39.1920 H   0  0  0  0  0  0  0  0  0  0  0  0
   35.5900   28.3210   38.8240 C   0  0  0  0  0  0  0  0  0  0  0  0
   34.6570   27.9680   39.3550 H   0  0  0  0  0  0  0  0  0  0  0  0
   36.0680   27.3950   38.4630 H   0  0  0  0  0  0  0  0  0  0  0  0
   35.2560   29.2850   37.7360 C   0  0  0  0  0  0  0  0  0  0  0  0
   35.3640   30.3060   38.1710 H   0  0  0  0  0  0  0  0  0  0  0  0
   34.1560   29.1800   37.5410 H   0  0  0  0  0  0  0  0  0  0  0  0
   36.0240   29.1130   36.4930 C   0  0  0  0  0  0  0  0  0  0  0  0
   37.2820   28.7110   36.1270 C   0  0  0  0  0  0  0  0  0  0  0  0
   37.9960   28.4170   36.8770 H   0  0  0  0  0  0  0  0  0  0  0  0
   37.4450   28.7390   34.8030 N   0  0  0  0  0  0  0  0  0  0  0  0
   38.2950   28.4860   34.2530 H   0  0  0  0  0  0  0  0  0  0  0  0
   36.2740   29.1670   34.3080 C   0  0  0  0  0  0  0  0  0  0  0  0
   36.0140   29.3220   33.2580 H   0  0  0  0  0  0  0  0  0  0  0  0
   35.4190   29.3940   35.3080 N   0  0  0  0  0  0  0  0  0  0  0  0
  1  2  2  0  0  0  0
  2  6  1  0  0  0  0
  3  2  1  0  0  0  0
  4  5  2  0  0  0  0
  4  3  1  0  0  0  0
  5  1  1  0  0  0  0
  7  8  2  0  0  0  0
  7 12  1  0  0  0  0
  8  9  1  0  0  0  0
  9  1  1  0  0  0  0
  9 10  2  0  0  0  0
 11 10  1  0  0  0  0
 11 14  1  0  0  0  0
 12 11  2  0  0  0  0
 13  7  1  0  0  0  0
 15  8  1  0  0  0  0
 15 16  1  0  0  0  0
 17 15  1  0  0  0  0
 18 19  1  0  0  0  0
 18  4  1  0  0  0  0
 20 18  1  0  0  0  0
 21 22  1  0  0  0  0
 21 18  1  0  0  0  0
 23 21  1  0  0  0  0
 24 21  1  0  0  0  0
 25 24  2  0  0  0  0
 25 26  1  0  0  0  0
 27 25  1  0  0  0  0
 28 27  1  0  0  0  0
 29 27  1  0  0  0  0
 29 31  2  0  0  0  0
 30 29  1  0  0  0  0
 31 24  1  0  0  0  0
M  END
>  <minimizedAffinity>
-4.91454458

$$$$

 OpenBabel03242522153D

 31 33  0  0  0  0  0  0  0  0999 V2000
   37.2310   28.8410   39.7520 C   0  0  0  0  0  0  0  0  0  0  0  0
   36.8610   28.1010   38.6740 C   0  0  0  0  0  0  0  0  0  0  0  0
   36.5500   26.4370   39.4020 S   0  0  0  0  0  0  0  0  0  0  0  0
   36.9970   27.0760   41.1040 C   0  0  0  0  0  0  0  0  0  0  0  0
   37.2360   28.1610   40.8510 N   0  0  0  0  0  0  0  0  0  0  0  0
   36.7720   28.4260   37.6240 H   0  0  0  0  0  0  0  0  0  0  0  0
   37.3010   32.5680   40.2400 C   0  0  0  0  0  0  0  0  0  0  0  0
   36.8900   31.2270   40.3730 C   0  0  0  0  0  0  0  0  0  0  0  0
   37.5880   30.2710   39.6700 C   0  0  0  0  0  0  0  0  0  0  0  0
   38.6330   30.7060   38.8930 N   0  0  0  0  0  0  0  0  0  0  0  0
   38.9920   31.9950   38.7940 C   0  0  0  0  0  0  0  0  0  0  0  0
   38.3190   32.9250   39.4730 N   0  0  0  0  0  0  0  0  0  0  0  0
   36.7940   33.3630   40.7650 H   0  0  0  0  0  0  0  0  0  0  0  0
   39.8430   32.0680   38.1200 H   0  0  0  0  0  0  0  0  0  0  0  0
   35.7850   30.9720   41.2210 N   0  0  0  0  0  0  0  0  0  0  0  0
   36.0080   30.2710   41.9350 H   0  0  0  0  0  0  0  0  0  0  0  0
   34.9450   31.5590   40.9450 H   0  0  0  0  0  0  0  0  0  0  0  0
   36.9850   26.2250   42.3460 C   0  0  0  0  0  0  0  0  0  0  0  0
   35.8900   26.0910   42.5960 H   0  0  0  0  0  0  0  0  0  0  0  0
   37.3950   26.7910   43.1990 H   0  0  0  0  0  0  0  0  0  0  0  0
   37.6500   24.9080   42.1270 C   0  0  0  0  0  0  0  0  0  0  0  0
   37.3560   24.5690   41.1060 H   0  0  0  0  0  0  0  0  0  0  0  0
   37.1520   24.1780   42.8180 H   0  0  0  0  0  0  0  0  0  0  0  0
   39.1070   24.9050   42.3280 C   0  0  0  0  0  0  0  0  0  0  0  0
   39.9890   24.6410   43.3430 C   0  0  0  0  0  0  0  0  0  0  0  0
   39.6260   24.3480   44.3120 H   0  0  0  0  0  0  0  0  0  0  0  0
   41.2550   24.7920   42.9500 N   0  0  0  0  0  0  0  0  0  0  0  0
   42.1250   24.6570   43.5120 H   0  0  0  0  0  0  0  0  0  0  0  0
   41.1890   25.1590   41.6610 C   0  0  0  0  0  0  0  0  0  0  0  0
   42.0220   25.3770   40.9900 H   0  0  0  0  0  0  0  0  0  0  0  0
   39.9110   25.2300   41.2800 N   0  0  0  0  0  0  0  0  0  0  0  0
  1  5  1  0  0  0  0
  2  3  1  0  0  0  0
  2  1  2  0  0  0  0
  3  4  1  0  0  0  0
  4 18  1  0  0  0  0
  5  4  2  0  0  0  0
  6  2  1  0  0  0  0
  7  8  1  0  0  0  0
  7 13  1  0  0  0  0
  8 15  1  0  0  0  0
  9  1  1  0  0  0  0
  9  8  2  0  0  0  0
 10  9  1  0  0  0  0
 11 10  2  0  0  0  0
 11 12  1  0  0  0  0
 12  7  2  0  0  0  0
 14 11  1  0  0  0  0
 15 16  1  0  0  0  0
 17 15  1  0  0  0  0
 18 19  1  0  0  0  0
 18 20  1  0  0  0  0
 21 24  1  0  0  0  0
 21 18  1  0  0  0  0
 21 23  1  0  0  0  0
 22 21  1  0  0  0  0
 24 25  2  0  0  0  0
 25 26  1  0  0  0  0
 27 25  1  0  0  0  0
 27 28  1  0  0  0  0
 29 27  1  0  0  0  0
 30 29  1  0  0  0  0
 31 29  2  0  0  0  0
 31 24  1  0  0  0  0
M  END
>  <minimizedAffinity>
-4.84590483

$$$$

 OpenBabel03242522153D

 31 33  0  0  0  0  0  0  0  0999 V2000
   41.0280   29.6960   37.3080 C   0  0  0  0  0  0  0  0  0  0  0  0
   41.4470   28.5150   36.7830 C   0  0  0  0  0  0  0  0  0  0  0  0
   39.9690   27.4300   36.9770 S   0  0  0  0  0  0  0  0  0  0  0  0
   39.0150   28.8350   37.7650 C   0  0  0  0  0  0  0  0  0  0  0  0
   39.8090   29.6530   37.7350 N   0  0  0  0  0  0  0  0  0  0  0  0
   42.4320   28.2730   36.3510 H   0  0  0  0  0  0  0  0  0  0  0  0
   42.2500   33.2510   37.2590 C   0  0  0  0  0  0  0  0  0  0  0  0
   41.3640   32.1580   37.1680 C   0  0  0  0  0  0  0  0  0  0  0  0
   41.8800   30.8990   37.3790 C   0  0  0  0  0  0  0  0  0  0  0  0
   43.2210   30.8130   37.6610 N   0  0  0  0  0  0  0  0  0  0  0  0
   44.0290   31.8810   37.7380 C   0  0  0  0  0  0  0  0  0  0  0  0
   43.5350   33.1030   37.5350 N   0  0  0  0  0  0  0  0  0  0  0  0
   41.9050   34.2620   37.1040 H   0  0  0  0  0  0  0  0  0  0  0  0
   45.0350   31.5390   37.9740 H   0  0  0  0  0  0  0  0  0  0  0  0
   40.0120   32.4450   36.8630 N   0  0  0  0  0  0  0  0  0  0  0  0
   39.3730   32.0420   37.5570 H   0  0  0  0  0  0  0  0  0  0  0  0
   39.9320   33.0220   35.9770 H   0  0  0  0  0  0  0  0  0  0  0  0
   37.5940   28.7160   38.2440 C   0  0  0  0  0  0  0  0  0  0  0  0
   37.6730   28.6030   39.3660 H   0  0  0  0  0  0  0  0  0  0  0  0
   37.1550   27.7640   37.9020 H   0  0  0  0  0  0  0  0  0  0  0  0
   36.7810   29.9130   37.8820 C   0  0  0  0  0  0  0  0  0  0  0  0
   35.7370   29.5530   37.7270 H   0  0  0  0  0  0  0  0  0  0  0  0
   37.1190   30.2330   36.8610 H   0  0  0  0  0  0  0  0  0  0  0  0
   36.8610   31.0320   38.8330 C   0  0  0  0  0  0  0  0  0  0  0  0
   36.6160   31.2500   40.1640 C   0  0  0  0  0  0  0  0  0  0  0  0
   36.2590   30.4490   40.7860 H   0  0  0  0  0  0  0  0  0  0  0  0
   36.8820   32.5090   40.5150 N   0  0  0  0  0  0  0  0  0  0  0  0
   36.7870   32.9490   41.4580 H   0  0  0  0  0  0  0  0  0  0  0  0
   37.3030   33.1130   39.3940 C   0  0  0  0  0  0  0  0  0  0  0  0
   37.6150   34.1530   39.2770 H   0  0  0  0  0  0  0  0  0  0  0  0
   37.2950   32.2400   38.3840 N   0  0  0  0  0  0  0  0  0  0  0  0
  1  9  1  0  0  0  0
  1  5  1  0  0  0  0
  2  3  1  0  0  0  0
  2  1  2  0  0  0  0
  3  4  1  0  0  0  0
  4 18  1  0  0  0  0
  5  4  2  0  0  0  0
  6  2  1  0  0  0  0
  7 12  1  0  0  0  0
  8  7  2  0  0  0  0
  8  9  1  0  0  0  0
  9 10  2  0  0  0  0
 10 11  1  0  0  0  0
 11 14  1  0  0  0  0
 12 11  2  0  0  0  0
 13  7  1  0  0  0  0
 15  8  1  0  0  0  0
 15 16  1  0  0  0  0
 17 15  1  0  0  0  0
 18 19  1  0  0  0  0
 20 18  1  0  0  0  0
 21 18  1  0  0  0  0
 21 24  1  0  0  0  0
 22 21  1  0  0  0  0
 23 21  1  0  0  0  0
 24 25  2  0  0  0  0
 25 27  1  0  0  0  0
 25 26  1  0  0  0  0
 27 28  1  0  0  0  0
 29 27  1  0  0  0  0
 30 29  1  0  0  0  0
 31 24  1  0  0  0  0
 31 29  2  0  0  0  0
M  END
>  <minimizedAffinity>
-4.76326942

$$$$

 OpenBabel03242522153D

 31 33  0  0  0  0  0  0  0  0999 V2000
   36.8800   28.5420   39.2410 C   0  0  0  0  0  0  0  0  0  0  0  0
   36.5090   27.9290   38.0860 C   0  0  0  0  0  0  0  0  0  0  0  0
   36.6700   29.2740   36.8350 S   0  0  0  0  0  0  0  0  0  0  0  0
   37.2340   30.4690   38.1610 C   0  0  0  0  0  0  0  0  0  0  0  0
   37.1990   29.7840   39.0710 N   0  0  0  0  0  0  0  0  0  0  0  0
   36.1910   26.8830   37.9430 H   0  0  0  0  0  0  0  0  0  0  0  0
   36.6500   27.7840   42.9150 C   0  0  0  0  0  0  0  0  0  0  0  0
   36.5940   28.5170   41.7130 C   0  0  0  0  0  0  0  0  0  0  0  0
   36.9140   27.8580   40.5480 C   0  0  0  0  0  0  0  0  0  0  0  0
   37.2630   26.5340   40.6550 N   0  0  0  0  0  0  0  0  0  0  0  0
   37.3020   25.8730   41.8220 C   0  0  0  0  0  0  0  0  0  0  0  0
   36.9930   26.5080   42.9540 N   0  0  0  0  0  0  0  0  0  0  0  0
   36.4100   28.2460   43.8620 H   0  0  0  0  0  0  0  0  0  0  0  0
   37.6050   24.8460   41.6290 H   0  0  0  0  0  0  0  0  0  0  0  0
   36.2160   29.8780   41.8030 N   0  0  0  0  0  0  0  0  0  0  0  0
   35.4250   30.0940   41.1860 H   0  0  0  0  0  0  0  0  0  0  0  0
   36.8280   30.4030   42.4920 H   0  0  0  0  0  0  0  0  0  0  0  0
   37.5880   31.9070   37.8940 C   0  0  0  0  0  0  0  0  0  0  0  0
   36.9400   32.2090   37.0190 H   0  0  0  0  0  0  0  0  0  0  0  0
   38.6200   31.9800   37.5120 H   0  0  0  0  0  0  0  0  0  0  0  0
   37.3280   32.7740   39.0790 C   0  0  0  0  0  0  0  0  0  0  0  0
   36.6330   32.2070   39.7420 H   0  0  0  0  0  0  0  0  0  0  0  0
   36.7180   33.6420   38.7140 H   0  0  0  0  0  0  0  0  0  0  0  0
   38.5300   33.2430   39.7860 C   0  0  0  0  0  0  0  0  0  0  0  0
   38.8420   34.1610   40.7550 C   0  0  0  0  0  0  0  0  0  0  0  0
   38.0700   34.7700   41.1920 H   0  0  0  0  0  0  0  0  0  0  0  0
   40.1460   34.1590   41.0350 N   0  0  0  0  0  0  0  0  0  0  0  0
   40.6570   34.7510   41.7270 H   0  0  0  0  0  0  0  0  0  0  0  0
   40.6830   33.2250   40.2360 C   0  0  0  0  0  0  0  0  0  0  0  0
   41.7330   32.9300   40.1720 H   0  0  0  0  0  0  0  0  0  0  0  0
   39.7270   32.6720   39.4850 N   0  0  0  0  0  0  0  0  0  0  0  0
  1  9  1  0  0  0  0
  2  1  2  0  0  0  0
  3  2  1  0  0  0  0
  3  4  1  0  0  0  0
  4  5  2  0  0  0  0
  5  1  1  0  0  0  0
  6  2  1  0  0  0  0
  7 12  1  0  0  0  0
  7 13  1  0  0  0  0
  8 15  1  0  0  0  0
  8  7  2  0  0  0  0
  9 10  2  0  0  0  0
  9  8  1  0  0  0  0
 10 11  1  0  0  0  0
 11 12  2  0  0  0  0
 14 11  1  0  0  0  0
 15 17  1  0  0  0  0
 16 15  1  0  0  0  0
 18  4  1  0  0  0  0
 18 21  1  0  0  0  0
 19 18  1  0  0  0  0
 20 18  1  0  0  0  0
 21 22  1  0  0  0  0
 21 24  1  0  0  0  0
 23 21  1  0  0  0  0
 24 25  2  0  0  0  0
 25 27  1  0  0  0  0
 25 26  1  0  0  0  0
 27 28  1  0  0  0  0
 29 27  1  0  0  0  0
 30 29  1  0  0  0  0
 31 24  1  0  0  0  0
 31 29  2  0  0  0  0
M  END
>  <minimizedAffinity>
-4.74150753

$$$$

 OpenBabel03242522153D

 31 33  0  0  0  0  0  0  0  0999 V2000
   37.3660   28.7630   40.4210 C   0  0  0  0  0  0  0  0  0  0  0  0
   36.5430   28.3250   39.4320 C   0  0  0  0  0  0  0  0  0  0  0  0
   36.1040   29.8790   38.5420 S   0  0  0  0  0  0  0  0  0  0  0  0
   37.1600   30.8780   39.7220 C   0  0  0  0  0  0  0  0  0  0  0  0
   37.5460   30.0430   40.3960 N   0  0  0  0  0  0  0  0  0  0  0  0
   36.2220   27.2920   39.2220 H   0  0  0  0  0  0  0  0  0  0  0  0
   38.5210   27.2120   43.6440 C   0  0  0  0  0  0  0  0  0  0  0  0
   37.9030   28.1240   42.7650 C   0  0  0  0  0  0  0  0  0  0  0  0
   37.9860   27.8660   41.4160 C   0  0  0  0  0  0  0  0  0  0  0  0
   38.6690   26.7370   41.0360 N   0  0  0  0  0  0  0  0  0  0  0  0
   39.2430   25.8950   41.9080 C   0  0  0  0  0  0  0  0  0  0  0  0
   39.1650   26.1390   43.2170 N   0  0  0  0  0  0  0  0  0  0  0  0
   38.4900   27.3590   44.7130 H   0  0  0  0  0  0  0  0  0  0  0  0
   39.7140   25.0870   41.3500 H   0  0  0  0  0  0  0  0  0  0  0  0
   37.2460   29.2360   43.3450 N   0  0  0  0  0  0  0  0  0  0  0  0
   36.2720   29.3080   43.0320 H   0  0  0  0  0  0  0  0  0  0  0  0
   37.8960   29.7730   43.9900 H   0  0  0  0  0  0  0  0  0  0  0  0
   37.3250   32.3710   39.6380 C   0  0  0  0  0  0  0  0  0  0  0  0
   36.5150   32.7910   40.3060 H   0  0  0  0  0  0  0  0  0  0  0  0
   37.0610   32.7270   38.6280 H   0  0  0  0  0  0  0  0  0  0  0  0
   38.6760   32.8100   40.0910 C   0  0  0  0  0  0  0  0  0  0  0  0
   38.9750   32.1190   40.9140 H   0  0  0  0  0  0  0  0  0  0  0  0
   38.5390   33.8020   40.5970 H   0  0  0  0  0  0  0  0  0  0  0  0
   39.6910   32.9020   39.0300 C   0  0  0  0  0  0  0  0  0  0  0  0
   39.9450   32.3140   37.8180 C   0  0  0  0  0  0  0  0  0  0  0  0
   39.2850   31.5560   37.4350 H   0  0  0  0  0  0  0  0  0  0  0  0
   41.0470   32.8080   37.2510 N   0  0  0  0  0  0  0  0  0  0  0  0
   41.4720   32.5460   36.3340 H   0  0  0  0  0  0  0  0  0  0  0  0
   41.5110   33.7280   38.1100 C   0  0  0  0  0  0  0  0  0  0  0  0
   42.4010   34.3510   37.9990 H   0  0  0  0  0  0  0  0  0  0  0  0
   40.7090   33.7920   39.1760 N   0  0  0  0  0  0  0  0  0  0  0  0
  1  9  1  0  0  0  0
  2  1  2  0  0  0  0
  3  2  1  0  0  0  0
  3  4  1  0  0  0  0
  4  5  2  0  0  0  0
  5  1  1  0  0  0  0
  6  2  1  0  0  0  0
  7 13  1  0  0  0  0
  8 15  1  0  0  0  0
  8  7  2  0  0  0  0
  9  8  1  0  0  0  0
 10  9  2  0  0  0  0
 10 11  1  0  0  0  0
 11 12  2  0  0  0  0
 12  7  1  0  0  0  0
 14 11  1  0  0  0  0
 15 17  1  0  0  0  0
 16 15  1  0  0  0  0
 18  4  1  0  0  0  0
 18 21  1  0  0  0  0
 18 19  1  0  0  0  0
 20 18  1  0  0  0  0
 21 23  1  0  0  0  0
 21 22  1  0  0  0  0
 24 31  1  0  0  0  0
 24 21  1  0  0  0  0
 25 24  2  0  0  0  0
 26 25  1  0  0  0  0
 27 25  1  0  0  0  0
 27 29  1  0  0  0  0
 28 27  1  0  0  0  0
 29 31  2  0  0  0  0
 30 29  1  0  0  0  0
M  END
>  <minimizedAffinity>
-4.67294931

$$$$

 OpenBabel03242522153D

 31 33  0  0  0  0  0  0  0  0999 V2000
   37.8090   30.6110   40.6650 C   0  0  0  0  0  0  0  0  0  0  0  0
   36.9370   31.6520   40.6970 C   0  0  0  0  0  0  0  0  0  0  0  0
   37.4880   32.6950   39.2800 S   0  0  0  0  0  0  0  0  0  0  0  0
   38.8550   31.4770   38.8880 C   0  0  0  0  0  0  0  0  0  0  0  0
   38.6720   30.7060   39.7070 N   0  0  0  0  0  0  0  0  0  0  0  0
   36.1070   31.8240   41.4020 H   0  0  0  0  0  0  0  0  0  0  0  0
   36.6980   27.6560   42.7060 C   0  0  0  0  0  0  0  0  0  0  0  0
   36.6470   28.7070   41.7680 C   0  0  0  0  0  0  0  0  0  0  0  0
   37.7690   29.4910   41.6250 C   0  0  0  0  0  0  0  0  0  0  0  0
   38.8510   29.1830   42.4130 N   0  0  0  0  0  0  0  0  0  0  0  0
   38.8570   28.1710   43.2950 C   0  0  0  0  0  0  0  0  0  0  0  0
   37.7730   27.4080   43.4370 N   0  0  0  0  0  0  0  0  0  0  0  0
   35.8500   27.0070   42.8640 H   0  0  0  0  0  0  0  0  0  0  0  0
   39.8290   28.1430   43.7840 H   0  0  0  0  0  0  0  0  0  0  0  0
   35.4390   28.8730   41.0490 N   0  0  0  0  0  0  0  0  0  0  0  0
   35.5970   28.8740   40.0360 H   0  0  0  0  0  0  0  0  0  0  0  0
   34.6100   28.9620   41.7060 H   0  0  0  0  0  0  0  0  0  0  0  0
   39.8310   31.6510   37.7560 C   0  0  0  0  0  0  0  0  0  0  0  0
   40.4050   32.5910   38.0090 H   0  0  0  0  0  0  0  0  0  0  0  0
   39.2940   31.8990   36.8250 H   0  0  0  0  0  0  0  0  0  0  0  0
   40.7470   30.4810   37.6240 C   0  0  0  0  0  0  0  0  0  0  0  0
   40.1750   29.6890   37.0880 H   0  0  0  0  0  0  0  0  0  0  0  0
   40.8920   30.0700   38.6580 H   0  0  0  0  0  0  0  0  0  0  0  0
   42.0430   30.7720   36.9930 C   0  0  0  0  0  0  0  0  0  0  0  0
   42.9870   31.7660   37.0270 C   0  0  0  0  0  0  0  0  0  0  0  0
   42.8430   32.6260   37.6560 H   0  0  0  0  0  0  0  0  0  0  0  0
   44.0170   31.4960   36.2240 N   0  0  0  0  0  0  0  0  0  0  0  0
   44.8710   32.0740   36.0560 H   0  0  0  0  0  0  0  0  0  0  0  0
   43.7340   30.3110   35.6630 C   0  0  0  0  0  0  0  0  0  0  0  0
   44.3400   29.7560   34.9440 H   0  0  0  0  0  0  0  0  0  0  0  0
   42.5580   29.8700   36.1150 N   0  0  0  0  0  0  0  0  0  0  0  0
  1  2  2  0  0  0  0
  1  9  1  0  0  0  0
  2  6  1  0  0  0  0
  3  2  1  0  0  0  0
  4  3  1  0  0  0  0
  4  5  2  0  0  0  0
  5  1  1  0  0  0  0
  7 13  1  0  0  0  0
  7 12  1  0  0  0  0
  8  7  2  0  0  0  0
  9  8  1  0  0  0  0
  9 10  2  0  0  0  0
 10 11  1  0  0  0  0
 11 12  2  0  0  0  0
 11 14  1  0  0  0  0
 15 17  1  0  0  0  0
 15  8  1  0  0  0  0
 16 15  1  0  0  0  0
 18 19  1  0  0  0  0
 18  4  1  0  0  0  0
 20 18  1  0  0  0  0
 21 18  1  0  0  0  0
 21 23  1  0  0  0  0
 22 21  1  0  0  0  0
 24 25  2  0  0  0  0
 24 21  1  0  0  0  0
 25 26  1  0  0  0  0
 27 25  1  0  0  0  0
 28 27  1  0  0  0  0
 29 31  2  0  0  0  0
 29 27  1  0  0  0  0
 30 29  1  0  0  0  0
 31 24  1  0  0  0  0
M  END
>  <minimizedAffinity>
-4.63716078

$$$$
