
 OpenBabel03252507043D

 46 49  0  0  0  0  0  0  0  0999 V2000
   42.0230   32.8590   41.8870 C   0  0  0  0  0  0  0  0  0  0  0  0
   41.7330   32.4600   42.8810 H   0  0  0  0  0  0  0  0  0  0  0  0
   42.1420   33.9800   42.0810 H   0  0  0  0  0  0  0  0  0  0  0  0
   41.1280   32.5750   40.9300 N   0  0  0  0  0  0  0  0  0  0  0  0
   40.5140   31.3130   40.6710 C   0  0  0  0  0  0  0  0  0  0  0  0
   39.1270   31.6010   41.2380 C   0  0  0  0  0  0  0  0  0  0  0  0
   38.4410   32.7070   40.5930 C   0  0  0  0  0  0  0  0  0  0  0  0
   39.2250   33.7260   39.9290 C   0  0  0  0  0  0  0  0  0  0  0  0
   40.7290   33.7240   40.0830 C   0  0  0  0  0  0  0  0  0  0  0  0
   40.9810   30.5520   41.3370 H   0  0  0  0  0  0  0  0  0  0  0  0
   40.5280   30.9110   39.6750 H   0  0  0  0  0  0  0  0  0  0  0  0
   38.5440   30.6400   41.1470 H   0  0  0  0  0  0  0  0  0  0  0  0
   39.2980   31.7290   42.3380 H   0  0  0  0  0  0  0  0  0  0  0  0
   37.7730   33.2250   41.3420 H   0  0  0  0  0  0  0  0  0  0  0  0
   37.7220   32.2970   39.8250 H   0  0  0  0  0  0  0  0  0  0  0  0
   38.8540   34.5130   39.3360 H   0  0  0  0  0  0  0  0  0  0  0  0
   41.7860   34.8890   39.3930 S   0  0  0  0  0  0  0  0  0  0  0  0
   41.3130   35.7280   37.9380 C   0  0  0  0  0  0  0  0  0  0  0  0
   40.3670   36.1460   37.0510 C   0  0  0  0  0  0  0  0  0  0  0  0
   39.4080   35.8300   37.3670 H   0  0  0  0  0  0  0  0  0  0  0  0
   40.9610   36.8260   36.0680 N   0  0  0  0  0  0  0  0  0  0  0  0
   40.2860   37.1820   35.3400 H   0  0  0  0  0  0  0  0  0  0  0  0
   42.2790   36.8590   36.2970 C   0  0  0  0  0  0  0  0  0  0  0  0
   42.8020   37.4080   35.5150 H   0  0  0  0  0  0  0  0  0  0  0  0
   42.5170   36.1790   37.4600 N   0  0  0  0  0  0  0  0  0  0  0  0
   43.3980   32.3940   41.5720 C   0  0  0  0  0  0  0  0  0  0  0  0
   43.5910   31.4870   42.2020 H   0  0  0  0  0  0  0  0  0  0  0  0
   43.4880   32.1530   40.4870 H   0  0  0  0  0  0  0  0  0  0  0  0
   44.3480   33.4450   41.9750 C   0  0  0  0  0  0  0  0  0  0  0  0
   43.8930   34.6840   42.3610 C   0  0  0  0  0  0  0  0  0  0  0  0
   44.8250   35.6470   42.7230 C   0  0  0  0  0  0  0  0  0  0  0  0
   46.1510   35.3110   42.6780 N   0  0  0  0  0  0  0  0  0  0  0  0
   46.5520   34.1010   42.3010 C   0  0  0  0  0  0  0  0  0  0  0  0
   45.6380   33.1900   41.9560 N   0  0  0  0  0  0  0  0  0  0  0  0
   42.9200   35.1300   42.4770 H   0  0  0  0  0  0  0  0  0  0  0  0
   44.6540   36.6770   43.0520 H   0  0  0  0  0  0  0  0  0  0  0  0
   47.9850   33.8220   42.3110 C   0  0  0  0  0  0  0  0  0  0  0  0
   48.4550   32.5230   42.1400 C   0  0  0  0  0  0  0  0  0  0  0  0
   49.8080   32.2710   42.1600 C   0  0  0  0  0  0  0  0  0  0  0  0
   50.5970   33.3790   42.3560 C   0  0  0  0  0  0  0  0  0  0  0  0
   50.1790   34.6920   42.5290 C   0  0  0  0  0  0  0  0  0  0  0  0
   48.8300   34.8460   42.4960 N   0  0  0  0  0  0  0  0  0  0  0  0
   47.7720   31.6850   41.9890 H   0  0  0  0  0  0  0  0  0  0  0  0
   50.2590   31.2970   42.0370 H   0  0  0  0  0  0  0  0  0  0  0  0
   51.6790   33.2300   42.3790 H   0  0  0  0  0  0  0  0  0  0  0  0
   50.8750   35.4980   42.6770 H   0  0  0  0  0  0  0  0  0  0  0  0
  1  3  1  0  0  0  0
  1  2  1  0  0  0  0
  4  1  1  0  0  0  0
  5  4  1  0  0  0  0
  5  6  1  0  0  0  0
  5 10  1  0  0  0  0
  6 13  1  0  0  0  0
  7  6  1  0  0  0  0
  7 14  1  0  0  0  0
  8  9  2  0  0  0  0
  8  7  1  0  0  0  0
  9  4  1  0  0  0  0
 11  5  1  0  0  0  0
 12  6  1  0  0  0  0
 15  7  1  0  0  0  0
 16  8  1  0  0  0  0
 17  9  1  0  0  0  0
 18 17  1  0  0  0  0
 19 20  1  0  0  0  0
 19 18  2  0  0  0  0
 21 23  1  0  0  0  0
 21 19  1  0  0  0  0
 22 21  1  0  0  0  0
 23 25  2  0  0  0  0
 24 23  1  0  0  0  0
 25 18  1  0  0  0  0
 26  1  1  0  0  0  0
 26 29  1  0  0  0  0
 26 27  1  0  0  0  0
 28 26  1  0  0  0  0
 29 30  1  0  0  0  0
 30 35  1  0  0  0  0
 30 31  2  0  0  0  0
 31 36  1  0  0  0  0
 32 31  1  0  0  0  0
 33 37  1  0  0  0  0
 33 32  2  0  0  0  0
 34 29  2  0  0  0  0
 34 33  1  0  0  0  0
 37 42  1  0  0  0  0
 38 39  1  0  0  0  0
 38 37  2  0  0  0  0
 39 40  2  0  0  0  0
 40 45  1  0  0  0  0
 40 41  1  0  0  0  0
 41 46  1  0  0  0  0
 42 41  2  0  0  0  0
 43 38  1  0  0  0  0
 44 39  1  0  0  0  0
M  END
>  <minimizedAffinity>
-4.41412497

>  <minimizedRMSD>
0.907099664

$$$$
