
 OpenBabel03242516083D

 24 26  0  0  0  0  0  0  0  0999 V2000
   48.2210   34.7740   41.7150 C   0  0  0  0  0  0  0  0  0  0  0  0
   49.0670   35.9950   41.6770 C   0  0  0  0  0  0  0  0  0  0  0  0
   49.6420   34.7260   42.1530 C   0  0  0  0  0  0  0  0  0  0  0  0
   48.8430   36.8060   42.3750 H   0  0  0  0  0  0  0  0  0  0  0  0
   49.3730   36.3200   40.6740 H   0  0  0  0  0  0  0  0  0  0  0  0
   49.8740   34.5660   43.2410 H   0  0  0  0  0  0  0  0  0  0  0  0
   50.4120   34.2110   41.5170 H   0  0  0  0  0  0  0  0  0  0  0  0
   46.0450   35.5540   42.7100 C   0  0  0  0  0  0  0  0  0  0  0  0
   47.1480   34.6990   42.7430 C   0  0  0  0  0  0  0  0  0  0  0  0
   47.1970   33.7590   43.7960 C   0  0  0  0  0  0  0  0  0  0  0  0
   46.1860   33.7300   44.7120 N   0  0  0  0  0  0  0  0  0  0  0  0
   45.1440   34.5740   44.6380 C   0  0  0  0  0  0  0  0  0  0  0  0
   45.0850   35.4730   43.6410 N   0  0  0  0  0  0  0  0  0  0  0  0
   45.9450   36.2930   41.9360 H   0  0  0  0  0  0  0  0  0  0  0  0
   48.0330   33.0750   43.8630 H   0  0  0  0  0  0  0  0  0  0  0  0
   44.4470   34.4040   45.4450 H   0  0  0  0  0  0  0  0  0  0  0  0
   47.9370   34.0250   40.4610 C   0  0  0  0  0  0  0  0  0  0  0  0
   47.4470   32.7650   40.2740 C   0  0  0  0  0  0  0  0  0  0  0  0
   47.1760   32.0860   41.0600 H   0  0  0  0  0  0  0  0  0  0  0  0
   47.3560   32.5090   38.9570 N   0  0  0  0  0  0  0  0  0  0  0  0
   47.0220   31.6470   38.4530 H   0  0  0  0  0  0  0  0  0  0  0  0
   47.7910   33.6110   38.2860 C   0  0  0  0  0  0  0  0  0  0  0  0
   47.8890   33.8440   37.2450 H   0  0  0  0  0  0  0  0  0  0  0  0
   48.1340   34.5060   39.2020 N   0  0  0  0  0  0  0  0  0  0  0  0
  1  3  1  0  0  0  0
  1  9  1  0  0  0  0
  2  1  1  0  0  0  0
  2  3  1  0  0  0  0
  2  4  1  0  0  0  0
  3  6  1  0  0  0  0
  5  2  1  0  0  0  0
  7  3  1  0  0  0  0
  8  9  2  0  0  0  0
  8 13  1  0  0  0  0
  9 10  1  0  0  0  0
 10 15  1  0  0  0  0
 10 11  2  0  0  0  0
 12 11  1  0  0  0  0
 12 16  1  0  0  0  0
 13 12  2  0  0  0  0
 14  8  1  0  0  0  0
 17  1  1  0  0  0  0
 18 17  2  0  0  0  0
 18 19  1  0  0  0  0
 20 18  1  0  0  0  0
 21 20  1  0  0  0  0
 22 20  1  0  0  0  0
 22 24  2  0  0  0  0
 23 22  1  0  0  0  0
 24 17  1  0  0  0  0
M  END
>  <minimizedAffinity>
-4.49000931

>  <minimizedRMSD>
1.2092309

$$$$
