
 OpenBabel03242523283D

 20 21  0  0  0  0  0  0  0  0999 V2000
   47.0230   31.8750   45.5330 C   0  0  0  0  0  0  0  0  0  0  0  0
   48.1230   31.7730   45.5520 H   0  0  0  0  0  0  0  0  0  0  0  0
   46.5830   30.9920   45.0130 H   0  0  0  0  0  0  0  0  0  0  0  0
   45.0930   34.7840   44.2660 C   0  0  0  0  0  0  0  0  0  0  0  0
   45.8930   35.2240   43.2100 C   0  0  0  0  0  0  0  0  0  0  0  0
   47.0790   34.5160   42.9510 C   0  0  0  0  0  0  0  0  0  0  0  0
   47.3900   33.4510   43.7280 N   0  0  0  0  0  0  0  0  0  0  0  0
   46.5840   33.0560   44.7450 C   0  0  0  0  0  0  0  0  0  0  0  0
   45.4530   33.7230   45.0010 N   0  0  0  0  0  0  0  0  0  0  0  0
   44.1700   35.3490   44.4550 H   0  0  0  0  0  0  0  0  0  0  0  0
   45.6650   36.0670   42.5800 H   0  0  0  0  0  0  0  0  0  0  0  0
   47.7780   34.7600   42.1630 H   0  0  0  0  0  0  0  0  0  0  0  0
   46.4810   31.8960   46.9150 C   0  0  0  0  0  0  0  0  0  0  0  0
   47.1330   32.5770   47.9430 C   0  0  0  0  0  0  0  0  0  0  0  0
   48.0660   33.1580   47.9250 H   0  0  0  0  0  0  0  0  0  0  0  0
   46.4420   32.4450   49.1010 N   0  0  0  0  0  0  0  0  0  0  0  0
   46.6600   32.8300   50.0470 H   0  0  0  0  0  0  0  0  0  0  0  0
   45.3750   31.6880   48.7790 C   0  0  0  0  0  0  0  0  0  0  0  0
   44.5590   31.3470   49.4350 H   0  0  0  0  0  0  0  0  0  0  0  0
   45.3680   31.3420   47.4730 N   0  0  0  0  0  0  0  0  0  0  0  0
  1  2  1  0  0  0  0
  1 13  1  0  0  0  0
  3  1  1  0  0  0  0
  4 10  1  0  0  0  0
  4  9  1  0  0  0  0
  5  4  2  0  0  0  0
  6  5  1  0  0  0  0
  6  7  2  0  0  0  0
  7  8  1  0  0  0  0
  8  9  2  0  0  0  0
  8  1  1  0  0  0  0
 11  5  1  0  0  0  0
 12  6  1  0  0  0  0
 13 20  1  0  0  0  0
 13 14  2  0  0  0  0
 14 16  1  0  0  0  0
 15 14  1  0  0  0  0
 16 17  1  0  0  0  0
 18 16  1  0  0  0  0
 18 19  1  0  0  0  0
 20 18  2  0  0  0  0
M  END
>  <minimizedAffinity>
-3.58852363

>  <minimizedRMSD>
2.21375847

$$$$
