
 OpenBabel03242516513D

 42 45  0  0  1  0  0  0  0  0999 V2000
   36.6890   30.4120   39.2810 C   0  0  1  0  0  0  0  0  0  0  0  0
   36.8500   29.4530   38.1700 C   0  0  0  0  0  0  0  0  0  0  0  0
   35.4510   29.2550   37.5790 C   0  0  0  0  0  0  0  0  0  0  0  0
   34.6620   28.4770   38.6170 C   0  0  0  0  0  0  0  0  0  0  0  0
   34.6300   29.1360   39.9650 C   0  0  0  0  0  0  0  0  0  0  0  0
   35.8370   29.8550   40.4040 C   0  0  1  0  0  0  0  0  0  0  0  0
   36.0770   31.2880   38.9070 H   0  0  0  0  0  0  0  0  0  0  0  0
   37.2570   28.4780   38.4450 H   0  0  0  0  0  0  0  0  0  0  0  0
   37.5180   29.9050   37.3980 H   0  0  0  0  0  0  0  0  0  0  0  0
   34.9950   30.2030   37.3080 H   0  0  0  0  0  0  0  0  0  0  0  0
   35.5910   28.5510   36.7200 H   0  0  0  0  0  0  0  0  0  0  0  0
   33.6480   28.2930   38.2660 H   0  0  0  0  0  0  0  0  0  0  0  0
   35.2160   27.5040   38.7550 H   0  0  0  0  0  0  0  0  0  0  0  0
   33.7480   29.8090   39.9570 H   0  0  0  0  0  0  0  0  0  0  0  0
   34.4030   28.3390   40.7160 H   0  0  0  0  0  0  0  0  0  0  0  0
   35.5130   30.7660   40.9940 H   0  0  0  0  0  0  0  0  0  0  0  0
   39.0830   32.7970   40.9610 C   0  0  0  0  0  0  0  0  0  0  0  0
   37.9310   32.2110   40.4390 C   0  0  0  0  0  0  0  0  0  0  0  0
   37.9210   30.9750   39.8170 C   0  0  0  0  0  0  0  0  0  0  0  0
   39.1080   30.3510   39.7370 N   0  0  0  0  0  0  0  0  0  0  0  0
   40.2380   30.9090   40.2390 C   0  0  0  0  0  0  0  0  0  0  0  0
   40.2380   32.0950   40.8360 N   0  0  0  0  0  0  0  0  0  0  0  0
   39.0810   33.7600   41.4450 H   0  0  0  0  0  0  0  0  0  0  0  0
   37.0380   32.8110   40.5650 H   0  0  0  0  0  0  0  0  0  0  0  0
   41.1030   30.2760   40.0920 H   0  0  0  0  0  0  0  0  0  0  0  0
   36.6480   29.0910   41.3660 C   0  0  0  0  0  0  0  0  0  0  0  0
   37.3040   29.5980   42.4940 C   0  0  0  0  0  0  0  0  0  0  0  0
   37.9910   28.6600   43.2670 C   0  0  0  0  0  0  0  0  0  0  0  0
   37.9710   27.3300   42.8650 C   0  0  0  0  0  0  0  0  0  0  0  0
   37.3240   26.8650   41.7620 C   0  0  0  0  0  0  0  0  0  0  0  0
   36.6550   27.7780   41.0090 N   0  0  0  0  0  0  0  0  0  0  0  0
   37.2160   30.6300   42.6500 H   0  0  0  0  0  0  0  0  0  0  0  0
   38.4960   29.0380   44.1320 H   0  0  0  0  0  0  0  0  0  0  0  0
   38.5370   26.6670   43.5330 H   0  0  0  0  0  0  0  0  0  0  0  0
   37.3680   25.4390   41.4280 C   0  0  0  0  0  0  0  0  0  0  0  0
   38.0220   24.4220   42.0920 C   0  0  0  0  0  0  0  0  0  0  0  0
   38.6180   24.5140   42.9850 H   0  0  0  0  0  0  0  0  0  0  0  0
   37.7470   23.2940   41.3780 N   0  0  0  0  0  0  0  0  0  0  0  0
   38.1520   22.3680   41.7070 H   0  0  0  0  0  0  0  0  0  0  0  0
   36.9530   23.5900   40.3070 C   0  0  0  0  0  0  0  0  0  0  0  0
   36.6770   22.7570   39.6750 H   0  0  0  0  0  0  0  0  0  0  0  0
   36.7300   24.9360   40.3590 N   0  0  0  0  0  0  0  0  0  0  0  0
  1  7  1  6  0  0  0
  1 19  1  0  0  0  0
  1  6  1  0  0  0  0
  2  8  1  0  0  0  0
  2  1  1  0  0  0  0
  3  2  1  0  0  0  0
  3  4  1  0  0  0  0
  4 13  1  0  0  0  0
  4  5  1  0  0  0  0
  5  6  1  0  0  0  0
  5 15  1  0  0  0  0
  6 16  1  1  0  0  0
  6 26  1  0  0  0  0
  9  2  1  0  0  0  0
 10  3  1  0  0  0  0
 11  3  1  0  0  0  0
 12  4  1  0  0  0  0
 14  5  1  0  0  0  0
 17 23  1  0  0  0  0
 18 24  1  0  0  0  0
 18 17  2  0  0  0  0
 19 18  1  0  0  0  0
 20 19  2  0  0  0  0
 20 21  1  0  0  0  0
 21 22  2  0  0  0  0
 22 17  1  0  0  0  0
 25 21  1  0  0  0  0
 26 27  1  0  0  0  0
 27 32  1  0  0  0  0
 27 28  2  0  0  0  0
 28 33  1  0  0  0  0
 29 28  1  0  0  0  0
 29 34  1  0  0  0  0
 30 29  2  0  0  0  0
 31 26  2  0  0  0  0
 31 30  1  0  0  0  0
 35 30  1  0  0  0  0
 35 36  2  0  0  0  0
 36 37  1  0  0  0  0
 38 39  1  0  0  0  0
 38 36  1  0  0  0  0
 40 42  2  0  0  0  0
 40 38  1  0  0  0  0
 41 40  1  0  0  0  0
 42 35  1  0  0  0  0
M  END
>  <minimizedAffinity>
-6.10418224

$$$$

 OpenBabel03242516513D

 42 45  0  0  1  0  0  0  0  0999 V2000
   38.3730   28.9480   41.6350 C   0  0  1  0  0  0  0  0  0  0  0  0
   37.7170   29.0470   42.9550 C   0  0  0  0  0  0  0  0  0  0  0  0
   38.0290   27.7340   43.6790 C   0  0  0  0  0  0  0  0  0  0  0  0
   37.2350   26.6580   42.9590 C   0  0  0  0  0  0  0  0  0  0  0  0
   37.5180   26.5860   41.4860 C   0  0  0  0  0  0  0  0  0  0  0  0
   37.7810   27.8490   40.7780 C   0  0  1  0  0  0  0  0  0  0  0  0
   39.4390   28.6000   41.7950 H   0  0  0  0  0  0  0  0  0  0  0  0
   36.6350   29.1890   42.9330 H   0  0  0  0  0  0  0  0  0  0  0  0
   38.1700   29.8980   43.5190 H   0  0  0  0  0  0  0  0  0  0  0  0
   39.0970   27.5380   43.7080 H   0  0  0  0  0  0  0  0  0  0  0  0
   37.5540   27.8330   44.6870 H   0  0  0  0  0  0  0  0  0  0  0  0
   37.4030   25.6870   43.4210 H   0  0  0  0  0  0  0  0  0  0  0  0
   36.1520   26.9610   43.0580 H   0  0  0  0  0  0  0  0  0  0  0  0
   38.3690   25.8820   41.3720 H   0  0  0  0  0  0  0  0  0  0  0  0
   36.6390   26.0890   41.0060 H   0  0  0  0  0  0  0  0  0  0  0  0
   38.5630   27.6540   39.9830 H   0  0  0  0  0  0  0  0  0  0  0  0
   39.5640   31.5380   39.1620 C   0  0  0  0  0  0  0  0  0  0  0  0
   39.4340   30.3690   39.9100 C   0  0  0  0  0  0  0  0  0  0  0  0
   38.4590   30.1880   40.8750 C   0  0  0  0  0  0  0  0  0  0  0  0
   37.6210   31.2220   41.0610 N   0  0  0  0  0  0  0  0  0  0  0  0
   37.7350   32.3650   40.3410 C   0  0  0  0  0  0  0  0  0  0  0  0
   38.6730   32.5310   39.4170 N   0  0  0  0  0  0  0  0  0  0  0  0
   40.3260   31.6690   38.4110 H   0  0  0  0  0  0  0  0  0  0  0  0
   40.1670   29.6100   39.6680 H   0  0  0  0  0  0  0  0  0  0  0  0
   36.9840   33.0940   40.6160 H   0  0  0  0  0  0  0  0  0  0  0  0
   36.6210   28.3330   40.0100 C   0  0  0  0  0  0  0  0  0  0  0  0
   35.3770   28.7140   40.5270 C   0  0  0  0  0  0  0  0  0  0  0  0
   34.4450   29.1650   39.5890 C   0  0  0  0  0  0  0  0  0  0  0  0
   34.8170   29.1980   38.2510 C   0  0  0  0  0  0  0  0  0  0  0  0
   36.0350   28.8200   37.7760 C   0  0  0  0  0  0  0  0  0  0  0  0
   36.9420   28.3820   38.6890 N   0  0  0  0  0  0  0  0  0  0  0  0
   35.2650   28.6250   41.5640 H   0  0  0  0  0  0  0  0  0  0  0  0
   33.4910   29.4580   39.9750 H   0  0  0  0  0  0  0  0  0  0  0  0
   34.0200   29.5660   37.5890 H   0  0  0  0  0  0  0  0  0  0  0  0
   36.3230   28.8940   36.3420 C   0  0  0  0  0  0  0  0  0  0  0  0
   37.4370   28.4410   35.6660 C   0  0  0  0  0  0  0  0  0  0  0  0
   38.2940   27.9460   36.0950 H   0  0  0  0  0  0  0  0  0  0  0  0
   37.2150   28.7520   34.3580 N   0  0  0  0  0  0  0  0  0  0  0  0
   37.9510   28.4930   33.6380 H   0  0  0  0  0  0  0  0  0  0  0  0
   36.0080   29.3770   34.2170 C   0  0  0  0  0  0  0  0  0  0  0  0
   35.7370   29.6660   33.2110 H   0  0  0  0  0  0  0  0  0  0  0  0
   35.4700   29.4550   35.4700 N   0  0  0  0  0  0  0  0  0  0  0  0
  1  7  1  1  0  0  0
  1  2  1  0  0  0  0
  2  9  1  0  0  0  0
  2  3  1  0  0  0  0
  3 10  1  0  0  0  0
  3 11  1  0  0  0  0
  4 13  1  0  0  0  0
  4 12  1  0  0  0  0
  4  3  1  0  0  0  0
  5  4  1  0  0  0  0
  6 16  1  6  0  0  0
  6  5  1  0  0  0  0
  6  1  1  0  0  0  0
  8  2  1  0  0  0  0
 14  5  1  0  0  0  0
 15  5  1  0  0  0  0
 17 22  2  0  0  0  0
 17 18  1  0  0  0  0
 18 19  2  0  0  0  0
 19 20  1  0  0  0  0
 19  1  1  0  0  0  0
 21 25  1  0  0  0  0
 21 20  2  0  0  0  0
 22 21  1  0  0  0  0
 23 17  1  0  0  0  0
 24 18  1  0  0  0  0
 26 27  1  0  0  0  0
 26  6  1  0  0  0  0
 27 32  1  0  0  0  0
 28 33  1  0  0  0  0
 28 27  2  0  0  0  0
 29 28  1  0  0  0  0
 30 29  2  0  0  0  0
 30 31  1  0  0  0  0
 31 26  2  0  0  0  0
 34 29  1  0  0  0  0
 35 30  1  0  0  0  0
 36 37  1  0  0  0  0
 36 35  2  0  0  0  0
 38 36  1  0  0  0  0
 39 38  1  0  0  0  0
 40 38  1  0  0  0  0
 40 42  2  0  0  0  0
 41 40  1  0  0  0  0
 42 35  1  0  0  0  0
M  END
>  <minimizedAffinity>
-5.91766024

$$$$

 OpenBabel03242516513D

 42 45  0  0  1  0  0  0  0  0999 V2000
   38.9020   24.8550   40.9080 C   0  0  1  0  0  0  0  0  0  0  0  0
   38.2600   23.7140   41.5920 C   0  0  0  0  0  0  0  0  0  0  0  0
   37.3470   23.0600   40.5510 C   0  0  0  0  0  0  0  0  0  0  0  0
   36.2040   24.0350   40.3220 C   0  0  0  0  0  0  0  0  0  0  0  0
   36.6580   25.4060   39.9120 C   0  0  0  0  0  0  0  0  0  0  0  0
   37.9030   25.9200   40.5030 C   0  0  1  0  0  0  0  0  0  0  0  0
   39.3050   24.4920   39.9140 H   0  0  0  0  0  0  0  0  0  0  0  0
   37.6670   23.9660   42.4720 H   0  0  0  0  0  0  0  0  0  0  0  0
   39.0510   22.9880   41.8990 H   0  0  0  0  0  0  0  0  0  0  0  0
   37.8900   22.8090   39.6440 H   0  0  0  0  0  0  0  0  0  0  0  0
   36.8900   22.1810   41.0700 H   0  0  0  0  0  0  0  0  0  0  0  0
   35.5040   23.6370   39.5900 H   0  0  0  0  0  0  0  0  0  0  0  0
   35.7020   24.1560   41.3260 H   0  0  0  0  0  0  0  0  0  0  0  0
   36.7210   25.3890   38.8040 H   0  0  0  0  0  0  0  0  0  0  0  0
   35.8300   26.1150   40.1630 H   0  0  0  0  0  0  0  0  0  0  0  0
   38.4430   26.5320   39.7180 H   0  0  0  0  0  0  0  0  0  0  0  0
   41.2730   25.8240   43.6800 C   0  0  0  0  0  0  0  0  0  0  0  0
   40.2180   25.2610   42.9640 C   0  0  0  0  0  0  0  0  0  0  0  0
   40.0280   25.4610   41.6070 C   0  0  0  0  0  0  0  0  0  0  0  0
   40.9340   26.2440   40.9980 N   0  0  0  0  0  0  0  0  0  0  0  0
   41.9650   26.7990   41.6820 C   0  0  0  0  0  0  0  0  0  0  0  0
   42.1410   26.6020   42.9830 N   0  0  0  0  0  0  0  0  0  0  0  0
   41.4140   25.6620   44.7350 H   0  0  0  0  0  0  0  0  0  0  0  0
   39.5560   24.6500   43.5640 H   0  0  0  0  0  0  0  0  0  0  0  0
   42.5990   27.3990   41.0430 H   0  0  0  0  0  0  0  0  0  0  0  0
   37.6730   26.8830   41.5930 C   0  0  0  0  0  0  0  0  0  0  0  0
   36.9860   26.6410   42.7890 C   0  0  0  0  0  0  0  0  0  0  0  0
   36.9260   27.7150   43.6800 C   0  0  0  0  0  0  0  0  0  0  0  0
   37.5360   28.9100   43.3160 C   0  0  0  0  0  0  0  0  0  0  0  0
   38.1960   29.1170   42.1450 C   0  0  0  0  0  0  0  0  0  0  0  0
   38.2560   28.0710   41.2780 N   0  0  0  0  0  0  0  0  0  0  0  0
   36.5860   25.6810   42.9020 H   0  0  0  0  0  0  0  0  0  0  0  0
   36.4030   27.5400   44.5970 H   0  0  0  0  0  0  0  0  0  0  0  0
   37.4360   29.6960   44.0780 H   0  0  0  0  0  0  0  0  0  0  0  0
   38.8040   30.4190   41.8610 C   0  0  0  0  0  0  0  0  0  0  0  0
   39.9390   30.9760   42.4150 C   0  0  0  0  0  0  0  0  0  0  0  0
   40.5760   30.5310   43.1620 H   0  0  0  0  0  0  0  0  0  0  0  0
   40.0710   32.1920   41.8140 N   0  0  0  0  0  0  0  0  0  0  0  0
   40.8890   32.8120   42.0880 H   0  0  0  0  0  0  0  0  0  0  0  0
   39.0590   32.3930   40.9190 C   0  0  0  0  0  0  0  0  0  0  0  0
   39.0750   33.3340   40.3870 H   0  0  0  0  0  0  0  0  0  0  0  0
   38.2810   31.2720   40.9660 N   0  0  0  0  0  0  0  0  0  0  0  0
  1  7  1  6  0  0  0
  1  2  1  0  0  0  0
  1 19  1  0  0  0  0
  2  9  1  0  0  0  0
  2  8  1  0  0  0  0
  3 11  1  0  0  0  0
  3  2  1  0  0  0  0
  4  3  1  0  0  0  0
  4 13  1  0  0  0  0
  5 15  1  0  0  0  0
  5  4  1  0  0  0  0
  5  6  1  0  0  0  0
  6 16  1  6  0  0  0
  6  1  1  0  0  0  0
  6 26  1  0  0  0  0
 10  3  1  0  0  0  0
 12  4  1  0  0  0  0
 14  5  1  0  0  0  0
 17 23  1  0  0  0  0
 18 24  1  0  0  0  0
 18 17  2  0  0  0  0
 19 18  1  0  0  0  0
 20 19  2  0  0  0  0
 20 21  1  0  0  0  0
 21 22  2  0  0  0  0
 22 17  1  0  0  0  0
 25 21  1  0  0  0  0
 26 27  1  0  0  0  0
 27 32  1  0  0  0  0
 27 28  2  0  0  0  0
 28 33  1  0  0  0  0
 29 28  1  0  0  0  0
 29 34  1  0  0  0  0
 30 29  2  0  0  0  0
 31 26  2  0  0  0  0
 31 30  1  0  0  0  0
 35 30  1  0  0  0  0
 35 36  2  0  0  0  0
 36 37  1  0  0  0  0
 38 39  1  0  0  0  0
 38 36  1  0  0  0  0
 40 42  2  0  0  0  0
 40 38  1  0  0  0  0
 41 40  1  0  0  0  0
 42 35  1  0  0  0  0
M  END
>  <minimizedAffinity>
-5.83666325

$$$$

 OpenBabel03242516513D

 42 45  0  0  1  0  0  0  0  0999 V2000
   37.9570   26.6550   42.2690 C   0  0  1  0  0  0  0  0  0  0  0  0
   38.5390   25.3640   41.8500 C   0  0  0  0  0  0  0  0  0  0  0  0
   39.1410   24.7450   43.1140 C   0  0  0  0  0  0  0  0  0  0  0  0
   40.3520   25.5930   43.4620 C   0  0  0  0  0  0  0  0  0  0  0  0
   40.0370   27.0510   43.6280 C   0  0  0  0  0  0  0  0  0  0  0  0
   39.0090   27.6330   42.7510 C   0  0  1  0  0  0  0  0  0  0  0  0
   37.3300   26.4780   43.1950 H   0  0  0  0  0  0  0  0  0  0  0  0
   39.3140   25.4230   41.0840 H   0  0  0  0  0  0  0  0  0  0  0  0
   37.7200   24.7070   41.4690 H   0  0  0  0  0  0  0  0  0  0  0  0
   38.4100   24.6840   43.9160 H   0  0  0  0  0  0  0  0  0  0  0  0
   39.5510   23.7550   42.7910 H   0  0  0  0  0  0  0  0  0  0  0  0
   40.8410   25.2110   44.3570 H   0  0  0  0  0  0  0  0  0  0  0  0
   41.0420   25.5180   42.5720 H   0  0  0  0  0  0  0  0  0  0  0  0
   39.7710   27.1870   44.6970 H   0  0  0  0  0  0  0  0  0  0  0  0
   40.9910   27.6140   43.4740 H   0  0  0  0  0  0  0  0  0  0  0  0
   38.4310   28.4040   43.3440 H   0  0  0  0  0  0  0  0  0  0  0  0
   36.2830   27.5210   38.9990 C   0  0  0  0  0  0  0  0  0  0  0  0
   37.0970   26.9330   39.9650 C   0  0  0  0  0  0  0  0  0  0  0  0
   37.0780   27.2990   41.3010 C   0  0  0  0  0  0  0  0  0  0  0  0
   36.2160   28.2750   41.6270 N   0  0  0  0  0  0  0  0  0  0  0  0
   35.4190   28.8580   40.6980 C   0  0  0  0  0  0  0  0  0  0  0  0
   35.4420   28.5010   39.4190 N   0  0  0  0  0  0  0  0  0  0  0  0
   36.3040   27.2290   37.9620 H   0  0  0  0  0  0  0  0  0  0  0  0
   37.7470   26.1580   39.5790 H   0  0  0  0  0  0  0  0  0  0  0  0
   34.7870   29.6230   41.1280 H   0  0  0  0  0  0  0  0  0  0  0  0
   39.5740   28.4080   41.6340 C   0  0  0  0  0  0  0  0  0  0  0  0
   40.5690   27.9870   40.7430 C   0  0  0  0  0  0  0  0  0  0  0  0
   40.9160   28.9030   39.7470 C   0  0  0  0  0  0  0  0  0  0  0  0
   40.2630   30.1290   39.7190 C   0  0  0  0  0  0  0  0  0  0  0  0
   39.2980   30.5120   40.5990 C   0  0  0  0  0  0  0  0  0  0  0  0
   38.9600   29.6210   41.5690 N   0  0  0  0  0  0  0  0  0  0  0  0
   40.9560   27.0290   40.9090 H   0  0  0  0  0  0  0  0  0  0  0  0
   41.6760   28.5900   39.0620 H   0  0  0  0  0  0  0  0  0  0  0  0
   40.6010   30.7820   38.9030 H   0  0  0  0  0  0  0  0  0  0  0  0
   38.6730   31.8310   40.4800 C   0  0  0  0  0  0  0  0  0  0  0  0
   37.3390   32.1360   40.3070 C   0  0  0  0  0  0  0  0  0  0  0  0
   36.5220   31.4360   40.2310 H   0  0  0  0  0  0  0  0  0  0  0  0
   37.2850   33.4970   40.2560 N   0  0  0  0  0  0  0  0  0  0  0  0
   36.3420   33.9680   40.1250 H   0  0  0  0  0  0  0  0  0  0  0  0
   38.5370   34.0270   40.3920 C   0  0  0  0  0  0  0  0  0  0  0  0
   38.6020   35.1060   40.3640 H   0  0  0  0  0  0  0  0  0  0  0  0
   39.3870   32.9670   40.5300 N   0  0  0  0  0  0  0  0  0  0  0  0
  1  6  1  0  0  0  0
  1  7  1  1  0  0  0
  2  1  1  0  0  0  0
  2  3  1  0  0  0  0
  3  4  1  0  0  0  0
  3 10  1  0  0  0  0
  4  5  1  0  0  0  0
  4 12  1  0  0  0  0
  5 14  1  0  0  0  0
  6 16  1  1  0  0  0
  6  5  1  0  0  0  0
  8  2  1  0  0  0  0
  9  2  1  0  0  0  0
 11  3  1  0  0  0  0
 13  4  1  0  0  0  0
 15  5  1  0  0  0  0
 17 22  2  0  0  0  0
 17 18  1  0  0  0  0
 18 19  2  0  0  0  0
 19 20  1  0  0  0  0
 19  1  1  0  0  0  0
 21 25  1  0  0  0  0
 21 20  2  0  0  0  0
 22 21  1  0  0  0  0
 23 17  1  0  0  0  0
 24 18  1  0  0  0  0
 26  6  1  0  0  0  0
 27 32  1  0  0  0  0
 27 26  2  0  0  0  0
 28 27  1  0  0  0  0
 29 28  2  0  0  0  0
 29 30  1  0  0  0  0
 30 31  2  0  0  0  0
 31 26  1  0  0  0  0
 33 28  1  0  0  0  0
 34 29  1  0  0  0  0
 35 42  1  0  0  0  0
 35 30  1  0  0  0  0
 36 35  2  0  0  0  0
 37 36  1  0  0  0  0
 38 36  1  0  0  0  0
 38 40  1  0  0  0  0
 39 38  1  0  0  0  0
 40 42  2  0  0  0  0
 41 40  1  0  0  0  0
M  END
>  <minimizedAffinity>
-5.82391787

$$$$

 OpenBabel03242516513D

 42 45  0  0  1  0  0  0  0  0999 V2000
   38.1470   26.2520   41.2740 C   0  0  1  0  0  0  0  0  0  0  0  0
   37.0380   25.6690   42.0560 C   0  0  0  0  0  0  0  0  0  0  0  0
   36.8620   24.2400   41.5340 C   0  0  0  0  0  0  0  0  0  0  0  0
   36.2890   24.3710   40.1330 C   0  0  0  0  0  0  0  0  0  0  0  0
   37.1240   25.2200   39.2200 C   0  0  0  0  0  0  0  0  0  0  0  0
   37.8080   26.3840   39.8030 C   0  0  1  0  0  0  0  0  0  0  0  0
   39.0060   25.5140   41.2720 H   0  0  0  0  0  0  0  0  0  0  0  0
   36.0830   26.1910   41.9800 H   0  0  0  0  0  0  0  0  0  0  0  0
   37.3350   25.6360   43.1320 H   0  0  0  0  0  0  0  0  0  0  0  0
   37.7950   23.6840   41.5700 H   0  0  0  0  0  0  0  0  0  0  0  0
   36.0410   23.7990   42.1530 H   0  0  0  0  0  0  0  0  0  0  0  0
   36.1310   23.3880   39.6930 H   0  0  0  0  0  0  0  0  0  0  0  0
   35.3060   24.9120   40.2570 H   0  0  0  0  0  0  0  0  0  0  0  0
   37.8500   24.5310   38.7400 H   0  0  0  0  0  0  0  0  0  0  0  0
   36.4530   25.5800   38.4000 H   0  0  0  0  0  0  0  0  0  0  0  0
   38.8100   26.5010   39.2900 H   0  0  0  0  0  0  0  0  0  0  0  0
   40.5660   29.0590   41.9900 C   0  0  0  0  0  0  0  0  0  0  0  0
   39.9980   27.8750   41.5220 C   0  0  0  0  0  0  0  0  0  0  0  0
   38.6890   27.5060   41.7800 C   0  0  0  0  0  0  0  0  0  0  0  0
   37.9740   28.3670   42.5240 N   0  0  0  0  0  0  0  0  0  0  0  0
   38.5140   29.5220   42.9860 C   0  0  0  0  0  0  0  0  0  0  0  0
   39.7700   29.8690   42.7340 N   0  0  0  0  0  0  0  0  0  0  0  0
   41.5860   29.3380   41.7830 H   0  0  0  0  0  0  0  0  0  0  0  0
   40.6740   27.2660   40.9350 H   0  0  0  0  0  0  0  0  0  0  0  0
   37.8040   30.0970   43.5660 H   0  0  0  0  0  0  0  0  0  0  0  0
   37.1250   27.6580   39.5220 C   0  0  0  0  0  0  0  0  0  0  0  0
   35.7930   27.9740   39.8150 C   0  0  0  0  0  0  0  0  0  0  0  0
   35.3870   29.2650   39.4710 C   0  0  0  0  0  0  0  0  0  0  0  0
   36.3150   30.1140   38.8790 C   0  0  0  0  0  0  0  0  0  0  0  0
   37.6050   29.7790   38.6050 C   0  0  0  0  0  0  0  0  0  0  0  0
   38.0000   28.5220   38.9400 N   0  0  0  0  0  0  0  0  0  0  0  0
   35.2300   27.2140   40.2640 H   0  0  0  0  0  0  0  0  0  0  0  0
   34.3710   29.5160   39.6920 H   0  0  0  0  0  0  0  0  0  0  0  0
   35.9060   31.1060   38.6440 H   0  0  0  0  0  0  0  0  0  0  0  0
   38.5020   30.7520   37.9760 C   0  0  0  0  0  0  0  0  0  0  0  0
   38.1900   31.7480   37.0740 C   0  0  0  0  0  0  0  0  0  0  0  0
   37.2130   31.9770   36.6790 H   0  0  0  0  0  0  0  0  0  0  0  0
   39.3730   32.3670   36.8000 N   0  0  0  0  0  0  0  0  0  0  0  0
   39.3790   33.1810   36.1180 H   0  0  0  0  0  0  0  0  0  0  0  0
   40.3890   31.7830   37.5020 C   0  0  0  0  0  0  0  0  0  0  0  0
   41.3730   32.2040   37.3530 H   0  0  0  0  0  0  0  0  0  0  0  0
   39.8200   30.7760   38.2290 N   0  0  0  0  0  0  0  0  0  0  0  0
  1  7  1  1  0  0  0
  1 19  1  0  0  0  0
  1  2  1  0  0  0  0
  2  9  1  0  0  0  0
  3 10  1  0  0  0  0
  3  2  1  0  0  0  0
  3 11  1  0  0  0  0
  4 13  1  0  0  0  0
  4  3  1  0  0  0  0
  5  6  1  0  0  0  0
  5  4  1  0  0  0  0
  6 16  1  6  0  0  0
  6  1  1  0  0  0  0
  8  2  1  0  0  0  0
 12  4  1  0  0  0  0
 14  5  1  0  0  0  0
 15  5  1  0  0  0  0
 17 22  1  0  0  0  0
 18 19  1  0  0  0  0
 18 17  2  0  0  0  0
 19 20  2  0  0  0  0
 20 21  1  0  0  0  0
 21 25  1  0  0  0  0
 22 21  2  0  0  0  0
 23 17  1  0  0  0  0
 24 18  1  0  0  0  0
 26  6  1  0  0  0  0
 26 27  1  0  0  0  0
 27 32  1  0  0  0  0
 28 33  1  0  0  0  0
 28 27  2  0  0  0  0
 29 28  1  0  0  0  0
 30 29  2  0  0  0  0
 30 31  1  0  0  0  0
 31 26  2  0  0  0  0
 34 29  1  0  0  0  0
 35 42  1  0  0  0  0
 35 30  1  0  0  0  0
 36 35  2  0  0  0  0
 37 36  1  0  0  0  0
 38 36  1  0  0  0  0
 38 40  1  0  0  0  0
 39 38  1  0  0  0  0
 40 42  2  0  0  0  0
 41 40  1  0  0  0  0
M  END
>  <minimizedAffinity>
-5.64972591

$$$$

 OpenBabel03242516513D

 42 45  0  0  1  0  0  0  0  0999 V2000
   37.0320   27.6120   40.5040 C   0  0  1  0  0  0  0  0  0  0  0  0
   37.5530   26.3070   40.0510 C   0  0  0  0  0  0  0  0  0  0  0  0
   36.7010   25.2470   40.7560 C   0  0  0  0  0  0  0  0  0  0  0  0
   37.0890   25.3030   42.2230 C   0  0  0  0  0  0  0  0  0  0  0  0
   36.9370   26.6660   42.8330 C   0  0  0  0  0  0  0  0  0  0  0  0
   37.2390   27.8320   41.9880 C   0  0  1  0  0  0  0  0  0  0  0  0
   35.9050   27.5980   40.4030 H   0  0  0  0  0  0  0  0  0  0  0  0
   38.6050   26.1170   40.2720 H   0  0  0  0  0  0  0  0  0  0  0  0
   37.4080   26.2250   38.9470 H   0  0  0  0  0  0  0  0  0  0  0  0
   35.6410   25.4070   40.5810 H   0  0  0  0  0  0  0  0  0  0  0  0
   37.0840   24.2640   40.3820 H   0  0  0  0  0  0  0  0  0  0  0  0
   36.5240   24.5700   42.7950 H   0  0  0  0  0  0  0  0  0  0  0  0
   38.1930   25.0650   42.2550 H   0  0  0  0  0  0  0  0  0  0  0  0
   35.8970   26.7130   43.2190 H   0  0  0  0  0  0  0  0  0  0  0  0
   37.6010   26.7000   43.7330 H   0  0  0  0  0  0  0  0  0  0  0  0
   36.5180   28.6620   42.2570 H   0  0  0  0  0  0  0  0  0  0  0  0
   37.1150   31.0530   38.9550 C   0  0  0  0  0  0  0  0  0  0  0  0
   36.7230   29.9190   39.6650 C   0  0  0  0  0  0  0  0  0  0  0  0
   37.4940   28.7730   39.7550 C   0  0  0  0  0  0  0  0  0  0  0  0
   38.6700   28.8080   39.1060 N   0  0  0  0  0  0  0  0  0  0  0  0
   39.0650   29.9030   38.4110 C   0  0  0  0  0  0  0  0  0  0  0  0
   38.3200   30.9990   38.3300 N   0  0  0  0  0  0  0  0  0  0  0  0
   36.5080   31.9410   38.8910 H   0  0  0  0  0  0  0  0  0  0  0  0
   35.7570   30.0140   40.1440 H   0  0  0  0  0  0  0  0  0  0  0  0
   40.0340   29.7640   37.9510 H   0  0  0  0  0  0  0  0  0  0  0  0
   38.5600   28.4190   42.2660 C   0  0  0  0  0  0  0  0  0  0  0  0
   38.8750   29.7830   42.3110 C   0  0  0  0  0  0  0  0  0  0  0  0
   40.2020   30.0870   42.6220 C   0  0  0  0  0  0  0  0  0  0  0  0
   41.0840   29.0390   42.8560 C   0  0  0  0  0  0  0  0  0  0  0  0
   40.7500   27.7210   42.8050 C   0  0  0  0  0  0  0  0  0  0  0  0
   39.4580   27.4240   42.5020 N   0  0  0  0  0  0  0  0  0  0  0  0
   38.0880   30.4420   42.1080 H   0  0  0  0  0  0  0  0  0  0  0  0
   40.4530   31.1270   42.6590 H   0  0  0  0  0  0  0  0  0  0  0  0
   42.1030   29.3740   43.0930 H   0  0  0  0  0  0  0  0  0  0  0  0
   41.7590   26.6930   43.0680 C   0  0  0  0  0  0  0  0  0  0  0  0
   41.6320   25.3220   42.9780 C   0  0  0  0  0  0  0  0  0  0  0  0
   40.7490   24.7740   42.6920 H   0  0  0  0  0  0  0  0  0  0  0  0
   42.8530   24.8250   43.3260 N   0  0  0  0  0  0  0  0  0  0  0  0
   42.9950   23.7720   43.3290 H   0  0  0  0  0  0  0  0  0  0  0  0
   43.7140   25.8430   43.6230 C   0  0  0  0  0  0  0  0  0  0  0  0
   44.7140   25.5510   43.9120 H   0  0  0  0  0  0  0  0  0  0  0  0
   43.0080   27.0000   43.4550 N   0  0  0  0  0  0  0  0  0  0  0  0
  1  7  1  6  0  0  0
  1  6  1  0  0  0  0
  2  8  1  0  0  0  0
  2  1  1  0  0  0  0
  2  3  1  0  0  0  0
  3  4  1  0  0  0  0
  4 13  1  0  0  0  0
  4 12  1  0  0  0  0
  4  5  1  0  0  0  0
  5 14  1  0  0  0  0
  5 15  1  0  0  0  0
  6 16  1  1  0  0  0
  6 26  1  0  0  0  0
  6  5  1  0  0  0  0
  9  2  1  0  0  0  0
 10  3  1  0  0  0  0
 11  3  1  0  0  0  0
 17 18  1  0  0  0  0
 18 19  2  0  0  0  0
 18 24  1  0  0  0  0
 19  1  1  0  0  0  0
 20 19  1  0  0  0  0
 21 20  2  0  0  0  0
 22 21  1  0  0  0  0
 22 17  2  0  0  0  0
 23 17  1  0  0  0  0
 25 21  1  0  0  0  0
 26 27  2  0  0  0  0
 26 31  1  0  0  0  0
 27 28  1  0  0  0  0
 28 33  1  0  0  0  0
 28 29  2  0  0  0  0
 29 34  1  0  0  0  0
 30 29  1  0  0  0  0
 30 35  1  0  0  0  0
 31 30  2  0  0  0  0
 32 27  1  0  0  0  0
 35 42  1  0  0  0  0
 36 35  2  0  0  0  0
 36 38  1  0  0  0  0
 37 36  1  0  0  0  0
 38 39  1  0  0  0  0
 38 40  1  0  0  0  0
 40 41  1  0  0  0  0
 42 40  2  0  0  0  0
M  END
>  <minimizedAffinity>
-5.63912725

$$$$

 OpenBabel03242516513D

 42 45  0  0  1  0  0  0  0  0999 V2000
   36.8530   28.6000   39.4720 C   0  0  1  0  0  0  0  0  0  0  0  0
   35.4160   28.7670   39.7690 C   0  0  0  0  0  0  0  0  0  0  0  0
   34.6700   28.2740   38.5250 C   0  0  0  0  0  0  0  0  0  0  0  0
   34.9380   29.3020   37.4400 C   0  0  0  0  0  0  0  0  0  0  0  0
   36.3970   29.5370   37.1820 C   0  0  0  0  0  0  0  0  0  0  0  0
   37.3120   29.4860   38.3330 C   0  0  1  0  0  0  0  0  0  0  0  0
   37.0120   27.5560   39.0630 H   0  0  0  0  0  0  0  0  0  0  0  0
   35.0960   29.7860   39.9900 H   0  0  0  0  0  0  0  0  0  0  0  0
   35.1510   28.1200   40.6400 H   0  0  0  0  0  0  0  0  0  0  0  0
   34.9720   27.2660   38.2520 H   0  0  0  0  0  0  0  0  0  0  0  0
   33.5840   28.3760   38.7730 H   0  0  0  0  0  0  0  0  0  0  0  0
   34.4340   29.0210   36.5170 H   0  0  0  0  0  0  0  0  0  0  0  0
   34.5260   30.2760   37.8350 H   0  0  0  0  0  0  0  0  0  0  0  0
   36.6940   28.8010   36.4060 H   0  0  0  0  0  0  0  0  0  0  0  0
   36.4890   30.5440   36.7030 H   0  0  0  0  0  0  0  0  0  0  0  0
   38.2890   29.0270   37.9900 H   0  0  0  0  0  0  0  0  0  0  0  0
   38.0940   29.1930   42.9870 C   0  0  0  0  0  0  0  0  0  0  0  0
   37.2740   29.0460   41.8690 C   0  0  0  0  0  0  0  0  0  0  0  0
   37.7540   28.7340   40.6090 C   0  0  0  0  0  0  0  0  0  0  0  0
   39.0850   28.5770   40.5130 N   0  0  0  0  0  0  0  0  0  0  0  0
   39.8960   28.7170   41.5910 C   0  0  0  0  0  0  0  0  0  0  0  0
   39.4270   29.0150   42.7960 N   0  0  0  0  0  0  0  0  0  0  0  0
   37.7110   29.4350   43.9640 H   0  0  0  0  0  0  0  0  0  0  0  0
   36.2220   29.1970   42.0740 H   0  0  0  0  0  0  0  0  0  0  0  0
   40.9360   28.5570   41.3400 H   0  0  0  0  0  0  0  0  0  0  0  0
   37.7090   30.8200   38.8150 C   0  0  0  0  0  0  0  0  0  0  0  0
   36.9930   31.6340   39.7010 C   0  0  0  0  0  0  0  0  0  0  0  0
   37.5980   32.8510   40.0270 C   0  0  0  0  0  0  0  0  0  0  0  0
   38.8310   33.1490   39.4600 C   0  0  0  0  0  0  0  0  0  0  0  0
   39.5040   32.3370   38.6000 C   0  0  0  0  0  0  0  0  0  0  0  0
   38.9160   31.1530   38.2830 N   0  0  0  0  0  0  0  0  0  0  0  0
   36.0770   31.2540   40.0340 H   0  0  0  0  0  0  0  0  0  0  0  0
   37.0580   33.4800   40.7040 H   0  0  0  0  0  0  0  0  0  0  0  0
   39.2270   34.1250   39.7740 H   0  0  0  0  0  0  0  0  0  0  0  0
   40.8000   32.7500   38.0580 C   0  0  0  0  0  0  0  0  0  0  0  0
   41.6080   32.0810   37.1610 C   0  0  0  0  0  0  0  0  0  0  0  0
   41.4090   31.1260   36.7030 H   0  0  0  0  0  0  0  0  0  0  0  0
   42.6940   32.8870   36.9870 N   0  0  0  0  0  0  0  0  0  0  0  0
   43.4640   32.5720   36.3260 H   0  0  0  0  0  0  0  0  0  0  0  0
   42.5740   34.0170   37.7440 C   0  0  0  0  0  0  0  0  0  0  0  0
   43.3890   34.7240   37.6750 H   0  0  0  0  0  0  0  0  0  0  0  0
   41.3840   33.9090   38.4050 N   0  0  0  0  0  0  0  0  0  0  0  0
  1  7  1  6  0  0  0
  1  2  1  0  0  0  0
  1 19  1  0  0  0  0
  2  8  1  0  0  0  0
  2  9  1  0  0  0  0
  3 11  1  0  0  0  0
  3  2  1  0  0  0  0
  4 13  1  0  0  0  0
  4  3  1  0  0  0  0
  5  4  1  0  0  0  0
  5  6  1  0  0  0  0
  6 16  1  6  0  0  0
  6 26  1  0  0  0  0
  6  1  1  0  0  0  0
 10  3  1  0  0  0  0
 12  4  1  0  0  0  0
 14  5  1  0  0  0  0
 15  5  1  0  0  0  0
 17 23  1  0  0  0  0
 18 24  1  0  0  0  0
 18 17  2  0  0  0  0
 19 18  1  0  0  0  0
 20 19  2  0  0  0  0
 20 21  1  0  0  0  0
 21 22  2  0  0  0  0
 22 17  1  0  0  0  0
 25 21  1  0  0  0  0
 26 27  1  0  0  0  0
 27 28  2  0  0  0  0
 27 32  1  0  0  0  0
 28 33  1  0  0  0  0
 29 34  1  0  0  0  0
 29 28  1  0  0  0  0
 30 29  2  0  0  0  0
 31 30  1  0  0  0  0
 31 26  2  0  0  0  0
 35 42  1  0  0  0  0
 35 30  1  0  0  0  0
 36 35  2  0  0  0  0
 37 36  1  0  0  0  0
 38 36  1  0  0  0  0
 38 40  1  0  0  0  0
 39 38  1  0  0  0  0
 40 42  2  0  0  0  0
 41 40  1  0  0  0  0
M  END
>  <minimizedAffinity>
-5.5888443

$$$$

 OpenBabel03242516513D

 42 45  0  0  1  0  0  0  0  0999 V2000
   38.1930   30.5800   39.8700 C   0  0  1  0  0  0  0  0  0  0  0  0
   37.9230   31.8700   40.5370 C   0  0  0  0  0  0  0  0  0  0  0  0
   39.2500   32.6340   40.5270 C   0  0  0  0  0  0  0  0  0  0  0  0
   40.1610   31.9070   41.5010 C   0  0  0  0  0  0  0  0  0  0  0  0
   40.3330   30.4490   41.1880 C   0  0  0  0  0  0  0  0  0  0  0  0
   39.1720   29.7240   40.6470 C   0  0  1  0  0  0  0  0  0  0  0  0
   38.7470   30.7890   38.9050 H   0  0  0  0  0  0  0  0  0  0  0  0
   37.5630   31.8030   41.5650 H   0  0  0  0  0  0  0  0  0  0  0  0
   37.1670   32.4330   39.9380 H   0  0  0  0  0  0  0  0  0  0  0  0
   39.6600   32.7100   39.5240 H   0  0  0  0  0  0  0  0  0  0  0  0
   39.0260   33.6200   41.0060 H   0  0  0  0  0  0  0  0  0  0  0  0
   41.1320   32.3970   41.5520 H   0  0  0  0  0  0  0  0  0  0  0  0
   39.6390   31.9560   42.5010 H   0  0  0  0  0  0  0  0  0  0  0  0
   41.1990   30.3840   40.4980 H   0  0  0  0  0  0  0  0  0  0  0  0
   40.6530   29.9450   42.1340 H   0  0  0  0  0  0  0  0  0  0  0  0
   39.5470   28.9650   39.8950 H   0  0  0  0  0  0  0  0  0  0  0  0
   34.6640   29.2440   39.8540 C   0  0  0  0  0  0  0  0  0  0  0  0
   35.8120   29.9720   40.1590 C   0  0  0  0  0  0  0  0  0  0  0  0
   37.0200   29.7970   39.5050 C   0  0  0  0  0  0  0  0  0  0  0  0
   37.0310   28.8660   38.5370 N   0  0  0  0  0  0  0  0  0  0  0  0
   35.9220   28.1490   38.2290 C   0  0  0  0  0  0  0  0  0  0  0  0
   34.7670   28.3240   38.8600 N   0  0  0  0  0  0  0  0  0  0  0  0
   33.7270   29.3880   40.3670 H   0  0  0  0  0  0  0  0  0  0  0  0
   35.6760   30.6920   40.9560 H   0  0  0  0  0  0  0  0  0  0  0  0
   36.1030   27.4450   37.4290 H   0  0  0  0  0  0  0  0  0  0  0  0
   38.4840   28.9000   41.6550 C   0  0  0  0  0  0  0  0  0  0  0  0
   37.9410   29.3440   42.8680 C   0  0  0  0  0  0  0  0  0  0  0  0
   37.3120   28.3670   43.6420 C   0  0  0  0  0  0  0  0  0  0  0  0
   37.2760   27.0630   43.1610 C   0  0  0  0  0  0  0  0  0  0  0  0
   37.8130   26.6600   41.9770 C   0  0  0  0  0  0  0  0  0  0  0  0
   38.4250   27.6120   41.2230 N   0  0  0  0  0  0  0  0  0  0  0  0
   38.0590   30.3630   43.0760 H   0  0  0  0  0  0  0  0  0  0  0  0
   36.8950   28.6960   44.5710 H   0  0  0  0  0  0  0  0  0  0  0  0
   36.7620   26.3660   43.8370 H   0  0  0  0  0  0  0  0  0  0  0  0
   37.7190   25.2580   41.5640 C   0  0  0  0  0  0  0  0  0  0  0  0
   38.4440   24.1780   42.0240 C   0  0  0  0  0  0  0  0  0  0  0  0
   39.2130   24.1930   42.7790 H   0  0  0  0  0  0  0  0  0  0  0  0
   37.9770   23.1080   41.3210 N   0  0  0  0  0  0  0  0  0  0  0  0
   38.3960   22.1490   41.5090 H   0  0  0  0  0  0  0  0  0  0  0  0
   36.9970   23.4990   40.4540 C   0  0  0  0  0  0  0  0  0  0  0  0
   36.5600   22.7190   39.8470 H   0  0  0  0  0  0  0  0  0  0  0  0
   36.8540   24.8470   40.6230 N   0  0  0  0  0  0  0  0  0  0  0  0
  1  7  1  6  0  0  0
  1  2  1  0  0  0  0
  1  6  1  0  0  0  0
  2  8  1  0  0  0  0
  3  2  1  0  0  0  0
  3 11  1  0  0  0  0
  3  4  1  0  0  0  0
  4 12  1  0  0  0  0
  4 13  1  0  0  0  0
  5  4  1  0  0  0  0
  5 15  1  0  0  0  0
  6 16  1  6  0  0  0
  6  5  1  0  0  0  0
  6 26  1  0  0  0  0
  9  2  1  0  0  0  0
 10  3  1  0  0  0  0
 14  5  1  0  0  0  0
 17 18  1  0  0  0  0
 17 23  1  0  0  0  0
 18 24  1  0  0  0  0
 19  1  1  0  0  0  0
 19 18  2  0  0  0  0
 20 19  1  0  0  0  0
 21 20  2  0  0  0  0
 21 22  1  0  0  0  0
 22 17  2  0  0  0  0
 25 21  1  0  0  0  0
 26 27  1  0  0  0  0
 27 32  1  0  0  0  0
 27 28  2  0  0  0  0
 28 33  1  0  0  0  0
 29 28  1  0  0  0  0
 29 34  1  0  0  0  0
 30 29  2  0  0  0  0
 31 26  2  0  0  0  0
 31 30  1  0  0  0  0
 35 30  1  0  0  0  0
 35 36  2  0  0  0  0
 36 37  1  0  0  0  0
 38 39  1  0  0  0  0
 38 36  1  0  0  0  0
 40 42  2  0  0  0  0
 40 38  1  0  0  0  0
 41 40  1  0  0  0  0
 42 35  1  0  0  0  0
M  END
>  <minimizedAffinity>
-5.53555107

$$$$

 OpenBabel03242516513D

 42 45  0  0  1  0  0  0  0  0999 V2000
   37.8230   26.3930   41.1910 C   0  0  1  0  0  0  0  0  0  0  0  0
   39.2640   26.6580   41.3790 C   0  0  0  0  0  0  0  0  0  0  0  0
   39.5690   26.3050   42.8380 C   0  0  0  0  0  0  0  0  0  0  0  0
   38.8900   27.3710   43.6800 C   0  0  0  0  0  0  0  0  0  0  0  0
   37.4190   27.5010   43.4130 C   0  0  0  0  0  0  0  0  0  0  0  0
   36.9540   27.3060   42.0310 C   0  0  1  0  0  0  0  0  0  0  0  0
   37.5940   25.3660   41.6090 H   0  0  0  0  0  0  0  0  0  0  0  0
   39.5820   27.6860   41.1920 H   0  0  0  0  0  0  0  0  0  0  0  0
   39.8450   25.9840   40.7050 H   0  0  0  0  0  0  0  0  0  0  0  0
   39.2500   25.2950   43.0790 H   0  0  0  0  0  0  0  0  0  0  0  0
   40.6670   26.4810   42.9600 H   0  0  0  0  0  0  0  0  0  0  0  0
   39.0650   27.1890   44.7380 H   0  0  0  0  0  0  0  0  0  0  0  0
   39.3550   28.3500   43.3640 H   0  0  0  0  0  0  0  0  0  0  0  0
   36.9190   26.7910   44.1050 H   0  0  0  0  0  0  0  0  0  0  0  0
   37.1120   28.5240   43.7460 H   0  0  0  0  0  0  0  0  0  0  0  0
   35.9470   26.7890   42.0640 H   0  0  0  0  0  0  0  0  0  0  0  0
   37.6450   27.0740   37.4830 C   0  0  0  0  0  0  0  0  0  0  0  0
   38.0530   27.0470   38.8150 C   0  0  0  0  0  0  0  0  0  0  0  0
   37.3560   26.3830   39.8110 C   0  0  0  0  0  0  0  0  0  0  0  0
   36.2370   25.7510   39.4190 N   0  0  0  0  0  0  0  0  0  0  0  0
   35.8270   25.7700   38.1260 C   0  0  0  0  0  0  0  0  0  0  0  0
   36.5020   26.4080   37.1780 N   0  0  0  0  0  0  0  0  0  0  0  0
   38.1940   27.5930   36.7150 H   0  0  0  0  0  0  0  0  0  0  0  0
   38.9690   27.5920   39.0050 H   0  0  0  0  0  0  0  0  0  0  0  0
   34.9110   25.2130   37.9840 H   0  0  0  0  0  0  0  0  0  0  0  0
   36.6700   28.5700   41.3320 C   0  0  0  0  0  0  0  0  0  0  0  0
   35.4800   28.9150   40.6790 C   0  0  0  0  0  0  0  0  0  0  0  0
   35.4490   30.1910   40.1110 C   0  0  0  0  0  0  0  0  0  0  0  0
   36.5740   30.9970   40.2360 C   0  0  0  0  0  0  0  0  0  0  0  0
   37.7190   30.6350   40.8770 C   0  0  0  0  0  0  0  0  0  0  0  0
   37.7490   29.3930   41.4300 N   0  0  0  0  0  0  0  0  0  0  0  0
   34.7300   28.1850   40.6790 H   0  0  0  0  0  0  0  0  0  0  0  0
   34.5440   30.4630   39.6100 H   0  0  0  0  0  0  0  0  0  0  0  0
   36.4570   31.9800   39.7600 H   0  0  0  0  0  0  0  0  0  0  0  0
   38.8490   31.5640   40.9500 C   0  0  0  0  0  0  0  0  0  0  0  0
   38.8240   32.9430   40.9950 C   0  0  0  0  0  0  0  0  0  0  0  0
   37.9490   33.5730   40.9860 H   0  0  0  0  0  0  0  0  0  0  0  0
   40.1320   33.3230   41.0550 N   0  0  0  0  0  0  0  0  0  0  0  0
   40.3630   34.3590   41.0980 H   0  0  0  0  0  0  0  0  0  0  0  0
   40.9460   32.2260   41.0470 C   0  0  0  0  0  0  0  0  0  0  0  0
   42.0090   32.4230   41.0920 H   0  0  0  0  0  0  0  0  0  0  0  0
   40.1220   31.1400   40.9810 N   0  0  0  0  0  0  0  0  0  0  0  0
  1  2  1  0  0  0  0
  1  7  1  1  0  0  0
  1  6  1  0  0  0  0
  2  3  1  0  0  0  0
  3 11  1  0  0  0  0
  3 10  1  0  0  0  0
  3  4  1  0  0  0  0
  4 12  1  0  0  0  0
  5  4  1  0  0  0  0
  5 15  1  0  0  0  0
  5 14  1  0  0  0  0
  6 16  1  1  0  0  0
  6  5  1  0  0  0  0
  8  2  1  0  0  0  0
  9  2  1  0  0  0  0
 13  4  1  0  0  0  0
 17 18  1  0  0  0  0
 18 24  1  0  0  0  0
 18 19  2  0  0  0  0
 19  1  1  0  0  0  0
 20 19  1  0  0  0  0
 21 20  2  0  0  0  0
 22 17  2  0  0  0  0
 22 21  1  0  0  0  0
 23 17  1  0  0  0  0
 25 21  1  0  0  0  0
 26 31  1  0  0  0  0
 26  6  1  0  0  0  0
 27 32  1  0  0  0  0
 27 26  2  0  0  0  0
 28 29  2  0  0  0  0
 28 27  1  0  0  0  0
 29 30  1  0  0  0  0
 30 35  1  0  0  0  0
 30 31  2  0  0  0  0
 33 28  1  0  0  0  0
 34 29  1  0  0  0  0
 35 42  1  0  0  0  0
 35 36  2  0  0  0  0
 36 38  1  0  0  0  0
 37 36  1  0  0  0  0
 38 39  1  0  0  0  0
 40 38  1  0  0  0  0
 40 41  1  0  0  0  0
 42 40  2  0  0  0  0
M  END
>  <minimizedAffinity>
-5.49438953

$$$$
