
 OpenBabel03242520173D

 24 26  0  0  0  0  0  0  0  0999 V2000
   36.9570   28.8520   42.0730 C   0  0  0  0  0  0  0  0  0  0  0  0
   37.5970   30.0820   41.8140 C   0  0  0  0  0  0  0  0  0  0  0  0
   37.0920   30.9240   40.8040 C   0  0  0  0  0  0  0  0  0  0  0  0
   35.9940   30.4820   40.1300 N   0  0  0  0  0  0  0  0  0  0  0  0
   35.4100   29.2900   40.4120 C   0  0  0  0  0  0  0  0  0  0  0  0
   35.8860   28.4940   41.3670 N   0  0  0  0  0  0  0  0  0  0  0  0
   38.4580   30.4340   42.3380 H   0  0  0  0  0  0  0  0  0  0  0  0
   34.5370   28.9860   39.8460 H   0  0  0  0  0  0  0  0  0  0  0  0
   37.5210   27.9900   43.1340 C   0  0  0  0  0  0  0  0  0  0  0  0
   38.2030   26.7160   42.5610 C   0  0  0  0  0  0  0  0  0  0  0  0
   38.9410   27.7780   43.3130 C   0  0  0  0  0  0  0  0  0  0  0  0
   36.8260   27.8000   43.9840 H   0  0  0  0  0  0  0  0  0  0  0  0
   38.3010   26.6360   41.4650 H   0  0  0  0  0  0  0  0  0  0  0  0
   37.9510   25.7970   43.1230 H   0  0  0  0  0  0  0  0  0  0  0  0
   39.6890   28.3480   42.7000 H   0  0  0  0  0  0  0  0  0  0  0  0
   39.3180   27.5060   44.3070 H   0  0  0  0  0  0  0  0  0  0  0  0
   37.7060   32.2090   40.4860 C   0  0  0  0  0  0  0  0  0  0  0  0
   37.2320   33.0730   39.5180 C   0  0  0  0  0  0  0  0  0  0  0  0
   36.3900   33.0120   38.8430 H   0  0  0  0  0  0  0  0  0  0  0  0
   38.0940   34.1120   39.5700 N   0  0  0  0  0  0  0  0  0  0  0  0
   38.0390   34.9790   38.9580 H   0  0  0  0  0  0  0  0  0  0  0  0
   39.0670   33.9390   40.5100 C   0  0  0  0  0  0  0  0  0  0  0  0
   39.8490   34.6580   40.7040 H   0  0  0  0  0  0  0  0  0  0  0  0
   38.7990   32.7260   41.0750 N   0  0  0  0  0  0  0  0  0  0  0  0
  1  9  1  0  0  0  0
  2  1  1  0  0  0  0
  2  7  1  0  0  0  0
  3  2  2  0  0  0  0
  4  5  2  0  0  0  0
  4  3  1  0  0  0  0
  5  6  1  0  0  0  0
  6  1  2  0  0  0  0
  8  5  1  0  0  0  0
  9 11  1  0  0  0  0
  9 12  1  0  0  0  0
 10 14  1  0  0  0  0
 10  9  1  0  0  0  0
 10 11  1  0  0  0  0
 11 16  1  0  0  0  0
 13 10  1  0  0  0  0
 15 11  1  0  0  0  0
 17  3  1  0  0  0  0
 17 24  1  0  0  0  0
 18 20  1  0  0  0  0
 18 17  2  0  0  0  0
 19 18  1  0  0  0  0
 20 22  1  0  0  0  0
 21 20  1  0  0  0  0
 22 23  1  0  0  0  0
 22 24  2  0  0  0  0
M  END
>  <minimizedAffinity>
-4.63205433

$$$$

 OpenBabel03242520173D

 24 26  0  0  0  0  0  0  0  0999 V2000
   37.7340   26.7680   42.3010 C   0  0  0  0  0  0  0  0  0  0  0  0
   37.3060   27.9800   41.7190 C   0  0  0  0  0  0  0  0  0  0  0  0
   38.0670   29.1480   41.9150 C   0  0  0  0  0  0  0  0  0  0  0  0
   39.1930   29.0250   42.6720 N   0  0  0  0  0  0  0  0  0  0  0  0
   39.5690   27.8390   43.2150 C   0  0  0  0  0  0  0  0  0  0  0  0
   38.8490   26.7340   43.0290 N   0  0  0  0  0  0  0  0  0  0  0  0
   36.4250   28.0820   41.1250 H   0  0  0  0  0  0  0  0  0  0  0  0
   40.4740   27.7960   43.8090 H   0  0  0  0  0  0  0  0  0  0  0  0
   36.9040   25.5650   42.0820 C   0  0  0  0  0  0  0  0  0  0  0  0
   37.2850   24.8110   40.7770 C   0  0  0  0  0  0  0  0  0  0  0  0
   37.4270   24.2170   42.1430 C   0  0  0  0  0  0  0  0  0  0  0  0
   35.8100   25.7360   42.2150 H   0  0  0  0  0  0  0  0  0  0  0  0
   38.1740   25.1610   40.2240 H   0  0  0  0  0  0  0  0  0  0  0  0
   36.4060   24.4900   40.1860 H   0  0  0  0  0  0  0  0  0  0  0  0
   38.4880   24.0260   42.4590 H   0  0  0  0  0  0  0  0  0  0  0  0
   36.7480   23.3930   42.3940 H   0  0  0  0  0  0  0  0  0  0  0  0
   37.6810   30.4320   41.3400 C   0  0  0  0  0  0  0  0  0  0  0  0
   36.3740   30.8110   41.1060 C   0  0  0  0  0  0  0  0  0  0  0  0
   35.4330   30.3060   41.2750 H   0  0  0  0  0  0  0  0  0  0  0  0
   36.4910   32.0490   40.5770 N   0  0  0  0  0  0  0  0  0  0  0  0
   35.6770   32.6590   40.2710 H   0  0  0  0  0  0  0  0  0  0  0  0
   37.7910   32.4520   40.4730 C   0  0  0  0  0  0  0  0  0  0  0  0
   38.0910   33.4100   40.0750 H   0  0  0  0  0  0  0  0  0  0  0  0
   38.5230   31.4090   40.9620 N   0  0  0  0  0  0  0  0  0  0  0  0
  1  6  1  0  0  0  0
  2  3  1  0  0  0  0
  2  1  2  0  0  0  0
  3  4  2  0  0  0  0
  4  5  1  0  0  0  0
  5  8  1  0  0  0  0
  6  5  2  0  0  0  0
  7  2  1  0  0  0  0
  9 11  1  0  0  0  0
  9 12  1  0  0  0  0
  9  1  1  0  0  0  0
 10  9  1  0  0  0  0
 10 11  1  0  0  0  0
 11 16  1  0  0  0  0
 11 15  1  0  0  0  0
 13 10  1  0  0  0  0
 14 10  1  0  0  0  0
 17  3  1  0  0  0  0
 18 19  1  0  0  0  0
 18 17  2  0  0  0  0
 20 18  1  0  0  0  0
 21 20  1  0  0  0  0
 22 20  1  0  0  0  0
 22 24  2  0  0  0  0
 23 22  1  0  0  0  0
 24 17  1  0  0  0  0
M  END
>  <minimizedAffinity>
-4.52232885

$$$$

 OpenBabel03242520173D

 24 26  0  0  0  0  0  0  0  0999 V2000
   36.9610   28.6650   41.1250 C   0  0  0  0  0  0  0  0  0  0  0  0
   37.8890   29.3860   40.3450 C   0  0  0  0  0  0  0  0  0  0  0  0
   37.4270   30.1730   39.2730 C   0  0  0  0  0  0  0  0  0  0  0  0
   36.0830   30.1830   39.0550 N   0  0  0  0  0  0  0  0  0  0  0  0
   35.2240   29.4720   39.8300 C   0  0  0  0  0  0  0  0  0  0  0  0
   35.6610   28.7290   40.8450 N   0  0  0  0  0  0  0  0  0  0  0  0
   38.9440   29.3830   40.5110 H   0  0  0  0  0  0  0  0  0  0  0  0
   34.1630   29.5150   39.6140 H   0  0  0  0  0  0  0  0  0  0  0  0
   37.4840   27.8420   42.2360 C   0  0  0  0  0  0  0  0  0  0  0  0
   37.5030   28.6130   43.5860 C   0  0  0  0  0  0  0  0  0  0  0  0
   36.6690   27.3950   43.3450 C   0  0  0  0  0  0  0  0  0  0  0  0
   38.4300   27.3030   41.9980 H   0  0  0  0  0  0  0  0  0  0  0  0
   37.0390   29.6140   43.6120 H   0  0  0  0  0  0  0  0  0  0  0  0
   38.4390   28.4660   44.1590 H   0  0  0  0  0  0  0  0  0  0  0  0
   35.5610   27.5800   43.3550 H   0  0  0  0  0  0  0  0  0  0  0  0
   36.9580   26.4850   43.8860 H   0  0  0  0  0  0  0  0  0  0  0  0
   38.3340   30.9440   38.4290 C   0  0  0  0  0  0  0  0  0  0  0  0
   37.9440   31.6110   37.2850 C   0  0  0  0  0  0  0  0  0  0  0  0
   36.9840   31.7130   36.7980 H   0  0  0  0  0  0  0  0  0  0  0  0
   39.0880   32.1730   36.8380 N   0  0  0  0  0  0  0  0  0  0  0  0
   39.1710   32.7730   35.9650 H   0  0  0  0  0  0  0  0  0  0  0  0
   40.1570   31.8910   37.6380 C   0  0  0  0  0  0  0  0  0  0  0  0
   41.1580   32.2490   37.4490 H   0  0  0  0  0  0  0  0  0  0  0  0
   39.6520   31.1100   38.6380 N   0  0  0  0  0  0  0  0  0  0  0  0
  1  9  1  0  0  0  0
  2  7  1  0  0  0  0
  2  1  2  0  0  0  0
  3  2  1  0  0  0  0
  4  3  2  0  0  0  0
  4  5  1  0  0  0  0
  5  6  2  0  0  0  0
  6  1  1  0  0  0  0
  8  5  1  0  0  0  0
  9 11  1  0  0  0  0
  9 10  1  0  0  0  0
 10 13  1  0  0  0  0
 10 14  1  0  0  0  0
 11 15  1  0  0  0  0
 11 10  1  0  0  0  0
 11 16  1  0  0  0  0
 12  9  1  0  0  0  0
 17 24  1  0  0  0  0
 17  3  1  0  0  0  0
 18 17  2  0  0  0  0
 19 18  1  0  0  0  0
 20 18  1  0  0  0  0
 20 22  1  0  0  0  0
 21 20  1  0  0  0  0
 22 24  2  0  0  0  0
 23 22  1  0  0  0  0
M  END
>  <minimizedAffinity>
-4.40747023

$$$$

 OpenBabel03242520173D

 24 26  0  0  0  0  0  0  0  0999 V2000
   36.4880   28.9710   41.2280 C   0  0  0  0  0  0  0  0  0  0  0  0
   36.8740   27.6230   41.3810 C   0  0  0  0  0  0  0  0  0  0  0  0
   37.9320   27.3010   42.2530 C   0  0  0  0  0  0  0  0  0  0  0  0
   38.5250   28.3400   42.9050 N   0  0  0  0  0  0  0  0  0  0  0  0
   38.1230   29.6240   42.7270 C   0  0  0  0  0  0  0  0  0  0  0  0
   37.1220   29.9280   41.9040 N   0  0  0  0  0  0  0  0  0  0  0  0
   36.4120   26.8040   40.8740 H   0  0  0  0  0  0  0  0  0  0  0  0
   38.6290   30.4130   43.2700 H   0  0  0  0  0  0  0  0  0  0  0  0
   35.3800   29.2710   40.2970 C   0  0  0  0  0  0  0  0  0  0  0  0
   35.8840   29.8230   38.9340 C   0  0  0  0  0  0  0  0  0  0  0  0
   35.1450   28.5300   39.0770 C   0  0  0  0  0  0  0  0  0  0  0  0
   34.5470   29.8560   40.7530 H   0  0  0  0  0  0  0  0  0  0  0  0
   36.9730   29.8270   38.7540 H   0  0  0  0  0  0  0  0  0  0  0  0
   35.3000   30.6890   38.5710 H   0  0  0  0  0  0  0  0  0  0  0  0
   35.7520   27.6170   38.8330 H   0  0  0  0  0  0  0  0  0  0  0  0
   34.1300   28.4950   38.6610 H   0  0  0  0  0  0  0  0  0  0  0  0
   38.3800   25.9270   42.4580 C   0  0  0  0  0  0  0  0  0  0  0  0
   37.6520   24.8150   42.0840 C   0  0  0  0  0  0  0  0  0  0  0  0
   36.6890   24.7070   41.6040 H   0  0  0  0  0  0  0  0  0  0  0  0
   38.4360   23.7810   42.4600 N   0  0  0  0  0  0  0  0  0  0  0  0
   38.1950   22.7550   42.3270 H   0  0  0  0  0  0  0  0  0  0  0  0
   39.6000   24.1920   43.0430 C   0  0  0  0  0  0  0  0  0  0  0  0
   40.3580   23.5160   43.4100 H   0  0  0  0  0  0  0  0  0  0  0  0
   39.5380   25.5550   43.0290 N   0  0  0  0  0  0  0  0  0  0  0  0
  1  2  2  0  0  0  0
  1  6  1  0  0  0  0
  2  3  1  0  0  0  0
  3 17  1  0  0  0  0
  3  4  2  0  0  0  0
  5  4  1  0  0  0  0
  5  8  1  0  0  0  0
  6  5  2  0  0  0  0
  7  2  1  0  0  0  0
  9 12  1  0  0  0  0
  9  1  1  0  0  0  0
 10 11  1  0  0  0  0
 10  9  1  0  0  0  0
 11  9  1  0  0  0  0
 13 10  1  0  0  0  0
 14 10  1  0  0  0  0
 15 11  1  0  0  0  0
 16 11  1  0  0  0  0
 17 24  1  0  0  0  0
 18 17  2  0  0  0  0
 18 20  1  0  0  0  0
 19 18  1  0  0  0  0
 20 22  1  0  0  0  0
 21 20  1  0  0  0  0
 22 23  1  0  0  0  0
 24 22  2  0  0  0  0
M  END
>  <minimizedAffinity>
-4.30484295

$$$$

 OpenBabel03242520173D

 24 26  0  0  0  0  0  0  0  0999 V2000
   38.1970   28.5240   42.3240 C   0  0  0  0  0  0  0  0  0  0  0  0
   37.7560   29.7190   41.7190 C   0  0  0  0  0  0  0  0  0  0  0  0
   38.6700   30.7730   41.5240 C   0  0  0  0  0  0  0  0  0  0  0  0
   39.9480   30.5600   41.9450 N   0  0  0  0  0  0  0  0  0  0  0  0
   40.3300   29.3940   42.5250 C   0  0  0  0  0  0  0  0  0  0  0  0
   39.4660   28.3970   42.7070 N   0  0  0  0  0  0  0  0  0  0  0  0
   36.7570   29.8910   41.3870 H   0  0  0  0  0  0  0  0  0  0  0  0
   41.3600   29.2770   42.8410 H   0  0  0  0  0  0  0  0  0  0  0  0
   37.2070   27.4430   42.5210 C   0  0  0  0  0  0  0  0  0  0  0  0
   37.0160   26.5750   41.2460 C   0  0  0  0  0  0  0  0  0  0  0  0
   37.5560   26.0390   42.5340 C   0  0  0  0  0  0  0  0  0  0  0  0
   36.2580   27.7770   43.0010 H   0  0  0  0  0  0  0  0  0  0  0  0
   37.6890   26.7640   40.3920 H   0  0  0  0  0  0  0  0  0  0  0  0
   35.9550   26.3540   41.0250 H   0  0  0  0  0  0  0  0  0  0  0  0
   38.6300   25.7140   42.4880 H   0  0  0  0  0  0  0  0  0  0  0  0
   36.9160   25.3360   43.0820 H   0  0  0  0  0  0  0  0  0  0  0  0
   38.2800   32.0340   40.9040 C   0  0  0  0  0  0  0  0  0  0  0  0
   37.0890   32.2280   40.2330 C   0  0  0  0  0  0  0  0  0  0  0  0
   36.2560   31.5690   40.0310 H   0  0  0  0  0  0  0  0  0  0  0  0
   37.1550   33.5170   39.8330 N   0  0  0  0  0  0  0  0  0  0  0  0
   36.4000   34.0230   39.2820 H   0  0  0  0  0  0  0  0  0  0  0  0
   38.3140   34.1260   40.2190 C   0  0  0  0  0  0  0  0  0  0  0  0
   38.5530   35.1550   39.9960 H   0  0  0  0  0  0  0  0  0  0  0  0
   39.0080   33.1640   40.8940 N   0  0  0  0  0  0  0  0  0  0  0  0
  1  9  1  0  0  0  0
  1  6  1  0  0  0  0
  2  1  2  0  0  0  0
  3  2  1  0  0  0  0
  3  4  2  0  0  0  0
  4  5  1  0  0  0  0
  5  6  2  0  0  0  0
  5  8  1  0  0  0  0
  7  2  1  0  0  0  0
  9 11  1  0  0  0  0
  9 12  1  0  0  0  0
 10  9  1  0  0  0  0
 10 11  1  0  0  0  0
 11 16  1  0  0  0  0
 13 10  1  0  0  0  0
 14 10  1  0  0  0  0
 15 11  1  0  0  0  0
 17  3  1  0  0  0  0
 18 17  2  0  0  0  0
 19 18  1  0  0  0  0
 20 22  1  0  0  0  0
 20 18  1  0  0  0  0
 21 20  1  0  0  0  0
 22 24  2  0  0  0  0
 23 22  1  0  0  0  0
 24 17  1  0  0  0  0
M  END
>  <minimizedAffinity>
-4.29966497

$$$$

 OpenBabel03242520173D

 24 26  0  0  0  0  0  0  0  0999 V2000
   38.5310   26.9050   42.6000 C   0  0  0  0  0  0  0  0  0  0  0  0
   38.4510   28.2910   42.3500 C   0  0  0  0  0  0  0  0  0  0  0  0
   37.5830   28.7630   41.3460 C   0  0  0  0  0  0  0  0  0  0  0  0
   36.8640   27.8250   40.6680 N   0  0  0  0  0  0  0  0  0  0  0  0
   36.9720   26.5000   40.9410 C   0  0  0  0  0  0  0  0  0  0  0  0
   37.7920   26.0540   41.8910 N   0  0  0  0  0  0  0  0  0  0  0  0
   39.0110   29.0300   42.8780 H   0  0  0  0  0  0  0  0  0  0  0  0
   36.3770   25.7960   40.3720 H   0  0  0  0  0  0  0  0  0  0  0  0
   39.4600   26.4460   43.6550 C   0  0  0  0  0  0  0  0  0  0  0  0
   40.5200   25.4460   43.1160 C   0  0  0  0  0  0  0  0  0  0  0  0
   40.8650   26.7880   43.6790 C   0  0  0  0  0  0  0  0  0  0  0  0
   38.9560   26.1240   44.5960 H   0  0  0  0  0  0  0  0  0  0  0  0
   40.5530   25.2710   42.0260 H   0  0  0  0  0  0  0  0  0  0  0  0
   40.6770   24.5750   43.7800 H   0  0  0  0  0  0  0  0  0  0  0  0
   41.2940   27.5100   42.9340 H   0  0  0  0  0  0  0  0  0  0  0  0
   41.3950   26.7970   44.6400 H   0  0  0  0  0  0  0  0  0  0  0  0
   37.4520   30.1830   41.0370 C   0  0  0  0  0  0  0  0  0  0  0  0
   36.2430   30.8270   40.8630 C   0  0  0  0  0  0  0  0  0  0  0  0
   35.2220   30.4740   40.9090 H   0  0  0  0  0  0  0  0  0  0  0  0
   36.5980   32.1030   40.5990 N   0  0  0  0  0  0  0  0  0  0  0  0
   35.9170   32.8970   40.4090 H   0  0  0  0  0  0  0  0  0  0  0  0
   37.9500   32.2820   40.6010 C   0  0  0  0  0  0  0  0  0  0  0  0
   38.4300   33.2310   40.4120 H   0  0  0  0  0  0  0  0  0  0  0  0
   38.4680   31.0500   40.8810 N   0  0  0  0  0  0  0  0  0  0  0  0
  1  9  1  0  0  0  0
  2  1  1  0  0  0  0
  2  7  1  0  0  0  0
  3  2  2  0  0  0  0
  4  5  2  0  0  0  0
  4  3  1  0  0  0  0
  5  6  1  0  0  0  0
  6  1  2  0  0  0  0
  8  5  1  0  0  0  0
  9 11  1  0  0  0  0
  9 12  1  0  0  0  0
 10  9  1  0  0  0  0
 10 11  1  0  0  0  0
 10 14  1  0  0  0  0
 11 16  1  0  0  0  0
 13 10  1  0  0  0  0
 15 11  1  0  0  0  0
 17  3  1  0  0  0  0
 18 19  1  0  0  0  0
 18 17  2  0  0  0  0
 20 22  1  0  0  0  0
 20 18  1  0  0  0  0
 21 20  1  0  0  0  0
 22 24  2  0  0  0  0
 23 22  1  0  0  0  0
 24 17  1  0  0  0  0
M  END
>  <minimizedAffinity>
-4.27929497

$$$$

 OpenBabel03242520173D

 24 26  0  0  0  0  0  0  0  0999 V2000
   36.7470   27.7400   41.2370 C   0  0  0  0  0  0  0  0  0  0  0  0
   36.9570   29.1160   41.0100 C   0  0  0  0  0  0  0  0  0  0  0  0
   36.8930   29.6170   39.6950 C   0  0  0  0  0  0  0  0  0  0  0  0
   36.6260   28.7160   38.7090 N   0  0  0  0  0  0  0  0  0  0  0  0
   36.4320   27.3990   38.9720 C   0  0  0  0  0  0  0  0  0  0  0  0
   36.4920   26.9260   40.2150 N   0  0  0  0  0  0  0  0  0  0  0  0
   37.1660   29.8270   41.7780 H   0  0  0  0  0  0  0  0  0  0  0  0
   36.2230   26.7250   38.1500 H   0  0  0  0  0  0  0  0  0  0  0  0
   36.8330   27.2490   42.6280 C   0  0  0  0  0  0  0  0  0  0  0  0
   38.2740   26.8160   43.0170 C   0  0  0  0  0  0  0  0  0  0  0  0
   37.5480   27.9460   43.6750 C   0  0  0  0  0  0  0  0  0  0  0  0
   36.0400   26.5140   42.9010 H   0  0  0  0  0  0  0  0  0  0  0  0
   39.0820   27.0160   42.2920 H   0  0  0  0  0  0  0  0  0  0  0  0
   38.3080   25.8600   43.5720 H   0  0  0  0  0  0  0  0  0  0  0  0
   37.9960   28.9590   43.4880 H   0  0  0  0  0  0  0  0  0  0  0  0
   37.2460   27.7960   44.7190 H   0  0  0  0  0  0  0  0  0  0  0  0
   37.0990   31.0300   39.3910 C   0  0  0  0  0  0  0  0  0  0  0  0
   37.2950   31.5250   38.1180 C   0  0  0  0  0  0  0  0  0  0  0  0
   37.3370   31.0410   37.1510 H   0  0  0  0  0  0  0  0  0  0  0  0
   37.4390   32.8540   38.3120 N   0  0  0  0  0  0  0  0  0  0  0  0
   37.6080   33.5660   37.5410 H   0  0  0  0  0  0  0  0  0  0  0  0
   37.3430   33.2040   39.6270 C   0  0  0  0  0  0  0  0  0  0  0  0
   37.4310   34.2190   39.9850 H   0  0  0  0  0  0  0  0  0  0  0  0
   37.1280   32.0300   40.2890 N   0  0  0  0  0  0  0  0  0  0  0  0
  1  9  1  0  0  0  0
  2  1  1  0  0  0  0
  2  7  1  0  0  0  0
  3  2  2  0  0  0  0
  4  5  2  0  0  0  0
  4  3  1  0  0  0  0
  5  6  1  0  0  0  0
  6  1  2  0  0  0  0
  8  5  1  0  0  0  0
  9 12  1  0  0  0  0
  9 10  1  0  0  0  0
  9 11  1  0  0  0  0
 10 14  1  0  0  0  0
 10 11  1  0  0  0  0
 11 16  1  0  0  0  0
 13 10  1  0  0  0  0
 15 11  1  0  0  0  0
 17  3  1  0  0  0  0
 17 24  1  0  0  0  0
 18 20  1  0  0  0  0
 18 17  2  0  0  0  0
 19 18  1  0  0  0  0
 20 22  1  0  0  0  0
 21 20  1  0  0  0  0
 22 23  1  0  0  0  0
 22 24  2  0  0  0  0
M  END
>  <minimizedAffinity>
-4.19258785

$$$$

 OpenBabel03242520173D

 24 26  0  0  0  0  0  0  0  0999 V2000
   36.7060   28.7930   41.2960 C   0  0  0  0  0  0  0  0  0  0  0  0
   36.8600   28.4790   39.9290 C   0  0  0  0  0  0  0  0  0  0  0  0
   36.8630   29.5180   38.9780 C   0  0  0  0  0  0  0  0  0  0  0  0
   36.7130   30.7850   39.4540 N   0  0  0  0  0  0  0  0  0  0  0  0
   36.5660   31.0430   40.7790 C   0  0  0  0  0  0  0  0  0  0  0  0
   36.5640   30.0610   41.6780 N   0  0  0  0  0  0  0  0  0  0  0  0
   36.9800   27.4890   39.5500 H   0  0  0  0  0  0  0  0  0  0  0  0
   36.4500   32.0690   41.1050 H   0  0  0  0  0  0  0  0  0  0  0  0
   36.6980   27.6760   42.2640 C   0  0  0  0  0  0  0  0  0  0  0  0
   38.1090   27.3910   42.8510 C   0  0  0  0  0  0  0  0  0  0  0  0
   36.9500   27.8500   43.6790 C   0  0  0  0  0  0  0  0  0  0  0  0
   36.1530   26.7710   41.9110 H   0  0  0  0  0  0  0  0  0  0  0  0
   38.9230   28.0900   42.5920 H   0  0  0  0  0  0  0  0  0  0  0  0
   38.3530   26.3130   42.8970 H   0  0  0  0  0  0  0  0  0  0  0  0
   37.0700   28.8760   44.1190 H   0  0  0  0  0  0  0  0  0  0  0  0
   36.5330   27.1240   44.3870 H   0  0  0  0  0  0  0  0  0  0  0  0
   37.0200   29.2620   37.5500 C   0  0  0  0  0  0  0  0  0  0  0  0
   38.1800   28.7850   36.9740 C   0  0  0  0  0  0  0  0  0  0  0  0
   39.1400   28.5160   37.3940 H   0  0  0  0  0  0  0  0  0  0  0  0
   37.8730   28.7040   35.6600 N   0  0  0  0  0  0  0  0  0  0  0  0
   38.5360   28.3700   34.9000 H   0  0  0  0  0  0  0  0  0  0  0  0
   36.5950   29.1030   35.3960 C   0  0  0  0  0  0  0  0  0  0  0  0
   36.1620   29.1110   34.4070 H   0  0  0  0  0  0  0  0  0  0  0  0
   36.0770   29.4510   36.6100 N   0  0  0  0  0  0  0  0  0  0  0  0
  1  6  1  0  0  0  0
  1  9  1  0  0  0  0
  2  1  2  0  0  0  0
  3  4  2  0  0  0  0
  3  2  1  0  0  0  0
  4  5  1  0  0  0  0
  5  8  1  0  0  0  0
  5  6  2  0  0  0  0
  7  2  1  0  0  0  0
  9 10  1  0  0  0  0
  9 11  1  0  0  0  0
 10 14  1  0  0  0  0
 10 11  1  0  0  0  0
 11 15  1  0  0  0  0
 11 16  1  0  0  0  0
 12  9  1  0  0  0  0
 13 10  1  0  0  0  0
 17  3  1  0  0  0  0
 18 19  1  0  0  0  0
 18 17  2  0  0  0  0
 20 18  1  0  0  0  0
 21 20  1  0  0  0  0
 22 20  1  0  0  0  0
 22 24  2  0  0  0  0
 23 22  1  0  0  0  0
 24 17  1  0  0  0  0
M  END
>  <minimizedAffinity>
-4.06438446

$$$$

 OpenBabel03242520173D

 24 26  0  0  0  0  0  0  0  0999 V2000
   37.1500   26.9850   41.6660 C   0  0  0  0  0  0  0  0  0  0  0  0
   37.0990   28.0380   40.7290 C   0  0  0  0  0  0  0  0  0  0  0  0
   37.2390   29.3660   41.1740 C   0  0  0  0  0  0  0  0  0  0  0  0
   37.4180   29.5480   42.5120 N   0  0  0  0  0  0  0  0  0  0  0  0
   37.4590   28.5060   43.3810 C   0  0  0  0  0  0  0  0  0  0  0  0
   37.3280   27.2500   42.9590 N   0  0  0  0  0  0  0  0  0  0  0  0
   36.9610   27.9010   39.6790 H   0  0  0  0  0  0  0  0  0  0  0  0
   37.6030   28.7060   44.4350 H   0  0  0  0  0  0  0  0  0  0  0  0
   36.9890   25.6040   41.1640 C   0  0  0  0  0  0  0  0  0  0  0  0
   38.3100   24.7880   41.2390 C   0  0  0  0  0  0  0  0  0  0  0  0
   37.0790   24.4350   42.0110 C   0  0  0  0  0  0  0  0  0  0  0  0
   36.4580   25.5340   40.1860 H   0  0  0  0  0  0  0  0  0  0  0  0
   39.1730   25.2560   41.7450 H   0  0  0  0  0  0  0  0  0  0  0  0
   38.5100   24.1950   40.3270 H   0  0  0  0  0  0  0  0  0  0  0  0
   37.1820   24.5390   43.1240 H   0  0  0  0  0  0  0  0  0  0  0  0
   36.5560   23.5180   41.7110 H   0  0  0  0  0  0  0  0  0  0  0  0
   37.1980   30.5010   40.2570 C   0  0  0  0  0  0  0  0  0  0  0  0
   37.1170   30.3810   38.8840 C   0  0  0  0  0  0  0  0  0  0  0  0
   37.0690   29.5180   38.2340 H   0  0  0  0  0  0  0  0  0  0  0  0
   37.1060   31.6610   38.4530 N   0  0  0  0  0  0  0  0  0  0  0  0
   37.0490   31.9600   37.4340 H   0  0  0  0  0  0  0  0  0  0  0  0
   37.1750   32.5590   39.4780 C   0  0  0  0  0  0  0  0  0  0  0  0
   37.1780   33.6300   39.3380 H   0  0  0  0  0  0  0  0  0  0  0  0
   37.2330   31.7980   40.6090 N   0  0  0  0  0  0  0  0  0  0  0  0
  1  6  1  0  0  0  0
  2  3  1  0  0  0  0
  2  1  2  0  0  0  0
  3  4  2  0  0  0  0
  4  5  1  0  0  0  0
  5  8  1  0  0  0  0
  6  5  2  0  0  0  0
  7  2  1  0  0  0  0
  9 10  1  0  0  0  0
  9  1  1  0  0  0  0
  9 11  1  0  0  0  0
 10 13  1  0  0  0  0
 10 11  1  0  0  0  0
 11 15  1  0  0  0  0
 12  9  1  0  0  0  0
 14 10  1  0  0  0  0
 16 11  1  0  0  0  0
 17 24  1  0  0  0  0
 17  3  1  0  0  0  0
 18 17  2  0  0  0  0
 19 18  1  0  0  0  0
 20 18  1  0  0  0  0
 20 22  1  0  0  0  0
 21 20  1  0  0  0  0
 22 24  2  0  0  0  0
 23 22  1  0  0  0  0
M  END
>  <minimizedAffinity>
-4.04625845

$$$$
