
 OpenBabel03242521013D

 26 28  0  0  0  0  0  0  0  0999 V2000
   46.7540   34.7910   42.0470 C   0  0  0  0  0  0  0  0  0  0  0  0
   47.9840   35.3620   41.8560 C   0  0  0  0  0  0  0  0  0  0  0  0
   48.7260   35.2500   40.6920 C   0  0  0  0  0  0  0  0  0  0  0  0
   48.2070   34.5200   39.6480 C   0  0  0  0  0  0  0  0  0  0  0  0
   46.9780   33.9620   39.8680 C   0  0  0  0  0  0  0  0  0  0  0  0
   46.2960   34.0930   41.0040 N   0  0  0  0  0  0  0  0  0  0  0  0
   48.4490   35.9530   42.6470 H   0  0  0  0  0  0  0  0  0  0  0  0
   49.7020   35.7310   40.6040 H   0  0  0  0  0  0  0  0  0  0  0  0
   48.7550   34.4090   38.7200 H   0  0  0  0  0  0  0  0  0  0  0  0
   44.4640   35.9410   44.8220 C   0  0  0  0  0  0  0  0  0  0  0  0
   45.1080   35.9430   43.5830 C   0  0  0  0  0  0  0  0  0  0  0  0
   46.0050   34.9310   43.2890 C   0  0  0  0  0  0  0  0  0  0  0  0
   46.2080   33.9760   44.2430 N   0  0  0  0  0  0  0  0  0  0  0  0
   45.5780   33.9890   45.4370 C   0  0  0  0  0  0  0  0  0  0  0  0
   44.7120   34.9650   45.7220 N   0  0  0  0  0  0  0  0  0  0  0  0
   43.7660   36.7560   45.0110 H   0  0  0  0  0  0  0  0  0  0  0  0
   44.9650   36.6780   42.8210 H   0  0  0  0  0  0  0  0  0  0  0  0
   45.8320   33.1710   46.1020 H   0  0  0  0  0  0  0  0  0  0  0  0
   46.3480   33.1640   38.8030 C   0  0  0  0  0  0  0  0  0  0  0  0
   46.6290   33.2330   37.4570 C   0  0  0  0  0  0  0  0  0  0  0  0
   47.3730   33.9130   37.0360 H   0  0  0  0  0  0  0  0  0  0  0  0
   45.8870   32.3770   36.7350 N   0  0  0  0  0  0  0  0  0  0  0  0
   45.8850   32.2130   35.7060 H   0  0  0  0  0  0  0  0  0  0  0  0
   45.1230   31.7600   37.6720 C   0  0  0  0  0  0  0  0  0  0  0  0
   44.3770   30.9880   37.5130 H   0  0  0  0  0  0  0  0  0  0  0  0
   45.3940   32.2240   38.9030 N   0  0  0  0  0  0  0  0  0  0  0  0
  1 12  1  0  0  0  0
  2  1  1  0  0  0  0
  2  7  1  0  0  0  0
  3  2  2  0  0  0  0
  4  5  2  0  0  0  0
  4  3  1  0  0  0  0
  5  6  1  0  0  0  0
  6  1  2  0  0  0  0
  8  3  1  0  0  0  0
  9  4  1  0  0  0  0
 10 16  1  0  0  0  0
 10 15  1  0  0  0  0
 11 10  2  0  0  0  0
 12 11  1  0  0  0  0
 12 13  2  0  0  0  0
 13 14  1  0  0  0  0
 14 15  2  0  0  0  0
 14 18  1  0  0  0  0
 17 11  1  0  0  0  0
 19 26  1  0  0  0  0
 19  5  1  0  0  0  0
 20 19  2  0  0  0  0
 21 20  1  0  0  0  0
 22 20  1  0  0  0  0
 22 24  1  0  0  0  0
 23 22  1  0  0  0  0
 24 26  2  0  0  0  0
 25 24  1  0  0  0  0
M  END
>  <minimizedAffinity>
-5.25740147

>  <minimizedRMSD>
0.16235888

$$$$
