
 OpenBabel03252502423D

 23 24  0  0  0  0  0  0  0  0999 V2000
   37.5080   28.2770   43.1440 C   0  0  0  0  0  0  0  0  0  0  0  0
   36.8290   28.3200   44.0130 H   0  0  0  0  0  0  0  0  0  0  0  0
   38.2420   29.0850   43.2500 H   0  0  0  0  0  0  0  0  0  0  0  0
   40.1600   25.6280   43.5890 C   0  0  0  0  0  0  0  0  0  0  0  0
   39.4810   26.8710   43.6790 C   0  0  0  0  0  0  0  0  0  0  0  0
   38.2410   26.9930   43.0680 C   0  0  0  0  0  0  0  0  0  0  0  0
   37.7450   25.9040   42.4140 N   0  0  0  0  0  0  0  0  0  0  0  0
   38.4230   24.7340   42.3510 C   0  0  0  0  0  0  0  0  0  0  0  0
   39.6200   24.5900   42.9310 N   0  0  0  0  0  0  0  0  0  0  0  0
   41.1330   25.4950   44.0550 H   0  0  0  0  0  0  0  0  0  0  0  0
   39.9450   27.6750   44.2120 H   0  0  0  0  0  0  0  0  0  0  0  0
   37.8770   23.9840   41.7930 H   0  0  0  0  0  0  0  0  0  0  0  0
   36.7030   28.4560   41.8610 C   0  0  0  0  0  0  0  0  0  0  0  0
   35.6380   28.2580   42.0180 H   0  0  0  0  0  0  0  0  0  0  0  0
   37.0790   27.7070   41.1450 H   0  0  0  0  0  0  0  0  0  0  0  0
   36.9410   29.8500   41.4010 C   0  0  0  0  0  0  0  0  0  0  0  0
   36.0850   30.8670   41.0300 C   0  0  0  0  0  0  0  0  0  0  0  0
   35.0240   30.7250   41.0420 H   0  0  0  0  0  0  0  0  0  0  0  0
   36.7930   31.9580   40.6870 N   0  0  0  0  0  0  0  0  0  0  0  0
   36.4280   32.8740   40.3670 H   0  0  0  0  0  0  0  0  0  0  0  0
   38.0970   31.6030   40.8520 C   0  0  0  0  0  0  0  0  0  0  0  0
   38.9550   32.2660   40.6580 H   0  0  0  0  0  0  0  0  0  0  0  0
   38.2120   30.3250   41.2850 N   0  0  0  0  0  0  0  0  0  0  0  0
  1  3  1  0  0  0  0
  1  2  1  0  0  0  0
  4  5  1  0  0  0  0
  4 10  1  0  0  0  0
  5 11  1  0  0  0  0
  6  1  1  0  0  0  0
  6  5  2  0  0  0  0
  7  6  1  0  0  0  0
  8  7  2  0  0  0  0
  8  9  1  0  0  0  0
  9  4  2  0  0  0  0
 12  8  1  0  0  0  0
 13 14  1  0  0  0  0
 13  1  1  0  0  0  0
 15 13  1  0  0  0  0
 16 13  1  0  0  0  0
 17 18  1  0  0  0  0
 17 16  2  0  0  0  0
 19 21  1  0  0  0  0
 19 17  1  0  0  0  0
 20 19  1  0  0  0  0
 21 23  2  0  0  0  0
 22 21  1  0  0  0  0
 23 16  1  0  0  0  0
M  END
>  <minimizedAffinity>
-4.16889906

$$$$

 OpenBabel03252502423D

 23 24  0  0  0  0  0  0  0  0999 V2000
   37.7970   28.4380   43.5250 C   0  0  0  0  0  0  0  0  0  0  0  0
   36.7310   28.6560   43.3350 H   0  0  0  0  0  0  0  0  0  0  0  0
   37.9850   28.5920   44.5950 H   0  0  0  0  0  0  0  0  0  0  0  0
   37.6450   24.9340   42.1300 C   0  0  0  0  0  0  0  0  0  0  0  0
   37.2770   26.2710   42.4370 C   0  0  0  0  0  0  0  0  0  0  0  0
   38.1520   27.0410   43.1890 C   0  0  0  0  0  0  0  0  0  0  0  0
   39.3210   26.4650   43.5910 N   0  0  0  0  0  0  0  0  0  0  0  0
   39.6360   25.1870   43.2770 C   0  0  0  0  0  0  0  0  0  0  0  0
   38.8110   24.4220   42.5540 N   0  0  0  0  0  0  0  0  0  0  0  0
   36.9850   24.3010   41.5430 H   0  0  0  0  0  0  0  0  0  0  0  0
   36.3390   26.6420   42.0800 H   0  0  0  0  0  0  0  0  0  0  0  0
   40.6000   24.9030   43.6800 H   0  0  0  0  0  0  0  0  0  0  0  0
   38.6630   29.3770   42.6930 C   0  0  0  0  0  0  0  0  0  0  0  0
   39.3870   28.8290   42.0820 H   0  0  0  0  0  0  0  0  0  0  0  0
   39.2320   29.9970   43.4060 H   0  0  0  0  0  0  0  0  0  0  0  0
   37.7350   30.1830   41.8570 C   0  0  0  0  0  0  0  0  0  0  0  0
   36.3790   30.0890   41.6170 C   0  0  0  0  0  0  0  0  0  0  0  0
   35.7910   29.3210   42.0740 H   0  0  0  0  0  0  0  0  0  0  0  0
   35.9950   31.0660   40.7750 N   0  0  0  0  0  0  0  0  0  0  0  0
   35.0410   31.2500   40.4120 H   0  0  0  0  0  0  0  0  0  0  0  0
   37.1310   31.7640   40.4980 C   0  0  0  0  0  0  0  0  0  0  0  0
   37.1790   32.6410   39.8340 H   0  0  0  0  0  0  0  0  0  0  0  0
   38.2010   31.2460   41.1450 N   0  0  0  0  0  0  0  0  0  0  0  0
  1  3  1  0  0  0  0
  2  1  1  0  0  0  0
  4  5  2  0  0  0  0
  4  9  1  0  0  0  0
  5  6  1  0  0  0  0
  6  1  1  0  0  0  0
  6  7  2  0  0  0  0
  8  7  1  0  0  0  0
  8 12  1  0  0  0  0
  9  8  2  0  0  0  0
 10  4  1  0  0  0  0
 11  5  1  0  0  0  0
 13 15  1  0  0  0  0
 13  1  1  0  0  0  0
 14 13  1  0  0  0  0
 16 13  1  0  0  0  0
 17 16  2  0  0  0  0
 17 18  1  0  0  0  0
 19 17  1  0  0  0  0
 20 19  1  0  0  0  0
 21 19  1  0  0  0  0
 21 23  2  0  0  0  0
 22 21  1  0  0  0  0
 23 16  1  0  0  0  0
M  END
>  <minimizedAffinity>
-4.11475468

$$$$

 OpenBabel03252502423D

 23 24  0  0  0  0  0  0  0  0999 V2000
   39.1330   30.2700   42.5270 C   0  0  0  0  0  0  0  0  0  0  0  0
   38.5620   31.1020   42.9750 H   0  0  0  0  0  0  0  0  0  0  0  0
   40.0470   30.1320   43.1170 H   0  0  0  0  0  0  0  0  0  0  0  0
   36.8070   27.4920   43.5870 C   0  0  0  0  0  0  0  0  0  0  0  0
   37.5210   28.7200   43.5990 C   0  0  0  0  0  0  0  0  0  0  0  0
   38.3750   28.9980   42.5420 C   0  0  0  0  0  0  0  0  0  0  0  0
   38.4800   28.0710   41.5480 N   0  0  0  0  0  0  0  0  0  0  0  0
   37.7820   26.9110   41.5720 C   0  0  0  0  0  0  0  0  0  0  0  0
   36.9520   26.6180   42.5790 N   0  0  0  0  0  0  0  0  0  0  0  0
   36.1290   27.2400   44.3970 H   0  0  0  0  0  0  0  0  0  0  0  0
   37.3780   29.3900   44.4210 H   0  0  0  0  0  0  0  0  0  0  0  0
   37.9910   26.3010   40.7020 H   0  0  0  0  0  0  0  0  0  0  0  0
   39.4810   30.6140   41.0820 C   0  0  0  0  0  0  0  0  0  0  0  0
   39.3180   29.7650   40.4110 H   0  0  0  0  0  0  0  0  0  0  0  0
   40.5590   30.8490   41.0640 H   0  0  0  0  0  0  0  0  0  0  0  0
   38.6390   31.7820   40.7080 C   0  0  0  0  0  0  0  0  0  0  0  0
   37.2940   31.9080   40.4310 C   0  0  0  0  0  0  0  0  0  0  0  0
   36.6430   31.0590   40.4620 H   0  0  0  0  0  0  0  0  0  0  0  0
   37.0050   33.1890   40.1410 N   0  0  0  0  0  0  0  0  0  0  0  0
   36.0810   33.5890   39.8920 H   0  0  0  0  0  0  0  0  0  0  0  0
   38.1900   33.8530   40.2440 C   0  0  0  0  0  0  0  0  0  0  0  0
   38.3180   34.9330   40.0710 H   0  0  0  0  0  0  0  0  0  0  0  0
   39.1980   33.0180   40.5890 N   0  0  0  0  0  0  0  0  0  0  0  0
  1  6  1  0  0  0  0
  1  2  1  0  0  0  0
  1  3  1  0  0  0  0
  4  5  1  0  0  0  0
  4 10  1  0  0  0  0
  5 11  1  0  0  0  0
  6  5  2  0  0  0  0
  7  8  2  0  0  0  0
  7  6  1  0  0  0  0
  8  9  1  0  0  0  0
  9  4  2  0  0  0  0
 12  8  1  0  0  0  0
 13  1  1  0  0  0  0
 14 13  1  0  0  0  0
 15 13  1  0  0  0  0
 16 13  1  0  0  0  0
 17 18  1  0  0  0  0
 17 16  2  0  0  0  0
 19 21  1  0  0  0  0
 19 17  1  0  0  0  0
 20 19  1  0  0  0  0
 21 23  2  0  0  0  0
 22 21  1  0  0  0  0
 23 16  1  0  0  0  0
M  END
>  <minimizedAffinity>
-4.05941248

$$$$

 OpenBabel03252502423D

 23 24  0  0  0  0  0  0  0  0999 V2000
   37.7160   28.1240   43.4310 C   0  0  0  0  0  0  0  0  0  0  0  0
   38.6490   27.5810   43.6660 H   0  0  0  0  0  0  0  0  0  0  0  0
   37.2700   28.4500   44.3780 H   0  0  0  0  0  0  0  0  0  0  0  0
   39.3940   31.1130   41.8500 C   0  0  0  0  0  0  0  0  0  0  0  0
   39.1890   29.9660   42.6610 C   0  0  0  0  0  0  0  0  0  0  0  0
   37.9610   29.3220   42.5970 C   0  0  0  0  0  0  0  0  0  0  0  0
   37.0190   29.8320   41.7540 N   0  0  0  0  0  0  0  0  0  0  0  0
   37.2530   30.9280   40.9950 C   0  0  0  0  0  0  0  0  0  0  0  0
   38.4270   31.5680   41.0370 N   0  0  0  0  0  0  0  0  0  0  0  0
   40.3420   31.6420   41.8730 H   0  0  0  0  0  0  0  0  0  0  0  0
   39.9840   29.6340   43.2950 H   0  0  0  0  0  0  0  0  0  0  0  0
   36.3940   31.1870   40.3890 H   0  0  0  0  0  0  0  0  0  0  0  0
   36.7630   27.1960   42.6860 C   0  0  0  0  0  0  0  0  0  0  0  0
   36.4510   27.6180   41.7260 H   0  0  0  0  0  0  0  0  0  0  0  0
   35.8610   27.0990   43.3140 H   0  0  0  0  0  0  0  0  0  0  0  0
   37.4760   25.9020   42.5140 C   0  0  0  0  0  0  0  0  0  0  0  0
   37.0570   24.6590   42.0850 C   0  0  0  0  0  0  0  0  0  0  0  0
   36.0400   24.4890   41.7990 H   0  0  0  0  0  0  0  0  0  0  0  0
   38.0910   23.7980   42.1040 N   0  0  0  0  0  0  0  0  0  0  0  0
   38.0840   22.7960   41.8370 H   0  0  0  0  0  0  0  0  0  0  0  0
   39.1530   24.5250   42.5480 C   0  0  0  0  0  0  0  0  0  0  0  0
   40.1700   24.1270   42.6840 H   0  0  0  0  0  0  0  0  0  0  0  0
   38.8030   25.8080   42.8030 N   0  0  0  0  0  0  0  0  0  0  0  0
  1  2  1  0  0  0  0
  1  3  1  0  0  0  0
  4 10  1  0  0  0  0
  4  5  1  0  0  0  0
  5 11  1  0  0  0  0
  6  5  2  0  0  0  0
  6  1  1  0  0  0  0
  7  6  1  0  0  0  0
  8  9  1  0  0  0  0
  8  7  2  0  0  0  0
  9  4  2  0  0  0  0
 12  8  1  0  0  0  0
 13 15  1  0  0  0  0
 13  1  1  0  0  0  0
 14 13  1  0  0  0  0
 16 13  1  0  0  0  0
 16 23  1  0  0  0  0
 17 19  1  0  0  0  0
 17 16  2  0  0  0  0
 18 17  1  0  0  0  0
 19 21  1  0  0  0  0
 20 19  1  0  0  0  0
 21 22  1  0  0  0  0
 21 23  2  0  0  0  0
M  END
>  <minimizedAffinity>
-4.04132748

$$$$

 OpenBabel03252502423D

 23 24  0  0  0  0  0  0  0  0999 V2000
   36.2170   30.7310   41.0560 C   0  0  0  0  0  0  0  0  0  0  0  0
   35.1460   30.6990   40.7900 H   0  0  0  0  0  0  0  0  0  0  0  0
   36.3410   31.4620   41.8640 H   0  0  0  0  0  0  0  0  0  0  0  0
   37.0020   27.0440   41.2510 C   0  0  0  0  0  0  0  0  0  0  0  0
   36.5150   28.2860   40.7650 C   0  0  0  0  0  0  0  0  0  0  0  0
   36.7140   29.4220   41.5360 C   0  0  0  0  0  0  0  0  0  0  0  0
   37.3710   29.2770   42.7230 N   0  0  0  0  0  0  0  0  0  0  0  0
   37.8210   28.0760   43.1520 C   0  0  0  0  0  0  0  0  0  0  0  0
   37.6420   26.9650   42.4290 N   0  0  0  0  0  0  0  0  0  0  0  0
   36.8650   26.1330   40.6750 H   0  0  0  0  0  0  0  0  0  0  0  0
   36.0100   28.3080   39.8220 H   0  0  0  0  0  0  0  0  0  0  0  0
   38.3170   28.1530   44.1120 H   0  0  0  0  0  0  0  0  0  0  0  0
   37.0310   31.1450   39.8350 C   0  0  0  0  0  0  0  0  0  0  0  0
   36.3940   31.5220   39.0300 H   0  0  0  0  0  0  0  0  0  0  0  0
   37.5310   30.2340   39.4650 H   0  0  0  0  0  0  0  0  0  0  0  0
   38.0000   32.1740   40.2990 C   0  0  0  0  0  0  0  0  0  0  0  0
   39.1720   32.0880   41.0230 C   0  0  0  0  0  0  0  0  0  0  0  0
   39.5410   31.1440   41.3650 H   0  0  0  0  0  0  0  0  0  0  0  0
   39.6950   33.3160   41.1910 N   0  0  0  0  0  0  0  0  0  0  0  0
   40.5680   33.5690   41.6910 H   0  0  0  0  0  0  0  0  0  0  0  0
   38.8330   34.1610   40.5600 C   0  0  0  0  0  0  0  0  0  0  0  0
   38.9580   35.2530   40.5010 H   0  0  0  0  0  0  0  0  0  0  0  0
   37.7940   33.4880   40.0100 N   0  0  0  0  0  0  0  0  0  0  0  0
  1  6  1  0  0  0  0
  1  3  1  0  0  0  0
  2  1  1  0  0  0  0
  4  9  1  0  0  0  0
  5  4  2  0  0  0  0
  5  6  1  0  0  0  0
  6  7  2  0  0  0  0
  7  8  1  0  0  0  0
  8 12  1  0  0  0  0
  9  8  2  0  0  0  0
 10  4  1  0  0  0  0
 11  5  1  0  0  0  0
 13 16  1  0  0  0  0
 13  1  1  0  0  0  0
 14 13  1  0  0  0  0
 15 13  1  0  0  0  0
 16 17  2  0  0  0  0
 17 19  1  0  0  0  0
 17 18  1  0  0  0  0
 19 20  1  0  0  0  0
 21 19  1  0  0  0  0
 22 21  1  0  0  0  0
 23 16  1  0  0  0  0
 23 21  2  0  0  0  0
M  END
>  <minimizedAffinity>
-3.97151375

$$$$

 OpenBabel03252502423D

 23 24  0  0  0  0  0  0  0  0999 V2000
   36.3340   30.7490   40.3280 C   0  0  0  0  0  0  0  0  0  0  0  0
   36.3150   30.3260   39.3090 H   0  0  0  0  0  0  0  0  0  0  0  0
   35.3070   31.0220   40.5980 H   0  0  0  0  0  0  0  0  0  0  0  0
   36.7180   27.6350   42.4270 C   0  0  0  0  0  0  0  0  0  0  0  0
   36.2160   28.5450   41.4580 C   0  0  0  0  0  0  0  0  0  0  0  0
   36.8340   29.7800   41.3290 C   0  0  0  0  0  0  0  0  0  0  0  0
   37.8940   30.0490   42.1440 N   0  0  0  0  0  0  0  0  0  0  0  0
   38.3430   29.1550   43.0550 C   0  0  0  0  0  0  0  0  0  0  0  0
   37.7660   27.9580   43.2020 N   0  0  0  0  0  0  0  0  0  0  0  0
   36.2590   26.6590   42.5570 H   0  0  0  0  0  0  0  0  0  0  0  0
   35.3790   28.2510   40.8600 H   0  0  0  0  0  0  0  0  0  0  0  0
   39.1900   29.5410   43.6100 H   0  0  0  0  0  0  0  0  0  0  0  0
   37.2330   31.9810   40.3490 C   0  0  0  0  0  0  0  0  0  0  0  0
   37.8830   31.9960   41.2290 H   0  0  0  0  0  0  0  0  0  0  0  0
   36.5660   32.8580   40.4140 H   0  0  0  0  0  0  0  0  0  0  0  0
   38.0170   31.9570   39.0850 C   0  0  0  0  0  0  0  0  0  0  0  0
   37.6440   31.8540   37.7610 C   0  0  0  0  0  0  0  0  0  0  0  0
   36.6130   31.7710   37.4840 H   0  0  0  0  0  0  0  0  0  0  0  0
   38.7360   31.8790   36.9750 N   0  0  0  0  0  0  0  0  0  0  0  0
   38.7720   31.8200   35.9410 H   0  0  0  0  0  0  0  0  0  0  0  0
   39.7880   31.9990   37.8310 C   0  0  0  0  0  0  0  0  0  0  0  0
   40.8430   32.0490   37.5220 H   0  0  0  0  0  0  0  0  0  0  0  0
   39.3750   32.0480   39.1200 N   0  0  0  0  0  0  0  0  0  0  0  0
  1 13  1  0  0  0  0
  1  3  1  0  0  0  0
  1  6  1  0  0  0  0
  2  1  1  0  0  0  0
  4 10  1  0  0  0  0
  4  9  1  0  0  0  0
  5  4  2  0  0  0  0
  6  5  1  0  0  0  0
  6  7  2  0  0  0  0
  7  8  1  0  0  0  0
  8  9  2  0  0  0  0
  8 12  1  0  0  0  0
 11  5  1  0  0  0  0
 13 15  1  0  0  0  0
 13 14  1  0  0  0  0
 16 23  1  0  0  0  0
 16 13  1  0  0  0  0
 17 16  2  0  0  0  0
 18 17  1  0  0  0  0
 19 17  1  0  0  0  0
 19 21  1  0  0  0  0
 20 19  1  0  0  0  0
 21 23  2  0  0  0  0
 22 21  1  0  0  0  0
M  END
>  <minimizedAffinity>
-3.94449425

$$$$

 OpenBabel03252502423D

 23 24  0  0  0  0  0  0  0  0999 V2000
   36.6750   27.5310   42.8190 C   0  0  0  0  0  0  0  0  0  0  0  0
   36.2780   27.7650   43.8220 H   0  0  0  0  0  0  0  0  0  0  0  0
   36.0630   26.7260   42.3940 H   0  0  0  0  0  0  0  0  0  0  0  0
   35.6100   29.8610   40.0470 C   0  0  0  0  0  0  0  0  0  0  0  0
   35.6470   28.7330   40.9080 C   0  0  0  0  0  0  0  0  0  0  0  0
   36.6110   28.6940   41.9050 C   0  0  0  0  0  0  0  0  0  0  0  0
   37.4700   29.7490   42.0010 N   0  0  0  0  0  0  0  0  0  0  0  0
   37.4020   30.8070   41.1610 C   0  0  0  0  0  0  0  0  0  0  0  0
   36.4840   30.8700   40.1900 N   0  0  0  0  0  0  0  0  0  0  0  0
   34.8700   29.9270   39.2550 H   0  0  0  0  0  0  0  0  0  0  0  0
   34.9340   27.9490   40.7610 H   0  0  0  0  0  0  0  0  0  0  0  0
   38.1610   31.5460   41.3860 H   0  0  0  0  0  0  0  0  0  0  0  0
   38.1280   27.0840   42.9400 C   0  0  0  0  0  0  0  0  0  0  0  0
   38.4980   27.1780   43.9650 H   0  0  0  0  0  0  0  0  0  0  0  0
   38.7220   27.7670   42.3090 H   0  0  0  0  0  0  0  0  0  0  0  0
   38.1820   25.6770   42.4610 C   0  0  0  0  0  0  0  0  0  0  0  0
   39.1680   24.7130   42.5170 C   0  0  0  0  0  0  0  0  0  0  0  0
   40.1140   24.9180   42.9740 H   0  0  0  0  0  0  0  0  0  0  0  0
   38.7320   23.5810   41.9360 N   0  0  0  0  0  0  0  0  0  0  0  0
   39.2470   22.6870   41.8260 H   0  0  0  0  0  0  0  0  0  0  0  0
   37.4650   23.8580   41.5210 C   0  0  0  0  0  0  0  0  0  0  0  0
   36.8070   23.1440   41.0010 H   0  0  0  0  0  0  0  0  0  0  0  0
   37.1090   25.1270   41.8300 N   0  0  0  0  0  0  0  0  0  0  0  0
  1 13  1  0  0  0  0
  1  2  1  0  0  0  0
  3  1  1  0  0  0  0
  4  9  2  0  0  0  0
  4  5  1  0  0  0  0
  5  6  2  0  0  0  0
  6  7  1  0  0  0  0
  6  1  1  0  0  0  0
  8 12  1  0  0  0  0
  8  7  2  0  0  0  0
  9  8  1  0  0  0  0
 10  4  1  0  0  0  0
 11  5  1  0  0  0  0
 13 14  1  0  0  0  0
 15 13  1  0  0  0  0
 16 17  2  0  0  0  0
 16 13  1  0  0  0  0
 17 18  1  0  0  0  0
 19 17  1  0  0  0  0
 20 19  1  0  0  0  0
 21 23  2  0  0  0  0
 21 19  1  0  0  0  0
 22 21  1  0  0  0  0
 23 16  1  0  0  0  0
M  END
>  <minimizedAffinity>
-3.9072907

$$$$

 OpenBabel03252502423D

 23 24  0  0  0  0  0  0  0  0999 V2000
   36.5400   27.9500   39.3300 C   0  0  0  0  0  0  0  0  0  0  0  0
   37.4780   28.5110   39.1710 H   0  0  0  0  0  0  0  0  0  0  0  0
   36.2190   27.5510   38.3610 H   0  0  0  0  0  0  0  0  0  0  0  0
   37.1810   25.9520   42.4680 C   0  0  0  0  0  0  0  0  0  0  0  0
   37.0170   27.0610   41.5960 C   0  0  0  0  0  0  0  0  0  0  0  0
   36.7170   26.8160   40.2640 C   0  0  0  0  0  0  0  0  0  0  0  0
   36.5960   25.5160   39.8680 N   0  0  0  0  0  0  0  0  0  0  0  0
   36.7590   24.4860   40.7300 C   0  0  0  0  0  0  0  0  0  0  0  0
   37.0500   24.6940   42.0190 N   0  0  0  0  0  0  0  0  0  0  0  0
   37.4160   26.1050   43.5170 H   0  0  0  0  0  0  0  0  0  0  0  0
   37.1300   28.0490   41.9910 H   0  0  0  0  0  0  0  0  0  0  0  0
   36.6260   23.5290   40.2400 H   0  0  0  0  0  0  0  0  0  0  0  0
   35.4790   28.8880   39.8960 C   0  0  0  0  0  0  0  0  0  0  0  0
   35.1260   28.5590   40.8780 H   0  0  0  0  0  0  0  0  0  0  0  0
   34.6200   28.8470   39.2040 H   0  0  0  0  0  0  0  0  0  0  0  0
   36.0940   30.2410   39.9560 C   0  0  0  0  0  0  0  0  0  0  0  0
   36.3210   31.1140   41.0000 C   0  0  0  0  0  0  0  0  0  0  0  0
   36.0350   30.8630   42.0000 H   0  0  0  0  0  0  0  0  0  0  0  0
   36.9150   32.2300   40.5410 N   0  0  0  0  0  0  0  0  0  0  0  0
   37.2070   33.0620   41.0870 H   0  0  0  0  0  0  0  0  0  0  0  0
   37.0540   32.0340   39.2000 C   0  0  0  0  0  0  0  0  0  0  0  0
   37.5070   32.7590   38.5060 H   0  0  0  0  0  0  0  0  0  0  0  0
   36.5620   30.8310   38.8210 N   0  0  0  0  0  0  0  0  0  0  0  0
  1 13  1  0  0  0  0
  1  6  1  0  0  0  0
  2  1  1  0  0  0  0
  3  1  1  0  0  0  0
  4 10  1  0  0  0  0
  5 11  1  0  0  0  0
  5  4  2  0  0  0  0
  6  5  1  0  0  0  0
  7  6  2  0  0  0  0
  7  8  1  0  0  0  0
  8  9  2  0  0  0  0
  9  4  1  0  0  0  0
 12  8  1  0  0  0  0
 13 16  1  0  0  0  0
 13 14  1  0  0  0  0
 15 13  1  0  0  0  0
 16 17  2  0  0  0  0
 17 18  1  0  0  0  0
 19 17  1  0  0  0  0
 19 20  1  0  0  0  0
 21 19  1  0  0  0  0
 22 21  1  0  0  0  0
 23 21  2  0  0  0  0
 23 16  1  0  0  0  0
M  END
>  <minimizedAffinity>
-3.7699492

$$$$

 OpenBabel03252502423D

 23 24  0  0  0  0  0  0  0  0999 V2000
   38.1080   28.0080   43.4180 C   0  0  0  0  0  0  0  0  0  0  0  0
   38.0010   28.4680   44.4170 H   0  0  0  0  0  0  0  0  0  0  0  0
   37.7390   26.9780   43.4810 H   0  0  0  0  0  0  0  0  0  0  0  0
   36.8720   30.6860   41.0630 C   0  0  0  0  0  0  0  0  0  0  0  0
   37.6450   30.0280   42.0560 C   0  0  0  0  0  0  0  0  0  0  0  0
   37.3210   28.7210   42.3870 C   0  0  0  0  0  0  0  0  0  0  0  0
   36.2730   28.1400   41.7340 N   0  0  0  0  0  0  0  0  0  0  0  0
   35.5600   28.8010   40.7920 C   0  0  0  0  0  0  0  0  0  0  0  0
   35.8500   30.0620   40.4550 N   0  0  0  0  0  0  0  0  0  0  0  0
   37.0950   31.7100   40.7780 H   0  0  0  0  0  0  0  0  0  0  0  0
   38.4500   30.5600   42.5180 H   0  0  0  0  0  0  0  0  0  0  0  0
   34.7700   28.1840   40.3840 H   0  0  0  0  0  0  0  0  0  0  0  0
   39.5770   28.0210   43.0080 C   0  0  0  0  0  0  0  0  0  0  0  0
   40.1800   28.6450   43.6740 H   0  0  0  0  0  0  0  0  0  0  0  0
   39.6200   28.4720   42.0020 H   0  0  0  0  0  0  0  0  0  0  0  0
   40.0330   26.6060   43.0150 C   0  0  0  0  0  0  0  0  0  0  0  0
   41.2860   26.0330   43.1020 C   0  0  0  0  0  0  0  0  0  0  0  0
   42.1640   26.6390   43.1820 H   0  0  0  0  0  0  0  0  0  0  0  0
   41.1780   24.6930   43.0660 N   0  0  0  0  0  0  0  0  0  0  0  0
   41.9440   23.9950   43.1120 H   0  0  0  0  0  0  0  0  0  0  0  0
   39.8430   24.4450   42.9580 C   0  0  0  0  0  0  0  0  0  0  0  0
   39.3960   23.4410   42.9040 H   0  0  0  0  0  0  0  0  0  0  0  0
   39.1270   25.5940   42.9260 N   0  0  0  0  0  0  0  0  0  0  0  0
  1  3  1  0  0  0  0
  1  2  1  0  0  0  0
  4  5  1  0  0  0  0
  5  6  2  0  0  0  0
  5 11  1  0  0  0  0
  6  1  1  0  0  0  0
  7  6  1  0  0  0  0
  8  7  2  0  0  0  0
  9  8  1  0  0  0  0
  9  4  2  0  0  0  0
 10  4  1  0  0  0  0
 12  8  1  0  0  0  0
 13 16  1  0  0  0  0
 13  1  1  0  0  0  0
 13 14  1  0  0  0  0
 15 13  1  0  0  0  0
 16 17  2  0  0  0  0
 17 18  1  0  0  0  0
 19 17  1  0  0  0  0
 19 20  1  0  0  0  0
 21 19  1  0  0  0  0
 22 21  1  0  0  0  0
 23 21  2  0  0  0  0
 23 16  1  0  0  0  0
M  END
>  <minimizedAffinity>
-3.7591517

$$$$
