
 OpenBabel03252508203D

 33 35  0  0  0  0  0  0  0  0999 V2000
   45.7070   34.3410   40.9570 C   0  0  0  0  0  0  0  0  0  0  0  0
   44.3270   34.4940   41.0430 C   0  0  0  0  0  0  0  0  0  0  0  0
   43.6470   35.1690   42.0440 C   0  0  0  0  0  0  0  0  0  0  0  0
   44.4470   35.7240   43.0260 C   0  0  0  0  0  0  0  0  0  0  0  0
   45.8090   35.5860   42.9620 C   0  0  0  0  0  0  0  0  0  0  0  0
   46.4790   34.9090   41.9550 C   0  0  0  0  0  0  0  0  0  0  0  0
   43.7610   34.0240   40.2250 H   0  0  0  0  0  0  0  0  0  0  0  0
   42.5760   35.1910   41.9570 H   0  0  0  0  0  0  0  0  0  0  0  0
   43.9240   36.2490   43.8070 H   0  0  0  0  0  0  0  0  0  0  0  0
   46.2870   36.0790   43.8070 H   0  0  0  0  0  0  0  0  0  0  0  0
   47.9210   34.8930   42.1010 C   0  0  0  0  0  0  0  0  0  0  0  0
   48.9410   35.7440   41.7810 C   0  0  0  0  0  0  0  0  0  0  0  0
   48.8400   36.6920   41.2980 H   0  0  0  0  0  0  0  0  0  0  0  0
   50.1390   35.3270   42.1300 N   0  0  0  0  0  0  0  0  0  0  0  0
   51.0710   35.7570   42.0160 H   0  0  0  0  0  0  0  0  0  0  0  0
   49.9180   34.1410   42.7120 C   0  0  0  0  0  0  0  0  0  0  0  0
   50.5900   33.4140   43.1600 H   0  0  0  0  0  0  0  0  0  0  0  0
   48.6030   33.9050   42.6840 N   0  0  0  0  0  0  0  0  0  0  0  0
   46.3700   33.6030   39.8880 C   0  0  0  0  0  0  0  0  0  0  0  0
   47.4080   33.3850   40.2260 H   0  0  0  0  0  0  0  0  0  0  0  0
   46.3900   34.1150   38.9230 H   0  0  0  0  0  0  0  0  0  0  0  0
   45.7660   32.1950   39.7140 C   0  0  0  0  0  0  0  0  0  0  0  0
   46.5060   31.4790   40.0760 H   0  0  0  0  0  0  0  0  0  0  0  0
   44.7860   32.1230   40.2140 H   0  0  0  0  0  0  0  0  0  0  0  0
   45.5820   32.7400   35.9760 C   0  0  0  0  0  0  0  0  0  0  0  0
   45.7990   33.0140   37.3510 C   0  0  0  0  0  0  0  0  0  0  0  0
   45.5610   31.9860   38.2530 C   0  0  0  0  0  0  0  0  0  0  0  0
   45.1340   30.7830   37.7360 N   0  0  0  0  0  0  0  0  0  0  0  0
   44.9410   30.5590   36.4450 C   0  0  0  0  0  0  0  0  0  0  0  0
   45.1620   31.5310   35.5540 N   0  0  0  0  0  0  0  0  0  0  0  0
   45.7920   33.6010   35.3370 H   0  0  0  0  0  0  0  0  0  0  0  0
   46.1350   33.9840   37.6900 H   0  0  0  0  0  0  0  0  0  0  0  0
   44.6050   29.5810   36.1420 H   0  0  0  0  0  0  0  0  0  0  0  0
  1  2  2  0  0  0  0
  1  6  1  0  0  0  0
  2  3  1  0  0  0  0
  3  4  2  0  0  0  0
  4  9  1  0  0  0  0
  5  4  1  0  0  0  0
  5 10  1  0  0  0  0
  6 11  1  0  0  0  0
  6  5  2  0  0  0  0
  7  2  1  0  0  0  0
  8  3  1  0  0  0  0
 11 18  1  0  0  0  0
 12 11  2  0  0  0  0
 12 14  1  0  0  0  0
 13 12  1  0  0  0  0
 14 16  1  0  0  0  0
 15 14  1  0  0  0  0
 16 17  1  0  0  0  0
 18 16  2  0  0  0  0
 19 20  1  0  0  0  0
 19  1  1  0  0  0  0
 21 19  1  0  0  0  0
 22 19  1  0  0  0  0
 22 23  1  0  0  0  0
 22 24  1  0  0  0  0
 25 26  1  0  0  0  0
 26 32  1  0  0  0  0
 26 27  2  0  0  0  0
 27 22  1  0  0  0  0
 28 27  1  0  0  0  0
 29 28  2  0  0  0  0
 30 25  2  0  0  0  0
 30 29  1  0  0  0  0
 31 25  1  0  0  0  0
 33 29  1  0  0  0  0
M  END
>  <minimizedAffinity>
-4.50335312

>  <minimizedRMSD>
4.81714153

$$$$
