
 OpenBabel03252500473D

 25 27  0  0  0  0  0  0  0  0999 V2000
   38.4260   29.7730   39.7000 C   0  0  0  0  0  0  0  0  0  0  0  0
   37.6860   30.6720   40.4710 C   0  0  0  0  0  0  0  0  0  0  0  0
   36.7180   30.2220   41.3630 C   0  0  0  0  0  0  0  0  0  0  0  0
   36.5330   28.8710   41.4430 N   0  0  0  0  0  0  0  0  0  0  0  0
   37.2550   28.0120   40.6910 C   0  0  0  0  0  0  0  0  0  0  0  0
   38.1890   28.4460   39.8310 N   0  0  0  0  0  0  0  0  0  0  0  0
   39.1790   30.0740   39.0030 H   0  0  0  0  0  0  0  0  0  0  0  0
   36.1470   30.9050   41.9580 H   0  0  0  0  0  0  0  0  0  0  0  0
   37.0200   26.5740   40.8130 C   0  0  0  0  0  0  0  0  0  0  0  0
   37.2040   25.9020   41.9800 C   0  0  0  0  0  0  0  0  0  0  0  0
   36.9920   24.5580   42.1270 C   0  0  0  0  0  0  0  0  0  0  0  0
   36.5710   23.8830   41.0060 N   0  0  0  0  0  0  0  0  0  0  0  0
   36.3920   24.5500   39.8560 C   0  0  0  0  0  0  0  0  0  0  0  0
   36.5990   25.8830   39.7030 N   0  0  0  0  0  0  0  0  0  0  0  0
   37.5370   26.4780   42.8380 H   0  0  0  0  0  0  0  0  0  0  0  0
   37.1620   24.1010   43.0900 H   0  0  0  0  0  0  0  0  0  0  0  0
   36.0600   23.9490   39.0200 H   0  0  0  0  0  0  0  0  0  0  0  0
   37.9590   32.0980   40.3120 C   0  0  0  0  0  0  0  0  0  0  0  0
   37.3500   32.9450   39.4090 C   0  0  0  0  0  0  0  0  0  0  0  0
   36.5870   32.6750   38.6920 H   0  0  0  0  0  0  0  0  0  0  0  0
   37.9260   34.1610   39.6330 N   0  0  0  0  0  0  0  0  0  0  0  0
   37.6320   34.9850   39.0660 H   0  0  0  0  0  0  0  0  0  0  0  0
   38.8440   34.0610   40.6270 C   0  0  0  0  0  0  0  0  0  0  0  0
   39.3840   34.9470   40.9160 H   0  0  0  0  0  0  0  0  0  0  0  0
   38.8580   32.7670   41.0460 N   0  0  0  0  0  0  0  0  0  0  0  0
  1  6  2  0  0  0  0
  1  2  1  0  0  0  0
  2  3  2  0  0  0  0
  3  4  1  0  0  0  0
  3  8  1  0  0  0  0
  5  9  1  0  0  0  0
  5  4  2  0  0  0  0
  6  5  1  0  0  0  0
  7  1  1  0  0  0  0
  9 10  1  0  0  0  0
 10 11  2  0  0  0  0
 10 15  1  0  0  0  0
 11 16  1  0  0  0  0
 12 11  1  0  0  0  0
 13 12  2  0  0  0  0
 14 13  1  0  0  0  0
 14  9  2  0  0  0  0
 17 13  1  0  0  0  0
 18  2  1  0  0  0  0
 18 25  1  0  0  0  0
 19 21  1  0  0  0  0
 19 18  2  0  0  0  0
 20 19  1  0  0  0  0
 21 23  1  0  0  0  0
 22 21  1  0  0  0  0
 23 24  1  0  0  0  0
 23 25  2  0  0  0  0
M  END
>  <minimizedAffinity>
-4.69673681

$$$$

 OpenBabel03252500473D

 25 27  0  0  0  0  0  0  0  0999 V2000
   39.3960   29.9900   40.6970 C   0  0  0  0  0  0  0  0  0  0  0  0
   38.1980   30.6140   41.0550 C   0  0  0  0  0  0  0  0  0  0  0  0
   37.2450   29.9470   41.8170 C   0  0  0  0  0  0  0  0  0  0  0  0
   37.5390   28.6660   42.1910 N   0  0  0  0  0  0  0  0  0  0  0  0
   38.7010   28.0750   41.8380 C   0  0  0  0  0  0  0  0  0  0  0  0
   39.6210   28.7180   41.1020 N   0  0  0  0  0  0  0  0  0  0  0  0
   40.1560   30.4650   40.1130 H   0  0  0  0  0  0  0  0  0  0  0  0
   36.3250   30.4170   42.0970 H   0  0  0  0  0  0  0  0  0  0  0  0
   38.9700   26.7020   42.2620 C   0  0  0  0  0  0  0  0  0  0  0  0
   38.1550   25.6650   41.9320 C   0  0  0  0  0  0  0  0  0  0  0  0
   38.3790   24.3690   42.3130 C   0  0  0  0  0  0  0  0  0  0  0  0
   39.5010   24.1450   43.0740 N   0  0  0  0  0  0  0  0  0  0  0  0
   40.3020   25.1710   43.3980 C   0  0  0  0  0  0  0  0  0  0  0  0
   40.0870   26.4580   43.0240 N   0  0  0  0  0  0  0  0  0  0  0  0
   37.2810   25.8920   41.3300 H   0  0  0  0  0  0  0  0  0  0  0  0
   37.6810   23.6040   42.0080 H   0  0  0  0  0  0  0  0  0  0  0  0
   41.1640   24.9120   43.9980 H   0  0  0  0  0  0  0  0  0  0  0  0
   37.9780   31.9850   40.6060 C   0  0  0  0  0  0  0  0  0  0  0  0
   36.8990   32.4350   39.8710 C   0  0  0  0  0  0  0  0  0  0  0  0
   36.0680   31.8380   39.5240 H   0  0  0  0  0  0  0  0  0  0  0  0
   37.1320   33.7680   39.6960 N   0  0  0  0  0  0  0  0  0  0  0  0
   36.4490   34.3460   39.1610 H   0  0  0  0  0  0  0  0  0  0  0  0
   38.2980   34.1150   40.2970 C   0  0  0  0  0  0  0  0  0  0  0  0
   38.6150   35.1430   40.2410 H   0  0  0  0  0  0  0  0  0  0  0  0
   38.8200   32.9940   40.8620 N   0  0  0  0  0  0  0  0  0  0  0  0
  1  2  2  0  0  0  0
  1  6  1  0  0  0  0
  2  3  1  0  0  0  0
  3  8  1  0  0  0  0
  3  4  2  0  0  0  0
  5  4  1  0  0  0  0
  5  9  1  0  0  0  0
  6  5  2  0  0  0  0
  7  1  1  0  0  0  0
  9 14  1  0  0  0  0
 10  9  2  0  0  0  0
 10 11  1  0  0  0  0
 11 12  2  0  0  0  0
 12 13  1  0  0  0  0
 13 17  1  0  0  0  0
 14 13  2  0  0  0  0
 15 10  1  0  0  0  0
 16 11  1  0  0  0  0
 18 25  1  0  0  0  0
 18  2  1  0  0  0  0
 19 18  2  0  0  0  0
 20 19  1  0  0  0  0
 21 19  1  0  0  0  0
 21 23  1  0  0  0  0
 22 21  1  0  0  0  0
 23 25  2  0  0  0  0
 24 23  1  0  0  0  0
M  END
>  <minimizedAffinity>
-4.69274712

$$$$

 OpenBabel03252500473D

 25 27  0  0  0  0  0  0  0  0999 V2000
   38.8140   27.9050   40.6130 C   0  0  0  0  0  0  0  0  0  0  0  0
   38.7230   27.5650   41.9660 C   0  0  0  0  0  0  0  0  0  0  0  0
   38.5150   28.5390   42.9350 C   0  0  0  0  0  0  0  0  0  0  0  0
   38.4070   29.8300   42.5010 N   0  0  0  0  0  0  0  0  0  0  0  0
   38.4970   30.1450   41.1900 C   0  0  0  0  0  0  0  0  0  0  0  0
   38.6980   29.2060   40.2540 N   0  0  0  0  0  0  0  0  0  0  0  0
   38.9730   27.1900   39.8350 H   0  0  0  0  0  0  0  0  0  0  0  0
   38.4440   28.2870   43.9730 H   0  0  0  0  0  0  0  0  0  0  0  0
   38.3760   31.5420   40.7750 C   0  0  0  0  0  0  0  0  0  0  0  0
   37.3330   31.9910   40.0270 C   0  0  0  0  0  0  0  0  0  0  0  0
   37.1900   33.2900   39.6220 C   0  0  0  0  0  0  0  0  0  0  0  0
   38.1780   34.1610   40.0130 N   0  0  0  0  0  0  0  0  0  0  0  0
   39.2060   33.7140   40.7510 C   0  0  0  0  0  0  0  0  0  0  0  0
   39.3550   32.4270   41.1560 N   0  0  0  0  0  0  0  0  0  0  0  0
   36.5770   31.2650   39.7420 H   0  0  0  0  0  0  0  0  0  0  0  0
   36.3310   33.5640   39.0290 H   0  0  0  0  0  0  0  0  0  0  0  0
   39.9410   34.4600   41.0180 H   0  0  0  0  0  0  0  0  0  0  0  0
   38.8510   26.1560   42.3280 C   0  0  0  0  0  0  0  0  0  0  0  0
   38.0140   25.1350   41.9260 C   0  0  0  0  0  0  0  0  0  0  0  0
   37.1460   25.2330   41.2880 H   0  0  0  0  0  0  0  0  0  0  0  0
   38.5290   24.0150   42.5090 N   0  0  0  0  0  0  0  0  0  0  0  0
   38.0670   23.0930   42.3560 H   0  0  0  0  0  0  0  0  0  0  0  0
   39.6300   24.3370   43.2340 C   0  0  0  0  0  0  0  0  0  0  0  0
   40.1480   23.5490   43.7550 H   0  0  0  0  0  0  0  0  0  0  0  0
   39.8240   25.6780   43.1150 N   0  0  0  0  0  0  0  0  0  0  0  0
  1  2  1  0  0  0  0
  2 18  1  0  0  0  0
  2  3  2  0  0  0  0
  3  8  1  0  0  0  0
  4  3  1  0  0  0  0
  5  4  2  0  0  0  0
  6  1  2  0  0  0  0
  6  5  1  0  0  0  0
  7  1  1  0  0  0  0
  9 14  1  0  0  0  0
  9  5  1  0  0  0  0
 10  9  2  0  0  0  0
 11 12  2  0  0  0  0
 11 10  1  0  0  0  0
 12 13  1  0  0  0  0
 13 17  1  0  0  0  0
 13 14  2  0  0  0  0
 15 10  1  0  0  0  0
 16 11  1  0  0  0  0
 18 25  1  0  0  0  0
 19 18  2  0  0  0  0
 19 21  1  0  0  0  0
 20 19  1  0  0  0  0
 21 23  1  0  0  0  0
 22 21  1  0  0  0  0
 23 24  1  0  0  0  0
 25 23  2  0  0  0  0
M  END
>  <minimizedAffinity>
-4.64352846

$$$$

 OpenBabel03252500473D

 25 27  0  0  0  0  0  0  0  0999 V2000
   38.0180   28.3860   42.5730 C   0  0  0  0  0  0  0  0  0  0  0  0
   38.7540   27.5120   41.7690 C   0  0  0  0  0  0  0  0  0  0  0  0
   39.3470   27.9530   40.5910 C   0  0  0  0  0  0  0  0  0  0  0  0
   39.1740   29.2680   40.2670 N   0  0  0  0  0  0  0  0  0  0  0  0
   38.4590   30.1030   41.0530 C   0  0  0  0  0  0  0  0  0  0  0  0
   37.8870   29.6780   42.1890 N   0  0  0  0  0  0  0  0  0  0  0  0
   37.5450   28.0910   43.4850 H   0  0  0  0  0  0  0  0  0  0  0  0
   39.9130   27.2900   39.9690 H   0  0  0  0  0  0  0  0  0  0  0  0
   38.3020   31.5030   40.6620 C   0  0  0  0  0  0  0  0  0  0  0  0
   39.1300   32.4820   41.1140 C   0  0  0  0  0  0  0  0  0  0  0  0
   39.0100   33.8010   40.7670 C   0  0  0  0  0  0  0  0  0  0  0  0
   37.9790   34.1130   39.9140 N   0  0  0  0  0  0  0  0  0  0  0  0
   37.1640   33.1440   39.4720 C   0  0  0  0  0  0  0  0  0  0  0  0
   37.2770   31.8350   39.8100 N   0  0  0  0  0  0  0  0  0  0  0  0
   39.9290   32.1870   41.7870 H   0  0  0  0  0  0  0  0  0  0  0  0
   39.7100   34.5160   41.1710 H   0  0  0  0  0  0  0  0  0  0  0  0
   36.3780   33.4710   38.8040 H   0  0  0  0  0  0  0  0  0  0  0  0
   38.8810   26.1240   42.2030 C   0  0  0  0  0  0  0  0  0  0  0  0
   37.9920   25.1040   41.9290 C   0  0  0  0  0  0  0  0  0  0  0  0
   37.0780   25.1870   41.3580 H   0  0  0  0  0  0  0  0  0  0  0  0
   38.5290   24.0060   42.5360 N   0  0  0  0  0  0  0  0  0  0  0  0
   38.0360   23.0890   42.4750 H   0  0  0  0  0  0  0  0  0  0  0  0
   39.6910   24.3410   43.1500 C   0  0  0  0  0  0  0  0  0  0  0  0
   40.2320   23.5710   43.6750 H   0  0  0  0  0  0  0  0  0  0  0  0
   39.9030   25.6660   42.9370 N   0  0  0  0  0  0  0  0  0  0  0  0
  1  7  1  0  0  0  0
  2 18  1  0  0  0  0
  2  1  2  0  0  0  0
  3  2  1  0  0  0  0
  4  3  2  0  0  0  0
  4  5  1  0  0  0  0
  5  6  2  0  0  0  0
  6  1  1  0  0  0  0
  8  3  1  0  0  0  0
  9  5  1  0  0  0  0
  9 10  1  0  0  0  0
 10 15  1  0  0  0  0
 11 10  2  0  0  0  0
 11 16  1  0  0  0  0
 12 11  1  0  0  0  0
 13 14  1  0  0  0  0
 13 12  2  0  0  0  0
 14  9  2  0  0  0  0
 17 13  1  0  0  0  0
 18 25  1  0  0  0  0
 19 18  2  0  0  0  0
 19 21  1  0  0  0  0
 20 19  1  0  0  0  0
 21 23  1  0  0  0  0
 22 21  1  0  0  0  0
 23 24  1  0  0  0  0
 25 23  2  0  0  0  0
M  END
>  <minimizedAffinity>
-4.50045824

$$$$

 OpenBabel03252500473D

 25 27  0  0  0  0  0  0  0  0999 V2000
   39.1690   29.5580   38.4640 C   0  0  0  0  0  0  0  0  0  0  0  0
   38.7410   30.6390   39.2400 C   0  0  0  0  0  0  0  0  0  0  0  0
   39.5110   31.7920   39.3450 C   0  0  0  0  0  0  0  0  0  0  0  0
   40.6910   31.8120   38.6580 N   0  0  0  0  0  0  0  0  0  0  0  0
   41.0940   30.7600   37.9110 C   0  0  0  0  0  0  0  0  0  0  0  0
   40.3520   29.6470   37.8100 N   0  0  0  0  0  0  0  0  0  0  0  0
   38.6110   28.6530   38.3540 H   0  0  0  0  0  0  0  0  0  0  0  0
   39.1900   32.6250   39.9360 H   0  0  0  0  0  0  0  0  0  0  0  0
   42.3660   30.8290   37.1950 C   0  0  0  0  0  0  0  0  0  0  0  0
   42.6350   30.0530   36.1120 C   0  0  0  0  0  0  0  0  0  0  0  0
   43.8150   30.0940   35.4200 C   0  0  0  0  0  0  0  0  0  0  0  0
   44.7580   30.9820   35.8790 N   0  0  0  0  0  0  0  0  0  0  0  0
   44.4890   31.7450   36.9480 C   0  0  0  0  0  0  0  0  0  0  0  0
   43.3220   31.7110   37.6390 N   0  0  0  0  0  0  0  0  0  0  0  0
   41.8590   29.3660   35.7870 H   0  0  0  0  0  0  0  0  0  0  0  0
   43.9480   29.4430   34.5690 H   0  0  0  0  0  0  0  0  0  0  0  0
   45.2820   32.4180   37.2460 H   0  0  0  0  0  0  0  0  0  0  0  0
   37.4630   30.5190   39.9350 C   0  0  0  0  0  0  0  0  0  0  0  0
   36.8980   31.4700   40.7620 C   0  0  0  0  0  0  0  0  0  0  0  0
   37.3200   32.4330   41.0120 H   0  0  0  0  0  0  0  0  0  0  0  0
   35.7210   30.9150   41.1720 N   0  0  0  0  0  0  0  0  0  0  0  0
   35.0960   31.4450   41.8170 H   0  0  0  0  0  0  0  0  0  0  0  0
   35.5750   29.6830   40.6200 C   0  0  0  0  0  0  0  0  0  0  0  0
   34.6870   29.1210   40.8550 H   0  0  0  0  0  0  0  0  0  0  0  0
   36.6690   29.4450   39.8490 N   0  0  0  0  0  0  0  0  0  0  0  0
  1  2  1  0  0  0  0
  2  3  2  0  0  0  0
  2 18  1  0  0  0  0
  3  8  1  0  0  0  0
  4  3  1  0  0  0  0
  5  4  2  0  0  0  0
  6  5  1  0  0  0  0
  6  1  2  0  0  0  0
  7  1  1  0  0  0  0
  9 14  1  0  0  0  0
  9  5  1  0  0  0  0
 10  9  2  0  0  0  0
 11 12  2  0  0  0  0
 11 10  1  0  0  0  0
 12 13  1  0  0  0  0
 13 17  1  0  0  0  0
 13 14  2  0  0  0  0
 15 10  1  0  0  0  0
 16 11  1  0  0  0  0
 18 19  2  0  0  0  0
 19 20  1  0  0  0  0
 19 21  1  0  0  0  0
 21 22  1  0  0  0  0
 23 24  1  0  0  0  0
 23 21  1  0  0  0  0
 25 18  1  0  0  0  0
 25 23  2  0  0  0  0
M  END
>  <minimizedAffinity>
-4.30690098

$$$$

 OpenBabel03252500473D

 25 27  0  0  0  0  0  0  0  0999 V2000
   38.9540   29.6730   40.2210 C   0  0  0  0  0  0  0  0  0  0  0  0
   38.0340   30.6170   40.6860 C   0  0  0  0  0  0  0  0  0  0  0  0
   36.8020   30.2230   41.1950 C   0  0  0  0  0  0  0  0  0  0  0  0
   36.5410   28.8820   41.2150 N   0  0  0  0  0  0  0  0  0  0  0  0
   37.4390   27.9800   40.7620 C   0  0  0  0  0  0  0  0  0  0  0  0
   38.6280   28.3590   40.2710 N   0  0  0  0  0  0  0  0  0  0  0  0
   39.9120   29.9300   39.8220 H   0  0  0  0  0  0  0  0  0  0  0  0
   36.0920   30.9390   41.5540 H   0  0  0  0  0  0  0  0  0  0  0  0
   37.1130   26.5550   40.8040 C   0  0  0  0  0  0  0  0  0  0  0  0
   36.6590   25.8790   39.7150 C   0  0  0  0  0  0  0  0  0  0  0  0
   36.3460   24.5470   39.7220 C   0  0  0  0  0  0  0  0  0  0  0  0
   36.5110   23.8900   40.9170 N   0  0  0  0  0  0  0  0  0  0  0  0
   36.9580   24.5610   41.9890 C   0  0  0  0  0  0  0  0  0  0  0  0
   37.2710   25.8810   41.9910 N   0  0  0  0  0  0  0  0  0  0  0  0
   36.5440   26.4420   38.7930 H   0  0  0  0  0  0  0  0  0  0  0  0
   35.9920   24.0860   38.8120 H   0  0  0  0  0  0  0  0  0  0  0  0
   37.0610   23.9730   42.8910 H   0  0  0  0  0  0  0  0  0  0  0  0
   38.4080   32.0270   40.6220 C   0  0  0  0  0  0  0  0  0  0  0  0
   39.4270   32.6290   41.3320 C   0  0  0  0  0  0  0  0  0  0  0  0
   40.0910   32.1440   42.0340 H   0  0  0  0  0  0  0  0  0  0  0  0
   39.3920   33.9360   40.9450 N   0  0  0  0  0  0  0  0  0  0  0  0
   40.0750   34.6130   41.3470 H   0  0  0  0  0  0  0  0  0  0  0  0
   38.3980   34.1230   40.0410 C   0  0  0  0  0  0  0  0  0  0  0  0
   38.2480   35.1130   39.6430 H   0  0  0  0  0  0  0  0  0  0  0  0
   37.7880   32.9240   39.8450 N   0  0  0  0  0  0  0  0  0  0  0  0
  1  6  2  0  0  0  0
  1  2  1  0  0  0  0
  2  3  2  0  0  0  0
  3  4  1  0  0  0  0
  3  8  1  0  0  0  0
  5  9  1  0  0  0  0
  5  4  2  0  0  0  0
  6  5  1  0  0  0  0
  7  1  1  0  0  0  0
  9 14  1  0  0  0  0
 10 11  1  0  0  0  0
 10  9  2  0  0  0  0
 11 12  2  0  0  0  0
 12 13  1  0  0  0  0
 13 14  2  0  0  0  0
 13 17  1  0  0  0  0
 15 10  1  0  0  0  0
 16 11  1  0  0  0  0
 18  2  1  0  0  0  0
 18 19  2  0  0  0  0
 19 20  1  0  0  0  0
 21 19  1  0  0  0  0
 21 22  1  0  0  0  0
 23 21  1  0  0  0  0
 24 23  1  0  0  0  0
 25 23  2  0  0  0  0
 25 18  1  0  0  0  0
M  END
>  <minimizedAffinity>
-4.29901075

$$$$

 OpenBabel03252500473D

 25 27  0  0  0  0  0  0  0  0999 V2000
   38.0030   27.8770   39.6770 C   0  0  0  0  0  0  0  0  0  0  0  0
   37.4600   27.3860   40.8670 C   0  0  0  0  0  0  0  0  0  0  0  0
   37.1120   28.2470   41.9020 C   0  0  0  0  0  0  0  0  0  0  0  0
   37.3260   29.5800   41.6950 N   0  0  0  0  0  0  0  0  0  0  0  0
   37.8520   30.0410   40.5390 C   0  0  0  0  0  0  0  0  0  0  0  0
   38.1880   29.2110   39.5400 N   0  0  0  0  0  0  0  0  0  0  0  0
   38.2850   27.2520   38.8560 H   0  0  0  0  0  0  0  0  0  0  0  0
   36.6950   27.8790   42.8170 H   0  0  0  0  0  0  0  0  0  0  0  0
   38.0620   31.4780   40.3660 C   0  0  0  0  0  0  0  0  0  0  0  0
   37.1590   32.2750   39.7360 C   0  0  0  0  0  0  0  0  0  0  0  0
   37.3260   33.6220   39.5580 C   0  0  0  0  0  0  0  0  0  0  0  0
   38.4880   34.1610   40.0570 N   0  0  0  0  0  0  0  0  0  0  0  0
   39.3760   33.3700   40.6760 C   0  0  0  0  0  0  0  0  0  0  0  0
   39.2180   32.0350   40.8570 N   0  0  0  0  0  0  0  0  0  0  0  0
   36.2570   31.8030   39.3590 H   0  0  0  0  0  0  0  0  0  0  0  0
   36.5590   34.1830   39.0460 H   0  0  0  0  0  0  0  0  0  0  0  0
   40.2640   33.8700   41.0400 H   0  0  0  0  0  0  0  0  0  0  0  0
   37.2700   25.9430   40.9900 C   0  0  0  0  0  0  0  0  0  0  0  0
   37.0150   25.0680   39.9540 C   0  0  0  0  0  0  0  0  0  0  0  0
   36.9180   25.3240   38.9090 H   0  0  0  0  0  0  0  0  0  0  0  0
   36.9160   23.8450   40.5520 N   0  0  0  0  0  0  0  0  0  0  0  0
   36.7220   23.0000   39.9720 H   0  0  0  0  0  0  0  0  0  0  0  0
   37.1030   23.9690   41.8900 C   0  0  0  0  0  0  0  0  0  0  0  0
   37.0530   23.0810   42.4980 H   0  0  0  0  0  0  0  0  0  0  0  0
   37.3230   25.2850   42.1550 N   0  0  0  0  0  0  0  0  0  0  0  0
  1  2  1  0  0  0  0
  2 18  1  0  0  0  0
  2  3  2  0  0  0  0
  3  8  1  0  0  0  0
  4  3  1  0  0  0  0
  5  4  2  0  0  0  0
  6  1  2  0  0  0  0
  6  5  1  0  0  0  0
  7  1  1  0  0  0  0
  9  5  1  0  0  0  0
  9 14  1  0  0  0  0
 10  9  2  0  0  0  0
 11 10  1  0  0  0  0
 11 12  2  0  0  0  0
 12 13  1  0  0  0  0
 13 14  2  0  0  0  0
 13 17  1  0  0  0  0
 15 10  1  0  0  0  0
 16 11  1  0  0  0  0
 18 25  1  0  0  0  0
 19 21  1  0  0  0  0
 19 18  2  0  0  0  0
 20 19  1  0  0  0  0
 21 23  1  0  0  0  0
 22 21  1  0  0  0  0
 23 25  2  0  0  0  0
 23 24  1  0  0  0  0
M  END
>  <minimizedAffinity>
-4.18310022

$$$$

 OpenBabel03252500473D

 25 27  0  0  0  0  0  0  0  0999 V2000
   36.0190   29.5550   37.3500 C   0  0  0  0  0  0  0  0  0  0  0  0
   35.1120   28.8640   38.1570 C   0  0  0  0  0  0  0  0  0  0  0  0
   34.9910   29.1590   39.5100 C   0  0  0  0  0  0  0  0  0  0  0  0
   35.7960   30.1480   40.0010 N   0  0  0  0  0  0  0  0  0  0  0  0
   36.6700   30.8080   39.2100 C   0  0  0  0  0  0  0  0  0  0  0  0
   36.7870   30.5230   37.9040 N   0  0  0  0  0  0  0  0  0  0  0  0
   36.1460   29.3610   36.3060 H   0  0  0  0  0  0  0  0  0  0  0  0
   34.2980   28.6350   40.1360 H   0  0  0  0  0  0  0  0  0  0  0  0
   37.5100   31.8580   39.7830 C   0  0  0  0  0  0  0  0  0  0  0  0
   38.5300   31.5870   40.6410 C   0  0  0  0  0  0  0  0  0  0  0  0
   39.3340   32.5470   41.1940 C   0  0  0  0  0  0  0  0  0  0  0  0
   39.0630   33.8460   40.8380 N   0  0  0  0  0  0  0  0  0  0  0  0
   38.0560   34.1080   39.9920 C   0  0  0  0  0  0  0  0  0  0  0  0
   37.2540   33.1630   39.4390 N   0  0  0  0  0  0  0  0  0  0  0  0
   38.7050   30.5460   40.8930 H   0  0  0  0  0  0  0  0  0  0  0  0
   40.1230   32.2470   41.8670 H   0  0  0  0  0  0  0  0  0  0  0  0
   37.9080   35.1540   39.7610 H   0  0  0  0  0  0  0  0  0  0  0  0
   34.2960   27.8240   37.5370 C   0  0  0  0  0  0  0  0  0  0  0  0
   33.0960   28.0180   36.8820 C   0  0  0  0  0  0  0  0  0  0  0  0
   32.5920   28.9630   36.7360 H   0  0  0  0  0  0  0  0  0  0  0  0
   32.7170   26.7710   36.4790 N   0  0  0  0  0  0  0  0  0  0  0  0
   31.8260   26.6460   35.9530 H   0  0  0  0  0  0  0  0  0  0  0  0
   33.6420   25.8590   36.8710 C   0  0  0  0  0  0  0  0  0  0  0  0
   33.4760   24.8240   36.6220 H   0  0  0  0  0  0  0  0  0  0  0  0
   34.6250   26.5270   37.5310 N   0  0  0  0  0  0  0  0  0  0  0  0
  1  6  2  0  0  0  0
  1  2  1  0  0  0  0
  2  3  2  0  0  0  0
  3  4  1  0  0  0  0
  3  8  1  0  0  0  0
  5  9  1  0  0  0  0
  5  4  2  0  0  0  0
  6  5  1  0  0  0  0
  7  1  1  0  0  0  0
  9 10  1  0  0  0  0
 10 15  1  0  0  0  0
 10 11  2  0  0  0  0
 11 16  1  0  0  0  0
 12 11  1  0  0  0  0
 13 12  2  0  0  0  0
 14  9  2  0  0  0  0
 14 13  1  0  0  0  0
 17 13  1  0  0  0  0
 18  2  1  0  0  0  0
 19 18  2  0  0  0  0
 20 19  1  0  0  0  0
 21 23  1  0  0  0  0
 21 19  1  0  0  0  0
 22 21  1  0  0  0  0
 23 25  2  0  0  0  0
 24 23  1  0  0  0  0
 25 18  1  0  0  0  0
M  END
>  <minimizedAffinity>
-4.04230928

$$$$

 OpenBabel03252500473D

 25 27  0  0  0  0  0  0  0  0999 V2000
   36.5510   27.2600   39.4080 C   0  0  0  0  0  0  0  0  0  0  0  0
   36.3690   27.9470   40.6110 C   0  0  0  0  0  0  0  0  0  0  0  0
   35.4100   28.9480   40.7250 C   0  0  0  0  0  0  0  0  0  0  0  0
   34.6660   29.2200   39.6120 N   0  0  0  0  0  0  0  0  0  0  0  0
   34.8530   28.5490   38.4540 C   0  0  0  0  0  0  0  0  0  0  0  0
   35.7780   27.5830   38.3440 N   0  0  0  0  0  0  0  0  0  0  0  0
   37.2750   26.4840   39.2760 H   0  0  0  0  0  0  0  0  0  0  0  0
   35.2640   29.4790   41.6430 H   0  0  0  0  0  0  0  0  0  0  0  0
   34.0320   28.8770   37.2900 C   0  0  0  0  0  0  0  0  0  0  0  0
   32.7070   29.1650   37.3910 C   0  0  0  0  0  0  0  0  0  0  0  0
   31.9110   29.4760   36.3220 C   0  0  0  0  0  0  0  0  0  0  0  0
   32.5240   29.4850   35.0920 N   0  0  0  0  0  0  0  0  0  0  0  0
   33.8310   29.2000   34.9970 C   0  0  0  0  0  0  0  0  0  0  0  0
   34.6260   28.8910   36.0520 N   0  0  0  0  0  0  0  0  0  0  0  0
   32.2680   29.1440   38.3840 H   0  0  0  0  0  0  0  0  0  0  0  0
   30.8670   29.6920   36.4890 H   0  0  0  0  0  0  0  0  0  0  0  0
   34.2380   29.2290   33.9950 H   0  0  0  0  0  0  0  0  0  0  0  0
   37.2140   27.5810   41.7440 C   0  0  0  0  0  0  0  0  0  0  0  0
   37.2980   28.2570   42.9450 C   0  0  0  0  0  0  0  0  0  0  0  0
   36.7520   29.1490   43.2170 H   0  0  0  0  0  0  0  0  0  0  0  0
   38.2050   27.5490   43.6780 N   0  0  0  0  0  0  0  0  0  0  0  0
   38.4480   27.8610   44.6420 H   0  0  0  0  0  0  0  0  0  0  0  0
   38.6540   26.4900   42.9570 C   0  0  0  0  0  0  0  0  0  0  0  0
   39.3800   25.8350   43.4090 H   0  0  0  0  0  0  0  0  0  0  0  0
   38.0290   26.5190   41.7500 N   0  0  0  0  0  0  0  0  0  0  0  0
  1  2  1  0  0  0  0
  2  3  2  0  0  0  0
  2 18  1  0  0  0  0
  3  8  1  0  0  0  0
  4  3  1  0  0  0  0
  5  4  2  0  0  0  0
  6  5  1  0  0  0  0
  6  1  2  0  0  0  0
  7  1  1  0  0  0  0
  9 10  1  0  0  0  0
  9  5  1  0  0  0  0
 10 15  1  0  0  0  0
 11 16  1  0  0  0  0
 11 10  2  0  0  0  0
 12 11  1  0  0  0  0
 13 12  2  0  0  0  0
 13 14  1  0  0  0  0
 14  9  2  0  0  0  0
 17 13  1  0  0  0  0
 18 25  1  0  0  0  0
 18 19  2  0  0  0  0
 19 20  1  0  0  0  0
 19 21  1  0  0  0  0
 21 22  1  0  0  0  0
 23 24  1  0  0  0  0
 23 21  1  0  0  0  0
 25 23  2  0  0  0  0
M  END
>  <minimizedAffinity>
-4.00322723

$$$$
