
 OpenBabel03252508203D

 33 35  0  0  0  0  0  0  0  0999 V2000
   45.6080   34.2370   41.0530 C   0  0  0  0  0  0  0  0  0  0  0  0
   46.4710   34.0170   39.9840 C   0  0  0  0  0  0  0  0  0  0  0  0
   47.8280   34.2980   39.9650 C   0  0  0  0  0  0  0  0  0  0  0  0
   48.3300   34.8440   41.1310 C   0  0  0  0  0  0  0  0  0  0  0  0
   47.4990   35.0700   42.1980 C   0  0  0  0  0  0  0  0  0  0  0  0
   46.1420   34.7840   42.2060 C   0  0  0  0  0  0  0  0  0  0  0  0
   45.9960   33.5800   39.0920 H   0  0  0  0  0  0  0  0  0  0  0  0
   48.3480   34.0640   39.0540 H   0  0  0  0  0  0  0  0  0  0  0  0
   49.3840   35.0650   41.1230 H   0  0  0  0  0  0  0  0  0  0  0  0
   48.0500   35.5020   43.0320 H   0  0  0  0  0  0  0  0  0  0  0  0
   45.4680   35.1130   43.4460 C   0  0  0  0  0  0  0  0  0  0  0  0
   45.1430   34.4340   44.5870 C   0  0  0  0  0  0  0  0  0  0  0  0
   45.3520   33.4060   44.7850 H   0  0  0  0  0  0  0  0  0  0  0  0
   44.5330   35.1530   45.5040 N   0  0  0  0  0  0  0  0  0  0  0  0
   44.1800   34.9050   46.4410 H   0  0  0  0  0  0  0  0  0  0  0  0
   44.4410   36.3730   44.9570 C   0  0  0  0  0  0  0  0  0  0  0  0
   44.0190   37.3050   45.3240 H   0  0  0  0  0  0  0  0  0  0  0  0
   45.0000   36.3260   43.7430 N   0  0  0  0  0  0  0  0  0  0  0  0
   44.1820   33.9390   41.0110 C   0  0  0  0  0  0  0  0  0  0  0  0
   43.8320   33.8230   42.0610 H   0  0  0  0  0  0  0  0  0  0  0  0
   43.9160   33.0530   40.4280 H   0  0  0  0  0  0  0  0  0  0  0  0
   43.3660   35.1490   40.5130 C   0  0  0  0  0  0  0  0  0  0  0  0
   43.5360   35.9650   41.2170 H   0  0  0  0  0  0  0  0  0  0  0  0
   43.6210   35.3920   39.4690 H   0  0  0  0  0  0  0  0  0  0  0  0
   39.6230   35.0580   39.9740 C   0  0  0  0  0  0  0  0  0  0  0  0
   40.9710   35.4940   39.8810 C   0  0  0  0  0  0  0  0  0  0  0  0
   41.9290   34.7560   40.5620 C   0  0  0  0  0  0  0  0  0  0  0  0
   41.4910   33.6600   41.2720 N   0  0  0  0  0  0  0  0  0  0  0  0
   40.2240   33.2800   41.3380 C   0  0  0  0  0  0  0  0  0  0  0  0
   39.2790   33.9720   40.6920 N   0  0  0  0  0  0  0  0  0  0  0  0
   38.9350   35.6940   39.4100 H   0  0  0  0  0  0  0  0  0  0  0  0
   41.2460   36.3670   39.3050 H   0  0  0  0  0  0  0  0  0  0  0  0
   39.9840   32.4070   41.9220 H   0  0  0  0  0  0  0  0  0  0  0  0
  1  6  1  0  0  0  0
  2  1  2  0  0  0  0
  3  2  1  0  0  0  0
  3  4  2  0  0  0  0
  4  5  1  0  0  0  0
  5  6  2  0  0  0  0
  5 10  1  0  0  0  0
  6 11  1  0  0  0  0
  7  2  1  0  0  0  0
  8  3  1  0  0  0  0
  9  4  1  0  0  0  0
 11 18  1  0  0  0  0
 11 12  2  0  0  0  0
 12 13  1  0  0  0  0
 12 14  1  0  0  0  0
 14 15  1  0  0  0  0
 16 17  1  0  0  0  0
 16 14  1  0  0  0  0
 18 16  2  0  0  0  0
 19  1  1  0  0  0  0
 19 20  1  0  0  0  0
 21 19  1  0  0  0  0
 22 27  1  0  0  0  0
 22 19  1  0  0  0  0
 22 23  1  0  0  0  0
 24 22  1  0  0  0  0
 25 30  1  0  0  0  0
 26 25  2  0  0  0  0
 26 27  1  0  0  0  0
 27 28  2  0  0  0  0
 28 29  1  0  0  0  0
 29 33  1  0  0  0  0
 30 29  2  0  0  0  0
 31 25  1  0  0  0  0
 32 26  1  0  0  0  0
M  END
>  <minimizedAffinity>
-5.81877851

>  <minimizedRMSD>
1.21260035

$$$$
