
 OpenBabel03252504393D

 29 31  0  0  0  0  0  0  0  0999 V2000
   36.2730   29.9850   40.2480 C   0  0  0  0  0  0  0  0  0  0  0  0
   36.1630   30.3770   38.9410 C   0  0  0  0  0  0  0  0  0  0  0  0
   36.9430   31.4720   38.8700 N   0  0  0  0  0  0  0  0  0  0  0  0
   37.5210   31.7760   40.0440 C   0  0  0  0  0  0  0  0  0  0  0  0
   37.0860   30.8330   40.8860 N   0  0  0  0  0  0  0  0  0  0  0  0
   35.5890   29.9220   38.1470 H   0  0  0  0  0  0  0  0  0  0  0  0
   37.1050   32.0510   38.0070 H   0  0  0  0  0  0  0  0  0  0  0  0
   38.4210   32.8850   40.3380 C   0  0  0  0  0  0  0  0  0  0  0  0
   39.6320   32.7600   40.9860 C   0  0  0  0  0  0  0  0  0  0  0  0
   40.1430   31.8960   41.3850 H   0  0  0  0  0  0  0  0  0  0  0  0
   40.1000   34.0210   41.0320 N   0  0  0  0  0  0  0  0  0  0  0  0
   41.0130   34.3280   41.4570 H   0  0  0  0  0  0  0  0  0  0  0  0
   39.2450   34.9110   40.4490 C   0  0  0  0  0  0  0  0  0  0  0  0
   39.4170   35.9770   40.3720 H   0  0  0  0  0  0  0  0  0  0  0  0
   38.2040   34.1730   40.0240 N   0  0  0  0  0  0  0  0  0  0  0  0
   35.5880   28.7870   40.8740 C   0  0  0  0  0  0  0  0  0  0  0  0
   34.9550   28.3070   40.1180 H   0  0  0  0  0  0  0  0  0  0  0  0
   34.9490   29.1170   41.6960 H   0  0  0  0  0  0  0  0  0  0  0  0
   37.0340   27.6820   42.5280 C   0  0  0  0  0  3  0  0  0  0  0  0
   36.6020   27.7890   41.2800 C   0  0  0  0  0  3  0  0  0  0  0  0
   38.0410   26.6460   42.7870 C   0  0  0  0  0  0  0  0  0  0  0  0
   39.1520   26.9170   43.6310 C   0  0  0  0  0  0  0  0  0  0  0  0
   40.0690   25.9120   43.8440 C   0  0  0  0  0  0  0  0  0  0  0  0
   39.8770   24.7190   43.2470 N   0  0  0  0  0  0  0  0  0  0  0  0
   38.8130   24.4810   42.4490 C   0  0  0  0  0  0  0  0  0  0  0  0
   37.9220   25.4350   42.2330 N   0  0  0  0  0  0  0  0  0  0  0  0
   39.2480   27.9050   44.0820 H   0  0  0  0  0  0  0  0  0  0  0  0
   40.9290   26.1070   44.4910 H   0  0  0  0  0  0  0  0  0  0  0  0
   38.6450   23.5290   41.9630 H   0  0  0  0  0  0  0  0  0  0  0  0
  1 16  1  0  0  0  0
  1  5  1  0  0  0  0
  2  1  2  0  0  0  0
  3  2  1  0  0  0  0
  3  4  1  0  0  0  0
  4  8  1  0  0  0  0
  4  5  2  0  0  0  0
  6  2  1  0  0  0  0
  7  3  1  0  0  0  0
  8  9  2  0  0  0  0
  9 11  1  0  0  0  0
  9 10  1  0  0  0  0
 11 12  1  0  0  0  0
 13 11  1  0  0  0  0
 14 13  1  0  0  0  0
 15  8  1  0  0  0  0
 15 13  2  0  0  0  0
 16 20  1  0  0  0  0
 16 18  1  0  0  0  0
 17 16  1  0  0  0  0
 19 21  1  0  0  0  0
 20 19  2  0  0  0  0
 21 22  1  0  0  0  0
 22 23  2  0  0  0  0
 22 27  1  0  0  0  0
 23 28  1  0  0  0  0
 24 23  1  0  0  0  0
 25 24  2  0  0  0  0
 26 25  1  0  0  0  0
 26 21  2  0  0  0  0
 29 25  1  0  0  0  0
M  END
>  <minimizedAffinity>
-5.37548685

$$$$

 OpenBabel03252504393D

 29 31  0  0  0  0  0  0  0  0999 V2000
   38.4000   27.4800   43.1880 C   0  0  0  0  0  0  0  0  0  0  0  0
   37.4290   27.9250   44.0430 C   0  0  0  0  0  0  0  0  0  0  0  0
   37.0240   29.0830   43.4900 N   0  0  0  0  0  0  0  0  0  0  0  0
   37.6810   29.3770   42.3560 C   0  0  0  0  0  0  0  0  0  0  0  0
   38.5340   28.3600   42.1910 N   0  0  0  0  0  0  0  0  0  0  0  0
   37.0660   27.4640   44.9500 H   0  0  0  0  0  0  0  0  0  0  0  0
   36.2770   29.7160   43.8760 H   0  0  0  0  0  0  0  0  0  0  0  0
   37.5070   30.5410   41.4950 C   0  0  0  0  0  0  0  0  0  0  0  0
   36.3090   30.9280   40.9330 C   0  0  0  0  0  0  0  0  0  0  0  0
   35.3190   30.4990   40.9960 H   0  0  0  0  0  0  0  0  0  0  0  0
   36.6270   32.0320   40.2340 N   0  0  0  0  0  0  0  0  0  0  0  0
   35.9640   32.6170   39.6620 H   0  0  0  0  0  0  0  0  0  0  0  0
   37.9520   32.3450   40.3360 C   0  0  0  0  0  0  0  0  0  0  0  0
   38.4300   33.1900   39.8560 H   0  0  0  0  0  0  0  0  0  0  0  0
   38.4780   31.3950   41.1300 N   0  0  0  0  0  0  0  0  0  0  0  0
   39.1970   26.2000   43.3410 C   0  0  0  0  0  0  0  0  0  0  0  0
   38.9440   25.7400   44.3030 H   0  0  0  0  0  0  0  0  0  0  0  0
   40.2650   26.4280   43.3410 H   0  0  0  0  0  0  0  0  0  0  0  0
   37.5710   24.7490   42.1980 C   0  0  0  0  0  3  0  0  0  0  0  0
   38.8000   25.2370   42.2890 C   0  0  0  0  0  3  0  0  0  0  0  0
   37.3200   23.8040   41.1040 C   0  0  0  0  0  0  0  0  0  0  0  0
   36.1000   23.8560   40.3750 C   0  0  0  0  0  0  0  0  0  0  0  0
   35.9120   22.9480   39.3560 C   0  0  0  0  0  0  0  0  0  0  0  0
   36.8860   22.0540   39.0940 N   0  0  0  0  0  0  0  0  0  0  0  0
   38.0370   22.0220   39.7990 C   0  0  0  0  0  0  0  0  0  0  0  0
   38.2360   22.8860   40.7810 N   0  0  0  0  0  0  0  0  0  0  0  0
   35.3540   24.6050   40.6400 H   0  0  0  0  0  0  0  0  0  0  0  0
   34.9790   22.9770   38.7880 H   0  0  0  0  0  0  0  0  0  0  0  0
   38.8280   21.3110   39.6000 H   0  0  0  0  0  0  0  0  0  0  0  0
  1 16  1  0  0  0  0
  1  2  2  0  0  0  0
  2  6  1  0  0  0  0
  3  7  1  0  0  0  0
  3  2  1  0  0  0  0
  4  3  1  0  0  0  0
  5  4  2  0  0  0  0
  5  1  1  0  0  0  0
  8  4  1  0  0  0  0
  9 10  1  0  0  0  0
  9  8  2  0  0  0  0
 11 13  1  0  0  0  0
 11  9  1  0  0  0  0
 12 11  1  0  0  0  0
 13 15  2  0  0  0  0
 14 13  1  0  0  0  0
 15  8  1  0  0  0  0
 16 17  1  0  0  0  0
 18 16  1  0  0  0  0
 19 20  2  0  0  0  0
 20 16  1  0  0  0  0
 21 19  1  0  0  0  0
 22 27  1  0  0  0  0
 22 21  2  0  0  0  0
 23 22  1  0  0  0  0
 24 23  2  0  0  0  0
 24 25  1  0  0  0  0
 25 26  2  0  0  0  0
 26 21  1  0  0  0  0
 28 23  1  0  0  0  0
 29 25  1  0  0  0  0
M  END
>  <minimizedAffinity>
-5.37086678

$$$$

 OpenBabel03252504393D

 29 31  0  0  0  0  0  0  0  0999 V2000
   38.7270   33.4730   40.0540 C   0  0  0  0  0  0  0  0  0  0  0  0
   38.9230   34.5560   40.8670 C   0  0  0  0  0  0  0  0  0  0  0  0
   40.1990   34.9110   40.6210 N   0  0  0  0  0  0  0  0  0  0  0  0
   40.7950   34.1180   39.7160 C   0  0  0  0  0  0  0  0  0  0  0  0
   39.8540   33.2290   39.3790 N   0  0  0  0  0  0  0  0  0  0  0  0
   38.2270   35.0240   41.5460 H   0  0  0  0  0  0  0  0  0  0  0  0
   40.7060   35.7150   41.0720 H   0  0  0  0  0  0  0  0  0  0  0  0
   42.1600   34.2030   39.2120 C   0  0  0  0  0  0  0  0  0  0  0  0
   42.5030   34.6290   37.9450 C   0  0  0  0  0  0  0  0  0  0  0  0
   41.8960   34.9660   37.1160 H   0  0  0  0  0  0  0  0  0  0  0  0
   43.8450   34.5410   37.9320 N   0  0  0  0  0  0  0  0  0  0  0  0
   44.4740   34.7850   37.1240 H   0  0  0  0  0  0  0  0  0  0  0  0
   44.3450   34.0870   39.1180 C   0  0  0  0  0  0  0  0  0  0  0  0
   45.3960   33.9380   39.3330 H   0  0  0  0  0  0  0  0  0  0  0  0
   43.2700   33.8830   39.9000 N   0  0  0  0  0  0  0  0  0  0  0  0
   37.4430   32.6760   39.9350 C   0  0  0  0  0  0  0  0  0  0  0  0
   37.2650   32.4500   38.8770 H   0  0  0  0  0  0  0  0  0  0  0  0
   36.6050   33.2710   40.3050 H   0  0  0  0  0  0  0  0  0  0  0  0
   36.5630   30.5940   40.9060 C   0  0  0  0  0  3  0  0  0  0  0  0
   37.5960   31.3780   40.6300 C   0  0  0  0  0  3  0  0  0  0  0  0
   36.8630   29.3350   41.5980 C   0  0  0  0  0  0  0  0  0  0  0  0
   36.5740   28.0880   40.9790 C   0  0  0  0  0  0  0  0  0  0  0  0
   36.8750   26.9340   41.6680 C   0  0  0  0  0  0  0  0  0  0  0  0
   37.4270   27.0330   42.8930 N   0  0  0  0  0  0  0  0  0  0  0  0
   37.6940   28.2280   43.4630 C   0  0  0  0  0  0  0  0  0  0  0  0
   37.4120   29.3470   42.8160 N   0  0  0  0  0  0  0  0  0  0  0  0
   36.1260   28.0790   39.9840 H   0  0  0  0  0  0  0  0  0  0  0  0
   36.6580   25.9680   41.2040 H   0  0  0  0  0  0  0  0  0  0  0  0
   38.1380   28.3250   44.4450 H   0  0  0  0  0  0  0  0  0  0  0  0
  1  2  2  0  0  0  0
  2  6  1  0  0  0  0
  3  2  1  0  0  0  0
  3  7  1  0  0  0  0
  4  3  1  0  0  0  0
  5  4  2  0  0  0  0
  5  1  1  0  0  0  0
  8  4  1  0  0  0  0
  8 15  1  0  0  0  0
  9  8  2  0  0  0  0
 10  9  1  0  0  0  0
 11  9  1  0  0  0  0
 11 13  1  0  0  0  0
 12 11  1  0  0  0  0
 13 14  1  0  0  0  0
 13 15  2  0  0  0  0
 16  1  1  0  0  0  0
 16 18  1  0  0  0  0
 16 20  1  0  0  0  0
 17 16  1  0  0  0  0
 19 21  1  0  0  0  0
 20 19  2  0  0  0  0
 21 26  1  0  0  0  0
 22 21  2  0  0  0  0
 22 23  1  0  0  0  0
 23 24  2  0  0  0  0
 24 25  1  0  0  0  0
 25 29  1  0  0  0  0
 26 25  2  0  0  0  0
 27 22  1  0  0  0  0
 28 23  1  0  0  0  0
M  END
>  <minimizedAffinity>
-5.36499166

$$$$

 OpenBabel03252504393D

 29 31  0  0  0  0  0  0  0  0999 V2000
   36.4010   29.9970   40.4790 C   0  0  0  0  0  0  0  0  0  0  0  0
   36.1580   31.2500   40.9740 C   0  0  0  0  0  0  0  0  0  0  0  0
   37.0560   32.0240   40.3360 N   0  0  0  0  0  0  0  0  0  0  0  0
   37.8320   31.3310   39.4860 C   0  0  0  0  0  0  0  0  0  0  0  0
   37.4010   30.0690   39.5950 N   0  0  0  0  0  0  0  0  0  0  0  0
   35.4220   31.5550   41.7030 H   0  0  0  0  0  0  0  0  0  0  0  0
   37.1680   33.0620   40.4650 H   0  0  0  0  0  0  0  0  0  0  0  0
   38.9020   31.8350   38.6350 C   0  0  0  0  0  0  0  0  0  0  0  0
   38.8950   31.7900   37.2570 C   0  0  0  0  0  0  0  0  0  0  0  0
   38.1640   31.4080   36.5580 H   0  0  0  0  0  0  0  0  0  0  0  0
   40.0640   32.3600   36.9130 N   0  0  0  0  0  0  0  0  0  0  0  0
   40.4180   32.5060   35.9330 H   0  0  0  0  0  0  0  0  0  0  0  0
   40.7880   32.7520   38.0030 C   0  0  0  0  0  0  0  0  0  0  0  0
   41.7580   33.2320   37.9640 H   0  0  0  0  0  0  0  0  0  0  0  0
   40.0370   32.4120   39.0660 N   0  0  0  0  0  0  0  0  0  0  0  0
   35.6600   28.7330   40.8650 C   0  0  0  0  0  0  0  0  0  0  0  0
   35.1210   28.3580   39.9860 H   0  0  0  0  0  0  0  0  0  0  0  0
   34.9300   28.9580   41.6450 H   0  0  0  0  0  0  0  0  0  0  0  0
   37.0750   27.5490   42.4920 C   0  0  0  0  0  3  0  0  0  0  0  0
   36.6300   27.6840   41.2510 C   0  0  0  0  0  3  0  0  0  0  0  0
   38.0340   26.4650   42.7310 C   0  0  0  0  0  0  0  0  0  0  0  0
   37.8240   25.1800   42.1590 C   0  0  0  0  0  0  0  0  0  0  0  0
   38.7530   24.1950   42.4110 C   0  0  0  0  0  0  0  0  0  0  0  0
   39.8170   24.4880   43.1860 N   0  0  0  0  0  0  0  0  0  0  0  0
   39.9980   25.7150   43.7190 C   0  0  0  0  0  0  0  0  0  0  0  0
   39.1160   26.6740   43.4880 N   0  0  0  0  0  0  0  0  0  0  0  0
   36.9410   25.0110   41.5410 H   0  0  0  0  0  0  0  0  0  0  0  0
   38.6040   23.2030   41.9770 H   0  0  0  0  0  0  0  0  0  0  0  0
   40.8460   25.9660   44.3420 H   0  0  0  0  0  0  0  0  0  0  0  0
  1 16  1  0  0  0  0
  1  2  2  0  0  0  0
  2  6  1  0  0  0  0
  3  7  1  0  0  0  0
  3  2  1  0  0  0  0
  4  5  2  0  0  0  0
  4  3  1  0  0  0  0
  5  1  1  0  0  0  0
  8 15  1  0  0  0  0
  8  4  1  0  0  0  0
  9  8  2  0  0  0  0
 10  9  1  0  0  0  0
 11  9  1  0  0  0  0
 11 13  1  0  0  0  0
 12 11  1  0  0  0  0
 13 15  2  0  0  0  0
 14 13  1  0  0  0  0
 16 20  1  0  0  0  0
 16 18  1  0  0  0  0
 17 16  1  0  0  0  0
 19 21  1  0  0  0  0
 20 19  2  0  0  0  0
 21 26  1  0  0  0  0
 22 23  1  0  0  0  0
 22 21  2  0  0  0  0
 23 24  2  0  0  0  0
 24 25  1  0  0  0  0
 25 29  1  0  0  0  0
 26 25  2  0  0  0  0
 27 22  1  0  0  0  0
 28 23  1  0  0  0  0
M  END
>  <minimizedAffinity>
-5.26289892

$$$$

 OpenBabel03252504393D

 29 31  0  0  0  0  0  0  0  0999 V2000
   38.6570   32.1290   38.6030 C   0  0  0  0  0  0  0  0  0  0  0  0
   38.6850   31.8200   37.2700 C   0  0  0  0  0  0  0  0  0  0  0  0
   39.9040   32.2310   36.8730 N   0  0  0  0  0  0  0  0  0  0  0  0
   40.6230   32.7700   37.8720 C   0  0  0  0  0  0  0  0  0  0  0  0
   39.8210   32.6930   38.9400 N   0  0  0  0  0  0  0  0  0  0  0  0
   37.9170   31.3570   36.6690 H   0  0  0  0  0  0  0  0  0  0  0  0
   40.2860   32.1560   35.8960 H   0  0  0  0  0  0  0  0  0  0  0  0
   41.9730   33.3170   37.8110 C   0  0  0  0  0  0  0  0  0  0  0  0
   42.2860   34.6510   37.9670 C   0  0  0  0  0  0  0  0  0  0  0  0
   41.6630   35.5140   38.1540 H   0  0  0  0  0  0  0  0  0  0  0  0
   43.6240   34.6820   37.8340 N   0  0  0  0  0  0  0  0  0  0  0  0
   44.2340   35.5380   37.8930 H   0  0  0  0  0  0  0  0  0  0  0  0
   44.1500   33.4420   37.6060 C   0  0  0  0  0  0  0  0  0  0  0  0
   45.2030   33.2300   37.4670 H   0  0  0  0  0  0  0  0  0  0  0  0
   43.0950   32.6080   37.5960 N   0  0  0  0  0  0  0  0  0  0  0  0
   37.5000   31.8730   39.5480 C   0  0  0  0  0  0  0  0  0  0  0  0
   36.6000   31.6700   38.9560 H   0  0  0  0  0  0  0  0  0  0  0  0
   37.3180   32.7630   40.1550 H   0  0  0  0  0  0  0  0  0  0  0  0
   37.0800   30.3600   41.4410 C   0  0  0  0  0  3  0  0  0  0  0  0
   37.7690   30.6580   40.3480 C   0  0  0  0  0  3  0  0  0  0  0  0
   37.4550   29.1220   42.1340 C   0  0  0  0  0  0  0  0  0  0  0  0
   38.7460   28.9850   42.7140 C   0  0  0  0  0  0  0  0  0  0  0  0
   39.0490   27.8040   43.3560 C   0  0  0  0  0  0  0  0  0  0  0  0
   38.1160   26.8340   43.4070 N   0  0  0  0  0  0  0  0  0  0  0  0
   36.8950   26.9840   42.8500 C   0  0  0  0  0  0  0  0  0  0  0  0
   36.5850   28.1120   42.2300 N   0  0  0  0  0  0  0  0  0  0  0  0
   39.4540   29.8100   42.6360 H   0  0  0  0  0  0  0  0  0  0  0  0
   40.0380   27.6860   43.8070 H   0  0  0  0  0  0  0  0  0  0  0  0
   36.1350   26.2150   42.8840 H   0  0  0  0  0  0  0  0  0  0  0  0
  1  5  1  0  0  0  0
  1 16  1  0  0  0  0
  2  1  2  0  0  0  0
  3  2  1  0  0  0  0
  3  4  1  0  0  0  0
  4  5  2  0  0  0  0
  6  2  1  0  0  0  0
  7  3  1  0  0  0  0
  8  4  1  0  0  0  0
  8  9  2  0  0  0  0
  9 10  1  0  0  0  0
 11 12  1  0  0  0  0
 11  9  1  0  0  0  0
 13 11  1  0  0  0  0
 14 13  1  0  0  0  0
 15 13  2  0  0  0  0
 15  8  1  0  0  0  0
 16 18  1  0  0  0  0
 16 20  1  0  0  0  0
 17 16  1  0  0  0  0
 19 21  1  0  0  0  0
 20 19  2  0  0  0  0
 21 26  2  0  0  0  0
 21 22  1  0  0  0  0
 22 23  2  0  0  0  0
 23 24  1  0  0  0  0
 23 28  1  0  0  0  0
 25 29  1  0  0  0  0
 25 24  2  0  0  0  0
 26 25  1  0  0  0  0
 27 22  1  0  0  0  0
M  END
>  <minimizedAffinity>
-5.24010515

$$$$

 OpenBabel03252504393D

 29 31  0  0  0  0  0  0  0  0999 V2000
   37.2560   30.0510   41.7910 C   0  0  0  0  0  0  0  0  0  0  0  0
   36.1810   30.5300   41.0910 C   0  0  0  0  0  0  0  0  0  0  0  0
   36.6610   31.6340   40.4880 N   0  0  0  0  0  0  0  0  0  0  0  0
   37.9530   31.8630   40.7720 C   0  0  0  0  0  0  0  0  0  0  0  0
   38.3000   30.8610   41.5870 N   0  0  0  0  0  0  0  0  0  0  0  0
   35.1820   30.1250   41.0300 H   0  0  0  0  0  0  0  0  0  0  0  0
   36.1110   32.2720   39.8570 H   0  0  0  0  0  0  0  0  0  0  0  0
   38.7930   32.9570   40.3000 C   0  0  0  0  0  0  0  0  0  0  0  0
   38.3810   34.2680   40.1830 C   0  0  0  0  0  0  0  0  0  0  0  0
   37.4320   34.7400   40.3940 H   0  0  0  0  0  0  0  0  0  0  0  0
   39.4710   34.9050   39.7190 N   0  0  0  0  0  0  0  0  0  0  0  0
   39.5440   35.9330   39.5030 H   0  0  0  0  0  0  0  0  0  0  0  0
   40.5290   34.0590   39.5460 C   0  0  0  0  0  0  0  0  0  0  0  0
   41.5060   34.3530   39.1820 H   0  0  0  0  0  0  0  0  0  0  0  0
   40.0770   32.8480   39.9170 N   0  0  0  0  0  0  0  0  0  0  0  0
   37.2660   28.8080   42.6570 C   0  0  0  0  0  0  0  0  0  0  0  0
   36.3430   28.7810   43.2470 H   0  0  0  0  0  0  0  0  0  0  0  0
   38.1120   28.8470   43.3470 H   0  0  0  0  0  0  0  0  0  0  0  0
   37.0850   26.3830   42.2870 C   0  0  0  0  0  3  0  0  0  0  0  0
   37.2610   27.6020   41.7990 C   0  0  0  0  0  3  0  0  0  0  0  0
   37.1020   25.2800   41.3190 C   0  0  0  0  0  0  0  0  0  0  0  0
   37.6200   24.0080   41.6860 C   0  0  0  0  0  0  0  0  0  0  0  0
   37.6120   23.0050   40.7430 C   0  0  0  0  0  0  0  0  0  0  0  0
   37.1180   23.2690   39.5170 N   0  0  0  0  0  0  0  0  0  0  0  0
   36.6310   24.4840   39.1880 C   0  0  0  0  0  0  0  0  0  0  0  0
   36.6300   25.4600   40.0810 N   0  0  0  0  0  0  0  0  0  0  0  0
   38.0050   23.8620   42.6960 H   0  0  0  0  0  0  0  0  0  0  0  0
   38.0070   22.0210   41.0120 H   0  0  0  0  0  0  0  0  0  0  0  0
   36.2310   24.7120   38.2090 H   0  0  0  0  0  0  0  0  0  0  0  0
  1 16  1  0  0  0  0
  2  1  2  0  0  0  0
  3  4  1  0  0  0  0
  3  2  1  0  0  0  0
  4  5  2  0  0  0  0
  5  1  1  0  0  0  0
  6  2  1  0  0  0  0
  7  3  1  0  0  0  0
  8  4  1  0  0  0  0
  9  8  2  0  0  0  0
  9 10  1  0  0  0  0
 11  9  1  0  0  0  0
 12 11  1  0  0  0  0
 13 11  1  0  0  0  0
 13 15  2  0  0  0  0
 14 13  1  0  0  0  0
 15  8  1  0  0  0  0
 16 17  1  0  0  0  0
 16 18  1  0  0  0  0
 20 19  2  0  0  0  0
 20 16  1  0  0  0  0
 21 22  1  0  0  0  0
 21 19  1  0  0  0  0
 22 27  1  0  0  0  0
 23 28  1  0  0  0  0
 23 22  2  0  0  0  0
 24 23  1  0  0  0  0
 25 24  2  0  0  0  0
 25 26  1  0  0  0  0
 26 21  2  0  0  0  0
 29 25  1  0  0  0  0
M  END
>  <minimizedAffinity>
-5.1636405

$$$$

 OpenBabel03252504393D

 29 31  0  0  0  0  0  0  0  0999 V2000
   37.6030   32.1960   40.4170 C   0  0  0  0  0  0  0  0  0  0  0  0
   37.3230   33.1970   39.5270 C   0  0  0  0  0  0  0  0  0  0  0  0
   38.4920   33.8550   39.4080 N   0  0  0  0  0  0  0  0  0  0  0  0
   39.4670   33.3250   40.1650 C   0  0  0  0  0  0  0  0  0  0  0  0
   38.8850   32.2920   40.7840 N   0  0  0  0  0  0  0  0  0  0  0  0
   36.3890   33.4160   39.0310 H   0  0  0  0  0  0  0  0  0  0  0  0
   38.6600   34.6960   38.7990 H   0  0  0  0  0  0  0  0  0  0  0  0
   40.8480   33.7720   40.2870 C   0  0  0  0  0  0  0  0  0  0  0  0
   41.3640   34.9000   39.6840 C   0  0  0  0  0  0  0  0  0  0  0  0
   40.9050   35.6410   39.0440 H   0  0  0  0  0  0  0  0  0  0  0  0
   42.6510   34.9100   40.0730 N   0  0  0  0  0  0  0  0  0  0  0  0
   43.3730   35.6300   39.8100 H   0  0  0  0  0  0  0  0  0  0  0  0
   42.9550   33.8530   40.8810 C   0  0  0  0  0  0  0  0  0  0  0  0
   43.9300   33.6600   41.3110 H   0  0  0  0  0  0  0  0  0  0  0  0
   41.8100   33.1580   40.9980 N   0  0  0  0  0  0  0  0  0  0  0  0
   36.6260   31.1480   40.9090 C   0  0  0  0  0  0  0  0  0  0  0  0
   35.9860   30.8420   40.0720 H   0  0  0  0  0  0  0  0  0  0  0  0
   35.9900   31.5750   41.6880 H   0  0  0  0  0  0  0  0  0  0  0  0
   36.7590   28.8940   41.8850 C   0  0  0  0  0  3  0  0  0  0  0  0
   37.3640   29.9430   41.3460 C   0  0  0  0  0  3  0  0  0  0  0  0
   37.6170   27.7680   42.2700 C   0  0  0  0  0  0  0  0  0  0  0  0
   38.4850   27.8760   43.3910 C   0  0  0  0  0  0  0  0  0  0  0  0
   39.2700   26.7910   43.7140 C   0  0  0  0  0  0  0  0  0  0  0  0
   39.1830   25.6780   42.9590 N   0  0  0  0  0  0  0  0  0  0  0  0
   38.3520   25.5960   41.8980 C   0  0  0  0  0  0  0  0  0  0  0  0
   37.5900   26.6280   41.5730 N   0  0  0  0  0  0  0  0  0  0  0  0
   38.5060   28.8070   43.9600 H   0  0  0  0  0  0  0  0  0  0  0  0
   39.9410   26.8610   44.5740 H   0  0  0  0  0  0  0  0  0  0  0  0
   38.2700   24.7100   41.2820 H   0  0  0  0  0  0  0  0  0  0  0  0
  1  5  1  0  0  0  0
  1 16  1  0  0  0  0
  2  1  2  0  0  0  0
  3  2  1  0  0  0  0
  3  4  1  0  0  0  0
  4  8  1  0  0  0  0
  4  5  2  0  0  0  0
  6  2  1  0  0  0  0
  7  3  1  0  0  0  0
  8 15  1  0  0  0  0
  9 11  1  0  0  0  0
  9  8  2  0  0  0  0
 10  9  1  0  0  0  0
 11 13  1  0  0  0  0
 12 11  1  0  0  0  0
 13 15  2  0  0  0  0
 13 14  1  0  0  0  0
 16 20  1  0  0  0  0
 16 18  1  0  0  0  0
 17 16  1  0  0  0  0
 19 21  1  0  0  0  0
 20 19  2  0  0  0  0
 21 22  1  0  0  0  0
 22 23  2  0  0  0  0
 22 27  1  0  0  0  0
 23 28  1  0  0  0  0
 24 23  1  0  0  0  0
 25 24  2  0  0  0  0
 26 25  1  0  0  0  0
 26 21  2  0  0  0  0
 29 25  1  0  0  0  0
M  END
>  <minimizedAffinity>
-5.13832855

$$$$

 OpenBabel03252504393D

 29 31  0  0  0  0  0  0  0  0999 V2000
   36.5020   28.8360   41.8010 C   0  0  0  0  0  0  0  0  0  0  0  0
   35.5940   28.9640   40.7850 C   0  0  0  0  0  0  0  0  0  0  0  0
   35.9190   30.1390   40.2130 N   0  0  0  0  0  0  0  0  0  0  0  0
   36.9620   30.7380   40.8120 C   0  0  0  0  0  0  0  0  0  0  0  0
   37.3060   29.9040   41.7990 N   0  0  0  0  0  0  0  0  0  0  0  0
   34.8020   28.2880   40.5000 H   0  0  0  0  0  0  0  0  0  0  0  0
   35.4310   30.5720   39.3880 H   0  0  0  0  0  0  0  0  0  0  0  0
   37.5830   32.0110   40.4660 C   0  0  0  0  0  0  0  0  0  0  0  0
   37.1320   32.8600   39.4770 C   0  0  0  0  0  0  0  0  0  0  0  0
   36.2950   32.7840   38.7970 H   0  0  0  0  0  0  0  0  0  0  0  0
   37.9990   33.8870   39.5190 N   0  0  0  0  0  0  0  0  0  0  0  0
   37.9780   34.7420   38.9050 H   0  0  0  0  0  0  0  0  0  0  0  0
   38.9550   33.7180   40.4790 C   0  0  0  0  0  0  0  0  0  0  0  0
   39.7540   34.4180   40.6900 H   0  0  0  0  0  0  0  0  0  0  0  0
   38.6710   32.5360   41.0550 N   0  0  0  0  0  0  0  0  0  0  0  0
   36.5860   27.6760   42.7730 C   0  0  0  0  0  0  0  0  0  0  0  0
   36.1910   26.7780   42.2850 H   0  0  0  0  0  0  0  0  0  0  0  0
   35.9720   27.8870   43.6510 H   0  0  0  0  0  0  0  0  0  0  0  0
   38.6660   26.3780   42.5740 C   0  0  0  0  0  3  0  0  0  0  0  0
   38.0030   27.3990   43.0970 C   0  0  0  0  0  3  0  0  0  0  0  0
   40.0660   26.2250   42.9840 C   0  0  0  0  0  0  0  0  0  0  0  0
   40.6580   27.1560   43.8810 C   0  0  0  0  0  0  0  0  0  0  0  0
   41.9760   26.9690   44.2380 C   0  0  0  0  0  0  0  0  0  0  0  0
   42.6450   25.9180   43.7250 N   0  0  0  0  0  0  0  0  0  0  0  0
   42.0640   25.0450   42.8750 C   0  0  0  0  0  0  0  0  0  0  0  0
   40.7990   25.2090   42.5210 N   0  0  0  0  0  0  0  0  0  0  0  0
   40.0590   27.9850   44.2590 H   0  0  0  0  0  0  0  0  0  0  0  0
   42.4430   27.6770   44.9280 H   0  0  0  0  0  0  0  0  0  0  0  0
   42.5880   24.1960   42.4550 H   0  0  0  0  0  0  0  0  0  0  0  0
  1 16  1  0  0  0  0
  2  1  2  0  0  0  0
  3  2  1  0  0  0  0
  3  4  1  0  0  0  0
  4  5  2  0  0  0  0
  5  1  1  0  0  0  0
  6  2  1  0  0  0  0
  7  3  1  0  0  0  0
  8  4  1  0  0  0  0
  8 15  1  0  0  0  0
  9 11  1  0  0  0  0
  9  8  2  0  0  0  0
 10  9  1  0  0  0  0
 11 13  1  0  0  0  0
 12 11  1  0  0  0  0
 13 14  1  0  0  0  0
 13 15  2  0  0  0  0
 16 20  1  0  0  0  0
 16 18  1  0  0  0  0
 17 16  1  0  0  0  0
 19 21  1  0  0  0  0
 19 20  2  0  0  0  0
 21 22  1  0  0  0  0
 22 23  2  0  0  0  0
 22 27  1  0  0  0  0
 23 28  1  0  0  0  0
 24 23  1  0  0  0  0
 25 24  2  0  0  0  0
 26 25  1  0  0  0  0
 26 21  2  0  0  0  0
 29 25  1  0  0  0  0
M  END
>  <minimizedAffinity>
-5.1145916

$$$$

 OpenBabel03252504393D

 29 31  0  0  0  0  0  0  0  0999 V2000
   38.9320   33.8190   40.1760 C   0  0  0  0  0  0  0  0  0  0  0  0
   37.6840   34.1600   39.7310 C   0  0  0  0  0  0  0  0  0  0  0  0
   36.9330   33.0840   40.0330 N   0  0  0  0  0  0  0  0  0  0  0  0
   37.6370   32.1090   40.6310 C   0  0  0  0  0  0  0  0  0  0  0  0
   38.8810   32.5940   40.7080 N   0  0  0  0  0  0  0  0  0  0  0  0
   37.3660   35.0730   39.2500 H   0  0  0  0  0  0  0  0  0  0  0  0
   35.9050   32.9830   39.8360 H   0  0  0  0  0  0  0  0  0  0  0  0
   37.1570   30.8130   41.0940 C   0  0  0  0  0  0  0  0  0  0  0  0
   35.9260   30.2760   40.7820 C   0  0  0  0  0  0  0  0  0  0  0  0
   35.1120   30.6560   40.1800 H   0  0  0  0  0  0  0  0  0  0  0  0
   35.9240   29.0910   41.4190 N   0  0  0  0  0  0  0  0  0  0  0  0
   35.1420   28.3860   41.4160 H   0  0  0  0  0  0  0  0  0  0  0  0
   37.0850   28.8700   42.1030 C   0  0  0  0  0  0  0  0  0  0  0  0
   37.3030   27.9840   42.6860 H   0  0  0  0  0  0  0  0  0  0  0  0
   37.8370   29.9630   41.8830 N   0  0  0  0  0  0  0  0  0  0  0  0
   40.1730   34.6850   40.0840 C   0  0  0  0  0  0  0  0  0  0  0  0
   40.5040   34.9350   41.0990 H   0  0  0  0  0  0  0  0  0  0  0  0
   39.9350   35.6140   39.5620 H   0  0  0  0  0  0  0  0  0  0  0  0
   41.6120   34.0810   38.1830 C   0  0  0  0  0  3  0  0  0  0  0  0
   41.2700   33.9190   39.4530 C   0  0  0  0  0  3  0  0  0  0  0  0
   42.7200   33.2540   37.6910 C   0  0  0  0  0  0  0  0  0  0  0  0
   42.4650   31.9850   37.1030 C   0  0  0  0  0  0  0  0  0  0  0  0
   43.5390   31.2480   36.6550 C   0  0  0  0  0  0  0  0  0  0  0  0
   44.7790   31.7560   36.7920 N   0  0  0  0  0  0  0  0  0  0  0  0
   45.0000   32.9650   37.3530 C   0  0  0  0  0  0  0  0  0  0  0  0
   43.9810   33.6870   37.7890 N   0  0  0  0  0  0  0  0  0  0  0  0
   41.4360   31.6340   37.0240 H   0  0  0  0  0  0  0  0  0  0  0  0
   43.3570   30.2700   36.2010 H   0  0  0  0  0  0  0  0  0  0  0  0
   45.9890   33.3870   37.4690 H   0  0  0  0  0  0  0  0  0  0  0  0
  1  5  1  0  0  0  0
  2  3  1  0  0  0  0
  2  1  2  0  0  0  0
  3  4  1  0  0  0  0
  4  5  2  0  0  0  0
  4  8  1  0  0  0  0
  6  2  1  0  0  0  0
  7  3  1  0  0  0  0
  8 15  1  0  0  0  0
  9  8  2  0  0  0  0
  9 11  1  0  0  0  0
 10  9  1  0  0  0  0
 11 13  1  0  0  0  0
 12 11  1  0  0  0  0
 13 14  1  0  0  0  0
 15 13  2  0  0  0  0
 16  1  1  0  0  0  0
 16 17  1  0  0  0  0
 18 16  1  0  0  0  0
 19 20  2  0  0  0  0
 20 16  1  0  0  0  0
 21 26  1  0  0  0  0
 21 19  1  0  0  0  0
 22 21  2  0  0  0  0
 23 24  2  0  0  0  0
 23 22  1  0  0  0  0
 24 25  1  0  0  0  0
 25 29  1  0  0  0  0
 25 26  2  0  0  0  0
 27 22  1  0  0  0  0
 28 23  1  0  0  0  0
M  END
>  <minimizedAffinity>
-5.11239672

$$$$
