
 OpenBabel03242518563D

 41 43  0  0  1  0  0  0  0  0999 V2000
   38.0030   31.4240   39.4460 C   0  0  2  0  0  0  0  0  0  0  0  0
   37.2750   32.6980   39.1540 C   0  0  0  0  0  0  0  0  0  0  0  0
   37.9240   33.7730   39.9490 C   0  0  0  0  0  0  0  0  0  0  0  0
   39.0180   33.3320   40.8640 C   0  0  0  0  0  0  0  0  0  0  0  0
   40.0670   32.5770   40.0870 C   0  0  0  0  0  0  0  0  0  0  0  0
   39.4750   31.6290   39.1560 C   0  0  2  0  0  0  0  0  0  0  0  0
   37.9620   31.2260   40.5370 H   0  0  0  0  0  0  0  0  0  0  0  0
   37.2170   32.9360   38.0820 H   0  0  0  0  0  0  0  0  0  0  0  0
   36.2040   32.5300   39.4730 H   0  0  0  0  0  0  0  0  0  0  0  0
   38.2720   34.6570   39.3520 H   0  0  0  0  0  0  0  0  0  0  0  0
   37.1370   34.2240   40.6190 H   0  0  0  0  0  0  0  0  0  0  0  0
   39.4670   34.2490   41.2980 H   0  0  0  0  0  0  0  0  0  0  0  0
   38.6500   32.7440   41.7310 H   0  0  0  0  0  0  0  0  0  0  0  0
   40.7020   32.0520   40.8460 H   0  0  0  0  0  0  0  0  0  0  0  0
   40.7430   33.3620   39.6600 H   0  0  0  0  0  0  0  0  0  0  0  0
   40.0220   30.6660   39.1560 H   0  0  0  0  0  0  0  0  0  0  0  0
   39.6610   32.2410   37.8090 C   0  0  0  0  0  0  0  0  0  0  0  0
   39.0020   31.7530   37.0550 H   0  0  0  0  0  0  0  0  0  0  0  0
   39.5180   33.3360   37.7560 H   0  0  0  0  0  0  0  0  0  0  0  0
   41.0730   31.9150   37.3930 C   0  0  0  0  0  0  0  0  0  0  0  0
   41.9410   33.0020   37.2450 C   0  0  0  0  0  0  0  0  0  0  0  0
   41.9230   34.0810   37.3410 H   0  0  0  0  0  0  0  0  0  0  0  0
   43.1390   32.5060   36.8730 N   0  0  0  0  0  0  0  0  0  0  0  0
   44.1090   32.8620   36.6350 H   0  0  0  0  0  0  0  0  0  0  0  0
   43.0400   31.1630   36.7860 C   0  0  0  0  0  0  0  0  0  0  0  0
   43.6570   30.2960   36.5440 H   0  0  0  0  0  0  0  0  0  0  0  0
   41.8050   30.8000   37.0960 N   0  0  0  0  0  0  0  0  0  0  0  0
   37.4450   30.2280   38.7710 C   0  0  0  0  0  0  0  0  0  0  0  0
   37.0920   30.2260   37.5730 O   0  0  0  0  0  0  0  0  0  0  0  0
   36.9450   26.7400   39.7380 C   0  0  0  0  0  0  0  0  0  0  0  0
   37.0480   26.7460   41.1530 C   0  0  0  0  0  0  0  0  0  0  0  0
   37.3000   27.9780   41.7400 C   0  0  0  0  0  0  0  0  0  0  0  0
   37.4130   29.0100   40.9010 N   0  0  0  0  0  0  0  0  0  0  0  0
   37.3150   29.0090   39.5870 C   0  0  0  0  0  0  0  0  0  0  0  0
   37.0730   27.8300   38.9910 N   0  0  0  0  0  0  0  0  0  0  0  0
   36.7450   25.7500   39.3020 H   0  0  0  0  0  0  0  0  0  0  0  0
   36.9410   25.8480   41.7420 H   0  0  0  0  0  0  0  0  0  0  0  0
   37.4040   28.0020   43.1950 C   0  0  0  0  0  0  0  0  0  0  0  0
   38.4540   27.1940   43.6020 F   0  0  0  0  0  0  0  0  0  0  0  0
   36.2400   27.5020   43.6790 F   0  0  0  0  0  0  0  0  0  0  0  0
   37.6950   29.2730   43.6770 F   0  0  0  0  0  0  0  0  0  0  0  0
  1  7  1  1  0  0  0
  2  1  1  0  0  0  0
  2  9  1  0  0  0  0
  2  3  1  0  0  0  0
  3 11  1  0  0  0  0
  3  4  1  0  0  0  0
  4 12  1  0  0  0  0
  4 13  1  0  0  0  0
  5 14  1  0  0  0  0
  5  4  1  0  0  0  0
  6 16  1  1  0  0  0
  6  1  1  0  0  0  0
  6  5  1  0  0  0  0
  8  2  1  0  0  0  0
 10  3  1  0  0  0  0
 15  5  1  0  0  0  0
 17  6  1  0  0  0  0
 18 17  1  0  0  0  0
 19 17  1  0  0  0  0
 20 17  1  0  0  0  0
 21 22  1  0  0  0  0
 21 20  2  0  0  0  0
 23 21  1  0  0  0  0
 24 23  1  0  0  0  0
 25 23  1  0  0  0  0
 25 27  2  0  0  0  0
 26 25  1  0  0  0  0
 27 20  1  0  0  0  0
 28  1  1  0  0  0  0
 28 34  1  0  0  0  0
 29 28  2  0  0  0  0
 30 31  1  0  0  0  0
 31 32  2  0  0  0  0
 31 37  1  0  0  0  0
 32 38  1  0  0  0  0
 33 32  1  0  0  0  0
 34 33  2  0  0  0  0
 35 34  1  0  0  0  0
 35 30  2  0  0  0  0
 36 30  1  0  0  0  0
 38 39  1  0  0  0  0
 38 41  1  0  0  0  0
 38 40  1  0  0  0  0
M  END
>  <minimizedAffinity>
-5.76846504

$$$$

 OpenBabel03242518563D

 41 43  0  0  1  0  0  0  0  0999 V2000
   38.6050   30.8440   40.1600 C   0  0  2  0  0  0  0  0  0  0  0  0
   38.3760   30.9650   38.6880 C   0  0  0  0  0  0  0  0  0  0  0  0
   37.6690   32.2520   38.4520 C   0  0  0  0  0  0  0  0  0  0  0  0
   37.2960   33.0190   39.6760 C   0  0  0  0  0  0  0  0  0  0  0  0
   38.5190   33.2650   40.5240 C   0  0  0  0  0  0  0  0  0  0  0  0
   39.3460   32.0740   40.6390 C   0  0  2  0  0  0  0  0  0  0  0  0
   37.6270   30.8910   40.6840 H   0  0  0  0  0  0  0  0  0  0  0  0
   39.2930   30.8680   38.0890 H   0  0  0  0  0  0  0  0  0  0  0  0
   37.7400   30.0780   38.3930 H   0  0  0  0  0  0  0  0  0  0  0  0
   38.1690   32.9380   37.7200 H   0  0  0  0  0  0  0  0  0  0  0  0
   36.6930   32.0150   37.9380 H   0  0  0  0  0  0  0  0  0  0  0  0
   36.8800   33.9900   39.3360 H   0  0  0  0  0  0  0  0  0  0  0  0
   36.4840   32.5390   40.2610 H   0  0  0  0  0  0  0  0  0  0  0  0
   38.1450   33.5930   41.5270 H   0  0  0  0  0  0  0  0  0  0  0  0
   38.9980   34.1830   40.0950 H   0  0  0  0  0  0  0  0  0  0  0  0
   39.7220   31.9400   41.6730 H   0  0  0  0  0  0  0  0  0  0  0  0
   40.5300   32.3390   39.7730 C   0  0  0  0  0  0  0  0  0  0  0  0
   40.9910   31.3860   39.4240 H   0  0  0  0  0  0  0  0  0  0  0  0
   40.3490   32.9900   38.8980 H   0  0  0  0  0  0  0  0  0  0  0  0
   41.5610   32.9920   40.6590 C   0  0  0  0  0  0  0  0  0  0  0  0
   41.9430   32.2720   41.7960 C   0  0  0  0  0  0  0  0  0  0  0  0
   41.7210   31.3280   42.2780 H   0  0  0  0  0  0  0  0  0  0  0  0
   42.8600   33.0160   42.4470 N   0  0  0  0  0  0  0  0  0  0  0  0
   43.4550   32.9610   43.3240 H   0  0  0  0  0  0  0  0  0  0  0  0
   43.0530   34.1610   41.7580 C   0  0  0  0  0  0  0  0  0  0  0  0
   43.6440   35.0760   41.8120 H   0  0  0  0  0  0  0  0  0  0  0  0
   42.2780   34.1550   40.6840 N   0  0  0  0  0  0  0  0  0  0  0  0
   39.2560   29.5800   40.5800 C   0  0  0  0  0  0  0  0  0  0  0  0
   40.3690   29.2130   40.1480 O   0  0  0  0  0  0  0  0  0  0  0  0
   37.4110   28.5350   43.5560 C   0  0  0  0  0  0  0  0  0  0  0  0
   37.1730   27.1500   43.3580 C   0  0  0  0  0  0  0  0  0  0  0  0
   37.6620   26.6110   42.1750 C   0  0  0  0  0  0  0  0  0  0  0  0
   38.2980   27.4620   41.3670 N   0  0  0  0  0  0  0  0  0  0  0  0
   38.5220   28.7480   41.5480 C   0  0  0  0  0  0  0  0  0  0  0  0
   38.0600   29.2980   42.6840 N   0  0  0  0  0  0  0  0  0  0  0  0
   37.0120   28.9330   44.5010 H   0  0  0  0  0  0  0  0  0  0  0  0
   36.6430   26.5480   44.0790 H   0  0  0  0  0  0  0  0  0  0  0  0
   37.4300   25.1880   41.9590 C   0  0  0  0  0  0  0  0  0  0  0  0
   36.3180   24.7800   42.6780 F   0  0  0  0  0  0  0  0  0  0  0  0
   38.5270   24.5380   42.4230 F   0  0  0  0  0  0  0  0  0  0  0  0
   37.1480   24.9010   40.6280 F   0  0  0  0  0  0  0  0  0  0  0  0
  1 28  1  0  0  0  0
  1  6  1  0  0  0  0
  1  7  1  1  0  0  0
  2  1  1  0  0  0  0
  3  2  1  0  0  0  0
  3  4  1  0  0  0  0
  4 13  1  0  0  0  0
  4  5  1  0  0  0  0
  5  6  1  0  0  0  0
  5 14  1  0  0  0  0
  6 16  1  1  0  0  0
  8  2  1  0  0  0  0
  9  2  1  0  0  0  0
 10  3  1  0  0  0  0
 11  3  1  0  0  0  0
 12  4  1  0  0  0  0
 15  5  1  0  0  0  0
 17  6  1  0  0  0  0
 17 20  1  0  0  0  0
 18 17  1  0  0  0  0
 19 17  1  0  0  0  0
 20 27  1  0  0  0  0
 20 21  2  0  0  0  0
 21 22  1  0  0  0  0
 21 23  1  0  0  0  0
 23 24  1  0  0  0  0
 25 26  1  0  0  0  0
 25 23  1  0  0  0  0
 27 25  2  0  0  0  0
 28 34  1  0  0  0  0
 29 28  2  0  0  0  0
 30 36  1  0  0  0  0
 31 30  1  0  0  0  0
 31 37  1  0  0  0  0
 32 31  2  0  0  0  0
 33 34  2  0  0  0  0
 33 32  1  0  0  0  0
 34 35  1  0  0  0  0
 35 30  2  0  0  0  0
 38 32  1  0  0  0  0
 38 40  1  0  0  0  0
 38 39  1  0  0  0  0
 41 38  1  0  0  0  0
M  END
>  <minimizedAffinity>
-5.71372271

$$$$

 OpenBabel03242518563D

 41 43  0  0  1  0  0  0  0  0999 V2000
   37.5150   31.0630   40.3390 C   0  0  2  0  0  0  0  0  0  0  0  0
   36.8480   32.3890   40.1580 C   0  0  0  0  0  0  0  0  0  0  0  0
   37.8930   33.3590   39.7350 C   0  0  0  0  0  0  0  0  0  0  0  0
   39.2870   32.8280   39.6890 C   0  0  0  0  0  0  0  0  0  0  0  0
   39.3460   31.6080   38.8050 C   0  0  0  0  0  0  0  0  0  0  0  0
   38.2350   30.7030   39.0570 C   0  0  2  0  0  0  0  0  0  0  0  0
   38.3260   31.1650   41.0910 H   0  0  0  0  0  0  0  0  0  0  0  0
   35.9900   32.3610   39.4700 H   0  0  0  0  0  0  0  0  0  0  0  0
   36.4080   32.6610   41.1630 H   0  0  0  0  0  0  0  0  0  0  0  0
   37.6710   33.9060   38.7810 H   0  0  0  0  0  0  0  0  0  0  0  0
   37.9140   34.1900   40.4960 H   0  0  0  0  0  0  0  0  0  0  0  0
   39.9240   33.6290   39.2580 H   0  0  0  0  0  0  0  0  0  0  0  0
   39.7100   32.6250   40.6950 H   0  0  0  0  0  0  0  0  0  0  0  0
   40.3260   31.1100   39.0220 H   0  0  0  0  0  0  0  0  0  0  0  0
   39.4630   32.0010   37.7630 H   0  0  0  0  0  0  0  0  0  0  0  0
   38.5670   29.6460   39.0660 H   0  0  0  0  0  0  0  0  0  0  0  0
   37.3280   30.8680   37.8850 C   0  0  0  0  0  0  0  0  0  0  0  0
   36.2600   30.7940   38.1940 H   0  0  0  0  0  0  0  0  0  0  0  0
   37.4680   31.7940   37.2970 H   0  0  0  0  0  0  0  0  0  0  0  0
   37.5790   29.6810   36.9900 C   0  0  0  0  0  0  0  0  0  0  0  0
   36.9690   29.7160   35.7320 C   0  0  0  0  0  0  0  0  0  0  0  0
   36.3280   30.3690   35.1520 H   0  0  0  0  0  0  0  0  0  0  0  0
   37.3120   28.5790   35.0930 N   0  0  0  0  0  0  0  0  0  0  0  0
   37.1400   28.1070   34.1590 H   0  0  0  0  0  0  0  0  0  0  0  0
   38.1050   27.8510   35.9070 C   0  0  0  0  0  0  0  0  0  0  0  0
   38.6450   26.9020   35.9140 H   0  0  0  0  0  0  0  0  0  0  0  0
   38.2700   28.5040   37.0470 N   0  0  0  0  0  0  0  0  0  0  0  0
   36.6200   29.9840   40.8180 C   0  0  0  0  0  0  0  0  0  0  0  0
   35.3930   29.9620   40.5790 O   0  0  0  0  0  0  0  0  0  0  0  0
   38.6640   28.2470   43.2990 C   0  0  0  0  0  0  0  0  0  0  0  0
   38.4170   26.8700   43.0610 C   0  0  0  0  0  0  0  0  0  0  0  0
   37.5280   26.5790   42.0350 C   0  0  0  0  0  0  0  0  0  0  0  0
   37.0140   27.6310   41.3950 N   0  0  0  0  0  0  0  0  0  0  0  0
   37.2430   28.9110   41.6110 C   0  0  0  0  0  0  0  0  0  0  0  0
   38.0990   29.2230   42.5990 N   0  0  0  0  0  0  0  0  0  0  0  0
   39.3730   28.4450   44.1170 H   0  0  0  0  0  0  0  0  0  0  0  0
   38.8870   26.0910   43.6410 H   0  0  0  0  0  0  0  0  0  0  0  0
   37.2670   25.1680   41.7740 C   0  0  0  0  0  0  0  0  0  0  0  0
   36.3320   24.6910   42.6780 F   0  0  0  0  0  0  0  0  0  0  0  0
   38.4410   24.5120   41.9560 F   0  0  0  0  0  0  0  0  0  0  0  0
   36.7160   24.9630   40.5140 F   0  0  0  0  0  0  0  0  0  0  0  0
  1 28  1  0  0  0  0
  1  7  1  1  0  0  0
  2  1  1  0  0  0  0
  2  9  1  0  0  0  0
  3  2  1  0  0  0  0
  3 11  1  0  0  0  0
  4  3  1  0  0  0  0
  4 13  1  0  0  0  0
  5 14  1  0  0  0  0
  5  6  1  0  0  0  0
  5  4  1  0  0  0  0
  6 16  1  1  0  0  0
  6  1  1  0  0  0  0
  8  2  1  0  0  0  0
 10  3  1  0  0  0  0
 12  4  1  0  0  0  0
 15  5  1  0  0  0  0
 17 18  1  0  0  0  0
 17  6  1  0  0  0  0
 19 17  1  0  0  0  0
 20 27  1  0  0  0  0
 20 17  1  0  0  0  0
 21 20  2  0  0  0  0
 22 21  1  0  0  0  0
 23 21  1  0  0  0  0
 23 25  1  0  0  0  0
 24 23  1  0  0  0  0
 25 26  1  0  0  0  0
 25 27  2  0  0  0  0
 28 34  1  0  0  0  0
 29 28  2  0  0  0  0
 30 36  1  0  0  0  0
 31 30  1  0  0  0  0
 31 37  1  0  0  0  0
 32 31  2  0  0  0  0
 33 34  2  0  0  0  0
 33 32  1  0  0  0  0
 34 35  1  0  0  0  0
 35 30  2  0  0  0  0
 38 40  1  0  0  0  0
 38 32  1  0  0  0  0
 38 39  1  0  0  0  0
 41 38  1  0  0  0  0
M  END
>  <minimizedAffinity>
-5.60129976

$$$$

 OpenBabel03242518563D

 41 43  0  0  1  0  0  0  0  0999 V2000
   38.0340   31.2490   39.9900 C   0  0  2  0  0  0  0  0  0  0  0  0
   37.0280   32.1700   39.3780 C   0  0  0  0  0  0  0  0  0  0  0  0
   37.4620   33.5620   39.6700 C   0  0  0  0  0  0  0  0  0  0  0  0
   38.6720   33.6940   40.5330 C   0  0  0  0  0  0  0  0  0  0  0  0
   39.8210   32.9240   39.9330 C   0  0  0  0  0  0  0  0  0  0  0  0
   39.4060   31.6110   39.4630 C   0  0  2  0  0  0  0  0  0  0  0  0
   38.0950   31.4530   41.0800 H   0  0  0  0  0  0  0  0  0  0  0  0
   36.8620   31.9920   38.3050 H   0  0  0  0  0  0  0  0  0  0  0  0
   36.0380   31.9290   39.8690 H   0  0  0  0  0  0  0  0  0  0  0  0
   37.5730   34.2210   38.7700 H   0  0  0  0  0  0  0  0  0  0  0  0
   36.6310   34.0650   40.2410 H   0  0  0  0  0  0  0  0  0  0  0  0
   38.9290   34.7730   40.5690 H   0  0  0  0  0  0  0  0  0  0  0  0
   38.4900   33.3990   41.5880 H   0  0  0  0  0  0  0  0  0  0  0  0
   40.5960   32.8360   40.7370 H   0  0  0  0  0  0  0  0  0  0  0  0
   40.2830   33.6160   39.1820 H   0  0  0  0  0  0  0  0  0  0  0  0
   40.1540   30.8340   39.7200 H   0  0  0  0  0  0  0  0  0  0  0  0
   39.3820   31.7210   37.9760 C   0  0  0  0  0  0  0  0  0  0  0  0
   38.6750   30.9820   37.5330 H   0  0  0  0  0  0  0  0  0  0  0  0
   39.1510   32.7250   37.5740 H   0  0  0  0  0  0  0  0  0  0  0  0
   40.7530   31.3110   37.5030 C   0  0  0  0  0  0  0  0  0  0  0  0
   41.0680   29.9530   37.6220 C   0  0  0  0  0  0  0  0  0  0  0  0
   40.6090   29.0360   37.9710 H   0  0  0  0  0  0  0  0  0  0  0  0
   42.3210   29.7930   37.1500 N   0  0  0  0  0  0  0  0  0  0  0  0
   43.0260   29.0130   37.0100 H   0  0  0  0  0  0  0  0  0  0  0  0
   42.7860   30.9950   36.7480 C   0  0  0  0  0  0  0  0  0  0  0  0
   43.6820   31.4370   36.3100 H   0  0  0  0  0  0  0  0  0  0  0  0
   41.8530   31.9110   36.9560 N   0  0  0  0  0  0  0  0  0  0  0  0
   37.7220   29.8080   39.8400 C   0  0  0  0  0  0  0  0  0  0  0  0
   37.4510   29.2820   38.7380 O   0  0  0  0  0  0  0  0  0  0  0  0
   37.8710   28.8560   43.3640 C   0  0  0  0  0  0  0  0  0  0  0  0
   37.7940   27.4390   43.3520 C   0  0  0  0  0  0  0  0  0  0  0  0
   37.6830   26.8460   42.1020 C   0  0  0  0  0  0  0  0  0  0  0  0
   37.6640   27.6810   41.0620 N   0  0  0  0  0  0  0  0  0  0  0  0
   37.7380   28.9960   41.0680 C   0  0  0  0  0  0  0  0  0  0  0  0
   37.8450   29.5990   42.2640 N   0  0  0  0  0  0  0  0  0  0  0  0
   37.9590   29.2980   44.3680 H   0  0  0  0  0  0  0  0  0  0  0  0
   37.8170   26.8540   44.2580 H   0  0  0  0  0  0  0  0  0  0  0  0
   37.6080   25.3890   42.0730 C   0  0  0  0  0  0  0  0  0  0  0  0
   36.4230   24.9710   42.6570 F   0  0  0  0  0  0  0  0  0  0  0  0
   38.6540   24.9280   42.8030 F   0  0  0  0  0  0  0  0  0  0  0  0
   37.5870   24.8940   40.7740 F   0  0  0  0  0  0  0  0  0  0  0  0
  1  7  1  1  0  0  0
  2  3  1  0  0  0  0
  2  9  1  0  0  0  0
  2  1  1  0  0  0  0
  3 11  1  0  0  0  0
  3  4  1  0  0  0  0
  4 12  1  0  0  0  0
  4 13  1  0  0  0  0
  5  4  1  0  0  0  0
  5 14  1  0  0  0  0
  6 16  1  1  0  0  0
  6  5  1  0  0  0  0
  6  1  1  0  0  0  0
  8  2  1  0  0  0  0
 10  3  1  0  0  0  0
 15  5  1  0  0  0  0
 17  6  1  0  0  0  0
 18 17  1  0  0  0  0
 19 17  1  0  0  0  0
 20 21  2  0  0  0  0
 20 17  1  0  0  0  0
 21 22  1  0  0  0  0
 23 21  1  0  0  0  0
 24 23  1  0  0  0  0
 25 27  2  0  0  0  0
 25 23  1  0  0  0  0
 26 25  1  0  0  0  0
 27 20  1  0  0  0  0
 28  1  1  0  0  0  0
 28 34  1  0  0  0  0
 29 28  2  0  0  0  0
 30 36  1  0  0  0  0
 31 30  1  0  0  0  0
 31 37  1  0  0  0  0
 32 31  2  0  0  0  0
 33 34  2  0  0  0  0
 33 32  1  0  0  0  0
 34 35  1  0  0  0  0
 35 30  2  0  0  0  0
 38 32  1  0  0  0  0
 38 39  1  0  0  0  0
 38 40  1  0  0  0  0
 41 38  1  0  0  0  0
M  END
>  <minimizedAffinity>
-5.51688433

$$$$

 OpenBabel03242518563D

 41 43  0  0  1  0  0  0  0  0999 V2000
   40.6730   30.3760   40.5090 C   0  0  2  0  0  0  0  0  0  0  0  0
   41.2420   31.7010   40.1120 C   0  0  0  0  0  0  0  0  0  0  0  0
   41.7630   31.5650   38.7260 C   0  0  0  0  0  0  0  0  0  0  0  0
   41.6830   30.1970   38.1360 C   0  0  0  0  0  0  0  0  0  0  0  0
   40.2630   29.6930   38.1920 C   0  0  0  0  0  0  0  0  0  0  0  0
   39.6430   29.9640   39.4790 C   0  0  2  0  0  0  0  0  0  0  0  0
   41.4670   29.6030   40.4290 H   0  0  0  0  0  0  0  0  0  0  0  0
   40.5340   32.5350   40.2220 H   0  0  0  0  0  0  0  0  0  0  0  0
   42.0700   31.9230   40.8500 H   0  0  0  0  0  0  0  0  0  0  0  0
   41.3570   32.3110   37.9940 H   0  0  0  0  0  0  0  0  0  0  0  0
   42.8620   31.8180   38.7490 H   0  0  0  0  0  0  0  0  0  0  0  0
   42.0050   30.2820   37.0770 H   0  0  0  0  0  0  0  0  0  0  0  0
   42.3900   29.4790   38.6030 H   0  0  0  0  0  0  0  0  0  0  0  0
   40.3120   28.5920   37.9930 H   0  0  0  0  0  0  0  0  0  0  0  0
   39.7620   30.1140   37.2820 H   0  0  0  0  0  0  0  0  0  0  0  0
   39.0460   29.0990   39.8320 H   0  0  0  0  0  0  0  0  0  0  0  0
   38.6870   31.0800   39.2220 C   0  0  0  0  0  0  0  0  0  0  0  0
   38.9640   31.9850   39.8100 H   0  0  0  0  0  0  0  0  0  0  0  0
   38.5590   31.3660   38.1620 H   0  0  0  0  0  0  0  0  0  0  0  0
   37.3570   30.6270   39.7680 C   0  0  0  0  0  0  0  0  0  0  0  0
   36.8210   31.3940   40.8070 C   0  0  0  0  0  0  0  0  0  0  0  0
   37.0740   32.2730   41.3880 H   0  0  0  0  0  0  0  0  0  0  0  0
   35.6450   30.8320   41.1500 N   0  0  0  0  0  0  0  0  0  0  0  0
   34.8570   30.9920   41.8430 H   0  0  0  0  0  0  0  0  0  0  0  0
   35.4380   29.7540   40.3660 C   0  0  0  0  0  0  0  0  0  0  0  0
   34.6980   28.9680   40.2080 H   0  0  0  0  0  0  0  0  0  0  0  0
   36.4600   29.6230   39.5340 N   0  0  0  0  0  0  0  0  0  0  0  0
   40.1560   30.3180   41.8960 C   0  0  0  0  0  0  0  0  0  0  0  0
   39.9730   31.3370   42.5960 O   0  0  0  0  0  0  0  0  0  0  0  0
   40.5460   27.0890   43.5620 C   0  0  0  0  0  0  0  0  0  0  0  0
   39.2830   26.4590   43.4130 C   0  0  0  0  0  0  0  0  0  0  0  0
   38.3150   27.1870   42.7350 C   0  0  0  0  0  0  0  0  0  0  0  0
   38.6900   28.3920   42.3030 N   0  0  0  0  0  0  0  0  0  0  0  0
   39.8620   28.9810   42.4370 C   0  0  0  0  0  0  0  0  0  0  0  0
   40.8190   28.3000   43.0900 N   0  0  0  0  0  0  0  0  0  0  0  0
   41.2920   26.4890   44.1040 H   0  0  0  0  0  0  0  0  0  0  0  0
   39.0820   25.4740   43.8050 H   0  0  0  0  0  0  0  0  0  0  0  0
   37.0130   26.5500   42.5690 C   0  0  0  0  0  0  0  0  0  0  0  0
   37.1520   25.1740   42.6460 F   0  0  0  0  0  0  0  0  0  0  0  0
   36.5670   26.8880   41.3330 F   0  0  0  0  0  0  0  0  0  0  0  0
   36.1290   26.9000   43.5840 F   0  0  0  0  0  0  0  0  0  0  0  0
  1  7  1  6  0  0  0
  1 28  1  0  0  0  0
  2  8  1  0  0  0  0
  2  1  1  0  0  0  0
  2  9  1  0  0  0  0
  3 11  1  0  0  0  0
  3  2  1  0  0  0  0
  4  5  1  0  0  0  0
  4 13  1  0  0  0  0
  4  3  1  0  0  0  0
  5  6  1  0  0  0  0
  6 16  1  1  0  0  0
  6  1  1  0  0  0  0
 10  3  1  0  0  0  0
 12  4  1  0  0  0  0
 14  5  1  0  0  0  0
 15  5  1  0  0  0  0
 17  6  1  0  0  0  0
 17 20  1  0  0  0  0
 17 18  1  0  0  0  0
 19 17  1  0  0  0  0
 20 21  2  0  0  0  0
 21 23  1  0  0  0  0
 21 22  1  0  0  0  0
 23 24  1  0  0  0  0
 25 23  1  0  0  0  0
 26 25  1  0  0  0  0
 27 20  1  0  0  0  0
 27 25  2  0  0  0  0
 28 34  1  0  0  0  0
 28 29  2  0  0  0  0
 30 36  1  0  0  0  0
 31 30  1  0  0  0  0
 31 37  1  0  0  0  0
 32 31  2  0  0  0  0
 33 34  2  0  0  0  0
 33 32  1  0  0  0  0
 34 35  1  0  0  0  0
 35 30  2  0  0  0  0
 38 39  1  0  0  0  0
 38 32  1  0  0  0  0
 38 41  1  0  0  0  0
 40 38  1  0  0  0  0
M  END
>  <minimizedAffinity>
-5.51432991

$$$$

 OpenBabel03242518563D

 41 43  0  0  1  0  0  0  0  0999 V2000
   37.3780   26.1000   41.6950 C   0  0  2  0  0  0  0  0  0  0  0  0
   36.7720   24.7920   42.0950 C   0  0  0  0  0  0  0  0  0  0  0  0
   37.3020   23.7550   41.1710 C   0  0  0  0  0  0  0  0  0  0  0  0
   38.1830   24.2540   40.0750 C   0  0  0  0  0  0  0  0  0  0  0  0
   39.3290   25.0460   40.6530 C   0  0  0  0  0  0  0  0  0  0  0  0
   38.8850   25.9560   41.6970 C   0  0  2  0  0  0  0  0  0  0  0  0
   37.1220   26.3080   40.6350 H   0  0  0  0  0  0  0  0  0  0  0  0
   36.9280   24.5390   43.1540 H   0  0  0  0  0  0  0  0  0  0  0  0
   35.6530   24.9160   41.9870 H   0  0  0  0  0  0  0  0  0  0  0  0
   37.7930   22.8810   41.6740 H   0  0  0  0  0  0  0  0  0  0  0  0
   36.4210   23.2780   40.6530 H   0  0  0  0  0  0  0  0  0  0  0  0
   38.5790   23.3620   39.5460 H   0  0  0  0  0  0  0  0  0  0  0  0
   37.6330   24.8350   39.3040 H   0  0  0  0  0  0  0  0  0  0  0  0
   39.7860   25.6070   39.7980 H   0  0  0  0  0  0  0  0  0  0  0  0
   40.1050   24.2870   40.9290 H   0  0  0  0  0  0  0  0  0  0  0  0
   39.3820   26.9440   41.6130 H   0  0  0  0  0  0  0  0  0  0  0  0
   39.3480   25.3390   42.9720 C   0  0  0  0  0  0  0  0  0  0  0  0
   38.7020   25.6510   43.8250 H   0  0  0  0  0  0  0  0  0  0  0  0
   39.4300   24.2360   42.9690 H   0  0  0  0  0  0  0  0  0  0  0  0
   40.7090   25.9260   43.2530 C   0  0  0  0  0  0  0  0  0  0  0  0
   40.7560   27.3110   43.4450 C   0  0  0  0  0  0  0  0  0  0  0  0
   40.0800   28.1580   43.4570 H   0  0  0  0  0  0  0  0  0  0  0  0
   42.0440   27.6350   43.6790 N   0  0  0  0  0  0  0  0  0  0  0  0
   42.6240   28.5010   43.8800 H   0  0  0  0  0  0  0  0  0  0  0  0
   42.7860   26.5080   43.6380 C   0  0  0  0  0  0  0  0  0  0  0  0
   43.8230   26.1890   43.7500 H   0  0  0  0  0  0  0  0  0  0  0  0
   41.9930   25.4790   43.3830 N   0  0  0  0  0  0  0  0  0  0  0  0
   36.9090   27.2630   42.4860 C   0  0  0  0  0  0  0  0  0  0  0  0
   36.5250   27.1690   43.6710 O   0  0  0  0  0  0  0  0  0  0  0  0
   35.8780   30.0950   40.4210 C   0  0  0  0  0  0  0  0  0  0  0  0
   36.9550   31.0140   40.5160 C   0  0  0  0  0  0  0  0  0  0  0  0
   38.0220   30.6220   41.3130 C   0  0  0  0  0  0  0  0  0  0  0  0
   37.9060   29.4250   41.8920 N   0  0  0  0  0  0  0  0  0  0  0  0
   36.9090   28.5680   41.8040 C   0  0  0  0  0  0  0  0  0  0  0  0
   35.8610   28.9220   41.0400 N   0  0  0  0  0  0  0  0  0  0  0  0
   35.0480   30.4340   39.7830 H   0  0  0  0  0  0  0  0  0  0  0  0
   36.9490   31.9640   40.0040 H   0  0  0  0  0  0  0  0  0  0  0  0
   39.1390   31.5540   41.4170 C   0  0  0  0  0  0  0  0  0  0  0  0
   40.0850   31.2610   40.4480 F   0  0  0  0  0  0  0  0  0  0  0  0
   39.6860   31.3730   42.6460 F   0  0  0  0  0  0  0  0  0  0  0  0
   38.7480   32.8670   41.1820 F   0  0  0  0  0  0  0  0  0  0  0  0
  1  7  1  6  0  0  0
  1  6  1  0  0  0  0
  1  2  1  0  0  0  0
  1 28  1  0  0  0  0
  2  8  1  0  0  0  0
  3 10  1  0  0  0  0
  3  2  1  0  0  0  0
  4  5  1  0  0  0  0
  4  3  1  0  0  0  0
  5 15  1  0  0  0  0
  5  6  1  0  0  0  0
  6 16  1  6  0  0  0
  6 17  1  0  0  0  0
  9  2  1  0  0  0  0
 11  3  1  0  0  0  0
 12  4  1  0  0  0  0
 13  4  1  0  0  0  0
 14  5  1  0  0  0  0
 17 20  1  0  0  0  0
 17 18  1  0  0  0  0
 19 17  1  0  0  0  0
 20 27  1  0  0  0  0
 20 21  2  0  0  0  0
 21 22  1  0  0  0  0
 21 23  1  0  0  0  0
 23 24  1  0  0  0  0
 25 23  1  0  0  0  0
 25 26  1  0  0  0  0
 27 25  2  0  0  0  0
 28 29  2  0  0  0  0
 30 31  2  0  0  0  0
 30 35  1  0  0  0  0
 31 32  1  0  0  0  0
 32 38  1  0  0  0  0
 32 33  2  0  0  0  0
 34 33  1  0  0  0  0
 34 28  1  0  0  0  0
 35 34  2  0  0  0  0
 36 30  1  0  0  0  0
 37 31  1  0  0  0  0
 38 40  1  0  0  0  0
 39 38  1  0  0  0  0
 41 38  1  0  0  0  0
M  END
>  <minimizedAffinity>
-5.5009594

$$$$

 OpenBabel03242518563D

 41 43  0  0  1  0  0  0  0  0999 V2000
   37.9960   28.7230   38.2040 C   0  0  2  0  0  0  0  0  0  0  0  0
   38.7200   28.5320   36.9100 C   0  0  0  0  0  0  0  0  0  0  0  0
   37.7000   28.5000   35.8290 C   0  0  0  0  0  0  0  0  0  0  0  0
   36.2790   28.5670   36.2790 C   0  0  0  0  0  0  0  0  0  0  0  0
   36.0650   29.7880   37.1370 C   0  0  0  0  0  0  0  0  0  0  0  0
   37.1390   29.9670   38.1020 C   0  0  2  0  0  0  0  0  0  0  0  0
   37.2660   27.8960   38.3360 H   0  0  0  0  0  0  0  0  0  0  0  0
   39.5070   29.2790   36.7310 H   0  0  0  0  0  0  0  0  0  0  0  0
   39.2680   27.5470   36.9970 H   0  0  0  0  0  0  0  0  0  0  0  0
   37.8640   29.2410   35.0030 H   0  0  0  0  0  0  0  0  0  0  0  0
   37.7990   27.5120   35.2960 H   0  0  0  0  0  0  0  0  0  0  0  0
   35.6530   28.6420   35.3650 H   0  0  0  0  0  0  0  0  0  0  0  0
   35.9410   27.6420   36.7930 H   0  0  0  0  0  0  0  0  0  0  0  0
   35.0820   29.6420   37.6530 H   0  0  0  0  0  0  0  0  0  0  0  0
   35.8760   30.6270   36.4180 H   0  0  0  0  0  0  0  0  0  0  0  0
   36.7470   30.2680   39.0940 H   0  0  0  0  0  0  0  0  0  0  0  0
   37.9410   31.1110   37.5810 C   0  0  0  0  0  0  0  0  0  0  0  0
   38.9670   30.7810   37.2960 H   0  0  0  0  0  0  0  0  0  0  0  0
   37.4940   31.6650   36.7350 H   0  0  0  0  0  0  0  0  0  0  0  0
   38.1220   32.0580   38.7410 C   0  0  0  0  0  0  0  0  0  0  0  0
   36.9520   32.5880   39.2940 C   0  0  0  0  0  0  0  0  0  0  0  0
   35.8810   32.5330   39.1460 H   0  0  0  0  0  0  0  0  0  0  0  0
   37.3240   33.4000   40.3050 N   0  0  0  0  0  0  0  0  0  0  0  0
   36.8710   34.0280   41.0300 H   0  0  0  0  0  0  0  0  0  0  0  0
   38.6710   33.3890   40.3920 C   0  0  0  0  0  0  0  0  0  0  0  0
   39.4700   33.8310   40.9880 H   0  0  0  0  0  0  0  0  0  0  0  0
   39.1580   32.5870   39.4580 N   0  0  0  0  0  0  0  0  0  0  0  0
   38.8670   28.7210   39.4040 C   0  0  0  0  0  0  0  0  0  0  0  0
   40.0430   29.1430   39.3900 O   0  0  0  0  0  0  0  0  0  0  0  0
   37.4760   28.5230   42.7770 C   0  0  0  0  0  0  0  0  0  0  0  0
   37.2120   27.1420   42.9710 C   0  0  0  0  0  0  0  0  0  0  0  0
   37.5230   26.3070   41.9060 C   0  0  0  0  0  0  0  0  0  0  0  0
   38.0340   26.9040   40.8280 N   0  0  0  0  0  0  0  0  0  0  0  0
   38.2820   28.1860   40.6440 C   0  0  0  0  0  0  0  0  0  0  0  0
   37.9910   29.0180   41.6580 N   0  0  0  0  0  0  0  0  0  0  0  0
   37.2190   29.1590   43.6370 H   0  0  0  0  0  0  0  0  0  0  0  0
   36.7930   26.7590   43.8880 H   0  0  0  0  0  0  0  0  0  0  0  0
   37.2620   24.8840   42.0920 C   0  0  0  0  0  0  0  0  0  0  0  0
   36.9410   24.3050   40.8750 F   0  0  0  0  0  0  0  0  0  0  0  0
   36.1990   24.7860   42.9300 F   0  0  0  0  0  0  0  0  0  0  0  0
   38.3840   24.2040   42.5520 F   0  0  0  0  0  0  0  0  0  0  0  0
  1  7  1  1  0  0  0
  1 28  1  0  0  0  0
  2  9  1  0  0  0  0
  2  1  1  0  0  0  0
  3  4  1  0  0  0  0
  3  2  1  0  0  0  0
  4 13  1  0  0  0  0
  4  5  1  0  0  0  0
  5 14  1  0  0  0  0
  5  6  1  0  0  0  0
  6  1  1  0  0  0  0
  6 16  1  1  0  0  0
  8  2  1  0  0  0  0
 10  3  1  0  0  0  0
 11  3  1  0  0  0  0
 12  4  1  0  0  0  0
 15  5  1  0  0  0  0
 17  6  1  0  0  0  0
 17 20  1  0  0  0  0
 18 17  1  0  0  0  0
 19 17  1  0  0  0  0
 20 21  2  0  0  0  0
 20 27  1  0  0  0  0
 21 23  1  0  0  0  0
 22 21  1  0  0  0  0
 23 25  1  0  0  0  0
 23 24  1  0  0  0  0
 25 26  1  0  0  0  0
 27 25  2  0  0  0  0
 28 34  1  0  0  0  0
 29 28  2  0  0  0  0
 30 31  1  0  0  0  0
 30 36  1  0  0  0  0
 31 37  1  0  0  0  0
 32 38  1  0  0  0  0
 32 31  2  0  0  0  0
 33 32  1  0  0  0  0
 34 33  2  0  0  0  0
 34 35  1  0  0  0  0
 35 30  2  0  0  0  0
 38 41  1  0  0  0  0
 38 40  1  0  0  0  0
 39 38  1  0  0  0  0
M  END
>  <minimizedAffinity>
-5.47314072

$$$$

 OpenBabel03242518563D

 41 43  0  0  1  0  0  0  0  0999 V2000
   36.1200   27.6700   39.9580 C   0  0  2  0  0  0  0  0  0  0  0  0
   36.7890   26.8580   38.8950 C   0  0  0  0  0  0  0  0  0  0  0  0
   35.9550   26.9570   37.6680 C   0  0  0  0  0  0  0  0  0  0  0  0
   34.6800   27.7190   37.8120 C   0  0  0  0  0  0  0  0  0  0  0  0
   34.9620   29.1020   38.3420 C   0  0  0  0  0  0  0  0  0  0  0  0
   35.9180   29.0770   39.4370 C   0  0  2  0  0  0  0  0  0  0  0  0
   35.0900   27.2840   40.1130 H   0  0  0  0  0  0  0  0  0  0  0  0
   37.8380   27.1380   38.7210 H   0  0  0  0  0  0  0  0  0  0  0  0
   36.8310   25.7980   39.2870 H   0  0  0  0  0  0  0  0  0  0  0  0
   36.5010   27.3120   36.7540 H   0  0  0  0  0  0  0  0  0  0  0  0
   35.6480   25.9110   37.3790 H   0  0  0  0  0  0  0  0  0  0  0  0
   34.2320   27.7950   36.7990 H   0  0  0  0  0  0  0  0  0  0  0  0
   33.9240   27.1910   38.4300 H   0  0  0  0  0  0  0  0  0  0  0  0
   33.9770   29.5170   38.6770 H   0  0  0  0  0  0  0  0  0  0  0  0
   35.2270   29.7160   37.4430 H   0  0  0  0  0  0  0  0  0  0  0  0
   35.6200   29.7680   40.2520 H   0  0  0  0  0  0  0  0  0  0  0  0
   37.1860   29.6050   38.8570 C   0  0  0  0  0  0  0  0  0  0  0  0
   38.0720   29.2030   39.4020 H   0  0  0  0  0  0  0  0  0  0  0  0
   37.3250   29.4360   37.7730 H   0  0  0  0  0  0  0  0  0  0  0  0
   37.1820   31.0900   39.1200 C   0  0  0  0  0  0  0  0  0  0  0  0
   36.9370   31.4820   40.4400 C   0  0  0  0  0  0  0  0  0  0  0  0
   36.7340   31.0300   41.4030 H   0  0  0  0  0  0  0  0  0  0  0  0
   36.9750   32.8300   40.4670 N   0  0  0  0  0  0  0  0  0  0  0  0
   36.8620   33.6170   41.1690 H   0  0  0  0  0  0  0  0  0  0  0  0
   37.2320   33.2780   39.2190 C   0  0  0  0  0  0  0  0  0  0  0  0
   37.3670   34.2190   38.6830 H   0  0  0  0  0  0  0  0  0  0  0  0
   37.3580   32.2410   38.4060 N   0  0  0  0  0  0  0  0  0  0  0  0
   36.7950   27.6350   41.2760 C   0  0  0  0  0  0  0  0  0  0  0  0
   36.6940   28.5550   42.1160 O   0  0  0  0  0  0  0  0  0  0  0  0
   37.7650   24.2220   42.1490 C   0  0  0  0  0  0  0  0  0  0  0  0
   39.1840   24.2430   42.1390 C   0  0  0  0  0  0  0  0  0  0  0  0
   39.7730   25.4590   41.8180 C   0  0  0  0  0  0  0  0  0  0  0  0
   38.9320   26.4620   41.5590 N   0  0  0  0  0  0  0  0  0  0  0  0
   37.6140   26.4470   41.5680 C   0  0  0  0  0  0  0  0  0  0  0  0
   37.0160   25.2830   41.8750 N   0  0  0  0  0  0  0  0  0  0  0  0
   37.3280   23.2460   42.4070 H   0  0  0  0  0  0  0  0  0  0  0  0
   39.7750   23.3690   42.3650 H   0  0  0  0  0  0  0  0  0  0  0  0
   41.2310   25.4990   41.8090 C   0  0  0  0  0  0  0  0  0  0  0  0
   41.6650   26.7900   42.0600 F   0  0  0  0  0  0  0  0  0  0  0  0
   41.6250   25.1270   40.5650 F   0  0  0  0  0  0  0  0  0  0  0  0
   41.7810   24.7110   42.8140 F   0  0  0  0  0  0  0  0  0  0  0  0
  1  7  1  1  0  0  0
  1 28  1  0  0  0  0
  2  9  1  0  0  0  0
  2  1  1  0  0  0  0
  3  4  1  0  0  0  0
  3  2  1  0  0  0  0
  4  5  1  0  0  0  0
  4 13  1  0  0  0  0
  5 14  1  0  0  0  0
  5  6  1  0  0  0  0
  6  1  1  0  0  0  0
  6 16  1  1  0  0  0
  8  2  1  0  0  0  0
 10  3  1  0  0  0  0
 11  3  1  0  0  0  0
 12  4  1  0  0  0  0
 15  5  1  0  0  0  0
 17 20  1  0  0  0  0
 17 18  1  0  0  0  0
 17  6  1  0  0  0  0
 19 17  1  0  0  0  0
 20 21  2  0  0  0  0
 21 23  1  0  0  0  0
 21 22  1  0  0  0  0
 23 24  1  0  0  0  0
 25 23  1  0  0  0  0
 26 25  1  0  0  0  0
 27 20  1  0  0  0  0
 27 25  2  0  0  0  0
 28 34  1  0  0  0  0
 28 29  2  0  0  0  0
 30 36  1  0  0  0  0
 31 30  1  0  0  0  0
 31 37  1  0  0  0  0
 32 31  2  0  0  0  0
 33 34  2  0  0  0  0
 33 32  1  0  0  0  0
 34 35  1  0  0  0  0
 35 30  2  0  0  0  0
 38 32  1  0  0  0  0
 38 39  1  0  0  0  0
 38 41  1  0  0  0  0
 40 38  1  0  0  0  0
M  END
>  <minimizedAffinity>
-5.43363667

$$$$

 OpenBabel03242518563D

 41 43  0  0  1  0  0  0  0  0999 V2000
   37.3020   25.4120   39.5000 C   0  0  2  0  0  0  0  0  0  0  0  0
   36.3560   24.2940   39.8020 C   0  0  0  0  0  0  0  0  0  0  0  0
   37.1640   23.1430   40.2830 C   0  0  0  0  0  0  0  0  0  0  0  0
   38.6440   23.3370   40.2600 C   0  0  0  0  0  0  0  0  0  0  0  0
   39.0150   24.5740   41.0390 C   0  0  0  0  0  0  0  0  0  0  0  0
   38.1330   25.6900   40.7350 C   0  0  2  0  0  0  0  0  0  0  0  0
   38.0390   25.0670   38.7440 H   0  0  0  0  0  0  0  0  0  0  0  0
   35.5530   24.5730   40.5000 H   0  0  0  0  0  0  0  0  0  0  0  0
   35.8270   24.0570   38.8310 H   0  0  0  0  0  0  0  0  0  0  0  0
   36.8580   22.7350   41.2820 H   0  0  0  0  0  0  0  0  0  0  0  0
   36.9660   22.2740   39.5930 H   0  0  0  0  0  0  0  0  0  0  0  0
   39.0950   22.4460   40.7430 H   0  0  0  0  0  0  0  0  0  0  0  0
   39.0640   23.3610   39.2320 H   0  0  0  0  0  0  0  0  0  0  0  0
   40.0740   24.8130   40.7640 H   0  0  0  0  0  0  0  0  0  0  0  0
   39.0760   24.2440   42.1080 H   0  0  0  0  0  0  0  0  0  0  0  0
   38.6990   26.6380   40.6330 H   0  0  0  0  0  0  0  0  0  0  0  0
   37.2560   25.8290   41.9330 C   0  0  0  0  0  0  0  0  0  0  0  0
   36.1820   25.8720   41.6380 H   0  0  0  0  0  0  0  0  0  0  0  0
   37.3830   25.0550   42.7120 H   0  0  0  0  0  0  0  0  0  0  0  0
   37.5720   27.1770   42.5300 C   0  0  0  0  0  0  0  0  0  0  0  0
   36.5340   27.8020   43.2290 C   0  0  0  0  0  0  0  0  0  0  0  0
   35.5020   27.6150   43.4980 H   0  0  0  0  0  0  0  0  0  0  0  0
   37.0120   28.9800   43.6790 N   0  0  0  0  0  0  0  0  0  0  0  0
   36.6740   29.8150   44.2380 H   0  0  0  0  0  0  0  0  0  0  0  0
   38.2970   29.1020   43.2840 C   0  0  0  0  0  0  0  0  0  0  0  0
   39.1280   29.8050   43.3590 H   0  0  0  0  0  0  0  0  0  0  0  0
   38.6410   28.0250   42.5950 N   0  0  0  0  0  0  0  0  0  0  0  0
   36.6620   26.6300   38.9510 C   0  0  0  0  0  0  0  0  0  0  0  0
   35.5240   26.6260   38.4340 O   0  0  0  0  0  0  0  0  0  0  0  0
   39.3610   29.0650   38.5860 C   0  0  0  0  0  0  0  0  0  0  0  0
   38.8760   30.2310   39.2320 C   0  0  0  0  0  0  0  0  0  0  0  0
   37.6030   30.1410   39.7780 C   0  0  0  0  0  0  0  0  0  0  0  0
   36.9890   28.9650   39.6300 N   0  0  0  0  0  0  0  0  0  0  0  0
   37.4370   27.8790   39.0330 C   0  0  0  0  0  0  0  0  0  0  0  0
   38.6660   27.9380   38.4940 N   0  0  0  0  0  0  0  0  0  0  0  0
   40.3720   29.1670   38.1630 H   0  0  0  0  0  0  0  0  0  0  0  0
   39.4570   31.1390   39.2960 H   0  0  0  0  0  0  0  0  0  0  0  0
   37.0920   31.3300   40.4500 C   0  0  0  0  0  0  0  0  0  0  0  0
   36.6470   32.2440   39.5090 F   0  0  0  0  0  0  0  0  0  0  0  0
   38.1300   31.8670   41.1400 F   0  0  0  0  0  0  0  0  0  0  0  0
   35.9930   31.0440   41.2520 F   0  0  0  0  0  0  0  0  0  0  0  0
  1  7  1  6  0  0  0
  1  2  1  0  0  0  0
  1  6  1  0  0  0  0
  2  3  1  0  0  0  0
  2  8  1  0  0  0  0
  3 10  1  0  0  0  0
  4  3  1  0  0  0  0
  4 12  1  0  0  0  0
  4  5  1  0  0  0  0
  5 15  1  0  0  0  0
  6 16  1  6  0  0  0
  6  5  1  0  0  0  0
  6 17  1  0  0  0  0
  9  2  1  0  0  0  0
 11  3  1  0  0  0  0
 13  4  1  0  0  0  0
 14  5  1  0  0  0  0
 17 20  1  0  0  0  0
 17 19  1  0  0  0  0
 18 17  1  0  0  0  0
 20 27  1  0  0  0  0
 20 21  2  0  0  0  0
 21 22  1  0  0  0  0
 21 23  1  0  0  0  0
 23 24  1  0  0  0  0
 25 26  1  0  0  0  0
 25 23  1  0  0  0  0
 27 25  2  0  0  0  0
 28 34  1  0  0  0  0
 28  1  1  0  0  0  0
 29 28  2  0  0  0  0
 30 31  1  0  0  0  0
 31 37  1  0  0  0  0
 31 32  2  0  0  0  0
 32 38  1  0  0  0  0
 33 32  1  0  0  0  0
 34 33  2  0  0  0  0
 35 30  2  0  0  0  0
 35 34  1  0  0  0  0
 36 30  1  0  0  0  0
 38 40  1  0  0  0  0
 38 41  1  0  0  0  0
 39 38  1  0  0  0  0
M  END
>  <minimizedAffinity>
-5.36869621

$$$$
