
 OpenBabel03252507553D

 43 46  0  0  1  0  0  0  0  0999 V2000
   46.9900   34.8010   42.0250 C   0  0  2  0  0  0  0  0  0  0  0  0
   46.1660   34.2550   40.8590 C   0  0  0  0  0  0  0  0  0  0  0  0
   47.3150   34.0720   39.8500 C   0  0  0  0  0  0  0  0  0  0  0  0
   48.4890   33.6440   40.6750 C   0  0  1  0  0  0  0  0  0  0  0  0
   48.0420   33.7310   42.1050 C   0  0  0  0  0  0  0  0  0  0  0  0
   47.3450   35.7760   41.6990 H   0  0  0  0  0  0  0  0  0  0  0  0
   45.5040   35.0650   40.5050 H   0  0  0  0  0  0  0  0  0  0  0  0
   45.6650   33.3130   41.1020 H   0  0  0  0  0  0  0  0  0  0  0  0
   47.4790   35.0060   39.2880 H   0  0  0  0  0  0  0  0  0  0  0  0
   47.0360   33.2170   39.1730 H   0  0  0  0  0  0  0  0  0  0  0  0
   49.3750   34.3090   40.5120 H   0  0  0  0  0  0  0  0  0  0  0  0
   47.6080   32.8050   42.4790 H   0  0  0  0  0  0  0  0  0  0  0  0
   48.9010   34.0610   42.7320 H   0  0  0  0  0  0  0  0  0  0  0  0
   44.5320   35.8480   44.6800 C   0  0  0  0  0  0  0  0  0  0  0  0
   45.2200   35.8710   43.4720 C   0  0  0  0  0  0  0  0  0  0  0  0
   46.1710   34.8700   43.2690 C   0  0  0  0  0  0  0  0  0  0  0  0
   46.4010   33.8970   44.2540 N   0  0  0  0  0  0  0  0  0  0  0  0
   45.6930   33.9330   45.4120 C   0  0  0  0  0  0  0  0  0  0  0  0
   44.7700   34.9030   45.6160 N   0  0  0  0  0  0  0  0  0  0  0  0
   43.7920   36.6210   44.8490 H   0  0  0  0  0  0  0  0  0  0  0  0
   45.0590   36.6050   42.7090 H   0  0  0  0  0  0  0  0  0  0  0  0
   45.9240   33.1570   46.1180 H   0  0  0  0  0  0  0  0  0  0  0  0
   48.9370   32.2190   40.4350 C   0  0  2  0  0  0  0  0  0  0  0  0
   49.6370   31.5790   41.5400 C   0  0  0  0  0  0  0  0  0  0  0  0
   50.3510   31.8840   40.2610 C   0  0  1  0  0  0  0  0  0  0  0  0
   48.2020   31.6180   39.8700 H   0  0  0  0  0  0  0  0  0  0  0  0
   49.9500   32.1990   42.4230 H   0  0  0  0  0  0  0  0  0  0  0  0
   49.4720   30.5240   41.8390 H   0  0  0  0  0  0  0  0  0  0  0  0
   51.0300   32.7350   40.1240 H   0  0  0  0  0  0  0  0  0  0  0  0
   50.6600   30.7850   39.4210 O   0  0  0  0  0  0  0  0  0  0  0  0
   52.5650   29.8690   37.8950 O   0  0  0  0  0  0  0  0  0  0  0  0
   52.1900   31.0380   38.7720 P   0  0  1  0  0  0  0  0  0  0  0  0
   52.1790   32.4380   37.7780 O   0  0  0  0  0  0  0  0  0  0  0  0
   51.3010   32.4920   37.3290 H   0  0  0  0  0  0  0  0  0  0  0  0
   53.3910   31.2620   39.8970 O   0  0  0  0  0  0  0  0  0  0  0  0
   53.9070   30.2080   40.6510 C   0  0  0  0  0  0  0  0  0  0  0  0
   53.1110   29.7740   41.7120 C   0  0  0  0  0  0  0  0  0  0  0  0
   52.1430   30.0400   42.1460 H   0  0  0  0  0  0  0  0  0  0  0  0
   53.8040   28.7600   42.2920 N   0  0  0  0  0  0  0  0  0  0  0  0
   53.5680   28.1530   43.1230 H   0  0  0  0  0  0  0  0  0  0  0  0
   54.9650   28.5600   41.6430 C   0  0  0  0  0  0  0  0  0  0  0  0
   55.7690   27.8570   41.8040 H   0  0  0  0  0  0  0  0  0  0  0  0
   55.0200   29.4520   40.6390 N   0  0  0  0  0  0  0  0  0  0  0  0
  1  6  1  6  0  0  0
  1  5  1  0  0  0  0
  1 16  1  0  0  0  0
  2  8  1  0  0  0  0
  2  1  1  0  0  0  0
  3  4  1  0  0  0  0
  3  2  1  0  0  0  0
  4 11  1  6  0  0  0
  4  5  1  0  0  0  0
  5 12  1  0  0  0  0
  5 13  1  0  0  0  0
  7  2  1  0  0  0  0
  9  3  1  0  0  0  0
 10  3  1  0  0  0  0
 14 20  1  0  0  0  0
 14 19  1  0  0  0  0
 15 14  2  0  0  0  0
 16 15  1  0  0  0  0
 16 17  2  0  0  0  0
 17 18  1  0  0  0  0
 18 19  2  0  0  0  0
 18 22  1  0  0  0  0
 21 15  1  0  0  0  0
 23 26  1  6  0  0  0
 23  4  1  0  0  0  0
 23 24  1  0  0  0  0
 24 28  1  0  0  0  0
 24 27  1  0  0  0  0
 25 29  1  1  0  0  0
 25 23  1  0  0  0  0
 25 24  1  0  0  0  0
 30 25  1  0  0  0  0
 32 31  2  6  0  0  0
 32 30  1  0  0  0  0
 32 35  1  0  0  0  0
 33 32  1  0  0  0  0
 34 33  1  0  0  0  0
 35 36  1  0  0  0  0
 36 37  2  0  0  0  0
 37 38  1  0  0  0  0
 37 39  1  0  0  0  0
 39 40  1  0  0  0  0
 41 42  1  0  0  0  0
 41 39  1  0  0  0  0
 43 36  1  0  0  0  0
 43 41  2  0  0  0  0
M  END
>  <minimizedAffinity>
-5.14129305

>  <minimizedRMSD>
0.853672206

$$$$
