
 OpenBabel03242522423D

 50 54  0  0  0  0  0  0  0  0999 V2000
   46.6600   32.6430   44.3390 C   0  0  0  0  0  0  0  0  0  0  0  0
   46.3740   32.1440   43.3550 H   0  0  0  0  0  0  0  0  0  0  0  0
   47.7140   32.7380   44.5230 H   0  0  0  0  0  0  0  0  0  0  0  0
   46.2210   34.6270   42.9910 C   0  0  0  0  0  0  0  0  0  0  0  0
   46.0090   33.9510   44.1900 C   0  0  0  0  0  0  0  0  0  0  0  0
   45.2370   34.3870   45.1990 C   0  0  0  0  0  0  0  0  0  0  0  0
   44.5930   35.5960   45.0560 C   0  0  0  0  0  0  0  0  0  0  0  0
   44.7250   36.3430   43.9260 C   0  0  0  0  0  0  0  0  0  0  0  0
   45.5330   35.8440   42.9190 C   0  0  0  0  0  0  0  0  0  0  0  0
   44.9960   33.9660   46.1320 H   0  0  0  0  0  0  0  0  0  0  0  0
   43.9380   36.0710   45.7900 H   0  0  0  0  0  0  0  0  0  0  0  0
   44.2470   37.3090   43.7340 H   0  0  0  0  0  0  0  0  0  0  0  0
   45.6540   36.4220   42.0040 H   0  0  0  0  0  0  0  0  0  0  0  0
   47.1670   34.1040   41.6650 S   0  0  0  0  0  0  0  0  0  0  0  0
   47.9230   35.3520   41.0780 O   0  0  0  0  0  0  0  0  0  0  0  0
   46.2890   33.7050   40.5240 O   0  0  0  0  0  0  0  0  0  0  0  0
   49.8440   33.5810   42.2880 C   0  0  0  0  0  3  0  0  0  0  0  0
   48.5570   33.1260   41.9260 C   0  0  0  0  0  0  0  0  0  0  0  0
   48.6030   31.7220   41.8290 C   0  0  0  0  0  0  0  0  0  0  0  0
   47.6440   31.2500   41.5500 H   0  0  0  0  0  0  0  0  0  0  0  0
   49.6940   30.9190   42.0450 C   0  0  0  0  0  0  0  0  0  0  0  0
   49.7920   29.5790   41.9660 N   0  0  0  0  0  0  0  0  0  0  0  0
   49.0710   28.8590   41.7280 H   0  0  0  0  0  0  0  0  0  0  0  0
   51.0690   29.2820   42.2670 C   0  0  0  0  0  0  0  0  0  0  0  0
   51.5540   28.3170   42.3160 H   0  0  0  0  0  0  0  0  0  0  0  0
   51.7620   30.4630   42.5340 C   0  0  0  0  0  3  0  0  0  0  0  0
   50.8680   31.5010   42.3880 C   0  0  0  0  0  0  0  0  0  0  0  0
   50.9720   32.8560   42.5190 C   0  0  0  0  0  3  0  0  0  0  0  0
   46.0160   31.6980   45.3030 C   0  0  0  0  0  0  0  0  0  0  0  0
   44.9680   31.9740   45.5990 H   0  0  0  0  0  0  0  0  0  0  0  0
   45.8340   30.6610   44.8860 H   0  0  0  0  0  0  0  0  0  0  0  0
   47.0620   32.4830   47.4040 C   0  0  0  0  0  0  0  0  0  0  0  0
   46.9310   31.4800   46.4190 C   0  0  0  0  0  0  0  0  0  0  0  0
   47.6540   30.3140   46.5830 C   0  0  0  0  0  0  0  0  0  0  0  0
   48.4430   30.1930   47.6740 N   0  0  0  0  0  0  0  0  0  0  0  0
   48.5440   31.1550   48.5900 C   0  0  0  0  0  0  0  0  0  0  0  0
   47.8580   32.3150   48.4730 N   0  0  0  0  0  0  0  0  0  0  0  0
   46.5960   33.4500   47.4550 H   0  0  0  0  0  0  0  0  0  0  0  0
   47.5510   29.5520   45.8220 H   0  0  0  0  0  0  0  0  0  0  0  0
   49.4350   30.9280   49.7760 C   0  0  0  0  0  0  0  0  0  0  0  0
   48.9030   31.2460   50.7160 H   0  0  0  0  0  0  0  0  0  0  0  0
   49.5950   29.8400   49.9120 H   0  0  0  0  0  0  0  0  0  0  0  0
   50.7240   31.5920   49.6670 C   0  0  0  0  0  0  0  0  0  0  0  0
   51.8700   31.0460   49.1240 C   0  0  0  0  0  0  0  0  0  0  0  0
   52.8810   31.9660   49.1960 C   0  0  0  0  0  0  0  0  0  0  0  0
   52.3090   33.0570   49.7890 N   0  0  0  0  0  0  0  0  0  0  0  0
   51.0280   32.8410   50.0720 N   0  0  0  0  0  0  0  0  0  0  0  0
   52.0420   30.0610   48.6870 H   0  0  0  0  0  0  0  0  0  0  0  0
   53.9230   31.9930   48.9080 H   0  0  0  0  0  0  0  0  0  0  0  0
   52.7070   34.0020   50.0480 H   0  0  0  0  0  0  0  0  0  0  0  0
  1  3  1  0  0  0  0
  1 29  1  0  0  0  0
  2  1  1  0  0  0  0
  4  5  1  0  0  0  0
  5  1  1  0  0  0  0
  5  6  2  0  0  0  0
  6 10  1  0  0  0  0
  7  6  1  0  0  0  0
  7 11  1  0  0  0  0
  8  7  2  0  0  0  0
  9  4  2  0  0  0  0
  9  8  1  0  0  0  0
 12  8  1  0  0  0  0
 13  9  1  0  0  0  0
 14 18  1  0  0  0  0
 14  4  1  0  0  0  0
 15 14  2  0  0  0  0
 16 14  2  0  0  0  0
 17 28  1  0  0  0  0
 18 17  2  0  0  0  0
 19 18  1  0  0  0  0
 19 21  2  0  0  0  0
 20 19  1  0  0  0  0
 21 27  1  0  0  0  0
 22 21  1  0  0  0  0
 22 24  1  0  0  0  0
 23 22  1  0  0  0  0
 24 25  1  0  0  0  0
 24 26  2  0  0  0  0
 27 28  2  0  0  0  0
 27 26  1  0  0  0  0
 29 30  1  0  0  0  0
 29 33  1  0  0  0  0
 31 29  1  0  0  0  0
 32 38  1  0  0  0  0
 32 37  1  0  0  0  0
 33 34  1  0  0  0  0
 33 32  2  0  0  0  0
 34 35  2  0  0  0  0
 35 36  1  0  0  0  0
 36 40  1  0  0  0  0
 37 36  2  0  0  0  0
 39 34  1  0  0  0  0
 40 42  1  0  0  0  0
 40 41  1  0  0  0  0
 43 40  1  0  0  0  0
 43 47  2  0  0  0  0
 44 45  2  0  0  0  0
 44 43  1  0  0  0  0
 45 46  1  0  0  0  0
 46 50  1  0  0  0  0
 46 47  1  0  0  0  0
 48 44  1  0  0  0  0
 49 45  1  0  0  0  0
M  END
>  <minimizedAffinity>
-6.58774424

>  <minimizedRMSD>
0.367037177

$$$$
