
 OpenBabel03242521033D

 30 33  0  0  0  0  0  0  0  0999 V2000
   37.1510   26.6540   41.3600 C   0  0  0  0  0  0  0  0  0  0  0  0
   36.9840   26.4280   42.7120 C   0  0  0  0  0  0  0  0  0  0  0  0
   37.0600   27.4070   43.6800 C   0  0  0  0  0  0  0  0  0  0  0  0
   37.3210   28.7130   43.2780 C   0  0  0  0  0  0  0  0  0  0  0  0
   37.4820   28.9060   41.9340 C   0  0  0  0  0  0  0  0  0  0  0  0
   37.4000   27.9230   41.0320 N   0  0  0  0  0  0  0  0  0  0  0  0
   36.7790   25.4290   43.0740 H   0  0  0  0  0  0  0  0  0  0  0  0
   36.9180   27.1590   44.7350 H   0  0  0  0  0  0  0  0  0  0  0  0
   37.3840   29.4850   44.0140 H   0  0  0  0  0  0  0  0  0  0  0  0
   36.7930   30.9170   40.6700 C   0  0  0  0  0  3  0  0  0  0  0  0
   37.7600   30.2400   41.4100 C   0  0  0  0  0  0  0  0  0  0  0  0
   38.9340   30.9410   41.5740 C   0  0  0  0  0  0  0  0  0  0  0  0
   39.7190   30.4790   42.1330 H   0  0  0  0  0  0  0  0  0  0  0  0
   39.1370   32.1880   41.0600 C   0  0  0  0  0  0  0  0  0  0  0  0
   40.1920   33.0150   41.1130 N   0  0  0  0  0  0  0  0  0  0  0  0
   41.1000   32.7880   41.6100 H   0  0  0  0  0  0  0  0  0  0  0  0
   39.9220   34.1610   40.4450 C   0  0  0  0  0  0  0  0  0  0  0  0
   40.5870   34.9880   40.3300 H   0  0  0  0  0  0  0  0  0  0  0  0
   38.6380   34.0450   39.9510 C   0  0  0  0  0  3  0  0  0  0  0  0
   38.1540   32.8130   40.3380 C   0  0  0  0  0  0  0  0  0  0  0  0
   36.9480   32.1770   40.1280 C   0  0  0  0  0  3  0  0  0  0  0  0
   36.5610   23.3910   39.5450 C   0  0  0  0  0  0  0  0  0  0  0  0
   36.5740   24.3020   40.6190 C   0  0  0  0  0  0  0  0  0  0  0  0
   37.0640   25.5940   40.3680 C   0  0  0  0  0  0  0  0  0  0  0  0
   37.4810   25.8620   39.1170 N   0  0  0  0  0  0  0  0  0  0  0  0
   37.4570   24.9760   38.1120 C   0  0  0  0  0  0  0  0  0  0  0  0
   36.9930   23.7390   38.3340 N   0  0  0  0  0  0  0  0  0  0  0  0
   36.1860   22.4050   39.7420 H   0  0  0  0  0  0  0  0  0  0  0  0
   36.2480   24.0960   41.6080 H   0  0  0  0  0  0  0  0  0  0  0  0
   37.8220   25.3180   37.1440 H   0  0  0  0  0  0  0  0  0  0  0  0
  1  2  1  0  0  0  0
  2  7  1  0  0  0  0
  2  3  2  0  0  0  0
  3  8  1  0  0  0  0
  4  3  1  0  0  0  0
  4  9  1  0  0  0  0
  5  4  2  0  0  0  0
  6  1  2  0  0  0  0
  6  5  1  0  0  0  0
 10 11  1  0  0  0  0
 11 12  2  0  0  0  0
 11  5  1  0  0  0  0
 12 13  1  0  0  0  0
 14 15  1  0  0  0  0
 14 12  1  0  0  0  0
 15 16  1  0  0  0  0
 17 15  1  0  0  0  0
 18 17  1  0  0  0  0
 19 20  1  0  0  0  0
 19 17  2  0  0  0  0
 20 14  2  0  0  0  0
 21 20  1  0  0  0  0
 21 10  2  0  0  0  0
 22 28  1  0  0  0  0
 22 23  1  0  0  0  0
 23 29  1  0  0  0  0
 24 23  2  0  0  0  0
 24  1  1  0  0  0  0
 25 24  1  0  0  0  0
 26 27  1  0  0  0  0
 26 25  2  0  0  0  0
 27 22  2  0  0  0  0
 30 26  1  0  0  0  0
M  END
>  <minimizedAffinity>
-5.94356871

$$$$

 OpenBabel03242521033D

 30 33  0  0  0  0  0  0  0  0999 V2000
   37.6790   26.2010   41.3880 C   0  0  0  0  0  0  0  0  0  0  0  0
   36.9540   26.0760   42.5560 C   0  0  0  0  0  0  0  0  0  0  0  0
   36.5690   27.1350   43.3510 C   0  0  0  0  0  0  0  0  0  0  0  0
   36.9290   28.4190   42.9570 C   0  0  0  0  0  0  0  0  0  0  0  0
   37.6470   28.5130   41.7970 C   0  0  0  0  0  0  0  0  0  0  0  0
   37.9980   27.4560   41.0590 N   0  0  0  0  0  0  0  0  0  0  0  0
   36.6500   25.0970   42.9040 H   0  0  0  0  0  0  0  0  0  0  0  0
   35.9940   26.9640   44.2650 H   0  0  0  0  0  0  0  0  0  0  0  0
   36.6400   29.2530   43.5610 H   0  0  0  0  0  0  0  0  0  0  0  0
   39.4260   30.0700   41.0710 C   0  0  0  0  0  3  0  0  0  0  0  0
   38.0740   29.8170   41.2990 C   0  0  0  0  0  0  0  0  0  0  0  0
   37.2480   30.8810   41.0160 C   0  0  0  0  0  0  0  0  0  0  0  0
   36.1980   30.7550   41.1690 H   0  0  0  0  0  0  0  0  0  0  0  0
   37.7070   32.0800   40.5520 C   0  0  0  0  0  0  0  0  0  0  0  0
   37.0690   33.2130   40.2240 N   0  0  0  0  0  0  0  0  0  0  0  0
   36.0200   33.3440   40.2880 H   0  0  0  0  0  0  0  0  0  0  0  0
   37.9580   34.1460   39.8070 C   0  0  0  0  0  0  0  0  0  0  0  0
   37.7190   35.1360   39.4880 H   0  0  0  0  0  0  0  0  0  0  0  0
   39.2100   33.5680   39.8780 C   0  0  0  0  0  3  0  0  0  0  0  0
   39.0470   32.2800   40.3430 C   0  0  0  0  0  0  0  0  0  0  0  0
   39.9400   31.2630   40.6030 C   0  0  0  0  0  3  0  0  0  0  0  0
   38.4890   22.7390   40.1060 C   0  0  0  0  0  0  0  0  0  0  0  0
   38.0820   23.7290   41.0220 C   0  0  0  0  0  0  0  0  0  0  0  0
   38.0670   25.0590   40.5750 C   0  0  0  0  0  0  0  0  0  0  0  0
   38.4420   25.2860   39.3030 N   0  0  0  0  0  0  0  0  0  0  0  0
   38.8240   24.3250   38.4500 C   0  0  0  0  0  0  0  0  0  0  0  0
   38.8440   23.0500   38.8610 N   0  0  0  0  0  0  0  0  0  0  0  0
   38.4980   21.7230   40.4530 H   0  0  0  0  0  0  0  0  0  0  0  0
   37.7870   23.5570   42.0270 H   0  0  0  0  0  0  0  0  0  0  0  0
   39.1020   24.6400   37.4450 H   0  0  0  0  0  0  0  0  0  0  0  0
  1  2  1  0  0  0  0
  2  7  1  0  0  0  0
  2  3  2  0  0  0  0
  3  8  1  0  0  0  0
  4  3  1  0  0  0  0
  4  9  1  0  0  0  0
  5  4  2  0  0  0  0
  6  1  2  0  0  0  0
  6  5  1  0  0  0  0
 10 11  1  0  0  0  0
 11  5  1  0  0  0  0
 12 13  1  0  0  0  0
 12 11  2  0  0  0  0
 14 12  1  0  0  0  0
 15 16  1  0  0  0  0
 15 14  1  0  0  0  0
 17 19  2  0  0  0  0
 17 15  1  0  0  0  0
 18 17  1  0  0  0  0
 19 20  1  0  0  0  0
 20 14  2  0  0  0  0
 20 21  1  0  0  0  0
 21 10  2  0  0  0  0
 22 28  1  0  0  0  0
 22 23  1  0  0  0  0
 23 29  1  0  0  0  0
 24 23  2  0  0  0  0
 24  1  1  0  0  0  0
 25 24  1  0  0  0  0
 26 27  1  0  0  0  0
 26 25  2  0  0  0  0
 27 22  2  0  0  0  0
 30 26  1  0  0  0  0
M  END
>  <minimizedAffinity>
-5.6285243

$$$$

 OpenBabel03242521033D

 30 33  0  0  0  0  0  0  0  0999 V2000
   32.8290   29.2470   37.0780 C   0  0  0  0  0  0  0  0  0  0  0  0
   33.4740   29.2760   35.8570 C   0  0  0  0  0  0  0  0  0  0  0  0
   34.8140   29.0060   35.6790 C   0  0  0  0  0  0  0  0  0  0  0  0
   35.5750   28.6800   36.7960 C   0  0  0  0  0  0  0  0  0  0  0  0
   34.9100   28.6590   37.9900 C   0  0  0  0  0  0  0  0  0  0  0  0
   33.6080   28.9290   38.1140 N   0  0  0  0  0  0  0  0  0  0  0  0
   32.9240   29.5240   34.9580 H   0  0  0  0  0  0  0  0  0  0  0  0
   35.2620   29.0470   34.6820 H   0  0  0  0  0  0  0  0  0  0  0  0
   36.6170   28.4670   36.6770 H   0  0  0  0  0  0  0  0  0  0  0  0
   36.2250   27.0820   39.3690 C   0  0  0  0  0  3  0  0  0  0  0  0
   35.6210   28.3290   39.2220 C   0  0  0  0  0  0  0  0  0  0  0  0
   35.7680   29.1560   40.3130 C   0  0  0  0  0  0  0  0  0  0  0  0
   35.3280   30.1290   40.2670 H   0  0  0  0  0  0  0  0  0  0  0  0
   36.4440   28.7920   41.4410 C   0  0  0  0  0  0  0  0  0  0  0  0
   36.6900   29.4470   42.5850 N   0  0  0  0  0  0  0  0  0  0  0  0
   36.3590   30.4330   42.7880 H   0  0  0  0  0  0  0  0  0  0  0  0
   37.4120   28.6680   43.4240 C   0  0  0  0  0  0  0  0  0  0  0  0
   37.7440   28.9420   44.4000 H   0  0  0  0  0  0  0  0  0  0  0  0
   37.6270   27.4690   42.7740 C   0  0  0  0  0  3  0  0  0  0  0  0
   37.0210   27.5530   41.5370 C   0  0  0  0  0  0  0  0  0  0  0  0
   36.9190   26.6650   40.4880 C   0  0  0  0  0  3  0  0  0  0  0  0
   29.4250   30.2490   38.3800 C   0  0  0  0  0  0  0  0  0  0  0  0
   30.8150   30.0200   38.4030 C   0  0  0  0  0  0  0  0  0  0  0  0
   31.4120   29.5390   37.2270 C   0  0  0  0  0  0  0  0  0  0  0  0
   30.6080   29.3340   36.1670 N   0  0  0  0  0  0  0  0  0  0  0  0
   29.2880   29.5610   36.1720 C   0  0  0  0  0  0  0  0  0  0  0  0
   28.7020   30.0200   37.2860 N   0  0  0  0  0  0  0  0  0  0  0  0
   28.9730   30.6160   39.2820 H   0  0  0  0  0  0  0  0  0  0  0  0
   31.4530   30.1780   39.2360 H   0  0  0  0  0  0  0  0  0  0  0  0
   28.7490   29.3570   35.2470 H   0  0  0  0  0  0  0  0  0  0  0  0
  1 24  1  0  0  0  0
  1  6  1  0  0  0  0
  2  1  2  0  0  0  0
  3  2  1  0  0  0  0
  3  4  2  0  0  0  0
  4  5  1  0  0  0  0
  5  6  2  0  0  0  0
  5 11  1  0  0  0  0
  7  2  1  0  0  0  0
  8  3  1  0  0  0  0
  9  4  1  0  0  0  0
 10 21  1  0  0  0  0
 11 10  2  0  0  0  0
 11 12  1  0  0  0  0
 12 14  2  0  0  0  0
 13 12  1  0  0  0  0
 14 20  1  0  0  0  0
 14 15  1  0  0  0  0
 15 16  1  0  0  0  0
 15 17  1  0  0  0  0
 17 18  1  0  0  0  0
 19 17  2  0  0  0  0
 20 19  1  0  0  0  0
 21 20  2  0  0  0  0
 22 23  1  0  0  0  0
 22 28  1  0  0  0  0
 23 29  1  0  0  0  0
 24 23  2  0  0  0  0
 25 26  2  0  0  0  0
 25 24  1  0  0  0  0
 26 27  1  0  0  0  0
 27 22  2  0  0  0  0
 30 26  1  0  0  0  0
M  END
>  <minimizedAffinity>
-5.61795664

$$$$

 OpenBabel03242521033D

 30 33  0  0  0  0  0  0  0  0999 V2000
   39.0000   31.4060   39.1320 C   0  0  0  0  0  0  0  0  0  0  0  0
   38.0770   32.4020   39.3830 C   0  0  0  0  0  0  0  0  0  0  0  0
   36.9210   32.2260   40.1130 C   0  0  0  0  0  0  0  0  0  0  0  0
   36.6570   30.9650   40.6360 C   0  0  0  0  0  0  0  0  0  0  0  0
   37.5870   29.9990   40.3710 C   0  0  0  0  0  0  0  0  0  0  0  0
   38.6950   30.2170   39.6570 N   0  0  0  0  0  0  0  0  0  0  0  0
   38.2380   33.4010   38.9970 H   0  0  0  0  0  0  0  0  0  0  0  0
   36.2320   33.0600   40.2740 H   0  0  0  0  0  0  0  0  0  0  0  0
   35.7640   30.8100   41.2050 H   0  0  0  0  0  0  0  0  0  0  0  0
   37.0770   28.4300   42.2140 C   0  0  0  0  0  3  0  0  0  0  0  0
   37.4020   28.6410   40.8750 C   0  0  0  0  0  0  0  0  0  0  0  0
   37.5200   27.4850   40.1370 C   0  0  0  0  0  0  0  0  0  0  0  0
   37.7680   27.5750   39.1020 H   0  0  0  0  0  0  0  0  0  0  0  0
   37.3350   26.2400   40.6650 C   0  0  0  0  0  0  0  0  0  0  0  0
   37.4040   25.0190   40.1150 N   0  0  0  0  0  0  0  0  0  0  0  0
   37.6350   24.8380   39.0970 H   0  0  0  0  0  0  0  0  0  0  0  0
   37.1390   24.0720   41.0460 C   0  0  0  0  0  0  0  0  0  0  0  0
   37.1280   23.0180   40.8780 H   0  0  0  0  0  0  0  0  0  0  0  0
   36.8930   24.7330   42.2330 C   0  0  0  0  0  3  0  0  0  0  0  0
   37.0160   26.0840   41.9890 C   0  0  0  0  0  0  0  0  0  0  0  0
   36.8810   27.1940   42.7960 C   0  0  0  0  0  3  0  0  0  0  0  0
   42.0710   31.0160   36.9630 C   0  0  0  0  0  0  0  0  0  0  0  0
   40.9120   30.6300   37.6660 C   0  0  0  0  0  0  0  0  0  0  0  0
   40.2100   31.6300   38.3570 C   0  0  0  0  0  0  0  0  0  0  0  0
   40.6980   32.8820   38.2930 N   0  0  0  0  0  0  0  0  0  0  0  0
   41.8030   33.2230   37.6160 C   0  0  0  0  0  0  0  0  0  0  0  0
   42.4860   32.2810   36.9510 N   0  0  0  0  0  0  0  0  0  0  0  0
   42.6040   30.2480   36.4370 H   0  0  0  0  0  0  0  0  0  0  0  0
   40.5230   29.6440   37.7210 H   0  0  0  0  0  0  0  0  0  0  0  0
   42.0930   34.2730   37.6410 H   0  0  0  0  0  0  0  0  0  0  0  0
  1  2  2  0  0  0  0
  1  6  1  0  0  0  0
  2  3  1  0  0  0  0
  3  8  1  0  0  0  0
  3  4  2  0  0  0  0
  4  9  1  0  0  0  0
  5  4  1  0  0  0  0
  5 11  1  0  0  0  0
  6  5  2  0  0  0  0
  7  2  1  0  0  0  0
 10 21  1  0  0  0  0
 11 10  2  0  0  0  0
 12 14  2  0  0  0  0
 12 11  1  0  0  0  0
 13 12  1  0  0  0  0
 14 20  1  0  0  0  0
 15 14  1  0  0  0  0
 15 17  1  0  0  0  0
 16 15  1  0  0  0  0
 17 19  2  0  0  0  0
 18 17  1  0  0  0  0
 20 19  1  0  0  0  0
 20 21  2  0  0  0  0
 22 23  1  0  0  0  0
 23 29  1  0  0  0  0
 23 24  2  0  0  0  0
 24  1  1  0  0  0  0
 25 24  1  0  0  0  0
 26 30  1  0  0  0  0
 26 25  2  0  0  0  0
 27 22  2  0  0  0  0
 27 26  1  0  0  0  0
 28 22  1  0  0  0  0
M  END
>  <minimizedAffinity>
-5.60977077

$$$$

 OpenBabel03242521033D

 30 33  0  0  0  0  0  0  0  0999 V2000
   37.8260   29.5230   41.6190 C   0  0  0  0  0  0  0  0  0  0  0  0
   37.9430   29.3910   42.9880 C   0  0  0  0  0  0  0  0  0  0  0  0
   37.7190   28.2200   43.6790 C   0  0  0  0  0  0  0  0  0  0  0  0
   37.3500   27.0890   42.9590 C   0  0  0  0  0  0  0  0  0  0  0  0
   37.2400   27.2490   41.6060 C   0  0  0  0  0  0  0  0  0  0  0  0
   37.4680   28.4070   40.9790 N   0  0  0  0  0  0  0  0  0  0  0  0
   38.2290   30.2430   43.5920 H   0  0  0  0  0  0  0  0  0  0  0  0
   37.8310   28.1860   44.7670 H   0  0  0  0  0  0  0  0  0  0  0  0
   37.1710   26.1720   43.4790 H   0  0  0  0  0  0  0  0  0  0  0  0
   36.9020   24.8240   41.2620 C   0  0  0  0  0  3  0  0  0  0  0  0
   36.8570   26.1230   40.7600 C   0  0  0  0  0  0  0  0  0  0  0  0
   36.4330   26.2050   39.4530 C   0  0  0  0  0  0  0  0  0  0  0  0
   36.3750   27.1730   39.0050 H   0  0  0  0  0  0  0  0  0  0  0  0
   36.0870   25.1140   38.7100 C   0  0  0  0  0  0  0  0  0  0  0  0
   35.6590   24.9940   37.4450 N   0  0  0  0  0  0  0  0  0  0  0  0
   35.5180   25.8120   36.7860 H   0  0  0  0  0  0  0  0  0  0  0  0
   35.4390   23.6920   37.1460 C   0  0  0  0  0  0  0  0  0  0  0  0
   35.0960   23.3170   36.2080 H   0  0  0  0  0  0  0  0  0  0  0  0
   35.7460   22.9630   38.2780 C   0  0  0  0  0  3  0  0  0  0  0  0
   36.1490   23.8550   39.2490 C   0  0  0  0  0  0  0  0  0  0  0  0
   36.5640   23.6880   40.5530 C   0  0  0  0  0  3  0  0  0  0  0  0
   37.4790   32.8540   39.8670 C   0  0  0  0  0  0  0  0  0  0  0  0
   37.0710   31.6840   40.5370 C   0  0  0  0  0  0  0  0  0  0  0  0
   38.0700   30.7770   40.9230 C   0  0  0  0  0  0  0  0  0  0  0  0
   39.3420   31.0970   40.6240 N   0  0  0  0  0  0  0  0  0  0  0  0
   39.7040   32.2190   39.9870 C   0  0  0  0  0  0  0  0  0  0  0  0
   38.7630   33.0950   39.6100 N   0  0  0  0  0  0  0  0  0  0  0  0
   36.7120   33.5450   39.5730 H   0  0  0  0  0  0  0  0  0  0  0  0
   36.0700   31.4250   40.7740 H   0  0  0  0  0  0  0  0  0  0  0  0
   40.7690   32.3620   39.8060 H   0  0  0  0  0  0  0  0  0  0  0  0
  1  2  1  0  0  0  0
  2  7  1  0  0  0  0
  2  3  2  0  0  0  0
  3  8  1  0  0  0  0
  4  9  1  0  0  0  0
  4  3  1  0  0  0  0
  5  4  2  0  0  0  0
  6  5  1  0  0  0  0
  6  1  2  0  0  0  0
 11 10  1  0  0  0  0
 11  5  1  0  0  0  0
 12 11  2  0  0  0  0
 13 12  1  0  0  0  0
 14 20  2  0  0  0  0
 14 12  1  0  0  0  0
 15 14  1  0  0  0  0
 16 15  1  0  0  0  0
 17 15  1  0  0  0  0
 17 19  2  0  0  0  0
 18 17  1  0  0  0  0
 19 20  1  0  0  0  0
 20 21  1  0  0  0  0
 21 10  2  0  0  0  0
 22 23  1  0  0  0  0
 23 29  1  0  0  0  0
 23 24  2  0  0  0  0
 24  1  1  0  0  0  0
 25 24  1  0  0  0  0
 26 25  2  0  0  0  0
 27 22  2  0  0  0  0
 27 26  1  0  0  0  0
 28 22  1  0  0  0  0
 30 26  1  0  0  0  0
M  END
>  <minimizedAffinity>
-5.56225538

$$$$

 OpenBabel03242521033D

 30 33  0  0  0  0  0  0  0  0999 V2000
   38.7040   31.4910   39.6740 C   0  0  0  0  0  0  0  0  0  0  0  0
   37.5290   32.1590   39.9550 C   0  0  0  0  0  0  0  0  0  0  0  0
   36.4620   31.6070   40.6310 C   0  0  0  0  0  0  0  0  0  0  0  0
   36.5660   30.2890   41.0640 C   0  0  0  0  0  0  0  0  0  0  0  0
   37.7400   29.6530   40.7710 C   0  0  0  0  0  0  0  0  0  0  0  0
   38.7480   30.2300   40.1120 N   0  0  0  0  0  0  0  0  0  0  0  0
   37.4000   33.1870   39.6390 H   0  0  0  0  0  0  0  0  0  0  0  0
   35.5590   32.1940   40.8210 H   0  0  0  0  0  0  0  0  0  0  0  0
   35.7480   29.8440   41.5900 H   0  0  0  0  0  0  0  0  0  0  0  0
   37.0550   27.2770   40.7780 C   0  0  0  0  0  3  0  0  0  0  0  0
   37.9480   28.2670   41.1810 C   0  0  0  0  0  0  0  0  0  0  0  0
   38.9820   27.8050   41.9640 C   0  0  0  0  0  0  0  0  0  0  0  0
   39.7040   28.5140   42.3090 H   0  0  0  0  0  0  0  0  0  0  0  0
   39.1250   26.4950   42.3160 C   0  0  0  0  0  0  0  0  0  0  0  0
   40.0480   25.8650   43.0570 N   0  0  0  0  0  0  0  0  0  0  0  0
   40.8720   26.3480   43.5150 H   0  0  0  0  0  0  0  0  0  0  0  0
   39.7680   24.5420   43.1290 C   0  0  0  0  0  0  0  0  0  0  0  0
   40.3390   23.8110   43.6550 H   0  0  0  0  0  0  0  0  0  0  0  0
   38.6150   24.3360   42.3980 C   0  0  0  0  0  3  0  0  0  0  0  0
   38.2190   25.5570   41.8940 C   0  0  0  0  0  0  0  0  0  0  0  0
   37.1540   25.9390   41.1060 C   0  0  0  0  0  3  0  0  0  0  0  0
   41.4430   33.8060   38.4810 C   0  0  0  0  0  0  0  0  0  0  0  0
   40.3770   33.3490   39.2810 C   0  0  0  0  0  0  0  0  0  0  0  0
   39.8090   32.1070   38.9570 C   0  0  0  0  0  0  0  0  0  0  0  0
   40.3280   31.4470   37.9060 N   0  0  0  0  0  0  0  0  0  0  0  0
   41.3450   31.9030   37.1610 C   0  0  0  0  0  0  0  0  0  0  0  0
   41.8990   33.0870   37.4560 N   0  0  0  0  0  0  0  0  0  0  0  0
   41.8740   34.7560   38.7320 H   0  0  0  0  0  0  0  0  0  0  0  0
   39.9620   33.8660   40.1100 H   0  0  0  0  0  0  0  0  0  0  0  0
   41.6750   31.2710   36.3370 H   0  0  0  0  0  0  0  0  0  0  0  0
  1  2  2  0  0  0  0
  1  6  1  0  0  0  0
  2  3  1  0  0  0  0
  3  8  1  0  0  0  0
  3  4  2  0  0  0  0
  4  9  1  0  0  0  0
  5  4  1  0  0  0  0
  5 11  1  0  0  0  0
  6  5  2  0  0  0  0
  7  2  1  0  0  0  0
 10 21  2  0  0  0  0
 10 11  1  0  0  0  0
 11 12  2  0  0  0  0
 12 13  1  0  0  0  0
 12 14  1  0  0  0  0
 14 15  1  0  0  0  0
 15 17  1  0  0  0  0
 15 16  1  0  0  0  0
 17 18  1  0  0  0  0
 19 17  2  0  0  0  0
 20 14  2  0  0  0  0
 20 19  1  0  0  0  0
 21 20  1  0  0  0  0
 22 28  1  0  0  0  0
 22 23  1  0  0  0  0
 23 29  1  0  0  0  0
 24 23  2  0  0  0  0
 24  1  1  0  0  0  0
 25 24  1  0  0  0  0
 26 27  1  0  0  0  0
 26 25  2  0  0  0  0
 27 22  2  0  0  0  0
 30 26  1  0  0  0  0
M  END
>  <minimizedAffinity>
-5.40197468

$$$$

 OpenBabel03242521033D

 30 33  0  0  0  0  0  0  0  0999 V2000
   40.0790   33.0190   40.2220 C   0  0  0  0  0  0  0  0  0  0  0  0
   39.0940   33.9160   39.8570 C   0  0  0  0  0  0  0  0  0  0  0  0
   37.7440   33.6360   39.8700 C   0  0  0  0  0  0  0  0  0  0  0  0
   37.3360   32.3700   40.2770 C   0  0  0  0  0  0  0  0  0  0  0  0
   38.3330   31.5040   40.6310 C   0  0  0  0  0  0  0  0  0  0  0  0
   39.6310   31.8200   40.6020 N   0  0  0  0  0  0  0  0  0  0  0  0
   39.3610   34.9140   39.5330 H   0  0  0  0  0  0  0  0  0  0  0  0
   37.0160   34.3940   39.5680 H   0  0  0  0  0  0  0  0  0  0  0  0
   36.2930   32.1350   40.2920 H   0  0  0  0  0  0  0  0  0  0  0  0
   36.6840   29.7230   41.1020 C   0  0  0  0  0  3  0  0  0  0  0  0
   38.0100   30.1500   41.0710 C   0  0  0  0  0  0  0  0  0  0  0  0
   38.9160   29.1990   41.4820 C   0  0  0  0  0  0  0  0  0  0  0  0
   39.9520   29.4610   41.4830 H   0  0  0  0  0  0  0  0  0  0  0  0
   38.5530   27.9460   41.8840 C   0  0  0  0  0  0  0  0  0  0  0  0
   39.2770   26.9010   42.3110 N   0  0  0  0  0  0  0  0  0  0  0  0
   40.3330   26.9080   42.4030 H   0  0  0  0  0  0  0  0  0  0  0  0
   38.4660   25.8570   42.6000 C   0  0  0  0  0  0  0  0  0  0  0  0
   38.7810   24.9030   42.9590 H   0  0  0  0  0  0  0  0  0  0  0  0
   37.1740   26.2690   42.3430 C   0  0  0  0  0  3  0  0  0  0  0  0
   37.2350   27.5730   41.8960 C   0  0  0  0  0  0  0  0  0  0  0  0
   36.2650   28.4680   41.5000 C   0  0  0  0  0  3  0  0  0  0  0  0
   43.6040   33.8970   39.1770 C   0  0  0  0  0  0  0  0  0  0  0  0
   42.2370   33.5900   39.0280 C   0  0  0  0  0  0  0  0  0  0  0  0
   41.4950   33.3510   40.1950 C   0  0  0  0  0  0  0  0  0  0  0  0
   42.1480   33.4350   41.3680 N   0  0  0  0  0  0  0  0  0  0  0  0
   43.4500   33.7300   41.4830 C   0  0  0  0  0  0  0  0  0  0  0  0
   44.1730   33.9610   40.3790 N   0  0  0  0  0  0  0  0  0  0  0  0
   44.1670   34.0790   38.2820 H   0  0  0  0  0  0  0  0  0  0  0  0
   41.7170   33.5210   38.1050 H   0  0  0  0  0  0  0  0  0  0  0  0
   43.8600   33.7690   42.4920 H   0  0  0  0  0  0  0  0  0  0  0  0
  1  6  1  0  0  0  0
  2  3  1  0  0  0  0
  2  1  2  0  0  0  0
  3  4  2  0  0  0  0
  4  9  1  0  0  0  0
  4  5  1  0  0  0  0
  5 11  1  0  0  0  0
  6  5  2  0  0  0  0
  7  2  1  0  0  0  0
  8  3  1  0  0  0  0
 10 21  1  0  0  0  0
 11 10  2  0  0  0  0
 11 12  1  0  0  0  0
 12 13  1  0  0  0  0
 12 14  2  0  0  0  0
 14 20  1  0  0  0  0
 14 15  1  0  0  0  0
 15 16  1  0  0  0  0
 15 17  1  0  0  0  0
 17 18  1  0  0  0  0
 19 17  2  0  0  0  0
 20 19  1  0  0  0  0
 21 20  2  0  0  0  0
 22 27  1  0  0  0  0
 23 22  2  0  0  0  0
 23 24  1  0  0  0  0
 24  1  1  0  0  0  0
 24 25  2  0  0  0  0
 25 26  1  0  0  0  0
 26 30  1  0  0  0  0
 27 26  2  0  0  0  0
 28 22  1  0  0  0  0
 29 23  1  0  0  0  0
M  END
>  <minimizedAffinity>
-5.37586403

$$$$

 OpenBabel03242521033D

 30 33  0  0  0  0  0  0  0  0999 V2000
   37.7220   26.5790   41.7470 C   0  0  0  0  0  0  0  0  0  0  0  0
   36.8990   26.7040   42.8490 C   0  0  0  0  0  0  0  0  0  0  0  0
   36.8720   27.8040   43.6800 C   0  0  0  0  0  0  0  0  0  0  0  0
   37.7270   28.8640   43.3980 C   0  0  0  0  0  0  0  0  0  0  0  0
   38.5300   28.7120   42.3020 C   0  0  0  0  0  0  0  0  0  0  0  0
   38.5220   27.6250   41.5250 N   0  0  0  0  0  0  0  0  0  0  0  0
   36.2160   25.9060   43.1090 H   0  0  0  0  0  0  0  0  0  0  0  0
   36.1940   27.8370   44.5360 H   0  0  0  0  0  0  0  0  0  0  0  0
   37.7200   29.7260   44.0320 H   0  0  0  0  0  0  0  0  0  0  0  0
   39.4040   30.3300   40.6480 C   0  0  0  0  0  3  0  0  0  0  0  0
   39.4640   29.7680   41.9220 C   0  0  0  0  0  0  0  0  0  0  0  0
   40.4500   30.2990   42.7240 C   0  0  0  0  0  0  0  0  0  0  0  0
   40.5510   29.9130   43.7150 H   0  0  0  0  0  0  0  0  0  0  0  0
   41.2960   31.2880   42.3130 C   0  0  0  0  0  0  0  0  0  0  0  0
   42.2990   31.9210   42.9370 N   0  0  0  0  0  0  0  0  0  0  0  0
   42.6000   31.7190   43.9330 H   0  0  0  0  0  0  0  0  0  0  0  0
   42.8560   32.8410   42.1150 C   0  0  0  0  0  0  0  0  0  0  0  0
   43.6720   33.4830   42.3590 H   0  0  0  0  0  0  0  0  0  0  0  0
   42.1680   32.7790   40.9190 C   0  0  0  0  0  3  0  0  0  0  0  0
   41.1960   31.8080   41.0490 C   0  0  0  0  0  0  0  0  0  0  0  0
   40.2350   31.3310   40.1840 C   0  0  0  0  0  3  0  0  0  0  0  0
   37.4030   23.0810   40.3520 C   0  0  0  0  0  0  0  0  0  0  0  0
   37.3420   24.1160   41.3060 C   0  0  0  0  0  0  0  0  0  0  0  0
   37.7230   25.4020   40.8930 C   0  0  0  0  0  0  0  0  0  0  0  0
   38.1170   25.5470   39.6150 N   0  0  0  0  0  0  0  0  0  0  0  0
   38.1650   24.5460   38.7260 C   0  0  0  0  0  0  0  0  0  0  0  0
   37.8050   23.3120   39.1030 N   0  0  0  0  0  0  0  0  0  0  0  0
   37.1100   22.0990   40.6720 H   0  0  0  0  0  0  0  0  0  0  0  0
   37.0330   24.0070   42.3160 H   0  0  0  0  0  0  0  0  0  0  0  0
   38.5010   24.7950   37.7200 H   0  0  0  0  0  0  0  0  0  0  0  0
  1  2  1  0  0  0  0
  2  7  1  0  0  0  0
  2  3  2  0  0  0  0
  3  8  1  0  0  0  0
  4  3  1  0  0  0  0
  4  9  1  0  0  0  0
  5  4  2  0  0  0  0
  6  1  2  0  0  0  0
  6  5  1  0  0  0  0
 10 11  1  0  0  0  0
 11  5  1  0  0  0  0
 11 12  2  0  0  0  0
 12 13  1  0  0  0  0
 14 12  1  0  0  0  0
 14 15  1  0  0  0  0
 15 16  1  0  0  0  0
 17 18  1  0  0  0  0
 17 15  1  0  0  0  0
 19 20  1  0  0  0  0
 19 17  2  0  0  0  0
 20 14  2  0  0  0  0
 21 10  2  0  0  0  0
 21 20  1  0  0  0  0
 22 28  1  0  0  0  0
 22 23  1  0  0  0  0
 23 29  1  0  0  0  0
 24 23  2  0  0  0  0
 24  1  1  0  0  0  0
 25 24  1  0  0  0  0
 26 27  1  0  0  0  0
 26 25  2  0  0  0  0
 27 22  2  0  0  0  0
 30 26  1  0  0  0  0
M  END
>  <minimizedAffinity>
-5.32784128

$$$$

 OpenBabel03242521033D

 30 33  0  0  0  0  0  0  0  0999 V2000
   36.7080   27.9040   39.6220 C   0  0  0  0  0  0  0  0  0  0  0  0
   35.5920   28.1170   38.8370 C   0  0  0  0  0  0  0  0  0  0  0  0
   35.3840   29.2420   38.0680 C   0  0  0  0  0  0  0  0  0  0  0  0
   36.3580   30.2340   38.0750 C   0  0  0  0  0  0  0  0  0  0  0  0
   37.4510   29.9970   38.8620 C   0  0  0  0  0  0  0  0  0  0  0  0
   37.6090   28.8890   39.5920 N   0  0  0  0  0  0  0  0  0  0  0  0
   34.8070   27.3730   38.7980 H   0  0  0  0  0  0  0  0  0  0  0  0
   34.4760   29.3450   37.4680 H   0  0  0  0  0  0  0  0  0  0  0  0
   36.2140   31.1150   37.4850 H   0  0  0  0  0  0  0  0  0  0  0  0
   38.8910   31.5240   40.1690 C   0  0  0  0  0  3  0  0  0  0  0  0
   38.5290   30.9790   38.9390 C   0  0  0  0  0  0  0  0  0  0  0  0
   39.2660   31.4520   37.8760 C   0  0  0  0  0  0  0  0  0  0  0  0
   39.0390   31.0740   36.9020 H   0  0  0  0  0  0  0  0  0  0  0  0
   40.2640   32.3720   38.0100 C   0  0  0  0  0  0  0  0  0  0  0  0
   41.0780   32.9430   37.1110 N   0  0  0  0  0  0  0  0  0  0  0  0
   41.0530   32.7360   36.0720 H   0  0  0  0  0  0  0  0  0  0  0  0
   41.9200   33.8080   37.7240 C   0  0  0  0  0  0  0  0  0  0  0  0
   42.6690   34.3960   37.2430 H   0  0  0  0  0  0  0  0  0  0  0  0
   41.6170   33.7760   39.0710 C   0  0  0  0  0  3  0  0  0  0  0  0
   40.5840   32.8790   39.2430 C   0  0  0  0  0  0  0  0  0  0  0  0
   39.8920   32.4570   40.3580 C   0  0  0  0  0  3  0  0  0  0  0  0
   37.5580   25.4270   42.3480 C   0  0  0  0  0  0  0  0  0  0  0  0
   37.4470   26.6790   41.7110 C   0  0  0  0  0  0  0  0  0  0  0  0
   36.8920   26.7030   40.4220 C   0  0  0  0  0  0  0  0  0  0  0  0
   36.5070   25.5270   39.8940 N   0  0  0  0  0  0  0  0  0  0  0  0
   36.6220   24.3490   40.5230 C   0  0  0  0  0  0  0  0  0  0  0  0
   37.1500   24.3080   41.7540 N   0  0  0  0  0  0  0  0  0  0  0  0
   37.9820   25.4140   43.3340 H   0  0  0  0  0  0  0  0  0  0  0  0
   37.7500   27.6100   42.1210 H   0  0  0  0  0  0  0  0  0  0  0  0
   36.2710   23.4670   39.9870 H   0  0  0  0  0  0  0  0  0  0  0  0
  1 24  1  0  0  0  0
  2  1  2  0  0  0  0
  3  4  2  0  0  0  0
  3  2  1  0  0  0  0
  4  5  1  0  0  0  0
  5 11  1  0  0  0  0
  5  6  2  0  0  0  0
  6  1  1  0  0  0  0
  7  2  1  0  0  0  0
  8  3  1  0  0  0  0
  9  4  1  0  0  0  0
 10 21  1  0  0  0  0
 11 10  2  0  0  0  0
 12 14  2  0  0  0  0
 12 11  1  0  0  0  0
 13 12  1  0  0  0  0
 14 20  1  0  0  0  0
 15 17  1  0  0  0  0
 15 14  1  0  0  0  0
 16 15  1  0  0  0  0
 17 19  2  0  0  0  0
 18 17  1  0  0  0  0
 19 20  1  0  0  0  0
 20 21  2  0  0  0  0
 22 28  1  0  0  0  0
 23 29  1  0  0  0  0
 23 22  2  0  0  0  0
 24 23  1  0  0  0  0
 25 24  2  0  0  0  0
 25 26  1  0  0  0  0
 26 27  2  0  0  0  0
 27 22  1  0  0  0  0
 30 26  1  0  0  0  0
M  END
>  <minimizedAffinity>
-5.3069644

$$$$
