
 OpenBabel03252506213D

 38 41  0  0  0  0  0  0  0  0999 V2000
   45.1260   36.5770   43.3040 C   0  0  0  0  0  0  0  0  0  0  0  0
   44.0800   36.5050   42.3690 C   0  0  0  0  0  0  0  0  0  0  0  0
   44.1340   35.4890   41.4060 C   0  0  0  0  0  0  0  0  0  0  0  0
   45.1880   34.6340   41.4260 N   0  0  0  0  0  0  0  0  0  0  0  0
   46.1770   34.7410   42.3480 C   0  0  0  0  0  0  0  0  0  0  0  0
   46.1420   35.7130   43.2860 N   0  0  0  0  0  0  0  0  0  0  0  0
   43.2540   37.1770   42.3560 H   0  0  0  0  0  0  0  0  0  0  0  0
   43.3540   35.3920   40.6640 H   0  0  0  0  0  0  0  0  0  0  0  0
   48.7340   35.7670   41.1010 Cl  0  0  0  0  0  0  0  0  0  0  0  0
   48.4790   34.1720   41.7290 C   0  0  0  0  0  0  0  0  0  0  0  0
   47.2760   33.7680   42.2890 C   0  0  0  0  0  0  0  0  0  0  0  0
   47.0520   32.5180   42.7910 C   0  0  0  0  0  0  0  0  0  0  0  0
   48.0930   31.6190   42.7270 C   0  0  0  0  0  0  0  0  0  0  0  0
   49.3370   31.9160   42.1890 C   0  0  0  0  0  0  0  0  0  0  0  0
   49.4620   33.2110   41.7070 C   0  0  0  0  0  0  0  0  0  0  0  0
   46.1110   32.2120   43.2260 H   0  0  0  0  0  0  0  0  0  0  0  0
   47.9780   30.6070   43.1100 H   0  0  0  0  0  0  0  0  0  0  0  0
   50.1540   31.2330   42.1320 H   0  0  0  0  0  0  0  0  0  0  0  0
   50.4190   33.5030   41.2710 H   0  0  0  0  0  0  0  0  0  0  0  0
   45.0600   37.6430   44.3110 C   0  0  0  0  0  3  0  0  0  0  0  0
   45.4600   38.8420   43.9870 C   0  0  0  0  0  3  0  0  0  0  0  0
   45.4050   39.9420   44.9860 C   0  0  0  0  0  0  0  0  0  0  0  0
   46.2810   40.6180   44.9120 H   0  0  0  0  0  0  0  0  0  0  0  0
   45.3930   39.5550   46.0230 H   0  0  0  0  0  0  0  0  0  0  0  0
   44.2070   40.7320   44.7050 N   0  0  0  0  0  0  0  0  0  0  0  0
   43.3500   40.2980   44.2550 H   0  0  0  0  0  0  0  0  0  0  0  0
   42.9170   42.8130   45.0050 C   0  0  0  0  0  3  0  0  0  0  0  0
   44.1160   42.1230   45.0130 C   0  0  0  0  0  0  0  0  0  0  0  0
   45.2430   42.8510   45.3370 C   0  0  0  0  0  0  0  0  0  0  0  0
   46.2230   42.4030   45.3700 H   0  0  0  0  0  0  0  0  0  0  0  0
   45.2420   44.1970   45.6470 C   0  0  0  0  0  0  0  0  0  0  0  0
   46.1800   45.1010   45.9850 N   0  0  0  0  0  0  0  0  0  0  0  0
   47.1890   44.9320   46.0860 H   0  0  0  0  0  0  0  0  0  0  0  0
   45.5990   46.3050   46.1810 C   0  0  0  0  0  0  0  0  0  0  0  0
   46.0220   47.2630   46.4600 H   0  0  0  0  0  0  0  0  0  0  0  0
   44.2420   46.1740   45.9620 C   0  0  0  0  0  3  0  0  0  0  0  0
   44.0070   44.8560   45.6270 C   0  0  0  0  0  0  0  0  0  0  0  0
   42.8600   44.1580   45.3070 C   0  0  0  0  0  3  0  0  0  0  0  0
  1 20  1  0  0  0  0
  2  1  2  0  0  0  0
  3  4  2  0  0  0  0
  3  2  1  0  0  0  0
  4  5  1  0  0  0  0
  5  6  2  0  0  0  0
  6  1  1  0  0  0  0
  7  2  1  0  0  0  0
  8  3  1  0  0  0  0
  9 10  1  0  0  0  0
 10 11  1  0  0  0  0
 11  5  1  0  0  0  0
 11 12  2  0  0  0  0
 12 16  1  0  0  0  0
 13 12  1  0  0  0  0
 13 17  1  0  0  0  0
 14 13  2  0  0  0  0
 15 10  2  0  0  0  0
 15 14  1  0  0  0  0
 18 14  1  0  0  0  0
 19 15  1  0  0  0  0
 21 20  2  0  0  0  0
 21 22  1  0  0  0  0
 22 24  1  0  0  0  0
 23 22  1  0  0  0  0
 25 22  1  0  0  0  0
 25 28  1  0  0  0  0
 26 25  1  0  0  0  0
 27 28  2  0  0  0  0
 27 38  1  0  0  0  0
 28 29  1  0  0  0  0
 29 30  1  0  0  0  0
 29 31  2  0  0  0  0
 31 32  1  0  0  0  0
 32 33  1  0  0  0  0
 32 34  1  0  0  0  0
 34 35  1  0  0  0  0
 36 34  2  0  0  0  0
 37 31  1  0  0  0  0
 37 36  1  0  0  0  0
 38 37  2  0  0  0  0
M  END
>  <minimizedAffinity>
-1.32916653

>  <minimizedRMSD>
0.721645832

$$$$
