
 OpenBabel03242522423D

 50 54  0  0  0  0  0  0  0  0999 V2000
   46.6590   32.6440   44.3390 C   0  0  0  0  0  0  0  0  0  0  0  0
   46.3740   32.1440   43.3560 H   0  0  0  0  0  0  0  0  0  0  0  0
   47.7130   32.7390   44.5230 H   0  0  0  0  0  0  0  0  0  0  0  0
   46.2210   34.6270   42.9900 C   0  0  0  0  0  0  0  0  0  0  0  0
   46.0090   33.9520   44.1900 C   0  0  0  0  0  0  0  0  0  0  0  0
   45.2370   34.3880   45.1980 C   0  0  0  0  0  0  0  0  0  0  0  0
   44.5930   35.5980   45.0550 C   0  0  0  0  0  0  0  0  0  0  0  0
   44.7250   36.3440   43.9240 C   0  0  0  0  0  0  0  0  0  0  0  0
   45.5330   35.8440   42.9170 C   0  0  0  0  0  0  0  0  0  0  0  0
   44.9950   33.9680   46.1320 H   0  0  0  0  0  0  0  0  0  0  0  0
   43.9380   36.0730   45.7890 H   0  0  0  0  0  0  0  0  0  0  0  0
   44.2470   37.3100   43.7320 H   0  0  0  0  0  0  0  0  0  0  0  0
   45.6540   36.4220   42.0020 H   0  0  0  0  0  0  0  0  0  0  0  0
   47.1660   34.1030   41.6640 S   0  0  0  0  0  0  0  0  0  0  0  0
   47.9220   35.3510   41.0760 O   0  0  0  0  0  0  0  0  0  0  0  0
   46.2890   33.7030   40.5240 O   0  0  0  0  0  0  0  0  0  0  0  0
   49.8430   33.5810   42.2880 C   0  0  0  0  0  3  0  0  0  0  0  0
   48.5560   33.1260   41.9260 C   0  0  0  0  0  0  0  0  0  0  0  0
   48.6030   31.7220   41.8290 C   0  0  0  0  0  0  0  0  0  0  0  0
   47.6450   31.2500   41.5490 H   0  0  0  0  0  0  0  0  0  0  0  0
   49.6950   30.9190   42.0440 C   0  0  0  0  0  0  0  0  0  0  0  0
   49.7930   29.5790   41.9660 N   0  0  0  0  0  0  0  0  0  0  0  0
   49.0720   28.8590   41.7270 H   0  0  0  0  0  0  0  0  0  0  0  0
   51.0690   29.2820   42.2670 C   0  0  0  0  0  0  0  0  0  0  0  0
   51.5550   28.3170   42.3160 H   0  0  0  0  0  0  0  0  0  0  0  0
   51.7620   30.4630   42.5350 C   0  0  0  0  0  3  0  0  0  0  0  0
   50.8690   31.5010   42.3880 C   0  0  0  0  0  0  0  0  0  0  0  0
   50.9710   32.8560   42.5190 C   0  0  0  0  0  3  0  0  0  0  0  0
   46.0150   31.6990   45.3030 C   0  0  0  0  0  0  0  0  0  0  0  0
   44.9680   31.9760   45.6000 H   0  0  0  0  0  0  0  0  0  0  0  0
   45.8310   30.6620   44.8870 H   0  0  0  0  0  0  0  0  0  0  0  0
   47.0620   32.4840   47.4040 C   0  0  0  0  0  0  0  0  0  0  0  0
   46.9300   31.4800   46.4190 C   0  0  0  0  0  0  0  0  0  0  0  0
   47.6520   30.3140   46.5820 C   0  0  0  0  0  0  0  0  0  0  0  0
   48.4420   30.1930   47.6730 N   0  0  0  0  0  0  0  0  0  0  0  0
   48.5430   31.1540   48.5890 C   0  0  0  0  0  0  0  0  0  0  0  0
   47.8590   32.3140   48.4730 N   0  0  0  0  0  0  0  0  0  0  0  0
   46.5970   33.4500   47.4560 H   0  0  0  0  0  0  0  0  0  0  0  0
   47.5490   29.5520   45.8220 H   0  0  0  0  0  0  0  0  0  0  0  0
   49.4350   30.9270   49.7760 C   0  0  0  0  0  0  0  0  0  0  0  0
   48.9020   31.2430   50.7160 H   0  0  0  0  0  0  0  0  0  0  0  0
   49.5960   29.8380   49.9100 H   0  0  0  0  0  0  0  0  0  0  0  0
   50.7230   31.5920   49.6670 C   0  0  0  0  0  0  0  0  0  0  0  0
   51.8700   31.0460   49.1230 C   0  0  0  0  0  0  0  0  0  0  0  0
   52.8810   31.9670   49.1960 C   0  0  0  0  0  0  0  0  0  0  0  0
   52.3080   33.0570   49.7900 N   0  0  0  0  0  0  0  0  0  0  0  0
   51.0260   32.8410   50.0720 N   0  0  0  0  0  0  0  0  0  0  0  0
   52.0420   30.0620   48.6860 H   0  0  0  0  0  0  0  0  0  0  0  0
   53.9220   31.9940   48.9090 H   0  0  0  0  0  0  0  0  0  0  0  0
   52.7050   34.0020   50.0480 H   0  0  0  0  0  0  0  0  0  0  0  0
  1  3  1  0  0  0  0
  1 29  1  0  0  0  0
  2  1  1  0  0  0  0
  4  5  1  0  0  0  0
  5  1  1  0  0  0  0
  5  6  2  0  0  0  0
  6 10  1  0  0  0  0
  7  6  1  0  0  0  0
  7 11  1  0  0  0  0
  8  7  2  0  0  0  0
  9  4  2  0  0  0  0
  9  8  1  0  0  0  0
 12  8  1  0  0  0  0
 13  9  1  0  0  0  0
 14 18  1  0  0  0  0
 14  4  1  0  0  0  0
 15 14  2  0  0  0  0
 16 14  2  0  0  0  0
 17 28  1  0  0  0  0
 18 17  2  0  0  0  0
 19 18  1  0  0  0  0
 19 21  2  0  0  0  0
 20 19  1  0  0  0  0
 21 27  1  0  0  0  0
 22 21  1  0  0  0  0
 22 24  1  0  0  0  0
 23 22  1  0  0  0  0
 24 25  1  0  0  0  0
 24 26  2  0  0  0  0
 27 28  2  0  0  0  0
 27 26  1  0  0  0  0
 29 30  1  0  0  0  0
 29 33  1  0  0  0  0
 31 29  1  0  0  0  0
 32 38  1  0  0  0  0
 32 37  1  0  0  0  0
 33 34  1  0  0  0  0
 33 32  2  0  0  0  0
 34 35  2  0  0  0  0
 35 36  1  0  0  0  0
 36 40  1  0  0  0  0
 37 36  2  0  0  0  0
 39 34  1  0  0  0  0
 40 42  1  0  0  0  0
 40 41  1  0  0  0  0
 43 40  1  0  0  0  0
 43 47  2  0  0  0  0
 44 45  2  0  0  0  0
 44 43  1  0  0  0  0
 45 46  1  0  0  0  0
 46 50  1  0  0  0  0
 46 47  1  0  0  0  0
 48 44  1  0  0  0  0
 49 45  1  0  0  0  0
M  END
>  <minimizedAffinity>
-6.58387661

>  <minimizedRMSD>
0.323511153

$$$$
