
 OpenBabel03252502523D

 34 37  0  0  0  0  0  0  0  0999 V2000
   46.3950   29.7990   44.4670 Br  0  0  0  0  0  0  0  0  0  0  0  0
   45.9180   30.7110   46.0970 C   0  0  0  0  0  0  0  0  0  0  0  0
   46.2940   32.0430   46.1820 C   0  0  0  0  0  0  0  0  0  0  0  0
   45.9290   32.6540   47.3750 C   0  0  0  0  0  0  0  0  0  0  0  0
   45.2540   32.0280   48.4030 C   0  0  0  0  0  0  0  0  0  0  0  0
   44.9190   30.7080   48.2400 C   0  0  0  0  0  0  0  0  0  0  0  0
   45.2480   30.0190   47.0720 C   0  0  0  0  0  0  0  0  0  0  0  0
   46.1830   33.6980   47.5280 H   0  0  0  0  0  0  0  0  0  0  0  0
   45.0070   32.5660   49.2930 H   0  0  0  0  0  0  0  0  0  0  0  0
   44.3900   30.2450   49.0630 H   0  0  0  0  0  0  0  0  0  0  0  0
   43.7110   28.4090   46.2420 C   0  0  0  0  0  3  0  0  0  0  0  0
   44.8680   28.6350   46.9590 C   0  0  0  0  0  0  0  0  0  0  0  0
   45.5130   27.5370   47.4730 C   0  0  0  0  0  0  0  0  0  0  0  0
   46.4140   27.7450   48.0290 H   0  0  0  0  0  0  0  0  0  0  0  0
   45.0630   26.2570   47.3060 C   0  0  0  0  0  0  0  0  0  0  0  0
   45.5930   25.1190   47.7510 N   0  0  0  0  0  0  0  0  0  0  0  0
   46.4650   25.0110   48.3170 H   0  0  0  0  0  0  0  0  0  0  0  0
   44.8090   24.1190   47.3440 C   0  0  0  0  0  0  0  0  0  0  0  0
   44.9980   23.0730   47.5620 H   0  0  0  0  0  0  0  0  0  0  0  0
   43.7520   24.6540   46.6200 C   0  0  0  0  0  3  0  0  0  0  0  0
   43.9060   26.0250   46.5890 C   0  0  0  0  0  0  0  0  0  0  0  0
   43.2490   27.1180   46.0680 C   0  0  0  0  0  3  0  0  0  0  0  0
   47.0070   32.8060   45.1650 C   0  0  0  0  0  0  0  0  0  0  0  0
   48.0000   33.1270   45.5330 H   0  0  0  0  0  0  0  0  0  0  0  0
   47.1680   32.1230   44.2830 H   0  0  0  0  0  0  0  0  0  0  0  0
   44.5280   35.5850   44.7780 C   0  0  0  0  0  0  0  0  0  0  0  0
   44.8430   36.0650   43.5000 C   0  0  0  0  0  0  0  0  0  0  0  0
   45.8720   35.4490   42.8080 C   0  0  0  0  0  0  0  0  0  0  0  0
   46.5390   34.4040   43.3830 N   0  0  0  0  0  0  0  0  0  0  0  0
   46.2090   33.9570   44.6340 C   0  0  0  0  0  0  0  0  0  0  0  0
   45.2020   34.5660   45.3010 N   0  0  0  0  0  0  0  0  0  0  0  0
   43.7340   36.0500   45.3280 H   0  0  0  0  0  0  0  0  0  0  0  0
   44.3180   36.8920   43.0390 H   0  0  0  0  0  0  0  0  0  0  0  0
   46.1910   35.7480   41.8130 H   0  0  0  0  0  0  0  0  0  0  0  0
  1  2  1  0  0  0  0
  2  3  2  0  0  0  0
  2  7  1  0  0  0  0
  3  4  1  0  0  0  0
  4  8  1  0  0  0  0
  4  5  2  0  0  0  0
  5  9  1  0  0  0  0
  6  5  1  0  0  0  0
  6 10  1  0  0  0  0
  7  6  2  0  0  0  0
 11 12  1  0  0  0  0
 12  7  1  0  0  0  0
 12 13  2  0  0  0  0
 13 14  1  0  0  0  0
 15 13  1  0  0  0  0
 15 16  1  0  0  0  0
 16 17  1  0  0  0  0
 18 19  1  0  0  0  0
 18 16  1  0  0  0  0
 20 18  2  0  0  0  0
 21 20  1  0  0  0  0
 21 15  2  0  0  0  0
 22 11  2  0  0  0  0
 22 21  1  0  0  0  0
 23 24  1  0  0  0  0
 23  3  1  0  0  0  0
 25 23  1  0  0  0  0
 26 31  1  0  0  0  0
 26 32  1  0  0  0  0
 27 26  2  0  0  0  0
 28 29  2  0  0  0  0
 28 27  1  0  0  0  0
 29 30  1  0  0  0  0
 30 23  1  0  0  0  0
 30 31  2  0  0  0  0
 33 27  1  0  0  0  0
 34 28  1  0  0  0  0
M  END
>  <minimizedAffinity>
-5.7888875

>  <minimizedRMSD>
1.70436919

$$$$
