
 OpenBabel03242522423D

 50 54  0  0  0  0  0  0  0  0999 V2000
   46.6570   32.6420   44.3410 C   0  0  0  0  0  0  0  0  0  0  0  0
   46.3710   32.1410   43.3580 H   0  0  0  0  0  0  0  0  0  0  0  0
   47.7120   32.7360   44.5240 H   0  0  0  0  0  0  0  0  0  0  0  0
   46.2200   34.6240   42.9900 C   0  0  0  0  0  0  0  0  0  0  0  0
   46.0080   33.9500   44.1910 C   0  0  0  0  0  0  0  0  0  0  0  0
   45.2370   34.3880   45.1990 C   0  0  0  0  0  0  0  0  0  0  0  0
   44.5940   35.5980   45.0550 C   0  0  0  0  0  0  0  0  0  0  0  0
   44.7250   36.3430   43.9240 C   0  0  0  0  0  0  0  0  0  0  0  0
   45.5330   35.8420   42.9170 C   0  0  0  0  0  0  0  0  0  0  0  0
   44.9960   33.9690   46.1330 H   0  0  0  0  0  0  0  0  0  0  0  0
   43.9400   36.0750   45.7900 H   0  0  0  0  0  0  0  0  0  0  0  0
   44.2490   37.3090   43.7310 H   0  0  0  0  0  0  0  0  0  0  0  0
   45.6540   36.4190   42.0010 H   0  0  0  0  0  0  0  0  0  0  0  0
   47.1640   34.0990   41.6640 S   0  0  0  0  0  0  0  0  0  0  0  0
   47.9170   35.3460   41.0720 O   0  0  0  0  0  0  0  0  0  0  0  0
   46.2850   33.6950   40.5260 O   0  0  0  0  0  0  0  0  0  0  0  0
   49.8420   33.5800   42.2880 C   0  0  0  0  0  3  0  0  0  0  0  0
   48.5550   33.1230   41.9260 C   0  0  0  0  0  0  0  0  0  0  0  0
   48.6030   31.7190   41.8290 C   0  0  0  0  0  0  0  0  0  0  0  0
   47.6460   31.2460   41.5500 H   0  0  0  0  0  0  0  0  0  0  0  0
   49.6960   30.9170   42.0450 C   0  0  0  0  0  0  0  0  0  0  0  0
   49.7970   29.5780   41.9670 N   0  0  0  0  0  0  0  0  0  0  0  0
   49.0760   28.8570   41.7270 H   0  0  0  0  0  0  0  0  0  0  0  0
   51.0730   29.2830   42.2670 C   0  0  0  0  0  0  0  0  0  0  0  0
   51.5600   28.3180   42.3170 H   0  0  0  0  0  0  0  0  0  0  0  0
   51.7650   30.4640   42.5350 C   0  0  0  0  0  3  0  0  0  0  0  0
   50.8690   31.5020   42.3880 C   0  0  0  0  0  0  0  0  0  0  0  0
   50.9700   32.8570   42.5190 C   0  0  0  0  0  3  0  0  0  0  0  0
   46.0140   31.6990   45.3060 C   0  0  0  0  0  0  0  0  0  0  0  0
   44.9660   31.9760   45.6040 H   0  0  0  0  0  0  0  0  0  0  0  0
   45.8280   30.6610   44.8910 H   0  0  0  0  0  0  0  0  0  0  0  0
   47.0600   32.4820   47.4070 C   0  0  0  0  0  0  0  0  0  0  0  0
   46.9290   31.4790   46.4210 C   0  0  0  0  0  0  0  0  0  0  0  0
   47.6530   30.3140   46.5830 C   0  0  0  0  0  0  0  0  0  0  0  0
   48.4430   30.1930   47.6740 N   0  0  0  0  0  0  0  0  0  0  0  0
   48.5440   31.1530   48.5900 C   0  0  0  0  0  0  0  0  0  0  0  0
   47.8580   32.3130   48.4760 N   0  0  0  0  0  0  0  0  0  0  0  0
   46.5940   33.4480   47.4600 H   0  0  0  0  0  0  0  0  0  0  0  0
   47.5490   29.5520   45.8220 H   0  0  0  0  0  0  0  0  0  0  0  0
   49.4360   30.9250   49.7760 C   0  0  0  0  0  0  0  0  0  0  0  0
   48.9040   31.2410   50.7170 H   0  0  0  0  0  0  0  0  0  0  0  0
   49.5980   29.8370   49.9100 H   0  0  0  0  0  0  0  0  0  0  0  0
   50.7240   31.5910   49.6670 C   0  0  0  0  0  0  0  0  0  0  0  0
   51.8720   31.0460   49.1230 C   0  0  0  0  0  0  0  0  0  0  0  0
   52.8810   31.9670   49.1960 C   0  0  0  0  0  0  0  0  0  0  0  0
   52.3080   33.0580   49.7890 N   0  0  0  0  0  0  0  0  0  0  0  0
   51.0270   32.8400   50.0720 N   0  0  0  0  0  0  0  0  0  0  0  0
   52.0440   30.0610   48.6870 H   0  0  0  0  0  0  0  0  0  0  0  0
   53.9230   31.9950   48.9080 H   0  0  0  0  0  0  0  0  0  0  0  0
   52.7050   34.0030   50.0470 H   0  0  0  0  0  0  0  0  0  0  0  0
  1  3  1  0  0  0  0
  1 29  1  0  0  0  0
  2  1  1  0  0  0  0
  4  5  1  0  0  0  0
  5  1  1  0  0  0  0
  5  6  2  0  0  0  0
  6 10  1  0  0  0  0
  7  6  1  0  0  0  0
  7 11  1  0  0  0  0
  8  7  2  0  0  0  0
  9  4  2  0  0  0  0
  9  8  1  0  0  0  0
 12  8  1  0  0  0  0
 13  9  1  0  0  0  0
 14 18  1  0  0  0  0
 14  4  1  0  0  0  0
 15 14  2  0  0  0  0
 16 14  2  0  0  0  0
 17 28  1  0  0  0  0
 18 17  2  0  0  0  0
 19 18  1  0  0  0  0
 19 21  2  0  0  0  0
 20 19  1  0  0  0  0
 21 27  1  0  0  0  0
 22 21  1  0  0  0  0
 22 24  1  0  0  0  0
 23 22  1  0  0  0  0
 24 25  1  0  0  0  0
 24 26  2  0  0  0  0
 27 28  2  0  0  0  0
 27 26  1  0  0  0  0
 29 30  1  0  0  0  0
 29 33  1  0  0  0  0
 31 29  1  0  0  0  0
 32 38  1  0  0  0  0
 32 37  1  0  0  0  0
 33 34  1  0  0  0  0
 33 32  2  0  0  0  0
 34 35  2  0  0  0  0
 35 36  1  0  0  0  0
 36 40  1  0  0  0  0
 37 36  2  0  0  0  0
 39 34  1  0  0  0  0
 40 42  1  0  0  0  0
 40 41  1  0  0  0  0
 43 40  1  0  0  0  0
 43 47  2  0  0  0  0
 44 45  2  0  0  0  0
 44 43  1  0  0  0  0
 45 46  1  0  0  0  0
 46 50  1  0  0  0  0
 46 47  1  0  0  0  0
 48 44  1  0  0  0  0
 49 45  1  0  0  0  0
M  END
>  <minimizedAffinity>
-6.58236408

>  <minimizedRMSD>
0.399155319

$$$$
