
 OpenBabel03252505103D

 47 51  0  0  1  0  0  0  0  0999 V2000
   44.5640   35.6040   44.6170 C   0  0  0  0  0  0  0  0  0  0  0  0
   45.2190   35.6180   43.3620 C   0  0  0  0  0  0  0  0  0  0  0  0
   46.3100   34.7050   43.1710 C   0  0  0  0  0  0  0  0  0  0  0  0
   46.6560   33.8790   44.2030 N   0  0  0  0  0  0  0  0  0  0  0  0
   46.0060   33.9030   45.3710 C   0  0  0  0  0  0  0  0  0  0  0  0
   44.9550   34.7630   45.5900 N   0  0  0  0  0  0  0  0  0  0  0  0
   43.7470   36.3060   44.7200 H   0  0  0  0  0  0  0  0  0  0  0  0
   44.9370   36.2780   42.5500 H   0  0  0  0  0  0  0  0  0  0  0  0
   46.4250   32.9830   46.4650 C   0  0  2  0  0  0  0  0  0  0  0  0
   46.9530   31.7540   45.7590 C   0  0  0  0  0  0  0  0  0  0  0  0
   46.0780   30.5720   45.7680 C   0  0  0  0  0  0  0  0  0  0  0  0
   45.7990   30.2980   47.2420 C   0  0  0  0  0  0  0  0  0  0  0  0
   45.0040   31.3700   47.8620 C   0  0  0  0  0  0  0  0  0  0  0  0
   45.3780   32.7390   47.4150 C   0  0  0  0  0  0  0  0  0  0  0  0
   47.2750   33.5100   46.9670 H   0  0  0  0  0  0  0  0  0  0  0  0
   47.8960   31.4640   46.2740 H   0  0  0  0  0  0  0  0  0  0  0  0
   47.2750   31.9680   44.7110 H   0  0  0  0  0  0  0  0  0  0  0  0
   45.1250   30.7960   45.2770 H   0  0  0  0  0  0  0  0  0  0  0  0
   46.6230   29.7260   45.3560 H   0  0  0  0  0  0  0  0  0  0  0  0
   45.1010   29.4180   47.2150 H   0  0  0  0  0  0  0  0  0  0  0  0
   46.6850   29.9960   47.8020 H   0  0  0  0  0  0  0  0  0  0  0  0
   44.2120   31.4170   48.5610 H   0  0  0  0  0  0  0  0  0  0  0  0
   44.6860   33.8700   47.9330 N   0  0  0  0  0  0  0  0  0  0  0  0
   45.1530   34.4980   48.6420 H   0  0  0  0  0  0  0  0  0  0  0  0
   43.7240   34.2370   47.7360 H   0  0  0  0  0  0  0  0  0  0  0  0
   46.9990   34.6920   41.9050 C   0  0  0  0  0  0  0  0  0  0  0  0
   48.1600   35.3670   41.7810 C   0  0  0  0  0  0  0  0  0  0  0  0
   48.7850   35.3180   40.5230 C   0  0  0  0  0  0  0  0  0  0  0  0
   48.1460   34.5800   39.5360 C   0  0  0  0  0  0  0  0  0  0  0  0
   46.9670   33.8940   39.6640 C   0  0  0  0  0  0  0  0  0  0  0  0
   46.4280   33.9930   40.9120 N   0  0  0  0  0  0  0  0  0  0  0  0
   48.6160   35.9260   42.5790 H   0  0  0  0  0  0  0  0  0  0  0  0
   49.7210   35.8290   40.3260 H   0  0  0  0  0  0  0  0  0  0  0  0
   48.6560   34.5620   38.5740 H   0  0  0  0  0  0  0  0  0  0  0  0
   46.3990   33.1880   38.6360 O   0  0  0  0  0  0  0  0  0  0  0  0
   48.1770   33.3560   36.9250 C   0  0  0  0  0  3  0  0  0  0  0  0
   46.9850   32.9110   37.4360 C   0  0  0  0  0  0  0  0  0  0  0  0
   46.2350   32.0470   36.6390 C   0  0  0  0  0  0  0  0  0  0  0  0
   45.2680   31.6110   36.9050 H   0  0  0  0  0  0  0  0  0  0  0  0
   46.6670   31.6500   35.3830 C   0  0  0  0  0  0  0  0  0  0  0  0
   46.1740   30.8480   34.4100 N   0  0  0  0  0  0  0  0  0  0  0  0
   45.2620   30.3350   34.4670 H   0  0  0  0  0  0  0  0  0  0  0  0
   47.0060   30.8040   33.3770 C   0  0  0  0  0  0  0  0  0  0  0  0
   46.8720   30.2400   32.4490 H   0  0  0  0  0  0  0  0  0  0  0  0
   48.0980   31.5910   33.6370 C   0  0  0  0  0  3  0  0  0  0  0  0
   47.8790   32.1170   34.8950 C   0  0  0  0  0  0  0  0  0  0  0  0
   48.6280   32.9700   35.6730 C   0  0  0  0  0  3  0  0  0  0  0  0
  1  7  1  0  0  0  0
  1  6  1  0  0  0  0
  2  1  2  0  0  0  0
  3  2  1  0  0  0  0
  3  4  2  0  0  0  0
  4  5  1  0  0  0  0
  5  6  2  0  0  0  0
  5  9  1  0  0  0  0
  8  2  1  0  0  0  0
  9 15  1  1  0  0  0
  9 14  1  0  0  0  0
 10 11  1  0  0  0  0
 10 16  1  0  0  0  0
 10  9  1  0  0  0  0
 11 12  1  0  0  0  0
 12 21  1  0  0  0  0
 12 13  1  0  0  0  0
 13 22  1  0  0  0  0
 14 13  2  0  0  0  0
 14 23  1  0  0  0  0
 17 10  1  0  0  0  0
 18 11  1  0  0  0  0
 19 11  1  0  0  0  0
 20 12  1  0  0  0  0
 23 24  1  0  0  0  0
 25 23  1  0  0  0  0
 26  3  1  0  0  0  0
 27 26  1  0  0  0  0
 27 32  1  0  0  0  0
 28 27  2  0  0  0  0
 29 30  2  0  0  0  0
 29 28  1  0  0  0  0
 30 31  1  0  0  0  0
 31 26  2  0  0  0  0
 33 28  1  0  0  0  0
 34 29  1  0  0  0  0
 35 30  1  0  0  0  0
 36 37  1  0  0  0  0
 37 35  1  0  0  0  0
 38 39  1  0  0  0  0
 38 37  2  0  0  0  0
 40 38  1  0  0  0  0
 41 42  1  0  0  0  0
 41 40  1  0  0  0  0
 43 45  2  0  0  0  0
 43 41  1  0  0  0  0
 44 43  1  0  0  0  0
 45 46  1  0  0  0  0
 46 40  2  0  0  0  0
 46 47  1  0  0  0  0
 47 36  2  0  0  0  0
M  END
>  <minimizedAffinity>
-7.86362219

>  <minimizedRMSD>
0.192069292

$$$$
