
 OpenBabel03242522423D

 50 54  0  0  0  0  0  0  0  0999 V2000
   46.7640   32.6740   44.4090 C   0  0  0  0  0  0  0  0  0  0  0  0
   46.5250   32.1520   43.4260 H   0  0  0  0  0  0  0  0  0  0  0  0
   47.8090   32.8040   44.6240 H   0  0  0  0  0  0  0  0  0  0  0  0
   46.3450   34.6450   43.0350 C   0  0  0  0  0  0  0  0  0  0  0  0
   46.0800   33.9600   44.2190 C   0  0  0  0  0  0  0  0  0  0  0  0
   45.2320   34.3680   45.1760 C   0  0  0  0  0  0  0  0  0  0  0  0
   44.5570   35.5550   44.9920 C   0  0  0  0  0  0  0  0  0  0  0  0
   44.7350   36.3070   43.8730 C   0  0  0  0  0  0  0  0  0  0  0  0
   45.6230   35.8380   42.9190 C   0  0  0  0  0  0  0  0  0  0  0  0
   44.9450   33.9380   46.0920 H   0  0  0  0  0  0  0  0  0  0  0  0
   43.8410   36.0060   45.6830 H   0  0  0  0  0  0  0  0  0  0  0  0
   44.2380   37.2570   43.6500 H   0  0  0  0  0  0  0  0  0  0  0  0
   45.7820   36.4220   42.0130 H   0  0  0  0  0  0  0  0  0  0  0  0
   47.3910   34.1570   41.7720 S   0  0  0  0  0  0  0  0  0  0  0  0
   48.5980   35.1630   41.7160 O   0  0  0  0  0  0  0  0  0  0  0  0
   46.7410   34.3730   40.4450 O   0  0  0  0  0  0  0  0  0  0  0  0
   47.8910   31.4050   41.6670 C   0  0  0  0  0  3  0  0  0  0  0  0
   48.3260   32.7230   41.9300 C   0  0  0  0  0  0  0  0  0  0  0  0
   49.6740   32.6640   42.3330 C   0  0  0  0  0  0  0  0  0  0  0  0
   50.1270   33.6430   42.5670 H   0  0  0  0  0  0  0  0  0  0  0  0
   50.4470   31.5350   42.4560 C   0  0  0  0  0  0  0  0  0  0  0  0
   51.7320   31.4220   42.8340 N   0  0  0  0  0  0  0  0  0  0  0  0
   52.4230   32.1560   43.1170 H   0  0  0  0  0  0  0  0  0  0  0  0
   52.0180   30.1090   42.7910 C   0  0  0  0  0  0  0  0  0  0  0  0
   52.9460   29.6020   43.0220 H   0  0  0  0  0  0  0  0  0  0  0  0
   50.8860   29.4070   42.3780 C   0  0  0  0  0  3  0  0  0  0  0  0
   49.8890   30.3350   42.1670 C   0  0  0  0  0  0  0  0  0  0  0  0
   48.5880   30.2420   41.7630 C   0  0  0  0  0  3  0  0  0  0  0  0
   46.1190   31.7260   45.3680 C   0  0  0  0  0  0  0  0  0  0  0  0
   45.0720   32.0030   45.6670 H   0  0  0  0  0  0  0  0  0  0  0  0
   45.9320   30.6920   44.9460 H   0  0  0  0  0  0  0  0  0  0  0  0
   47.1710   32.4970   47.4720 C   0  0  0  0  0  0  0  0  0  0  0  0
   47.0340   31.4980   46.4820 C   0  0  0  0  0  0  0  0  0  0  0  0
   47.7510   30.3290   46.6400 C   0  0  0  0  0  0  0  0  0  0  0  0
   48.5410   30.1990   47.7300 N   0  0  0  0  0  0  0  0  0  0  0  0
   48.6470   31.1560   48.6500 C   0  0  0  0  0  0  0  0  0  0  0  0
   47.9670   32.3200   48.5390 N   0  0  0  0  0  0  0  0  0  0  0  0
   46.7090   33.4650   47.5280 H   0  0  0  0  0  0  0  0  0  0  0  0
   47.6430   29.5700   45.8760 H   0  0  0  0  0  0  0  0  0  0  0  0
   49.5390   30.9200   49.8340 C   0  0  0  0  0  0  0  0  0  0  0  0
   49.0030   31.2190   50.7780 H   0  0  0  0  0  0  0  0  0  0  0  0
   49.7090   29.8310   49.9540 H   0  0  0  0  0  0  0  0  0  0  0  0
   50.8220   31.5970   49.7370 C   0  0  0  0  0  0  0  0  0  0  0  0
   51.9830   31.0560   49.2190 C   0  0  0  0  0  0  0  0  0  0  0  0
   52.9820   31.9880   49.2950 C   0  0  0  0  0  0  0  0  0  0  0  0
   52.3890   33.0810   49.8650 N   0  0  0  0  0  0  0  0  0  0  0  0
   51.1060   32.8540   50.1300 N   0  0  0  0  0  0  0  0  0  0  0  0
   52.1720   30.0680   48.7970 H   0  0  0  0  0  0  0  0  0  0  0  0
   54.0280   32.0230   49.0230 H   0  0  0  0  0  0  0  0  0  0  0  0
   52.7730   34.0330   50.1170 H   0  0  0  0  0  0  0  0  0  0  0  0
  1  3  1  0  0  0  0
  1 29  1  0  0  0  0
  2  1  1  0  0  0  0
  4  5  1  0  0  0  0
  5  1  1  0  0  0  0
  5  6  2  0  0  0  0
  6 10  1  0  0  0  0
  7  6  1  0  0  0  0
  7 11  1  0  0  0  0
  8  7  2  0  0  0  0
  9  4  2  0  0  0  0
  9  8  1  0  0  0  0
 12  8  1  0  0  0  0
 13  9  1  0  0  0  0
 14 18  1  0  0  0  0
 14  4  1  0  0  0  0
 15 14  2  0  0  0  0
 16 14  2  0  0  0  0
 17 28  2  0  0  0  0
 17 18  1  0  0  0  0
 18 19  2  0  0  0  0
 19 21  1  0  0  0  0
 19 20  1  0  0  0  0
 21 22  1  0  0  0  0
 22 23  1  0  0  0  0
 24 22  1  0  0  0  0
 24 25  1  0  0  0  0
 26 24  2  0  0  0  0
 27 26  1  0  0  0  0
 27 21  2  0  0  0  0
 28 27  1  0  0  0  0
 29 30  1  0  0  0  0
 29 33  1  0  0  0  0
 31 29  1  0  0  0  0
 32 38  1  0  0  0  0
 32 37  1  0  0  0  0
 33 34  1  0  0  0  0
 33 32  2  0  0  0  0
 34 35  2  0  0  0  0
 35 36  1  0  0  0  0
 36 40  1  0  0  0  0
 37 36  2  0  0  0  0
 39 34  1  0  0  0  0
 40 42  1  0  0  0  0
 40 41  1  0  0  0  0
 43 40  1  0  0  0  0
 43 47  2  0  0  0  0
 44 45  2  0  0  0  0
 44 43  1  0  0  0  0
 45 46  1  0  0  0  0
 46 50  1  0  0  0  0
 46 47  1  0  0  0  0
 48 44  1  0  0  0  0
 49 45  1  0  0  0  0
M  END
>  <minimizedAffinity>
-6.47247314

>  <minimizedRMSD>
0.628805399

$$$$
