
 OpenBabel03252505113D

 47 51  0  0  1  0  0  0  0  0999 V2000
   44.5600   35.5880   44.6190 C   0  0  0  0  0  0  0  0  0  0  0  0
   45.2290   35.6160   43.3720 C   0  0  0  0  0  0  0  0  0  0  0  0
   46.3300   34.7140   43.1870 C   0  0  0  0  0  0  0  0  0  0  0  0
   46.6720   33.8850   44.2190 N   0  0  0  0  0  0  0  0  0  0  0  0
   46.0090   33.8960   45.3800 C   0  0  0  0  0  0  0  0  0  0  0  0
   44.9480   34.7460   45.5920 N   0  0  0  0  0  0  0  0  0  0  0  0
   43.7360   36.2830   44.7170 H   0  0  0  0  0  0  0  0  0  0  0  0
   44.9500   36.2770   42.5600 H   0  0  0  0  0  0  0  0  0  0  0  0
   46.4240   32.9740   46.4730 C   0  0  2  0  0  0  0  0  0  0  0  0
   46.9490   31.7430   45.7660 C   0  0  0  0  0  0  0  0  0  0  0  0
   46.0700   30.5640   45.7740 C   0  0  0  0  0  0  0  0  0  0  0  0
   45.7900   30.2900   47.2480 C   0  0  0  0  0  0  0  0  0  0  0  0
   44.9980   31.3650   47.8670 C   0  0  0  0  0  0  0  0  0  0  0  0
   45.3760   32.7330   47.4220 C   0  0  0  0  0  0  0  0  0  0  0  0
   47.2760   33.4980   46.9760 H   0  0  0  0  0  0  0  0  0  0  0  0
   47.8900   31.4500   46.2820 H   0  0  0  0  0  0  0  0  0  0  0  0
   47.2720   31.9580   44.7190 H   0  0  0  0  0  0  0  0  0  0  0  0
   45.1180   30.7920   45.2820 H   0  0  0  0  0  0  0  0  0  0  0  0
   46.6130   29.7170   45.3610 H   0  0  0  0  0  0  0  0  0  0  0  0
   45.0890   29.4130   47.2190 H   0  0  0  0  0  0  0  0  0  0  0  0
   46.6740   29.9850   47.8070 H   0  0  0  0  0  0  0  0  0  0  0  0
   44.2060   31.4140   48.5660 H   0  0  0  0  0  0  0  0  0  0  0  0
   44.6880   33.8650   47.9410 N   0  0  0  0  0  0  0  0  0  0  0  0
   45.1560   34.4910   48.6500 H   0  0  0  0  0  0  0  0  0  0  0  0
   43.7270   34.2360   47.7430 H   0  0  0  0  0  0  0  0  0  0  0  0
   47.0330   34.7140   41.9290 C   0  0  0  0  0  0  0  0  0  0  0  0
   48.1800   35.4140   41.8170 C   0  0  0  0  0  0  0  0  0  0  0  0
   48.8200   35.3770   40.5650 C   0  0  0  0  0  0  0  0  0  0  0  0
   48.2070   34.6240   39.5730 C   0  0  0  0  0  0  0  0  0  0  0  0
   47.0430   33.9130   39.6900 C   0  0  0  0  0  0  0  0  0  0  0  0
   46.4880   34.0010   40.9320 N   0  0  0  0  0  0  0  0  0  0  0  0
   48.6150   35.9840   42.6180 H   0  0  0  0  0  0  0  0  0  0  0  0
   49.7460   35.9080   40.3780 H   0  0  0  0  0  0  0  0  0  0  0  0
   48.7290   34.6160   38.6170 H   0  0  0  0  0  0  0  0  0  0  0  0
   46.5020   33.1930   38.6560 O   0  0  0  0  0  0  0  0  0  0  0  0
   47.9880   33.5190   36.7060 C   0  0  0  0  0  3  0  0  0  0  0  0
   47.1560   32.8000   37.5260 C   0  0  0  0  0  0  0  0  0  0  0  0
   46.9220   31.4680   37.1830 C   0  0  0  0  0  0  0  0  0  0  0  0
   46.2860   30.7700   37.7340 H   0  0  0  0  0  0  0  0  0  0  0  0
   47.5000   30.8870   36.0660 C   0  0  0  0  0  0  0  0  0  0  0  0
   47.4620   29.6600   35.4970 N   0  0  0  0  0  0  0  0  0  0  0  0
   46.9120   28.8480   35.8680 H   0  0  0  0  0  0  0  0  0  0  0  0
   48.2190   29.6290   34.4060 C   0  0  0  0  0  0  0  0  0  0  0  0
   48.3800   28.7740   33.7430 H   0  0  0  0  0  0  0  0  0  0  0  0
   48.7910   30.8590   34.2140 C   0  0  0  0  0  3  0  0  0  0  0  0
   48.3380   31.6420   35.2570 C   0  0  0  0  0  0  0  0  0  0  0  0
   48.5760   32.9570   35.5840 C   0  0  0  0  0  3  0  0  0  0  0  0
  1  7  1  0  0  0  0
  1  6  1  0  0  0  0
  2  1  2  0  0  0  0
  3  2  1  0  0  0  0
  3  4  2  0  0  0  0
  4  5  1  0  0  0  0
  5  6  2  0  0  0  0
  5  9  1  0  0  0  0
  8  2  1  0  0  0  0
  9 15  1  1  0  0  0
  9 14  1  0  0  0  0
 10 11  1  0  0  0  0
 10 16  1  0  0  0  0
 10  9  1  0  0  0  0
 11 12  1  0  0  0  0
 12 21  1  0  0  0  0
 12 13  1  0  0  0  0
 13 22  1  0  0  0  0
 14 13  2  0  0  0  0
 14 23  1  0  0  0  0
 17 10  1  0  0  0  0
 18 11  1  0  0  0  0
 19 11  1  0  0  0  0
 20 12  1  0  0  0  0
 23 24  1  0  0  0  0
 25 23  1  0  0  0  0
 26  3  1  0  0  0  0
 27 26  1  0  0  0  0
 27 32  1  0  0  0  0
 28 27  2  0  0  0  0
 29 30  2  0  0  0  0
 29 28  1  0  0  0  0
 30 31  1  0  0  0  0
 31 26  2  0  0  0  0
 33 28  1  0  0  0  0
 34 29  1  0  0  0  0
 35 30  1  0  0  0  0
 36 37  1  0  0  0  0
 37 35  1  0  0  0  0
 38 37  2  0  0  0  0
 38 39  1  0  0  0  0
 40 38  1  0  0  0  0
 41 42  1  0  0  0  0
 41 40  1  0  0  0  0
 43 41  1  0  0  0  0
 44 43  1  0  0  0  0
 45 43  2  0  0  0  0
 45 46  1  0  0  0  0
 46 47  1  0  0  0  0
 46 40  2  0  0  0  0
 47 36  2  0  0  0  0
M  END
>  <minimizedAffinity>
-7.56839848

>  <minimizedRMSD>
0.44530946

$$$$
