
 OpenBabel03242513283D

 33 36  0  0  0  0  0  0  0  0999 V2000
   37.8590   26.3930   41.9770 C   0  0  0  0  0  0  0  0  0  0  0  0
   38.3400   25.1120   41.7850 C   0  0  0  0  0  0  0  0  0  0  0  0
   39.3930   24.7260   42.5600 C   0  0  0  0  0  0  0  0  0  0  0  0
   39.9580   25.5680   43.4960 C   0  0  0  0  0  0  0  0  0  0  0  0
   39.4730   26.8360   43.6800 C   0  0  0  0  0  0  0  0  0  0  0  0
   38.4010   27.2750   42.9130 C   0  0  0  0  0  0  0  0  0  0  0  0
   39.7820   23.7220   42.4190 H   0  0  0  0  0  0  0  0  0  0  0  0
   40.7980   25.2760   44.1220 H   0  0  0  0  0  0  0  0  0  0  0  0
   39.8370   27.5790   44.3800 H   0  0  0  0  0  0  0  0  0  0  0  0
   37.7750   22.9170   38.7810 C   0  0  0  0  0  0  0  0  0  0  0  0
   38.4180   23.7170   39.7370 C   0  0  0  0  0  0  0  0  0  0  0  0
   37.7020   24.2880   40.7930 C   0  0  0  0  0  0  0  0  0  0  0  0
   36.3850   24.0100   40.8090 N   0  0  0  0  0  0  0  0  0  0  0  0
   35.7670   23.2410   39.8910 C   0  0  0  0  0  0  0  0  0  0  0  0
   36.4500   22.6930   38.8790 N   0  0  0  0  0  0  0  0  0  0  0  0
   38.3190   22.4780   37.9700 H   0  0  0  0  0  0  0  0  0  0  0  0
   39.4840   23.9000   39.6620 H   0  0  0  0  0  0  0  0  0  0  0  0
   34.7010   23.1430   40.0880 H   0  0  0  0  0  0  0  0  0  0  0  0
   36.7760   26.8400   41.2060 O   0  0  0  0  0  0  0  0  0  0  0  0
   36.8810   26.7110   40.1980 H   0  0  0  0  0  0  0  0  0  0  0  0
   37.8550   28.5340   43.0360 O   0  0  0  0  0  0  0  0  0  0  0  0
   39.5400   30.3050   42.5000 C   0  0  0  0  0  3  0  0  0  0  0  0
   38.3210   29.6910   42.4630 C   0  0  0  0  0  0  0  0  0  0  0  0
   37.3080   30.3050   41.7210 C   0  0  0  0  0  0  0  0  0  0  0  0
   36.2900   29.9590   41.5850 H   0  0  0  0  0  0  0  0  0  0  0  0
   37.5310   31.5030   41.0380 C   0  0  0  0  0  0  0  0  0  0  0  0
   36.8030   32.3260   40.2610 N   0  0  0  0  0  0  0  0  0  0  0  0
   35.7940   32.1570   40.0160 H   0  0  0  0  0  0  0  0  0  0  0  0
   37.5430   33.3720   39.8550 C   0  0  0  0  0  0  0  0  0  0  0  0
   37.1720   34.1770   39.2150 H   0  0  0  0  0  0  0  0  0  0  0  0
   38.8180   33.2720   40.3640 C   0  0  0  0  0  3  0  0  0  0  0  0
   38.7910   32.1040   41.0950 C   0  0  0  0  0  0  0  0  0  0  0  0
   39.7760   31.4820   41.8340 C   0  0  0  0  0  3  0  0  0  0  0  0
  1  6  1  0  0  0  0
  2  1  2  0  0  0  0
  2  3  1  0  0  0  0
  3  4  2  0  0  0  0
  4  5  1  0  0  0  0
  4  8  1  0  0  0  0
  5  9  1  0  0  0  0
  6 21  1  0  0  0  0
  6  5  2  0  0  0  0
  7  3  1  0  0  0  0
 10 15  2  0  0  0  0
 10 11  1  0  0  0  0
 11 12  2  0  0  0  0
 12 13  1  0  0  0  0
 12  2  1  0  0  0  0
 14 18  1  0  0  0  0
 14 13  2  0  0  0  0
 15 14  1  0  0  0  0
 16 10  1  0  0  0  0
 17 11  1  0  0  0  0
 19  1  1  0  0  0  0
 20 19  1  0  0  0  0
 23 22  1  0  0  0  0
 23 21  1  0  0  0  0
 24 23  2  0  0  0  0
 25 24  1  0  0  0  0
 26 32  2  0  0  0  0
 26 24  1  0  0  0  0
 27 26  1  0  0  0  0
 28 27  1  0  0  0  0
 29 27  1  0  0  0  0
 29 31  2  0  0  0  0
 30 29  1  0  0  0  0
 31 32  1  0  0  0  0
 32 33  1  0  0  0  0
 33 22  2  0  0  0  0
M  END
>  <minimizedAffinity>
-6.01856041

$$$$

 OpenBabel03242513283D

 33 36  0  0  0  0  0  0  0  0999 V2000
   39.3990   31.5070   40.6830 C   0  0  0  0  0  0  0  0  0  0  0  0
   39.3260   32.3630   39.6000 C   0  0  0  0  0  0  0  0  0  0  0  0
   38.0830   32.6310   39.1090 C   0  0  0  0  0  0  0  0  0  0  0  0
   36.9440   32.0800   39.6600 C   0  0  0  0  0  0  0  0  0  0  0  0
   37.0270   31.2330   40.7340 C   0  0  0  0  0  0  0  0  0  0  0  0
   38.2720   30.9290   41.2700 C   0  0  0  0  0  0  0  0  0  0  0  0
   38.0110   33.3020   38.2570 H   0  0  0  0  0  0  0  0  0  0  0  0
   35.9460   32.2830   39.2800 H   0  0  0  0  0  0  0  0  0  0  0  0
   36.2050   30.7440   41.2440 H   0  0  0  0  0  0  0  0  0  0  0  0
   42.1480   33.2240   37.2640 C   0  0  0  0  0  0  0  0  0  0  0  0
   40.9470   32.6880   37.7530 C   0  0  0  0  0  0  0  0  0  0  0  0
   40.5530   32.9030   39.0760 C   0  0  0  0  0  0  0  0  0  0  0  0
   41.3990   33.6450   39.8140 N   0  0  0  0  0  0  0  0  0  0  0  0
   42.5530   34.1600   39.3440 C   0  0  0  0  0  0  0  0  0  0  0  0
   42.9330   33.9560   38.0780 N   0  0  0  0  0  0  0  0  0  0  0  0
   42.4550   33.0620   36.2520 H   0  0  0  0  0  0  0  0  0  0  0  0
   40.3120   32.0990   37.1020 H   0  0  0  0  0  0  0  0  0  0  0  0
   43.0880   34.7280   40.1030 H   0  0  0  0  0  0  0  0  0  0  0  0
   40.6530   31.1980   41.2270 O   0  0  0  0  0  0  0  0  0  0  0  0
   41.3520   30.8820   40.5520 H   0  0  0  0  0  0  0  0  0  0  0  0
   38.4410   30.0870   42.3480 O   0  0  0  0  0  0  0  0  0  0  0  0
   37.0270   28.2790   43.3430 C   0  0  0  0  0  3  0  0  0  0  0  0
   37.9420   28.8170   42.4840 C   0  0  0  0  0  0  0  0  0  0  0  0
   38.5220   27.9660   41.5380 C   0  0  0  0  0  0  0  0  0  0  0  0
   39.2590   28.2220   40.7860 H   0  0  0  0  0  0  0  0  0  0  0  0
   38.1780   26.6130   41.4700 C   0  0  0  0  0  0  0  0  0  0  0  0
   38.5330   25.5610   40.7100 N   0  0  0  0  0  0  0  0  0  0  0  0
   39.2350   25.6140   39.9280 H   0  0  0  0  0  0  0  0  0  0  0  0
   37.8690   24.4560   41.0910 C   0  0  0  0  0  0  0  0  0  0  0  0
   37.9870   23.4750   40.6240 H   0  0  0  0  0  0  0  0  0  0  0  0
   37.0310   24.7500   42.1430 C   0  0  0  0  0  3  0  0  0  0  0  0
   37.2380   26.0950   42.3630 C   0  0  0  0  0  0  0  0  0  0  0  0
   36.6790   26.9510   43.2890 C   0  0  0  0  0  3  0  0  0  0  0  0
  1 19  1  0  0  0  0
  1  6  1  0  0  0  0
  2  1  2  0  0  0  0
  3  2  1  0  0  0  0
  3  4  2  0  0  0  0
  4  5  1  0  0  0  0
  5  9  1  0  0  0  0
  5  6  2  0  0  0  0
  6 21  1  0  0  0  0
  7  3  1  0  0  0  0
  8  4  1  0  0  0  0
 10 11  2  0  0  0  0
 10 15  1  0  0  0  0
 11 12  1  0  0  0  0
 12  2  1  0  0  0  0
 12 13  2  0  0  0  0
 14 13  1  0  0  0  0
 14 18  1  0  0  0  0
 15 14  2  0  0  0  0
 16 10  1  0  0  0  0
 17 11  1  0  0  0  0
 20 19  1  0  0  0  0
 21 23  1  0  0  0  0
 23 22  2  0  0  0  0
 24 23  1  0  0  0  0
 25 24  1  0  0  0  0
 26 24  2  0  0  0  0
 26 32  1  0  0  0  0
 27 29  1  0  0  0  0
 27 26  1  0  0  0  0
 28 27  1  0  0  0  0
 29 31  2  0  0  0  0
 30 29  1  0  0  0  0
 31 32  1  0  0  0  0
 32 33  2  0  0  0  0
 33 22  1  0  0  0  0
M  END
>  <minimizedAffinity>
-5.98766851

$$$$

 OpenBabel03242513283D

 33 36  0  0  0  0  0  0  0  0999 V2000
   36.9960   27.8210   41.1660 C   0  0  0  0  0  0  0  0  0  0  0  0
   37.4600   26.5720   41.5300 C   0  0  0  0  0  0  0  0  0  0  0  0
   37.9940   26.4520   42.7780 C   0  0  0  0  0  0  0  0  0  0  0  0
   38.0700   27.5220   43.6470 C   0  0  0  0  0  0  0  0  0  0  0  0
   37.6060   28.7570   43.2760 C   0  0  0  0  0  0  0  0  0  0  0  0
   37.0540   28.9290   42.0140 C   0  0  0  0  0  0  0  0  0  0  0  0
   38.3630   25.4750   43.0780 H   0  0  0  0  0  0  0  0  0  0  0  0
   38.4930   27.4440   44.6450 H   0  0  0  0  0  0  0  0  0  0  0  0
   37.6160   29.6630   43.8710 H   0  0  0  0  0  0  0  0  0  0  0  0
   36.5340   23.3040   39.9110 C   0  0  0  0  0  0  0  0  0  0  0  0
   36.6300   24.3350   40.8560 C   0  0  0  0  0  0  0  0  0  0  0  0
   37.3480   25.5000   40.5760 C   0  0  0  0  0  0  0  0  0  0  0  0
   37.9210   25.5420   39.3590 N   0  0  0  0  0  0  0  0  0  0  0  0
   37.8300   24.5500   38.4500 C   0  0  0  0  0  0  0  0  0  0  0  0
   37.1420   23.4340   38.7160 N   0  0  0  0  0  0  0  0  0  0  0  0
   35.9850   22.4090   40.1210 H   0  0  0  0  0  0  0  0  0  0  0  0
   36.1420   24.2340   41.8190 H   0  0  0  0  0  0  0  0  0  0  0  0
   38.3650   24.7840   37.5320 H   0  0  0  0  0  0  0  0  0  0  0  0
   36.4370   27.9990   39.8930 O   0  0  0  0  0  0  0  0  0  0  0  0
   37.0100   27.6580   39.1170 H   0  0  0  0  0  0  0  0  0  0  0  0
   36.5650   30.1360   41.5650 O   0  0  0  0  0  0  0  0  0  0  0  0
   36.9560   31.9170   39.8500 C   0  0  0  0  0  3  0  0  0  0  0  0
   37.2700   31.1150   40.9110 C   0  0  0  0  0  0  0  0  0  0  0  0
   38.5340   31.2680   41.4860 C   0  0  0  0  0  0  0  0  0  0  0  0
   38.9460   30.7200   42.3260 H   0  0  0  0  0  0  0  0  0  0  0  0
   39.4470   32.2060   40.9980 C   0  0  0  0  0  0  0  0  0  0  0  0
   40.6970   32.5940   41.3090 N   0  0  0  0  0  0  0  0  0  0  0  0
   41.2600   32.1780   42.0950 H   0  0  0  0  0  0  0  0  0  0  0  0
   41.1100   33.5710   40.4840 C   0  0  0  0  0  0  0  0  0  0  0  0
   42.0910   34.0500   40.5370 H   0  0  0  0  0  0  0  0  0  0  0  0
   40.1180   33.8690   39.5760 C   0  0  0  0  0  3  0  0  0  0  0  0
   39.0940   33.0100   39.9120 C   0  0  0  0  0  0  0  0  0  0  0  0
   37.8420   32.8440   39.3590 C   0  0  0  0  0  3  0  0  0  0  0  0
  1  2  2  0  0  0  0
  1  6  1  0  0  0  0
  2  3  1  0  0  0  0
  3  7  1  0  0  0  0
  3  4  2  0  0  0  0
  4  8  1  0  0  0  0
  5  4  1  0  0  0  0
  5  9  1  0  0  0  0
  6  5  2  0  0  0  0
 10 16  1  0  0  0  0
 10 11  1  0  0  0  0
 11 17  1  0  0  0  0
 12 11  2  0  0  0  0
 12  2  1  0  0  0  0
 13 12  1  0  0  0  0
 14 15  1  0  0  0  0
 14 13  2  0  0  0  0
 15 10  2  0  0  0  0
 18 14  1  0  0  0  0
 19  1  1  0  0  0  0
 20 19  1  0  0  0  0
 21  6  1  0  0  0  0
 22 23  1  0  0  0  0
 23 24  2  0  0  0  0
 23 21  1  0  0  0  0
 24 25  1  0  0  0  0
 26 27  1  0  0  0  0
 26 24  1  0  0  0  0
 27 28  1  0  0  0  0
 29 30  1  0  0  0  0
 29 27  1  0  0  0  0
 31 32  1  0  0  0  0
 31 29  2  0  0  0  0
 32 26  2  0  0  0  0
 33 22  2  0  0  0  0
 33 32  1  0  0  0  0
M  END
>  <minimizedAffinity>
-5.95385599

$$$$

 OpenBabel03242513283D

 33 36  0  0  0  0  0  0  0  0999 V2000
   37.4780   30.7580   39.5870 C   0  0  0  0  0  0  0  0  0  0  0  0
   38.0940   31.3990   38.5290 C   0  0  0  0  0  0  0  0  0  0  0  0
   37.6310   31.1100   37.2800 C   0  0  0  0  0  0  0  0  0  0  0  0
   36.5950   30.2220   37.0710 C   0  0  0  0  0  0  0  0  0  0  0  0
   35.9910   29.5920   38.1280 C   0  0  0  0  0  0  0  0  0  0  0  0
   36.4280   29.8530   39.4200 C   0  0  0  0  0  0  0  0  0  0  0  0
   38.1050   31.6070   36.4380 H   0  0  0  0  0  0  0  0  0  0  0  0
   36.2140   29.9800   36.0830 H   0  0  0  0  0  0  0  0  0  0  0  0
   35.1760   28.8790   38.0830 H   0  0  0  0  0  0  0  0  0  0  0  0
   41.4250   33.1460   38.4560 C   0  0  0  0  0  0  0  0  0  0  0  0
   40.3940   32.2430   38.1570 C   0  0  0  0  0  0  0  0  0  0  0  0
   39.1660   32.3140   38.8180 C   0  0  0  0  0  0  0  0  0  0  0  0
   39.0640   33.2930   39.7370 N   0  0  0  0  0  0  0  0  0  0  0  0
   40.0550   34.1610   40.0240 C   0  0  0  0  0  0  0  0  0  0  0  0
   41.2320   34.0960   39.3930 N   0  0  0  0  0  0  0  0  0  0  0  0
   42.3690   33.0960   37.9530 H   0  0  0  0  0  0  0  0  0  0  0  0
   40.5460   31.4780   37.4040 H   0  0  0  0  0  0  0  0  0  0  0  0
   39.7660   34.8720   40.7960 H   0  0  0  0  0  0  0  0  0  0  0  0
   37.9160   31.0200   40.8930 O   0  0  0  0  0  0  0  0  0  0  0  0
   38.9240   30.9300   41.0380 H   0  0  0  0  0  0  0  0  0  0  0  0
   35.8750   29.2620   40.5350 O   0  0  0  0  0  0  0  0  0  0  0  0
   36.5720   27.8640   42.4900 C   0  0  0  0  0  3  0  0  0  0  0  0
   36.3240   28.1350   41.1740 C   0  0  0  0  0  0  0  0  0  0  0  0
   36.5500   27.1120   40.2490 C   0  0  0  0  0  0  0  0  0  0  0  0
   36.4070   27.1520   39.1750 H   0  0  0  0  0  0  0  0  0  0  0  0
   37.0120   25.8560   40.6510 C   0  0  0  0  0  0  0  0  0  0  0  0
   37.3220   24.6970   40.0420 N   0  0  0  0  0  0  0  0  0  0  0  0
   37.2460   24.5440   39.0040 H   0  0  0  0  0  0  0  0  0  0  0  0
   37.7310   23.7840   40.9400 C   0  0  0  0  0  0  0  0  0  0  0  0
   38.0360   22.7660   40.6870 H   0  0  0  0  0  0  0  0  0  0  0  0
   37.7050   24.3250   42.2060 C   0  0  0  0  0  3  0  0  0  0  0  0
   37.2560   25.6130   42.0050 C   0  0  0  0  0  0  0  0  0  0  0  0
   37.0260   26.6350   42.9010 C   0  0  0  0  0  3  0  0  0  0  0  0
  1 19  1  0  0  0  0
  2 12  1  0  0  0  0
  2  1  2  0  0  0  0
  3  2  1  0  0  0  0
  4  3  2  0  0  0  0
  4  5  1  0  0  0  0
  5  6  2  0  0  0  0
  6  1  1  0  0  0  0
  6 21  1  0  0  0  0
  7  3  1  0  0  0  0
  8  4  1  0  0  0  0
  9  5  1  0  0  0  0
 10 15  1  0  0  0  0
 11 10  2  0  0  0  0
 11 12  1  0  0  0  0
 12 13  2  0  0  0  0
 13 14  1  0  0  0  0
 14 18  1  0  0  0  0
 15 14  2  0  0  0  0
 16 10  1  0  0  0  0
 17 11  1  0  0  0  0
 19 20  1  0  0  0  0
 21 23  1  0  0  0  0
 22 33  1  0  0  0  0
 23 22  2  0  0  0  0
 24 26  2  0  0  0  0
 24 23  1  0  0  0  0
 25 24  1  0  0  0  0
 26 32  1  0  0  0  0
 27 26  1  0  0  0  0
 27 29  1  0  0  0  0
 28 27  1  0  0  0  0
 29 31  2  0  0  0  0
 30 29  1  0  0  0  0
 32 31  1  0  0  0  0
 32 33  2  0  0  0  0
M  END
>  <minimizedAffinity>
-5.92484093

$$$$

 OpenBabel03242513283D

 33 36  0  0  0  0  0  0  0  0999 V2000
   37.3980   27.7980   40.8030 C   0  0  0  0  0  0  0  0  0  0  0  0
   37.2680   26.6750   41.5980 C   0  0  0  0  0  0  0  0  0  0  0  0
   37.2100   26.8770   42.9440 C   0  0  0  0  0  0  0  0  0  0  0  0
   37.2760   28.1390   43.4980 C   0  0  0  0  0  0  0  0  0  0  0  0
   37.4040   29.2460   42.7010 C   0  0  0  0  0  0  0  0  0  0  0  0
   37.4680   29.0920   41.3220 C   0  0  0  0  0  0  0  0  0  0  0  0
   37.1080   26.0030   43.5820 H   0  0  0  0  0  0  0  0  0  0  0  0
   37.2310   28.3180   44.5690 H   0  0  0  0  0  0  0  0  0  0  0  0
   37.4670   30.2790   43.0230 H   0  0  0  0  0  0  0  0  0  0  0  0
   37.9480   23.0850   40.6980 C   0  0  0  0  0  0  0  0  0  0  0  0
   38.0280   24.3300   41.3400 C   0  0  0  0  0  0  0  0  0  0  0  0
   37.2040   25.3890   40.9550 C   0  0  0  0  0  0  0  0  0  0  0  0
   36.3550   25.1180   39.9460 N   0  0  0  0  0  0  0  0  0  0  0  0
   36.2770   23.9220   39.3290 C   0  0  0  0  0  0  0  0  0  0  0  0
   37.0660   22.9050   39.6960 N   0  0  0  0  0  0  0  0  0  0  0  0
   38.5780   22.2700   40.9900 H   0  0  0  0  0  0  0  0  0  0  0  0
   38.7370   24.4780   42.1470 H   0  0  0  0  0  0  0  0  0  0  0  0
   35.5270   23.9140   38.5410 H   0  0  0  0  0  0  0  0  0  0  0  0
   37.4630   27.6460   39.4100 O   0  0  0  0  0  0  0  0  0  0  0  0
   38.1520   26.9670   39.0810 H   0  0  0  0  0  0  0  0  0  0  0  0
   37.5970   30.1520   40.4510 O   0  0  0  0  0  0  0  0  0  0  0  0
   39.7140   31.3540   41.0310 C   0  0  0  0  0  3  0  0  0  0  0  0
   38.7340   30.8790   40.2060 C   0  0  0  0  0  0  0  0  0  0  0  0
   38.8490   31.1520   38.8400 C   0  0  0  0  0  0  0  0  0  0  0  0
   38.1690   30.8550   38.0500 H   0  0  0  0  0  0  0  0  0  0  0  0
   39.9260   31.8820   38.3320 C   0  0  0  0  0  0  0  0  0  0  0  0
   40.3240   32.3040   37.1180 N   0  0  0  0  0  0  0  0  0  0  0  0
   39.7940   32.1120   36.2300 H   0  0  0  0  0  0  0  0  0  0  0  0
   41.4750   32.9920   37.2090 C   0  0  0  0  0  0  0  0  0  0  0  0
   41.9970   33.4350   36.3570 H   0  0  0  0  0  0  0  0  0  0  0  0
   41.8870   33.0480   38.5220 C   0  0  0  0  0  3  0  0  0  0  0  0
   40.9110   32.3530   39.2030 C   0  0  0  0  0  0  0  0  0  0  0  0
   40.7790   32.0740   40.5470 C   0  0  0  0  0  3  0  0  0  0  0  0
  1  6  2  0  0  0  0
  1  2  1  0  0  0  0
  2  3  2  0  0  0  0
  3  4  1  0  0  0  0
  3  7  1  0  0  0  0
  4  8  1  0  0  0  0
  5  9  1  0  0  0  0
  5  4  2  0  0  0  0
  6  5  1  0  0  0  0
 10 16  1  0  0  0  0
 10 11  1  0  0  0  0
 11 17  1  0  0  0  0
 12 11  2  0  0  0  0
 12  2  1  0  0  0  0
 13 12  1  0  0  0  0
 14 15  1  0  0  0  0
 14 13  2  0  0  0  0
 15 10  2  0  0  0  0
 18 14  1  0  0  0  0
 19  1  1  0  0  0  0
 20 19  1  0  0  0  0
 21  6  1  0  0  0  0
 23 21  1  0  0  0  0
 23 22  2  0  0  0  0
 24 23  1  0  0  0  0
 25 24  1  0  0  0  0
 26 24  2  0  0  0  0
 26 32  1  0  0  0  0
 27 29  1  0  0  0  0
 27 26  1  0  0  0  0
 28 27  1  0  0  0  0
 29 31  2  0  0  0  0
 30 29  1  0  0  0  0
 31 32  1  0  0  0  0
 32 33  2  0  0  0  0
 33 22  1  0  0  0  0
M  END
>  <minimizedAffinity>
-5.58487701

$$$$

 OpenBabel03242513283D

 33 36  0  0  0  0  0  0  0  0999 V2000
   38.4550   30.5860   38.9220 C   0  0  0  0  0  0  0  0  0  0  0  0
   39.1800   31.7630   38.9200 C   0  0  0  0  0  0  0  0  0  0  0  0
   38.6530   32.8130   39.6100 C   0  0  0  0  0  0  0  0  0  0  0  0
   37.4530   32.7160   40.2840 C   0  0  0  0  0  0  0  0  0  0  0  0
   36.7420   31.5450   40.2810 C   0  0  0  0  0  0  0  0  0  0  0  0
   37.2380   30.4460   39.5910 C   0  0  0  0  0  0  0  0  0  0  0  0
   39.2130   33.7440   39.6170 H   0  0  0  0  0  0  0  0  0  0  0  0
   37.0180   33.5430   40.8390 H   0  0  0  0  0  0  0  0  0  0  0  0
   35.7930   31.3550   40.7710 H   0  0  0  0  0  0  0  0  0  0  0  0
   42.3060   32.9960   37.2260 C   0  0  0  0  0  0  0  0  0  0  0  0
   41.0940   32.9900   37.9320 C   0  0  0  0  0  0  0  0  0  0  0  0
   40.4250   31.7930   38.1980 C   0  0  0  0  0  0  0  0  0  0  0  0
   41.0270   30.6830   37.7310 N   0  0  0  0  0  0  0  0  0  0  0  0
   42.1920   30.6880   37.0530 C   0  0  0  0  0  0  0  0  0  0  0  0
   42.8350   31.8330   36.7970 N   0  0  0  0  0  0  0  0  0  0  0  0
   42.8220   33.9110   37.0190 H   0  0  0  0  0  0  0  0  0  0  0  0
   40.6650   33.9230   38.2790 H   0  0  0  0  0  0  0  0  0  0  0  0
   42.5050   29.6860   36.7660 H   0  0  0  0  0  0  0  0  0  0  0  0
   38.9530   29.4740   38.2280 O   0  0  0  0  0  0  0  0  0  0  0  0
   39.2220   29.6550   37.2580 H   0  0  0  0  0  0  0  0  0  0  0  0
   36.5850   29.2340   39.5380 O   0  0  0  0  0  0  0  0  0  0  0  0
   36.8010   28.1140   41.7660 C   0  0  0  0  0  3  0  0  0  0  0  0
   36.7400   28.1800   40.4030 C   0  0  0  0  0  0  0  0  0  0  0  0
   36.8510   26.9820   39.6900 C   0  0  0  0  0  0  0  0  0  0  0  0
   36.8240   26.8510   38.6150 H   0  0  0  0  0  0  0  0  0  0  0  0
   37.0180   25.7590   40.3450 C   0  0  0  0  0  0  0  0  0  0  0  0
   37.1520   24.4730   39.9750 N   0  0  0  0  0  0  0  0  0  0  0  0
   37.1490   24.1490   38.9740 H   0  0  0  0  0  0  0  0  0  0  0  0
   37.2850   23.6810   41.0530 C   0  0  0  0  0  0  0  0  0  0  0  0
   37.4090   22.5960   41.0090 H   0  0  0  0  0  0  0  0  0  0  0  0
   37.2430   24.4390   42.2020 C   0  0  0  0  0  3  0  0  0  0  0  0
   37.0760   25.7270   41.7410 C   0  0  0  0  0  0  0  0  0  0  0  0
   36.9650   26.9200   42.4240 C   0  0  0  0  0  3  0  0  0  0  0  0
  1  6  1  0  0  0  0
  2  1  2  0  0  0  0
  2  3  1  0  0  0  0
  3  7  1  0  0  0  0
  3  4  2  0  0  0  0
  4  8  1  0  0  0  0
  5  4  1  0  0  0  0
  5  9  1  0  0  0  0
  6  5  2  0  0  0  0
 10 11  1  0  0  0  0
 11 12  2  0  0  0  0
 11 17  1  0  0  0  0
 12  2  1  0  0  0  0
 13 12  1  0  0  0  0
 14 13  2  0  0  0  0
 15 14  1  0  0  0  0
 15 10  2  0  0  0  0
 16 10  1  0  0  0  0
 18 14  1  0  0  0  0
 19  1  1  0  0  0  0
 20 19  1  0  0  0  0
 21  6  1  0  0  0  0
 21 23  1  0  0  0  0
 22 33  1  0  0  0  0
 23 22  2  0  0  0  0
 24 26  2  0  0  0  0
 24 23  1  0  0  0  0
 25 24  1  0  0  0  0
 26 32  1  0  0  0  0
 27 26  1  0  0  0  0
 27 29  1  0  0  0  0
 28 27  1  0  0  0  0
 29 31  2  0  0  0  0
 30 29  1  0  0  0  0
 32 31  1  0  0  0  0
 32 33  2  0  0  0  0
M  END
>  <minimizedAffinity>
-5.58060837

$$$$

 OpenBabel03242513283D

 33 36  0  0  0  0  0  0  0  0999 V2000
   38.3380   29.6990   41.7770 C   0  0  0  0  0  0  0  0  0  0  0  0
   39.2320   29.0210   42.5840 C   0  0  0  0  0  0  0  0  0  0  0  0
   38.7630   27.9180   43.2320 C   0  0  0  0  0  0  0  0  0  0  0  0
   37.4580   27.4890   43.0950 C   0  0  0  0  0  0  0  0  0  0  0  0
   36.5800   28.1680   42.2920 C   0  0  0  0  0  0  0  0  0  0  0  0
   37.0110   29.2990   41.6100 C   0  0  0  0  0  0  0  0  0  0  0  0
   39.4540   27.3750   43.8710 H   0  0  0  0  0  0  0  0  0  0  0  0
   37.0680   26.6120   43.6040 H   0  0  0  0  0  0  0  0  0  0  0  0
   35.5390   27.9250   42.1100 H   0  0  0  0  0  0  0  0  0  0  0  0
   42.9900   29.2060   42.5980 C   0  0  0  0  0  0  0  0  0  0  0  0
   41.6880   28.6940   42.5000 C   0  0  0  0  0  0  0  0  0  0  0  0
   40.5780   29.5220   42.6800 C   0  0  0  0  0  0  0  0  0  0  0  0
   40.8600   30.8110   42.9490 N   0  0  0  0  0  0  0  0  0  0  0  0
   42.1120   31.3020   43.0440 C   0  0  0  0  0  0  0  0  0  0  0  0
   43.1770   30.5120   42.8710 N   0  0  0  0  0  0  0  0  0  0  0  0
   43.8450   28.5750   42.4610 H   0  0  0  0  0  0  0  0  0  0  0  0
   41.5340   27.6440   42.2800 H   0  0  0  0  0  0  0  0  0  0  0  0
   42.1190   32.3670   43.2680 H   0  0  0  0  0  0  0  0  0  0  0  0
   38.7700   30.8400   41.0860 O   0  0  0  0  0  0  0  0  0  0  0  0
   39.2410   31.5420   41.6620 H   0  0  0  0  0  0  0  0  0  0  0  0
   36.1930   30.0370   40.7840 O   0  0  0  0  0  0  0  0  0  0  0  0
   34.5810   29.0190   39.1620 C   0  0  0  0  0  3  0  0  0  0  0  0
   35.7200   29.6650   39.5510 C   0  0  0  0  0  0  0  0  0  0  0  0
   36.6220   30.0450   38.5520 C   0  0  0  0  0  0  0  0  0  0  0  0
   37.5660   30.5600   38.6800 H   0  0  0  0  0  0  0  0  0  0  0  0
   36.3690   29.7780   37.2040 C   0  0  0  0  0  0  0  0  0  0  0  0
   37.0010   30.0000   36.0380 N   0  0  0  0  0  0  0  0  0  0  0  0
   37.9310   30.4870   35.9600 H   0  0  0  0  0  0  0  0  0  0  0  0
   36.2830   29.5160   35.0090 C   0  0  0  0  0  0  0  0  0  0  0  0
   36.5900   29.5760   33.9620 H   0  0  0  0  0  0  0  0  0  0  0  0
   35.1210   28.9440   35.4760 C   0  0  0  0  0  3  0  0  0  0  0  0
   35.1930   29.1170   36.8410 C   0  0  0  0  0  0  0  0  0  0  0  0
   34.3180   28.7500   37.8420 C   0  0  0  0  0  3  0  0  0  0  0  0
  1  2  1  0  0  0  0
  2 12  1  0  0  0  0
  2  3  2  0  0  0  0
  3  7  1  0  0  0  0
  4  3  1  0  0  0  0
  4  8  1  0  0  0  0
  5  4  2  0  0  0  0
  6  1  2  0  0  0  0
  6  5  1  0  0  0  0
  9  5  1  0  0  0  0
 10 15  1  0  0  0  0
 11 10  2  0  0  0  0
 11 12  1  0  0  0  0
 12 13  2  0  0  0  0
 13 14  1  0  0  0  0
 14 18  1  0  0  0  0
 15 14  2  0  0  0  0
 16 10  1  0  0  0  0
 17 11  1  0  0  0  0
 19 20  1  0  0  0  0
 19  1  1  0  0  0  0
 21  6  1  0  0  0  0
 22 23  1  0  0  0  0
 23 21  1  0  0  0  0
 24 25  1  0  0  0  0
 24 23  2  0  0  0  0
 26 24  1  0  0  0  0
 27 26  1  0  0  0  0
 28 27  1  0  0  0  0
 29 31  2  0  0  0  0
 29 27  1  0  0  0  0
 30 29  1  0  0  0  0
 31 32  1  0  0  0  0
 32 26  2  0  0  0  0
 32 33  1  0  0  0  0
 33 22  2  0  0  0  0
M  END
>  <minimizedAffinity>
-5.50408602

$$$$

 OpenBabel03242513283D

 33 36  0  0  0  0  0  0  0  0999 V2000
   37.5200   26.1000   41.2770 C   0  0  0  0  0  0  0  0  0  0  0  0
   38.4710   25.1340   41.5450 C   0  0  0  0  0  0  0  0  0  0  0  0
   39.2660   25.3370   42.6340 C   0  0  0  0  0  0  0  0  0  0  0  0
   39.1340   26.4510   43.4380 C   0  0  0  0  0  0  0  0  0  0  0  0
   38.1880   27.4030   43.1630 C   0  0  0  0  0  0  0  0  0  0  0  0
   37.3540   27.2410   42.0640 C   0  0  0  0  0  0  0  0  0  0  0  0
   40.0180   24.5850   42.8570 H   0  0  0  0  0  0  0  0  0  0  0  0
   39.7600   26.6280   44.3090 H   0  0  0  0  0  0  0  0  0  0  0  0
   37.9970   28.3130   43.7200 H   0  0  0  0  0  0  0  0  0  0  0  0
   39.5770   22.7930   38.8150 C   0  0  0  0  0  0  0  0  0  0  0  0
   39.5160   23.9110   39.6590 C   0  0  0  0  0  0  0  0  0  0  0  0
   38.5530   23.9970   40.6670 C   0  0  0  0  0  0  0  0  0  0  0  0
   37.7160   22.9460   40.7510 N   0  0  0  0  0  0  0  0  0  0  0  0
   37.7730   21.8710   39.9400 C   0  0  0  0  0  0  0  0  0  0  0  0
   38.6950   21.7860   38.9740 N   0  0  0  0  0  0  0  0  0  0  0  0
   40.3130   22.7220   38.0410 H   0  0  0  0  0  0  0  0  0  0  0  0
   40.2240   24.7230   39.5350 H   0  0  0  0  0  0  0  0  0  0  0  0
   37.0070   21.1360   40.1760 H   0  0  0  0  0  0  0  0  0  0  0  0
   36.6760   25.9400   40.1690 O   0  0  0  0  0  0  0  0  0  0  0  0
   37.1540   25.7400   39.2870 H   0  0  0  0  0  0  0  0  0  0  0  0
   36.3780   28.1500   41.7190 O   0  0  0  0  0  0  0  0  0  0  0  0
   36.3880   30.6370   41.4370 C   0  0  0  0  0  3  0  0  0  0  0  0
   36.5600   29.3360   41.0550 C   0  0  0  0  0  0  0  0  0  0  0  0
   37.0010   29.0970   39.7500 C   0  0  0  0  0  0  0  0  0  0  0  0
   37.1890   28.1370   39.2840 H   0  0  0  0  0  0  0  0  0  0  0  0
   37.2600   30.1480   38.8650 C   0  0  0  0  0  0  0  0  0  0  0  0
   37.6790   30.2610   37.5930 N   0  0  0  0  0  0  0  0  0  0  0  0
   37.9130   29.4390   36.9780 H   0  0  0  0  0  0  0  0  0  0  0  0
   37.7550   31.5530   37.2310 C   0  0  0  0  0  0  0  0  0  0  0  0
   38.0720   31.9000   36.2440 H   0  0  0  0  0  0  0  0  0  0  0  0
   37.3780   32.3580   38.2830 C   0  0  0  0  0  3  0  0  0  0  0  0
   37.0740   31.4660   39.2880 C   0  0  0  0  0  0  0  0  0  0  0  0
   36.6380   31.6800   40.5790 C   0  0  0  0  0  3  0  0  0  0  0  0
  1  2  2  0  0  0  0
  1  6  1  0  0  0  0
  2  3  1  0  0  0  0
  3  7  1  0  0  0  0
  3  4  2  0  0  0  0
  4  8  1  0  0  0  0
  5  4  1  0  0  0  0
  5  9  1  0  0  0  0
  6  5  2  0  0  0  0
 10 15  2  0  0  0  0
 10 11  1  0  0  0  0
 11 12  2  0  0  0  0
 12 13  1  0  0  0  0
 12  2  1  0  0  0  0
 14 18  1  0  0  0  0
 14 13  2  0  0  0  0
 15 14  1  0  0  0  0
 16 10  1  0  0  0  0
 17 11  1  0  0  0  0
 19  1  1  0  0  0  0
 20 19  1  0  0  0  0
 21  6  1  0  0  0  0
 23 22  1  0  0  0  0
 23 21  1  0  0  0  0
 24 23  2  0  0  0  0
 25 24  1  0  0  0  0
 26 32  2  0  0  0  0
 26 24  1  0  0  0  0
 27 26  1  0  0  0  0
 28 27  1  0  0  0  0
 29 27  1  0  0  0  0
 29 31  2  0  0  0  0
 30 29  1  0  0  0  0
 31 32  1  0  0  0  0
 32 33  1  0  0  0  0
 33 22  2  0  0  0  0
M  END
>  <minimizedAffinity>
-5.4561038

$$$$

 OpenBabel03242513283D

 33 36  0  0  0  0  0  0  0  0999 V2000
   39.5140   31.9870   39.0820 C   0  0  0  0  0  0  0  0  0  0  0  0
   39.9920   33.2570   39.3430 C   0  0  0  0  0  0  0  0  0  0  0  0
   39.1030   34.1600   39.8420 C   0  0  0  0  0  0  0  0  0  0  0  0
   37.7840   33.8320   40.0820 C   0  0  0  0  0  0  0  0  0  0  0  0
   37.3190   32.5700   39.8200 C   0  0  0  0  0  0  0  0  0  0  0  0
   38.1880   31.6140   39.3100 C   0  0  0  0  0  0  0  0  0  0  0  0
   39.4650   35.1630   40.0520 H   0  0  0  0  0  0  0  0  0  0  0  0
   37.0610   34.5400   40.4790 H   0  0  0  0  0  0  0  0  0  0  0  0
   36.3100   32.2020   39.9670 H   0  0  0  0  0  0  0  0  0  0  0  0
   43.6750   33.8750   39.8030 C   0  0  0  0  0  0  0  0  0  0  0  0
   42.3290   33.6070   40.0920 C   0  0  0  0  0  0  0  0  0  0  0  0
   41.3790   33.5300   39.0710 C   0  0  0  0  0  0  0  0  0  0  0  0
   41.8550   33.7300   37.8280 N   0  0  0  0  0  0  0  0  0  0  0  0
   43.1490   33.9880   37.5500 C   0  0  0  0  0  0  0  0  0  0  0  0
   44.0610   34.0620   38.5260 N   0  0  0  0  0  0  0  0  0  0  0  0
   44.4080   33.9350   40.5820 H   0  0  0  0  0  0  0  0  0  0  0  0
   42.0150   33.4560   41.1180 H   0  0  0  0  0  0  0  0  0  0  0  0
   43.3220   34.1170   36.4830 H   0  0  0  0  0  0  0  0  0  0  0  0
   40.3880   31.0190   38.5670 O   0  0  0  0  0  0  0  0  0  0  0  0
   40.9200   31.3100   37.7440 H   0  0  0  0  0  0  0  0  0  0  0  0
   37.8010   30.3230   39.0210 O   0  0  0  0  0  0  0  0  0  0  0  0
   36.3440   29.2300   40.7370 C   0  0  0  0  0  3  0  0  0  0  0  0
   37.4320   29.3560   39.9200 C   0  0  0  0  0  0  0  0  0  0  0  0
   38.3930   28.3410   39.9600 C   0  0  0  0  0  0  0  0  0  0  0  0
   39.3100   28.2790   39.3850 H   0  0  0  0  0  0  0  0  0  0  0  0
   38.2490   27.2350   40.8020 C   0  0  0  0  0  0  0  0  0  0  0  0
   38.9590   26.1260   41.0740 N   0  0  0  0  0  0  0  0  0  0  0  0
   39.8760   25.8910   40.6150 H   0  0  0  0  0  0  0  0  0  0  0  0
   38.3340   25.3770   41.9990 C   0  0  0  0  0  0  0  0  0  0  0  0
   38.7140   24.4280   42.3830 H   0  0  0  0  0  0  0  0  0  0  0  0
   37.1580   25.9850   42.3790 C   0  0  0  0  0  3  0  0  0  0  0  0
   37.1240   27.1370   41.6240 C   0  0  0  0  0  0  0  0  0  0  0  0
   36.1880   28.1490   41.5700 C   0  0  0  0  0  3  0  0  0  0  0  0
  1  6  2  0  0  0  0
  1  2  1  0  0  0  0
  2  3  2  0  0  0  0
  3  7  1  0  0  0  0
  3  4  1  0  0  0  0
  4  8  1  0  0  0  0
  5  9  1  0  0  0  0
  5  4  2  0  0  0  0
  6  5  1  0  0  0  0
 10 11  1  0  0  0  0
 10 16  1  0  0  0  0
 11 17  1  0  0  0  0
 12  2  1  0  0  0  0
 12 11  2  0  0  0  0
 13 12  1  0  0  0  0
 14 13  2  0  0  0  0
 14 15  1  0  0  0  0
 15 10  2  0  0  0  0
 18 14  1  0  0  0  0
 19  1  1  0  0  0  0
 20 19  1  0  0  0  0
 21  6  1  0  0  0  0
 21 23  1  0  0  0  0
 22 33  1  0  0  0  0
 23 24  1  0  0  0  0
 23 22  2  0  0  0  0
 24 26  2  0  0  0  0
 25 24  1  0  0  0  0
 26 27  1  0  0  0  0
 26 32  1  0  0  0  0
 27 29  1  0  0  0  0
 28 27  1  0  0  0  0
 29 31  2  0  0  0  0
 29 30  1  0  0  0  0
 32 31  1  0  0  0  0
 33 32  2  0  0  0  0
M  END
>  <minimizedAffinity>
-5.44137478

$$$$
