
 OpenBabel03242522423D

 50 54  0  0  0  0  0  0  0  0999 V2000
   46.6970   32.6510   44.2600 C   0  0  0  0  0  0  0  0  0  0  0  0
   46.4400   32.1920   43.2490 H   0  0  0  0  0  0  0  0  0  0  0  0
   47.7450   32.7740   44.4620 H   0  0  0  0  0  0  0  0  0  0  0  0
   46.0740   34.6110   42.9500 C   0  0  0  0  0  0  0  0  0  0  0  0
   46.0010   33.9410   44.1690 C   0  0  0  0  0  0  0  0  0  0  0  0
   45.3230   34.3660   45.2470 C   0  0  0  0  0  0  0  0  0  0  0  0
   44.6370   35.5580   45.1620 C   0  0  0  0  0  0  0  0  0  0  0  0
   44.6350   36.2970   44.0190 C   0  0  0  0  0  0  0  0  0  0  0  0
   45.3510   35.8100   42.9390 C   0  0  0  0  0  0  0  0  0  0  0  0
   45.1870   33.9480   46.2020 H   0  0  0  0  0  0  0  0  0  0  0  0
   44.0470   36.0230   45.9550 H   0  0  0  0  0  0  0  0  0  0  0  0
   44.1160   37.2490   43.8700 H   0  0  0  0  0  0  0  0  0  0  0  0
   45.3650   36.3820   42.0130 H   0  0  0  0  0  0  0  0  0  0  0  0
   46.8950   34.1000   41.5390 S   0  0  0  0  0  0  0  0  0  0  0  0
   47.8080   35.2820   41.0460 O   0  0  0  0  0  0  0  0  0  0  0  0
   45.9360   33.9510   40.4030 O   0  0  0  0  0  0  0  0  0  0  0  0
   47.9630   31.5500   41.9750 C   0  0  0  0  0  0  0  0  0  0  0  0
   48.1340   32.9120   41.6420 C   0  0  0  0  0  0  0  0  0  0  0  0
   49.5020   33.1300   41.3920 C   0  0  0  0  0  0  0  0  0  0  0  0
   49.7590   34.1690   41.1190 H   0  0  0  0  0  0  0  0  0  0  0  0
   50.5080   32.1990   41.4550 C   0  0  0  0  0  0  0  0  0  0  0  0
   51.8250   32.3530   41.2280 N   0  0  0  0  0  0  0  0  0  0  0  0
   52.3710   33.2040   40.9550 H   0  0  0  0  0  0  0  0  0  0  0  0
   52.3800   31.1430   41.4200 C   0  0  0  0  0  0  0  0  0  0  0  0
   53.4160   30.8440   41.3360 H   0  0  0  0  0  0  0  0  0  0  0  0
   51.3830   30.2340   41.7710 C   0  0  0  0  0  0  0  0  0  0  0  0
   50.1910   30.9250   41.7900 C   0  0  0  0  0  0  0  0  0  0  0  0
   48.9010   30.5690   42.0590 C   0  0  0  0  0  0  0  0  0  0  0  0
   46.0770   31.6360   45.1670 C   0  0  0  0  0  0  0  0  0  0  0  0
   45.0060   31.8410   45.4360 H   0  0  0  0  0  0  0  0  0  0  0  0
   45.9680   30.6060   44.7080 H   0  0  0  0  0  0  0  0  0  0  0  0
   47.0340   32.4180   47.3110 C   0  0  0  0  0  0  0  0  0  0  0  0
   46.9660   31.4280   46.3060 C   0  0  0  0  0  0  0  0  0  0  0  0
   47.7220   30.2850   46.4710 C   0  0  0  0  0  0  0  0  0  0  0  0
   48.4830   30.1710   47.5840 N   0  0  0  0  0  0  0  0  0  0  0  0
   48.5240   31.1180   48.5180 C   0  0  0  0  0  0  0  0  0  0  0  0
   47.8040   32.2570   48.4010 N   0  0  0  0  0  0  0  0  0  0  0  0
   46.5340   33.3670   47.3650 H   0  0  0  0  0  0  0  0  0  0  0  0
   47.6670   29.5330   45.6950 H   0  0  0  0  0  0  0  0  0  0  0  0
   49.3880   30.9000   49.7270 C   0  0  0  0  0  0  0  0  0  0  0  0
   48.8240   31.2000   50.6540 H   0  0  0  0  0  0  0  0  0  0  0  0
   49.5660   29.8150   49.8590 H   0  0  0  0  0  0  0  0  0  0  0  0
   50.6650   31.5910   49.6570 C   0  0  0  0  0  0  0  0  0  0  0  0
   51.8360   31.0730   49.1360 C   0  0  0  0  0  0  0  0  0  0  0  0
   52.8260   32.0120   49.2440 C   0  0  0  0  0  0  0  0  0  0  0  0
   52.2180   33.0850   49.8350 N   0  0  0  0  0  0  0  0  0  0  0  0
   50.9340   32.8410   50.0840 N   0  0  0  0  0  0  0  0  0  0  0  0
   52.0370   30.0970   48.6930 H   0  0  0  0  0  0  0  0  0  0  0  0
   53.8740   32.0630   48.9830 H   0  0  0  0  0  0  0  0  0  0  0  0
   52.5910   34.0340   50.1140 H   0  0  0  0  0  0  0  0  0  0  0  0
  1  3  1  0  0  0  0
  1 29  1  0  0  0  0
  2  1  1  0  0  0  0
  4  5  1  0  0  0  0
  5  1  1  0  0  0  0
  5  6  2  0  0  0  0
  6 10  1  0  0  0  0
  7  6  1  0  0  0  0
  7 11  1  0  0  0  0
  8  7  2  0  0  0  0
  9  4  2  0  0  0  0
  9  8  1  0  0  0  0
 12  8  1  0  0  0  0
 13  9  1  0  0  0  0
 14 18  1  0  0  0  0
 14  4  1  0  0  0  0
 15 14  2  0  0  0  0
 16 14  2  0  0  0  0
 17 28  1  0  0  0  0
 18 17  2  0  0  0  0
 19 21  2  0  0  0  0
 19 18  1  0  0  0  0
 20 19  1  0  0  0  0
 21 27  1  0  0  0  0
 22 24  1  0  0  0  0
 22 21  1  0  0  0  0
 23 22  1  0  0  0  0
 24 26  2  0  0  0  0
 25 24  1  0  0  0  0
 26 27  1  0  0  0  0
 27 28  2  0  0  0  0
 29 30  1  0  0  0  0
 29 33  1  0  0  0  0
 31 29  1  0  0  0  0
 32 38  1  0  0  0  0
 32 37  1  0  0  0  0
 33 34  1  0  0  0  0
 33 32  2  0  0  0  0
 34 35  2  0  0  0  0
 35 36  1  0  0  0  0
 36 40  1  0  0  0  0
 37 36  2  0  0  0  0
 39 34  1  0  0  0  0
 40 42  1  0  0  0  0
 40 41  1  0  0  0  0
 43 40  1  0  0  0  0
 43 47  2  0  0  0  0
 44 45  2  0  0  0  0
 44 43  1  0  0  0  0
 45 46  1  0  0  0  0
 46 47  1  0  0  0  0
 46 50  1  0  0  0  0
 48 44  1  0  0  0  0
 49 45  1  0  0  0  0
M  END
>  <minimizedAffinity>
-6.64200401

>  <minimizedRMSD>
0.477733046

$$$$
