
 OpenBabel03242510083D

 31 34  0  0  0  0  0  0  0  0999 V2000
   44.8620   33.0900   40.9860 Br  0  0  0  0  0  0  0  0  0  0  0  0
   46.5160   34.0220   40.7960 C   0  0  0  0  0  0  0  0  0  0  0  0
   46.9920   34.7940   41.8370 C   0  0  0  0  0  0  0  0  0  0  0  0
   48.2010   35.4830   41.7190 C   0  0  0  0  0  0  0  0  0  0  0  0
   48.8950   35.3740   40.5470 C   0  0  0  0  0  0  0  0  0  0  0  0
   48.3820   34.5960   39.5370 C   0  0  0  0  0  0  0  0  0  0  0  0
   47.2100   33.9120   39.6220 C   0  0  0  0  0  0  0  0  0  0  0  0
   48.5540   36.0870   42.5610 H   0  0  0  0  0  0  0  0  0  0  0  0
   49.8330   35.9050   40.4460 H   0  0  0  0  0  0  0  0  0  0  0  0
   48.9870   34.5520   38.6320 H   0  0  0  0  0  0  0  0  0  0  0  0
   47.0430   31.7550   38.5730 C   0  0  0  0  0  3  0  0  0  0  0  0
   46.7680   33.1180   38.4830 C   0  0  0  0  0  0  0  0  0  0  0  0
   46.1250   33.5720   37.3630 C   0  0  0  0  0  0  0  0  0  0  0  0
   45.9260   34.6190   37.3200 H   0  0  0  0  0  0  0  0  0  0  0  0
   45.7480   32.7320   36.3380 C   0  0  0  0  0  0  0  0  0  0  0  0
   45.1120   33.0330   35.1810 N   0  0  0  0  0  0  0  0  0  0  0  0
   44.8080   33.9860   34.8960 H   0  0  0  0  0  0  0  0  0  0  0  0
   44.9890   31.8480   34.5430 C   0  0  0  0  0  0  0  0  0  0  0  0
   44.5120   31.7640   33.5740 H   0  0  0  0  0  0  0  0  0  0  0  0
   45.5370   30.8210   35.2850 C   0  0  0  0  0  3  0  0  0  0  0  0
   46.0240   31.3840   36.4360 C   0  0  0  0  0  0  0  0  0  0  0  0
   46.6770   30.8860   37.5590 C   0  0  0  0  0  3  0  0  0  0  0  0
   45.6870   33.9990   45.1580 C   0  0  0  0  0  0  0  0  0  0  0  0
   44.7370   35.0280   45.3950 C   0  0  0  0  0  0  0  0  0  0  0  0
   44.5720   35.9780   44.3890 C   0  0  0  0  0  0  0  0  0  0  0  0
   45.3100   35.8840   43.2510 N   0  0  0  0  0  0  0  0  0  0  0  0
   46.2140   34.8750   43.0630 C   0  0  0  0  0  0  0  0  0  0  0  0
   46.3810   33.9530   44.0290 N   0  0  0  0  0  0  0  0  0  0  0  0
   45.9060   33.2050   45.8610 H   0  0  0  0  0  0  0  0  0  0  0  0
   44.2190   35.0020   46.3230 H   0  0  0  0  0  0  0  0  0  0  0  0
   43.8550   36.7630   44.5570 H   0  0  0  0  0  0  0  0  0  0  0  0
  2  1  1  0  0  0  0
  2  3  1  0  0  0  0
  3 27  1  0  0  0  0
  4  3  2  0  0  0  0
  4  8  1  0  0  0  0
  5  4  1  0  0  0  0
  6  7  1  0  0  0  0
  6  5  2  0  0  0  0
  7  2  2  0  0  0  0
  9  5  1  0  0  0  0
 10  6  1  0  0  0  0
 12 11  1  0  0  0  0
 12  7  1  0  0  0  0
 13 12  2  0  0  0  0
 14 13  1  0  0  0  0
 15 21  2  0  0  0  0
 15 13  1  0  0  0  0
 16 15  1  0  0  0  0
 17 16  1  0  0  0  0
 18 16  1  0  0  0  0
 18 20  2  0  0  0  0
 19 18  1  0  0  0  0
 20 21  1  0  0  0  0
 21 22  1  0  0  0  0
 22 11  2  0  0  0  0
 23 24  1  0  0  0  0
 23 29  1  0  0  0  0
 24 30  1  0  0  0  0
 25 31  1  0  0  0  0
 25 24  2  0  0  0  0
 26 25  1  0  0  0  0
 27 26  2  0  0  0  0
 27 28  1  0  0  0  0
 28 23  2  0  0  0  0
M  END
>  <minimizedAffinity>
-6.43800879

>  <minimizedRMSD>
0.51484102

$$$$
