
 OpenBabel03242522423D

 50 54  0  0  0  0  0  0  0  0999 V2000
   46.6600   32.6460   44.3380 C   0  0  0  0  0  0  0  0  0  0  0  0
   46.3760   32.1470   43.3540 H   0  0  0  0  0  0  0  0  0  0  0  0
   47.7140   32.7410   44.5230 H   0  0  0  0  0  0  0  0  0  0  0  0
   46.2210   34.6300   42.9900 C   0  0  0  0  0  0  0  0  0  0  0  0
   46.0090   33.9540   44.1900 C   0  0  0  0  0  0  0  0  0  0  0  0
   45.2370   34.3880   45.1980 C   0  0  0  0  0  0  0  0  0  0  0  0
   44.5920   35.5980   45.0550 C   0  0  0  0  0  0  0  0  0  0  0  0
   44.7230   36.3450   43.9260 C   0  0  0  0  0  0  0  0  0  0  0  0
   45.5330   35.8470   42.9180 C   0  0  0  0  0  0  0  0  0  0  0  0
   44.9950   33.9680   46.1310 H   0  0  0  0  0  0  0  0  0  0  0  0
   43.9370   36.0720   45.7900 H   0  0  0  0  0  0  0  0  0  0  0  0
   44.2460   37.3110   43.7340 H   0  0  0  0  0  0  0  0  0  0  0  0
   45.6540   36.4250   42.0040 H   0  0  0  0  0  0  0  0  0  0  0  0
   47.1680   34.1080   41.6640 S   0  0  0  0  0  0  0  0  0  0  0  0
   47.9250   35.3560   41.0790 O   0  0  0  0  0  0  0  0  0  0  0  0
   46.2910   33.7100   40.5220 O   0  0  0  0  0  0  0  0  0  0  0  0
   49.8440   33.5820   42.2900 C   0  0  0  0  0  3  0  0  0  0  0  0
   48.5570   33.1290   41.9260 C   0  0  0  0  0  0  0  0  0  0  0  0
   48.6010   31.7250   41.8280 C   0  0  0  0  0  0  0  0  0  0  0  0
   47.6430   31.2540   41.5480 H   0  0  0  0  0  0  0  0  0  0  0  0
   49.6930   30.9210   42.0440 C   0  0  0  0  0  0  0  0  0  0  0  0
   49.7900   29.5810   41.9650 N   0  0  0  0  0  0  0  0  0  0  0  0
   49.0680   28.8620   41.7250 H   0  0  0  0  0  0  0  0  0  0  0  0
   51.0660   29.2820   42.2670 C   0  0  0  0  0  0  0  0  0  0  0  0
   51.5500   28.3160   42.3160 H   0  0  0  0  0  0  0  0  0  0  0  0
   51.7590   30.4620   42.5360 C   0  0  0  0  0  3  0  0  0  0  0  0
   50.8660   31.5010   42.3890 C   0  0  0  0  0  0  0  0  0  0  0  0
   50.9710   32.8560   42.5210 C   0  0  0  0  0  3  0  0  0  0  0  0
   46.0170   31.7000   45.3010 C   0  0  0  0  0  0  0  0  0  0  0  0
   44.9690   31.9750   45.5970 H   0  0  0  0  0  0  0  0  0  0  0  0
   45.8340   30.6630   44.8840 H   0  0  0  0  0  0  0  0  0  0  0  0
   47.0640   32.4850   47.4010 C   0  0  0  0  0  0  0  0  0  0  0  0
   46.9310   31.4810   46.4170 C   0  0  0  0  0  0  0  0  0  0  0  0
   47.6520   30.3150   46.5820 C   0  0  0  0  0  0  0  0  0  0  0  0
   48.4410   30.1930   47.6740 N   0  0  0  0  0  0  0  0  0  0  0  0
   48.5430   31.1550   48.5880 C   0  0  0  0  0  0  0  0  0  0  0  0
   47.8600   32.3170   48.4710 N   0  0  0  0  0  0  0  0  0  0  0  0
   46.5990   33.4530   47.4520 H   0  0  0  0  0  0  0  0  0  0  0  0
   47.5470   29.5520   45.8220 H   0  0  0  0  0  0  0  0  0  0  0  0
   49.4340   30.9280   49.7760 C   0  0  0  0  0  0  0  0  0  0  0  0
   48.9010   31.2460   50.7150 H   0  0  0  0  0  0  0  0  0  0  0  0
   49.5940   29.8400   49.9110 H   0  0  0  0  0  0  0  0  0  0  0  0
   50.7230   31.5930   49.6670 C   0  0  0  0  0  0  0  0  0  0  0  0
   51.8690   31.0470   49.1210 C   0  0  0  0  0  0  0  0  0  0  0  0
   52.8800   31.9670   49.1950 C   0  0  0  0  0  0  0  0  0  0  0  0
   52.3090   33.0570   49.7910 N   0  0  0  0  0  0  0  0  0  0  0  0
   51.0270   32.8410   50.0740 N   0  0  0  0  0  0  0  0  0  0  0  0
   52.0400   30.0630   48.6820 H   0  0  0  0  0  0  0  0  0  0  0  0
   53.9220   31.9940   48.9060 H   0  0  0  0  0  0  0  0  0  0  0  0
   52.7070   34.0010   50.0510 H   0  0  0  0  0  0  0  0  0  0  0  0
  1  3  1  0  0  0  0
  1 29  1  0  0  0  0
  2  1  1  0  0  0  0
  4  5  1  0  0  0  0
  5  1  1  0  0  0  0
  5  6  2  0  0  0  0
  6 10  1  0  0  0  0
  7  6  1  0  0  0  0
  7 11  1  0  0  0  0
  8  7  2  0  0  0  0
  9  4  2  0  0  0  0
  9  8  1  0  0  0  0
 12  8  1  0  0  0  0
 13  9  1  0  0  0  0
 14 18  1  0  0  0  0
 14  4  1  0  0  0  0
 15 14  2  0  0  0  0
 16 14  2  0  0  0  0
 17 28  1  0  0  0  0
 18 17  2  0  0  0  0
 19 18  1  0  0  0  0
 19 21  2  0  0  0  0
 20 19  1  0  0  0  0
 21 27  1  0  0  0  0
 22 21  1  0  0  0  0
 22 24  1  0  0  0  0
 23 22  1  0  0  0  0
 24 25  1  0  0  0  0
 24 26  2  0  0  0  0
 27 28  2  0  0  0  0
 27 26  1  0  0  0  0
 29 30  1  0  0  0  0
 29 33  1  0  0  0  0
 31 29  1  0  0  0  0
 32 38  1  0  0  0  0
 32 37  1  0  0  0  0
 33 34  1  0  0  0  0
 33 32  2  0  0  0  0
 34 35  2  0  0  0  0
 35 36  1  0  0  0  0
 36 40  1  0  0  0  0
 37 36  2  0  0  0  0
 39 34  1  0  0  0  0
 40 42  1  0  0  0  0
 40 41  1  0  0  0  0
 43 40  1  0  0  0  0
 43 47  2  0  0  0  0
 44 45  2  0  0  0  0
 44 43  1  0  0  0  0
 45 46  1  0  0  0  0
 46 50  1  0  0  0  0
 46 47  1  0  0  0  0
 48 44  1  0  0  0  0
 49 45  1  0  0  0  0
M  END
>  <minimizedAffinity>
-6.58869791

>  <minimizedRMSD>
0.697036147

$$$$
