
 OpenBabel03242512193D

 36 39  0  0  0  0  0  0  0  0999 V2000
   36.5400   31.2210   39.7720 C   0  0  0  0  0  0  0  0  0  0  0  0
   37.2330   32.1820   39.0800 C   0  0  0  0  0  0  0  0  0  0  0  0
   37.6810   31.9140   37.7940 C   0  0  0  0  0  0  0  0  0  0  0  0
   37.4180   30.6780   37.2400 C   0  0  0  0  0  0  0  0  0  0  0  0
   36.7210   29.7300   37.9540 C   0  0  0  0  0  0  0  0  0  0  0  0
   36.2690   29.9940   39.2420 C   0  0  0  0  0  0  0  0  0  0  0  0
   38.2120   32.6950   37.3040 H   0  0  0  0  0  0  0  0  0  0  0  0
   37.7970   30.5380   36.2370 H   0  0  0  0  0  0  0  0  0  0  0  0
   36.5630   28.7910   37.4350 H   0  0  0  0  0  0  0  0  0  0  0  0
   37.4360   33.4640   39.8030 C   0  0  0  0  0  0  0  0  0  0  0  0
   37.1780   34.2620   39.0480 H   0  0  0  0  0  0  0  0  0  0  0  0
   36.7650   33.6020   40.6280 H   0  0  0  0  0  0  0  0  0  0  0  0
   38.8910   33.6390   40.1250 C   0  0  0  0  0  0  0  0  0  0  0  0
   39.4300   34.9280   40.0010 C   0  0  0  0  0  0  0  0  0  0  0  0
   40.7750   35.0990   40.3010 C   0  0  0  0  0  0  0  0  0  0  0  0
   41.4860   34.0200   40.6930 N   0  0  0  0  0  0  0  0  0  0  0  0
   40.9400   32.7850   40.8040 C   0  0  0  0  0  0  0  0  0  0  0  0
   39.6440   32.5950   40.5200 N   0  0  0  0  0  0  0  0  0  0  0  0
   38.7890   35.7410   39.6800 H   0  0  0  0  0  0  0  0  0  0  0  0
   41.2030   36.0800   40.2120 H   0  0  0  0  0  0  0  0  0  0  0  0
   41.6110   31.9970   41.1270 H   0  0  0  0  0  0  0  0  0  0  0  0
   36.0450   31.3830   41.0660 O   0  0  0  0  0  0  0  0  0  0  0  0
   36.5190   30.8060   41.7690 H   0  0  0  0  0  0  0  0  0  0  0  0
   35.5700   28.9700   39.8780 O   0  0  0  0  0  0  0  0  0  0  0  0
   36.4200   27.9900   41.7900 C   0  0  0  0  0  3  0  0  0  0  0  0
   36.1500   27.8600   40.4230 C   0  0  0  0  0  0  0  0  0  0  0  0
   36.4660   26.6930   39.7630 C   0  0  0  0  0  0  0  0  0  0  0  0
   36.2340   26.6510   38.7060 H   0  0  0  0  0  0  0  0  0  0  0  0
   37.0550   25.6490   40.4560 C   0  0  0  0  0  0  0  0  0  0  0  0
   37.4440   24.4340   40.0130 N   0  0  0  0  0  0  0  0  0  0  0  0
   37.3880   24.0140   39.0580 H   0  0  0  0  0  0  0  0  0  0  0  0
   37.9600   23.7990   41.1040 C   0  0  0  0  0  0  0  0  0  0  0  0
   38.3660   22.7850   41.0800 H   0  0  0  0  0  0  0  0  0  0  0  0
   37.8990   24.6090   42.2340 C   0  0  0  0  0  3  0  0  0  0  0  0
   37.3130   25.7980   41.8020 C   0  0  0  0  0  0  0  0  0  0  0  0
   37.0080   26.9540   42.4940 C   0  0  0  0  0  3  0  0  0  0  0  0
  1 22  1  0  0  0  0
  2  1  2  0  0  0  0
  2 10  1  0  0  0  0
  3  2  1  0  0  0  0
  4  3  2  0  0  0  0
  4  5  1  0  0  0  0
  5  6  2  0  0  0  0
  6  1  1  0  0  0  0
  6 24  1  0  0  0  0
  7  3  1  0  0  0  0
  8  4  1  0  0  0  0
  9  5  1  0  0  0  0
 10 13  1  0  0  0  0
 10 12  1  0  0  0  0
 11 10  1  0  0  0  0
 13 18  1  0  0  0  0
 14 13  2  0  0  0  0
 14 15  1  0  0  0  0
 15 16  2  0  0  0  0
 16 17  1  0  0  0  0
 17 21  1  0  0  0  0
 18 17  2  0  0  0  0
 19 14  1  0  0  0  0
 20 15  1  0  0  0  0
 22 23  1  0  0  0  0
 24 26  1  0  0  0  0
 25 36  1  0  0  0  0
 26 25  2  0  0  0  0
 27 26  1  0  0  0  0
 27 29  2  0  0  0  0
 28 27  1  0  0  0  0
 29 35  1  0  0  0  0
 30 29  1  0  0  0  0
 30 32  1  0  0  0  0
 31 30  1  0  0  0  0
 32 34  2  0  0  0  0
 33 32  1  0  0  0  0
 35 34  1  0  0  0  0
 35 36  2  0  0  0  0
M  END
>  <minimizedAffinity>
-6.77902174

$$$$

 OpenBabel03242512193D

 36 39  0  0  0  0  0  0  0  0999 V2000
   36.7640   28.7950   41.7690 C   0  0  0  0  0  0  0  0  0  0  0  0
   36.8640   27.4440   41.5480 C   0  0  0  0  0  0  0  0  0  0  0  0
   36.8110   26.9530   40.2510 C   0  0  0  0  0  0  0  0  0  0  0  0
   36.6560   27.8430   39.2080 C   0  0  0  0  0  0  0  0  0  0  0  0
   36.5570   29.1930   39.4540 C   0  0  0  0  0  0  0  0  0  0  0  0
   36.6110   29.6900   40.7520 C   0  0  0  0  0  0  0  0  0  0  0  0
   36.8940   25.8990   40.1390 H   0  0  0  0  0  0  0  0  0  0  0  0
   36.6210   27.3910   38.2260 H   0  0  0  0  0  0  0  0  0  0  0  0
   36.4380   29.8120   38.5720 H   0  0  0  0  0  0  0  0  0  0  0  0
   37.0330   26.6120   42.7690 C   0  0  0  0  0  0  0  0  0  0  0  0
   36.6890   27.2750   43.6150 H   0  0  0  0  0  0  0  0  0  0  0  0
   36.4010   25.7460   42.7880 H   0  0  0  0  0  0  0  0  0  0  0  0
   38.4910   26.3480   43.0020 C   0  0  0  0  0  0  0  0  0  0  0  0
   38.9920   25.0970   42.6100 C   0  0  0  0  0  0  0  0  0  0  0  0
   40.3420   24.8460   42.8180 C   0  0  0  0  0  0  0  0  0  0  0  0
   41.0930   25.8140   43.3830 N   0  0  0  0  0  0  0  0  0  0  0  0
   40.5840   27.0140   43.7530 C   0  0  0  0  0  0  0  0  0  0  0  0
   39.2850   27.2800   43.5620 N   0  0  0  0  0  0  0  0  0  0  0  0
   38.3190   24.3740   42.1620 H   0  0  0  0  0  0  0  0  0  0  0  0
   40.7400   23.8930   42.5230 H   0  0  0  0  0  0  0  0  0  0  0  0
   41.2860   27.7110   44.1970 H   0  0  0  0  0  0  0  0  0  0  0  0
   36.8050   29.3950   43.0280 O   0  0  0  0  0  0  0  0  0  0  0  0
   35.9140   29.8080   43.3220 H   0  0  0  0  0  0  0  0  0  0  0  0
   36.5060   31.0720   40.8930 O   0  0  0  0  0  0  0  0  0  0  0  0
   37.1460   33.0500   39.8830 C   0  0  0  0  0  3  0  0  0  0  0  0
   37.5250   31.9520   40.6660 C   0  0  0  0  0  0  0  0  0  0  0  0
   38.8200   31.8450   41.1250 C   0  0  0  0  0  0  0  0  0  0  0  0
   39.0540   30.9740   41.7260 H   0  0  0  0  0  0  0  0  0  0  0  0
   39.7450   32.8240   40.8080 C   0  0  0  0  0  0  0  0  0  0  0  0
   41.0500   32.9160   41.1470 N   0  0  0  0  0  0  0  0  0  0  0  0
   41.6450   32.2760   41.7190 H   0  0  0  0  0  0  0  0  0  0  0  0
   41.4910   34.0730   40.5760 C   0  0  0  0  0  0  0  0  0  0  0  0
   42.5170   34.4400   40.6640 H   0  0  0  0  0  0  0  0  0  0  0  0
   40.4710   34.7120   39.8780 C   0  0  0  0  0  3  0  0  0  0  0  0
   39.3510   33.8960   40.0360 C   0  0  0  0  0  0  0  0  0  0  0  0
   38.0630   34.0350   39.5600 C   0  0  0  0  0  3  0  0  0  0  0  0
  1 22  1  0  0  0  0
  2  1  1  0  0  0  0
  2 10  1  0  0  0  0
  3  2  2  0  0  0  0
  4  5  2  0  0  0  0
  4  3  1  0  0  0  0
  5  6  1  0  0  0  0
  6 24  1  0  0  0  0
  6  1  2  0  0  0  0
  7  3  1  0  0  0  0
  8  4  1  0  0  0  0
  9  5  1  0  0  0  0
 10 12  1  0  0  0  0
 10 13  1  0  0  0  0
 10 11  1  0  0  0  0
 13 18  1  0  0  0  0
 14 15  1  0  0  0  0
 14 13  2  0  0  0  0
 15 16  2  0  0  0  0
 16 17  1  0  0  0  0
 17 21  1  0  0  0  0
 18 17  2  0  0  0  0
 19 14  1  0  0  0  0
 20 15  1  0  0  0  0
 22 23  1  0  0  0  0
 25 26  1  0  0  0  0
 26 24  1  0  0  0  0
 26 27  2  0  0  0  0
 27 28  1  0  0  0  0
 29 27  1  0  0  0  0
 29 30  1  0  0  0  0
 30 31  1  0  0  0  0
 32 33  1  0  0  0  0
 32 30  1  0  0  0  0
 34 35  1  0  0  0  0
 34 32  2  0  0  0  0
 35 29  2  0  0  0  0
 36 25  2  0  0  0  0
 36 35  1  0  0  0  0
M  END
>  <minimizedAffinity>
-6.51148462

$$$$

 OpenBabel03242512193D

 36 39  0  0  0  0  0  0  0  0999 V2000
   36.5980   28.8160   41.1490 C   0  0  0  0  0  0  0  0  0  0  0  0
   36.7190   27.4630   41.3480 C   0  0  0  0  0  0  0  0  0  0  0  0
   36.7090   26.6030   40.2580 C   0  0  0  0  0  0  0  0  0  0  0  0
   36.5750   27.1350   38.9920 C   0  0  0  0  0  0  0  0  0  0  0  0
   36.4550   28.4950   38.8170 C   0  0  0  0  0  0  0  0  0  0  0  0
   36.4660   29.3600   39.9060 C   0  0  0  0  0  0  0  0  0  0  0  0
   36.8060   25.5660   40.4710 H   0  0  0  0  0  0  0  0  0  0  0  0
   36.5740   26.4090   38.1910 H   0  0  0  0  0  0  0  0  0  0  0  0
   36.3560   28.8170   37.7870 H   0  0  0  0  0  0  0  0  0  0  0  0
   36.8600   27.0400   42.7660 C   0  0  0  0  0  0  0  0  0  0  0  0
   36.8010   27.9990   43.3570 H   0  0  0  0  0  0  0  0  0  0  0  0
   36.0540   26.4230   43.1110 H   0  0  0  0  0  0  0  0  0  0  0  0
   38.2350   26.4850   42.9930 C   0  0  0  0  0  0  0  0  0  0  0  0
   39.1860   27.3360   43.5760 C   0  0  0  0  0  0  0  0  0  0  0  0
   40.4610   26.8280   43.7940 C   0  0  0  0  0  0  0  0  0  0  0  0
   40.7110   25.5510   43.4350 N   0  0  0  0  0  0  0  0  0  0  0  0
   39.7740   24.7510   42.8740 C   0  0  0  0  0  0  0  0  0  0  0  0
   38.5370   25.2180   42.6540 N   0  0  0  0  0  0  0  0  0  0  0  0
   38.9020   28.3500   43.8350 H   0  0  0  0  0  0  0  0  0  0  0  0
   41.2010   27.4670   44.2400 H   0  0  0  0  0  0  0  0  0  0  0  0
   40.0940   23.7450   42.6280 H   0  0  0  0  0  0  0  0  0  0  0  0
   36.5960   29.7670   42.1690 O   0  0  0  0  0  0  0  0  0  0  0  0
   35.6920   30.2330   42.3020 H   0  0  0  0  0  0  0  0  0  0  0  0
   36.3430   30.7190   39.6220 O   0  0  0  0  0  0  0  0  0  0  0  0
   38.4310   31.2830   38.8080 C   0  0  0  0  0  3  0  0  0  0  0  0
   37.3730   31.6140   39.6640 C   0  0  0  0  0  0  0  0  0  0  0  0
   37.4400   32.7510   40.4400 C   0  0  0  0  0  0  0  0  0  0  0  0
   36.5920   32.9550   41.0820 H   0  0  0  0  0  0  0  0  0  0  0  0
   38.5590   33.5640   40.3710 C   0  0  0  0  0  0  0  0  0  0  0  0
   38.8310   34.7090   41.0360 N   0  0  0  0  0  0  0  0  0  0  0  0
   38.2630   35.2310   41.7410 H   0  0  0  0  0  0  0  0  0  0  0  0
   40.0610   35.0980   40.5960 C   0  0  0  0  0  0  0  0  0  0  0  0
   40.5730   35.9980   40.9450 H   0  0  0  0  0  0  0  0  0  0  0  0
   40.5680   34.2040   39.6580 C   0  0  0  0  0  3  0  0  0  0  0  0
   39.5890   33.2200   39.5230 C   0  0  0  0  0  0  0  0  0  0  0  0
   39.5540   32.0890   38.7320 C   0  0  0  0  0  3  0  0  0  0  0  0
  1  2  1  0  0  0  0
  1 22  1  0  0  0  0
  2 10  1  0  0  0  0
  3  7  1  0  0  0  0
  3  2  2  0  0  0  0
  4  3  1  0  0  0  0
  5  4  2  0  0  0  0
  5  6  1  0  0  0  0
  6  1  2  0  0  0  0
  8  4  1  0  0  0  0
  9  5  1  0  0  0  0
 10 13  1  0  0  0  0
 10 12  1  0  0  0  0
 10 11  1  0  0  0  0
 13 14  1  0  0  0  0
 14 15  2  0  0  0  0
 14 19  1  0  0  0  0
 15 20  1  0  0  0  0
 16 15  1  0  0  0  0
 17 16  2  0  0  0  0
 18 17  1  0  0  0  0
 18 13  2  0  0  0  0
 21 17  1  0  0  0  0
 22 23  1  0  0  0  0
 24 26  1  0  0  0  0
 24  6  1  0  0  0  0
 25 26  1  0  0  0  0
 26 27  2  0  0  0  0
 27 28  1  0  0  0  0
 29 27  1  0  0  0  0
 29 30  1  0  0  0  0
 30 31  1  0  0  0  0
 32 33  1  0  0  0  0
 32 30  1  0  0  0  0
 34 32  2  0  0  0  0
 35 34  1  0  0  0  0
 35 29  2  0  0  0  0
 36 25  2  0  0  0  0
 36 35  1  0  0  0  0
M  END
>  <minimizedAffinity>
-6.50148344

$$$$

 OpenBabel03242512193D

 36 39  0  0  0  0  0  0  0  0999 V2000
   37.0120   28.2320   41.9600 C   0  0  0  0  0  0  0  0  0  0  0  0
   36.2560   28.2980   40.8160 C   0  0  0  0  0  0  0  0  0  0  0  0
   36.2720   27.2400   39.9180 C   0  0  0  0  0  0  0  0  0  0  0  0
   37.0550   26.1400   40.1990 C   0  0  0  0  0  0  0  0  0  0  0  0
   37.8060   26.0960   41.3510 C   0  0  0  0  0  0  0  0  0  0  0  0
   37.7920   27.1530   42.2550 C   0  0  0  0  0  0  0  0  0  0  0  0
   35.6670   27.3460   39.0500 H   0  0  0  0  0  0  0  0  0  0  0  0
   37.0210   25.3550   39.4560 H   0  0  0  0  0  0  0  0  0  0  0  0
   38.3880   25.1910   41.4840 H   0  0  0  0  0  0  0  0  0  0  0  0
   35.4600   29.5430   40.6530 C   0  0  0  0  0  0  0  0  0  0  0  0
   34.6760   29.2820   39.8850 H   0  0  0  0  0  0  0  0  0  0  0  0
   34.9290   29.8320   41.5390 H   0  0  0  0  0  0  0  0  0  0  0  0
   36.3160   30.6130   40.0400 C   0  0  0  0  0  0  0  0  0  0  0  0
   36.5480   30.5410   38.6590 C   0  0  0  0  0  0  0  0  0  0  0  0
   37.3350   31.5300   38.0830 C   0  0  0  0  0  0  0  0  0  0  0  0
   37.8290   32.5010   38.8810 N   0  0  0  0  0  0  0  0  0  0  0  0
   37.5890   32.5460   40.2130 C   0  0  0  0  0  0  0  0  0  0  0  0
   36.8330   31.6030   40.7920 N   0  0  0  0  0  0  0  0  0  0  0  0
   36.1130   29.7270   38.0900 H   0  0  0  0  0  0  0  0  0  0  0  0
   37.5230   31.4890   37.0260 H   0  0  0  0  0  0  0  0  0  0  0  0
   38.0400   33.3730   40.7490 H   0  0  0  0  0  0  0  0  0  0  0  0
   37.0710   29.2340   42.9270 O   0  0  0  0  0  0  0  0  0  0  0  0
   37.9770   29.7120   42.9790 H   0  0  0  0  0  0  0  0  0  0  0  0
   38.5830   27.0080   43.3930 O   0  0  0  0  0  0  0  0  0  0  0  0
   40.5720   28.1700   43.2040 C   0  0  0  0  0  3  0  0  0  0  0  0
   39.9460   26.9300   43.3830 C   0  0  0  0  0  0  0  0  0  0  0  0
   40.7040   25.7880   43.5280 C   0  0  0  0  0  0  0  0  0  0  0  0
   40.1640   24.8580   43.6630 H   0  0  0  0  0  0  0  0  0  0  0  0
   42.0850   25.8710   43.4950 C   0  0  0  0  0  0  0  0  0  0  0  0
   43.0080   24.8910   43.6140 N   0  0  0  0  0  0  0  0  0  0  0  0
   42.8860   23.8630   43.7570 H   0  0  0  0  0  0  0  0  0  0  0  0
   44.2150   25.5170   43.5100 C   0  0  0  0  0  0  0  0  0  0  0  0
   45.1740   24.9970   43.5660 H   0  0  0  0  0  0  0  0  0  0  0  0
   44.0580   26.8870   43.3250 C   0  0  0  0  0  3  0  0  0  0  0  0
   42.6810   27.1010   43.3180 C   0  0  0  0  0  0  0  0  0  0  0  0
   41.9520   28.2650   43.1690 C   0  0  0  0  0  3  0  0  0  0  0  0
  1  6  1  0  0  0  0
  1 22  1  0  0  0  0
  2  1  2  0  0  0  0
  3  4  2  0  0  0  0
  3  2  1  0  0  0  0
  4  5  1  0  0  0  0
  5  9  1  0  0  0  0
  5  6  2  0  0  0  0
  6 24  1  0  0  0  0
  7  3  1  0  0  0  0
  8  4  1  0  0  0  0
 10  2  1  0  0  0  0
 10 12  1  0  0  0  0
 11 10  1  0  0  0  0
 13 10  1  0  0  0  0
 13 18  1  0  0  0  0
 14 13  2  0  0  0  0
 15 14  1  0  0  0  0
 15 16  2  0  0  0  0
 16 17  1  0  0  0  0
 17 21  1  0  0  0  0
 17 18  2  0  0  0  0
 19 14  1  0  0  0  0
 20 15  1  0  0  0  0
 22 23  1  0  0  0  0
 25 26  1  0  0  0  0
 26 24  1  0  0  0  0
 26 27  2  0  0  0  0
 27 28  1  0  0  0  0
 29 27  1  0  0  0  0
 29 30  1  0  0  0  0
 30 31  1  0  0  0  0
 32 33  1  0  0  0  0
 32 30  1  0  0  0  0
 34 32  2  0  0  0  0
 35 34  1  0  0  0  0
 35 29  2  0  0  0  0
 36 25  2  0  0  0  0
 36 35  1  0  0  0  0
M  END
>  <minimizedAffinity>
-6.46394396

$$$$

 OpenBabel03242512193D

 36 39  0  0  0  0  0  0  0  0999 V2000
   39.2900   32.0370   41.3770 C   0  0  0  0  0  0  0  0  0  0  0  0
   38.9530   33.0150   40.4750 C   0  0  0  0  0  0  0  0  0  0  0  0
   37.7370   32.9490   39.8090 C   0  0  0  0  0  0  0  0  0  0  0  0
   36.8910   31.8900   40.0710 C   0  0  0  0  0  0  0  0  0  0  0  0
   37.2510   30.9210   40.9800 C   0  0  0  0  0  0  0  0  0  0  0  0
   38.4680   30.9840   41.6500 C   0  0  0  0  0  0  0  0  0  0  0  0
   37.5290   33.7330   39.1230 H   0  0  0  0  0  0  0  0  0  0  0  0
   35.9630   31.9010   39.5170 H   0  0  0  0  0  0  0  0  0  0  0  0
   36.5210   30.1310   41.1190 H   0  0  0  0  0  0  0  0  0  0  0  0
   39.9620   34.0930   40.3010 C   0  0  0  0  0  0  0  0  0  0  0  0
   39.3710   34.9810   39.9350 H   0  0  0  0  0  0  0  0  0  0  0  0
   40.4270   34.3980   41.2180 H   0  0  0  0  0  0  0  0  0  0  0  0
   40.9070   33.7270   39.1940 C   0  0  0  0  0  0  0  0  0  0  0  0
   41.6870   34.7550   38.6450 C   0  0  0  0  0  0  0  0  0  0  0  0
   42.5680   34.4230   37.6230 C   0  0  0  0  0  0  0  0  0  0  0  0
   42.6240   33.1370   37.2180 N   0  0  0  0  0  0  0  0  0  0  0  0
   41.8580   32.1630   37.7670 C   0  0  0  0  0  0  0  0  0  0  0  0
   41.0010   32.4580   38.7540 N   0  0  0  0  0  0  0  0  0  0  0  0
   41.5810   35.7630   39.0290 H   0  0  0  0  0  0  0  0  0  0  0  0
   43.1730   35.1990   37.1910 H   0  0  0  0  0  0  0  0  0  0  0  0
   41.9910   31.1670   37.3580 H   0  0  0  0  0  0  0  0  0  0  0  0
   40.4830   32.0050   42.0990 O   0  0  0  0  0  0  0  0  0  0  0  0
   41.1140   31.2450   41.8280 H   0  0  0  0  0  0  0  0  0  0  0  0
   38.7350   29.9560   42.5520 O   0  0  0  0  0  0  0  0  0  0  0  0
   37.2650   28.3310   43.2850 C   0  0  0  0  0  3  0  0  0  0  0  0
   38.3030   28.6690   42.4080 C   0  0  0  0  0  0  0  0  0  0  0  0
   38.7850   27.7380   41.5140 C   0  0  0  0  0  0  0  0  0  0  0  0
   39.5880   28.0570   40.8620 H   0  0  0  0  0  0  0  0  0  0  0  0
   38.2410   26.4650   41.4880 C   0  0  0  0  0  0  0  0  0  0  0  0
   38.5580   25.4110   40.7050 N   0  0  0  0  0  0  0  0  0  0  0  0
   39.2770   25.3220   39.9520 H   0  0  0  0  0  0  0  0  0  0  0  0
   37.7180   24.4080   41.0910 C   0  0  0  0  0  0  0  0  0  0  0  0
   37.7210   23.4110   40.6450 H   0  0  0  0  0  0  0  0  0  0  0  0
   36.8730   24.8250   42.1140 C   0  0  0  0  0  3  0  0  0  0  0  0
   37.2200   26.1520   42.3600 C   0  0  0  0  0  0  0  0  0  0  0  0
   36.7130   27.0610   43.2670 C   0  0  0  0  0  3  0  0  0  0  0  0
  1  6  1  0  0  0  0
  1 22  1  0  0  0  0
  2  1  2  0  0  0  0
  3  4  2  0  0  0  0
  3  2  1  0  0  0  0
  4  5  1  0  0  0  0
  5  9  1  0  0  0  0
  5  6  2  0  0  0  0
  6 24  1  0  0  0  0
  7  3  1  0  0  0  0
  8  4  1  0  0  0  0
 10  2  1  0  0  0  0
 10 12  1  0  0  0  0
 11 10  1  0  0  0  0
 13 10  1  0  0  0  0
 14 19  1  0  0  0  0
 14 13  2  0  0  0  0
 15 14  1  0  0  0  0
 16 15  2  0  0  0  0
 16 17  1  0  0  0  0
 17 18  2  0  0  0  0
 18 13  1  0  0  0  0
 20 15  1  0  0  0  0
 21 17  1  0  0  0  0
 23 22  1  0  0  0  0
 26 24  1  0  0  0  0
 26 25  2  0  0  0  0
 27 26  1  0  0  0  0
 28 27  1  0  0  0  0
 29 27  2  0  0  0  0
 29 35  1  0  0  0  0
 30 32  1  0  0  0  0
 30 29  1  0  0  0  0
 31 30  1  0  0  0  0
 32 34  2  0  0  0  0
 33 32  1  0  0  0  0
 34 35  1  0  0  0  0
 35 36  2  0  0  0  0
 36 25  1  0  0  0  0
M  END
>  <minimizedAffinity>
-6.40843487

$$$$

 OpenBabel03242512193D

 36 39  0  0  0  0  0  0  0  0999 V2000
   36.6550   30.9790   39.8140 C   0  0  0  0  0  0  0  0  0  0  0  0
   37.1080   31.9180   38.9200 C   0  0  0  0  0  0  0  0  0  0  0  0
   37.4090   31.5410   37.6190 C   0  0  0  0  0  0  0  0  0  0  0  0
   37.2460   30.2200   37.2540 C   0  0  0  0  0  0  0  0  0  0  0  0
   36.7910   29.2970   38.1670 C   0  0  0  0  0  0  0  0  0  0  0  0
   36.4870   29.6700   39.4720 C   0  0  0  0  0  0  0  0  0  0  0  0
   37.7550   32.3090   36.9700 H   0  0  0  0  0  0  0  0  0  0  0  0
   37.5010   29.9970   36.2270 H   0  0  0  0  0  0  0  0  0  0  0  0
   36.6950   28.2860   37.7870 H   0  0  0  0  0  0  0  0  0  0  0  0
   37.2280   33.2990   39.4570 C   0  0  0  0  0  0  0  0  0  0  0  0
   37.0180   33.9670   38.5730 H   0  0  0  0  0  0  0  0  0  0  0  0
   36.4900   33.5370   40.1970 H   0  0  0  0  0  0  0  0  0  0  0  0
   38.6500   33.5620   39.8600 C   0  0  0  0  0  0  0  0  0  0  0  0
   38.9610   34.8480   40.3260 C   0  0  0  0  0  0  0  0  0  0  0  0
   40.2730   35.0990   40.7060 C   0  0  0  0  0  0  0  0  0  0  0  0
   41.1710   34.0960   40.6050 N   0  0  0  0  0  0  0  0  0  0  0  0
   40.8440   32.8620   40.1510 C   0  0  0  0  0  0  0  0  0  0  0  0
   39.5840   32.5960   39.7790 N   0  0  0  0  0  0  0  0  0  0  0  0
   38.1780   35.5970   40.3760 H   0  0  0  0  0  0  0  0  0  0  0  0
   40.5280   36.0790   41.0650 H   0  0  0  0  0  0  0  0  0  0  0  0
   41.6510   32.1400   40.1150 H   0  0  0  0  0  0  0  0  0  0  0  0
   36.3250   31.2480   41.1410 O   0  0  0  0  0  0  0  0  0  0  0  0
   36.9650   30.8290   41.8240 H   0  0  0  0  0  0  0  0  0  0  0  0
   36.0290   28.6610   40.3170 O   0  0  0  0  0  0  0  0  0  0  0  0
   36.7410   26.4670   40.4550 C   0  0  0  0  0  3  0  0  0  0  0  0
   36.8360   27.7680   40.9620 C   0  0  0  0  0  0  0  0  0  0  0  0
   37.6860   28.0410   42.0120 C   0  0  0  0  0  0  0  0  0  0  0  0
   37.7170   29.0660   42.3620 H   0  0  0  0  0  0  0  0  0  0  0  0
   38.4440   27.0240   42.5650 C   0  0  0  0  0  0  0  0  0  0  0  0
   39.3280   27.0680   43.5860 N   0  0  0  0  0  0  0  0  0  0  0  0
   39.6340   27.8710   44.1790 H   0  0  0  0  0  0  0  0  0  0  0  0
   39.7890   25.7910   43.7200 C   0  0  0  0  0  0  0  0  0  0  0  0
   40.5270   25.4890   44.4680 H   0  0  0  0  0  0  0  0  0  0  0  0
   39.2000   24.9420   42.7890 C   0  0  0  0  0  3  0  0  0  0  0  0
   38.3350   25.7490   42.0510 C   0  0  0  0  0  0  0  0  0  0  0  0
   37.4940   25.4410   41.0000 C   0  0  0  0  0  3  0  0  0  0  0  0
  1 22  1  0  0  0  0
  2 10  1  0  0  0  0
  2  1  2  0  0  0  0
  3  2  1  0  0  0  0
  4  3  2  0  0  0  0
  4  5  1  0  0  0  0
  5  6  2  0  0  0  0
  6  1  1  0  0  0  0
  6 24  1  0  0  0  0
  7  3  1  0  0  0  0
  8  4  1  0  0  0  0
  9  5  1  0  0  0  0
 10 13  1  0  0  0  0
 10 12  1  0  0  0  0
 11 10  1  0  0  0  0
 13 14  1  0  0  0  0
 14 19  1  0  0  0  0
 14 15  2  0  0  0  0
 15 20  1  0  0  0  0
 16 15  1  0  0  0  0
 17 16  2  0  0  0  0
 18 13  2  0  0  0  0
 18 17  1  0  0  0  0
 21 17  1  0  0  0  0
 22 23  1  0  0  0  0
 24 26  1  0  0  0  0
 25 26  2  0  0  0  0
 25 36  1  0  0  0  0
 26 27  1  0  0  0  0
 27 28  1  0  0  0  0
 27 29  2  0  0  0  0
 29 30  1  0  0  0  0
 30 32  1  0  0  0  0
 30 31  1  0  0  0  0
 32 33  1  0  0  0  0
 34 32  2  0  0  0  0
 35 29  1  0  0  0  0
 35 34  1  0  0  0  0
 36 35  2  0  0  0  0
M  END
>  <minimizedAffinity>
-6.36876106

$$$$

 OpenBabel03242512193D

 36 39  0  0  0  0  0  0  0  0999 V2000
   37.0470   29.2560   42.0410 C   0  0  0  0  0  0  0  0  0  0  0  0
   38.1040   29.0490   42.8920 C   0  0  0  0  0  0  0  0  0  0  0  0
   39.2260   29.8610   42.8060 C   0  0  0  0  0  0  0  0  0  0  0  0
   39.2520   30.8640   41.8590 C   0  0  0  0  0  0  0  0  0  0  0  0
   38.1800   31.0520   41.0160 C   0  0  0  0  0  0  0  0  0  0  0  0
   37.0530   30.2420   41.0990 C   0  0  0  0  0  0  0  0  0  0  0  0
   40.0140   29.6550   43.4900 H   0  0  0  0  0  0  0  0  0  0  0  0
   40.1560   31.4560   41.8480 H   0  0  0  0  0  0  0  0  0  0  0  0
   38.2930   31.8650   40.3070 H   0  0  0  0  0  0  0  0  0  0  0  0
   37.9290   27.9350   43.8610 C   0  0  0  0  0  0  0  0  0  0  0  0
   38.5590   28.2290   44.7490 H   0  0  0  0  0  0  0  0  0  0  0  0
   36.9250   27.8350   44.2230 H   0  0  0  0  0  0  0  0  0  0  0  0
   38.5380   26.6810   43.3050 C   0  0  0  0  0  0  0  0  0  0  0  0
   39.8190   26.3310   43.7560 C   0  0  0  0  0  0  0  0  0  0  0  0
   40.3880   25.1690   43.2500 C   0  0  0  0  0  0  0  0  0  0  0  0
   39.6800   24.4460   42.3570 N   0  0  0  0  0  0  0  0  0  0  0  0
   38.4430   24.8080   41.9380 C   0  0  0  0  0  0  0  0  0  0  0  0
   37.8730   25.9240   42.4120 N   0  0  0  0  0  0  0  0  0  0  0  0
   40.3200   26.9680   44.4760 H   0  0  0  0  0  0  0  0  0  0  0  0
   41.3690   24.8870   43.5850 H   0  0  0  0  0  0  0  0  0  0  0  0
   37.9730   24.1470   41.2180 H   0  0  0  0  0  0  0  0  0  0  0  0
   35.8740   28.5010   42.0390 O   0  0  0  0  0  0  0  0  0  0  0  0
   35.7560   27.9160   41.2060 H   0  0  0  0  0  0  0  0  0  0  0  0
   36.0210   30.5180   40.2040 O   0  0  0  0  0  0  0  0  0  0  0  0
   34.8660   29.1010   38.7910 C   0  0  0  0  0  3  0  0  0  0  0  0
   35.9300   29.9970   38.9450 C   0  0  0  0  0  0  0  0  0  0  0  0
   36.7590   30.2760   37.8800 C   0  0  0  0  0  0  0  0  0  0  0  0
   37.5660   30.9770   38.0590 H   0  0  0  0  0  0  0  0  0  0  0  0
   36.5370   29.6650   36.6580 C   0  0  0  0  0  0  0  0  0  0  0  0
   37.2180   29.7900   35.4980 N   0  0  0  0  0  0  0  0  0  0  0  0
   38.0550   30.3700   35.2660 H   0  0  0  0  0  0  0  0  0  0  0  0
   36.5800   28.9710   34.6140 C   0  0  0  0  0  0  0  0  0  0  0  0
   36.8890   28.8440   33.5740 H   0  0  0  0  0  0  0  0  0  0  0  0
   35.5000   28.3280   35.2110 C   0  0  0  0  0  3  0  0  0  0  0  0
   35.4840   28.7850   36.5280 C   0  0  0  0  0  0  0  0  0  0  0  0
   34.6340   28.4840   37.5740 C   0  0  0  0  0  3  0  0  0  0  0  0
  1  2  1  0  0  0  0
  2 10  1  0  0  0  0
  3  2  2  0  0  0  0
  3  7  1  0  0  0  0
  4  3  1  0  0  0  0
  5  6  1  0  0  0  0
  5  4  2  0  0  0  0
  6  1  2  0  0  0  0
  8  4  1  0  0  0  0
  9  5  1  0  0  0  0
 10 12  1  0  0  0  0
 10 11  1  0  0  0  0
 13 14  1  0  0  0  0
 13 10  1  0  0  0  0
 14 19  1  0  0  0  0
 15 20  1  0  0  0  0
 15 14  2  0  0  0  0
 16 15  1  0  0  0  0
 17 16  2  0  0  0  0
 17 18  1  0  0  0  0
 18 13  2  0  0  0  0
 21 17  1  0  0  0  0
 22  1  1  0  0  0  0
 23 22  1  0  0  0  0
 24  6  1  0  0  0  0
 25 26  1  0  0  0  0
 26 24  1  0  0  0  0
 27 28  1  0  0  0  0
 27 26  2  0  0  0  0
 29 27  1  0  0  0  0
 30 29  1  0  0  0  0
 31 30  1  0  0  0  0
 32 34  2  0  0  0  0
 32 30  1  0  0  0  0
 33 32  1  0  0  0  0
 34 35  1  0  0  0  0
 35 29  2  0  0  0  0
 35 36  1  0  0  0  0
 36 25  2  0  0  0  0
M  END
>  <minimizedAffinity>
-6.21579123

$$$$

 OpenBabel03242512193D

 36 39  0  0  0  0  0  0  0  0999 V2000
   38.8680   27.8350   41.4000 C   0  0  0  0  0  0  0  0  0  0  0  0
   39.0410   27.0400   42.5050 C   0  0  0  0  0  0  0  0  0  0  0  0
   38.3300   27.3100   43.6660 C   0  0  0  0  0  0  0  0  0  0  0  0
   37.4610   28.3820   43.6810 C   0  0  0  0  0  0  0  0  0  0  0  0
   37.3050   29.1660   42.5610 C   0  0  0  0  0  0  0  0  0  0  0  0
   38.0140   28.8980   41.3940 C   0  0  0  0  0  0  0  0  0  0  0  0
   38.5030   26.6610   44.4900 H   0  0  0  0  0  0  0  0  0  0  0  0
   36.9430   28.5340   44.6170 H   0  0  0  0  0  0  0  0  0  0  0  0
   36.6000   29.9830   42.6690 H   0  0  0  0  0  0  0  0  0  0  0  0
   40.0060   25.9210   42.3370 C   0  0  0  0  0  0  0  0  0  0  0  0
   40.8790   26.3790   41.7890 H   0  0  0  0  0  0  0  0  0  0  0  0
   40.3940   25.5470   43.2630 H   0  0  0  0  0  0  0  0  0  0  0  0
   39.4240   24.8860   41.4190 C   0  0  0  0  0  0  0  0  0  0  0  0
   38.2840   24.1980   41.8620 C   0  0  0  0  0  0  0  0  0  0  0  0
   37.7370   23.2420   41.0170 C   0  0  0  0  0  0  0  0  0  0  0  0
   38.3290   23.0290   39.8230 N   0  0  0  0  0  0  0  0  0  0  0  0
   39.4300   23.7070   39.4200 C   0  0  0  0  0  0  0  0  0  0  0  0
   39.9760   24.6350   40.2170 N   0  0  0  0  0  0  0  0  0  0  0  0
   37.8700   24.4310   42.8370 H   0  0  0  0  0  0  0  0  0  0  0  0
   36.8640   22.7060   41.3410 H   0  0  0  0  0  0  0  0  0  0  0  0
   39.8150   23.4480   38.4400 H   0  0  0  0  0  0  0  0  0  0  0  0
   39.5290   27.6550   40.1860 O   0  0  0  0  0  0  0  0  0  0  0  0
   40.2060   28.3930   39.9660 H   0  0  0  0  0  0  0  0  0  0  0  0
   37.7800   29.7490   40.3160 O   0  0  0  0  0  0  0  0  0  0  0  0
   37.0890   31.8920   39.7980 C   0  0  0  0  0  3  0  0  0  0  0  0
   38.1130   31.0730   40.2890 C   0  0  0  0  0  0  0  0  0  0  0  0
   39.3100   31.6260   40.6870 C   0  0  0  0  0  0  0  0  0  0  0  0
   40.0650   30.9420   41.0580 H   0  0  0  0  0  0  0  0  0  0  0  0
   39.4990   32.9940   40.5990 C   0  0  0  0  0  0  0  0  0  0  0  0
   40.5780   33.7360   40.9280 N   0  0  0  0  0  0  0  0  0  0  0  0
   41.5030   33.4460   41.3190 H   0  0  0  0  0  0  0  0  0  0  0  0
   40.2320   35.0240   40.6440 C   0  0  0  0  0  0  0  0  0  0  0  0
   40.8960   35.8790   40.7990 H   0  0  0  0  0  0  0  0  0  0  0  0
   38.9390   35.0990   40.1360 C   0  0  0  0  0  3  0  0  0  0  0  0
   38.4780   33.7830   40.1120 C   0  0  0  0  0  0  0  0  0  0  0  0
   37.2660   33.2620   39.7050 C   0  0  0  0  0  3  0  0  0  0  0  0
  1  2  1  0  0  0  0
  2  3  2  0  0  0  0
  3  4  1  0  0  0  0
  3  7  1  0  0  0  0
  4  8  1  0  0  0  0
  5  9  1  0  0  0  0
  5  4  2  0  0  0  0
  6  1  2  0  0  0  0
  6  5  1  0  0  0  0
 10  2  1  0  0  0  0
 10 12  1  0  0  0  0
 11 10  1  0  0  0  0
 13 14  1  0  0  0  0
 13 10  1  0  0  0  0
 14 19  1  0  0  0  0
 15 20  1  0  0  0  0
 15 14  2  0  0  0  0
 16 15  1  0  0  0  0
 17 16  2  0  0  0  0
 17 18  1  0  0  0  0
 18 13  2  0  0  0  0
 21 17  1  0  0  0  0
 22  1  1  0  0  0  0
 23 22  1  0  0  0  0
 24  6  1  0  0  0  0
 25 26  1  0  0  0  0
 26 24  1  0  0  0  0
 26 27  2  0  0  0  0
 27 28  1  0  0  0  0
 29 27  1  0  0  0  0
 29 30  1  0  0  0  0
 30 31  1  0  0  0  0
 32 33  1  0  0  0  0
 32 30  1  0  0  0  0
 34 32  2  0  0  0  0
 35 34  1  0  0  0  0
 35 29  2  0  0  0  0
 36 25  2  0  0  0  0
 36 35  1  0  0  0  0
M  END
>  <minimizedAffinity>
-6.16284609

$$$$

 OpenBabel03242512193D

 36 39  0  0  0  0  0  0  0  0999 V2000
   37.5730   30.7330   41.2590 C   0  0  0  0  0  0  0  0  0  0  0  0
   38.5490   31.6940   41.1720 C   0  0  0  0  0  0  0  0  0  0  0  0
   39.7350   31.5360   41.8760 C   0  0  0  0  0  0  0  0  0  0  0  0
   39.9040   30.4090   42.6530 C   0  0  0  0  0  0  0  0  0  0  0  0
   38.9110   29.4590   42.7250 C   0  0  0  0  0  0  0  0  0  0  0  0
   37.7210   29.6110   42.0210 C   0  0  0  0  0  0  0  0  0  0  0  0
   40.4560   32.3110   41.7710 H   0  0  0  0  0  0  0  0  0  0  0  0
   40.8500   30.3520   43.1730 H   0  0  0  0  0  0  0  0  0  0  0  0
   39.1360   28.6090   43.3600 H   0  0  0  0  0  0  0  0  0  0  0  0
   38.2260   32.8490   40.2930 C   0  0  0  0  0  0  0  0  0  0  0  0
   37.5590   32.4190   39.4920 H   0  0  0  0  0  0  0  0  0  0  0  0
   37.6560   33.6130   40.7820 H   0  0  0  0  0  0  0  0  0  0  0  0
   39.4710   33.3200   39.6010 C   0  0  0  0  0  0  0  0  0  0  0  0
   40.0170   34.5440   40.0170 C   0  0  0  0  0  0  0  0  0  0  0  0
   41.1730   34.9850   39.3850 C   0  0  0  0  0  0  0  0  0  0  0  0
   41.7030   34.2160   38.4100 N   0  0  0  0  0  0  0  0  0  0  0  0
   41.1550   33.0380   38.0280 C   0  0  0  0  0  0  0  0  0  0  0  0
   40.0400   32.5910   38.6230 N   0  0  0  0  0  0  0  0  0  0  0  0
   39.5280   35.1000   40.8090 H   0  0  0  0  0  0  0  0  0  0  0  0
   41.6030   35.9210   39.6920 H   0  0  0  0  0  0  0  0  0  0  0  0
   41.6700   32.5090   37.2340 H   0  0  0  0  0  0  0  0  0  0  0  0
   36.3470   30.7900   40.5970 O   0  0  0  0  0  0  0  0  0  0  0  0
   35.5430   30.9220   41.2200 H   0  0  0  0  0  0  0  0  0  0  0  0
   36.7820   28.5910   42.1580 O   0  0  0  0  0  0  0  0  0  0  0  0
   36.5340   27.3310   40.2370 C   0  0  0  0  0  3  0  0  0  0  0  0
   36.8950   27.3550   41.5890 C   0  0  0  0  0  0  0  0  0  0  0  0
   37.3140   26.2000   42.2140 C   0  0  0  0  0  0  0  0  0  0  0  0
   37.5800   26.2800   43.2610 H   0  0  0  0  0  0  0  0  0  0  0  0
   37.3760   25.0160   41.4990 C   0  0  0  0  0  0  0  0  0  0  0  0
   37.7520   23.7850   41.9080 N   0  0  0  0  0  0  0  0  0  0  0  0
   38.0770   23.4540   42.8440 H   0  0  0  0  0  0  0  0  0  0  0  0
   37.6270   22.9860   40.8100 C   0  0  0  0  0  0  0  0  0  0  0  0
   37.8570   21.9180   40.8080 H   0  0  0  0  0  0  0  0  0  0  0  0
   37.1730   23.7080   39.7100 C   0  0  0  0  0  3  0  0  0  0  0  0
   37.0150   25.0150   40.1690 C   0  0  0  0  0  0  0  0  0  0  0  0
   36.5910   26.1530   39.5130 C   0  0  0  0  0  3  0  0  0  0  0  0
  1  6  1  0  0  0  0
  2  1  2  0  0  0  0
  2  3  1  0  0  0  0
  3  4  2  0  0  0  0
  4  5  1  0  0  0  0
  4  8  1  0  0  0  0
  5  9  1  0  0  0  0
  6 24  1  0  0  0  0
  6  5  2  0  0  0  0
  7  3  1  0  0  0  0
 10 12  1  0  0  0  0
 10  2  1  0  0  0  0
 11 10  1  0  0  0  0
 13 14  1  0  0  0  0
 13 10  1  0  0  0  0
 14 19  1  0  0  0  0
 15 20  1  0  0  0  0
 15 14  2  0  0  0  0
 16 15  1  0  0  0  0
 17 16  2  0  0  0  0
 17 18  1  0  0  0  0
 18 13  2  0  0  0  0
 21 17  1  0  0  0  0
 22 23  1  0  0  0  0
 22  1  1  0  0  0  0
 25 26  1  0  0  0  0
 26 24  1  0  0  0  0
 26 27  2  0  0  0  0
 27 28  1  0  0  0  0
 29 30  1  0  0  0  0
 29 27  1  0  0  0  0
 30 31  1  0  0  0  0
 32 30  1  0  0  0  0
 33 32  1  0  0  0  0
 34 35  1  0  0  0  0
 34 32  2  0  0  0  0
 35 29  2  0  0  0  0
 36 35  1  0  0  0  0
 36 25  2  0  0  0  0
M  END
>  <minimizedAffinity>
-6.11280251

$$$$
