
 OpenBabel03242512173D

 36 39  0  0  0  0  0  0  0  0999 V2000
   48.5400   33.0410   41.2380 C   0  0  0  0  0  0  0  0  0  0  0  0
   48.1920   34.2590   41.7680 C   0  0  0  0  0  0  0  0  0  0  0  0
   49.1290   34.9940   42.4790 C   0  0  0  0  0  0  0  0  0  0  0  0
   50.3990   34.4780   42.6400 C   0  0  0  0  0  0  0  0  0  0  0  0
   50.7250   33.2540   42.1000 C   0  0  0  0  0  0  0  0  0  0  0  0
   49.7900   32.5140   41.3850 C   0  0  0  0  0  0  0  0  0  0  0  0
   48.8040   35.9300   42.8660 H   0  0  0  0  0  0  0  0  0  0  0  0
   51.0760   35.1020   43.2050 H   0  0  0  0  0  0  0  0  0  0  0  0
   51.7460   32.9340   42.2790 H   0  0  0  0  0  0  0  0  0  0  0  0
   46.7910   34.6850   41.5090 C   0  0  0  0  0  0  0  0  0  0  0  0
   46.8860   35.7130   41.0530 H   0  0  0  0  0  0  0  0  0  0  0  0
   46.2860   34.0790   40.7830 H   0  0  0  0  0  0  0  0  0  0  0  0
   46.0690   34.8640   42.8120 C   0  0  0  0  0  0  0  0  0  0  0  0
   46.1630   33.8250   43.7500 C   0  0  0  0  0  0  0  0  0  0  0  0
   45.5010   33.9850   44.9610 C   0  0  0  0  0  0  0  0  0  0  0  0
   44.8070   35.1240   45.1650 N   0  0  0  0  0  0  0  0  0  0  0  0
   44.7320   36.1120   44.2410 C   0  0  0  0  0  0  0  0  0  0  0  0
   45.3620   35.9820   43.0660 N   0  0  0  0  0  0  0  0  0  0  0  0
   46.7430   32.9420   43.5060 H   0  0  0  0  0  0  0  0  0  0  0  0
   45.5640   33.1980   45.6900 H   0  0  0  0  0  0  0  0  0  0  0  0
   44.1440   36.9790   44.5200 H   0  0  0  0  0  0  0  0  0  0  0  0
   47.6800   32.2210   40.5090 O   0  0  0  0  0  0  0  0  0  0  0  0
   47.4240   31.3530   40.9900 H   0  0  0  0  0  0  0  0  0  0  0  0
   50.2220   31.2910   40.8770 O   0  0  0  0  0  0  0  0  0  0  0  0
   51.0710   31.6980   38.7670 C   0  0  0  0  0  0  0  0  0  0  0  0
   51.2820   31.1360   40.0310 C   0  0  0  0  0  0  0  0  0  0  0  0
   52.4740   30.5060   40.3180 C   0  0  0  0  0  0  0  0  0  0  0  0
   52.5800   30.0900   41.3120 H   0  0  0  0  0  0  0  0  0  0  0  0
   53.4610   30.4290   39.3500 C   0  0  0  0  0  0  0  0  0  0  0  0
   54.6860   29.8640   39.4140 N   0  0  0  0  0  0  0  0  0  0  0  0
   55.1590   29.3650   40.2020 H   0  0  0  0  0  0  0  0  0  0  0  0
   55.2450   30.0720   38.1880 C   0  0  0  0  0  0  0  0  0  0  0  0
   56.2470   29.7320   37.9130 H   0  0  0  0  0  0  0  0  0  0  0  0
   54.3780   30.7650   37.3490 C   0  0  0  0  0  0  0  0  0  0  0  0
   53.2320   30.9890   38.1110 C   0  0  0  0  0  0  0  0  0  0  0  0
   52.0500   31.6280   37.7910 C   0  0  0  0  0  0  0  0  0  0  0  0
  1  6  2  0  0  0  0
  1  2  1  0  0  0  0
  2  3  2  0  0  0  0
  3  4  1  0  0  0  0
  3  7  1  0  0  0  0
  4  8  1  0  0  0  0
  5  9  1  0  0  0  0
  5  4  2  0  0  0  0
  6  5  1  0  0  0  0
 10  2  1  0  0  0  0
 10 13  1  0  0  0  0
 11 10  1  0  0  0  0
 12 10  1  0  0  0  0
 13 18  2  0  0  0  0
 13 14  1  0  0  0  0
 14 15  2  0  0  0  0
 15 16  1  0  0  0  0
 15 20  1  0  0  0  0
 17 21  1  0  0  0  0
 17 16  2  0  0  0  0
 18 17  1  0  0  0  0
 19 14  1  0  0  0  0
 22 23  1  0  0  0  0
 22  1  1  0  0  0  0
 24  6  1  0  0  0  0
 25 26  1  0  0  0  0
 26 27  2  0  0  0  0
 26 24  1  0  0  0  0
 27 28  1  0  0  0  0
 29 30  1  0  0  0  0
 29 27  1  0  0  0  0
 30 31  1  0  0  0  0
 32 30  1  0  0  0  0
 33 32  1  0  0  0  0
 34 35  1  0  0  0  0
 34 32  2  0  0  0  0
 35 29  2  0  0  0  0
 36 35  1  0  0  0  0
 36 25  2  0  0  0  0
M  END
>  <minimizedAffinity>
-5.66806889

>  <minimizedRMSD>
2.14767742

$$$$
