
 OpenBabel03252502523D

 34 37  0  0  0  0  0  0  0  0999 V2000
   47.0650   30.9060   42.4310 Br  0  0  0  0  0  0  0  0  0  0  0  0
   48.5190   32.1720   42.4230 C   0  0  0  0  0  0  0  0  0  0  0  0
   49.7930   31.6380   42.5420 C   0  0  0  0  0  0  0  0  0  0  0  0
   50.8040   32.5900   42.5310 C   0  0  0  0  0  0  0  0  0  0  0  0
   50.6010   33.9510   42.4160 C   0  0  0  0  0  0  0  0  0  0  0  0
   49.3090   34.3980   42.3030 C   0  0  0  0  0  0  0  0  0  0  0  0
   48.2340   33.5080   42.3040 C   0  0  0  0  0  0  0  0  0  0  0  0
   51.8350   32.2620   42.6190 H   0  0  0  0  0  0  0  0  0  0  0  0
   51.4320   34.6220   42.4160 H   0  0  0  0  0  0  0  0  0  0  0  0
   49.1810   35.4690   42.2140 H   0  0  0  0  0  0  0  0  0  0  0  0
   46.3840   34.5750   43.3440 C   0  0  0  0  0  3  0  0  0  0  0  0
   46.9010   34.0380   42.1820 C   0  0  0  0  0  0  0  0  0  0  0  0
   46.1020   34.0710   41.0660 C   0  0  0  0  0  0  0  0  0  0  0  0
   46.5340   33.6440   40.1730 H   0  0  0  0  0  0  0  0  0  0  0  0
   44.8430   34.6020   41.0590 C   0  0  0  0  0  0  0  0  0  0  0  0
   43.9780   34.6920   40.0510 N   0  0  0  0  0  0  0  0  0  0  0  0
   44.1200   34.3630   39.0680 H   0  0  0  0  0  0  0  0  0  0  0  0
   42.8750   35.2860   40.5130 C   0  0  0  0  0  0  0  0  0  0  0  0
   41.9980   35.4910   39.9090 H   0  0  0  0  0  0  0  0  0  0  0  0
   43.0610   35.5750   41.8580 C   0  0  0  0  0  3  0  0  0  0  0  0
   44.3210   35.1400   42.2170 C   0  0  0  0  0  0  0  0  0  0  0  0
   45.1120   35.1140   43.3470 C   0  0  0  0  0  3  0  0  0  0  0  0
   50.1290   30.2260   42.6700 C   0  0  0  0  0  0  0  0  0  0  0  0
   50.8870   30.0680   43.4600 H   0  0  0  0  0  0  0  0  0  0  0  0
   49.1890   29.6830   42.9770 H   0  0  0  0  0  0  0  0  0  0  0  0
   52.0150   29.2690   39.5810 C   0  0  0  0  0  0  0  0  0  0  0  0
   51.1280   28.3660   38.9790 C   0  0  0  0  0  0  0  0  0  0  0  0
   49.9310   28.1040   39.6230 C   0  0  0  0  0  0  0  0  0  0  0  0
   49.6520   28.7260   40.8070 N   0  0  0  0  0  0  0  0  0  0  0  0
   50.5380   29.6030   41.3700 C   0  0  0  0  0  0  0  0  0  0  0  0
   51.7050   29.8520   40.7340 N   0  0  0  0  0  0  0  0  0  0  0  0
   52.9470   29.4840   39.0970 H   0  0  0  0  0  0  0  0  0  0  0  0
   51.3440   27.8700   38.0420 H   0  0  0  0  0  0  0  0  0  0  0  0
   49.1780   27.4200   39.2370 H   0  0  0  0  0  0  0  0  0  0  0  0
  2  1  1  0  0  0  0
  2  3  1  0  0  0  0
  3 23  1  0  0  0  0
  4  3  2  0  0  0  0
  4  8  1  0  0  0  0
  5  4  1  0  0  0  0
  6  7  1  0  0  0  0
  6  5  2  0  0  0  0
  7  2  2  0  0  0  0
  9  5  1  0  0  0  0
 10  6  1  0  0  0  0
 11 22  1  0  0  0  0
 12  7  1  0  0  0  0
 12 11  2  0  0  0  0
 13 12  1  0  0  0  0
 14 13  1  0  0  0  0
 15 13  2  0  0  0  0
 15 21  1  0  0  0  0
 16 18  1  0  0  0  0
 16 15  1  0  0  0  0
 17 16  1  0  0  0  0
 18 20  2  0  0  0  0
 19 18  1  0  0  0  0
 20 21  1  0  0  0  0
 21 22  2  0  0  0  0
 23 25  1  0  0  0  0
 23 24  1  0  0  0  0
 26 31  1  0  0  0  0
 27 26  2  0  0  0  0
 27 28  1  0  0  0  0
 28 29  2  0  0  0  0
 29 30  1  0  0  0  0
 30 23  1  0  0  0  0
 31 30  2  0  0  0  0
 32 26  1  0  0  0  0
 33 27  1  0  0  0  0
 34 28  1  0  0  0  0
M  END
>  <minimizedAffinity>
-4.79228067

>  <minimizedRMSD>
8.78769302

$$$$
