
 OpenBabel03242522423D

 50 54  0  0  0  0  0  0  0  0999 V2000
   46.5020   32.3420   44.6600 C   0  0  0  0  0  0  0  0  0  0  0  0
   46.1710   31.7670   43.7340 H   0  0  0  0  0  0  0  0  0  0  0  0
   47.5640   32.4560   44.7820 H   0  0  0  0  0  0  0  0  0  0  0  0
   45.7620   34.0910   43.1300 C   0  0  0  0  0  0  0  0  0  0  0  0
   45.8340   33.6320   44.4440 C   0  0  0  0  0  0  0  0  0  0  0  0
   45.3170   34.2580   45.5130 C   0  0  0  0  0  0  0  0  0  0  0  0
   44.6570   35.4520   45.3180 C   0  0  0  0  0  0  0  0  0  0  0  0
   44.5230   35.9950   44.0780 C   0  0  0  0  0  0  0  0  0  0  0  0
   45.0760   35.3060   43.0120 C   0  0  0  0  0  0  0  0  0  0  0  0
   45.2990   34.0080   46.5340 H   0  0  0  0  0  0  0  0  0  0  0  0
   44.1900   36.0670   46.0900 H   0  0  0  0  0  0  0  0  0  0  0  0
   44.0130   36.9340   43.8380 H   0  0  0  0  0  0  0  0  0  0  0  0
   44.9810   35.7190   42.0090 H   0  0  0  0  0  0  0  0  0  0  0  0
   46.3750   33.3200   41.7320 S   0  0  0  0  0  0  0  0  0  0  0  0
   46.2990   34.3380   40.5360 O   0  0  0  0  0  0  0  0  0  0  0  0
   45.4460   32.2400   41.2830 O   0  0  0  0  0  0  0  0  0  0  0  0
   49.0900   33.5490   42.3690 C   0  0  0  0  0  3  0  0  0  0  0  0
   48.0540   32.9740   41.6010 C   0  0  0  0  0  0  0  0  0  0  0  0
   48.6340   32.0490   40.7110 C   0  0  0  0  0  0  0  0  0  0  0  0
   47.9140   31.5310   40.0540 H   0  0  0  0  0  0  0  0  0  0  0  0
   49.9670   31.7450   40.5960 C   0  0  0  0  0  0  0  0  0  0  0  0
   50.5720   30.8750   39.7670 N   0  0  0  0  0  0  0  0  0  0  0  0
   50.1690   30.2420   39.0360 H   0  0  0  0  0  0  0  0  0  0  0  0
   51.8850   30.9470   40.0450 C   0  0  0  0  0  0  0  0  0  0  0  0
   52.7100   30.4070   39.6010 H   0  0  0  0  0  0  0  0  0  0  0  0
   52.0860   31.8790   41.0630 C   0  0  0  0  0  3  0  0  0  0  0  0
   50.8480   32.3810   41.4040 C   0  0  0  0  0  0  0  0  0  0  0  0
   50.4270   33.3050   42.3160 C   0  0  0  0  0  3  0  0  0  0  0  0
   45.9160   31.4730   45.7260 C   0  0  0  0  0  0  0  0  0  0  0  0
   44.9070   31.8010   46.0950 H   0  0  0  0  0  0  0  0  0  0  0  0
   45.6650   30.4220   45.3840 H   0  0  0  0  0  0  0  0  0  0  0  0
   47.2120   32.3500   47.6430 C   0  0  0  0  0  0  0  0  0  0  0  0
   46.9180   31.2800   46.7690 C   0  0  0  0  0  0  0  0  0  0  0  0
   47.5720   30.0800   46.9730 C   0  0  0  0  0  0  0  0  0  0  0  0
   48.4530   29.9910   47.9940 N   0  0  0  0  0  0  0  0  0  0  0  0
   48.7070   31.0160   48.8060 C   0  0  0  0  0  0  0  0  0  0  0  0
   48.0950   32.2110   48.6470 N   0  0  0  0  0  0  0  0  0  0  0  0
   46.8200   33.3500   47.6490 H   0  0  0  0  0  0  0  0  0  0  0  0
   47.3430   29.2660   46.2970 H   0  0  0  0  0  0  0  0  0  0  0  0
   49.6920   30.8220   49.9230 C   0  0  0  0  0  0  0  0  0  0  0  0
   49.2230   31.1310   50.8990 H   0  0  0  0  0  0  0  0  0  0  0  0
   49.8930   29.7400   50.0510 H   0  0  0  0  0  0  0  0  0  0  0  0
   50.9490   31.5220   49.7130 C   0  0  0  0  0  0  0  0  0  0  0  0
   52.0540   31.0170   49.0560 C   0  0  0  0  0  0  0  0  0  0  0  0
   53.0450   31.9610   49.0580 C   0  0  0  0  0  0  0  0  0  0  0  0
   52.5040   33.0250   49.7260 N   0  0  0  0  0  0  0  0  0  0  0  0
   51.2590   32.7700   50.1180 N   0  0  0  0  0  0  0  0  0  0  0  0
   52.2090   30.0470   48.5820 H   0  0  0  0  0  0  0  0  0  0  0  0
   54.0560   32.0210   48.6780 H   0  0  0  0  0  0  0  0  0  0  0  0
   52.9010   33.9730   49.9690 H   0  0  0  0  0  0  0  0  0  0  0  0
  1  3  1  0  0  0  0
  1 29  1  0  0  0  0
  2  1  1  0  0  0  0
  4  5  1  0  0  0  0
  5  1  1  0  0  0  0
  5  6  2  0  0  0  0
  6 10  1  0  0  0  0
  7  6  1  0  0  0  0
  7 11  1  0  0  0  0
  8  7  2  0  0  0  0
  9  4  2  0  0  0  0
  9  8  1  0  0  0  0
 12  8  1  0  0  0  0
 13  9  1  0  0  0  0
 14  4  1  0  0  0  0
 15 14  2  0  0  0  0
 16 14  2  0  0  0  0
 18 14  1  0  0  0  0
 18 17  2  0  0  0  0
 19 18  1  0  0  0  0
 20 19  1  0  0  0  0
 21 19  2  0  0  0  0
 21 27  1  0  0  0  0
 22 24  1  0  0  0  0
 22 21  1  0  0  0  0
 23 22  1  0  0  0  0
 24 26  2  0  0  0  0
 25 24  1  0  0  0  0
 26 27  1  0  0  0  0
 27 28  2  0  0  0  0
 28 17  1  0  0  0  0
 29 30  1  0  0  0  0
 29 33  1  0  0  0  0
 31 29  1  0  0  0  0
 32 38  1  0  0  0  0
 32 37  1  0  0  0  0
 33 34  1  0  0  0  0
 33 32  2  0  0  0  0
 34 35  2  0  0  0  0
 35 36  1  0  0  0  0
 36 40  1  0  0  0  0
 37 36  2  0  0  0  0
 39 34  1  0  0  0  0
 40 42  1  0  0  0  0
 40 41  1  0  0  0  0
 43 40  1  0  0  0  0
 43 47  2  0  0  0  0
 44 45  2  0  0  0  0
 44 43  1  0  0  0  0
 45 46  1  0  0  0  0
 46 50  1  0  0  0  0
 46 47  1  0  0  0  0
 48 44  1  0  0  0  0
 49 45  1  0  0  0  0
M  END
>  <minimizedAffinity>
-6.52606773

>  <minimizedRMSD>
1.07827485

$$$$
