
 OpenBabel03242518563D

 45 48  0  0  1  0  0  0  0  0999 V2000
   35.7000   27.2530   37.5000 C   0  0  2  0  0  0  0  0  0  0  0  0
   35.6080   27.1910   36.0080 C   0  0  0  0  0  0  0  0  0  0  0  0
   34.2270   27.6130   35.6400 C   0  0  0  0  0  0  0  0  0  0  0  0
   33.2980   27.8460   36.7720 C   0  0  0  0  0  0  0  0  0  0  0  0
   33.8810   28.8740   37.7320 C   0  0  0  0  0  0  0  0  0  0  0  0
   35.2910   28.6330   37.9630 C   0  0  2  0  0  0  0  0  0  0  0  0
   34.9310   26.5840   37.9390 H   0  0  0  0  0  0  0  0  0  0  0  0
   35.8010   26.1130   35.7220 H   0  0  0  0  0  0  0  0  0  0  0  0
   36.3910   27.7570   35.4870 H   0  0  0  0  0  0  0  0  0  0  0  0
   33.7690   26.7710   35.0360 H   0  0  0  0  0  0  0  0  0  0  0  0
   34.1840   28.4730   34.9240 H   0  0  0  0  0  0  0  0  0  0  0  0
   32.9890   26.9420   37.3100 H   0  0  0  0  0  0  0  0  0  0  0  0
   32.3550   28.2540   36.3250 H   0  0  0  0  0  0  0  0  0  0  0  0
   33.3410   28.7410   38.7280 H   0  0  0  0  0  0  0  0  0  0  0  0
   33.5310   29.8540   37.3930 H   0  0  0  0  0  0  0  0  0  0  0  0
   35.5600   28.7170   39.0280 H   0  0  0  0  0  0  0  0  0  0  0  0
   36.0470   29.6660   37.2040 C   0  0  0  0  0  0  0  0  0  0  0  0
   35.4250   30.2580   36.4990 H   0  0  0  0  0  0  0  0  0  0  0  0
   36.8720   29.2140   36.5740 H   0  0  0  0  0  0  0  0  0  0  0  0
   36.3700   30.5150   39.4890 C   0  0  0  0  0  3  0  0  0  0  0  0
   36.7430   30.5720   38.1420 C   0  0  0  0  0  0  0  0  0  0  0  0
   37.7560   31.4720   37.9070 C   0  0  0  0  0  0  0  0  0  0  0  0
   38.1120   31.5580   36.8900 H   0  0  0  0  0  0  0  0  0  0  0  0
   38.3310   32.2270   38.8920 C   0  0  0  0  0  0  0  0  0  0  0  0
   39.3180   33.1380   38.8100 N   0  0  0  0  0  0  0  0  0  0  0  0
   39.8770   33.4860   38.0000 H   0  0  0  0  0  0  0  0  0  0  0  0
   39.5520   33.6260   40.0410 C   0  0  0  0  0  0  0  0  0  0  0  0
   40.2470   34.3660   40.4360 H   0  0  0  0  0  0  0  0  0  0  0  0
   38.6880   33.0120   40.9490 C   0  0  0  0  0  3  0  0  0  0  0  0
   37.9310   32.1370   40.2050 C   0  0  0  0  0  0  0  0  0  0  0  0
   36.9190   31.2530   40.5160 C   0  0  0  0  0  3  0  0  0  0  0  0
   37.0050   26.8130   38.0470 C   0  0  0  0  0  0  0  0  0  0  0  0
   38.0820   26.9000   37.4080 O   0  0  0  0  0  0  0  0  0  0  0  0
   36.9400   24.4200   40.8040 C   0  0  0  0  0  0  0  0  0  0  0  0
   36.9760   25.2210   41.9670 C   0  0  0  0  0  0  0  0  0  0  0  0
   37.0290   26.5890   41.7700 C   0  0  0  0  0  0  0  0  0  0  0  0
   37.0400   26.9820   40.4920 N   0  0  0  0  0  0  0  0  0  0  0  0
   37.0050   26.2480   39.4070 C   0  0  0  0  0  0  0  0  0  0  0  0
   36.9540   24.9180   39.5780 N   0  0  0  0  0  0  0  0  0  0  0  0
   36.8970   23.3280   40.9470 H   0  0  0  0  0  0  0  0  0  0  0  0
   36.9640   24.7970   42.9410 H   0  0  0  0  0  0  0  0  0  0  0  0
   37.0600   27.4370   42.9570 C   0  0  0  0  0  0  0  0  0  0  0  0
   37.1960   28.7530   42.5930 F   0  0  0  0  0  0  0  0  0  0  0  0
   38.1450   27.0570   43.6800 F   0  0  0  0  0  0  0  0  0  0  0  0
   35.8760   27.3500   43.6800 F   0  0  0  0  0  0  0  0  0  0  0  0
  1  7  1  1  0  0  0
  1  6  1  0  0  0  0
  1 32  1  0  0  0  0
  2  1  1  0  0  0  0
  3  2  1  0  0  0  0
  3  4  1  0  0  0  0
  4 12  1  0  0  0  0
  4  5  1  0  0  0  0
  5  6  1  0  0  0  0
  5 14  1  0  0  0  0
  6 16  1  1  0  0  0
  8  2  1  0  0  0  0
  9  2  1  0  0  0  0
 10  3  1  0  0  0  0
 11  3  1  0  0  0  0
 13  4  1  0  0  0  0
 15  5  1  0  0  0  0
 17  6  1  0  0  0  0
 17 21  1  0  0  0  0
 18 17  1  0  0  0  0
 19 17  1  0  0  0  0
 20 31  1  0  0  0  0
 21 20  2  0  0  0  0
 22 21  1  0  0  0  0
 22 24  2  0  0  0  0
 23 22  1  0  0  0  0
 24 30  1  0  0  0  0
 25 24  1  0  0  0  0
 25 27  1  0  0  0  0
 26 25  1  0  0  0  0
 27 28  1  0  0  0  0
 27 29  2  0  0  0  0
 30 31  2  0  0  0  0
 30 29  1  0  0  0  0
 32 38  1  0  0  0  0
 33 32  2  0  0  0  0
 34 40  1  0  0  0  0
 34 35  1  0  0  0  0
 35 41  1  0  0  0  0
 36 35  2  0  0  0  0
 36 42  1  0  0  0  0
 37 36  1  0  0  0  0
 38 39  1  0  0  0  0
 38 37  2  0  0  0  0
 39 34  2  0  0  0  0
 42 44  1  0  0  0  0
 42 45  1  0  0  0  0
 43 42  1  0  0  0  0
M  END
>  <minimizedAffinity>
-6.47213173

$$$$

 OpenBabel03242518563D

 45 48  0  0  1  0  0  0  0  0999 V2000
   37.6480   31.3820   40.4940 C   0  0  2  0  0  0  0  0  0  0  0  0
   37.0320   32.5970   39.8740 C   0  0  0  0  0  0  0  0  0  0  0  0
   38.0210   33.7040   40.0100 C   0  0  0  0  0  0  0  0  0  0  0  0
   39.2380   33.3900   40.7970 C   0  0  0  0  0  0  0  0  0  0  0  0
   39.9460   32.1750   40.2130 C   0  0  0  0  0  0  0  0  0  0  0  0
   38.9990   31.1370   39.8610 C   0  0  2  0  0  0  0  0  0  0  0  0
   37.8850   31.5980   41.5560 H   0  0  0  0  0  0  0  0  0  0  0  0
   36.0890   32.8100   40.4610 H   0  0  0  0  0  0  0  0  0  0  0  0
   36.6850   32.4470   38.8430 H   0  0  0  0  0  0  0  0  0  0  0  0
   37.5060   34.5460   40.5660 H   0  0  0  0  0  0  0  0  0  0  0  0
   38.3030   34.1920   39.0430 H   0  0  0  0  0  0  0  0  0  0  0  0
   39.0740   33.2660   41.8740 H   0  0  0  0  0  0  0  0  0  0  0  0
   39.9080   34.2840   40.7070 H   0  0  0  0  0  0  0  0  0  0  0  0
   40.6230   31.7610   41.0320 H   0  0  0  0  0  0  0  0  0  0  0  0
   40.6610   32.5530   39.4740 H   0  0  0  0  0  0  0  0  0  0  0  0
   39.3370   30.1380   40.1810 H   0  0  0  0  0  0  0  0  0  0  0  0
   38.8720   31.1380   38.3770 C   0  0  0  0  0  0  0  0  0  0  0  0
   38.5580   32.1140   37.9490 H   0  0  0  0  0  0  0  0  0  0  0  0
   38.1050   30.3880   38.0160 H   0  0  0  0  0  0  0  0  0  0  0  0
   40.2990   29.3410   37.4950 C   0  0  0  0  0  3  0  0  0  0  0  0
   40.1440   30.7040   37.7630 C   0  0  0  0  0  0  0  0  0  0  0  0
   41.2270   31.4530   37.3660 C   0  0  0  0  0  0  0  0  0  0  0  0
   41.1730   32.5200   37.5220 H   0  0  0  0  0  0  0  0  0  0  0  0
   42.3350   30.9110   36.7740 C   0  0  0  0  0  0  0  0  0  0  0  0
   43.4580   31.5130   36.3390 N   0  0  0  0  0  0  0  0  0  0  0  0
   43.7560   32.5130   36.3430 H   0  0  0  0  0  0  0  0  0  0  0  0
   44.2740   30.5750   35.8260 C   0  0  0  0  0  0  0  0  0  0  0  0
   45.2630   30.6070   35.3720 H   0  0  0  0  0  0  0  0  0  0  0  0
   43.6610   29.3260   35.9330 C   0  0  0  0  0  3  0  0  0  0  0  0
   42.4440   29.5610   36.5310 C   0  0  0  0  0  0  0  0  0  0  0  0
   41.3940   28.7480   36.9020 C   0  0  0  0  0  3  0  0  0  0  0  0
   36.7720   30.1880   40.4890 C   0  0  0  0  0  0  0  0  0  0  0  0
   35.7940   30.0560   39.7130 O   0  0  0  0  0  0  0  0  0  0  0  0
   37.8350   28.4770   43.5350 C   0  0  0  0  0  0  0  0  0  0  0  0
   37.6980   27.1030   43.2330 C   0  0  0  0  0  0  0  0  0  0  0  0
   37.2300   26.7950   41.9680 C   0  0  0  0  0  0  0  0  0  0  0  0
   36.9640   27.8460   41.1870 N   0  0  0  0  0  0  0  0  0  0  0  0
   37.0870   29.1220   41.4550 C   0  0  0  0  0  0  0  0  0  0  0  0
   37.5400   29.4420   42.6780 N   0  0  0  0  0  0  0  0  0  0  0  0
   38.2070   28.7370   44.5390 H   0  0  0  0  0  0  0  0  0  0  0  0
   37.9420   26.3480   43.9390 H   0  0  0  0  0  0  0  0  0  0  0  0
   37.0890   25.3820   41.6320 C   0  0  0  0  0  0  0  0  0  0  0  0
   36.3580   25.2430   40.4790 F   0  0  0  0  0  0  0  0  0  0  0  0
   36.4180   24.8020   42.6600 F   0  0  0  0  0  0  0  0  0  0  0  0
   38.3210   24.7870   41.3910 F   0  0  0  0  0  0  0  0  0  0  0  0
  1  7  1  1  0  0  0
  2  3  1  0  0  0  0
  2  8  1  0  0  0  0
  2  1  1  0  0  0  0
  3 10  1  0  0  0  0
  3  4  1  0  0  0  0
  4 12  1  0  0  0  0
  5  4  1  0  0  0  0
  5 14  1  0  0  0  0
  6 16  1  1  0  0  0
  6  5  1  0  0  0  0
  6  1  1  0  0  0  0
  9  2  1  0  0  0  0
 11  3  1  0  0  0  0
 13  4  1  0  0  0  0
 15  5  1  0  0  0  0
 17  6  1  0  0  0  0
 18 17  1  0  0  0  0
 19 17  1  0  0  0  0
 20 21  1  0  0  0  0
 21 17  1  0  0  0  0
 22 23  1  0  0  0  0
 22 21  2  0  0  0  0
 24 22  1  0  0  0  0
 25 26  1  0  0  0  0
 25 24  1  0  0  0  0
 27 29  2  0  0  0  0
 27 25  1  0  0  0  0
 28 27  1  0  0  0  0
 29 30  1  0  0  0  0
 30 24  2  0  0  0  0
 30 31  1  0  0  0  0
 31 20  2  0  0  0  0
 32  1  1  0  0  0  0
 32 38  1  0  0  0  0
 33 32  2  0  0  0  0
 34 40  1  0  0  0  0
 35 34  1  0  0  0  0
 35 41  1  0  0  0  0
 36 35  2  0  0  0  0
 37 38  2  0  0  0  0
 37 36  1  0  0  0  0
 38 39  1  0  0  0  0
 39 34  2  0  0  0  0
 42 36  1  0  0  0  0
 42 44  1  0  0  0  0
 43 42  1  0  0  0  0
 45 42  1  0  0  0  0
M  END
>  <minimizedAffinity>
-6.39246416

$$$$

 OpenBabel03242518563D

 45 48  0  0  1  0  0  0  0  0999 V2000
   36.1950   27.3360   38.3920 C   0  0  2  0  0  0  0  0  0  0  0  0
   36.2230   26.9520   36.9470 C   0  0  0  0  0  0  0  0  0  0  0  0
   34.8650   27.2280   36.3970 C   0  0  0  0  0  0  0  0  0  0  0  0
   33.8440   27.6590   37.3830 C   0  0  0  0  0  0  0  0  0  0  0  0
   34.3240   28.8920   38.1360 C   0  0  0  0  0  0  0  0  0  0  0  0
   35.7170   28.7650   38.5150 C   0  0  2  0  0  0  0  0  0  0  0  0
   35.4110   26.7450   38.9090 H   0  0  0  0  0  0  0  0  0  0  0  0
   36.4650   25.8470   36.9150 H   0  0  0  0  0  0  0  0  0  0  0  0
   37.0300   27.4250   36.3720 H   0  0  0  0  0  0  0  0  0  0  0  0
   34.4770   26.2580   35.9590 H   0  0  0  0  0  0  0  0  0  0  0  0
   34.8570   27.9120   35.5100 H   0  0  0  0  0  0  0  0  0  0  0  0
   33.5160   26.8790   38.0800 H   0  0  0  0  0  0  0  0  0  0  0  0
   32.9300   27.9220   36.7920 H   0  0  0  0  0  0  0  0  0  0  0  0
   33.7100   28.9530   39.0960 H   0  0  0  0  0  0  0  0  0  0  0  0
   33.9770   29.7610   37.5690 H   0  0  0  0  0  0  0  0  0  0  0  0
   35.8990   29.0870   39.5520 H   0  0  0  0  0  0  0  0  0  0  0  0
   36.5050   29.6420   37.6050 C   0  0  0  0  0  0  0  0  0  0  0  0
   35.9130   30.0830   36.7750 H   0  0  0  0  0  0  0  0  0  0  0  0
   37.3560   29.0860   37.1090 H   0  0  0  0  0  0  0  0  0  0  0  0
   36.5970   31.0480   39.6200 C   0  0  0  0  0  3  0  0  0  0  0  0
   37.1570   30.7160   38.3830 C   0  0  0  0  0  0  0  0  0  0  0  0
   38.2860   31.4470   38.0950 C   0  0  0  0  0  0  0  0  0  0  0  0
   38.7880   31.2330   37.1630 H   0  0  0  0  0  0  0  0  0  0  0  0
   38.7970   32.3970   38.9360 C   0  0  0  0  0  0  0  0  0  0  0  0
   39.8800   33.1830   38.7870 N   0  0  0  0  0  0  0  0  0  0  0  0
   40.5810   33.2620   38.0180 H   0  0  0  0  0  0  0  0  0  0  0  0
   39.9920   33.9660   39.8750 C   0  0  0  0  0  0  0  0  0  0  0  0
   40.7020   34.7350   40.1770 H   0  0  0  0  0  0  0  0  0  0  0  0
   38.9480   33.6790   40.7550 C   0  0  0  0  0  3  0  0  0  0  0  0
   38.2100   32.6910   40.1440 C   0  0  0  0  0  0  0  0  0  0  0  0
   37.0740   31.9960   40.5010 C   0  0  0  0  0  3  0  0  0  0  0  0
   37.4640   27.0780   39.1130 C   0  0  0  0  0  0  0  0  0  0  0  0
   38.4030   26.3980   38.6310 O   0  0  0  0  0  0  0  0  0  0  0  0
   36.8060   27.9160   42.6060 C   0  0  0  0  0  0  0  0  0  0  0  0
   37.8610   28.7850   42.9640 C   0  0  0  0  0  0  0  0  0  0  0  0
   38.7920   29.0610   41.9790 C   0  0  0  0  0  0  0  0  0  0  0  0
   38.5720   28.4650   40.8040 N   0  0  0  0  0  0  0  0  0  0  0  0
   37.5980   27.6590   40.4600 C   0  0  0  0  0  0  0  0  0  0  0  0
   36.6850   27.3790   41.4030 N   0  0  0  0  0  0  0  0  0  0  0  0
   36.0560   27.6880   43.3810 H   0  0  0  0  0  0  0  0  0  0  0  0
   37.9360   29.2040   43.9380 H   0  0  0  0  0  0  0  0  0  0  0  0
   39.8860   29.9620   42.3250 C   0  0  0  0  0  0  0  0  0  0  0  0
   40.4450   30.4840   41.1850 F   0  0  0  0  0  0  0  0  0  0  0  0
   40.8140   29.2170   42.9790 F   0  0  0  0  0  0  0  0  0  0  0  0
   39.4410   31.0440   43.0750 F   0  0  0  0  0  0  0  0  0  0  0  0
  1  6  1  0  0  0  0
  1  7  1  1  0  0  0
  1 32  1  0  0  0  0
  2  1  1  0  0  0  0
  3  2  1  0  0  0  0
  3  4  1  0  0  0  0
  4 12  1  0  0  0  0
  4  5  1  0  0  0  0
  5  6  1  0  0  0  0
  5 14  1  0  0  0  0
  6 16  1  1  0  0  0
  8  2  1  0  0  0  0
  9  2  1  0  0  0  0
 10  3  1  0  0  0  0
 11  3  1  0  0  0  0
 13  4  1  0  0  0  0
 15  5  1  0  0  0  0
 17 21  1  0  0  0  0
 17  6  1  0  0  0  0
 18 17  1  0  0  0  0
 19 17  1  0  0  0  0
 20 31  1  0  0  0  0
 21 20  2  0  0  0  0
 22 21  1  0  0  0  0
 22 24  2  0  0  0  0
 23 22  1  0  0  0  0
 24 30  1  0  0  0  0
 25 24  1  0  0  0  0
 25 27  1  0  0  0  0
 26 25  1  0  0  0  0
 27 28  1  0  0  0  0
 27 29  2  0  0  0  0
 30 31  2  0  0  0  0
 30 29  1  0  0  0  0
 32 38  1  0  0  0  0
 33 32  2  0  0  0  0
 34 35  1  0  0  0  0
 34 40  1  0  0  0  0
 35 41  1  0  0  0  0
 36 42  1  0  0  0  0
 36 35  2  0  0  0  0
 37 36  1  0  0  0  0
 38 37  2  0  0  0  0
 38 39  1  0  0  0  0
 39 34  2  0  0  0  0
 42 44  1  0  0  0  0
 42 45  1  0  0  0  0
 43 42  1  0  0  0  0
M  END
>  <minimizedAffinity>
-6.09372187

$$$$

 OpenBabel03242518563D

 45 48  0  0  1  0  0  0  0  0999 V2000
   37.4930   28.6640   36.4180 C   0  0  2  0  0  0  0  0  0  0  0  0
   36.8970   29.9830   36.0400 C   0  0  0  0  0  0  0  0  0  0  0  0
   35.8280   29.7060   35.0380 C   0  0  0  0  0  0  0  0  0  0  0  0
   35.7140   28.2980   34.5870 C   0  0  0  0  0  0  0  0  0  0  0  0
   35.5130   27.3750   35.7810 C   0  0  0  0  0  0  0  0  0  0  0  0
   36.3900   27.7370   36.8760 C   0  0  2  0  0  0  0  0  0  0  0  0
   37.8950   28.1740   35.5080 H   0  0  0  0  0  0  0  0  0  0  0  0
   37.7360   30.5950   35.5900 H   0  0  0  0  0  0  0  0  0  0  0  0
   36.5500   30.5800   36.8930 H   0  0  0  0  0  0  0  0  0  0  0  0
   36.0750   30.3060   34.1100 H   0  0  0  0  0  0  0  0  0  0  0  0
   34.8190   30.1030   35.3190 H   0  0  0  0  0  0  0  0  0  0  0  0
   36.5390   27.9460   33.9570 H   0  0  0  0  0  0  0  0  0  0  0  0
   34.8080   28.2520   33.9310 H   0  0  0  0  0  0  0  0  0  0  0  0
   35.8020   26.3250   35.4400 H   0  0  0  0  0  0  0  0  0  0  0  0
   34.4320   27.2920   35.9350 H   0  0  0  0  0  0  0  0  0  0  0  0
   36.8680   26.8580   37.3370 H   0  0  0  0  0  0  0  0  0  0  0  0
   35.5560   28.4130   37.9070 C   0  0  0  0  0  0  0  0  0  0  0  0
   34.4640   28.2470   37.7880 H   0  0  0  0  0  0  0  0  0  0  0  0
   35.6940   29.5370   37.8970 H   0  0  0  0  0  0  0  0  0  0  0  0
   36.4360   26.6770   39.4090 C   0  0  0  0  0  3  0  0  0  0  0  0
   35.9840   27.9910   39.2570 C   0  0  0  0  0  0  0  0  0  0  0  0
   36.0450   28.7150   40.4250 C   0  0  0  0  0  0  0  0  0  0  0  0
   35.7310   29.7470   40.3830 H   0  0  0  0  0  0  0  0  0  0  0  0
   36.5000   28.1930   41.6060 C   0  0  0  0  0  0  0  0  0  0  0  0
   36.6130   28.7750   42.8140 N   0  0  0  0  0  0  0  0  0  0  0  0
   36.3920   29.7400   43.1440 H   0  0  0  0  0  0  0  0  0  0  0  0
   37.1100   27.8720   43.6780 C   0  0  0  0  0  0  0  0  0  0  0  0
   37.3600   27.9040   44.7370 H   0  0  0  0  0  0  0  0  0  0  0  0
   37.3240   26.6670   43.0070 C   0  0  0  0  0  3  0  0  0  0  0  0
   36.9340   26.8920   41.7080 C   0  0  0  0  0  0  0  0  0  0  0  0
   36.9020   26.1070   40.5740 C   0  0  0  0  0  3  0  0  0  0  0  0
   38.6160   28.7600   37.3790 C   0  0  0  0  0  0  0  0  0  0  0  0
   39.2500   27.7600   37.7980 O   0  0  0  0  0  0  0  0  0  0  0  0
   40.4780   31.8550   37.9150 C   0  0  0  0  0  0  0  0  0  0  0  0
   39.6540   32.6170   38.7740 C   0  0  0  0  0  0  0  0  0  0  0  0
   38.4550   32.0390   39.1490 C   0  0  0  0  0  0  0  0  0  0  0  0
   38.2260   30.8220   38.6450 N   0  0  0  0  0  0  0  0  0  0  0  0
   38.9820   30.1060   37.8500 C   0  0  0  0  0  0  0  0  0  0  0  0
   40.1500   30.6510   37.4750 N   0  0  0  0  0  0  0  0  0  0  0  0
   41.4370   32.3050   37.6090 H   0  0  0  0  0  0  0  0  0  0  0  0
   39.9400   33.5820   39.1130 H   0  0  0  0  0  0  0  0  0  0  0  0
   37.5920   32.8050   40.0420 C   0  0  0  0  0  0  0  0  0  0  0  0
   38.3460   33.4300   41.0030 F   0  0  0  0  0  0  0  0  0  0  0  0
   36.7560   31.9150   40.6360 F   0  0  0  0  0  0  0  0  0  0  0  0
   36.9130   33.8080   39.3620 F   0  0  0  0  0  0  0  0  0  0  0  0
  1  7  1  6  0  0  0
  1  6  1  0  0  0  0
  1 32  1  0  0  0  0
  2  1  1  0  0  0  0
  2  9  1  0  0  0  0
  3 11  1  0  0  0  0
  3  2  1  0  0  0  0
  4  3  1  0  0  0  0
  4  5  1  0  0  0  0
  5 15  1  0  0  0  0
  5  6  1  0  0  0  0
  6 16  1  1  0  0  0
  6 17  1  0  0  0  0
  8  2  1  0  0  0  0
 10  3  1  0  0  0  0
 12  4  1  0  0  0  0
 13  4  1  0  0  0  0
 14  5  1  0  0  0  0
 17 21  1  0  0  0  0
 18 17  1  0  0  0  0
 19 17  1  0  0  0  0
 20 31  1  0  0  0  0
 21 20  2  0  0  0  0
 21 22  1  0  0  0  0
 22 24  2  0  0  0  0
 23 22  1  0  0  0  0
 24 30  1  0  0  0  0
 24 25  1  0  0  0  0
 25 26  1  0  0  0  0
 25 27  1  0  0  0  0
 27 28  1  0  0  0  0
 29 27  2  0  0  0  0
 30 29  1  0  0  0  0
 31 30  2  0  0  0  0
 32 33  2  0  0  0  0
 32 38  1  0  0  0  0
 34 35  1  0  0  0  0
 35 41  1  0  0  0  0
 35 36  2  0  0  0  0
 36 42  1  0  0  0  0
 37 36  1  0  0  0  0
 38 37  2  0  0  0  0
 39 38  1  0  0  0  0
 39 34  2  0  0  0  0
 40 34  1  0  0  0  0
 42 44  1  0  0  0  0
 42 43  1  0  0  0  0
 45 42  1  0  0  0  0
M  END
>  <minimizedAffinity>
-6.05158901

$$$$

 OpenBabel03242518563D

 45 48  0  0  1  0  0  0  0  0999 V2000
   37.7260   30.3110   40.2350 C   0  0  2  0  0  0  0  0  0  0  0  0
   37.0590   31.6080   40.5680 C   0  0  0  0  0  0  0  0  0  0  0  0
   37.1080   32.4500   39.3400 C   0  0  0  0  0  0  0  0  0  0  0  0
   37.8750   31.8890   38.2010 C   0  0  0  0  0  0  0  0  0  0  0  0
   37.3370   30.5150   37.8270 C   0  0  0  0  0  0  0  0  0  0  0  0
   37.0690   29.7190   39.0090 C   0  0  2  0  0  0  0  0  0  0  0  0
   38.7680   30.5110   39.9100 H   0  0  0  0  0  0  0  0  0  0  0  0
   37.6610   32.0690   41.4090 H   0  0  0  0  0  0  0  0  0  0  0  0
   36.0480   31.5000   40.9830 H   0  0  0  0  0  0  0  0  0  0  0  0
   37.6320   33.4160   39.6150 H   0  0  0  0  0  0  0  0  0  0  0  0
   36.1080   32.8120   38.9890 H   0  0  0  0  0  0  0  0  0  0  0  0
   38.9610   31.8570   38.3460 H   0  0  0  0  0  0  0  0  0  0  0  0
   37.7180   32.5910   37.3420 H   0  0  0  0  0  0  0  0  0  0  0  0
   38.1570   29.9880   37.2360 H   0  0  0  0  0  0  0  0  0  0  0  0
   36.5580   30.6760   37.0740 H   0  0  0  0  0  0  0  0  0  0  0  0
   37.4310   28.6840   38.9060 H   0  0  0  0  0  0  0  0  0  0  0  0
   35.5910   29.6840   39.1930 C   0  0  0  0  0  0  0  0  0  0  0  0
   35.0780   30.6340   38.9320 H   0  0  0  0  0  0  0  0  0  0  0  0
   35.3010   29.4660   40.2650 H   0  0  0  0  0  0  0  0  0  0  0  0
   35.7180   27.3630   38.3920 C   0  0  0  0  0  3  0  0  0  0  0  0
   35.0140   28.5710   38.4110 C   0  0  0  0  0  0  0  0  0  0  0  0
   33.8370   28.5130   37.7010 C   0  0  0  0  0  0  0  0  0  0  0  0
   33.2270   29.4040   37.6870 H   0  0  0  0  0  0  0  0  0  0  0  0
   33.4110   27.3900   37.0470 C   0  0  0  0  0  0  0  0  0  0  0  0
   32.2960   27.1910   36.3190 N   0  0  0  0  0  0  0  0  0  0  0  0
   31.5010   27.8220   36.0800 H   0  0  0  0  0  0  0  0  0  0  0  0
   32.3030   25.9240   35.8670 C   0  0  0  0  0  0  0  0  0  0  0  0
   31.6160   25.3420   35.2540 H   0  0  0  0  0  0  0  0  0  0  0  0
   33.4580   25.2830   36.3160 C   0  0  0  0  0  3  0  0  0  0  0  0
   34.1390   26.2230   37.0540 C   0  0  0  0  0  0  0  0  0  0  0  0
   35.3310   26.2060   37.7490 C   0  0  0  0  0  3  0  0  0  0  0  0
   37.8100   29.3630   41.3700 C   0  0  0  0  0  0  0  0  0  0  0  0
   37.5190   29.6760   42.5510 O   0  0  0  0  0  0  0  0  0  0  0  0
   39.8510   26.5680   40.2040 C   0  0  0  0  0  0  0  0  0  0  0  0
   39.0740   25.4230   40.4850 C   0  0  0  0  0  0  0  0  0  0  0  0
   37.8470   25.6440   41.0850 C   0  0  0  0  0  0  0  0  0  0  0  0
   37.5520   26.9250   41.3250 N   0  0  0  0  0  0  0  0  0  0  0  0
   38.2640   27.9950   41.0680 C   0  0  0  0  0  0  0  0  0  0  0  0
   39.4580   27.8000   40.4850 N   0  0  0  0  0  0  0  0  0  0  0  0
   40.8310   26.4060   39.7250 H   0  0  0  0  0  0  0  0  0  0  0  0
   39.4120   24.4440   40.2490 H   0  0  0  0  0  0  0  0  0  0  0  0
   37.0240   24.4750   41.3780 C   0  0  0  0  0  0  0  0  0  0  0  0
   36.3930   24.6350   42.5870 F   0  0  0  0  0  0  0  0  0  0  0  0
   37.8670   23.4130   41.4500 F   0  0  0  0  0  0  0  0  0  0  0  0
   36.0220   24.3040   40.4310 F   0  0  0  0  0  0  0  0  0  0  0  0
  1  7  1  6  0  0  0
  1  2  1  0  0  0  0
  1 32  1  0  0  0  0
  2  9  1  0  0  0  0
  2  8  1  0  0  0  0
  3 10  1  0  0  0  0
  3  2  1  0  0  0  0
  4 12  1  0  0  0  0
  4  3  1  0  0  0  0
  5  4  1  0  0  0  0
  5  6  1  0  0  0  0
  6 16  1  6  0  0  0
  6 17  1  0  0  0  0
  6  1  1  0  0  0  0
 11  3  1  0  0  0  0
 13  4  1  0  0  0  0
 14  5  1  0  0  0  0
 15  5  1  0  0  0  0
 17 19  1  0  0  0  0
 18 17  1  0  0  0  0
 20 21  1  0  0  0  0
 21 17  1  0  0  0  0
 22 21  2  0  0  0  0
 23 22  1  0  0  0  0
 24 30  2  0  0  0  0
 24 22  1  0  0  0  0
 25 24  1  0  0  0  0
 26 25  1  0  0  0  0
 27 29  2  0  0  0  0
 27 25  1  0  0  0  0
 28 27  1  0  0  0  0
 29 30  1  0  0  0  0
 30 31  1  0  0  0  0
 31 20  2  0  0  0  0
 32 33  2  0  0  0  0
 34 35  2  0  0  0  0
 34 39  1  0  0  0  0
 35 36  1  0  0  0  0
 36 37  2  0  0  0  0
 36 42  1  0  0  0  0
 38 37  1  0  0  0  0
 38 32  1  0  0  0  0
 39 38  2  0  0  0  0
 40 34  1  0  0  0  0
 41 35  1  0  0  0  0
 42 44  1  0  0  0  0
 42 43  1  0  0  0  0
 45 42  1  0  0  0  0
M  END
>  <minimizedAffinity>
-6.0307045

$$$$

 OpenBabel03242518563D

 45 48  0  0  1  0  0  0  0  0999 V2000
   36.8490   27.4030   37.6550 C   0  0  2  0  0  0  0  0  0  0  0  0
   36.8340   27.3420   36.1600 C   0  0  0  0  0  0  0  0  0  0  0  0
   35.4200   27.1160   35.7480 C   0  0  0  0  0  0  0  0  0  0  0  0
   34.4550   26.8850   36.8500 C   0  0  0  0  0  0  0  0  0  0  0  0
   34.4940   28.0420   37.8390 C   0  0  0  0  0  0  0  0  0  0  0  0
   35.8570   28.4460   38.1160 C   0  0  2  0  0  0  0  0  0  0  0  0
   36.4460   26.4520   38.0600 H   0  0  0  0  0  0  0  0  0  0  0  0
   37.4940   26.4690   35.8700 H   0  0  0  0  0  0  0  0  0  0  0  0
   37.2970   28.2090   35.6710 H   0  0  0  0  0  0  0  0  0  0  0  0
   35.4000   26.1730   35.1210 H   0  0  0  0  0  0  0  0  0  0  0  0
   35.0180   27.8840   35.0390 H   0  0  0  0  0  0  0  0  0  0  0  0
   34.5650   25.9250   37.3680 H   0  0  0  0  0  0  0  0  0  0  0  0
   33.4410   26.8430   36.3750 H   0  0  0  0  0  0  0  0  0  0  0  0
   34.0430   27.6590   38.8140 H   0  0  0  0  0  0  0  0  0  0  0  0
   33.7530   28.7720   37.4980 H   0  0  0  0  0  0  0  0  0  0  0  0
   36.0320   28.6160   39.1910 H   0  0  0  0  0  0  0  0  0  0  0  0
   36.0950   29.7260   37.3930 C   0  0  0  0  0  0  0  0  0  0  0  0
   35.1730   30.2040   36.9990 H   0  0  0  0  0  0  0  0  0  0  0  0
   36.7720   29.5890   36.4960 H   0  0  0  0  0  0  0  0  0  0  0  0
   36.4310   30.7300   39.6120 C   0  0  0  0  0  3  0  0  0  0  0  0
   36.8160   30.6730   38.2690 C   0  0  0  0  0  0  0  0  0  0  0  0
   37.8650   31.5150   37.9790 C   0  0  0  0  0  0  0  0  0  0  0  0
   38.2320   31.5110   36.9630 H   0  0  0  0  0  0  0  0  0  0  0  0
   38.4600   32.3190   38.9120 C   0  0  0  0  0  0  0  0  0  0  0  0
   39.4810   33.1850   38.7730 N   0  0  0  0  0  0  0  0  0  0  0  0
   40.0590   33.4500   37.9470 H   0  0  0  0  0  0  0  0  0  0  0  0
   39.7230   33.7540   39.9680 C   0  0  0  0  0  0  0  0  0  0  0  0
   40.4420   34.4950   40.3150 H   0  0  0  0  0  0  0  0  0  0  0  0
   38.8290   33.2420   40.9090 C   0  0  0  0  0  3  0  0  0  0  0  0
   38.0450   32.3420   40.2230 C   0  0  0  0  0  0  0  0  0  0  0  0
   36.9980   31.5220   40.5880 C   0  0  0  0  0  3  0  0  0  0  0  0
   38.1980   27.5760   38.2410 C   0  0  0  0  0  0  0  0  0  0  0  0
   39.1970   27.9420   37.5740 O   0  0  0  0  0  0  0  0  0  0  0  0
   39.0200   27.9510   41.7800 C   0  0  0  0  0  0  0  0  0  0  0  0
   38.6340   26.7240   42.3630 C   0  0  0  0  0  0  0  0  0  0  0  0
   38.0850   25.7830   41.5100 C   0  0  0  0  0  0  0  0  0  0  0  0
   37.9890   26.1600   40.2320 N   0  0  0  0  0  0  0  0  0  0  0  0
   38.3440   27.2930   39.6800 C   0  0  0  0  0  0  0  0  0  0  0  0
   38.8790   28.2190   40.4920 N   0  0  0  0  0  0  0  0  0  0  0  0
   39.4590   28.7100   42.4480 H   0  0  0  0  0  0  0  0  0  0  0  0
   38.7570   26.5330   43.4010 H   0  0  0  0  0  0  0  0  0  0  0  0
   37.6860   24.5050   42.0910 C   0  0  0  0  0  0  0  0  0  0  0  0
   37.6500   23.5370   41.1180 F   0  0  0  0  0  0  0  0  0  0  0  0
   36.4380   24.6790   42.5960 F   0  0  0  0  0  0  0  0  0  0  0  0
   38.5960   24.0690   43.0450 F   0  0  0  0  0  0  0  0  0  0  0  0
  1  7  1  1  0  0  0
  1  6  1  0  0  0  0
  1 32  1  0  0  0  0
  2  1  1  0  0  0  0
  3  2  1  0  0  0  0
  3  4  1  0  0  0  0
  4 12  1  0  0  0  0
  4  5  1  0  0  0  0
  5  6  1  0  0  0  0
  5 14  1  0  0  0  0
  6 16  1  1  0  0  0
  8  2  1  0  0  0  0
  9  2  1  0  0  0  0
 10  3  1  0  0  0  0
 11  3  1  0  0  0  0
 13  4  1  0  0  0  0
 15  5  1  0  0  0  0
 17  6  1  0  0  0  0
 17 21  1  0  0  0  0
 18 17  1  0  0  0  0
 19 17  1  0  0  0  0
 20 31  1  0  0  0  0
 21 20  2  0  0  0  0
 22 21  1  0  0  0  0
 22 24  2  0  0  0  0
 23 22  1  0  0  0  0
 24 30  1  0  0  0  0
 25 24  1  0  0  0  0
 25 27  1  0  0  0  0
 26 25  1  0  0  0  0
 27 28  1  0  0  0  0
 27 29  2  0  0  0  0
 30 31  2  0  0  0  0
 30 29  1  0  0  0  0
 32 38  1  0  0  0  0
 33 32  2  0  0  0  0
 34 35  1  0  0  0  0
 34 40  1  0  0  0  0
 35 41  1  0  0  0  0
 36 42  1  0  0  0  0
 36 35  2  0  0  0  0
 37 36  1  0  0  0  0
 38 37  2  0  0  0  0
 38 39  1  0  0  0  0
 39 34  2  0  0  0  0
 42 44  1  0  0  0  0
 42 45  1  0  0  0  0
 43 42  1  0  0  0  0
M  END
>  <minimizedAffinity>
-5.99216175

$$$$

 OpenBabel03242518563D

 45 48  0  0  1  0  0  0  0  0999 V2000
   39.0660   26.1650   42.0510 C   0  0  2  0  0  0  0  0  0  0  0  0
   39.4410   25.8990   43.4750 C   0  0  0  0  0  0  0  0  0  0  0  0
   40.9100   26.1240   43.5870 C   0  0  0  0  0  0  0  0  0  0  0  0
   41.6200   26.4050   42.3150 C   0  0  0  0  0  0  0  0  0  0  0  0
   40.9960   27.6040   41.6150 C   0  0  0  0  0  0  0  0  0  0  0  0
   39.5490   27.5430   41.6620 C   0  0  2  0  0  0  0  0  0  0  0  0
   39.6410   25.4830   41.3910 H   0  0  0  0  0  0  0  0  0  0  0  0
   39.1710   24.8190   43.6790 H   0  0  0  0  0  0  0  0  0  0  0  0
   38.8550   26.4700   44.2070 H   0  0  0  0  0  0  0  0  0  0  0  0
   41.3660   25.1680   43.9870 H   0  0  0  0  0  0  0  0  0  0  0  0
   41.2030   26.8740   44.3650 H   0  0  0  0  0  0  0  0  0  0  0  0
   41.6990   25.5520   41.6310 H   0  0  0  0  0  0  0  0  0  0  0  0
   42.6760   26.6510   42.5940 H   0  0  0  0  0  0  0  0  0  0  0  0
   41.3080   27.5470   40.5200 H   0  0  0  0  0  0  0  0  0  0  0  0
   41.5290   28.4900   41.9750 H   0  0  0  0  0  0  0  0  0  0  0  0
   39.0890   27.7940   40.6930 H   0  0  0  0  0  0  0  0  0  0  0  0
   39.0960   28.5420   42.6700 C   0  0  0  0  0  0  0  0  0  0  0  0
   39.7830   28.6570   43.5350 H   0  0  0  0  0  0  0  0  0  0  0  0
   38.0900   28.2720   43.1130 H   0  0  0  0  0  0  0  0  0  0  0  0
   39.9290   30.7790   42.0800 C   0  0  0  0  0  3  0  0  0  0  0  0
   38.8840   29.8520   42.0200 C   0  0  0  0  0  0  0  0  0  0  0  0
   37.8000   30.3150   41.3100 C   0  0  0  0  0  0  0  0  0  0  0  0
   36.9590   29.6460   41.2020 H   0  0  0  0  0  0  0  0  0  0  0  0
   37.7590   31.5530   40.7300 C   0  0  0  0  0  0  0  0  0  0  0  0
   36.7770   32.1350   40.0160 N   0  0  0  0  0  0  0  0  0  0  0  0
   35.8310   31.7980   39.7320 H   0  0  0  0  0  0  0  0  0  0  0  0
   37.1860   33.3620   39.6490 C   0  0  0  0  0  0  0  0  0  0  0  0
   36.7280   34.1660   39.0740 H   0  0  0  0  0  0  0  0  0  0  0  0
   38.4730   33.5830   40.1410 C   0  0  0  0  0  3  0  0  0  0  0  0
   38.8120   32.4330   40.8170 C   0  0  0  0  0  0  0  0  0  0  0  0
   39.9340   32.0360   41.5140 C   0  0  0  0  0  3  0  0  0  0  0  0
   37.6340   25.9380   41.7480 C   0  0  0  0  0  0  0  0  0  0  0  0
   36.8350   25.4050   42.5570 O   0  0  0  0  0  0  0  0  0  0  0  0
   37.1370   26.1190   38.1350 C   0  0  0  0  0  0  0  0  0  0  0  0
   36.2610   27.2120   37.9540 C   0  0  0  0  0  0  0  0  0  0  0  0
   35.8500   27.8670   39.1010 C   0  0  0  0  0  0  0  0  0  0  0  0
   36.3400   27.3780   40.2440 N   0  0  0  0  0  0  0  0  0  0  0  0
   37.1530   26.3670   40.4230 C   0  0  0  0  0  0  0  0  0  0  0  0
   37.5630   25.7180   39.3220 N   0  0  0  0  0  0  0  0  0  0  0  0
   37.4730   25.5880   37.2290 H   0  0  0  0  0  0  0  0  0  0  0  0
   35.9340   27.5140   36.9890 H   0  0  0  0  0  0  0  0  0  0  0  0
   34.9500   29.0040   38.9360 C   0  0  0  0  0  0  0  0  0  0  0  0
   33.7510   28.5840   38.4160 F   0  0  0  0  0  0  0  0  0  0  0  0
   35.5470   29.8510   38.0590 F   0  0  0  0  0  0  0  0  0  0  0  0
   34.6600   29.6080   40.1540 F   0  0  0  0  0  0  0  0  0  0  0  0
  1  7  1  6  0  0  0
  1  2  1  0  0  0  0
  2  3  1  0  0  0  0
  2  8  1  0  0  0  0
  2  9  1  0  0  0  0
  3 10  1  0  0  0  0
  3 11  1  0  0  0  0
  4 13  1  0  0  0  0
  4  3  1  0  0  0  0
  5  6  1  0  0  0  0
  5 15  1  0  0  0  0
  5  4  1  0  0  0  0
  6 16  1  6  0  0  0
  6  1  1  0  0  0  0
  6 17  1  0  0  0  0
 12  4  1  0  0  0  0
 14  5  1  0  0  0  0
 17 19  1  0  0  0  0
 17 18  1  0  0  0  0
 21 20  1  0  0  0  0
 21 17  1  0  0  0  0
 22 21  2  0  0  0  0
 23 22  1  0  0  0  0
 24 30  2  0  0  0  0
 24 22  1  0  0  0  0
 25 24  1  0  0  0  0
 26 25  1  0  0  0  0
 27 25  1  0  0  0  0
 27 29  2  0  0  0  0
 28 27  1  0  0  0  0
 29 30  1  0  0  0  0
 30 31  1  0  0  0  0
 31 20  2  0  0  0  0
 32  1  1  0  0  0  0
 32 33  2  0  0  0  0
 34 39  1  0  0  0  0
 35 34  2  0  0  0  0
 35 36  1  0  0  0  0
 36 37  2  0  0  0  0
 37 38  1  0  0  0  0
 38 32  1  0  0  0  0
 39 38  2  0  0  0  0
 40 34  1  0  0  0  0
 41 35  1  0  0  0  0
 42 36  1  0  0  0  0
 42 45  1  0  0  0  0
 43 42  1  0  0  0  0
 44 42  1  0  0  0  0
M  END
>  <minimizedAffinity>
-5.99014711

$$$$

 OpenBabel03242518563D

 45 48  0  0  1  0  0  0  0  0999 V2000
   35.4450   27.5350   37.7110 C   0  0  2  0  0  0  0  0  0  0  0  0
   36.2960   27.4330   36.4850 C   0  0  0  0  0  0  0  0  0  0  0  0
   35.8220   26.2430   35.7240 C   0  0  0  0  0  0  0  0  0  0  0  0
   34.7810   25.4230   36.3890 C   0  0  0  0  0  0  0  0  0  0  0  0
   33.5770   26.2830   36.7440 C   0  0  0  0  0  0  0  0  0  0  0  0
   33.9900   27.5560   37.3010 C   0  0  2  0  0  0  0  0  0  0  0  0
   35.5440   26.5990   38.3000 H   0  0  0  0  0  0  0  0  0  0  0  0
   37.3600   27.2960   36.8470 H   0  0  0  0  0  0  0  0  0  0  0  0
   36.3280   28.3520   35.8840 H   0  0  0  0  0  0  0  0  0  0  0  0
   36.7130   25.5560   35.5870 H   0  0  0  0  0  0  0  0  0  0  0  0
   35.5230   26.4620   34.6660 H   0  0  0  0  0  0  0  0  0  0  0  0
   35.1270   24.8550   37.2610 H   0  0  0  0  0  0  0  0  0  0  0  0
   34.4700   24.6470   35.6420 H   0  0  0  0  0  0  0  0  0  0  0  0
   32.9980   25.7240   37.5530 H   0  0  0  0  0  0  0  0  0  0  0  0
   32.8970   26.2430   35.8870 H   0  0  0  0  0  0  0  0  0  0  0  0
   33.4000   27.8340   38.1890 H   0  0  0  0  0  0  0  0  0  0  0  0
   33.7740   28.5890   36.2510 C   0  0  0  0  0  0  0  0  0  0  0  0
   33.7030   28.1810   35.2200 H   0  0  0  0  0  0  0  0  0  0  0  0
   34.6160   29.3460   36.2200 H   0  0  0  0  0  0  0  0  0  0  0  0
   32.0010   30.1320   35.5280 C   0  0  0  0  0  3  0  0  0  0  0  0
   32.5660   29.3800   36.5630 C   0  0  0  0  0  0  0  0  0  0  0  0
   31.8590   29.4770   37.7400 C   0  0  0  0  0  0  0  0  0  0  0  0
   32.2240   28.9070   38.5810 H   0  0  0  0  0  0  0  0  0  0  0  0
   30.7270   30.2320   37.8720 C   0  0  0  0  0  0  0  0  0  0  0  0
   29.9410   30.4210   38.9500 N   0  0  0  0  0  0  0  0  0  0  0  0
   29.9970   30.0490   39.9230 H   0  0  0  0  0  0  0  0  0  0  0  0
   28.9380   31.2470   38.6070 C   0  0  0  0  0  0  0  0  0  0  0  0
   28.0890   31.6630   39.1480 H   0  0  0  0  0  0  0  0  0  0  0  0
   29.0780   31.6060   37.2660 C   0  0  0  0  0  3  0  0  0  0  0  0
   30.2080   30.9570   36.8250 C   0  0  0  0  0  0  0  0  0  0  0  0
   30.8640   30.9070   35.6130 C   0  0  0  0  0  3  0  0  0  0  0  0
   35.8150   28.6460   38.6170 C   0  0  0  0  0  0  0  0  0  0  0  0
   35.7490   29.8550   38.2850 O   0  0  0  0  0  0  0  0  0  0  0  0
   36.8510   28.9010   42.1100 C   0  0  0  0  0  0  0  0  0  0  0  0
   37.1920   27.5790   42.4730 C   0  0  0  0  0  0  0  0  0  0  0  0
   37.0490   26.6150   41.4920 C   0  0  0  0  0  0  0  0  0  0  0  0
   36.6020   27.0620   40.3140 N   0  0  0  0  0  0  0  0  0  0  0  0
   36.2830   28.2840   39.9660 C   0  0  0  0  0  0  0  0  0  0  0  0
   36.4160   29.2340   40.9050 N   0  0  0  0  0  0  0  0  0  0  0  0
   36.9610   29.6800   42.8820 H   0  0  0  0  0  0  0  0  0  0  0  0
   37.5400   27.3380   43.4480 H   0  0  0  0  0  0  0  0  0  0  0  0
   37.4030   25.2440   41.8430 C   0  0  0  0  0  0  0  0  0  0  0  0
   36.3750   24.6550   42.5370 F   0  0  0  0  0  0  0  0  0  0  0  0
   38.4980   25.3170   42.6420 F   0  0  0  0  0  0  0  0  0  0  0  0
   37.6120   24.4630   40.7140 F   0  0  0  0  0  0  0  0  0  0  0  0
  1  7  1  1  0  0  0
  1 32  1  0  0  0  0
  2  8  1  0  0  0  0
  2  1  1  0  0  0  0
  3  4  1  0  0  0  0
  3  2  1  0  0  0  0
  4  5  1  0  0  0  0
  4 12  1  0  0  0  0
  5  6  1  0  0  0  0
  5 14  1  0  0  0  0
  6  1  1  0  0  0  0
  6 16  1  1  0  0  0
  9  2  1  0  0  0  0
 10  3  1  0  0  0  0
 11  3  1  0  0  0  0
 13  4  1  0  0  0  0
 15  5  1  0  0  0  0
 17 21  1  0  0  0  0
 17  6  1  0  0  0  0
 18 17  1  0  0  0  0
 19 17  1  0  0  0  0
 20 31  2  0  0  0  0
 20 21  1  0  0  0  0
 21 22  2  0  0  0  0
 22 24  1  0  0  0  0
 22 23  1  0  0  0  0
 24 25  1  0  0  0  0
 25 26  1  0  0  0  0
 27 25  1  0  0  0  0
 27 28  1  0  0  0  0
 29 27  2  0  0  0  0
 30 29  1  0  0  0  0
 30 24  2  0  0  0  0
 31 30  1  0  0  0  0
 32 38  1  0  0  0  0
 33 32  2  0  0  0  0
 34 35  1  0  0  0  0
 34 40  1  0  0  0  0
 35 41  1  0  0  0  0
 36 42  1  0  0  0  0
 36 35  2  0  0  0  0
 37 36  1  0  0  0  0
 38 37  2  0  0  0  0
 38 39  1  0  0  0  0
 39 34  2  0  0  0  0
 42 43  1  0  0  0  0
 42 44  1  0  0  0  0
 45 42  1  0  0  0  0
M  END
>  <minimizedAffinity>
-5.91607571

$$$$

 OpenBabel03242518563D

 45 48  0  0  1  0  0  0  0  0999 V2000
   35.3960   27.5760   36.5750 C   0  0  2  0  0  0  0  0  0  0  0  0
   35.7300   28.5370   35.4790 C   0  0  0  0  0  0  0  0  0  0  0  0
   34.4810   29.2880   35.1640 C   0  0  0  0  0  0  0  0  0  0  0  0
   33.2590   28.8350   35.8710 C   0  0  0  0  0  0  0  0  0  0  0  0
   33.4780   28.8660   37.3780 C   0  0  0  0  0  0  0  0  0  0  0  0
   34.7800   28.3360   37.7280 C   0  0  2  0  0  0  0  0  0  0  0  0
   34.5840   26.9030   36.2330 H   0  0  0  0  0  0  0  0  0  0  0  0
   36.0690   27.9120   34.5990 H   0  0  0  0  0  0  0  0  0  0  0  0
   36.5860   29.1890   35.6980 H   0  0  0  0  0  0  0  0  0  0  0  0
   34.2700   29.1390   34.0610 H   0  0  0  0  0  0  0  0  0  0  0  0
   34.5800   30.4010   35.2400 H   0  0  0  0  0  0  0  0  0  0  0  0
   32.8750   27.8590   35.5530 H   0  0  0  0  0  0  0  0  0  0  0  0
   32.4530   29.5650   35.6020 H   0  0  0  0  0  0  0  0  0  0  0  0
   32.6910   28.1820   37.8400 H   0  0  0  0  0  0  0  0  0  0  0  0
   33.1690   29.8590   37.7200 H   0  0  0  0  0  0  0  0  0  0  0  0
   34.7340   27.6500   38.5890 H   0  0  0  0  0  0  0  0  0  0  0  0
   35.6450   29.4920   38.0930 C   0  0  0  0  0  0  0  0  0  0  0  0
   35.1080   30.4630   38.1410 H   0  0  0  0  0  0  0  0  0  0  0  0
   36.4850   29.6460   37.3500 H   0  0  0  0  0  0  0  0  0  0  0  0
   37.6560   29.6290   39.5010 C   0  0  0  0  0  3  0  0  0  0  0  0
   36.3220   29.2270   39.3790 C   0  0  0  0  0  0  0  0  0  0  0  0
   35.8290   28.6600   40.5310 C   0  0  0  0  0  0  0  0  0  0  0  0
   34.7970   28.3410   40.5210 H   0  0  0  0  0  0  0  0  0  0  0  0
   36.5730   28.5070   41.6690 C   0  0  0  0  0  0  0  0  0  0  0  0
   36.2280   27.9740   42.8560 N   0  0  0  0  0  0  0  0  0  0  0  0
   35.3340   27.5580   43.1970 H   0  0  0  0  0  0  0  0  0  0  0  0
   37.2900   28.0390   43.6780 C   0  0  0  0  0  0  0  0  0  0  0  0
   37.4620   27.7340   44.7090 H   0  0  0  0  0  0  0  0  0  0  0  0
   38.3570   28.6320   43.0010 C   0  0  0  0  0  3  0  0  0  0  0  0
   37.8840   28.9180   41.7420 C   0  0  0  0  0  0  0  0  0  0  0  0
   38.4460   29.4980   40.6240 C   0  0  0  0  0  3  0  0  0  0  0  0
   36.5240   26.7060   36.9830 C   0  0  0  0  0  0  0  0  0  0  0  0
   37.6900   26.8380   36.5380 O   0  0  0  0  0  0  0  0  0  0  0  0
   35.0500   23.7530   38.5470 C   0  0  0  0  0  0  0  0  0  0  0  0
   35.6770   23.6750   39.8110 C   0  0  0  0  0  0  0  0  0  0  0  0
   36.6110   24.6540   40.0960 C   0  0  0  0  0  0  0  0  0  0  0  0
   36.8040   25.5570   39.1300 N   0  0  0  0  0  0  0  0  0  0  0  0
   36.2290   25.6400   37.9560 C   0  0  0  0  0  0  0  0  0  0  0  0
   35.3190   24.6980   37.6610 N   0  0  0  0  0  0  0  0  0  0  0  0
   34.3040   22.9790   38.3070 H   0  0  0  0  0  0  0  0  0  0  0  0
   35.4430   22.9050   40.5060 H   0  0  0  0  0  0  0  0  0  0  0  0
   37.2650   24.5970   41.4000 C   0  0  0  0  0  0  0  0  0  0  0  0
   38.1840   25.6110   41.5110 F   0  0  0  0  0  0  0  0  0  0  0  0
   37.9060   23.4020   41.4620 F   0  0  0  0  0  0  0  0  0  0  0  0
   36.3570   24.7750   42.4370 F   0  0  0  0  0  0  0  0  0  0  0  0
  1  7  1  6  0  0  0
  1 32  1  0  0  0  0
  1  6  1  0  0  0  0
  2  9  1  0  0  0  0
  2  1  1  0  0  0  0
  3 11  1  0  0  0  0
  3  2  1  0  0  0  0
  3  4  1  0  0  0  0
  4  5  1  0  0  0  0
  5 15  1  0  0  0  0
  5  6  1  0  0  0  0
  5 14  1  0  0  0  0
  6 17  1  0  0  0  0
  6 16  1  1  0  0  0
  8  2  1  0  0  0  0
 10  3  1  0  0  0  0
 12  4  1  0  0  0  0
 13  4  1  0  0  0  0
 17 18  1  0  0  0  0
 17 21  1  0  0  0  0
 19 17  1  0  0  0  0
 20 31  1  0  0  0  0
 21 20  2  0  0  0  0
 21 22  1  0  0  0  0
 22 24  2  0  0  0  0
 23 22  1  0  0  0  0
 24 30  1  0  0  0  0
 24 25  1  0  0  0  0
 25 26  1  0  0  0  0
 25 27  1  0  0  0  0
 27 28  1  0  0  0  0
 29 27  2  0  0  0  0
 30 29  1  0  0  0  0
 31 30  2  0  0  0  0
 32 38  1  0  0  0  0
 33 32  2  0  0  0  0
 34 35  1  0  0  0  0
 35 36  2  0  0  0  0
 35 41  1  0  0  0  0
 36 42  1  0  0  0  0
 37 36  1  0  0  0  0
 38 37  2  0  0  0  0
 39 38  1  0  0  0  0
 39 34  2  0  0  0  0
 40 34  1  0  0  0  0
 42 44  1  0  0  0  0
 42 43  1  0  0  0  0
 42 45  1  0  0  0  0
M  END
>  <minimizedAffinity>
-5.90174675

$$$$
