
 OpenBabel03242521013D

 30 33  0  0  0  0  0  0  0  0999 V2000
   46.7640   34.7630   41.9390 C   0  0  0  0  0  0  0  0  0  0  0  0
   48.0060   35.3320   41.7380 C   0  0  0  0  0  0  0  0  0  0  0  0
   48.7370   35.2150   40.5760 C   0  0  0  0  0  0  0  0  0  0  0  0
   48.1970   34.4760   39.5290 C   0  0  0  0  0  0  0  0  0  0  0  0
   46.9670   33.9240   39.7560 C   0  0  0  0  0  0  0  0  0  0  0  0
   46.2950   34.0650   40.9020 N   0  0  0  0  0  0  0  0  0  0  0  0
   48.4680   35.9170   42.5240 H   0  0  0  0  0  0  0  0  0  0  0  0
   49.7160   35.6930   40.4840 H   0  0  0  0  0  0  0  0  0  0  0  0
   48.7500   34.3740   38.6190 H   0  0  0  0  0  0  0  0  0  0  0  0
   45.6550   31.9480   39.0550 C   0  0  0  0  0  0  0  0  0  0  0  0
   46.3140   33.1290   38.7200 C   0  0  0  0  0  0  0  0  0  0  0  0
   46.2760   33.4320   37.3770 C   0  0  0  0  0  0  0  0  0  0  0  0
   46.7630   34.3250   37.0510 H   0  0  0  0  0  0  0  0  0  0  0  0
   45.6490   32.6480   36.4520 C   0  0  0  0  0  0  0  0  0  0  0  0
   45.5060   32.7740   35.1250 N   0  0  0  0  0  0  0  0  0  0  0  0
   45.9000   33.5790   34.5590 H   0  0  0  0  0  0  0  0  0  0  0  0
   44.7940   31.7340   34.6300 C   0  0  0  0  0  0  0  0  0  0  0  0
   44.5360   31.5860   33.6060 H   0  0  0  0  0  0  0  0  0  0  0  0
   44.4780   30.9200   35.6990 C   0  0  0  0  0  0  0  0  0  0  0  0
   45.0130   31.4950   36.8330 C   0  0  0  0  0  0  0  0  0  0  0  0
   45.0060   31.1210   38.1600 C   0  0  0  0  0  0  0  0  0  0  0  0
   44.4800   35.9420   44.7110 C   0  0  0  0  0  0  0  0  0  0  0  0
   45.1160   35.9470   43.4530 C   0  0  0  0  0  0  0  0  0  0  0  0
   46.0210   34.9090   43.1810 C   0  0  0  0  0  0  0  0  0  0  0  0
   46.2120   33.9890   44.1440 N   0  0  0  0  0  0  0  0  0  0  0  0
   45.5930   34.0070   45.3330 C   0  0  0  0  0  0  0  0  0  0  0  0
   44.7260   34.9900   45.6090 N   0  0  0  0  0  0  0  0  0  0  0  0
   43.7890   36.7370   44.9140 H   0  0  0  0  0  0  0  0  0  0  0  0
   44.9710   36.6700   42.6910 H   0  0  0  0  0  0  0  0  0  0  0  0
   45.8330   33.2020   46.0260 H   0  0  0  0  0  0  0  0  0  0  0  0
  1 24  1  0  0  0  0
  2  1  1  0  0  0  0
  2  7  1  0  0  0  0
  3  2  2  0  0  0  0
  4  5  2  0  0  0  0
  4  3  1  0  0  0  0
  5  6  1  0  0  0  0
  6  1  2  0  0  0  0
  8  3  1  0  0  0  0
  9  4  1  0  0  0  0
 11 10  1  0  0  0  0
 11  5  1  0  0  0  0
 12 11  2  0  0  0  0
 13 12  1  0  0  0  0
 14 20  2  0  0  0  0
 14 12  1  0  0  0  0
 15 14  1  0  0  0  0
 16 15  1  0  0  0  0
 17 15  1  0  0  0  0
 17 19  2  0  0  0  0
 18 17  1  0  0  0  0
 19 20  1  0  0  0  0
 20 21  1  0  0  0  0
 21 10  2  0  0  0  0
 22 28  1  0  0  0  0
 22 27  1  0  0  0  0
 23 22  2  0  0  0  0
 24 23  1  0  0  0  0
 24 25  2  0  0  0  0
 25 26  1  0  0  0  0
 26 27  2  0  0  0  0
 26 30  1  0  0  0  0
 29 23  1  0  0  0  0
M  END
>  <minimizedAffinity>
-6.18835068

>  <minimizedRMSD>
0.352878213

$$$$
