
 OpenBabel03252505103D

 47 51  0  0  1  0  0  0  0  0999 V2000
   44.5950   35.5420   44.5890 C   0  0  0  0  0  0  0  0  0  0  0  0
   45.2660   35.5420   43.3420 C   0  0  0  0  0  0  0  0  0  0  0  0
   46.3630   34.6300   43.1770 C   0  0  0  0  0  0  0  0  0  0  0  0
   46.6980   33.8190   44.2250 N   0  0  0  0  0  0  0  0  0  0  0  0
   46.0330   33.8560   45.3850 C   0  0  0  0  0  0  0  0  0  0  0  0
   44.9770   34.7160   45.5780 N   0  0  0  0  0  0  0  0  0  0  0  0
   43.7740   36.2420   44.6710 H   0  0  0  0  0  0  0  0  0  0  0  0
   44.9920   36.1890   42.5180 H   0  0  0  0  0  0  0  0  0  0  0  0
   46.4410   32.9540   46.4960 C   0  0  2  0  0  0  0  0  0  0  0  0
   46.9750   31.7130   45.8130 C   0  0  0  0  0  0  0  0  0  0  0  0
   46.0980   30.5320   45.8330 C   0  0  0  0  0  0  0  0  0  0  0  0
   45.8060   30.2810   47.3090 C   0  0  0  0  0  0  0  0  0  0  0  0
   45.0060   31.3640   47.9040 C   0  0  0  0  0  0  0  0  0  0  0  0
   45.3860   32.7250   47.4400 C   0  0  0  0  0  0  0  0  0  0  0  0
   47.2880   33.4870   46.9980 H   0  0  0  0  0  0  0  0  0  0  0  0
   47.9120   31.4300   46.3420 H   0  0  0  0  0  0  0  0  0  0  0  0
   47.3060   31.9110   44.7660 H   0  0  0  0  0  0  0  0  0  0  0  0
   45.1500   30.7490   45.3300 H   0  0  0  0  0  0  0  0  0  0  0  0
   46.6460   29.6790   45.4390 H   0  0  0  0  0  0  0  0  0  0  0  0
   45.1070   29.4020   47.2890 H   0  0  0  0  0  0  0  0  0  0  0  0
   46.6860   29.9870   47.8810 H   0  0  0  0  0  0  0  0  0  0  0  0
   44.2080   31.4220   48.5960 H   0  0  0  0  0  0  0  0  0  0  0  0
   44.6900   33.8640   47.9340 N   0  0  0  0  0  0  0  0  0  0  0  0
   45.1510   34.5020   48.6380 H   0  0  0  0  0  0  0  0  0  0  0  0
   43.7310   34.2290   47.7230 H   0  0  0  0  0  0  0  0  0  0  0  0
   47.0690   34.6020   41.9210 C   0  0  0  0  0  0  0  0  0  0  0  0
   48.0970   35.4530   41.7250 C   0  0  0  0  0  0  0  0  0  0  0  0
   48.7450   35.3790   40.4790 C   0  0  0  0  0  0  0  0  0  0  0  0
   48.2620   34.4400   39.5780 C   0  0  0  0  0  0  0  0  0  0  0  0
   47.2190   33.5760   39.7800 C   0  0  0  0  0  0  0  0  0  0  0  0
   46.6460   33.7120   41.0100 N   0  0  0  0  0  0  0  0  0  0  0  0
   48.4320   36.1650   42.4570 H   0  0  0  0  0  0  0  0  0  0  0  0
   49.5810   36.0220   40.2290 H   0  0  0  0  0  0  0  0  0  0  0  0
   48.7870   34.4090   38.6240 H   0  0  0  0  0  0  0  0  0  0  0  0
   46.8030   32.6760   38.8350 O   0  0  0  0  0  0  0  0  0  0  0  0
   47.0230   32.7410   36.3720 C   0  0  0  0  0  3  0  0  0  0  0  0
   47.4190   32.4220   37.6450 C   0  0  0  0  0  0  0  0  0  0  0  0
   48.6280   31.7370   37.7820 C   0  0  0  0  0  0  0  0  0  0  0  0
   49.0740   31.4160   38.7250 H   0  0  0  0  0  0  0  0  0  0  0  0
   49.3990   31.3900   36.6850 C   0  0  0  0  0  0  0  0  0  0  0  0
   50.5770   30.7470   36.5080 N   0  0  0  0  0  0  0  0  0  0  0  0
   51.1660   30.3580   37.2840 H   0  0  0  0  0  0  0  0  0  0  0  0
   50.8790   30.6760   35.2170 C   0  0  0  0  0  0  0  0  0  0  0  0
   51.7670   30.2140   34.7750 H   0  0  0  0  0  0  0  0  0  0  0  0
   49.8930   31.2820   34.4850 C   0  0  0  0  0  3  0  0  0  0  0  0
   48.9700   31.7270   35.4090 C   0  0  0  0  0  0  0  0  0  0  0  0
   47.7810   32.4030   35.2610 C   0  0  0  0  0  3  0  0  0  0  0  0
  1  7  1  0  0  0  0
  1  6  1  0  0  0  0
  2  1  2  0  0  0  0
  3  2  1  0  0  0  0
  3  4  2  0  0  0  0
  4  5  1  0  0  0  0
  5  6  2  0  0  0  0
  5  9  1  0  0  0  0
  8  2  1  0  0  0  0
  9 15  1  1  0  0  0
  9 14  1  0  0  0  0
 10 11  1  0  0  0  0
 10 16  1  0  0  0  0
 10  9  1  0  0  0  0
 11 12  1  0  0  0  0
 12 21  1  0  0  0  0
 12 13  1  0  0  0  0
 13 22  1  0  0  0  0
 14 13  2  0  0  0  0
 14 23  1  0  0  0  0
 17 10  1  0  0  0  0
 18 11  1  0  0  0  0
 19 11  1  0  0  0  0
 20 12  1  0  0  0  0
 23 24  1  0  0  0  0
 25 23  1  0  0  0  0
 26  3  1  0  0  0  0
 27 26  1  0  0  0  0
 27 32  1  0  0  0  0
 28 27  2  0  0  0  0
 29 30  2  0  0  0  0
 29 28  1  0  0  0  0
 30 31  1  0  0  0  0
 31 26  2  0  0  0  0
 33 28  1  0  0  0  0
 34 29  1  0  0  0  0
 35 30  1  0  0  0  0
 36 37  1  0  0  0  0
 37 38  2  0  0  0  0
 37 35  1  0  0  0  0
 38 39  1  0  0  0  0
 40 38  1  0  0  0  0
 41 40  1  0  0  0  0
 41 42  1  0  0  0  0
 43 41  1  0  0  0  0
 44 43  1  0  0  0  0
 45 43  2  0  0  0  0
 45 46  1  0  0  0  0
 46 40  2  0  0  0  0
 47 46  1  0  0  0  0
 47 36  2  0  0  0  0
M  END
>  <minimizedAffinity>
-7.43731403

>  <minimizedRMSD>
0.60577327

$$$$
