
 OpenBabel03252505113D

 47 51  0  0  1  0  0  0  0  0999 V2000
   44.5650   35.6030   44.6190 C   0  0  0  0  0  0  0  0  0  0  0  0
   45.2200   35.6180   43.3640 C   0  0  0  0  0  0  0  0  0  0  0  0
   46.3110   34.7050   43.1720 C   0  0  0  0  0  0  0  0  0  0  0  0
   46.6560   33.8780   44.2040 N   0  0  0  0  0  0  0  0  0  0  0  0
   46.0060   33.9020   45.3720 C   0  0  0  0  0  0  0  0  0  0  0  0
   44.9560   34.7620   45.5920 N   0  0  0  0  0  0  0  0  0  0  0  0
   43.7480   36.3060   44.7220 H   0  0  0  0  0  0  0  0  0  0  0  0
   44.9380   36.2780   42.5520 H   0  0  0  0  0  0  0  0  0  0  0  0
   46.4250   32.9820   46.4660 C   0  0  2  0  0  0  0  0  0  0  0  0
   46.9530   31.7520   45.7590 C   0  0  0  0  0  0  0  0  0  0  0  0
   46.0770   30.5700   45.7680 C   0  0  0  0  0  0  0  0  0  0  0  0
   45.7990   30.2970   47.2420 C   0  0  0  0  0  0  0  0  0  0  0  0
   45.0040   31.3690   47.8620 C   0  0  0  0  0  0  0  0  0  0  0  0
   45.3790   32.7380   47.4150 C   0  0  0  0  0  0  0  0  0  0  0  0
   47.2760   33.5080   46.9680 H   0  0  0  0  0  0  0  0  0  0  0  0
   47.8960   31.4620   46.2740 H   0  0  0  0  0  0  0  0  0  0  0  0
   47.2750   31.9670   44.7110 H   0  0  0  0  0  0  0  0  0  0  0  0
   45.1250   30.7950   45.2770 H   0  0  0  0  0  0  0  0  0  0  0  0
   46.6230   29.7250   45.3560 H   0  0  0  0  0  0  0  0  0  0  0  0
   45.1010   29.4170   47.2150 H   0  0  0  0  0  0  0  0  0  0  0  0
   46.6850   29.9940   47.8020 H   0  0  0  0  0  0  0  0  0  0  0  0
   44.2130   31.4160   48.5620 H   0  0  0  0  0  0  0  0  0  0  0  0
   44.6870   33.8680   47.9340 N   0  0  0  0  0  0  0  0  0  0  0  0
   45.1540   34.4960   48.6430 H   0  0  0  0  0  0  0  0  0  0  0  0
   43.7260   34.2360   47.7370 H   0  0  0  0  0  0  0  0  0  0  0  0
   47.0000   34.6920   41.9060 C   0  0  0  0  0  0  0  0  0  0  0  0
   48.1600   35.3670   41.7820 C   0  0  0  0  0  0  0  0  0  0  0  0
   48.7850   35.3180   40.5230 C   0  0  0  0  0  0  0  0  0  0  0  0
   48.1450   34.5810   39.5370 C   0  0  0  0  0  0  0  0  0  0  0  0
   46.9670   33.8940   39.6660 C   0  0  0  0  0  0  0  0  0  0  0  0
   46.4280   33.9930   40.9140 N   0  0  0  0  0  0  0  0  0  0  0  0
   48.6160   35.9260   42.5800 H   0  0  0  0  0  0  0  0  0  0  0  0
   49.7200   35.8300   40.3270 H   0  0  0  0  0  0  0  0  0  0  0  0
   48.6560   34.5620   38.5750 H   0  0  0  0  0  0  0  0  0  0  0  0
   46.3990   33.1880   38.6370 O   0  0  0  0  0  0  0  0  0  0  0  0
   48.1770   33.3550   36.9270 C   0  0  0  0  0  3  0  0  0  0  0  0
   46.9850   32.9110   37.4380 C   0  0  0  0  0  0  0  0  0  0  0  0
   46.2340   32.0480   36.6390 C   0  0  0  0  0  0  0  0  0  0  0  0
   45.2680   31.6110   36.9050 H   0  0  0  0  0  0  0  0  0  0  0  0
   46.6660   31.6500   35.3840 C   0  0  0  0  0  0  0  0  0  0  0  0
   46.1730   30.8490   34.4110 N   0  0  0  0  0  0  0  0  0  0  0  0
   45.2610   30.3350   34.4670 H   0  0  0  0  0  0  0  0  0  0  0  0
   47.0050   30.8050   33.3780 C   0  0  0  0  0  0  0  0  0  0  0  0
   46.8710   30.2410   32.4500 H   0  0  0  0  0  0  0  0  0  0  0  0
   48.0970   31.5920   33.6380 C   0  0  0  0  0  3  0  0  0  0  0  0
   47.8790   32.1170   34.8960 C   0  0  0  0  0  0  0  0  0  0  0  0
   48.6280   32.9700   35.6730 C   0  0  0  0  0  3  0  0  0  0  0  0
  1  7  1  0  0  0  0
  1  6  1  0  0  0  0
  2  1  2  0  0  0  0
  3  2  1  0  0  0  0
  3  4  2  0  0  0  0
  4  5  1  0  0  0  0
  5  6  2  0  0  0  0
  5  9  1  0  0  0  0
  8  2  1  0  0  0  0
  9 15  1  1  0  0  0
  9 14  1  0  0  0  0
 10 11  1  0  0  0  0
 10 16  1  0  0  0  0
 10  9  1  0  0  0  0
 11 12  1  0  0  0  0
 12 21  1  0  0  0  0
 12 13  1  0  0  0  0
 13 22  1  0  0  0  0
 14 13  2  0  0  0  0
 14 23  1  0  0  0  0
 17 10  1  0  0  0  0
 18 11  1  0  0  0  0
 19 11  1  0  0  0  0
 20 12  1  0  0  0  0
 23 24  1  0  0  0  0
 25 23  1  0  0  0  0
 26  3  1  0  0  0  0
 27 26  1  0  0  0  0
 27 32  1  0  0  0  0
 28 27  2  0  0  0  0
 29 30  2  0  0  0  0
 29 28  1  0  0  0  0
 30 31  1  0  0  0  0
 31 26  2  0  0  0  0
 33 28  1  0  0  0  0
 34 29  1  0  0  0  0
 35 30  1  0  0  0  0
 36 37  1  0  0  0  0
 37 35  1  0  0  0  0
 38 39  1  0  0  0  0
 38 37  2  0  0  0  0
 40 38  1  0  0  0  0
 41 42  1  0  0  0  0
 41 40  1  0  0  0  0
 43 45  2  0  0  0  0
 43 41  1  0  0  0  0
 44 43  1  0  0  0  0
 45 46  1  0  0  0  0
 46 40  2  0  0  0  0
 46 47  1  0  0  0  0
 47 36  2  0  0  0  0
M  END
>  <minimizedAffinity>
-7.8635993

>  <minimizedRMSD>
0.219300479

$$$$
