
 OpenBabel03252502423D

 27 29  0  0  0  0  0  0  0  0999 V2000
   36.2370   28.0200   41.9090 C   0  0  0  0  0  0  0  0  0  0  0  0
   36.3400   27.0180   41.4830 H   0  0  0  0  0  0  0  0  0  0  0  0
   35.2260   28.1990   42.2960 H   0  0  0  0  0  0  0  0  0  0  0  0
   36.7200   28.7730   39.5300 C   0  0  0  0  0  3  0  0  0  0  0  0
   36.5270   29.0450   40.8570 C   0  0  0  0  0  0  0  0  0  0  0  0
   36.6100   30.3700   41.2550 C   0  0  0  0  0  0  0  0  0  0  0  0
   36.4650   30.6290   42.2910 H   0  0  0  0  0  0  0  0  0  0  0  0
   36.8730   31.3970   40.3740 C   0  0  0  0  0  0  0  0  0  0  0  0
   36.9960   32.7280   40.5310 N   0  0  0  0  0  0  0  0  0  0  0  0
   36.9040   33.2560   41.4410 H   0  0  0  0  0  0  0  0  0  0  0  0
   37.2610   33.2980   39.3310 C   0  0  0  0  0  0  0  0  0  0  0  0
   37.4150   34.3460   39.1140 H   0  0  0  0  0  0  0  0  0  0  0  0
   37.2980   32.2540   38.4090 C   0  0  0  0  0  3  0  0  0  0  0  0
   37.0580   31.0540   39.0350 C   0  0  0  0  0  0  0  0  0  0  0  0
   36.9830   29.7490   38.6040 C   0  0  0  0  0  3  0  0  0  0  0  0
   37.2430   28.1120   43.0400 C   0  0  0  0  0  0  0  0  0  0  0  0
   37.8870   28.9880   42.9420 H   0  0  0  0  0  0  0  0  0  0  0  0
   36.7250   28.1860   44.0330 H   0  0  0  0  0  0  0  0  0  0  0  0
   38.4320   24.6030   42.3180 C   0  0  0  0  0  0  0  0  0  0  0  0
   37.6370   25.7770   42.3310 C   0  0  0  0  0  0  0  0  0  0  0  0
   38.0750   26.8920   43.0300 C   0  0  0  0  0  0  0  0  0  0  0  0
   39.2730   26.7850   43.6790 N   0  0  0  0  0  0  0  0  0  0  0  0
   40.0110   25.6650   43.6560 C   0  0  0  0  0  0  0  0  0  0  0  0
   39.5960   24.5800   42.9810 N   0  0  0  0  0  0  0  0  0  0  0  0
   38.1250   23.7140   41.7840 H   0  0  0  0  0  0  0  0  0  0  0  0
   36.7010   25.7730   41.7880 H   0  0  0  0  0  0  0  0  0  0  0  0
   40.9470   25.6740   44.2010 H   0  0  0  0  0  0  0  0  0  0  0  0
  1  3  1  0  0  0  0
  1 16  1  0  0  0  0
  2  1  1  0  0  0  0
  4  5  1  0  0  0  0
  5  6  2  0  0  0  0
  5  1  1  0  0  0  0
  6  7  1  0  0  0  0
  8  9  1  0  0  0  0
  8  6  1  0  0  0  0
  9 10  1  0  0  0  0
 11  9  1  0  0  0  0
 12 11  1  0  0  0  0
 13 14  1  0  0  0  0
 13 11  2  0  0  0  0
 14  8  2  0  0  0  0
 15 14  1  0  0  0  0
 15  4  2  0  0  0  0
 16 18  1  0  0  0  0
 17 16  1  0  0  0  0
 19 20  2  0  0  0  0
 19 24  1  0  0  0  0
 20 21  1  0  0  0  0
 21 16  1  0  0  0  0
 21 22  2  0  0  0  0
 23 22  1  0  0  0  0
 23 27  1  0  0  0  0
 24 23  2  0  0  0  0
 25 19  1  0  0  0  0
 26 20  1  0  0  0  0
M  END
>  <minimizedAffinity>
-5.55535841

$$$$

 OpenBabel03252502423D

 27 29  0  0  0  0  0  0  0  0999 V2000
   36.5100   28.4740   41.8090 C   0  0  0  0  0  0  0  0  0  0  0  0
   36.7450   27.7280   41.0440 H   0  0  0  0  0  0  0  0  0  0  0  0
   35.4450   28.7350   41.8120 H   0  0  0  0  0  0  0  0  0  0  0  0
   38.5980   29.9160   41.9430 C   0  0  0  0  0  3  0  0  0  0  0  0
   37.3010   29.7190   41.5560 C   0  0  0  0  0  0  0  0  0  0  0  0
   36.6720   30.7540   40.8810 C   0  0  0  0  0  0  0  0  0  0  0  0
   35.6500   30.6420   40.5590 H   0  0  0  0  0  0  0  0  0  0  0  0
   37.3020   31.9460   40.5930 C   0  0  0  0  0  0  0  0  0  0  0  0
   36.8990   33.0650   39.9630 N   0  0  0  0  0  0  0  0  0  0  0  0
   35.9430   33.2300   39.5450 H   0  0  0  0  0  0  0  0  0  0  0  0
   37.9160   33.9600   39.9450 C   0  0  0  0  0  0  0  0  0  0  0  0
   37.9180   34.9520   39.5160 H   0  0  0  0  0  0  0  0  0  0  0  0
   38.9810   33.3450   40.5980 C   0  0  0  0  0  3  0  0  0  0  0  0
   38.6250   32.0840   41.0140 C   0  0  0  0  0  0  0  0  0  0  0  0
   39.2800   31.0780   41.6860 C   0  0  0  0  0  3  0  0  0  0  0  0
   36.8920   27.8570   43.1420 C   0  0  0  0  0  0  0  0  0  0  0  0
   37.4850   28.5400   43.7520 H   0  0  0  0  0  0  0  0  0  0  0  0
   35.9780   27.5840   43.7340 H   0  0  0  0  0  0  0  0  0  0  0  0
   37.8170   24.3850   41.9830 C   0  0  0  0  0  0  0  0  0  0  0  0
   37.0710   25.5650   42.2320 C   0  0  0  0  0  0  0  0  0  0  0  0
   37.6730   26.6290   42.8860 C   0  0  0  0  0  0  0  0  0  0  0  0
   38.9770   26.4690   43.2600 N   0  0  0  0  0  0  0  0  0  0  0  0
   39.6670   25.3440   43.0170 C   0  0  0  0  0  0  0  0  0  0  0  0
   39.0930   24.3070   42.3830 N   0  0  0  0  0  0  0  0  0  0  0  0
   37.3830   23.5340   41.4760 H   0  0  0  0  0  0  0  0  0  0  0  0
   36.0410   25.6060   41.9000 H   0  0  0  0  0  0  0  0  0  0  0  0
   40.6970   25.3090   43.3500 H   0  0  0  0  0  0  0  0  0  0  0  0
  1  3  1  0  0  0  0
  1 16  1  0  0  0  0
  2  1  1  0  0  0  0
  5  1  1  0  0  0  0
  5  4  2  0  0  0  0
  6  5  1  0  0  0  0
  7  6  1  0  0  0  0
  8  6  2  0  0  0  0
  8 14  1  0  0  0  0
  9  8  1  0  0  0  0
 10  9  1  0  0  0  0
 11  9  1  0  0  0  0
 11 13  2  0  0  0  0
 12 11  1  0  0  0  0
 13 14  1  0  0  0  0
 14 15  2  0  0  0  0
 15  4  1  0  0  0  0
 16 18  1  0  0  0  0
 16 17  1  0  0  0  0
 19 20  2  0  0  0  0
 19 24  1  0  0  0  0
 20 21  1  0  0  0  0
 21 16  1  0  0  0  0
 21 22  2  0  0  0  0
 23 22  1  0  0  0  0
 23 27  1  0  0  0  0
 24 23  2  0  0  0  0
 25 19  1  0  0  0  0
 26 20  1  0  0  0  0
M  END
>  <minimizedAffinity>
-5.39253283

$$$$

 OpenBabel03252502423D

 27 29  0  0  0  0  0  0  0  0999 V2000
   39.0660   28.9070   42.9260 C   0  0  0  0  0  0  0  0  0  0  0  0
   39.6020   29.3080   43.7910 H   0  0  0  0  0  0  0  0  0  0  0  0
   39.7120   28.2800   42.2990 H   0  0  0  0  0  0  0  0  0  0  0  0
   37.3330   30.0480   41.4590 C   0  0  0  0  0  3  0  0  0  0  0  0
   38.5470   30.0340   42.0890 C   0  0  0  0  0  0  0  0  0  0  0  0
   39.3580   31.1490   41.9390 C   0  0  0  0  0  0  0  0  0  0  0  0
   40.3220   31.1800   42.4180 H   0  0  0  0  0  0  0  0  0  0  0  0
   38.9840   32.2450   41.1920 C   0  0  0  0  0  0  0  0  0  0  0  0
   39.5930   33.4120   40.9120 N   0  0  0  0  0  0  0  0  0  0  0  0
   40.5470   33.7100   41.2500 H   0  0  0  0  0  0  0  0  0  0  0  0
   38.7860   34.1600   40.1200 C   0  0  0  0  0  0  0  0  0  0  0  0
   38.9790   35.1460   39.7190 H   0  0  0  0  0  0  0  0  0  0  0  0
   37.6370   33.4010   39.9150 C   0  0  0  0  0  3  0  0  0  0  0  0
   37.7330   32.1980   40.5750 C   0  0  0  0  0  0  0  0  0  0  0  0
   36.9030   31.1080   40.7020 C   0  0  0  0  0  3  0  0  0  0  0  0
   37.9220   28.0770   43.4780 C   0  0  0  0  0  0  0  0  0  0  0  0
   37.9000   28.0880   44.5690 H   0  0  0  0  0  0  0  0  0  0  0  0
   36.9330   28.4670   43.1170 H   0  0  0  0  0  0  0  0  0  0  0  0
   37.1530   24.7060   41.9610 C   0  0  0  0  0  0  0  0  0  0  0  0
   37.0050   26.0420   42.4140 C   0  0  0  0  0  0  0  0  0  0  0  0
   38.0810   26.6850   43.0080 C   0  0  0  0  0  0  0  0  0  0  0  0
   39.2410   25.9740   43.1240 N   0  0  0  0  0  0  0  0  0  0  0  0
   39.3620   24.7100   42.6900 C   0  0  0  0  0  0  0  0  0  0  0  0
   38.3260   24.0780   42.1120 N   0  0  0  0  0  0  0  0  0  0  0  0
   36.3380   24.1710   41.4920 H   0  0  0  0  0  0  0  0  0  0  0  0
   36.0480   26.5300   42.2810 H   0  0  0  0  0  0  0  0  0  0  0  0
   40.3220   24.2260   42.8240 H   0  0  0  0  0  0  0  0  0  0  0  0
  1 16  1  0  0  0  0
  1  2  1  0  0  0  0
  3  1  1  0  0  0  0
  4  5  1  0  0  0  0
  5  1  1  0  0  0  0
  6  5  2  0  0  0  0
  6  7  1  0  0  0  0
  8  6  1  0  0  0  0
  9  8  1  0  0  0  0
  9 10  1  0  0  0  0
 11  9  1  0  0  0  0
 12 11  1  0  0  0  0
 13 11  2  0  0  0  0
 13 14  1  0  0  0  0
 14 15  1  0  0  0  0
 14  8  2  0  0  0  0
 15  4  2  0  0  0  0
 16 17  1  0  0  0  0
 18 16  1  0  0  0  0
 19 24  2  0  0  0  0
 19 20  1  0  0  0  0
 20 21  2  0  0  0  0
 21 22  1  0  0  0  0
 21 16  1  0  0  0  0
 23 27  1  0  0  0  0
 23 22  2  0  0  0  0
 24 23  1  0  0  0  0
 25 19  1  0  0  0  0
 26 20  1  0  0  0  0
M  END
>  <minimizedAffinity>
-5.26851892

$$$$

 OpenBabel03252502423D

 27 29  0  0  0  0  0  0  0  0999 V2000
   39.1500   30.0950   42.7150 C   0  0  0  0  0  0  0  0  0  0  0  0
   39.9990   30.0340   43.4020 H   0  0  0  0  0  0  0  0  0  0  0  0
   38.4340   30.8690   43.0160 H   0  0  0  0  0  0  0  0  0  0  0  0
   37.2870   28.4940   43.3680 C   0  0  0  0  0  3  0  0  0  0  0  0
   38.4350   28.7800   42.6810 C   0  0  0  0  0  0  0  0  0  0  0  0
   38.9780   27.7730   41.8980 C   0  0  0  0  0  0  0  0  0  0  0  0
   39.8820   27.9550   41.3410 H   0  0  0  0  0  0  0  0  0  0  0  0
   38.4070   26.5230   41.7910 C   0  0  0  0  0  0  0  0  0  0  0  0
   38.7490   25.4160   41.1060 N   0  0  0  0  0  0  0  0  0  0  0  0
   39.5910   25.3120   40.4780 H   0  0  0  0  0  0  0  0  0  0  0  0
   37.8390   24.4410   41.3470 C   0  0  0  0  0  0  0  0  0  0  0  0
   37.8240   23.4350   40.9510 H   0  0  0  0  0  0  0  0  0  0  0  0
   36.9050   24.9940   42.2210 C   0  0  0  0  0  3  0  0  0  0  0  0
   37.2360   26.2950   42.5150 C   0  0  0  0  0  0  0  0  0  0  0  0
   36.6700   27.2710   43.3030 C   0  0  0  0  0  3  0  0  0  0  0  0
   39.7240   30.4290   41.3510 C   0  0  0  0  0  0  0  0  0  0  0  0
   40.7780   30.7060   41.4100 H   0  0  0  0  0  0  0  0  0  0  0  0
   39.6470   29.5500   40.6570 H   0  0  0  0  0  0  0  0  0  0  0  0
   37.1100   32.3610   39.4310 C   0  0  0  0  0  0  0  0  0  0  0  0
   37.8520   31.2850   39.9820 C   0  0  0  0  0  0  0  0  0  0  0  0
   38.9550   31.5530   40.7790 C   0  0  0  0  0  0  0  0  0  0  0  0
   39.2660   32.8670   40.9850 N   0  0  0  0  0  0  0  0  0  0  0  0
   38.5520   33.8710   40.4540 C   0  0  0  0  0  0  0  0  0  0  0  0
   37.4810   33.6220   39.6820 N   0  0  0  0  0  0  0  0  0  0  0  0
   36.2430   32.1920   38.8060 H   0  0  0  0  0  0  0  0  0  0  0  0
   37.5330   30.2730   39.7670 H   0  0  0  0  0  0  0  0  0  0  0  0
   38.8740   34.8820   40.6730 H   0  0  0  0  0  0  0  0  0  0  0  0
  1  3  1  0  0  0  0
  1  2  1  0  0  0  0
  5  1  1  0  0  0  0
  5  4  2  0  0  0  0
  6  5  1  0  0  0  0
  7  6  1  0  0  0  0
  8  6  2  0  0  0  0
  8 14  1  0  0  0  0
  9 11  1  0  0  0  0
  9  8  1  0  0  0  0
 10  9  1  0  0  0  0
 11 13  2  0  0  0  0
 12 11  1  0  0  0  0
 13 14  1  0  0  0  0
 14 15  2  0  0  0  0
 15  4  1  0  0  0  0
 16 17  1  0  0  0  0
 16  1  1  0  0  0  0
 18 16  1  0  0  0  0
 19 24  2  0  0  0  0
 19 20  1  0  0  0  0
 20 21  2  0  0  0  0
 21 22  1  0  0  0  0
 21 16  1  0  0  0  0
 23 27  1  0  0  0  0
 23 22  2  0  0  0  0
 24 23  1  0  0  0  0
 25 19  1  0  0  0  0
 26 20  1  0  0  0  0
M  END
>  <minimizedAffinity>
-5.07974243

$$$$

 OpenBabel03252502423D

 27 29  0  0  0  0  0  0  0  0999 V2000
   35.7670   28.7470   40.9670 C   0  0  0  0  0  0  0  0  0  0  0  0
   34.8370   28.6530   41.5360 H   0  0  0  0  0  0  0  0  0  0  0  0
   35.7140   28.2200   40.0070 H   0  0  0  0  0  0  0  0  0  0  0  0
   37.7040   28.8850   42.6060 C   0  0  0  0  0  3  0  0  0  0  0  0
   36.9000   28.1730   41.7590 C   0  0  0  0  0  0  0  0  0  0  0  0
   37.1570   26.8170   41.6240 C   0  0  0  0  0  0  0  0  0  0  0  0
   36.5490   26.2180   40.9670 H   0  0  0  0  0  0  0  0  0  0  0  0
   38.1740   26.1820   42.3030 C   0  0  0  0  0  0  0  0  0  0  0  0
   38.6000   24.9050   42.3280 N   0  0  0  0  0  0  0  0  0  0  0  0
   38.1860   24.1040   41.7800 H   0  0  0  0  0  0  0  0  0  0  0  0
   39.6540   24.8000   43.1730 C   0  0  0  0  0  0  0  0  0  0  0  0
   40.2230   23.9140   43.4170 H   0  0  0  0  0  0  0  0  0  0  0  0
   39.8700   26.0800   43.6800 C   0  0  0  0  0  3  0  0  0  0  0  0
   38.9580   26.9640   43.1520 C   0  0  0  0  0  0  0  0  0  0  0  0
   38.7310   28.3120   43.3100 C   0  0  0  0  0  3  0  0  0  0  0  0
   35.9750   30.2310   40.7280 C   0  0  0  0  0  0  0  0  0  0  0  0
   35.0580   30.8010   40.8850 H   0  0  0  0  0  0  0  0  0  0  0  0
   36.7510   30.6430   41.4260 H   0  0  0  0  0  0  0  0  0  0  0  0
   36.4970   29.6940   37.0280 C   0  0  0  0  0  0  0  0  0  0  0  0
   36.0560   29.5140   38.3640 C   0  0  0  0  0  0  0  0  0  0  0  0
   36.4380   30.4230   39.3390 C   0  0  0  0  0  0  0  0  0  0  0  0
   37.2350   31.4590   38.9410 N   0  0  0  0  0  0  0  0  0  0  0  0
   37.6430   31.6130   37.6730 C   0  0  0  0  0  0  0  0  0  0  0  0
   37.2780   30.7380   36.7210 N   0  0  0  0  0  0  0  0  0  0  0  0
   36.2200   29.0070   36.2400 H   0  0  0  0  0  0  0  0  0  0  0  0
   35.4250   28.6630   38.5900 H   0  0  0  0  0  0  0  0  0  0  0  0
   38.2730   32.4660   37.4520 H   0  0  0  0  0  0  0  0  0  0  0  0
  1  2  1  0  0  0  0
  1  5  1  0  0  0  0
  3  1  1  0  0  0  0
  4 15  1  0  0  0  0
  5  4  2  0  0  0  0
  6  5  1  0  0  0  0
  6  8  2  0  0  0  0
  7  6  1  0  0  0  0
  8  9  1  0  0  0  0
  8 14  1  0  0  0  0
  9 11  1  0  0  0  0
 10  9  1  0  0  0  0
 11 12  1  0  0  0  0
 11 13  2  0  0  0  0
 14 15  2  0  0  0  0
 14 13  1  0  0  0  0
 16 17  1  0  0  0  0
 16  1  1  0  0  0  0
 16 18  1  0  0  0  0
 19 20  1  0  0  0  0
 20 26  1  0  0  0  0
 20 21  2  0  0  0  0
 21 16  1  0  0  0  0
 22 21  1  0  0  0  0
 23 22  2  0  0  0  0
 24 19  2  0  0  0  0
 24 23  1  0  0  0  0
 25 19  1  0  0  0  0
 27 23  1  0  0  0  0
M  END
>  <minimizedAffinity>
-5.04810953

$$$$

 OpenBabel03252502423D

 27 29  0  0  0  0  0  0  0  0999 V2000
   36.0320   28.0110   40.2470 C   0  0  0  0  0  0  0  0  0  0  0  0
   35.1830   27.3240   40.1870 H   0  0  0  0  0  0  0  0  0  0  0  0
   36.5480   28.1100   39.2850 H   0  0  0  0  0  0  0  0  0  0  0  0
   37.3570   28.1640   42.4110 C   0  0  0  0  0  3  0  0  0  0  0  0
   37.0140   27.5090   41.2600 C   0  0  0  0  0  0  0  0  0  0  0  0
   37.6240   26.2890   41.0130 C   0  0  0  0  0  0  0  0  0  0  0  0
   37.3830   25.7400   40.1180 H   0  0  0  0  0  0  0  0  0  0  0  0
   38.5430   25.7300   41.8740 C   0  0  0  0  0  0  0  0  0  0  0  0
   39.2480   24.5830   41.8410 N   0  0  0  0  0  0  0  0  0  0  0  0
   39.2090   23.8540   41.0790 H   0  0  0  0  0  0  0  0  0  0  0  0
   40.0260   24.5030   42.9480 C   0  0  0  0  0  0  0  0  0  0  0  0
   40.7080   23.7110   43.2230 H   0  0  0  0  0  0  0  0  0  0  0  0
   39.7740   25.6620   43.6790 C   0  0  0  0  0  3  0  0  0  0  0  0
   38.8500   26.4470   43.0310 C   0  0  0  0  0  0  0  0  0  0  0  0
   38.2640   27.6600   43.3070 C   0  0  0  0  0  3  0  0  0  0  0  0
   35.4670   29.3550   40.6680 C   0  0  0  0  0  0  0  0  0  0  0  0
   34.4040   29.4400   40.4360 H   0  0  0  0  0  0  0  0  0  0  0  0
   35.5820   29.5100   41.7740 H   0  0  0  0  0  0  0  0  0  0  0  0
   37.2590   31.2600   37.9460 C   0  0  0  0  0  0  0  0  0  0  0  0
   36.5470   30.2410   38.6290 C   0  0  0  0  0  0  0  0  0  0  0  0
   36.2080   30.4200   39.9620 C   0  0  0  0  0  0  0  0  0  0  0  0
   36.5910   31.5940   40.5460 N   0  0  0  0  0  0  0  0  0  0  0  0
   37.2640   32.5460   39.8840 C   0  0  0  0  0  0  0  0  0  0  0  0
   37.5970   32.3830   38.5920 N   0  0  0  0  0  0  0  0  0  0  0  0
   37.5410   31.1580   36.9070 H   0  0  0  0  0  0  0  0  0  0  0  0
   36.2840   29.3420   38.0870 H   0  0  0  0  0  0  0  0  0  0  0  0
   37.5240   33.4440   40.4310 H   0  0  0  0  0  0  0  0  0  0  0  0
  1 16  1  0  0  0  0
  1  5  1  0  0  0  0
  2  1  1  0  0  0  0
  3  1  1  0  0  0  0
  4 15  1  0  0  0  0
  5  4  2  0  0  0  0
  6  5  1  0  0  0  0
  6  8  2  0  0  0  0
  7  6  1  0  0  0  0
  8 14  1  0  0  0  0
  9  8  1  0  0  0  0
  9 11  1  0  0  0  0
 10  9  1  0  0  0  0
 11 12  1  0  0  0  0
 11 13  2  0  0  0  0
 14 15  2  0  0  0  0
 14 13  1  0  0  0  0
 16 18  1  0  0  0  0
 17 16  1  0  0  0  0
 19 24  2  0  0  0  0
 19 20  1  0  0  0  0
 20 21  2  0  0  0  0
 21 22  1  0  0  0  0
 21 16  1  0  0  0  0
 23 27  1  0  0  0  0
 23 22  2  0  0  0  0
 24 23  1  0  0  0  0
 25 19  1  0  0  0  0
 26 20  1  0  0  0  0
M  END
>  <minimizedAffinity>
-4.95059729

$$$$

 OpenBabel03252502423D

 27 29  0  0  0  0  0  0  0  0999 V2000
   35.6670   29.5220   40.3900 C   0  0  0  0  0  0  0  0  0  0  0  0
   34.5790   29.5520   40.5050 H   0  0  0  0  0  0  0  0  0  0  0  0
   35.9680   29.5460   39.3360 H   0  0  0  0  0  0  0  0  0  0  0  0
   36.4360   28.0850   42.3400 C   0  0  0  0  0  3  0  0  0  0  0  0
   36.2010   28.2660   41.0050 C   0  0  0  0  0  0  0  0  0  0  0  0
   36.4820   27.2050   40.1580 C   0  0  0  0  0  0  0  0  0  0  0  0
   36.3130   27.3040   39.0990 H   0  0  0  0  0  0  0  0  0  0  0  0
   36.9780   26.0020   40.6120 C   0  0  0  0  0  0  0  0  0  0  0  0
   37.3180   24.8580   39.9880 N   0  0  0  0  0  0  0  0  0  0  0  0
   37.2540   24.6760   38.9510 H   0  0  0  0  0  0  0  0  0  0  0  0
   37.7600   23.9620   40.9040 C   0  0  0  0  0  0  0  0  0  0  0  0
   38.1060   22.9530   40.7310 H   0  0  0  0  0  0  0  0  0  0  0  0
   37.6810   24.6030   42.1380 C   0  0  0  0  0  3  0  0  0  0  0  0
   37.1950   25.8810   41.9850 C   0  0  0  0  0  0  0  0  0  0  0  0
   36.9280   26.9130   42.8550 C   0  0  0  0  0  3  0  0  0  0  0  0
   36.2080   30.7440   41.1080 C   0  0  0  0  0  0  0  0  0  0  0  0
   35.4360   31.4980   41.2670 H   0  0  0  0  0  0  0  0  0  0  0  0
   36.6200   30.4670   42.1150 H   0  0  0  0  0  0  0  0  0  0  0  0
   38.2840   31.7730   38.1280 C   0  0  0  0  0  0  0  0  0  0  0  0
   37.2420   31.2180   38.9140 C   0  0  0  0  0  0  0  0  0  0  0  0
   37.2960   31.3240   40.2950 C   0  0  0  0  0  0  0  0  0  0  0  0
   38.3770   31.9710   40.8250 N   0  0  0  0  0  0  0  0  0  0  0  0
   39.3540   32.4900   40.0660 C   0  0  0  0  0  0  0  0  0  0  0  0
   39.3100   32.3930   38.7260 N   0  0  0  0  0  0  0  0  0  0  0  0
   38.2770   31.7110   37.0480 H   0  0  0  0  0  0  0  0  0  0  0  0
   36.4220   30.7220   38.4090 H   0  0  0  0  0  0  0  0  0  0  0  0
   40.1710   32.9850   40.5750 H   0  0  0  0  0  0  0  0  0  0  0  0
  1  2  1  0  0  0  0
  1  5  1  0  0  0  0
  1 16  1  0  0  0  0
  3  1  1  0  0  0  0
  4 15  1  0  0  0  0
  5  4  2  0  0  0  0
  6  8  2  0  0  0  0
  6  5  1  0  0  0  0
  7  6  1  0  0  0  0
  8 14  1  0  0  0  0
  9  8  1  0  0  0  0
  9 11  1  0  0  0  0
 10  9  1  0  0  0  0
 11 13  2  0  0  0  0
 12 11  1  0  0  0  0
 14 13  1  0  0  0  0
 14 15  2  0  0  0  0
 16 17  1  0  0  0  0
 16 18  1  0  0  0  0
 19 24  2  0  0  0  0
 19 20  1  0  0  0  0
 20 21  2  0  0  0  0
 21 22  1  0  0  0  0
 21 16  1  0  0  0  0
 23 27  1  0  0  0  0
 23 22  2  0  0  0  0
 24 23  1  0  0  0  0
 25 19  1  0  0  0  0
 26 20  1  0  0  0  0
M  END
>  <minimizedAffinity>
-4.9109025

$$$$

 OpenBabel03252502423D

 27 29  0  0  0  0  0  0  0  0999 V2000
   37.7350   28.6370   43.6030 C   0  0  0  0  0  0  0  0  0  0  0  0
   37.8990   28.6970   44.6830 H   0  0  0  0  0  0  0  0  0  0  0  0
   36.6900   28.8380   43.3370 H   0  0  0  0  0  0  0  0  0  0  0  0
   39.2590   26.6140   43.4010 C   0  0  0  0  0  3  0  0  0  0  0  0
   38.0920   27.2680   43.1150 C   0  0  0  0  0  0  0  0  0  0  0  0
   37.1720   26.6120   42.3120 C   0  0  0  0  0  0  0  0  0  0  0  0
   36.2400   27.0900   42.0620 H   0  0  0  0  0  0  0  0  0  0  0  0
   37.3940   25.3490   41.8060 C   0  0  0  0  0  0  0  0  0  0  0  0
   36.6620   24.5350   41.0230 N   0  0  0  0  0  0  0  0  0  0  0  0
   35.7060   24.7500   40.6300 H   0  0  0  0  0  0  0  0  0  0  0  0
   37.3440   23.3840   40.8110 C   0  0  0  0  0  0  0  0  0  0  0  0
   37.0340   22.5270   40.2280 H   0  0  0  0  0  0  0  0  0  0  0  0
   38.5460   23.5160   41.5020 C   0  0  0  0  0  3  0  0  0  0  0  0
   38.6040   24.7360   42.1340 C   0  0  0  0  0  0  0  0  0  0  0  0
   39.5390   25.3570   42.9280 C   0  0  0  0  0  3  0  0  0  0  0  0
   38.6350   29.6840   42.9730 C   0  0  0  0  0  0  0  0  0  0  0  0
   38.7120   30.5800   43.5910 H   0  0  0  0  0  0  0  0  0  0  0  0
   39.6740   29.2840   42.8300 H   0  0  0  0  0  0  0  0  0  0  0  0
   36.1910   30.6740   40.2710 C   0  0  0  0  0  0  0  0  0  0  0  0
   36.7280   30.3240   41.5370 C   0  0  0  0  0  0  0  0  0  0  0  0
   38.0820   30.0480   41.6530 C   0  0  0  0  0  0  0  0  0  0  0  0
   38.8310   30.1310   40.5140 N   0  0  0  0  0  0  0  0  0  0  0  0
   38.3060   30.4640   39.3250 C   0  0  0  0  0  0  0  0  0  0  0  0
   36.9950   30.7340   39.2020 N   0  0  0  0  0  0  0  0  0  0  0  0
   35.1410   30.8970   40.1410 H   0  0  0  0  0  0  0  0  0  0  0  0
   36.0600   30.2820   42.3880 H   0  0  0  0  0  0  0  0  0  0  0  0
   38.9780   30.5040   38.4770 H   0  0  0  0  0  0  0  0  0  0  0  0
  1  2  1  0  0  0  0
  3  1  1  0  0  0  0
  5  4  1  0  0  0  0
  5  1  1  0  0  0  0
  6  5  2  0  0  0  0
  7  6  1  0  0  0  0
  8 14  2  0  0  0  0
  8  6  1  0  0  0  0
  9  8  1  0  0  0  0
 10  9  1  0  0  0  0
 11  9  1  0  0  0  0
 11 13  2  0  0  0  0
 12 11  1  0  0  0  0
 13 14  1  0  0  0  0
 14 15  1  0  0  0  0
 15  4  2  0  0  0  0
 16 17  1  0  0  0  0
 16  1  1  0  0  0  0
 18 16  1  0  0  0  0
 19 20  1  0  0  0  0
 20 21  2  0  0  0  0
 20 26  1  0  0  0  0
 21 16  1  0  0  0  0
 22 21  1  0  0  0  0
 23 22  2  0  0  0  0
 24 23  1  0  0  0  0
 24 19  2  0  0  0  0
 25 19  1  0  0  0  0
 27 23  1  0  0  0  0
M  END
>  <minimizedAffinity>
-4.81635571

$$$$

 OpenBabel03252502423D

 27 29  0  0  0  0  0  0  0  0999 V2000
   37.0340   30.7410   39.4990 C   0  0  0  0  0  0  0  0  0  0  0  0
   37.1100   31.8230   39.3540 H   0  0  0  0  0  0  0  0  0  0  0  0
   38.0170   30.2790   39.6510 H   0  0  0  0  0  0  0  0  0  0  0  0
   35.2190   29.4280   38.2990 C   0  0  0  0  0  3  0  0  0  0  0  0
   36.4010   30.1170   38.2940 C   0  0  0  0  0  0  0  0  0  0  0  0
   37.0610   30.2430   37.0820 C   0  0  0  0  0  0  0  0  0  0  0  0
   37.9950   30.7770   37.0330 H   0  0  0  0  0  0  0  0  0  0  0  0
   36.5720   29.7090   35.9100 C   0  0  0  0  0  0  0  0  0  0  0  0
   37.0310   29.7070   34.6440 N   0  0  0  0  0  0  0  0  0  0  0  0
   37.9250   30.1560   34.3080 H   0  0  0  0  0  0  0  0  0  0  0  0
   36.1610   29.0320   33.8530 C   0  0  0  0  0  0  0  0  0  0  0  0
   36.2360   28.8500   32.7900 H   0  0  0  0  0  0  0  0  0  0  0  0
   35.1300   28.6090   34.6890 C   0  0  0  0  0  3  0  0  0  0  0  0
   35.3610   29.0190   35.9810 C   0  0  0  0  0  0  0  0  0  0  0  0
   34.6790   28.8740   37.1670 C   0  0  0  0  0  3  0  0  0  0  0  0
   36.1720   30.5310   40.7290 C   0  0  0  0  0  0  0  0  0  0  0  0
   36.0130   31.4610   41.2780 H   0  0  0  0  0  0  0  0  0  0  0  0
   35.1620   30.1310   40.4470 H   0  0  0  0  0  0  0  0  0  0  0  0
   36.9470   27.3330   42.5790 C   0  0  0  0  0  0  0  0  0  0  0  0
   36.3090   28.2760   41.7340 C   0  0  0  0  0  0  0  0  0  0  0  0
   36.8400   29.5520   41.6110 C   0  0  0  0  0  0  0  0  0  0  0  0
   37.9690   29.8250   42.3300 N   0  0  0  0  0  0  0  0  0  0  0  0
   38.5580   28.9200   43.1240 C   0  0  0  0  0  0  0  0  0  0  0  0
   38.0530   27.6810   43.2500 N   0  0  0  0  0  0  0  0  0  0  0  0
   36.5640   26.3280   42.7000 H   0  0  0  0  0  0  0  0  0  0  0  0
   35.4180   27.9730   41.2000 H   0  0  0  0  0  0  0  0  0  0  0  0
   39.4500   29.2280   43.6550 H   0  0  0  0  0  0  0  0  0  0  0  0
  1  3  1  0  0  0  0
  1 16  1  0  0  0  0
  2  1  1  0  0  0  0
  5  4  1  0  0  0  0
  5  1  1  0  0  0  0
  6  5  2  0  0  0  0
  7  6  1  0  0  0  0
  8 14  2  0  0  0  0
  8  6  1  0  0  0  0
  9  8  1  0  0  0  0
 10  9  1  0  0  0  0
 11  9  1  0  0  0  0
 11 13  2  0  0  0  0
 12 11  1  0  0  0  0
 13 14  1  0  0  0  0
 14 15  1  0  0  0  0
 15  4  2  0  0  0  0
 16 17  1  0  0  0  0
 16 21  1  0  0  0  0
 18 16  1  0  0  0  0
 19 25  1  0  0  0  0
 19 24  1  0  0  0  0
 20 19  2  0  0  0  0
 21 20  1  0  0  0  0
 21 22  2  0  0  0  0
 22 23  1  0  0  0  0
 23 24  2  0  0  0  0
 23 27  1  0  0  0  0
 26 20  1  0  0  0  0
M  END
>  <minimizedAffinity>
-4.81243563

$$$$
