
 OpenBabel03242522423D

 50 54  0  0  0  0  0  0  0  0999 V2000
   46.6110   32.5420   44.4710 C   0  0  0  0  0  0  0  0  0  0  0  0
   46.2950   31.9890   43.5260 H   0  0  0  0  0  0  0  0  0  0  0  0
   47.6700   32.6290   44.6270 H   0  0  0  0  0  0  0  0  0  0  0  0
   46.1460   34.4320   43.0020 C   0  0  0  0  0  0  0  0  0  0  0  0
   45.9790   33.8510   44.2570 C   0  0  0  0  0  0  0  0  0  0  0  0
   45.2660   34.3760   45.2660 C   0  0  0  0  0  0  0  0  0  0  0  0
   44.6390   35.5860   45.0640 C   0  0  0  0  0  0  0  0  0  0  0  0
   44.7290   36.2450   43.8770 C   0  0  0  0  0  0  0  0  0  0  0  0
   45.4780   35.6560   42.8720 C   0  0  0  0  0  0  0  0  0  0  0  0
   45.0620   34.0300   46.2380 H   0  0  0  0  0  0  0  0  0  0  0  0
   44.0300   36.1280   45.7910 H   0  0  0  0  0  0  0  0  0  0  0  0
   44.2620   37.2050   43.6370 H   0  0  0  0  0  0  0  0  0  0  0  0
   45.5660   36.1620   41.9120 H   0  0  0  0  0  0  0  0  0  0  0  0
   47.0150   33.7920   41.6750 S   0  0  0  0  0  0  0  0  0  0  0  0
   47.6330   34.9920   40.8680 O   0  0  0  0  0  0  0  0  0  0  0  0
   46.0790   33.1930   40.6780 O   0  0  0  0  0  0  0  0  0  0  0  0
   49.7640   33.5130   42.1190 C   0  0  0  0  0  3  0  0  0  0  0  0
   48.4860   32.9400   41.9360 C   0  0  0  0  0  0  0  0  0  0  0  0
   48.6200   31.5410   42.0190 C   0  0  0  0  0  0  0  0  0  0  0  0
   47.6770   30.9810   41.8900 H   0  0  0  0  0  0  0  0  0  0  0  0
   49.7790   30.8390   42.2380 C   0  0  0  0  0  0  0  0  0  0  0  0
   49.9620   29.5080   42.3270 N   0  0  0  0  0  0  0  0  0  0  0  0
   49.2750   28.7220   42.2500 H   0  0  0  0  0  0  0  0  0  0  0  0
   51.2760   29.3270   42.5480 C   0  0  0  0  0  0  0  0  0  0  0  0
   51.8280   28.4070   42.6790 H   0  0  0  0  0  0  0  0  0  0  0  0
   51.9060   30.5720   42.5970 C   0  0  0  0  0  3  0  0  0  0  0  0
   50.9340   31.5270   42.3960 C   0  0  0  0  0  0  0  0  0  0  0  0
   50.9540   32.8910   42.3400 C   0  0  0  0  0  3  0  0  0  0  0  0
   45.9730   31.6690   45.5040 C   0  0  0  0  0  0  0  0  0  0  0  0
   44.9570   32.0090   45.8410 H   0  0  0  0  0  0  0  0  0  0  0  0
   45.7180   30.6270   45.1400 H   0  0  0  0  0  0  0  0  0  0  0  0
   47.1120   32.4520   47.5570 C   0  0  0  0  0  0  0  0  0  0  0  0
   46.9330   31.4470   46.5810 C   0  0  0  0  0  0  0  0  0  0  0  0
   47.6540   30.2770   46.7170 C   0  0  0  0  0  0  0  0  0  0  0  0
   48.4880   30.1540   47.7740 N   0  0  0  0  0  0  0  0  0  0  0  0
   48.6340   31.1170   48.6820 C   0  0  0  0  0  0  0  0  0  0  0  0
   47.9520   32.2810   48.5920 N   0  0  0  0  0  0  0  0  0  0  0  0
   46.6550   33.4220   47.6250 H   0  0  0  0  0  0  0  0  0  0  0  0
   47.5140   29.5140   45.9640 H   0  0  0  0  0  0  0  0  0  0  0  0
   49.5730   30.8870   49.8310 C   0  0  0  0  0  0  0  0  0  0  0  0
   49.0680   31.1700   50.7960 H   0  0  0  0  0  0  0  0  0  0  0  0
   49.7660   29.8010   49.9360 H   0  0  0  0  0  0  0  0  0  0  0  0
   50.8400   31.5870   49.6900 C   0  0  0  0  0  0  0  0  0  0  0  0
   51.9850   31.0760   49.1090 C   0  0  0  0  0  0  0  0  0  0  0  0
   52.9720   32.0220   49.1600 C   0  0  0  0  0  0  0  0  0  0  0  0
   52.3900   33.0920   49.7800 N   0  0  0  0  0  0  0  0  0  0  0  0
   51.1230   32.8400   50.0980 N   0  0  0  0  0  0  0  0  0  0  0  0
   52.1690   30.1000   48.6580 H   0  0  0  0  0  0  0  0  0  0  0  0
   54.0040   32.0790   48.8430 H   0  0  0  0  0  0  0  0  0  0  0  0
   52.7690   34.0450   50.0360 H   0  0  0  0  0  0  0  0  0  0  0  0
  1  3  1  0  0  0  0
  1 29  1  0  0  0  0
  2  1  1  0  0  0  0
  4  5  1  0  0  0  0
  5  1  1  0  0  0  0
  5  6  2  0  0  0  0
  6 10  1  0  0  0  0
  7  6  1  0  0  0  0
  7 11  1  0  0  0  0
  8  7  2  0  0  0  0
  9  4  2  0  0  0  0
  9  8  1  0  0  0  0
 12  8  1  0  0  0  0
 13  9  1  0  0  0  0
 14 18  1  0  0  0  0
 14  4  1  0  0  0  0
 15 14  2  0  0  0  0
 16 14  2  0  0  0  0
 17 28  1  0  0  0  0
 18 19  1  0  0  0  0
 18 17  2  0  0  0  0
 19 21  2  0  0  0  0
 20 19  1  0  0  0  0
 21 22  1  0  0  0  0
 21 27  1  0  0  0  0
 22 24  1  0  0  0  0
 23 22  1  0  0  0  0
 24 26  2  0  0  0  0
 24 25  1  0  0  0  0
 27 26  1  0  0  0  0
 28 27  2  0  0  0  0
 29 30  1  0  0  0  0
 29 33  1  0  0  0  0
 31 29  1  0  0  0  0
 32 38  1  0  0  0  0
 32 37  1  0  0  0  0
 33 34  1  0  0  0  0
 33 32  2  0  0  0  0
 34 35  2  0  0  0  0
 35 36  1  0  0  0  0
 36 40  1  0  0  0  0
 37 36  2  0  0  0  0
 39 34  1  0  0  0  0
 40 42  1  0  0  0  0
 40 41  1  0  0  0  0
 43 40  1  0  0  0  0
 43 47  2  0  0  0  0
 44 45  2  0  0  0  0
 44 43  1  0  0  0  0
 45 46  1  0  0  0  0
 46 50  1  0  0  0  0
 46 47  1  0  0  0  0
 48 44  1  0  0  0  0
 49 45  1  0  0  0  0
M  END
>  <minimizedAffinity>
-6.46513987

>  <minimizedRMSD>
0.882954717

$$$$
