
 OpenBabel03252502423D

 27 29  0  0  0  0  0  0  0  0999 V2000
   47.4180   34.8070   41.8320 C   0  0  0  0  0  0  0  0  0  0  0  0
   48.1070   35.6430   41.9830 H   0  0  0  0  0  0  0  0  0  0  0  0
   47.6840   33.9410   42.4490 H   0  0  0  0  0  0  0  0  0  0  0  0
   48.3840   34.7790   39.4810 C   0  0  0  0  0  0  0  0  0  0  0  0
   47.4440   34.3870   40.3950 C   0  0  0  0  0  0  0  0  0  0  0  0
   46.4400   33.5390   39.9540 C   0  0  0  0  0  0  0  0  0  0  0  0
   45.6790   33.2060   40.6400 H   0  0  0  0  0  0  0  0  0  0  0  0
   46.3650   33.0890   38.6530 C   0  0  0  0  0  0  0  0  0  0  0  0
   45.5000   32.2790   38.0150 N   0  0  0  0  0  0  0  0  0  0  0  0
   44.6570   31.8110   38.4440 H   0  0  0  0  0  0  0  0  0  0  0  0
   45.8770   32.1530   36.7190 C   0  0  0  0  0  0  0  0  0  0  0  0
   45.3970   31.5750   35.9420 H   0  0  0  0  0  0  0  0  0  0  0  0
   47.0260   32.9270   36.5760 C   0  0  0  0  0  0  0  0  0  0  0  0
   47.3540   33.5240   37.7710 C   0  0  0  0  0  0  0  0  0  0  0  0
   48.3650   34.3650   38.1740 C   0  0  0  0  0  0  0  0  0  0  0  0
   46.0400   35.3100   42.2180 C   0  0  0  0  0  0  0  0  0  0  0  0
   45.9690   36.3970   42.1470 H   0  0  0  0  0  0  0  0  0  0  0  0
   45.2520   34.8780   41.5460 H   0  0  0  0  0  0  0  0  0  0  0  0
   44.5600   35.2070   45.6900 C   0  0  0  0  0  0  0  0  0  0  0  0
   44.8330   35.6050   44.3560 C   0  0  0  0  0  0  0  0  0  0  0  0
   45.7590   34.8930   43.6070 C   0  0  0  0  0  0  0  0  0  0  0  0
   46.3640   33.8310   44.2170 N   0  0  0  0  0  0  0  0  0  0  0  0
   46.0930   33.4700   45.4800 C   0  0  0  0  0  0  0  0  0  0  0  0
   45.1970   34.1530   46.2140 N   0  0  0  0  0  0  0  0  0  0  0  0
   43.8450   35.7370   46.3050 H   0  0  0  0  0  0  0  0  0  0  0  0
   44.3060   36.4600   43.9530 H   0  0  0  0  0  0  0  0  0  0  0  0
   46.6220   32.6140   45.8790 H   0  0  0  0  0  0  0  0  0  0  0  0
  1  2  1  0  0  0  0
  1 16  1  0  0  0  0
  1  3  1  0  0  0  0
  4  5  1  0  0  0  0
  5  1  1  0  0  0  0
  6  5  2  0  0  0  0
  6  7  1  0  0  0  0
  8  6  1  0  0  0  0
  9 10  1  0  0  0  0
  9  8  1  0  0  0  0
 11  9  1  0  0  0  0
 12 11  1  0  0  0  0
 13 11  2  0  0  0  0
 13 14  1  0  0  0  0
 14 15  1  0  0  0  0
 14  8  2  0  0  0  0
 15  4  2  0  0  0  0
 16 21  1  0  0  0  0
 17 16  1  0  0  0  0
 18 16  1  0  0  0  0
 19 24  1  0  0  0  0
 19 25  1  0  0  0  0
 20 19  2  0  0  0  0
 21 22  2  0  0  0  0
 21 20  1  0  0  0  0
 22 23  1  0  0  0  0
 23 27  1  0  0  0  0
 23 24  2  0  0  0  0
 26 20  1  0  0  0  0
M  END
>  <minimizedAffinity>
-4.76618862

>  <minimizedRMSD>
2.38361573

$$$$
