
 OpenBabel03242522423D

 50 54  0  0  0  0  0  0  0  0999 V2000
   46.7640   32.6750   44.4110 C   0  0  0  0  0  0  0  0  0  0  0  0
   46.5240   32.1520   43.4280 H   0  0  0  0  0  0  0  0  0  0  0  0
   47.8080   32.8050   44.6260 H   0  0  0  0  0  0  0  0  0  0  0  0
   46.3450   34.6450   43.0370 C   0  0  0  0  0  0  0  0  0  0  0  0
   46.0800   33.9610   44.2210 C   0  0  0  0  0  0  0  0  0  0  0  0
   45.2310   34.3690   45.1780 C   0  0  0  0  0  0  0  0  0  0  0  0
   44.5570   35.5560   44.9940 C   0  0  0  0  0  0  0  0  0  0  0  0
   44.7340   36.3080   43.8740 C   0  0  0  0  0  0  0  0  0  0  0  0
   45.6220   35.8380   42.9200 C   0  0  0  0  0  0  0  0  0  0  0  0
   44.9450   33.9390   46.0940 H   0  0  0  0  0  0  0  0  0  0  0  0
   43.8410   36.0080   45.6850 H   0  0  0  0  0  0  0  0  0  0  0  0
   44.2380   37.2580   43.6510 H   0  0  0  0  0  0  0  0  0  0  0  0
   45.7810   36.4220   42.0140 H   0  0  0  0  0  0  0  0  0  0  0  0
   47.3900   34.1570   41.7740 S   0  0  0  0  0  0  0  0  0  0  0  0
   48.5970   35.1630   41.7170 O   0  0  0  0  0  0  0  0  0  0  0  0
   46.7400   34.3720   40.4460 O   0  0  0  0  0  0  0  0  0  0  0  0
   47.8890   31.4050   41.6690 C   0  0  0  0  0  3  0  0  0  0  0  0
   48.3250   32.7220   41.9320 C   0  0  0  0  0  0  0  0  0  0  0  0
   49.6740   32.6630   42.3340 C   0  0  0  0  0  0  0  0  0  0  0  0
   50.1260   33.6430   42.5680 H   0  0  0  0  0  0  0  0  0  0  0  0
   50.4450   31.5340   42.4560 C   0  0  0  0  0  0  0  0  0  0  0  0
   51.7320   31.4220   42.8340 N   0  0  0  0  0  0  0  0  0  0  0  0
   52.4220   32.1560   43.1160 H   0  0  0  0  0  0  0  0  0  0  0  0
   52.0190   30.1080   42.7910 C   0  0  0  0  0  0  0  0  0  0  0  0
   52.9450   29.6020   43.0210 H   0  0  0  0  0  0  0  0  0  0  0  0
   50.8850   29.4080   42.3790 C   0  0  0  0  0  3  0  0  0  0  0  0
   49.8880   30.3340   42.1690 C   0  0  0  0  0  0  0  0  0  0  0  0
   48.5870   30.2410   41.7660 C   0  0  0  0  0  3  0  0  0  0  0  0
   46.1180   31.7270   45.3710 C   0  0  0  0  0  0  0  0  0  0  0  0
   45.0720   32.0050   45.6700 H   0  0  0  0  0  0  0  0  0  0  0  0
   45.9310   30.6930   44.9490 H   0  0  0  0  0  0  0  0  0  0  0  0
   47.1700   32.4970   47.4750 C   0  0  0  0  0  0  0  0  0  0  0  0
   47.0340   31.4990   46.4840 C   0  0  0  0  0  0  0  0  0  0  0  0
   47.7530   30.3300   46.6400 C   0  0  0  0  0  0  0  0  0  0  0  0
   48.5430   30.2000   47.7300 N   0  0  0  0  0  0  0  0  0  0  0  0
   48.6490   31.1560   48.6500 C   0  0  0  0  0  0  0  0  0  0  0  0
   47.9680   32.3190   48.5420 N   0  0  0  0  0  0  0  0  0  0  0  0
   46.7080   33.4640   47.5320 H   0  0  0  0  0  0  0  0  0  0  0  0
   47.6450   29.5720   45.8760 H   0  0  0  0  0  0  0  0  0  0  0  0
   49.5410   30.9190   49.8350 C   0  0  0  0  0  0  0  0  0  0  0  0
   49.0050   31.2170   50.7780 H   0  0  0  0  0  0  0  0  0  0  0  0
   49.7120   29.8300   49.9540 H   0  0  0  0  0  0  0  0  0  0  0  0
   50.8240   31.5970   49.7370 C   0  0  0  0  0  0  0  0  0  0  0  0
   51.9860   31.0570   49.2200 C   0  0  0  0  0  0  0  0  0  0  0  0
   52.9840   31.9900   49.2960 C   0  0  0  0  0  0  0  0  0  0  0  0
   52.3900   33.0820   49.8640 N   0  0  0  0  0  0  0  0  0  0  0  0
   51.1060   32.8550   50.1290 N   0  0  0  0  0  0  0  0  0  0  0  0
   52.1750   30.0680   48.7990 H   0  0  0  0  0  0  0  0  0  0  0  0
   54.0300   32.0250   49.0240 H   0  0  0  0  0  0  0  0  0  0  0  0
   52.7720   34.0350   50.1160 H   0  0  0  0  0  0  0  0  0  0  0  0
  1  3  1  0  0  0  0
  1 29  1  0  0  0  0
  2  1  1  0  0  0  0
  4  5  1  0  0  0  0
  5  1  1  0  0  0  0
  5  6  2  0  0  0  0
  6 10  1  0  0  0  0
  7  6  1  0  0  0  0
  7 11  1  0  0  0  0
  8  7  2  0  0  0  0
  9  4  2  0  0  0  0
  9  8  1  0  0  0  0
 12  8  1  0  0  0  0
 13  9  1  0  0  0  0
 14 18  1  0  0  0  0
 14  4  1  0  0  0  0
 15 14  2  0  0  0  0
 16 14  2  0  0  0  0
 17 28  2  0  0  0  0
 17 18  1  0  0  0  0
 18 19  2  0  0  0  0
 19 21  1  0  0  0  0
 19 20  1  0  0  0  0
 21 22  1  0  0  0  0
 22 23  1  0  0  0  0
 24 22  1  0  0  0  0
 24 25  1  0  0  0  0
 26 24  2  0  0  0  0
 27 26  1  0  0  0  0
 27 21  2  0  0  0  0
 28 27  1  0  0  0  0
 29 30  1  0  0  0  0
 29 33  1  0  0  0  0
 31 29  1  0  0  0  0
 32 38  1  0  0  0  0
 32 37  1  0  0  0  0
 33 34  1  0  0  0  0
 33 32  2  0  0  0  0
 34 35  2  0  0  0  0
 35 36  1  0  0  0  0
 36 40  1  0  0  0  0
 37 36  2  0  0  0  0
 39 34  1  0  0  0  0
 40 42  1  0  0  0  0
 40 41  1  0  0  0  0
 43 40  1  0  0  0  0
 43 47  2  0  0  0  0
 44 45  2  0  0  0  0
 44 43  1  0  0  0  0
 45 46  1  0  0  0  0
 46 50  1  0  0  0  0
 46 47  1  0  0  0  0
 48 44  1  0  0  0  0
 49 45  1  0  0  0  0
M  END
>  <minimizedAffinity>
-6.46952581

>  <minimizedRMSD>
0.584661782

$$$$
