
 OpenBabel03242521453D

 41 44  0  0  1  0  0  0  0  0999 V2000
   38.6710   33.5380   39.7980 C   0  0  0  0  0  0  0  0  0  0  0  0
   39.9210   33.0690   39.4010 C   0  0  0  0  0  0  0  0  0  0  0  0
   41.0100   33.9380   39.3450 C   0  0  0  0  0  0  0  0  0  0  0  0
   40.7860   35.2070   39.6860 N   0  0  0  0  0  0  0  0  0  0  0  0
   39.5730   35.6610   40.0720 C   0  0  0  0  0  0  0  0  0  0  0  0
   38.5100   34.8360   40.1320 N   0  0  0  0  0  0  0  0  0  0  0  0
   39.9680   32.0380   39.1560 H   0  0  0  0  0  0  0  0  0  0  0  0
   39.4800   36.7150   40.3340 H   0  0  0  0  0  0  0  0  0  0  0  0
   42.4840   33.3090   37.4480 C   0  0  2  0  0  0  0  0  0  0  0  0
   42.2820   33.3780   38.9210 C   0  0  2  0  0  0  0  0  0  0  0  0
   42.4630   32.0110   39.2820 O   0  0  0  0  0  0  0  0  0  0  0  0
   43.6550   31.6980   38.6730 C   0  0  0  0  0  0  0  0  0  0  0  0
   43.8320   32.5570   37.4470 C   0  0  1  0  0  0  0  0  0  0  0  0
   41.7750   32.5830   37.0130 H   0  0  0  0  0  0  0  0  0  0  0  0
   43.0840   33.9050   39.4770 H   0  0  0  0  0  0  0  0  0  0  0  0
   43.5720   30.6390   38.2930 H   0  0  0  0  0  0  0  0  0  0  0  0
   44.5310   31.6940   39.3410 H   0  0  0  0  0  0  0  0  0  0  0  0
   44.6760   33.2330   37.6160 H   0  0  0  0  0  0  0  0  0  0  0  0
   42.5230   34.5140   36.8170 O   0  0  0  0  0  0  0  0  0  0  0  0
   43.1140   34.4450   36.0340 H   0  0  0  0  0  0  0  0  0  0  0  0
   43.9330   31.8340   36.2610 O   0  0  0  0  0  0  0  0  0  0  0  0
   43.0430   31.5310   35.9630 H   0  0  0  0  0  0  0  0  0  0  0  0
   37.5090   32.5820   39.8430 C   0  0  0  0  0  0  0  0  0  0  0  0
   36.6440   33.0920   40.2620 H   0  0  0  0  0  0  0  0  0  0  0  0
   37.3660   32.2440   38.7850 H   0  0  0  0  0  0  0  0  0  0  0  0
   37.1200   30.4940   41.2870 C   0  0  0  0  0  0  0  0  0  0  0  0
   35.8570   30.6800   41.1890 O   0  0  0  0  0  0  0  0  0  0  0  0
   37.9310   31.4460   40.6330 N   0  0  0  0  0  0  0  0  0  0  0  0
   38.9630   31.3190   40.7280 H   0  0  0  0  0  0  0  0  0  0  0  0
   36.9940   28.3020   42.5730 C   0  0  0  0  0  3  0  0  0  0  0  0
   37.6730   29.3690   42.0300 C   0  0  0  0  0  0  0  0  0  0  0  0
   39.0590   29.3500   42.2250 C   0  0  0  0  0  0  0  0  0  0  0  0
   39.6550   30.1710   41.8170 H   0  0  0  0  0  0  0  0  0  0  0  0
   39.7380   28.3600   42.9040 C   0  0  0  0  0  0  0  0  0  0  0  0
   41.0310   28.1650   43.1910 N   0  0  0  0  0  0  0  0  0  0  0  0
   41.7840   28.8280   42.8980 H   0  0  0  0  0  0  0  0  0  0  0  0
   41.1370   27.0060   43.8940 C   0  0  0  0  0  0  0  0  0  0  0  0
   42.0950   26.6120   44.2550 H   0  0  0  0  0  0  0  0  0  0  0  0
   39.8940   26.4420   44.0630 C   0  0  0  0  0  3  0  0  0  0  0  0
   39.0230   27.3070   43.4330 C   0  0  0  0  0  0  0  0  0  0  0  0
   37.6570   27.3030   43.2540 C   0  0  0  0  0  3  0  0  0  0  0  0
  1 23  1  0  0  0  0
  1  6  1  0  0  0  0
  2  1  2  0  0  0  0
  3  2  1  0  0  0  0
  3  4  2  0  0  0  0
  4  5  1  0  0  0  0
  5  6  2  0  0  0  0
  5  8  1  0  0  0  0
  7  2  1  0  0  0  0
  9 14  1  6  0  0  0
  9 10  1  0  0  0  0
 10 11  1  0  0  0  0
 10  3  1  0  0  0  0
 10 15  1  1  0  0  0
 12 11  1  0  0  0  0
 12 17  1  0  0  0  0
 13  9  1  0  0  0  0
 13 18  1  1  0  0  0
 13 12  1  0  0  0  0
 16 12  1  0  0  0  0
 19  9  1  0  0  0  0
 20 19  1  0  0  0  0
 21 13  1  0  0  0  0
 22 21  1  0  0  0  0
 23 24  1  0  0  0  0
 23 28  1  0  0  0  0
 25 23  1  0  0  0  0
 26 31  1  0  0  0  0
 27 26  2  0  0  0  0
 28 29  1  0  0  0  0
 28 26  1  0  0  0  0
 30 41  1  0  0  0  0
 31 32  1  0  0  0  0
 31 30  2  0  0  0  0
 32 34  2  0  0  0  0
 33 32  1  0  0  0  0
 34 35  1  0  0  0  0
 34 40  1  0  0  0  0
 35 37  1  0  0  0  0
 36 35  1  0  0  0  0
 37 39  2  0  0  0  0
 37 38  1  0  0  0  0
 40 39  1  0  0  0  0
 41 40  2  0  0  0  0
M  END
>  <minimizedAffinity>
-7.5237565

$$$$

 OpenBabel03242521453D

 41 44  0  0  1  0  0  0  0  0999 V2000
   39.4750   34.5040   40.0530 C   0  0  0  0  0  0  0  0  0  0  0  0
   40.3280   33.6500   39.3590 C   0  0  0  0  0  0  0  0  0  0  0  0
   41.7100   33.7940   39.4750 C   0  0  0  0  0  0  0  0  0  0  0  0
   42.1500   34.7710   40.2680 N   0  0  0  0  0  0  0  0  0  0  0  0
   41.3210   35.5990   40.9420 C   0  0  0  0  0  0  0  0  0  0  0  0
   39.9830   35.4750   40.8420 N   0  0  0  0  0  0  0  0  0  0  0  0
   39.8540   32.9130   38.7610 H   0  0  0  0  0  0  0  0  0  0  0  0
   41.7670   36.3700   41.5690 H   0  0  0  0  0  0  0  0  0  0  0  0
   43.8230   33.4280   38.2210 C   0  0  2  0  0  0  0  0  0  0  0  0
   42.5370   32.8670   38.7200 C   0  0  2  0  0  0  0  0  0  0  0  0
   41.9460   32.4210   37.5020 O   0  0  0  0  0  0  0  0  0  0  0  0
   42.9540   31.6760   36.9390 C   0  0  0  0  0  0  0  0  0  0  0  0
   44.2880   32.2080   37.3980 C   0  0  1  0  0  0  0  0  0  0  0  0
   43.6160   34.1990   37.4580 H   0  0  0  0  0  0  0  0  0  0  0  0
   42.6360   31.9400   39.3200 H   0  0  0  0  0  0  0  0  0  0  0  0
   42.9240   31.8540   35.8250 H   0  0  0  0  0  0  0  0  0  0  0  0
   42.8480   30.5860   37.0560 H   0  0  0  0  0  0  0  0  0  0  0  0
   44.7660   31.4500   38.0260 H   0  0  0  0  0  0  0  0  0  0  0  0
   44.6990   33.8080   39.1910 O   0  0  0  0  0  0  0  0  0  0  0  0
   45.6160   33.6860   38.8560 H   0  0  0  0  0  0  0  0  0  0  0  0
   45.1030   32.6600   36.3620 O   0  0  0  0  0  0  0  0  0  0  0  0
   44.8130   33.5510   36.0570 H   0  0  0  0  0  0  0  0  0  0  0  0
   37.9870   34.3340   39.9060 C   0  0  0  0  0  0  0  0  0  0  0  0
   37.4820   35.1460   40.4250 H   0  0  0  0  0  0  0  0  0  0  0  0
   37.8010   34.3170   38.8020 H   0  0  0  0  0  0  0  0  0  0  0  0
   37.1860   31.8980   39.7480 C   0  0  0  0  0  0  0  0  0  0  0  0
   37.0010   32.0560   38.4900 O   0  0  0  0  0  0  0  0  0  0  0  0
   37.6590   33.0310   40.4440 N   0  0  0  0  0  0  0  0  0  0  0  0
   37.7890   32.9210   41.4740 H   0  0  0  0  0  0  0  0  0  0  0  0
   36.3100   29.5120   39.8750 C   0  0  0  0  0  3  0  0  0  0  0  0
   36.9220   30.6250   40.4060 C   0  0  0  0  0  0  0  0  0  0  0  0
   37.3330   30.4960   41.7370 C   0  0  0  0  0  0  0  0  0  0  0  0
   37.8270   31.3470   42.2160 H   0  0  0  0  0  0  0  0  0  0  0  0
   37.1600   29.3610   42.5010 C   0  0  0  0  0  0  0  0  0  0  0  0
   37.4760   29.0470   43.7640 N   0  0  0  0  0  0  0  0  0  0  0  0
   37.9560   29.7120   44.4110 H   0  0  0  0  0  0  0  0  0  0  0  0
   37.0650   27.7730   43.9970 C   0  0  0  0  0  0  0  0  0  0  0  0
   37.2030   27.2660   44.9610 H   0  0  0  0  0  0  0  0  0  0  0  0
   36.4740   27.2540   42.8690 C   0  0  0  0  0  3  0  0  0  0  0  0
   36.5430   28.2670   41.9350 C   0  0  0  0  0  0  0  0  0  0  0  0
   36.1280   28.3690   40.6240 C   0  0  0  0  0  3  0  0  0  0  0  0
  1  6  1  0  0  0  0
  2  3  1  0  0  0  0
  2  1  2  0  0  0  0
  3  4  2  0  0  0  0
  4  5  1  0  0  0  0
  5  8  1  0  0  0  0
  6  5  2  0  0  0  0
  7  2  1  0  0  0  0
  9 14  1  6  0  0  0
  9 10  1  0  0  0  0
  9 19  1  0  0  0  0
 10 15  1  1  0  0  0
 10  3  1  0  0  0  0
 11 10  1  0  0  0  0
 12 17  1  0  0  0  0
 12 13  1  0  0  0  0
 12 11  1  0  0  0  0
 13 18  1  1  0  0  0
 13  9  1  0  0  0  0
 16 12  1  0  0  0  0
 20 19  1  0  0  0  0
 21 13  1  0  0  0  0
 22 21  1  0  0  0  0
 23  1  1  0  0  0  0
 23 24  1  0  0  0  0
 23 28  1  0  0  0  0
 25 23  1  0  0  0  0
 26 31  1  0  0  0  0
 26 28  1  0  0  0  0
 27 26  2  0  0  0  0
 28 29  1  0  0  0  0
 30 31  2  0  0  0  0
 30 41  1  0  0  0  0
 31 32  1  0  0  0  0
 32 33  1  0  0  0  0
 32 34  2  0  0  0  0
 34 35  1  0  0  0  0
 35 37  1  0  0  0  0
 35 36  1  0  0  0  0
 37 38  1  0  0  0  0
 39 37  2  0  0  0  0
 40 34  1  0  0  0  0
 40 39  1  0  0  0  0
 41 40  2  0  0  0  0
M  END
>  <minimizedAffinity>
-6.92550564

$$$$

 OpenBabel03242521453D

 41 44  0  0  1  0  0  0  0  0999 V2000
   38.8680   33.4110   39.9560 C   0  0  0  0  0  0  0  0  0  0  0  0
   40.2330   33.1920   40.1320 C   0  0  0  0  0  0  0  0  0  0  0  0
   41.0730   34.2530   40.4700 C   0  0  0  0  0  0  0  0  0  0  0  0
   40.5060   35.4510   40.6100 N   0  0  0  0  0  0  0  0  0  0  0  0
   39.1830   35.6610   40.4390 C   0  0  0  0  0  0  0  0  0  0  0  0
   38.3550   34.6500   40.1130 N   0  0  0  0  0  0  0  0  0  0  0  0
   40.5600   32.1930   39.9920 H   0  0  0  0  0  0  0  0  0  0  0  0
   38.8040   36.6740   40.5740 H   0  0  0  0  0  0  0  0  0  0  0  0
   43.2770   34.9910   41.3460 C   0  0  2  0  0  0  0  0  0  0  0  0
   42.4850   33.9490   40.6370 C   0  0  2  0  0  0  0  0  0  0  0  0
   43.2060   33.8500   39.4110 O   0  0  0  0  0  0  0  0  0  0  0  0
   44.5010   33.6860   39.8410 C   0  0  0  0  0  0  0  0  0  0  0  0
   44.6730   34.3540   41.1810 C   0  0  1  0  0  0  0  0  0  0  0  0
   43.3260   35.9020   40.7240 H   0  0  0  0  0  0  0  0  0  0  0  0
   42.5620   32.9310   41.0700 H   0  0  0  0  0  0  0  0  0  0  0  0
   45.1680   34.2550   39.1300 H   0  0  0  0  0  0  0  0  0  0  0  0
   44.8730   32.6490   39.8120 H   0  0  0  0  0  0  0  0  0  0  0  0
   44.8600   33.5810   41.9330 H   0  0  0  0  0  0  0  0  0  0  0  0
   42.9160   35.2040   42.6410 O   0  0  0  0  0  0  0  0  0  0  0  0
   43.7100   35.4790   43.1520 H   0  0  0  0  0  0  0  0  0  0  0  0
   45.6260   35.3710   41.1870 O   0  0  0  0  0  0  0  0  0  0  0  0
   45.2570   36.1920   40.7860 H   0  0  0  0  0  0  0  0  0  0  0  0
   37.9820   32.2530   39.5840 C   0  0  0  0  0  0  0  0  0  0  0  0
   36.9410   32.5500   39.6940 H   0  0  0  0  0  0  0  0  0  0  0  0
   38.2690   31.9880   38.5340 H   0  0  0  0  0  0  0  0  0  0  0  0
   37.5010   30.3670   41.2610 C   0  0  0  0  0  0  0  0  0  0  0  0
   36.2630   30.6940   41.2500 O   0  0  0  0  0  0  0  0  0  0  0  0
   38.3470   31.1510   40.4480 N   0  0  0  0  0  0  0  0  0  0  0  0
   39.3630   30.9100   40.4690 H   0  0  0  0  0  0  0  0  0  0  0  0
   37.4350   28.7330   43.2110 C   0  0  0  0  0  3  0  0  0  0  0  0
   37.9930   29.2560   42.0660 C   0  0  0  0  0  0  0  0  0  0  0  0
   39.1700   28.6300   41.6410 C   0  0  0  0  0  0  0  0  0  0  0  0
   39.6600   29.0000   40.7350 H   0  0  0  0  0  0  0  0  0  0  0  0
   39.7650   27.5670   42.2870 C   0  0  0  0  0  0  0  0  0  0  0  0
   40.8670   26.8460   42.0440 N   0  0  0  0  0  0  0  0  0  0  0  0
   41.4940   27.0250   41.2280 H   0  0  0  0  0  0  0  0  0  0  0  0
   40.9800   25.9060   43.0200 C   0  0  0  0  0  0  0  0  0  0  0  0
   41.8000   25.1800   43.0590 H   0  0  0  0  0  0  0  0  0  0  0  0
   39.9350   26.0200   43.9070 C   0  0  0  0  0  3  0  0  0  0  0  0
   39.1780   27.0710   43.4300 C   0  0  0  0  0  0  0  0  0  0  0  0
   38.0180   27.6710   43.8700 C   0  0  0  0  0  3  0  0  0  0  0  0
  1  6  2  0  0  0  0
  1  2  1  0  0  0  0
  2  3  2  0  0  0  0
  3  4  1  0  0  0  0
  3 10  1  0  0  0  0
  5  8  1  0  0  0  0
  5  4  2  0  0  0  0
  6  5  1  0  0  0  0
  7  2  1  0  0  0  0
  9 14  1  6  0  0  0
  9 19  1  0  0  0  0
 10 15  1  1  0  0  0
 10  9  1  0  0  0  0
 11 12  1  0  0  0  0
 11 10  1  0  0  0  0
 12 13  1  0  0  0  0
 13 21  1  0  0  0  0
 13  9  1  0  0  0  0
 13 18  1  1  0  0  0
 16 12  1  0  0  0  0
 17 12  1  0  0  0  0
 19 20  1  0  0  0  0
 22 21  1  0  0  0  0
 23 24  1  0  0  0  0
 23  1  1  0  0  0  0
 23 28  1  0  0  0  0
 25 23  1  0  0  0  0
 26 31  1  0  0  0  0
 27 26  2  0  0  0  0
 28 29  1  0  0  0  0
 28 26  1  0  0  0  0
 30 41  1  0  0  0  0
 31 30  2  0  0  0  0
 32 31  1  0  0  0  0
 32 34  2  0  0  0  0
 33 32  1  0  0  0  0
 34 40  1  0  0  0  0
 35 34  1  0  0  0  0
 35 37  1  0  0  0  0
 36 35  1  0  0  0  0
 37 38  1  0  0  0  0
 37 39  2  0  0  0  0
 40 41  2  0  0  0  0
 40 39  1  0  0  0  0
M  END
>  <minimizedAffinity>
-6.92039013

$$$$

 OpenBabel03242521453D

 41 44  0  0  1  0  0  0  0  0999 V2000
   38.2980   32.5430   39.1500 C   0  0  0  0  0  0  0  0  0  0  0  0
   39.6080   32.2440   38.7840 C   0  0  0  0  0  0  0  0  0  0  0  0
   40.6600   33.0380   39.2390 C   0  0  0  0  0  0  0  0  0  0  0  0
   40.3420   34.0690   40.0210 N   0  0  0  0  0  0  0  0  0  0  0  0
   39.0710   34.3580   40.3760 C   0  0  0  0  0  0  0  0  0  0  0  0
   38.0420   33.6020   39.9470 N   0  0  0  0  0  0  0  0  0  0  0  0
   39.7280   31.3970   38.1580 H   0  0  0  0  0  0  0  0  0  0  0  0
   38.9020   35.2210   41.0200 H   0  0  0  0  0  0  0  0  0  0  0  0
   42.2420   32.7310   37.3490 C   0  0  2  0  0  0  0  0  0  0  0  0
   42.0000   32.6660   38.8160 C   0  0  2  0  0  0  0  0  0  0  0  0
   42.3370   31.3070   39.0840 O   0  0  0  0  0  0  0  0  0  0  0  0
   43.5710   31.1840   38.4920 C   0  0  0  0  0  0  0  0  0  0  0  0
   43.6700   32.1470   37.3360 C   0  0  1  0  0  0  0  0  0  0  0  0
   41.6360   31.9610   36.8410 H   0  0  0  0  0  0  0  0  0  0  0  0
   42.7200   33.2410   39.4320 H   0  0  0  0  0  0  0  0  0  0  0  0
   43.6250   30.1540   38.0340 H   0  0  0  0  0  0  0  0  0  0  0  0
   44.4260   31.2330   39.1850 H   0  0  0  0  0  0  0  0  0  0  0  0
   44.4230   32.9030   37.5790 H   0  0  0  0  0  0  0  0  0  0  0  0
   42.1490   33.9770   36.8070 O   0  0  0  0  0  0  0  0  0  0  0  0
   42.7620   34.0360   36.0400 H   0  0  0  0  0  0  0  0  0  0  0  0
   43.8840   31.5310   36.1050 O   0  0  0  0  0  0  0  0  0  0  0  0
   43.0440   31.1490   35.7590 H   0  0  0  0  0  0  0  0  0  0  0  0
   37.1780   31.6750   38.6400 C   0  0  0  0  0  0  0  0  0  0  0  0
   36.2300   32.1830   38.8060 H   0  0  0  0  0  0  0  0  0  0  0  0
   37.4130   31.4960   37.5600 H   0  0  0  0  0  0  0  0  0  0  0  0
   36.7100   30.0720   40.5920 C   0  0  0  0  0  0  0  0  0  0  0  0
   36.0630   31.0060   41.1840 O   0  0  0  0  0  0  0  0  0  0  0  0
   37.2710   30.4140   39.3430 N   0  0  0  0  0  0  0  0  0  0  0  0
   37.8230   29.6690   38.8640 H   0  0  0  0  0  0  0  0  0  0  0  0
   37.0450   28.4290   42.5060 C   0  0  0  0  0  3  0  0  0  0  0  0
   36.8510   28.7470   41.1810 C   0  0  0  0  0  0  0  0  0  0  0  0
   36.7830   27.6510   40.3130 C   0  0  0  0  0  0  0  0  0  0  0  0
   36.6300   27.8390   39.2460 H   0  0  0  0  0  0  0  0  0  0  0  0
   36.8970   26.3350   40.7080 C   0  0  0  0  0  0  0  0  0  0  0  0
   36.8600   25.1710   40.0460 N   0  0  0  0  0  0  0  0  0  0  0  0
   36.7230   25.1100   39.0120 H   0  0  0  0  0  0  0  0  0  0  0  0
   37.0280   24.1680   40.9470 C   0  0  0  0  0  0  0  0  0  0  0  0
   37.0380   23.1070   40.6670 H   0  0  0  0  0  0  0  0  0  0  0  0
   37.1750   24.6890   42.2110 C   0  0  0  0  0  3  0  0  0  0  0  0
   37.0900   26.0560   42.0440 C   0  0  0  0  0  0  0  0  0  0  0  0
   37.1600   27.1180   42.9190 C   0  0  0  0  0  3  0  0  0  0  0  0
  1  6  1  0  0  0  0
  2  1  2  0  0  0  0
  2  3  1  0  0  0  0
  3  4  2  0  0  0  0
  4  5  1  0  0  0  0
  5  8  1  0  0  0  0
  6  5  2  0  0  0  0
  7  2  1  0  0  0  0
  9 14  1  6  0  0  0
  9 10  1  0  0  0  0
 10 11  1  0  0  0  0
 10  3  1  0  0  0  0
 10 15  1  1  0  0  0
 12 11  1  0  0  0  0
 12 17  1  0  0  0  0
 13  9  1  0  0  0  0
 13 18  1  1  0  0  0
 13 12  1  0  0  0  0
 16 12  1  0  0  0  0
 19  9  1  0  0  0  0
 20 19  1  0  0  0  0
 21 13  1  0  0  0  0
 22 21  1  0  0  0  0
 23 24  1  0  0  0  0
 23  1  1  0  0  0  0
 23 28  1  0  0  0  0
 25 23  1  0  0  0  0
 26 31  1  0  0  0  0
 26 27  2  0  0  0  0
 28 26  1  0  0  0  0
 29 28  1  0  0  0  0
 30 41  1  0  0  0  0
 31 30  2  0  0  0  0
 32 34  2  0  0  0  0
 32 31  1  0  0  0  0
 33 32  1  0  0  0  0
 34 40  1  0  0  0  0
 35 34  1  0  0  0  0
 35 37  1  0  0  0  0
 36 35  1  0  0  0  0
 37 39  2  0  0  0  0
 38 37  1  0  0  0  0
 40 39  1  0  0  0  0
 40 41  2  0  0  0  0
M  END
>  <minimizedAffinity>
-6.91889477

$$$$

 OpenBabel03242521453D

 41 44  0  0  1  0  0  0  0  0999 V2000
   42.9980   32.5360   42.1730 C   0  0  0  0  0  0  0  0  0  0  0  0
   41.7930   32.5160   41.4740 C   0  0  0  0  0  0  0  0  0  0  0  0
   41.4210   33.6080   40.6900 C   0  0  0  0  0  0  0  0  0  0  0  0
   42.2660   34.6390   40.6520 N   0  0  0  0  0  0  0  0  0  0  0  0
   43.4350   34.6550   41.3300 C   0  0  0  0  0  0  0  0  0  0  0  0
   43.8110   33.6100   42.0930 N   0  0  0  0  0  0  0  0  0  0  0  0
   41.2100   31.6380   41.5880 H   0  0  0  0  0  0  0  0  0  0  0  0
   44.0650   35.5400   41.2410 H   0  0  0  0  0  0  0  0  0  0  0  0
   38.9430   33.5990   40.8590 C   0  0  2  0  0  0  0  0  0  0  0  0
   40.1500   33.5170   39.9910 C   0  0  2  0  0  0  0  0  0  0  0  0
   39.9320   32.2660   39.3430 O   0  0  0  0  0  0  0  0  0  0  0  0
   38.6450   32.3930   38.8780 C   0  0  0  0  0  0  0  0  0  0  0  0
   37.8770   33.3290   39.7760 C   0  0  1  0  0  0  0  0  0  0  0  0
   38.8950   32.7070   41.5070 H   0  0  0  0  0  0  0  0  0  0  0  0
   40.1730   34.2460   39.1560 H   0  0  0  0  0  0  0  0  0  0  0  0
   38.1450   31.3880   38.9880 H   0  0  0  0  0  0  0  0  0  0  0  0
   38.5610   32.6380   37.8070 H   0  0  0  0  0  0  0  0  0  0  0  0
   37.6340   34.2330   39.2080 H   0  0  0  0  0  0  0  0  0  0  0  0
   38.7830   34.7840   41.5090 O   0  0  0  0  0  0  0  0  0  0  0  0
   37.8220   34.9550   41.6280 H   0  0  0  0  0  0  0  0  0  0  0  0
   36.7680   32.7450   40.3850 O   0  0  0  0  0  0  0  0  0  0  0  0
   37.0470   32.1860   41.1470 H   0  0  0  0  0  0  0  0  0  0  0  0
   43.3740   31.3490   43.0190 C   0  0  0  0  0  0  0  0  0  0  0  0
   44.2400   30.8580   42.5790 H   0  0  0  0  0  0  0  0  0  0  0  0
   43.5600   31.7640   44.0420 H   0  0  0  0  0  0  0  0  0  0  0  0
   42.1690   29.0800   43.0550 C   0  0  0  0  0  0  0  0  0  0  0  0
   43.3010   28.4940   42.9370 O   0  0  0  0  0  0  0  0  0  0  0  0
   42.2100   30.4910   43.0790 N   0  0  0  0  0  0  0  0  0  0  0  0
   41.2900   30.9800   43.1480 H   0  0  0  0  0  0  0  0  0  0  0  0
   40.7310   27.0910   43.7250 C   0  0  0  0  0  3  0  0  0  0  0  0
   40.9240   28.3290   43.1560 C   0  0  0  0  0  0  0  0  0  0  0  0
   39.7750   28.9190   42.6170 C   0  0  0  0  0  0  0  0  0  0  0  0
   39.8640   29.9040   42.1500 H   0  0  0  0  0  0  0  0  0  0  0  0
   38.5220   28.3420   42.6300 C   0  0  0  0  0  0  0  0  0  0  0  0
   37.3260   28.7370   42.1780 N   0  0  0  0  0  0  0  0  0  0  0  0
   37.1750   29.6500   41.6940 H   0  0  0  0  0  0  0  0  0  0  0  0
   36.4240   27.7610   42.4630 C   0  0  0  0  0  0  0  0  0  0  0  0
   35.3620   27.8320   42.1990 H   0  0  0  0  0  0  0  0  0  0  0  0
   37.0460   26.7200   43.1120 C   0  0  0  0  0  3  0  0  0  0  0  0
   38.3680   27.1020   43.2090 C   0  0  0  0  0  0  0  0  0  0  0  0
   39.4850   26.5000   43.7480 C   0  0  0  0  0  3  0  0  0  0  0  0
  1 23  1  0  0  0  0
  2  7  1  0  0  0  0
  2  1  2  0  0  0  0
  3  2  1  0  0  0  0
  4  3  2  0  0  0  0
  4  5  1  0  0  0  0
  5  6  2  0  0  0  0
  6  1  1  0  0  0  0
  8  5  1  0  0  0  0
  9 14  1  1  0  0  0
  9 19  1  0  0  0  0
 10 15  1  6  0  0  0
 10  3  1  0  0  0  0
 10  9  1  0  0  0  0
 11 10  1  0  0  0  0
 12 16  1  0  0  0  0
 12 11  1  0  0  0  0
 12 13  1  0  0  0  0
 13 18  1  6  0  0  0
 13 21  1  0  0  0  0
 13  9  1  0  0  0  0
 17 12  1  0  0  0  0
 19 20  1  0  0  0  0
 21 22  1  0  0  0  0
 23 28  1  0  0  0  0
 23 25  1  0  0  0  0
 24 23  1  0  0  0  0
 26 28  1  0  0  0  0
 26 31  1  0  0  0  0
 27 26  2  0  0  0  0
 28 29  1  0  0  0  0
 30 41  1  0  0  0  0
 31 30  2  0  0  0  0
 32 34  2  0  0  0  0
 32 31  1  0  0  0  0
 33 32  1  0  0  0  0
 34 40  1  0  0  0  0
 35 37  1  0  0  0  0
 35 34  1  0  0  0  0
 36 35  1  0  0  0  0
 37 39  2  0  0  0  0
 38 37  1  0  0  0  0
 39 40  1  0  0  0  0
 40 41  2  0  0  0  0
M  END
>  <minimizedAffinity>
-6.84742641

$$$$

 OpenBabel03242521453D

 41 44  0  0  1  0  0  0  0  0999 V2000
   39.7130   32.9040   40.6820 C   0  0  0  0  0  0  0  0  0  0  0  0
   41.0030   32.8930   40.1560 C   0  0  0  0  0  0  0  0  0  0  0  0
   41.5410   34.0530   39.6000 C   0  0  0  0  0  0  0  0  0  0  0  0
   40.7680   35.1390   39.6040 N   0  0  0  0  0  0  0  0  0  0  0  0
   39.5180   35.1480   40.1150 C   0  0  0  0  0  0  0  0  0  0  0  0
   38.9800   34.0370   40.6560 N   0  0  0  0  0  0  0  0  0  0  0  0
   41.5150   31.9660   40.2130 H   0  0  0  0  0  0  0  0  0  0  0  0
   38.9560   36.0810   40.0770 H   0  0  0  0  0  0  0  0  0  0  0  0
   42.9870   33.5450   37.6450 C   0  0  2  0  0  0  0  0  0  0  0  0
   42.8930   33.9660   39.0700 C   0  0  2  0  0  0  0  0  0  0  0  0
   43.7000   32.9740   39.6990 O   0  0  0  0  0  0  0  0  0  0  0  0
   44.8520   33.0110   38.9510 C   0  0  0  0  0  0  0  0  0  0  0  0
   44.5250   33.4520   37.5470 C   0  0  1  0  0  0  0  0  0  0  0  0
   42.6520   32.4980   37.5480 H   0  0  0  0  0  0  0  0  0  0  0  0
   43.4100   34.9170   39.3100 H   0  0  0  0  0  0  0  0  0  0  0  0
   45.2280   31.9510   38.8560 H   0  0  0  0  0  0  0  0  0  0  0  0
   45.6850   33.5690   39.4080 H   0  0  0  0  0  0  0  0  0  0  0  0
   44.9830   34.4320   37.3760 H   0  0  0  0  0  0  0  0  0  0  0  0
   42.4270   34.4070   36.7540 O   0  0  0  0  0  0  0  0  0  0  0  0
   42.9230   34.3550   35.9060 H   0  0  0  0  0  0  0  0  0  0  0  0
   44.8490   32.5130   36.5700 O   0  0  0  0  0  0  0  0  0  0  0  0
   44.1720   31.7980   36.5400 H   0  0  0  0  0  0  0  0  0  0  0  0
   39.1500   31.6380   41.2700 C   0  0  0  0  0  0  0  0  0  0  0  0
   39.9650   31.0390   41.6730 H   0  0  0  0  0  0  0  0  0  0  0  0
   38.4110   31.9740   42.0400 H   0  0  0  0  0  0  0  0  0  0  0  0
   37.0340   30.8570   40.0410 C   0  0  0  0  0  0  0  0  0  0  0  0
   36.3210   31.3960   40.9590 O   0  0  0  0  0  0  0  0  0  0  0  0
   38.4310   30.9660   40.2090 N   0  0  0  0  0  0  0  0  0  0  0  0
   39.0220   30.5080   39.4810 H   0  0  0  0  0  0  0  0  0  0  0  0
   35.3280   29.3500   38.9020 C   0  0  0  0  0  3  0  0  0  0  0  0
   36.4300   30.1760   38.9030 C   0  0  0  0  0  0  0  0  0  0  0  0
   37.0230   30.3730   37.6510 C   0  0  0  0  0  0  0  0  0  0  0  0
   37.9030   31.0210   37.5870 H   0  0  0  0  0  0  0  0  0  0  0  0
   36.5760   29.8040   36.4770 C   0  0  0  0  0  0  0  0  0  0  0  0
   36.9970   29.8680   35.2080 N   0  0  0  0  0  0  0  0  0  0  0  0
   37.8260   30.4310   34.9120 H   0  0  0  0  0  0  0  0  0  0  0  0
   36.1720   29.0980   34.4510 C   0  0  0  0  0  0  0  0  0  0  0  0
   36.2950   28.9750   33.3680 H   0  0  0  0  0  0  0  0  0  0  0  0
   35.2020   28.5280   35.2420 C   0  0  0  0  0  3  0  0  0  0  0  0
   35.4710   28.9830   36.5160 C   0  0  0  0  0  0  0  0  0  0  0  0
   34.8680   28.7730   37.7380 C   0  0  0  0  0  3  0  0  0  0  0  0
  1 23  1  0  0  0  0
  2  7  1  0  0  0  0
  2  1  2  0  0  0  0
  3  4  2  0  0  0  0
  3  2  1  0  0  0  0
  4  5  1  0  0  0  0
  5  6  2  0  0  0  0
  6  1  1  0  0  0  0
  8  5  1  0  0  0  0
  9 14  1  6  0  0  0
  9 10  1  0  0  0  0
 10 15  1  1  0  0  0
 10  3  1  0  0  0  0
 10 11  1  0  0  0  0
 12 17  1  0  0  0  0
 12 11  1  0  0  0  0
 13 18  1  6  0  0  0
 13  9  1  0  0  0  0
 13 12  1  0  0  0  0
 16 12  1  0  0  0  0
 19  9  1  0  0  0  0
 20 19  1  0  0  0  0
 21 13  1  0  0  0  0
 22 21  1  0  0  0  0
 23 24  1  0  0  0  0
 23 25  1  0  0  0  0
 26 28  1  0  0  0  0
 26 27  2  0  0  0  0
 28 23  1  0  0  0  0
 29 28  1  0  0  0  0
 30 31  1  0  0  0  0
 31 26  1  0  0  0  0
 32 31  2  0  0  0  0
 33 32  1  0  0  0  0
 34 40  2  0  0  0  0
 34 32  1  0  0  0  0
 35 34  1  0  0  0  0
 36 35  1  0  0  0  0
 37 35  1  0  0  0  0
 37 39  2  0  0  0  0
 38 37  1  0  0  0  0
 39 40  1  0  0  0  0
 40 41  1  0  0  0  0
 41 30  2  0  0  0  0
M  END
>  <minimizedAffinity>
-6.80065632

$$$$

 OpenBabel03242521453D

 41 44  0  0  1  0  0  0  0  0999 V2000
   36.9280   28.7010   41.9240 C   0  0  0  0  0  0  0  0  0  0  0  0
   36.7090   27.3980   41.4830 C   0  0  0  0  0  0  0  0  0  0  0  0
   37.3690   26.3330   42.0950 C   0  0  0  0  0  0  0  0  0  0  0  0
   38.1940   26.6300   43.0980 N   0  0  0  0  0  0  0  0  0  0  0  0
   38.4050   27.8950   43.5250 C   0  0  0  0  0  0  0  0  0  0  0  0
   37.7780   28.9370   42.9460 N   0  0  0  0  0  0  0  0  0  0  0  0
   36.0290   27.2940   40.6760 H   0  0  0  0  0  0  0  0  0  0  0  0
   39.0970   28.0470   44.3520 H   0  0  0  0  0  0  0  0  0  0  0  0
   38.2760   24.1060   41.4730 C   0  0  2  0  0  0  0  0  0  0  0  0
   37.0910   25.0010   41.5810 C   0  0  2  0  0  0  0  0  0  0  0  0
   36.6170   24.9850   40.2370 O   0  0  0  0  0  0  0  0  0  0  0  0
   36.5540   23.6400   39.9610 C   0  0  0  0  0  0  0  0  0  0  0  0
   37.5830   22.9100   40.7850 C   0  0  1  0  0  0  0  0  0  0  0  0
   38.9610   24.4950   40.6990 H   0  0  0  0  0  0  0  0  0  0  0  0
   36.2450   24.5850   42.1640 H   0  0  0  0  0  0  0  0  0  0  0  0
   36.8710   23.5010   38.8870 H   0  0  0  0  0  0  0  0  0  0  0  0
   35.5450   23.2010   40.0200 H   0  0  0  0  0  0  0  0  0  0  0  0
   37.0610   22.2720   41.5050 H   0  0  0  0  0  0  0  0  0  0  0  0
   38.8710   23.7950   42.6570 O   0  0  0  0  0  0  0  0  0  0  0  0
   39.2630   22.8950   42.5890 H   0  0  0  0  0  0  0  0  0  0  0  0
   38.5320   22.2260   40.0280 O   0  0  0  0  0  0  0  0  0  0  0  0
   39.2070   22.8500   39.6750 H   0  0  0  0  0  0  0  0  0  0  0  0
   36.2110   29.8360   41.2420 C   0  0  0  0  0  0  0  0  0  0  0  0
   35.8880   29.5110   40.2550 H   0  0  0  0  0  0  0  0  0  0  0  0
   35.3690   30.1060   41.9280 H   0  0  0  0  0  0  0  0  0  0  0  0
   37.3280   31.8730   40.1460 C   0  0  0  0  0  0  0  0  0  0  0  0
   36.6130   31.6830   39.1000 O   0  0  0  0  0  0  0  0  0  0  0  0
   37.1350   30.9480   41.1940 N   0  0  0  0  0  0  0  0  0  0  0  0
   37.7320   31.0770   42.0420 H   0  0  0  0  0  0  0  0  0  0  0  0
   38.0520   34.3050   39.9510 C   0  0  0  0  0  3  0  0  0  0  0  0
   38.2760   32.9770   40.2360 C   0  0  0  0  0  0  0  0  0  0  0  0
   39.5730   32.6720   40.6610 C   0  0  0  0  0  0  0  0  0  0  0  0
   39.8130   31.6320   40.9040 H   0  0  0  0  0  0  0  0  0  0  0  0
   40.5860   33.5980   40.8010 C   0  0  0  0  0  0  0  0  0  0  0  0
   41.8650   33.5070   41.1850 N   0  0  0  0  0  0  0  0  0  0  0  0
   42.3120   32.6050   41.4640 H   0  0  0  0  0  0  0  0  0  0  0  0
   42.4100   34.7520   41.1350 C   0  0  0  0  0  0  0  0  0  0  0  0
   43.4530   34.9590   41.4020 H   0  0  0  0  0  0  0  0  0  0  0  0
   41.4690   35.6610   40.7130 C   0  0  0  0  0  3  0  0  0  0  0  0
   40.3250   34.9180   40.5060 C   0  0  0  0  0  0  0  0  0  0  0  0
   39.0530   35.2430   40.0840 C   0  0  0  0  0  3  0  0  0  0  0  0
  1  6  1  0  0  0  0
  2  1  2  0  0  0  0
  2  3  1  0  0  0  0
  3  4  2  0  0  0  0
  4  5  1  0  0  0  0
  5  8  1  0  0  0  0
  6  5  2  0  0  0  0
  7  2  1  0  0  0  0
  9 14  1  6  0  0  0
  9 10  1  0  0  0  0
  9 19  1  0  0  0  0
 10  3  1  0  0  0  0
 10 15  1  1  0  0  0
 11 10  1  0  0  0  0
 12 17  1  0  0  0  0
 12 11  1  0  0  0  0
 12 13  1  0  0  0  0
 13  9  1  0  0  0  0
 13 18  1  1  0  0  0
 16 12  1  0  0  0  0
 20 19  1  0  0  0  0
 21 13  1  0  0  0  0
 22 21  1  0  0  0  0
 23  1  1  0  0  0  0
 23 25  1  0  0  0  0
 24 23  1  0  0  0  0
 26 31  1  0  0  0  0
 26 28  1  0  0  0  0
 27 26  2  0  0  0  0
 28 23  1  0  0  0  0
 28 29  1  0  0  0  0
 30 41  2  0  0  0  0
 30 31  1  0  0  0  0
 31 32  2  0  0  0  0
 32 34  1  0  0  0  0
 32 33  1  0  0  0  0
 34 35  1  0  0  0  0
 35 36  1  0  0  0  0
 37 35  1  0  0  0  0
 37 38  1  0  0  0  0
 39 37  2  0  0  0  0
 40 39  1  0  0  0  0
 40 34  2  0  0  0  0
 41 40  1  0  0  0  0
M  END
>  <minimizedAffinity>
-6.66628456

$$$$

 OpenBabel03242521453D

 41 44  0  0  1  0  0  0  0  0999 V2000
   39.0080   31.2250   41.5510 C   0  0  0  0  0  0  0  0  0  0  0  0
   39.9550   31.9430   40.8260 C   0  0  0  0  0  0  0  0  0  0  0  0
   39.5740   32.6530   39.6870 C   0  0  0  0  0  0  0  0  0  0  0  0
   38.2860   32.6030   39.3490 N   0  0  0  0  0  0  0  0  0  0  0  0
   37.3680   31.9070   40.0540 C   0  0  0  0  0  0  0  0  0  0  0  0
   37.7170   31.2150   41.1560 N   0  0  0  0  0  0  0  0  0  0  0  0
   40.9470   31.9030   41.1990 H   0  0  0  0  0  0  0  0  0  0  0  0
   36.3360   31.9210   39.7050 H   0  0  0  0  0  0  0  0  0  0  0  0
   41.1260   32.7150   37.7490 C   0  0  2  0  0  0  0  0  0  0  0  0
   40.6180   33.3780   38.9810 C   0  0  2  0  0  0  0  0  0  0  0  0
   41.8250   33.5290   39.7240 O   0  0  0  0  0  0  0  0  0  0  0  0
   42.6630   34.1210   38.8100 C   0  0  0  0  0  0  0  0  0  0  0  0
   42.2590   33.7090   37.4180 C   0  0  1  0  0  0  0  0  0  0  0  0
   41.6600   31.7880   38.0240 H   0  0  0  0  0  0  0  0  0  0  0  0
   40.2650   34.4190   38.8370 H   0  0  0  0  0  0  0  0  0  0  0  0
   43.6940   33.6890   38.9680 H   0  0  0  0  0  0  0  0  0  0  0  0
   42.7890   35.2090   38.9320 H   0  0  0  0  0  0  0  0  0  0  0  0
   41.8860   34.5920   36.8900 H   0  0  0  0  0  0  0  0  0  0  0  0
   40.2090   32.5700   36.7540 O   0  0  0  0  0  0  0  0  0  0  0  0
   40.6710   32.6100   35.8870 H   0  0  0  0  0  0  0  0  0  0  0  0
   43.2540   33.0280   36.7190 O   0  0  0  0  0  0  0  0  0  0  0  0
   43.3070   32.0910   37.0190 H   0  0  0  0  0  0  0  0  0  0  0  0
   39.4450   30.4600   42.7710 C   0  0  0  0  0  0  0  0  0  0  0  0
   40.4580   30.7570   43.0340 H   0  0  0  0  0  0  0  0  0  0  0  0
   38.6840   30.7010   43.5570 H   0  0  0  0  0  0  0  0  0  0  0  0
   38.3480   28.1390   42.8700 C   0  0  0  0  0  0  0  0  0  0  0  0
   37.4580   28.6100   43.6610 O   0  0  0  0  0  0  0  0  0  0  0  0
   39.3360   29.0540   42.4470 N   0  0  0  0  0  0  0  0  0  0  0  0
   40.0820   28.6750   41.8230 H   0  0  0  0  0  0  0  0  0  0  0  0
   39.1630   25.7280   42.8560 C   0  0  0  0  0  3  0  0  0  0  0  0
   38.3330   26.7450   42.4430 C   0  0  0  0  0  0  0  0  0  0  0  0
   37.3650   26.3760   41.5020 C   0  0  0  0  0  0  0  0  0  0  0  0
   36.6750   27.1410   41.1350 H   0  0  0  0  0  0  0  0  0  0  0  0
   37.2160   25.1020   40.9960 C   0  0  0  0  0  0  0  0  0  0  0  0
   36.3720   24.5600   40.1100 N   0  0  0  0  0  0  0  0  0  0  0  0
   35.6240   25.1080   39.6280 H   0  0  0  0  0  0  0  0  0  0  0  0
   36.6810   23.2420   39.9840 C   0  0  0  0  0  0  0  0  0  0  0  0
   36.1380   22.5610   39.3160 H   0  0  0  0  0  0  0  0  0  0  0  0
   37.7400   22.9270   40.8020 C   0  0  0  0  0  3  0  0  0  0  0  0
   38.0660   24.1100   41.4330 C   0  0  0  0  0  0  0  0  0  0  0  0
   39.0280   24.4490   42.3600 C   0  0  0  0  0  3  0  0  0  0  0  0
  1 23  1  0  0  0  0
  2  7  1  0  0  0  0
  2  1  2  0  0  0  0
  3  2  1  0  0  0  0
  4  3  2  0  0  0  0
  4  5  1  0  0  0  0
  5  6  2  0  0  0  0
  6  1  1  0  0  0  0
  8  5  1  0  0  0  0
  9 14  1  1  0  0  0
  9 10  1  0  0  0  0
 10 15  1  6  0  0  0
 10  3  1  0  0  0  0
 10 11  1  0  0  0  0
 12 17  1  0  0  0  0
 12 16  1  0  0  0  0
 12 11  1  0  0  0  0
 13 18  1  6  0  0  0
 13  9  1  0  0  0  0
 13 12  1  0  0  0  0
 19  9  1  0  0  0  0
 20 19  1  0  0  0  0
 21 22  1  0  0  0  0
 21 13  1  0  0  0  0
 23 24  1  0  0  0  0
 23 25  1  0  0  0  0
 26 27  2  0  0  0  0
 28 23  1  0  0  0  0
 28 26  1  0  0  0  0
 29 28  1  0  0  0  0
 31 30  1  0  0  0  0
 31 26  1  0  0  0  0
 32 31  2  0  0  0  0
 33 32  1  0  0  0  0
 34 40  2  0  0  0  0
 34 32  1  0  0  0  0
 35 34  1  0  0  0  0
 36 35  1  0  0  0  0
 37 35  1  0  0  0  0
 37 39  2  0  0  0  0
 38 37  1  0  0  0  0
 39 40  1  0  0  0  0
 40 41  1  0  0  0  0
 41 30  2  0  0  0  0
M  END
>  <minimizedAffinity>
-6.64672136

$$$$

 OpenBabel03242521453D

 41 44  0  0  1  0  0  0  0  0999 V2000
   37.6830   26.9670   43.1630 C   0  0  0  0  0  0  0  0  0  0  0  0
   37.0070   26.0670   42.3420 C   0  0  0  0  0  0  0  0  0  0  0  0
   37.6690   24.9500   41.8340 C   0  0  0  0  0  0  0  0  0  0  0  0
   38.9500   24.8020   42.1740 N   0  0  0  0  0  0  0  0  0  0  0  0
   39.6040   25.6750   42.9710 C   0  0  0  0  0  0  0  0  0  0  0  0
   38.9810   26.7590   43.4710 N   0  0  0  0  0  0  0  0  0  0  0  0
   35.9910   26.2980   42.1470 H   0  0  0  0  0  0  0  0  0  0  0  0
   40.6510   25.4750   43.1980 H   0  0  0  0  0  0  0  0  0  0  0  0
   37.7020   23.0470   40.2380 C   0  0  2  0  0  0  0  0  0  0  0  0
   36.9000   24.0560   40.9840 C   0  0  2  0  0  0  0  0  0  0  0  0
   36.2260   24.7110   39.9130 O   0  0  0  0  0  0  0  0  0  0  0  0
   35.6920   23.6570   39.2100 C   0  0  0  0  0  0  0  0  0  0  0  0
   36.5580   22.4380   39.3980 C   0  0  1  0  0  0  0  0  0  0  0  0
   38.3340   23.5590   39.4920 H   0  0  0  0  0  0  0  0  0  0  0  0
   36.0770   23.6350   41.5960 H   0  0  0  0  0  0  0  0  0  0  0  0
   35.7620   23.9130   38.1130 H   0  0  0  0  0  0  0  0  0  0  0  0
   34.6210   23.4730   39.3920 H   0  0  0  0  0  0  0  0  0  0  0  0
   35.9900   21.6930   39.9630 H   0  0  0  0  0  0  0  0  0  0  0  0
   38.3570   22.1440   41.0170 O   0  0  0  0  0  0  0  0  0  0  0  0
   38.4250   21.2930   40.5290 H   0  0  0  0  0  0  0  0  0  0  0  0
   37.0980   21.9400   38.2140 O   0  0  0  0  0  0  0  0  0  0  0  0
   37.8670   22.4860   37.9280 H   0  0  0  0  0  0  0  0  0  0  0  0
   36.9490   28.1690   43.6930 C   0  0  0  0  0  0  0  0  0  0  0  0
   35.8800   28.0250   43.5520 H   0  0  0  0  0  0  0  0  0  0  0  0
   37.2570   28.2520   44.7670 H   0  0  0  0  0  0  0  0  0  0  0  0
   36.9980   29.8660   41.7650 C   0  0  0  0  0  0  0  0  0  0  0  0
   36.0230   29.2450   41.2140 O   0  0  0  0  0  0  0  0  0  0  0  0
   37.4610   29.3200   42.9820 N   0  0  0  0  0  0  0  0  0  0  0  0
   38.2730   29.8030   43.4270 H   0  0  0  0  0  0  0  0  0  0  0  0
   36.9860   31.9490   40.3030 C   0  0  0  0  0  3  0  0  0  0  0  0
   37.5840   31.0580   41.1650 C   0  0  0  0  0  0  0  0  0  0  0  0
   38.9130   31.3510   41.4920 C   0  0  0  0  0  0  0  0  0  0  0  0
   39.4430   30.6800   42.1750 H   0  0  0  0  0  0  0  0  0  0  0  0
   39.6130   32.4380   41.0120 C   0  0  0  0  0  0  0  0  0  0  0  0
   40.8620   32.8820   41.2020 N   0  0  0  0  0  0  0  0  0  0  0  0
   41.5500   32.3950   41.8180 H   0  0  0  0  0  0  0  0  0  0  0  0
   41.0220   34.0170   40.4710 C   0  0  0  0  0  0  0  0  0  0  0  0
   41.9590   34.5870   40.4470 H   0  0  0  0  0  0  0  0  0  0  0  0
   39.8590   34.3120   39.7980 C   0  0  0  0  0  3  0  0  0  0  0  0
   38.9810   33.3080   40.1500 C   0  0  0  0  0  0  0  0  0  0  0  0
   37.6710   33.0400   39.8130 C   0  0  0  0  0  3  0  0  0  0  0  0
  1  6  1  0  0  0  0
  1 23  1  0  0  0  0
  2  1  2  0  0  0  0
  3  4  2  0  0  0  0
  3  2  1  0  0  0  0
  4  5  1  0  0  0  0
  5  8  1  0  0  0  0
  5  6  2  0  0  0  0
  7  2  1  0  0  0  0
  9 14  1  6  0  0  0
  9 10  1  0  0  0  0
  9 19  1  0  0  0  0
 10 15  1  1  0  0  0
 10  3  1  0  0  0  0
 11 10  1  0  0  0  0
 12 17  1  0  0  0  0
 12 13  1  0  0  0  0
 12 11  1  0  0  0  0
 13 18  1  1  0  0  0
 13  9  1  0  0  0  0
 16 12  1  0  0  0  0
 20 19  1  0  0  0  0
 21 13  1  0  0  0  0
 22 21  1  0  0  0  0
 23 25  1  0  0  0  0
 24 23  1  0  0  0  0
 26 28  1  0  0  0  0
 27 26  2  0  0  0  0
 28 29  1  0  0  0  0
 28 23  1  0  0  0  0
 30 31  1  0  0  0  0
 31 32  2  0  0  0  0
 31 26  1  0  0  0  0
 32 33  1  0  0  0  0
 34 35  1  0  0  0  0
 34 32  1  0  0  0  0
 35 36  1  0  0  0  0
 37 35  1  0  0  0  0
 38 37  1  0  0  0  0
 39 40  1  0  0  0  0
 39 37  2  0  0  0  0
 40 34  2  0  0  0  0
 41 40  1  0  0  0  0
 41 30  2  0  0  0  0
M  END
>  <minimizedAffinity>
-6.59815788

$$$$
