
 OpenBabel03242521433D

 41 44  0  0  1  0  0  0  0  0999 V2000
   45.5930   34.9000   43.7930 C   0  0  0  0  0  0  0  0  0  0  0  0
   46.6870   34.2180   43.2650 C   0  0  0  0  0  0  0  0  0  0  0  0
   47.3310   33.2380   44.0210 C   0  0  0  0  0  0  0  0  0  0  0  0
   46.8480   33.0030   45.2400 N   0  0  0  0  0  0  0  0  0  0  0  0
   45.7860   33.6650   45.7500 C   0  0  0  0  0  0  0  0  0  0  0  0
   45.1510   34.6140   45.0360 N   0  0  0  0  0  0  0  0  0  0  0  0
   46.9730   34.4980   42.2840 H   0  0  0  0  0  0  0  0  0  0  0  0
   45.4570   33.4070   46.7570 H   0  0  0  0  0  0  0  0  0  0  0  0
   49.3080   33.4290   42.5290 C   0  0  2  0  0  0  0  0  0  0  0  0
   48.4660   32.5700   43.4060 C   0  0  2  0  0  0  0  0  0  0  0  0
   48.1060   31.5310   42.4990 O   0  0  0  0  0  0  0  0  0  0  0  0
   49.3210   31.1570   41.9770 C   0  0  0  0  0  0  0  0  0  0  0  0
   50.2610   32.3360   42.0020 C   0  0  1  0  0  0  0  0  0  0  0  0
   48.7270   33.7270   41.6390 H   0  0  0  0  0  0  0  0  0  0  0  0
   49.0190   32.0400   44.2070 H   0  0  0  0  0  0  0  0  0  0  0  0
   49.1620   30.9180   40.8860 H   0  0  0  0  0  0  0  0  0  0  0  0
   49.7500   30.2390   42.4110 H   0  0  0  0  0  0  0  0  0  0  0  0
   51.0670   32.1210   42.7090 H   0  0  0  0  0  0  0  0  0  0  0  0
   49.9390   34.4530   43.1650 O   0  0  0  0  0  0  0  0  0  0  0  0
   50.7890   34.6380   42.7050 H   0  0  0  0  0  0  0  0  0  0  0  0
   50.7180   32.7190   40.7420 O   0  0  0  0  0  0  0  0  0  0  0  0
   50.0270   33.2350   40.2660 H   0  0  0  0  0  0  0  0  0  0  0  0
   44.9190   35.9580   42.9610 C   0  0  0  0  0  0  0  0  0  0  0  0
   45.5320   36.1690   42.0870 H   0  0  0  0  0  0  0  0  0  0  0  0
   43.9090   35.5410   42.7160 H   0  0  0  0  0  0  0  0  0  0  0  0
   45.4980   38.3020   43.8390 C   0  0  0  0  0  0  0  0  0  0  0  0
   46.4820   38.3490   43.0200 O   0  0  0  0  0  0  0  0  0  0  0  0
   44.7400   37.1120   43.8160 N   0  0  0  0  0  0  0  0  0  0  0  0
   43.9510   37.0520   44.4970 H   0  0  0  0  0  0  0  0  0  0  0  0
   45.1730   39.4040   46.1100 C   0  0  0  0  0  3  0  0  0  0  0  0
   45.1930   39.4120   44.7330 C   0  0  0  0  0  0  0  0  0  0  0  0
   44.8790   40.6400   44.1410 C   0  0  0  0  0  0  0  0  0  0  0  0
   44.8760   40.7100   43.0500 H   0  0  0  0  0  0  0  0  0  0  0  0
   44.5670   41.7870   44.8430 C   0  0  0  0  0  0  0  0  0  0  0  0
   44.2450   43.0320   44.4690 N   0  0  0  0  0  0  0  0  0  0  0  0
   44.1820   43.3260   43.4690 H   0  0  0  0  0  0  0  0  0  0  0  0
   44.0350   43.7670   45.5930 C   0  0  0  0  0  0  0  0  0  0  0  0
   43.7560   44.8280   45.5700 H   0  0  0  0  0  0  0  0  0  0  0  0
   44.2230   42.9870   46.7090 C   0  0  0  0  0  3  0  0  0  0  0  0
   44.5580   41.7410   46.2190 C   0  0  0  0  0  0  0  0  0  0  0  0
   44.8640   40.5430   46.8250 C   0  0  0  0  0  3  0  0  0  0  0  0
  1  6  1  0  0  0  0
  2  1  2  0  0  0  0
  2  3  1  0  0  0  0
  3  4  2  0  0  0  0
  4  5  1  0  0  0  0
  5  8  1  0  0  0  0
  6  5  2  0  0  0  0
  7  2  1  0  0  0  0
  9 14  1  6  0  0  0
  9 19  1  0  0  0  0
  9 10  1  0  0  0  0
 10  3  1  0  0  0  0
 10 15  1  1  0  0  0
 11 10  1  0  0  0  0
 12 13  1  0  0  0  0
 12 17  1  0  0  0  0
 12 11  1  0  0  0  0
 13  9  1  0  0  0  0
 13 18  1  1  0  0  0
 16 12  1  0  0  0  0
 20 19  1  0  0  0  0
 21 13  1  0  0  0  0
 22 21  1  0  0  0  0
 23  1  1  0  0  0  0
 23 28  1  0  0  0  0
 24 23  1  0  0  0  0
 25 23  1  0  0  0  0
 26 31  1  0  0  0  0
 27 26  2  0  0  0  0
 28 26  1  0  0  0  0
 28 29  1  0  0  0  0
 30 41  1  0  0  0  0
 31 30  2  0  0  0  0
 32 31  1  0  0  0  0
 32 34  2  0  0  0  0
 33 32  1  0  0  0  0
 34 40  1  0  0  0  0
 35 34  1  0  0  0  0
 35 37  1  0  0  0  0
 36 35  1  0  0  0  0
 37 39  2  0  0  0  0
 38 37  1  0  0  0  0
 40 39  1  0  0  0  0
 40 41  2  0  0  0  0
M  END
>  <minimizedAffinity>
-3.27259374

>  <minimizedRMSD>
1.23551106

$$$$
