
 OpenBabel03242521433D

 41 44  0  0  1  0  0  0  0  0999 V2000
   45.5940   34.9070   43.7860 C   0  0  0  0  0  0  0  0  0  0  0  0
   46.6880   34.2240   43.2610 C   0  0  0  0  0  0  0  0  0  0  0  0
   47.3290   33.2430   44.0170 C   0  0  0  0  0  0  0  0  0  0  0  0
   46.8430   33.0070   45.2360 N   0  0  0  0  0  0  0  0  0  0  0  0
   45.7810   33.6690   45.7430 C   0  0  0  0  0  0  0  0  0  0  0  0
   45.1490   34.6200   45.0280 N   0  0  0  0  0  0  0  0  0  0  0  0
   46.9780   34.5040   42.2810 H   0  0  0  0  0  0  0  0  0  0  0  0
   45.4490   33.4120   46.7490 H   0  0  0  0  0  0  0  0  0  0  0  0
   49.3090   33.4320   42.5290 C   0  0  2  0  0  0  0  0  0  0  0  0
   48.4650   32.5730   43.4040 C   0  0  2  0  0  0  0  0  0  0  0  0
   48.1060   31.5340   42.4980 O   0  0  0  0  0  0  0  0  0  0  0  0
   49.3220   31.1590   41.9790 C   0  0  0  0  0  0  0  0  0  0  0  0
   50.2620   32.3370   42.0040 C   0  0  1  0  0  0  0  0  0  0  0  0
   48.7300   33.7290   41.6370 H   0  0  0  0  0  0  0  0  0  0  0  0
   49.0170   32.0430   44.2070 H   0  0  0  0  0  0  0  0  0  0  0  0
   49.1640   30.9200   40.8870 H   0  0  0  0  0  0  0  0  0  0  0  0
   49.7500   30.2420   42.4130 H   0  0  0  0  0  0  0  0  0  0  0  0
   51.0680   32.1230   42.7120 H   0  0  0  0  0  0  0  0  0  0  0  0
   49.9400   34.4560   43.1650 O   0  0  0  0  0  0  0  0  0  0  0  0
   50.7900   34.6400   42.7060 H   0  0  0  0  0  0  0  0  0  0  0  0
   50.7220   32.7200   40.7450 O   0  0  0  0  0  0  0  0  0  0  0  0
   50.0310   33.2360   40.2670 H   0  0  0  0  0  0  0  0  0  0  0  0
   44.9230   35.9670   42.9550 C   0  0  0  0  0  0  0  0  0  0  0  0
   45.5390   36.1780   42.0830 H   0  0  0  0  0  0  0  0  0  0  0  0
   43.9140   35.5510   42.7050 H   0  0  0  0  0  0  0  0  0  0  0  0
   45.5020   38.3090   43.8360 C   0  0  0  0  0  0  0  0  0  0  0  0
   46.4880   38.3560   43.0190 O   0  0  0  0  0  0  0  0  0  0  0  0
   44.7430   37.1200   43.8100 N   0  0  0  0  0  0  0  0  0  0  0  0
   43.9530   37.0590   44.4900 H   0  0  0  0  0  0  0  0  0  0  0  0
   45.1760   39.4100   46.1070 C   0  0  0  0  0  3  0  0  0  0  0  0
   45.1950   39.4180   44.7300 C   0  0  0  0  0  0  0  0  0  0  0  0
   44.8780   40.6460   44.1400 C   0  0  0  0  0  0  0  0  0  0  0  0
   44.8760   40.7160   43.0480 H   0  0  0  0  0  0  0  0  0  0  0  0
   44.5630   41.7920   44.8420 C   0  0  0  0  0  0  0  0  0  0  0  0
   44.2390   43.0360   44.4700 N   0  0  0  0  0  0  0  0  0  0  0  0
   44.1750   43.3310   43.4690 H   0  0  0  0  0  0  0  0  0  0  0  0
   44.0270   43.7700   45.5940 C   0  0  0  0  0  0  0  0  0  0  0  0
   43.7460   44.8300   45.5720 H   0  0  0  0  0  0  0  0  0  0  0  0
   44.2180   42.9900   46.7100 C   0  0  0  0  0  3  0  0  0  0  0  0
   44.5550   41.7450   46.2180 C   0  0  0  0  0  0  0  0  0  0  0  0
   44.8650   40.5460   46.8240 C   0  0  0  0  0  3  0  0  0  0  0  0
  1  6  1  0  0  0  0
  2  1  2  0  0  0  0
  2  3  1  0  0  0  0
  3  4  2  0  0  0  0
  4  5  1  0  0  0  0
  5  8  1  0  0  0  0
  6  5  2  0  0  0  0
  7  2  1  0  0  0  0
  9 14  1  6  0  0  0
  9 19  1  0  0  0  0
  9 10  1  0  0  0  0
 10  3  1  0  0  0  0
 10 15  1  1  0  0  0
 11 10  1  0  0  0  0
 12 13  1  0  0  0  0
 12 17  1  0  0  0  0
 12 11  1  0  0  0  0
 13  9  1  0  0  0  0
 13 18  1  1  0  0  0
 16 12  1  0  0  0  0
 20 19  1  0  0  0  0
 21 13  1  0  0  0  0
 22 21  1  0  0  0  0
 23  1  1  0  0  0  0
 23 28  1  0  0  0  0
 24 23  1  0  0  0  0
 25 23  1  0  0  0  0
 26 31  1  0  0  0  0
 27 26  2  0  0  0  0
 28 26  1  0  0  0  0
 28 29  1  0  0  0  0
 30 41  1  0  0  0  0
 31 30  2  0  0  0  0
 32 31  1  0  0  0  0
 32 34  2  0  0  0  0
 33 32  1  0  0  0  0
 34 40  1  0  0  0  0
 35 34  1  0  0  0  0
 35 37  1  0  0  0  0
 36 35  1  0  0  0  0
 37 39  2  0  0  0  0
 38 37  1  0  0  0  0
 40 39  1  0  0  0  0
 40 41  2  0  0  0  0
M  END
>  <minimizedAffinity>
-3.26526523

>  <minimizedRMSD>
1.49083912

$$$$
