
 OpenBabel03242516523D

 48 52  0  0  1  0  0  0  0  0999 V2000
   47.8560   32.8880   41.7260 C   0  0  1  0  0  0  0  0  0  0  0  0
   47.5080   32.2220   40.4700 C   0  0  0  0  0  0  0  0  0  0  0  0
   48.5380   32.7020   39.4450 C   0  0  0  0  0  0  0  0  0  0  0  0
   48.2100   34.1630   39.1710 C   0  0  0  0  0  0  0  0  0  0  0  0
   48.1870   35.0160   40.4020 C   0  0  0  0  0  0  0  0  0  0  0  0
   47.6780   34.4080   41.6390 C   0  0  1  0  0  0  0  0  0  0  0  0
   48.9750   32.7930   41.8830 H   0  0  0  0  0  0  0  0  0  0  0  0
   47.6550   31.1330   40.5740 H   0  0  0  0  0  0  0  0  0  0  0  0
   46.5030   32.4640   40.0710 H   0  0  0  0  0  0  0  0  0  0  0  0
   49.5420   32.6920   39.9220 H   0  0  0  0  0  0  0  0  0  0  0  0
   48.4740   32.1660   38.5010 H   0  0  0  0  0  0  0  0  0  0  0  0
   47.1740   34.1760   38.7660 H   0  0  0  0  0  0  0  0  0  0  0  0
   48.8820   34.6130   38.4340 H   0  0  0  0  0  0  0  0  0  0  0  0
   49.2230   35.4070   40.5460 H   0  0  0  0  0  0  0  0  0  0  0  0
   47.5850   35.9280   40.1470 H   0  0  0  0  0  0  0  0  0  0  0  0
   48.2810   34.8030   42.5120 H   0  0  0  0  0  0  0  0  0  0  0  0
   45.4390   31.0310   43.9600 C   0  0  0  0  0  0  0  0  0  0  0  0
   46.1180   31.5410   42.8510 C   0  0  0  0  0  0  0  0  0  0  0  0
   47.2160   32.4010   42.9290 C   0  0  0  0  0  0  0  0  0  0  0  0
   47.5980   32.7250   44.1650 N   0  0  0  0  0  0  0  0  0  0  0  0
   46.9550   32.2440   45.2620 C   0  0  0  0  0  0  0  0  0  0  0  0
   45.9090   31.4230   45.1760 N   0  0  0  0  0  0  0  0  0  0  0  0
   44.6030   30.3740   43.7620 H   0  0  0  0  0  0  0  0  0  0  0  0
   45.7960   31.2660   41.8550 H   0  0  0  0  0  0  0  0  0  0  0  0
   47.2300   32.4790   46.2730 H   0  0  0  0  0  0  0  0  0  0  0  0
   46.3070   34.8130   41.9500 C   0  0  0  0  0  0  0  0  0  0  0  0
   45.8960   35.4820   43.1140 C   0  0  0  0  0  0  0  0  0  0  0  0
   44.5400   35.7820   43.1900 C   0  0  0  0  0  0  0  0  0  0  0  0
   43.7240   35.4080   42.1400 C   0  0  0  0  0  0  0  0  0  0  0  0
   44.1490   34.7480   40.9980 C   0  0  0  0  0  0  0  0  0  0  0  0
   45.4860   34.4580   40.9350 N   0  0  0  0  0  0  0  0  0  0  0  0
   46.6410   35.7000   43.8310 H   0  0  0  0  0  0  0  0  0  0  0  0
   44.2000   36.2910   44.0660 H   0  0  0  0  0  0  0  0  0  0  0  0
   42.6650   35.6450   42.2040 H   0  0  0  0  0  0  0  0  0  0  0  0
   43.2120   34.3990   39.9350 C   0  0  0  0  0  0  0  0  0  0  0  0
   42.5390   35.3430   39.4250 O   0  0  0  0  0  0  0  0  0  0  0  0
   41.9890   33.0070   38.3570 C   0  0  0  0  0  3  0  0  0  0  0  0
   42.9320   33.0890   39.3610 C   0  0  0  0  0  0  0  0  0  0  0  0
   43.5500   31.9220   39.7580 C   0  0  0  0  0  0  0  0  0  0  0  0
   44.2700   32.0370   40.5390 H   0  0  0  0  0  0  0  0  0  0  0  0
   43.2880   30.6790   39.2190 C   0  0  0  0  0  0  0  0  0  0  0  0
   43.7430   29.4310   39.4270 N   0  0  0  0  0  0  0  0  0  0  0  0
   44.4690   29.1720   40.1310 H   0  0  0  0  0  0  0  0  0  0  0  0
   43.1000   28.5850   38.5750 C   0  0  0  0  0  0  0  0  0  0  0  0
   43.2350   27.5000   38.4830 H   0  0  0  0  0  0  0  0  0  0  0  0
   42.2020   29.3120   37.7910 C   0  0  0  0  0  3  0  0  0  0  0  0
   42.3380   30.6310   38.2150 C   0  0  0  0  0  0  0  0  0  0  0  0
   41.6880   31.7670   37.7790 C   0  0  0  0  0  3  0  0  0  0  0  0
  1  7  1  1  0  0  0
  1 19  1  0  0  0  0
  2  8  1  0  0  0  0
  2  1  1  0  0  0  0
  3 10  1  0  0  0  0
  3  2  1  0  0  0  0
  4  3  1  0  0  0  0
  4  5  1  0  0  0  0
  5 14  1  0  0  0  0
  5  6  1  0  0  0  0
  6  1  1  0  0  0  0
  6 26  1  0  0  0  0
  6 16  1  1  0  0  0
  9  2  1  0  0  0  0
 11  3  1  0  0  0  0
 12  4  1  0  0  0  0
 13  4  1  0  0  0  0
 15  5  1  0  0  0  0
 17 22  1  0  0  0  0
 18 19  1  0  0  0  0
 18 17  2  0  0  0  0
 19 20  2  0  0  0  0
 20 21  1  0  0  0  0
 21 25  1  0  0  0  0
 22 21  2  0  0  0  0
 23 17  1  0  0  0  0
 24 18  1  0  0  0  0
 26 27  1  0  0  0  0
 27 28  2  0  0  0  0
 27 32  1  0  0  0  0
 28 33  1  0  0  0  0
 29 34  1  0  0  0  0
 29 28  1  0  0  0  0
 30 29  2  0  0  0  0
 31 30  1  0  0  0  0
 31 26  2  0  0  0  0
 35 30  1  0  0  0  0
 36 35  2  0  0  0  0
 37 38  1  0  0  0  0
 38 39  2  0  0  0  0
 38 35  1  0  0  0  0
 39 40  1  0  0  0  0
 41 42  1  0  0  0  0
 41 39  1  0  0  0  0
 42 43  1  0  0  0  0
 44 42  1  0  0  0  0
 45 44  1  0  0  0  0
 46 47  1  0  0  0  0
 46 44  2  0  0  0  0
 47 41  2  0  0  0  0
 48 47  1  0  0  0  0
 48 37  2  0  0  0  0
M  END
>  <minimizedAffinity>
-5.4277873

>  <minimizedRMSD>
0.454994112

$$$$
