
 OpenBabel03242516523D

 48 52  0  0  1  0  0  0  0  0999 V2000
   47.8430   32.8890   41.8280 C   0  0  1  0  0  0  0  0  0  0  0  0
   47.5140   32.3030   40.5280 C   0  0  0  0  0  0  0  0  0  0  0  0
   48.5570   32.8470   39.5500 C   0  0  0  0  0  0  0  0  0  0  0  0
   48.2300   34.3220   39.3640 C   0  0  0  0  0  0  0  0  0  0  0  0
   48.1890   35.0960   40.6450 C   0  0  0  0  0  0  0  0  0  0  0  0
   47.6640   34.4110   41.8340 C   0  0  1  0  0  0  0  0  0  0  0  0
   48.9590   32.7840   41.9940 H   0  0  0  0  0  0  0  0  0  0  0  0
   47.6600   31.2090   40.5650 H   0  0  0  0  0  0  0  0  0  0  0  0
   46.5130   32.5690   40.1300 H   0  0  0  0  0  0  0  0  0  0  0  0
   49.5540   32.8080   40.0390 H   0  0  0  0  0  0  0  0  0  0  0  0
   48.5070   32.3710   38.5720 H   0  0  0  0  0  0  0  0  0  0  0  0
   47.2000   34.3590   38.9460 H   0  0  0  0  0  0  0  0  0  0  0  0
   48.9120   34.8180   38.6650 H   0  0  0  0  0  0  0  0  0  0  0  0
   49.2220   35.4780   40.8270 H   0  0  0  0  0  0  0  0  0  0  0  0
   47.5890   36.0220   40.4390 H   0  0  0  0  0  0  0  0  0  0  0  0
   48.2540   34.7510   42.7380 H   0  0  0  0  0  0  0  0  0  0  0  0
   45.4020   30.8870   43.9060 C   0  0  0  0  0  0  0  0  0  0  0  0
   46.0960   31.4670   42.8410 C   0  0  0  0  0  0  0  0  0  0  0  0
   47.1870   32.3270   42.9890 C   0  0  0  0  0  0  0  0  0  0  0  0
   47.5470   32.5780   44.2480 N   0  0  0  0  0  0  0  0  0  0  0  0
   46.8900   32.0280   45.3040 C   0  0  0  0  0  0  0  0  0  0  0  0
   45.8510   31.2080   45.1510 N   0  0  0  0  0  0  0  0  0  0  0  0
   44.5750   30.2380   43.6560 H   0  0  0  0  0  0  0  0  0  0  0  0
   45.7920   31.2500   41.8260 H   0  0  0  0  0  0  0  0  0  0  0  0
   47.1470   32.2030   46.3320 H   0  0  0  0  0  0  0  0  0  0  0  0
   46.2880   34.7940   42.1510 C   0  0  0  0  0  0  0  0  0  0  0  0
   45.8610   35.3980   43.3450 C   0  0  0  0  0  0  0  0  0  0  0  0
   44.5030   35.6890   43.4210 C   0  0  0  0  0  0  0  0  0  0  0  0
   43.7010   35.3720   42.3430 C   0  0  0  0  0  0  0  0  0  0  0  0
   44.1410   34.7760   41.1710 C   0  0  0  0  0  0  0  0  0  0  0  0
   45.4790   34.4930   41.1080 N   0  0  0  0  0  0  0  0  0  0  0  0
   46.5970   35.5790   44.0810 H   0  0  0  0  0  0  0  0  0  0  0  0
   44.1520   36.1490   44.3190 H   0  0  0  0  0  0  0  0  0  0  0  0
   42.6400   35.6010   42.4070 H   0  0  0  0  0  0  0  0  0  0  0  0
   43.2180   34.4820   40.0810 C   0  0  0  0  0  0  0  0  0  0  0  0
   42.4000   35.3930   39.7550 O   0  0  0  0  0  0  0  0  0  0  0  0
   42.3070   32.2450   39.7840 C   0  0  0  0  0  3  0  0  0  0  0  0
   43.0960   33.2630   39.2920 C   0  0  0  0  0  0  0  0  0  0  0  0
   43.7250   33.0610   38.0790 C   0  0  0  0  0  0  0  0  0  0  0  0
   44.3260   33.8770   37.7420 H   0  0  0  0  0  0  0  0  0  0  0  0
   43.6140   31.9090   37.3290 C   0  0  0  0  0  0  0  0  0  0  0  0
   44.1100   31.4820   36.1530 N   0  0  0  0  0  0  0  0  0  0  0  0
   44.7470   32.0370   35.5400 H   0  0  0  0  0  0  0  0  0  0  0  0
   43.6420   30.2250   35.9130 C   0  0  0  0  0  0  0  0  0  0  0  0
   43.8520   29.5900   35.0440 H   0  0  0  0  0  0  0  0  0  0  0  0
   42.8170   29.8290   36.9670 C   0  0  0  0  0  3  0  0  0  0  0  0
   42.8140   30.9070   37.8500 C   0  0  0  0  0  0  0  0  0  0  0  0
   42.1630   31.0550   39.0570 C   0  0  0  0  0  3  0  0  0  0  0  0
  1  6  1  0  0  0  0
  1  7  1  1  0  0  0
  1 19  1  0  0  0  0
  2  8  1  0  0  0  0
  2  1  1  0  0  0  0
  3 10  1  0  0  0  0
  3  2  1  0  0  0  0
  4  3  1  0  0  0  0
  4  5  1  0  0  0  0
  5 14  1  0  0  0  0
  5  6  1  0  0  0  0
  6 26  1  0  0  0  0
  6 16  1  1  0  0  0
  9  2  1  0  0  0  0
 11  3  1  0  0  0  0
 12  4  1  0  0  0  0
 13  4  1  0  0  0  0
 15  5  1  0  0  0  0
 17 22  1  0  0  0  0
 18 19  1  0  0  0  0
 18 17  2  0  0  0  0
 19 20  2  0  0  0  0
 20 21  1  0  0  0  0
 21 25  1  0  0  0  0
 22 21  2  0  0  0  0
 23 17  1  0  0  0  0
 24 18  1  0  0  0  0
 26 27  1  0  0  0  0
 27 28  2  0  0  0  0
 27 32  1  0  0  0  0
 28 33  1  0  0  0  0
 29 34  1  0  0  0  0
 29 28  1  0  0  0  0
 30 29  2  0  0  0  0
 31 30  1  0  0  0  0
 31 26  2  0  0  0  0
 35 30  1  0  0  0  0
 36 35  2  0  0  0  0
 38 37  1  0  0  0  0
 38 35  1  0  0  0  0
 39 38  2  0  0  0  0
 40 39  1  0  0  0  0
 41 47  2  0  0  0  0
 41 39  1  0  0  0  0
 42 41  1  0  0  0  0
 43 42  1  0  0  0  0
 44 42  1  0  0  0  0
 44 46  2  0  0  0  0
 45 44  1  0  0  0  0
 46 47  1  0  0  0  0
 47 48  1  0  0  0  0
 48 37  2  0  0  0  0
M  END
>  <minimizedAffinity>
-5.63234901

>  <minimizedRMSD>
0.351413488

$$$$
