
 OpenBabel03242516523D

 48 52  0  0  1  0  0  0  0  0999 V2000
   47.8240   32.8780   41.7940 C   0  0  1  0  0  0  0  0  0  0  0  0
   47.5100   32.2750   40.4990 C   0  0  0  0  0  0  0  0  0  0  0  0
   48.5530   32.8210   39.5210 C   0  0  0  0  0  0  0  0  0  0  0  0
   48.2100   34.2890   39.3170 C   0  0  0  0  0  0  0  0  0  0  0  0
   48.1510   35.0770   40.5900 C   0  0  0  0  0  0  0  0  0  0  0  0
   47.6270   34.3980   41.7830 C   0  0  1  0  0  0  0  0  0  0  0  0
   48.9410   32.7890   41.9680 H   0  0  0  0  0  0  0  0  0  0  0  0
   47.6700   31.1830   40.5480 H   0  0  0  0  0  0  0  0  0  0  0  0
   46.5090   32.5240   40.0920 H   0  0  0  0  0  0  0  0  0  0  0  0
   49.5480   32.7990   40.0170 H   0  0  0  0  0  0  0  0  0  0  0  0
   48.5150   32.3330   38.5490 H   0  0  0  0  0  0  0  0  0  0  0  0
   47.1820   34.3100   38.8930 H   0  0  0  0  0  0  0  0  0  0  0  0
   48.8890   34.7860   38.6180 H   0  0  0  0  0  0  0  0  0  0  0  0
   49.1790   35.4730   40.7740 H   0  0  0  0  0  0  0  0  0  0  0  0
   47.5420   35.9930   40.3710 H   0  0  0  0  0  0  0  0  0  0  0  0
   48.2070   34.7550   42.6870 H   0  0  0  0  0  0  0  0  0  0  0  0
   45.3680   30.9040   43.8800 C   0  0  0  0  0  0  0  0  0  0  0  0
   46.0630   31.4780   42.8130 C   0  0  0  0  0  0  0  0  0  0  0  0
   47.1680   32.3210   42.9580 C   0  0  0  0  0  0  0  0  0  0  0  0
   47.5400   32.5600   44.2150 N   0  0  0  0  0  0  0  0  0  0  0  0
   46.8820   32.0160   45.2730 C   0  0  0  0  0  0  0  0  0  0  0  0
   45.8300   31.2120   45.1240 N   0  0  0  0  0  0  0  0  0  0  0  0
   44.5290   30.2690   43.6330 H   0  0  0  0  0  0  0  0  0  0  0  0
   45.7480   31.2710   41.7990 H   0  0  0  0  0  0  0  0  0  0  0  0
   47.1500   32.1820   46.3000 H   0  0  0  0  0  0  0  0  0  0  0  0
   46.2440   34.7680   42.0870 C   0  0  0  0  0  0  0  0  0  0  0  0
   45.7940   35.3270   43.2940 C   0  0  0  0  0  0  0  0  0  0  0  0
   44.4340   35.6130   43.3550 C   0  0  0  0  0  0  0  0  0  0  0  0
   43.6530   35.3350   42.2510 C   0  0  0  0  0  0  0  0  0  0  0  0
   44.1170   34.7840   41.0660 C   0  0  0  0  0  0  0  0  0  0  0  0
   45.4570   34.5050   41.0180 N   0  0  0  0  0  0  0  0  0  0  0  0
   46.5150   35.4800   44.0510 H   0  0  0  0  0  0  0  0  0  0  0  0
   44.0650   36.0390   44.2630 H   0  0  0  0  0  0  0  0  0  0  0  0
   42.5910   35.5610   42.3020 H   0  0  0  0  0  0  0  0  0  0  0  0
   43.2150   34.5310   39.9480 C   0  0  0  0  0  0  0  0  0  0  0  0
   42.2630   35.3470   39.7770 O   0  0  0  0  0  0  0  0  0  0  0  0
   44.4580   33.1540   38.3710 C   0  0  0  0  0  0  0  0  0  0  0  0
   43.2530   33.4470   38.9740 C   0  0  0  0  0  0  0  0  0  0  0  0
   42.1560   32.6930   38.6140 C   0  0  0  0  0  0  0  0  0  0  0  0
   41.2450   32.9590   39.1070 H   0  0  0  0  0  0  0  0  0  0  0  0
   42.1840   31.6660   37.6920 C   0  0  0  0  0  0  0  0  0  0  0  0
   41.2790   30.8100   37.1860 N   0  0  0  0  0  0  0  0  0  0  0  0
   40.2690   30.7850   37.4520 H   0  0  0  0  0  0  0  0  0  0  0  0
   41.9010   29.9980   36.2870 C   0  0  0  0  0  0  0  0  0  0  0  0
   41.4530   29.1910   35.6950 H   0  0  0  0  0  0  0  0  0  0  0  0
   43.2520   30.3430   36.2100 C   0  0  0  0  0  0  0  0  0  0  0  0
   43.4080   31.3990   37.1060 C   0  0  0  0  0  0  0  0  0  0  0  0
   44.5380   32.1200   37.4280 C   0  0  0  0  0  0  0  0  0  0  0  0
  1  7  1  1  0  0  0
  1 19  1  0  0  0  0
  2  8  1  0  0  0  0
  2  1  1  0  0  0  0
  3 10  1  0  0  0  0
  3  2  1  0  0  0  0
  4  3  1  0  0  0  0
  4  5  1  0  0  0  0
  5 14  1  0  0  0  0
  5  6  1  0  0  0  0
  6  1  1  0  0  0  0
  6 26  1  0  0  0  0
  6 16  1  1  0  0  0
  9  2  1  0  0  0  0
 11  3  1  0  0  0  0
 12  4  1  0  0  0  0
 13  4  1  0  0  0  0
 15  5  1  0  0  0  0
 17 22  1  0  0  0  0
 18 19  1  0  0  0  0
 18 17  2  0  0  0  0
 19 20  2  0  0  0  0
 20 21  1  0  0  0  0
 21 25  1  0  0  0  0
 22 21  2  0  0  0  0
 23 17  1  0  0  0  0
 24 18  1  0  0  0  0
 26 27  1  0  0  0  0
 27 28  2  0  0  0  0
 27 32  1  0  0  0  0
 28 33  1  0  0  0  0
 29 34  1  0  0  0  0
 29 28  1  0  0  0  0
 30 29  2  0  0  0  0
 31 30  1  0  0  0  0
 31 26  2  0  0  0  0
 35 30  1  0  0  0  0
 36 35  2  0  0  0  0
 37 38  1  0  0  0  0
 38 35  1  0  0  0  0
 39 38  2  0  0  0  0
 39 40  1  0  0  0  0
 41 39  1  0  0  0  0
 42 43  1  0  0  0  0
 42 41  1  0  0  0  0
 44 42  1  0  0  0  0
 45 44  1  0  0  0  0
 46 44  2  0  0  0  0
 46 47  1  0  0  0  0
 47 48  1  0  0  0  0
 47 41  2  0  0  0  0
 48 37  2  0  0  0  0
M  END
>  <minimizedAffinity>
-5.86533308

>  <minimizedRMSD>
0.564929664

$$$$
