
 OpenBabel03242516523D

 48 52  0  0  1  0  0  0  0  0999 V2000
   47.8260   32.8840   41.7990 C   0  0  1  0  0  0  0  0  0  0  0  0
   47.5170   32.2940   40.4960 C   0  0  0  0  0  0  0  0  0  0  0  0
   48.5660   32.8460   39.5290 C   0  0  0  0  0  0  0  0  0  0  0  0
   48.2300   34.3170   39.3370 C   0  0  0  0  0  0  0  0  0  0  0  0
   48.1690   35.0930   40.6180 C   0  0  0  0  0  0  0  0  0  0  0  0
   47.6350   34.4040   41.8020 C   0  0  1  0  0  0  0  0  0  0  0  0
   48.9420   32.7890   41.9770 H   0  0  0  0  0  0  0  0  0  0  0  0
   47.6720   31.2020   40.5360 H   0  0  0  0  0  0  0  0  0  0  0  0
   46.5190   32.5520   40.0870 H   0  0  0  0  0  0  0  0  0  0  0  0
   49.5580   32.8150   40.0290 H   0  0  0  0  0  0  0  0  0  0  0  0
   48.5310   32.3680   38.5520 H   0  0  0  0  0  0  0  0  0  0  0  0
   47.2040   34.3460   38.9080 H   0  0  0  0  0  0  0  0  0  0  0  0
   48.9150   34.8180   38.6460 H   0  0  0  0  0  0  0  0  0  0  0  0
   49.1960   35.4830   40.8100 H   0  0  0  0  0  0  0  0  0  0  0  0
   47.5640   36.0130   40.4040 H   0  0  0  0  0  0  0  0  0  0  0  0
   48.2130   34.7500   42.7120 H   0  0  0  0  0  0  0  0  0  0  0  0
   45.3580   30.8920   43.8530 C   0  0  0  0  0  0  0  0  0  0  0  0
   46.0610   31.4740   42.7950 C   0  0  0  0  0  0  0  0  0  0  0  0
   47.1630   32.3180   42.9540 C   0  0  0  0  0  0  0  0  0  0  0  0
   47.5250   32.5510   44.2150 N   0  0  0  0  0  0  0  0  0  0  0  0
   46.8590   31.9980   45.2650 C   0  0  0  0  0  0  0  0  0  0  0  0
   45.8100   31.1940   45.1020 N   0  0  0  0  0  0  0  0  0  0  0  0
   44.5230   30.2560   43.5960 H   0  0  0  0  0  0  0  0  0  0  0  0
   45.7540   31.2730   41.7780 H   0  0  0  0  0  0  0  0  0  0  0  0
   47.1180   32.1590   46.2950 H   0  0  0  0  0  0  0  0  0  0  0  0
   46.2530   34.7780   42.1020 C   0  0  0  0  0  0  0  0  0  0  0  0
   45.8020   35.3430   43.3060 C   0  0  0  0  0  0  0  0  0  0  0  0
   44.4420   35.6310   43.3640 C   0  0  0  0  0  0  0  0  0  0  0  0
   43.6620   35.3480   42.2610 C   0  0  0  0  0  0  0  0  0  0  0  0
   44.1260   34.7890   41.0800 C   0  0  0  0  0  0  0  0  0  0  0  0
   45.4660   34.5090   41.0350 N   0  0  0  0  0  0  0  0  0  0  0  0
   46.5230   35.5010   44.0620 H   0  0  0  0  0  0  0  0  0  0  0  0
   44.0730   36.0620   44.2690 H   0  0  0  0  0  0  0  0  0  0  0  0
   42.6000   35.5750   42.3110 H   0  0  0  0  0  0  0  0  0  0  0  0
   43.2260   34.5310   39.9620 C   0  0  0  0  0  0  0  0  0  0  0  0
   42.2580   35.3320   39.8020 O   0  0  0  0  0  0  0  0  0  0  0  0
   42.1230   32.7440   38.7290 C   0  0  0  0  0  3  0  0  0  0  0  0
   43.2780   33.4560   38.9780 C   0  0  0  0  0  0  0  0  0  0  0  0
   44.4130   33.1040   38.2770 C   0  0  0  0  0  0  0  0  0  0  0  0
   45.2810   33.6830   38.5060 H   0  0  0  0  0  0  0  0  0  0  0  0
   44.4700   32.0890   37.3460 C   0  0  0  0  0  0  0  0  0  0  0  0
   45.4240   31.5680   36.5540 N   0  0  0  0  0  0  0  0  0  0  0  0
   46.4130   31.9010   36.5170 H   0  0  0  0  0  0  0  0  0  0  0  0
   44.8820   30.5540   35.8250 C   0  0  0  0  0  0  0  0  0  0  0  0
   45.3850   29.9200   35.0840 H   0  0  0  0  0  0  0  0  0  0  0  0
   43.5320   30.4150   36.1570 C   0  0  0  0  0  3  0  0  0  0  0  0
   43.2940   31.3950   37.1190 C   0  0  0  0  0  0  0  0  0  0  0  0
   42.1300   31.7040   37.7910 C   0  0  0  0  0  3  0  0  0  0  0  0
  1  6  1  0  0  0  0
  1  7  1  1  0  0  0
  1 19  1  0  0  0  0
  2  8  1  0  0  0  0
  2  1  1  0  0  0  0
  3 10  1  0  0  0  0
  3  2  1  0  0  0  0
  4  3  1  0  0  0  0
  4  5  1  0  0  0  0
  5 14  1  0  0  0  0
  5  6  1  0  0  0  0
  6 26  1  0  0  0  0
  6 16  1  1  0  0  0
  9  2  1  0  0  0  0
 11  3  1  0  0  0  0
 12  4  1  0  0  0  0
 13  4  1  0  0  0  0
 15  5  1  0  0  0  0
 17 22  1  0  0  0  0
 18 19  1  0  0  0  0
 18 17  2  0  0  0  0
 19 20  2  0  0  0  0
 20 21  1  0  0  0  0
 21 25  1  0  0  0  0
 22 21  2  0  0  0  0
 23 17  1  0  0  0  0
 24 18  1  0  0  0  0
 26 27  1  0  0  0  0
 27 28  2  0  0  0  0
 27 32  1  0  0  0  0
 28 33  1  0  0  0  0
 29 34  1  0  0  0  0
 29 28  1  0  0  0  0
 30 29  2  0  0  0  0
 31 30  1  0  0  0  0
 31 26  2  0  0  0  0
 35 30  1  0  0  0  0
 36 35  2  0  0  0  0
 37 38  1  0  0  0  0
 38 35  1  0  0  0  0
 39 40  1  0  0  0  0
 39 38  2  0  0  0  0
 41 39  1  0  0  0  0
 42 41  1  0  0  0  0
 43 42  1  0  0  0  0
 44 46  2  0  0  0  0
 44 42  1  0  0  0  0
 45 44  1  0  0  0  0
 46 47  1  0  0  0  0
 47 41  2  0  0  0  0
 47 48  1  0  0  0  0
 48 37  2  0  0  0  0
M  END
>  <minimizedAffinity>
-5.85401583

>  <minimizedRMSD>
0.846836567

$$$$
