
 OpenBabel03242516523D

 48 52  0  0  1  0  0  0  0  0999 V2000
   47.8590   32.8950   41.8440 C   0  0  1  0  0  0  0  0  0  0  0  0
   47.5440   32.2930   40.5480 C   0  0  0  0  0  0  0  0  0  0  0  0
   48.5890   32.8380   39.5710 C   0  0  0  0  0  0  0  0  0  0  0  0
   48.2490   34.3070   39.3680 C   0  0  0  0  0  0  0  0  0  0  0  0
   48.1920   35.0940   40.6420 C   0  0  0  0  0  0  0  0  0  0  0  0
   47.6650   34.4150   41.8340 C   0  0  1  0  0  0  0  0  0  0  0  0
   48.9750   32.8030   42.0190 H   0  0  0  0  0  0  0  0  0  0  0  0
   47.7010   31.2010   40.5970 H   0  0  0  0  0  0  0  0  0  0  0  0
   46.5440   32.5450   40.1410 H   0  0  0  0  0  0  0  0  0  0  0  0
   49.5830   32.8120   40.0670 H   0  0  0  0  0  0  0  0  0  0  0  0
   48.5490   32.3510   38.5980 H   0  0  0  0  0  0  0  0  0  0  0  0
   47.2210   34.3300   38.9430 H   0  0  0  0  0  0  0  0  0  0  0  0
   48.9300   34.8020   38.6690 H   0  0  0  0  0  0  0  0  0  0  0  0
   49.2200   35.4870   40.8270 H   0  0  0  0  0  0  0  0  0  0  0  0
   47.5850   36.0110   40.4230 H   0  0  0  0  0  0  0  0  0  0  0  0
   48.2470   34.7700   42.7390 H   0  0  0  0  0  0  0  0  0  0  0  0
   45.4190   30.8970   43.9270 C   0  0  0  0  0  0  0  0  0  0  0  0
   46.1150   31.4720   42.8600 C   0  0  0  0  0  0  0  0  0  0  0  0
   47.2010   32.3380   43.0070 C   0  0  0  0  0  0  0  0  0  0  0  0
   47.5540   32.6000   44.2650 N   0  0  0  0  0  0  0  0  0  0  0  0
   46.8950   32.0550   45.3230 C   0  0  0  0  0  0  0  0  0  0  0  0
   45.8610   31.2290   45.1710 N   0  0  0  0  0  0  0  0  0  0  0  0
   44.5950   30.2420   43.6780 H   0  0  0  0  0  0  0  0  0  0  0  0
   45.8150   31.2470   41.8460 H   0  0  0  0  0  0  0  0  0  0  0  0
   47.1470   32.2390   46.3500 H   0  0  0  0  0  0  0  0  0  0  0  0
   46.2840   34.7890   42.1380 C   0  0  0  0  0  0  0  0  0  0  0  0
   45.8440   35.4040   43.3220 C   0  0  0  0  0  0  0  0  0  0  0  0
   44.4830   35.6820   43.3860 C   0  0  0  0  0  0  0  0  0  0  0  0
   43.6900   35.3420   42.3080 C   0  0  0  0  0  0  0  0  0  0  0  0
   44.1430   34.7350   41.1470 C   0  0  0  0  0  0  0  0  0  0  0  0
   45.4850   34.4650   41.0950 N   0  0  0  0  0  0  0  0  0  0  0  0
   46.5750   35.6010   44.0590 H   0  0  0  0  0  0  0  0  0  0  0  0
   44.1220   36.1500   44.2760 H   0  0  0  0  0  0  0  0  0  0  0  0
   42.6270   35.5620   42.3630 H   0  0  0  0  0  0  0  0  0  0  0  0
   43.2290   34.4190   40.0550 C   0  0  0  0  0  0  0  0  0  0  0  0
   42.5500   35.3740   39.5740 O   0  0  0  0  0  0  0  0  0  0  0  0
   42.5090   32.0980   40.2060 C   0  0  0  0  0  3  0  0  0  0  0  0
   42.9780   33.1310   39.4200 C   0  0  0  0  0  0  0  0  0  0  0  0
   43.1810   32.8760   38.0790 C   0  0  0  0  0  0  0  0  0  0  0  0
   43.5460   33.7060   37.5140 H   0  0  0  0  0  0  0  0  0  0  0  0
   42.9450   31.6610   37.4730 C   0  0  0  0  0  0  0  0  0  0  0  0
   43.0610   31.1760   36.2230 N   0  0  0  0  0  0  0  0  0  0  0  0
   43.3940   31.7270   35.4010 H   0  0  0  0  0  0  0  0  0  0  0  0
   42.6740   29.8710   36.2240 C   0  0  0  0  0  0  0  0  0  0  0  0
   42.6460   29.1830   35.3710 H   0  0  0  0  0  0  0  0  0  0  0  0
   42.2960   29.5000   37.5160 C   0  0  0  0  0  3  0  0  0  0  0  0
   42.4760   30.6460   38.2880 C   0  0  0  0  0  0  0  0  0  0  0  0
   42.2550   30.8440   39.6350 C   0  0  0  0  0  3  0  0  0  0  0  0
  1  7  1  1  0  0  0
  1 19  1  0  0  0  0
  2  8  1  0  0  0  0
  2  1  1  0  0  0  0
  3 10  1  0  0  0  0
  3  2  1  0  0  0  0
  4  3  1  0  0  0  0
  4  5  1  0  0  0  0
  5 14  1  0  0  0  0
  5  6  1  0  0  0  0
  6  1  1  0  0  0  0
  6 26  1  0  0  0  0
  6 16  1  1  0  0  0
  9  2  1  0  0  0  0
 11  3  1  0  0  0  0
 12  4  1  0  0  0  0
 13  4  1  0  0  0  0
 15  5  1  0  0  0  0
 17 22  1  0  0  0  0
 18 19  1  0  0  0  0
 18 17  2  0  0  0  0
 19 20  2  0  0  0  0
 20 21  1  0  0  0  0
 21 25  1  0  0  0  0
 22 21  2  0  0  0  0
 23 17  1  0  0  0  0
 24 18  1  0  0  0  0
 26 27  1  0  0  0  0
 27 28  2  0  0  0  0
 27 32  1  0  0  0  0
 28 33  1  0  0  0  0
 29 34  1  0  0  0  0
 29 28  1  0  0  0  0
 30 29  2  0  0  0  0
 31 30  1  0  0  0  0
 31 26  2  0  0  0  0
 35 30  1  0  0  0  0
 36 35  2  0  0  0  0
 38 35  1  0  0  0  0
 38 37  2  0  0  0  0
 39 38  1  0  0  0  0
 40 39  1  0  0  0  0
 41 39  2  0  0  0  0
 41 47  1  0  0  0  0
 42 44  1  0  0  0  0
 42 41  1  0  0  0  0
 43 42  1  0  0  0  0
 44 46  2  0  0  0  0
 45 44  1  0  0  0  0
 46 47  1  0  0  0  0
 47 48  2  0  0  0  0
 48 37  1  0  0  0  0
M  END
>  <minimizedAffinity>
-5.6007328

>  <minimizedRMSD>
0.435630471

$$$$
