
 OpenBabel03252507173D

 32 35  0  0  0  0  0  0  0  0999 V2000
   40.4000   33.7030   39.6700 C   0  0  0  0  0  0  0  0  0  0  0  0
   39.5330   32.6540   39.3050 C   0  0  0  0  0  0  0  0  0  0  0  0
   39.7670   31.9910   38.1150 C   0  0  0  0  0  0  0  0  0  0  0  0
   40.8070   32.3690   37.3560 N   0  0  0  0  0  0  0  0  0  0  0  0
   41.6500   33.3820   37.7040 C   0  0  0  0  0  0  0  0  0  0  0  0
   41.4230   34.0250   38.8570 N   0  0  0  0  0  0  0  0  0  0  0  0
   40.2750   34.2650   40.5870 H   0  0  0  0  0  0  0  0  0  0  0  0
   42.4230   33.5340   36.9620 H   0  0  0  0  0  0  0  0  0  0  0  0
   38.8770   30.9080   37.7300 C   0  0  0  0  0  0  0  0  0  0  0  0
   37.6910   31.1650   37.0940 C   0  0  0  0  0  0  0  0  0  0  0  0
   36.8690   30.1260   36.7410 C   0  0  0  0  0  0  0  0  0  0  0  0
   37.2010   28.7890   37.0100 C   0  0  0  0  0  0  0  0  0  0  0  0
   38.4040   28.5850   37.6500 C   0  0  0  0  0  0  0  0  0  0  0  0
   39.1950   29.6220   37.9880 N   0  0  0  0  0  0  0  0  0  0  0  0
   37.3640   32.1520   36.8540 H   0  0  0  0  0  0  0  0  0  0  0  0
   35.9120   30.2380   36.2350 H   0  0  0  0  0  0  0  0  0  0  0  0
   36.6340   27.8990   36.7800 H   0  0  0  0  0  0  0  0  0  0  0  0
   38.8510   27.6280   37.9510 H   0  0  0  0  0  0  0  0  0  0  0  0
   38.4410   32.3080   40.1690 C   0  0  0  0  0  0  0  0  0  0  0  0
   37.4000   33.0420   40.1080 O   0  0  0  0  0  0  0  0  0  0  0  0
   39.4300   30.9410   41.9910 C   0  0  0  0  0  3  0  0  0  0  0  0
   38.3950   31.2010   41.1150 C   0  0  0  0  0  0  0  0  0  0  0  0
   37.2400   30.4150   41.0780 C   0  0  0  0  0  0  0  0  0  0  0  0
   36.4250   30.6130   40.3930 H   0  0  0  0  0  0  0  0  0  0  0  0
   37.1650   29.3420   41.9680 C   0  0  0  0  0  0  0  0  0  0  0  0
   36.1860   28.4130   42.1660 N   0  0  0  0  0  0  0  0  0  0  0  0
   35.2680   28.3230   41.6700 H   0  0  0  0  0  0  0  0  0  0  0  0
   36.6010   27.5810   43.1520 C   0  0  0  0  0  0  0  0  0  0  0  0
   36.0410   26.7380   43.5380 H   0  0  0  0  0  0  0  0  0  0  0  0
   37.8680   27.9780   43.5990 C   0  0  0  0  0  3  0  0  0  0  0  0
   38.2230   29.1000   42.8410 C   0  0  0  0  0  0  0  0  0  0  0  0
   39.3630   29.8860   42.8700 C   0  0  0  0  0  3  0  0  0  0  0  0
  1  7  1  0  0  0  0
  2  1  1  0  0  0  0
  2 19  1  0  0  0  0
  3  2  2  0  0  0  0
  4  5  2  0  0  0  0
  4  3  1  0  0  0  0
  5  6  1  0  0  0  0
  6  1  2  0  0  0  0
  8  5  1  0  0  0  0
  9 14  1  0  0  0  0
  9  3  1  0  0  0  0
 10  9  2  0  0  0  0
 11 12  2  0  0  0  0
 11 10  1  0  0  0  0
 12 13  1  0  0  0  0
 13 18  1  0  0  0  0
 13 14  2  0  0  0  0
 15 10  1  0  0  0  0
 16 11  1  0  0  0  0
 17 12  1  0  0  0  0
 19 22  1  0  0  0  0
 20 19  2  0  0  0  0
 21 32  1  0  0  0  0
 22 21  2  0  0  0  0
 23 22  1  0  0  0  0
 23 25  2  0  0  0  0
 24 23  1  0  0  0  0
 25 26  1  0  0  0  0
 25 31  1  0  0  0  0
 26 28  1  0  0  0  0
 27 26  1  0  0  0  0
 28 29  1  0  0  0  0
 28 30  2  0  0  0  0
 31 32  2  0  0  0  0
 31 30  1  0  0  0  0
M  END
>  <minimizedAffinity>
-6.10601282

$$$$

 OpenBabel03252507173D

 32 35  0  0  0  0  0  0  0  0999 V2000
   38.8140   32.2170   40.6340 C   0  0  0  0  0  0  0  0  0  0  0  0
   38.1750   30.9960   40.9290 C   0  0  0  0  0  0  0  0  0  0  0  0
   38.8880   30.0310   41.6150 C   0  0  0  0  0  0  0  0  0  0  0  0
   40.1550   30.2910   41.9730 N   0  0  0  0  0  0  0  0  0  0  0  0
   40.7780   31.4710   41.6910 C   0  0  0  0  0  0  0  0  0  0  0  0
   40.0870   32.4060   41.0260 N   0  0  0  0  0  0  0  0  0  0  0  0
   38.3160   33.0170   40.0990 H   0  0  0  0  0  0  0  0  0  0  0  0
   41.7940   31.4860   42.0610 H   0  0  0  0  0  0  0  0  0  0  0  0
   38.2370   28.7680   41.9240 C   0  0  0  0  0  0  0  0  0  0  0  0
   37.5210   28.6120   43.0820 C   0  0  0  0  0  0  0  0  0  0  0  0
   36.9150   27.4100   43.3490 C   0  0  0  0  0  0  0  0  0  0  0  0
   37.0010   26.3200   42.4700 C   0  0  0  0  0  0  0  0  0  0  0  0
   37.7310   26.5310   41.3210 C   0  0  0  0  0  0  0  0  0  0  0  0
   38.3180   27.7190   41.0800 N   0  0  0  0  0  0  0  0  0  0  0  0
   37.4070   29.3890   43.8030 H   0  0  0  0  0  0  0  0  0  0  0  0
   36.3290   27.1980   44.2420 H   0  0  0  0  0  0  0  0  0  0  0  0
   36.5690   25.3370   42.5790 H   0  0  0  0  0  0  0  0  0  0  0  0
   37.9230   25.8190   40.5060 H   0  0  0  0  0  0  0  0  0  0  0  0
   36.8170   30.7910   40.5130 C   0  0  0  0  0  0  0  0  0  0  0  0
   35.9030   31.1970   41.3030 O   0  0  0  0  0  0  0  0  0  0  0  0
   35.3360   29.2530   39.2480 C   0  0  0  0  0  3  0  0  0  0  0  0
   36.3710   30.1650   39.2760 C   0  0  0  0  0  0  0  0  0  0  0  0
   37.0590   30.5420   38.1190 C   0  0  0  0  0  0  0  0  0  0  0  0
   37.8720   31.2570   38.1350 H   0  0  0  0  0  0  0  0  0  0  0  0
   36.6590   29.9580   36.9150 C   0  0  0  0  0  0  0  0  0  0  0  0
   37.1290   30.1210   35.6460 N   0  0  0  0  0  0  0  0  0  0  0  0
   37.9070   30.7390   35.3160 H   0  0  0  0  0  0  0  0  0  0  0  0
   36.3980   29.3210   34.8310 C   0  0  0  0  0  0  0  0  0  0  0  0
   36.5300   29.2290   33.7590 H   0  0  0  0  0  0  0  0  0  0  0  0
   35.4410   28.6300   35.5860 C   0  0  0  0  0  3  0  0  0  0  0  0
   35.6130   29.0390   36.9130 C   0  0  0  0  0  0  0  0  0  0  0  0
   34.9370   28.6730   38.0660 C   0  0  0  0  0  3  0  0  0  0  0  0
  1  2  2  0  0  0  0
  1  6  1  0  0  0  0
  2  3  1  0  0  0  0
  3  9  1  0  0  0  0
  3  4  2  0  0  0  0
  5  4  1  0  0  0  0
  5  8  1  0  0  0  0
  6  5  2  0  0  0  0
  7  1  1  0  0  0  0
  9 10  1  0  0  0  0
 10 11  2  0  0  0  0
 10 15  1  0  0  0  0
 11 16  1  0  0  0  0
 12 17  1  0  0  0  0
 12 11  1  0  0  0  0
 13 12  2  0  0  0  0
 14 13  1  0  0  0  0
 14  9  2  0  0  0  0
 18 13  1  0  0  0  0
 19  2  1  0  0  0  0
 19 20  2  0  0  0  0
 21 22  1  0  0  0  0
 22 19  1  0  0  0  0
 23 24  1  0  0  0  0
 23 22  2  0  0  0  0
 25 23  1  0  0  0  0
 26 25  1  0  0  0  0
 27 26  1  0  0  0  0
 28 30  2  0  0  0  0
 28 26  1  0  0  0  0
 29 28  1  0  0  0  0
 30 31  1  0  0  0  0
 31 25  2  0  0  0  0
 31 32  1  0  0  0  0
 32 21  2  0  0  0  0
M  END
>  <minimizedAffinity>
-5.85909796

$$$$

 OpenBabel03252507173D

 32 35  0  0  0  0  0  0  0  0999 V2000
   35.4490   27.5700   38.0370 C   0  0  0  0  0  0  0  0  0  0  0  0
   36.0560   27.8820   39.2700 C   0  0  0  0  0  0  0  0  0  0  0  0
   36.6650   26.8630   39.9780 C   0  0  0  0  0  0  0  0  0  0  0  0
   36.6540   25.6220   39.4690 N   0  0  0  0  0  0  0  0  0  0  0  0
   36.0680   25.3140   38.2770 C   0  0  0  0  0  0  0  0  0  0  0  0
   35.4790   26.3010   37.5900 N   0  0  0  0  0  0  0  0  0  0  0  0
   34.9540   28.3190   37.4300 H   0  0  0  0  0  0  0  0  0  0  0  0
   36.1650   24.2630   38.0410 H   0  0  0  0  0  0  0  0  0  0  0  0
   37.2940   27.1750   41.2520 C   0  0  0  0  0  0  0  0  0  0  0  0
   36.5470   27.2970   42.3940 C   0  0  0  0  0  0  0  0  0  0  0  0
   37.1650   27.5910   43.5820 C   0  0  0  0  0  0  0  0  0  0  0  0
   38.5530   27.7750   43.6750 C   0  0  0  0  0  0  0  0  0  0  0  0
   39.2570   27.6410   42.4980 C   0  0  0  0  0  0  0  0  0  0  0  0
   38.6290   27.3520   41.3420 N   0  0  0  0  0  0  0  0  0  0  0  0
   35.4870   27.1730   42.4100 H   0  0  0  0  0  0  0  0  0  0  0  0
   36.6510   27.7060   44.5340 H   0  0  0  0  0  0  0  0  0  0  0  0
   39.1410   28.0090   44.5500 H   0  0  0  0  0  0  0  0  0  0  0  0
   40.3410   27.7430   42.3480 H   0  0  0  0  0  0  0  0  0  0  0  0
   36.0260   29.2340   39.7500 C   0  0  0  0  0  0  0  0  0  0  0  0
   34.9940   29.5910   40.4070 O   0  0  0  0  0  0  0  0  0  0  0  0
   38.0810   30.0940   38.6530 C   0  0  0  0  0  3  0  0  0  0  0  0
   37.0560   30.2470   39.5650 C   0  0  0  0  0  0  0  0  0  0  0  0
   36.9450   31.3830   40.3720 C   0  0  0  0  0  0  0  0  0  0  0  0
   36.1440   31.5080   41.0900 H   0  0  0  0  0  0  0  0  0  0  0  0
   37.9190   32.3730   40.2240 C   0  0  0  0  0  0  0  0  0  0  0  0
   38.0770   33.5700   40.8570 N   0  0  0  0  0  0  0  0  0  0  0  0
   37.4760   33.9940   41.6030 H   0  0  0  0  0  0  0  0  0  0  0  0
   39.1860   34.1610   40.3490 C   0  0  0  0  0  0  0  0  0  0  0  0
   39.5750   35.1270   40.6490 H   0  0  0  0  0  0  0  0  0  0  0  0
   39.7540   33.3330   39.3730 C   0  0  0  0  0  3  0  0  0  0  0  0
   38.9430   32.1950   39.2980 C   0  0  0  0  0  0  0  0  0  0  0  0
   39.0430   31.0640   38.5020 C   0  0  0  0  0  3  0  0  0  0  0  0
  1  2  1  0  0  0  0
  2 19  1  0  0  0  0
  2  3  2  0  0  0  0
  3  9  1  0  0  0  0
  4  3  1  0  0  0  0
  5  4  2  0  0  0  0
  6  1  2  0  0  0  0
  6  5  1  0  0  0  0
  7  1  1  0  0  0  0
  8  5  1  0  0  0  0
  9 14  2  0  0  0  0
  9 10  1  0  0  0  0
 10 15  1  0  0  0  0
 10 11  2  0  0  0  0
 11 12  1  0  0  0  0
 11 16  1  0  0  0  0
 12 17  1  0  0  0  0
 13 12  2  0  0  0  0
 14 13  1  0  0  0  0
 18 13  1  0  0  0  0
 19 20  2  0  0  0  0
 21 22  1  0  0  0  0
 22 19  1  0  0  0  0
 22 23  2  0  0  0  0
 23 24  1  0  0  0  0
 25 23  1  0  0  0  0
 25 26  1  0  0  0  0
 26 27  1  0  0  0  0
 28 29  1  0  0  0  0
 28 26  1  0  0  0  0
 30 28  2  0  0  0  0
 31 30  1  0  0  0  0
 31 25  2  0  0  0  0
 32 21  2  0  0  0  0
 32 31  1  0  0  0  0
M  END
>  <minimizedAffinity>
-5.75396156

$$$$

 OpenBabel03252507173D

 32 35  0  0  0  0  0  0  0  0999 V2000
   37.3830   25.0110   42.2360 C   0  0  0  0  0  0  0  0  0  0  0  0
   37.3300   26.3680   41.8590 C   0  0  0  0  0  0  0  0  0  0  0  0
   36.8580   26.6820   40.5980 C   0  0  0  0  0  0  0  0  0  0  0  0
   36.4690   25.6880   39.7850 N   0  0  0  0  0  0  0  0  0  0  0  0
   36.5170   24.3740   40.1440 C   0  0  0  0  0  0  0  0  0  0  0  0
   36.9750   24.0700   41.3650 N   0  0  0  0  0  0  0  0  0  0  0  0
   37.7420   24.6930   43.2070 H   0  0  0  0  0  0  0  0  0  0  0  0
   36.1610   23.7280   39.3520 H   0  0  0  0  0  0  0  0  0  0  0  0
   36.8010   28.0790   40.2010 C   0  0  0  0  0  0  0  0  0  0  0  0
   35.7650   28.8820   40.6020 C   0  0  0  0  0  0  0  0  0  0  0  0
   35.7350   30.1970   40.2140 C   0  0  0  0  0  0  0  0  0  0  0  0
   36.7390   30.7610   39.4120 C   0  0  0  0  0  0  0  0  0  0  0  0
   37.7580   29.9120   39.0380 C   0  0  0  0  0  0  0  0  0  0  0  0
   37.7660   28.6230   39.4300 N   0  0  0  0  0  0  0  0  0  0  0  0
   34.9620   28.5320   41.2110 H   0  0  0  0  0  0  0  0  0  0  0  0
   34.9530   30.9040   40.4850 H   0  0  0  0  0  0  0  0  0  0  0  0
   36.8160   31.7750   39.0490 H   0  0  0  0  0  0  0  0  0  0  0  0
   38.6340   30.1450   38.4180 H   0  0  0  0  0  0  0  0  0  0  0  0
   37.7650   27.3750   42.7840 C   0  0  0  0  0  0  0  0  0  0  0  0
   36.9320   27.7360   43.6790 O   0  0  0  0  0  0  0  0  0  0  0  0
   40.2400   27.3270   42.9760 C   0  0  0  0  0  3  0  0  0  0  0  0
   39.0650   28.0310   42.8090 C   0  0  0  0  0  0  0  0  0  0  0  0
   39.0490   29.4220   42.6590 C   0  0  0  0  0  0  0  0  0  0  0  0
   38.1300   29.9800   42.5290 H   0  0  0  0  0  0  0  0  0  0  0  0
   40.2770   30.0840   42.6830 C   0  0  0  0  0  0  0  0  0  0  0  0
   40.5790   31.4090   42.5650 N   0  0  0  0  0  0  0  0  0  0  0  0
   39.9230   32.2140   42.4270 H   0  0  0  0  0  0  0  0  0  0  0  0
   41.9250   31.5340   42.6560 C   0  0  0  0  0  0  0  0  0  0  0  0
   42.4730   32.4670   42.5980 H   0  0  0  0  0  0  0  0  0  0  0  0
   42.5030   30.2710   42.8360 C   0  0  0  0  0  3  0  0  0  0  0  0
   41.4490   29.3510   42.8530 C   0  0  0  0  0  0  0  0  0  0  0  0
   41.4540   27.9730   43.0010 C   0  0  0  0  0  3  0  0  0  0  0  0
  1  7  1  0  0  0  0
  2  1  1  0  0  0  0
  2 19  1  0  0  0  0
  3  2  2  0  0  0  0
  4  5  2  0  0  0  0
  4  3  1  0  0  0  0
  5  6  1  0  0  0  0
  6  1  2  0  0  0  0
  8  5  1  0  0  0  0
  9  3  1  0  0  0  0
  9 10  1  0  0  0  0
 10 15  1  0  0  0  0
 11 16  1  0  0  0  0
 11 10  2  0  0  0  0
 12 11  1  0  0  0  0
 13 12  2  0  0  0  0
 13 14  1  0  0  0  0
 14  9  2  0  0  0  0
 17 12  1  0  0  0  0
 18 13  1  0  0  0  0
 19 22  1  0  0  0  0
 19 20  2  0  0  0  0
 21 32  1  0  0  0  0
 22 21  2  0  0  0  0
 23 25  2  0  0  0  0
 23 22  1  0  0  0  0
 24 23  1  0  0  0  0
 25 31  1  0  0  0  0
 26 28  1  0  0  0  0
 26 25  1  0  0  0  0
 27 26  1  0  0  0  0
 28 30  2  0  0  0  0
 29 28  1  0  0  0  0
 30 31  1  0  0  0  0
 31 32  2  0  0  0  0
M  END
>  <minimizedAffinity>
-5.75386429

$$$$

 OpenBabel03252507173D

 32 35  0  0  0  0  0  0  0  0999 V2000
   36.6410   31.3650   40.6760 C   0  0  0  0  0  0  0  0  0  0  0  0
   36.4950   30.3660   39.6930 C   0  0  0  0  0  0  0  0  0  0  0  0
   37.0740   30.5740   38.4550 C   0  0  0  0  0  0  0  0  0  0  0  0
   37.7510   31.7110   38.2380 N   0  0  0  0  0  0  0  0  0  0  0  0
   37.8970   32.6800   39.1860 C   0  0  0  0  0  0  0  0  0  0  0  0
   37.3350   32.4800   40.3850 N   0  0  0  0  0  0  0  0  0  0  0  0
   36.2130   31.2690   41.6670 H   0  0  0  0  0  0  0  0  0  0  0  0
   38.4740   33.5180   38.8170 H   0  0  0  0  0  0  0  0  0  0  0  0
   36.9280   29.5480   37.4340 C   0  0  0  0  0  0  0  0  0  0  0  0
   37.9560   28.6870   37.1510 C   0  0  0  0  0  0  0  0  0  0  0  0
   37.7920   27.7280   36.1840 C   0  0  0  0  0  0  0  0  0  0  0  0
   36.5950   27.5930   35.4640 C   0  0  0  0  0  0  0  0  0  0  0  0
   35.5940   28.4830   35.7880 C   0  0  0  0  0  0  0  0  0  0  0  0
   35.7780   29.4170   36.7410 N   0  0  0  0  0  0  0  0  0  0  0  0
   38.8970   28.7230   37.6510 H   0  0  0  0  0  0  0  0  0  0  0  0
   38.5530   27.0060   35.8950 H   0  0  0  0  0  0  0  0  0  0  0  0
   36.3580   26.8810   34.6870 H   0  0  0  0  0  0  0  0  0  0  0  0
   34.5890   28.5510   35.3520 H   0  0  0  0  0  0  0  0  0  0  0  0
   35.7550   29.1760   40.0000 C   0  0  0  0  0  0  0  0  0  0  0  0
   34.5250   29.1560   39.6630 O   0  0  0  0  0  0  0  0  0  0  0  0
   36.5570   27.9550   42.0080 C   0  0  0  0  0  3  0  0  0  0  0  0
   36.2630   27.9810   40.6600 C   0  0  0  0  0  0  0  0  0  0  0  0
   36.4380   26.8610   39.8410 C   0  0  0  0  0  0  0  0  0  0  0  0
   36.2100   26.8750   38.7830 H   0  0  0  0  0  0  0  0  0  0  0  0
   36.9280   25.6980   40.4400 C   0  0  0  0  0  0  0  0  0  0  0  0
   37.2000   24.4700   39.9140 N   0  0  0  0  0  0  0  0  0  0  0  0
   37.0890   24.1500   38.9230 H   0  0  0  0  0  0  0  0  0  0  0  0
   37.6580   23.6850   40.9190 C   0  0  0  0  0  0  0  0  0  0  0  0
   37.9600   22.6490   40.8170 H   0  0  0  0  0  0  0  0  0  0  0  0
   37.6840   24.4160   42.1130 C   0  0  0  0  0  3  0  0  0  0  0  0
   37.2180   25.6990   41.8020 C   0  0  0  0  0  0  0  0  0  0  0  0
   37.0400   26.8150   42.6050 C   0  0  0  0  0  3  0  0  0  0  0  0
  1  7  1  0  0  0  0
  2 19  1  0  0  0  0
  2  1  2  0  0  0  0
  3  2  1  0  0  0  0
  4  3  2  0  0  0  0
  4  5  1  0  0  0  0
  5  6  2  0  0  0  0
  6  1  1  0  0  0  0
  8  5  1  0  0  0  0
  9  3  1  0  0  0  0
 10  9  1  0  0  0  0
 10 15  1  0  0  0  0
 11 10  2  0  0  0  0
 12 13  2  0  0  0  0
 12 11  1  0  0  0  0
 13 14  1  0  0  0  0
 14  9  2  0  0  0  0
 16 11  1  0  0  0  0
 17 12  1  0  0  0  0
 18 13  1  0  0  0  0
 19 22  1  0  0  0  0
 20 19  2  0  0  0  0
 21 32  1  0  0  0  0
 22 21  2  0  0  0  0
 23 25  2  0  0  0  0
 23 22  1  0  0  0  0
 24 23  1  0  0  0  0
 25 31  1  0  0  0  0
 26 25  1  0  0  0  0
 26 28  1  0  0  0  0
 27 26  1  0  0  0  0
 28 30  2  0  0  0  0
 29 28  1  0  0  0  0
 31 30  1  0  0  0  0
 31 32  2  0  0  0  0
M  END
>  <minimizedAffinity>
-5.73398352

$$$$

 OpenBabel03252507173D

 32 35  0  0  0  0  0  0  0  0999 V2000
   37.3920   26.9000   41.3530 C   0  0  0  0  0  0  0  0  0  0  0  0
   37.7300   28.1710   40.8470 C   0  0  0  0  0  0  0  0  0  0  0  0
   37.6810   29.2540   41.7050 C   0  0  0  0  0  0  0  0  0  0  0  0
   37.3170   29.0550   42.9810 N   0  0  0  0  0  0  0  0  0  0  0  0
   36.9890   27.8280   43.4760 C   0  0  0  0  0  0  0  0  0  0  0  0
   37.0360   26.7790   42.6440 N   0  0  0  0  0  0  0  0  0  0  0  0
   37.4080   26.0090   40.7370 H   0  0  0  0  0  0  0  0  0  0  0  0
   36.7230   27.8760   44.5230 H   0  0  0  0  0  0  0  0  0  0  0  0
   38.0290   30.5700   41.1920 C   0  0  0  0  0  0  0  0  0  0  0  0
   37.0700   31.3920   40.6600 C   0  0  0  0  0  0  0  0  0  0  0  0
   37.4230   32.6280   40.1830 C   0  0  0  0  0  0  0  0  0  0  0  0
   38.7480   33.0900   40.2200 C   0  0  0  0  0  0  0  0  0  0  0  0
   39.6710   32.2260   40.7650 C   0  0  0  0  0  0  0  0  0  0  0  0
   39.3010   31.0160   41.2260 N   0  0  0  0  0  0  0  0  0  0  0  0
   36.0410   31.1160   40.5940 H   0  0  0  0  0  0  0  0  0  0  0  0
   36.7290   33.3430   39.7450 H   0  0  0  0  0  0  0  0  0  0  0  0
   39.1360   34.0370   39.8750 H   0  0  0  0  0  0  0  0  0  0  0  0
   40.7510   32.3870   40.8900 H   0  0  0  0  0  0  0  0  0  0  0  0
   38.1100   28.3050   39.4700 C   0  0  0  0  0  0  0  0  0  0  0  0
   39.3470   28.1600   39.1950 O   0  0  0  0  0  0  0  0  0  0  0  0
   35.8810   28.8390   38.5160 C   0  0  0  0  0  3  0  0  0  0  0  0
   37.2290   28.5900   38.3470 C   0  0  0  0  0  0  0  0  0  0  0  0
   37.8300   28.5910   37.0840 C   0  0  0  0  0  0  0  0  0  0  0  0
   38.8860   28.3950   36.9450 H   0  0  0  0  0  0  0  0  0  0  0  0
   37.0120   28.8570   35.9840 C   0  0  0  0  0  0  0  0  0  0  0  0
   37.3020   28.9250   34.6530 N   0  0  0  0  0  0  0  0  0  0  0  0
   38.2280   28.7870   34.1830 H   0  0  0  0  0  0  0  0  0  0  0  0
   36.1520   29.2140   33.9960 C   0  0  0  0  0  0  0  0  0  0  0  0
   36.0570   29.3350   32.9230 H   0  0  0  0  0  0  0  0  0  0  0  0
   35.1030   29.3330   34.9160 C   0  0  0  0  0  3  0  0  0  0  0  0
   35.6560   29.1040   36.1810 C   0  0  0  0  0  0  0  0  0  0  0  0
   35.0700   29.1010   37.4370 C   0  0  0  0  0  3  0  0  0  0  0  0
  1  6  1  0  0  0  0
  2  1  2  0  0  0  0
  2  3  1  0  0  0  0
  3  4  2  0  0  0  0
  4  5  1  0  0  0  0
  5  8  1  0  0  0  0
  6  5  2  0  0  0  0
  7  1  1  0  0  0  0
  9 14  1  0  0  0  0
  9  3  1  0  0  0  0
 10  9  2  0  0  0  0
 11 12  2  0  0  0  0
 11 10  1  0  0  0  0
 12 13  1  0  0  0  0
 13 18  1  0  0  0  0
 13 14  2  0  0  0  0
 15 10  1  0  0  0  0
 16 11  1  0  0  0  0
 17 12  1  0  0  0  0
 19  2  1  0  0  0  0
 20 19  2  0  0  0  0
 22 21  1  0  0  0  0
 22 19  1  0  0  0  0
 23 22  2  0  0  0  0
 24 23  1  0  0  0  0
 25 31  2  0  0  0  0
 25 23  1  0  0  0  0
 26 25  1  0  0  0  0
 27 26  1  0  0  0  0
 28 26  1  0  0  0  0
 28 30  2  0  0  0  0
 29 28  1  0  0  0  0
 30 31  1  0  0  0  0
 31 32  1  0  0  0  0
 32 21  2  0  0  0  0
M  END
>  <minimizedAffinity>
-5.72081375

$$$$

 OpenBabel03252507173D

 32 35  0  0  0  0  0  0  0  0999 V2000
   35.6120   28.7980   37.9430 C   0  0  0  0  0  0  0  0  0  0  0  0
   36.2940   28.8130   39.1750 C   0  0  0  0  0  0  0  0  0  0  0  0
   36.5780   27.6050   39.7850 C   0  0  0  0  0  0  0  0  0  0  0  0
   36.1950   26.4690   39.1820 N   0  0  0  0  0  0  0  0  0  0  0  0
   35.5360   26.4480   37.9890 C   0  0  0  0  0  0  0  0  0  0  0  0
   35.2610   27.6180   37.3990 N   0  0  0  0  0  0  0  0  0  0  0  0
   35.3570   29.7060   37.4100 H   0  0  0  0  0  0  0  0  0  0  0  0
   35.3150   25.4380   37.6710 H   0  0  0  0  0  0  0  0  0  0  0  0
   37.2810   27.6120   41.0580 C   0  0  0  0  0  0  0  0  0  0  0  0
   36.5990   27.7670   42.2360 C   0  0  0  0  0  0  0  0  0  0  0  0
   37.2860   27.7700   43.4230 C   0  0  0  0  0  0  0  0  0  0  0  0
   38.6800   27.6160   43.4780 C   0  0  0  0  0  0  0  0  0  0  0  0
   39.3160   27.4630   42.2660 C   0  0  0  0  0  0  0  0  0  0  0  0
   38.6210   27.4650   41.1120 N   0  0  0  0  0  0  0  0  0  0  0  0
   35.5400   27.8910   42.2820 H   0  0  0  0  0  0  0  0  0  0  0  0
   36.8270   27.8870   44.4030 H   0  0  0  0  0  0  0  0  0  0  0  0
   39.3180   27.6040   44.3490 H   0  0  0  0  0  0  0  0  0  0  0  0
   40.3910   27.3290   42.0830 H   0  0  0  0  0  0  0  0  0  0  0  0
   36.6700   30.0700   39.7580 C   0  0  0  0  0  0  0  0  0  0  0  0
   35.7970   30.6570   40.4780 O   0  0  0  0  0  0  0  0  0  0  0  0
   38.7780   30.9910   40.6910 C   0  0  0  0  0  3  0  0  0  0  0  0
   37.9500   30.7480   39.6140 C   0  0  0  0  0  0  0  0  0  0  0  0
   38.2870   31.1440   38.3160 C   0  0  0  0  0  0  0  0  0  0  0  0
   37.6410   30.9580   37.4670 H   0  0  0  0  0  0  0  0  0  0  0  0
   39.5070   31.8020   38.1420 C   0  0  0  0  0  0  0  0  0  0  0  0
   40.0990   32.3010   37.0190 N   0  0  0  0  0  0  0  0  0  0  0  0
   39.7410   32.2840   36.0350 H   0  0  0  0  0  0  0  0  0  0  0  0
   41.2830   32.8470   37.3870 C   0  0  0  0  0  0  0  0  0  0  0  0
   41.9880   33.3250   36.7170 H   0  0  0  0  0  0  0  0  0  0  0  0
   41.4590   32.7020   38.7690 C   0  0  0  0  0  3  0  0  0  0  0  0
   40.3240   32.0350   39.2450 C   0  0  0  0  0  0  0  0  0  0  0  0
   39.9800   31.6380   40.5270 C   0  0  0  0  0  3  0  0  0  0  0  0
  1  2  1  0  0  0  0
  2 19  1  0  0  0  0
  2  3  2  0  0  0  0
  3  9  1  0  0  0  0
  4  3  1  0  0  0  0
  5  4  2  0  0  0  0
  6  1  2  0  0  0  0
  6  5  1  0  0  0  0
  7  1  1  0  0  0  0
  8  5  1  0  0  0  0
  9 14  2  0  0  0  0
  9 10  1  0  0  0  0
 10 15  1  0  0  0  0
 10 11  2  0  0  0  0
 11 12  1  0  0  0  0
 11 16  1  0  0  0  0
 12 17  1  0  0  0  0
 13 12  2  0  0  0  0
 14 13  1  0  0  0  0
 18 13  1  0  0  0  0
 19 20  2  0  0  0  0
 22 19  1  0  0  0  0
 22 21  2  0  0  0  0
 23 22  1  0  0  0  0
 24 23  1  0  0  0  0
 25 23  2  0  0  0  0
 25 31  1  0  0  0  0
 26 28  1  0  0  0  0
 26 25  1  0  0  0  0
 27 26  1  0  0  0  0
 28 30  2  0  0  0  0
 29 28  1  0  0  0  0
 30 31  1  0  0  0  0
 31 32  2  0  0  0  0
 32 21  1  0  0  0  0
M  END
>  <minimizedAffinity>
-5.69988871

$$$$

 OpenBabel03252507173D

 32 35  0  0  0  0  0  0  0  0999 V2000
   36.6300   28.1030   42.4100 C   0  0  0  0  0  0  0  0  0  0  0  0
   37.2620   29.1310   41.6820 C   0  0  0  0  0  0  0  0  0  0  0  0
   38.6280   29.2910   41.8240 C   0  0  0  0  0  0  0  0  0  0  0  0
   39.2970   28.4660   42.6430 N   0  0  0  0  0  0  0  0  0  0  0  0
   38.6910   27.4700   43.3490 C   0  0  0  0  0  0  0  0  0  0  0  0
   37.3680   27.3150   43.2120 N   0  0  0  0  0  0  0  0  0  0  0  0
   35.5640   27.9210   42.3470 H   0  0  0  0  0  0  0  0  0  0  0  0
   39.3990   26.9170   43.9510 H   0  0  0  0  0  0  0  0  0  0  0  0
   39.2890   30.3500   41.0770 C   0  0  0  0  0  0  0  0  0  0  0  0
   39.9410   30.0800   39.9030 C   0  0  0  0  0  0  0  0  0  0  0  0
   40.5550   31.0970   39.2170 C   0  0  0  0  0  0  0  0  0  0  0  0
   40.5410   32.4220   39.6790 C   0  0  0  0  0  0  0  0  0  0  0  0
   39.8710   32.6390   40.8630 C   0  0  0  0  0  0  0  0  0  0  0  0
   39.2760   31.6250   41.5190 N   0  0  0  0  0  0  0  0  0  0  0  0
   39.9990   29.1010   39.4830 H   0  0  0  0  0  0  0  0  0  0  0  0
   41.0950   30.9730   38.2800 H   0  0  0  0  0  0  0  0  0  0  0  0
   40.9890   33.2940   39.2250 H   0  0  0  0  0  0  0  0  0  0  0  0
   39.7400   33.5910   41.3960 H   0  0  0  0  0  0  0  0  0  0  0  0
   36.4790   29.9750   40.8260 C   0  0  0  0  0  0  0  0  0  0  0  0
   36.1470   31.1170   41.2850 O   0  0  0  0  0  0  0  0  0  0  0  0
   34.8380   28.9910   39.2430 C   0  0  0  0  0  3  0  0  0  0  0  0
   36.0210   29.6630   39.4790 C   0  0  0  0  0  0  0  0  0  0  0  0
   36.8560   30.0810   38.4380 C   0  0  0  0  0  0  0  0  0  0  0  0
   37.7850   30.6070   38.6170 H   0  0  0  0  0  0  0  0  0  0  0  0
   36.4490   29.7940   37.1340 C   0  0  0  0  0  0  0  0  0  0  0  0
   37.0380   30.0670   35.9350 N   0  0  0  0  0  0  0  0  0  0  0  0
   37.9420   30.5650   35.7550 H   0  0  0  0  0  0  0  0  0  0  0  0
   36.2360   29.5750   34.9600 C   0  0  0  0  0  0  0  0  0  0  0  0
   36.4320   29.6360   33.8960 H   0  0  0  0  0  0  0  0  0  0  0  0
   35.1100   28.9730   35.5370 C   0  0  0  0  0  3  0  0  0  0  0  0
   35.2510   29.1150   36.9230 C   0  0  0  0  0  0  0  0  0  0  0  0
   34.4310   28.7050   37.9610 C   0  0  0  0  0  3  0  0  0  0  0  0
  1  6  1  0  0  0  0
  2  3  1  0  0  0  0
  2  1  2  0  0  0  0
  3  4  2  0  0  0  0
  4  5  1  0  0  0  0
  5  8  1  0  0  0  0
  6  5  2  0  0  0  0
  7  1  1  0  0  0  0
  9 14  1  0  0  0  0
  9  3  1  0  0  0  0
 10  9  2  0  0  0  0
 11 12  2  0  0  0  0
 11 10  1  0  0  0  0
 12 13  1  0  0  0  0
 13 18  1  0  0  0  0
 13 14  2  0  0  0  0
 15 10  1  0  0  0  0
 16 11  1  0  0  0  0
 17 12  1  0  0  0  0
 19 20  2  0  0  0  0
 19  2  1  0  0  0  0
 21 22  1  0  0  0  0
 22 19  1  0  0  0  0
 23 24  1  0  0  0  0
 23 22  2  0  0  0  0
 25 23  1  0  0  0  0
 26 25  1  0  0  0  0
 27 26  1  0  0  0  0
 28 30  2  0  0  0  0
 28 26  1  0  0  0  0
 29 28  1  0  0  0  0
 30 31  1  0  0  0  0
 31 25  2  0  0  0  0
 31 32  1  0  0  0  0
 32 21  2  0  0  0  0
M  END
>  <minimizedAffinity>
-5.68851328

$$$$

 OpenBabel03252507173D

 32 35  0  0  0  0  0  0  0  0999 V2000
   35.3520   28.1790   37.6330 C   0  0  0  0  0  0  0  0  0  0  0  0
   36.0080   29.0480   38.5270 C   0  0  0  0  0  0  0  0  0  0  0  0
   36.9070   29.9630   38.0140 C   0  0  0  0  0  0  0  0  0  0  0  0
   37.1200   29.9910   36.6890 N   0  0  0  0  0  0  0  0  0  0  0  0
   36.4870   29.1540   35.8190 C   0  0  0  0  0  0  0  0  0  0  0  0
   35.6170   28.2670   36.3170 N   0  0  0  0  0  0  0  0  0  0  0  0
   34.6360   27.4380   37.9660 H   0  0  0  0  0  0  0  0  0  0  0  0
   36.7940   29.3320   34.7970 H   0  0  0  0  0  0  0  0  0  0  0  0
   37.5890   30.8630   38.9300 C   0  0  0  0  0  0  0  0  0  0  0  0
   36.9590   31.9770   39.4210 C   0  0  0  0  0  0  0  0  0  0  0  0
   37.6250   32.8090   40.2840 C   0  0  0  0  0  0  0  0  0  0  0  0
   38.9450   32.5600   40.6910 C   0  0  0  0  0  0  0  0  0  0  0  0
   39.5310   31.4280   40.1690 C   0  0  0  0  0  0  0  0  0  0  0  0
   38.8580   30.6260   39.3220 N   0  0  0  0  0  0  0  0  0  0  0  0
   35.9580   32.2380   39.1610 H   0  0  0  0  0  0  0  0  0  0  0  0
   37.2020   33.7120   40.7210 H   0  0  0  0  0  0  0  0  0  0  0  0
   39.5600   33.1430   41.3600 H   0  0  0  0  0  0  0  0  0  0  0  0
   40.5460   31.0510   40.3550 H   0  0  0  0  0  0  0  0  0  0  0  0
   35.7290   28.9580   39.9320 C   0  0  0  0  0  0  0  0  0  0  0  0
   34.5570   29.2900   40.3110 O   0  0  0  0  0  0  0  0  0  0  0  0
   36.9510   29.3190   42.0630 C   0  0  0  0  0  3  0  0  0  0  0  0
   36.6460   28.5240   40.9770 C   0  0  0  0  0  0  0  0  0  0  0  0
   37.2040   27.2530   40.8090 C   0  0  0  0  0  0  0  0  0  0  0  0
   36.9700   26.6250   39.9590 H   0  0  0  0  0  0  0  0  0  0  0  0
   38.0920   26.8070   41.7900 C   0  0  0  0  0  0  0  0  0  0  0  0
   38.7840   25.6370   41.9020 N   0  0  0  0  0  0  0  0  0  0  0  0
   38.7810   24.8170   41.2500 H   0  0  0  0  0  0  0  0  0  0  0  0
   39.5120   25.6980   43.0430 C   0  0  0  0  0  0  0  0  0  0  0  0
   40.1670   24.9170   43.4110 H   0  0  0  0  0  0  0  0  0  0  0  0
   39.2890   26.9250   43.6790 C   0  0  0  0  0  3  0  0  0  0  0  0
   38.3830   27.6290   42.8760 C   0  0  0  0  0  0  0  0  0  0  0  0
   37.8240   28.8870   43.0330 C   0  0  0  0  0  3  0  0  0  0  0  0
  1  7  1  0  0  0  0
  1  2  1  0  0  0  0
  2 19  1  0  0  0  0
  3  2  2  0  0  0  0
  3  9  1  0  0  0  0
  4  3  1  0  0  0  0
  5  6  1  0  0  0  0
  5  4  2  0  0  0  0
  6  1  2  0  0  0  0
  8  5  1  0  0  0  0
  9 14  2  0  0  0  0
  9 10  1  0  0  0  0
 10 11  2  0  0  0  0
 11 12  1  0  0  0  0
 11 16  1  0  0  0  0
 12 17  1  0  0  0  0
 13 18  1  0  0  0  0
 13 12  2  0  0  0  0
 14 13  1  0  0  0  0
 15 10  1  0  0  0  0
 19 20  2  0  0  0  0
 19 22  1  0  0  0  0
 21 32  1  0  0  0  0
 22 21  2  0  0  0  0
 23 22  1  0  0  0  0
 23 25  2  0  0  0  0
 24 23  1  0  0  0  0
 25 26  1  0  0  0  0
 25 31  1  0  0  0  0
 26 28  1  0  0  0  0
 27 26  1  0  0  0  0
 28 29  1  0  0  0  0
 28 30  2  0  0  0  0
 31 32  2  0  0  0  0
 31 30  1  0  0  0  0
M  END
>  <minimizedAffinity>
-5.62534761

$$$$
