
 OpenBabel03252507153D

 32 35  0  0  0  0  0  0  0  0999 V2000
   45.1760   36.1870   43.5000 C   0  0  0  0  0  0  0  0  0  0  0  0
   45.7870   34.9610   43.1670 C   0  0  0  0  0  0  0  0  0  0  0  0
   45.7860   33.9490   44.1090 C   0  0  0  0  0  0  0  0  0  0  0  0
   45.2070   34.1710   45.2980 N   0  0  0  0  0  0  0  0  0  0  0  0
   44.6140   35.3540   45.6260 C   0  0  0  0  0  0  0  0  0  0  0  0
   44.6150   36.3340   44.7140 N   0  0  0  0  0  0  0  0  0  0  0  0
   45.1410   37.0220   42.8110 H   0  0  0  0  0  0  0  0  0  0  0  0
   44.2070   35.3350   46.6280 H   0  0  0  0  0  0  0  0  0  0  0  0
   46.4140   32.6810   43.7730 C   0  0  0  0  0  0  0  0  0  0  0  0
   45.6570   31.5930   43.4260 C   0  0  0  0  0  0  0  0  0  0  0  0
   46.2740   30.4080   43.1130 C   0  0  0  0  0  0  0  0  0  0  0  0
   47.6700   30.2660   43.1350 C   0  0  0  0  0  0  0  0  0  0  0  0
   48.3830   31.3910   43.4890 C   0  0  0  0  0  0  0  0  0  0  0  0
   47.7560   32.5430   43.7930 N   0  0  0  0  0  0  0  0  0  0  0  0
   44.5910   31.6160   43.3860 H   0  0  0  0  0  0  0  0  0  0  0  0
   45.7530   29.4960   42.8280 H   0  0  0  0  0  0  0  0  0  0  0  0
   48.2570   29.3880   42.9100 H   0  0  0  0  0  0  0  0  0  0  0  0
   49.4730   31.4980   43.5680 H   0  0  0  0  0  0  0  0  0  0  0  0
   46.3860   34.8000   41.8730 C   0  0  0  0  0  0  0  0  0  0  0  0
   47.5350   35.3250   41.6990 O   0  0  0  0  0  0  0  0  0  0  0  0
   46.6090   33.5250   39.7530 C   0  0  0  0  0  3  0  0  0  0  0  0
   45.8190   34.0950   40.7320 C   0  0  0  0  0  0  0  0  0  0  0  0
   44.4220   34.0340   40.6860 C   0  0  0  0  0  0  0  0  0  0  0  0
   43.7990   34.4790   41.4500 H   0  0  0  0  0  0  0  0  0  0  0  0
   43.8440   33.3690   39.6030 C   0  0  0  0  0  0  0  0  0  0  0  0
   42.5370   33.1490   39.2860 N   0  0  0  0  0  0  0  0  0  0  0  0
   41.6830   33.4460   39.8150 H   0  0  0  0  0  0  0  0  0  0  0  0
   42.5060   32.4510   38.1260 C   0  0  0  0  0  0  0  0  0  0  0  0
   41.6080   32.1220   37.6150 H   0  0  0  0  0  0  0  0  0  0  0  0
   43.8150   32.2160   37.6840 C   0  0  0  0  0  3  0  0  0  0  0  0
   44.6630   32.8030   38.6280 C   0  0  0  0  0  0  0  0  0  0  0  0
   46.0460   32.8690   38.6840 C   0  0  0  0  0  3  0  0  0  0  0  0
  1  6  1  0  0  0  0
  2  1  2  0  0  0  0
  2  3  1  0  0  0  0
  3  4  2  0  0  0  0
  4  5  1  0  0  0  0
  5  8  1  0  0  0  0
  6  5  2  0  0  0  0
  7  1  1  0  0  0  0
  9 14  1  0  0  0  0
  9  3  1  0  0  0  0
 10  9  2  0  0  0  0
 11 12  2  0  0  0  0
 11 10  1  0  0  0  0
 12 13  1  0  0  0  0
 13 18  1  0  0  0  0
 13 14  2  0  0  0  0
 15 10  1  0  0  0  0
 16 11  1  0  0  0  0
 17 12  1  0  0  0  0
 19  2  1  0  0  0  0
 20 19  2  0  0  0  0
 21 22  1  0  0  0  0
 22 19  1  0  0  0  0
 23 22  2  0  0  0  0
 23 24  1  0  0  0  0
 25 23  1  0  0  0  0
 26 25  1  0  0  0  0
 26 27  1  0  0  0  0
 28 26  1  0  0  0  0
 29 28  1  0  0  0  0
 30 28  2  0  0  0  0
 30 31  1  0  0  0  0
 31 32  1  0  0  0  0
 31 25  2  0  0  0  0
 32 21  2  0  0  0  0
M  END
>  <minimizedAffinity>
-4.95220089

>  <minimizedRMSD>
0.285823405

$$$$
