
 OpenBabel03252507153D

 32 35  0  0  0  0  0  0  0  0999 V2000
   45.1770   36.1870   43.5010 C   0  0  0  0  0  0  0  0  0  0  0  0
   45.7870   34.9610   43.1670 C   0  0  0  0  0  0  0  0  0  0  0  0
   45.7860   33.9490   44.1090 C   0  0  0  0  0  0  0  0  0  0  0  0
   45.2070   34.1700   45.2980 N   0  0  0  0  0  0  0  0  0  0  0  0
   44.6140   35.3530   45.6270 C   0  0  0  0  0  0  0  0  0  0  0  0
   44.6150   36.3340   44.7150 N   0  0  0  0  0  0  0  0  0  0  0  0
   45.1410   37.0220   42.8120 H   0  0  0  0  0  0  0  0  0  0  0  0
   44.2070   35.3340   46.6290 H   0  0  0  0  0  0  0  0  0  0  0  0
   46.4140   32.6810   43.7730 C   0  0  0  0  0  0  0  0  0  0  0  0
   45.6580   31.5930   43.4250 C   0  0  0  0  0  0  0  0  0  0  0  0
   46.2750   30.4080   43.1120 C   0  0  0  0  0  0  0  0  0  0  0  0
   47.6710   30.2670   43.1340 C   0  0  0  0  0  0  0  0  0  0  0  0
   48.3840   31.3910   43.4890 C   0  0  0  0  0  0  0  0  0  0  0  0
   47.7560   32.5430   43.7930 N   0  0  0  0  0  0  0  0  0  0  0  0
   44.5920   31.6160   43.3850 H   0  0  0  0  0  0  0  0  0  0  0  0
   45.7530   29.4970   42.8270 H   0  0  0  0  0  0  0  0  0  0  0  0
   48.2580   29.3890   42.9090 H   0  0  0  0  0  0  0  0  0  0  0  0
   49.4740   31.4980   43.5680 H   0  0  0  0  0  0  0  0  0  0  0  0
   46.3870   34.8000   41.8740 C   0  0  0  0  0  0  0  0  0  0  0  0
   47.5350   35.3270   41.6990 O   0  0  0  0  0  0  0  0  0  0  0  0
   46.6100   33.5260   39.7540 C   0  0  0  0  0  3  0  0  0  0  0  0
   45.8200   34.0950   40.7320 C   0  0  0  0  0  0  0  0  0  0  0  0
   44.4230   34.0340   40.6860 C   0  0  0  0  0  0  0  0  0  0  0  0
   43.7990   34.4800   41.4500 H   0  0  0  0  0  0  0  0  0  0  0  0
   43.8450   33.3700   39.6020 C   0  0  0  0  0  0  0  0  0  0  0  0
   42.5390   33.1490   39.2860 N   0  0  0  0  0  0  0  0  0  0  0  0
   41.6840   33.4470   39.8140 H   0  0  0  0  0  0  0  0  0  0  0  0
   42.5080   32.4510   38.1260 C   0  0  0  0  0  0  0  0  0  0  0  0
   41.6100   32.1230   37.6130 H   0  0  0  0  0  0  0  0  0  0  0  0
   43.8160   32.2160   37.6830 C   0  0  0  0  0  3  0  0  0  0  0  0
   44.6650   32.8040   38.6290 C   0  0  0  0  0  0  0  0  0  0  0  0
   46.0480   32.8700   38.6850 C   0  0  0  0  0  3  0  0  0  0  0  0
  1  6  1  0  0  0  0
  2  1  2  0  0  0  0
  2  3  1  0  0  0  0
  3  4  2  0  0  0  0
  4  5  1  0  0  0  0
  5  8  1  0  0  0  0
  6  5  2  0  0  0  0
  7  1  1  0  0  0  0
  9 14  1  0  0  0  0
  9  3  1  0  0  0  0
 10  9  2  0  0  0  0
 11 12  2  0  0  0  0
 11 10  1  0  0  0  0
 12 13  1  0  0  0  0
 13 18  1  0  0  0  0
 13 14  2  0  0  0  0
 15 10  1  0  0  0  0
 16 11  1  0  0  0  0
 17 12  1  0  0  0  0
 19  2  1  0  0  0  0
 20 19  2  0  0  0  0
 21 22  1  0  0  0  0
 22 19  1  0  0  0  0
 23 22  2  0  0  0  0
 23 24  1  0  0  0  0
 25 23  1  0  0  0  0
 26 25  1  0  0  0  0
 26 27  1  0  0  0  0
 28 26  1  0  0  0  0
 29 28  1  0  0  0  0
 30 28  2  0  0  0  0
 30 31  1  0  0  0  0
 31 32  1  0  0  0  0
 31 25  2  0  0  0  0
 32 21  2  0  0  0  0
M  END
>  <minimizedAffinity>
-4.95210171

>  <minimizedRMSD>
0.436906308

$$$$
