
 OpenBabel03252507593D

 32 35  0  0  1  0  0  0  0  0999 V2000
   46.7590   34.8540   43.0680 C   0  0  0  0  0  0  0  0  0  0  0  0
   45.6600   35.7740   43.0970 C   0  0  0  0  0  0  0  0  0  0  0  0
   44.7000   35.5660   44.1100 C   0  0  0  0  0  0  0  0  0  0  0  0
   44.8760   34.5330   44.9680 N   0  0  0  0  0  0  0  0  0  0  0  0
   45.9540   33.7050   44.8660 C   0  0  0  0  0  0  0  0  0  0  0  0
   46.8910   33.8370   43.9480 N   0  0  0  0  0  0  0  0  0  0  0  0
   45.5490   36.5880   42.3970 H   0  0  0  0  0  0  0  0  0  0  0  0
   43.8730   36.2550   44.1370 H   0  0  0  0  0  0  0  0  0  0  0  0
   46.0740   32.5910   45.8670 C   0  0  1  0  0  0  0  0  0  0  0  0
   46.8050   32.8510   47.1660 C   0  0  0  0  0  0  0  0  0  0  0  0
   45.3000   32.7840   47.1120 C   0  0  1  0  0  0  0  0  0  0  0  0
   46.1300   31.5570   45.4650 H   0  0  0  0  0  0  0  0  0  0  0  0
   47.3380   33.8230   47.1530 H   0  0  0  0  0  0  0  0  0  0  0  0
   47.3760   32.0080   47.5520 H   0  0  0  0  0  0  0  0  0  0  0  0
   44.8600   31.9680   47.6830 H   0  0  0  0  0  0  0  0  0  0  0  0
   44.6920   34.0990   47.3810 N   0  0  0  0  0  0  0  0  0  0  0  0
   43.6740   34.0960   47.2870 H   0  0  0  0  0  0  0  0  0  0  0  0
   45.1030   34.4250   48.2600 H   0  0  0  0  0  0  0  0  0  0  0  0
   47.6830   35.1600   42.0150 C   0  0  0  0  0  0  0  0  0  0  0  0
   48.6830   35.9510   42.1460 O   0  0  0  0  0  0  0  0  0  0  0  0
   46.1920   33.7100   40.4620 C   0  0  0  0  0  3  0  0  0  0  0  0
   47.3010   34.4460   40.8070 C   0  0  0  0  0  0  0  0  0  0  0  0
   48.2860   34.6220   39.8220 C   0  0  0  0  0  0  0  0  0  0  0  0
   49.2070   35.1800   39.9610 H   0  0  0  0  0  0  0  0  0  0  0  0
   48.1730   34.0940   38.5520 C   0  0  0  0  0  0  0  0  0  0  0  0
   48.9700   34.1360   37.4440 N   0  0  0  0  0  0  0  0  0  0  0  0
   49.8930   34.6210   37.3710 H   0  0  0  0  0  0  0  0  0  0  0  0
   48.3740   33.4520   36.4520 C   0  0  0  0  0  0  0  0  0  0  0  0
   48.7370   33.2900   35.4490 H   0  0  0  0  0  0  0  0  0  0  0  0
   47.1520   32.9420   36.9020 C   0  0  0  0  0  3  0  0  0  0  0  0
   47.0550   33.3600   38.2180 C   0  0  0  0  0  0  0  0  0  0  0  0
   46.0810   33.1880   39.2010 C   0  0  0  0  0  3  0  0  0  0  0  0
  1  2  2  0  0  0  0
  1  6  1  0  0  0  0
  2  3  1  0  0  0  0
  3  8  1  0  0  0  0
  3  4  2  0  0  0  0
  5  4  1  0  0  0  0
  5  9  1  0  0  0  0
  6  5  2  0  0  0  0
  7  2  1  0  0  0  0
  9 12  1  6  0  0  0
  9 11  1  0  0  0  0
  9 10  1  0  0  0  0
 10 14  1  0  0  0  0
 11 10  1  0  0  0  0
 11 16  1  0  0  0  0
 11 15  1  1  0  0  0
 13 10  1  0  0  0  0
 16 18  1  0  0  0  0
 17 16  1  0  0  0  0
 19 20  2  0  0  0  0
 19  1  1  0  0  0  0
 21 22  1  0  0  0  0
 22 19  1  0  0  0  0
 23 24  1  0  0  0  0
 23 22  2  0  0  0  0
 25 23  1  0  0  0  0
 26 25  1  0  0  0  0
 27 26  1  0  0  0  0
 28 30  2  0  0  0  0
 28 26  1  0  0  0  0
 29 28  1  0  0  0  0
 30 31  1  0  0  0  0
 31 25  2  0  0  0  0
 31 32  1  0  0  0  0
 32 21  2  0  0  0  0
M  END
>  <minimizedAffinity>
-6.43419981

>  <minimizedRMSD>
1.74640584

$$$$
