
 OpenBabel03252507593D

 32 35  0  0  1  0  0  0  0  0999 V2000
   46.3190   29.1390   44.6790 C   0  0  0  0  0  0  0  0  0  0  0  0
   45.2940   28.1370   44.6780 C   0  0  0  0  0  0  0  0  0  0  0  0
   44.1930   28.3720   43.8280 C   0  0  0  0  0  0  0  0  0  0  0  0
   44.1780   29.5030   43.0840 N   0  0  0  0  0  0  0  0  0  0  0  0
   45.1990   30.4050   43.1480 C   0  0  0  0  0  0  0  0  0  0  0  0
   46.2580   30.2540   43.9180 N   0  0  0  0  0  0  0  0  0  0  0  0
   45.3370   27.2450   45.2840 H   0  0  0  0  0  0  0  0  0  0  0  0
   43.4210   27.6210   43.8230 H   0  0  0  0  0  0  0  0  0  0  0  0
   45.1030   31.6280   42.2800 C   0  0  1  0  0  0  0  0  0  0  0  0
   44.3410   31.5410   40.9770 C   0  0  0  0  0  0  0  0  0  0  0  0
   43.7530   32.2230   42.1850 C   0  0  1  0  0  0  0  0  0  0  0  0
   45.9620   32.3320   42.3070 H   0  0  0  0  0  0  0  0  0  0  0  0
   44.0770   30.4960   40.7210 H   0  0  0  0  0  0  0  0  0  0  0  0
   44.7520   32.1340   40.1610 H   0  0  0  0  0  0  0  0  0  0  0  0
   43.5690   33.2890   42.0620 H   0  0  0  0  0  0  0  0  0  0  0  0
   42.6000   31.4740   42.7190 N   0  0  0  0  0  0  0  0  0  0  0  0
   42.2230   31.8800   43.5780 H   0  0  0  0  0  0  0  0  0  0  0  0
   41.9700   31.3260   41.9270 H   0  0  0  0  0  0  0  0  0  0  0  0
   47.3960   28.8000   45.5610 C   0  0  0  0  0  0  0  0  0  0  0  0
   47.2520   28.5590   46.8120 O   0  0  0  0  0  0  0  0  0  0  0  0
   49.9120   29.2430   45.0960 C   0  0  0  0  0  3  0  0  0  0  0  0
   48.6480   28.7800   44.8190 C   0  0  0  0  0  0  0  0  0  0  0  0
   48.4670   28.0960   43.6060 C   0  0  0  0  0  0  0  0  0  0  0  0
   47.5240   27.6780   43.2670 H   0  0  0  0  0  0  0  0  0  0  0  0
   49.4950   27.8790   42.7120 C   0  0  0  0  0  0  0  0  0  0  0  0
   49.5710   27.2480   41.5040 N   0  0  0  0  0  0  0  0  0  0  0  0
   48.7790   26.7810   41.0050 H   0  0  0  0  0  0  0  0  0  0  0  0
   50.8360   27.3190   41.0530 C   0  0  0  0  0  0  0  0  0  0  0  0
   51.2320   26.9230   40.1310 H   0  0  0  0  0  0  0  0  0  0  0  0
   51.6250   28.0110   41.9770 C   0  0  0  0  0  3  0  0  0  0  0  0
   50.7600   28.3480   43.0040 C   0  0  0  0  0  0  0  0  0  0  0  0
   50.9310   29.0280   44.2080 C   0  0  0  0  0  3  0  0  0  0  0  0
  1 19  1  0  0  0  0
  2  1  1  0  0  0  0
  2  7  1  0  0  0  0
  3  2  2  0  0  0  0
  4  5  2  0  0  0  0
  4  3  1  0  0  0  0
  5  6  1  0  0  0  0
  6  1  2  0  0  0  0
  8  3  1  0  0  0  0
  9 12  1  1  0  0  0
  9  5  1  0  0  0  0
 10 11  1  0  0  0  0
 10  9  1  0  0  0  0
 11 15  1  6  0  0  0
 11  9  1  0  0  0  0
 11 16  1  0  0  0  0
 13 10  1  0  0  0  0
 14 10  1  0  0  0  0
 16 17  1  0  0  0  0
 18 16  1  0  0  0  0
 19 20  2  0  0  0  0
 22 21  1  0  0  0  0
 22 19  1  0  0  0  0
 23 22  2  0  0  0  0
 24 23  1  0  0  0  0
 25 31  2  0  0  0  0
 25 23  1  0  0  0  0
 26 25  1  0  0  0  0
 27 26  1  0  0  0  0
 28 26  1  0  0  0  0
 28 30  2  0  0  0  0
 29 28  1  0  0  0  0
 30 31  1  0  0  0  0
 31 32  1  0  0  0  0
 32 21  2  0  0  0  0
M  END
>  <minimizedAffinity>
-1.85698676

>  <minimizedRMSD>
7.6138382

$$$$
