
 OpenBabel03252507593D

 32 35  0  0  1  0  0  0  0  0999 V2000
   46.1960   34.6330   43.3540 C   0  0  0  0  0  0  0  0  0  0  0  0
   45.2710   35.6580   43.7420 C   0  0  0  0  0  0  0  0  0  0  0  0
   44.6590   35.5020   45.0040 C   0  0  0  0  0  0  0  0  0  0  0  0
   44.9800   34.4170   45.7490 N   0  0  0  0  0  0  0  0  0  0  0  0
   45.8720   33.4890   45.3010 C   0  0  0  0  0  0  0  0  0  0  0  0
   46.4820   33.5680   44.1350 N   0  0  0  0  0  0  0  0  0  0  0  0
   45.0380   36.5110   43.1220 H   0  0  0  0  0  0  0  0  0  0  0  0
   43.9650   36.2700   45.3000 H   0  0  0  0  0  0  0  0  0  0  0  0
   46.1740   32.3230   46.1990 C   0  0  1  0  0  0  0  0  0  0  0  0
   47.0420   32.5450   47.4180 C   0  0  0  0  0  0  0  0  0  0  0  0
   45.5480   32.3850   47.5370 C   0  0  1  0  0  0  0  0  0  0  0  0
   46.2380   31.3220   45.7200 H   0  0  0  0  0  0  0  0  0  0  0  0
   47.5140   33.5480   47.4130 H   0  0  0  0  0  0  0  0  0  0  0  0
   47.7020   31.7170   47.6730 H   0  0  0  0  0  0  0  0  0  0  0  0
   45.2270   31.5080   48.0960 H   0  0  0  0  0  0  0  0  0  0  0  0
   44.9040   33.6400   47.9690 N   0  0  0  0  0  0  0  0  0  0  0  0
   43.8840   33.5770   47.9950 H   0  0  0  0  0  0  0  0  0  0  0  0
   45.4000   33.9340   48.8140 H   0  0  0  0  0  0  0  0  0  0  0  0
   46.7710   34.8920   42.0680 C   0  0  0  0  0  0  0  0  0  0  0  0
   47.8560   35.5510   41.8860 O   0  0  0  0  0  0  0  0  0  0  0  0
   44.5780   34.2340   40.8460 C   0  0  0  0  0  3  0  0  0  0  0  0
   45.9380   34.3010   41.0320 C   0  0  0  0  0  0  0  0  0  0  0  0
   46.7500   33.7460   40.0300 C   0  0  0  0  0  0  0  0  0  0  0  0
   47.8360   33.7320   40.0510 H   0  0  0  0  0  0  0  0  0  0  0  0
   46.2360   33.1540   38.8950 C   0  0  0  0  0  0  0  0  0  0  0  0
   46.8050   32.5680   37.8010 N   0  0  0  0  0  0  0  0  0  0  0  0
   47.8310   32.4570   37.6290 H   0  0  0  0  0  0  0  0  0  0  0  0
   45.8310   32.1570   36.9700 C   0  0  0  0  0  0  0  0  0  0  0  0
   45.9400   31.6550   36.0210 H   0  0  0  0  0  0  0  0  0  0  0  0
   44.5830   32.4720   37.5170 C   0  0  0  0  0  3  0  0  0  0  0  0
   44.8690   33.0950   38.7200 C   0  0  0  0  0  0  0  0  0  0  0  0
   44.0680   33.6470   39.7180 C   0  0  0  0  0  3  0  0  0  0  0  0
  1  2  2  0  0  0  0
  1  6  1  0  0  0  0
  2  3  1  0  0  0  0
  3  8  1  0  0  0  0
  3  4  2  0  0  0  0
  5  4  1  0  0  0  0
  5  9  1  0  0  0  0
  6  5  2  0  0  0  0
  7  2  1  0  0  0  0
  9 12  1  6  0  0  0
  9 10  1  0  0  0  0
  9 11  1  0  0  0  0
 10 11  1  0  0  0  0
 10 14  1  0  0  0  0
 11 16  1  0  0  0  0
 11 15  1  1  0  0  0
 13 10  1  0  0  0  0
 16 17  1  0  0  0  0
 16 18  1  0  0  0  0
 19  1  1  0  0  0  0
 20 19  2  0  0  0  0
 21 22  1  0  0  0  0
 22 19  1  0  0  0  0
 23 24  1  0  0  0  0
 23 22  2  0  0  0  0
 25 23  1  0  0  0  0
 26 25  1  0  0  0  0
 27 26  1  0  0  0  0
 28 30  2  0  0  0  0
 28 26  1  0  0  0  0
 29 28  1  0  0  0  0
 30 31  1  0  0  0  0
 31 25  2  0  0  0  0
 31 32  1  0  0  0  0
 32 21  2  0  0  0  0
M  END
>  <minimizedAffinity>
-6.01666832

>  <minimizedRMSD>
0.590604067

$$$$
