
 OpenBabel03252507593D

 32 35  0  0  1  0  0  0  0  0999 V2000
   46.7870   34.7920   43.0700 C   0  0  0  0  0  0  0  0  0  0  0  0
   45.6730   35.6910   43.1600 C   0  0  0  0  0  0  0  0  0  0  0  0
   44.7430   35.4310   44.1880 C   0  0  0  0  0  0  0  0  0  0  0  0
   44.9600   34.3740   45.0060 N   0  0  0  0  0  0  0  0  0  0  0  0
   46.0490   33.5680   44.8480 C   0  0  0  0  0  0  0  0  0  0  0  0
   46.9590   33.7490   43.9110 N   0  0  0  0  0  0  0  0  0  0  0  0
   45.5300   36.5260   42.4910 H   0  0  0  0  0  0  0  0  0  0  0  0
   43.9060   36.1040   44.2610 H   0  0  0  0  0  0  0  0  0  0  0  0
   46.2130   32.4240   45.8070 C   0  0  1  0  0  0  0  0  0  0  0  0
   46.9780   32.6510   47.0920 C   0  0  0  0  0  0  0  0  0  0  0  0
   45.4730   32.5620   47.0790 C   0  0  1  0  0  0  0  0  0  0  0  0
   46.2730   31.4040   45.3680 H   0  0  0  0  0  0  0  0  0  0  0  0
   47.4960   33.6310   47.0980 H   0  0  0  0  0  0  0  0  0  0  0  0
   47.5720   31.8040   47.4330 H   0  0  0  0  0  0  0  0  0  0  0  0
   45.0620   31.7210   47.6340 H   0  0  0  0  0  0  0  0  0  0  0  0
   44.8540   33.8580   47.4100 N   0  0  0  0  0  0  0  0  0  0  0  0
   43.8340   33.8420   47.3440 H   0  0  0  0  0  0  0  0  0  0  0  0
   45.2850   34.1600   48.2870 H   0  0  0  0  0  0  0  0  0  0  0  0
   47.6780   35.1510   42.0060 C   0  0  0  0  0  0  0  0  0  0  0  0
   48.6480   35.9790   42.1300 O   0  0  0  0  0  0  0  0  0  0  0  0
   46.1940   33.7050   40.4420 C   0  0  0  0  0  3  0  0  0  0  0  0
   47.3020   34.4390   40.7940 C   0  0  0  0  0  0  0  0  0  0  0  0
   48.2910   34.6160   39.8140 C   0  0  0  0  0  0  0  0  0  0  0  0
   49.2130   35.1740   39.9590 H   0  0  0  0  0  0  0  0  0  0  0  0
   48.1840   34.0920   38.5430 C   0  0  0  0  0  0  0  0  0  0  0  0
   48.9870   34.1360   37.4380 N   0  0  0  0  0  0  0  0  0  0  0  0
   49.9110   34.6210   37.3710 H   0  0  0  0  0  0  0  0  0  0  0  0
   48.3950   33.4540   36.4420 C   0  0  0  0  0  0  0  0  0  0  0  0
   48.7630   33.2940   35.4400 H   0  0  0  0  0  0  0  0  0  0  0  0
   47.1700   32.9440   36.8860 C   0  0  0  0  0  3  0  0  0  0  0  0
   47.0670   33.3590   38.2020 C   0  0  0  0  0  0  0  0  0  0  0  0
   46.0890   33.1850   39.1800 C   0  0  0  0  0  3  0  0  0  0  0  0
  1  2  2  0  0  0  0
  1  6  1  0  0  0  0
  2  3  1  0  0  0  0
  3  8  1  0  0  0  0
  3  4  2  0  0  0  0
  5  4  1  0  0  0  0
  5  9  1  0  0  0  0
  6  5  2  0  0  0  0
  7  2  1  0  0  0  0
  9 12  1  6  0  0  0
  9 11  1  0  0  0  0
  9 10  1  0  0  0  0
 10 13  1  0  0  0  0
 10 14  1  0  0  0  0
 11 10  1  0  0  0  0
 11 16  1  0  0  0  0
 11 15  1  1  0  0  0
 16 18  1  0  0  0  0
 17 16  1  0  0  0  0
 19 20  2  0  0  0  0
 19  1  1  0  0  0  0
 21 22  1  0  0  0  0
 22 19  1  0  0  0  0
 23 24  1  0  0  0  0
 23 22  2  0  0  0  0
 25 23  1  0  0  0  0
 26 25  1  0  0  0  0
 27 26  1  0  0  0  0
 28 30  2  0  0  0  0
 28 26  1  0  0  0  0
 29 28  1  0  0  0  0
 30 31  1  0  0  0  0
 31 25  2  0  0  0  0
 31 32  1  0  0  0  0
 32 21  2  0  0  0  0
M  END
>  <minimizedAffinity>
-6.46809816

>  <minimizedRMSD>
2.45929122

$$$$
