
 OpenBabel03252507593D

 32 35  0  0  1  0  0  0  0  0999 V2000
   46.1500   34.7170   43.2780 C   0  0  0  0  0  0  0  0  0  0  0  0
   45.2620   35.7860   43.6250 C   0  0  0  0  0  0  0  0  0  0  0  0
   44.6300   35.6900   44.8830 C   0  0  0  0  0  0  0  0  0  0  0  0
   44.9010   34.6170   45.6630 N   0  0  0  0  0  0  0  0  0  0  0  0
   45.7620   33.6420   45.2520 C   0  0  0  0  0  0  0  0  0  0  0  0
   46.3870   33.6650   44.0920 N   0  0  0  0  0  0  0  0  0  0  0  0
   45.0680   36.6300   42.9780 H   0  0  0  0  0  0  0  0  0  0  0  0
   43.9630   36.4920   45.1480 H   0  0  0  0  0  0  0  0  0  0  0  0
   46.0090   32.4930   46.1870 C   0  0  1  0  0  0  0  0  0  0  0  0
   46.8420   32.7260   47.4280 C   0  0  0  0  0  0  0  0  0  0  0  0
   45.3420   32.6010   47.5020 C   0  0  1  0  0  0  0  0  0  0  0  0
   46.0670   31.4800   45.7340 H   0  0  0  0  0  0  0  0  0  0  0  0
   47.3360   33.7180   47.4140 H   0  0  0  0  0  0  0  0  0  0  0  0
   47.4750   31.8910   47.7240 H   0  0  0  0  0  0  0  0  0  0  0  0
   44.9840   31.7440   48.0700 H   0  0  0  0  0  0  0  0  0  0  0  0
   44.7120   33.8780   47.8830 N   0  0  0  0  0  0  0  0  0  0  0  0
   43.6900   33.8380   47.8760 H   0  0  0  0  0  0  0  0  0  0  0  0
   45.1870   34.1820   48.7370 H   0  0  0  0  0  0  0  0  0  0  0  0
   46.7500   34.9170   41.9920 C   0  0  0  0  0  0  0  0  0  0  0  0
   47.8460   35.5530   41.8010 O   0  0  0  0  0  0  0  0  0  0  0  0
   46.1820   33.3550   39.9980 C   0  0  0  0  0  3  0  0  0  0  0  0
   45.9250   34.2960   40.9660 C   0  0  0  0  0  0  0  0  0  0  0  0
   44.6040   34.7600   41.0740 C   0  0  0  0  0  0  0  0  0  0  0  0
   44.2660   35.4990   41.7950 H   0  0  0  0  0  0  0  0  0  0  0  0
   43.5860   34.3120   40.2580 C   0  0  0  0  0  0  0  0  0  0  0  0
   42.2540   34.5950   40.1790 N   0  0  0  0  0  0  0  0  0  0  0  0
   41.7330   35.2740   40.7800 H   0  0  0  0  0  0  0  0  0  0  0  0
   41.7090   33.8560   39.1950 C   0  0  0  0  0  0  0  0  0  0  0  0
   40.6800   33.8430   38.8710 H   0  0  0  0  0  0  0  0  0  0  0  0
   42.6960   33.0600   38.6050 C   0  0  0  0  0  3  0  0  0  0  0  0
   43.8580   33.3660   39.2920 C   0  0  0  0  0  0  0  0  0  0  0  0
   45.1710   32.9090   39.1890 C   0  0  0  0  0  3  0  0  0  0  0  0
  1  2  2  0  0  0  0
  1  6  1  0  0  0  0
  2  3  1  0  0  0  0
  3  8  1  0  0  0  0
  3  4  2  0  0  0  0
  5  4  1  0  0  0  0
  5  9  1  0  0  0  0
  6  5  2  0  0  0  0
  7  2  1  0  0  0  0
  9 12  1  6  0  0  0
  9 10  1  0  0  0  0
  9 11  1  0  0  0  0
 10 11  1  0  0  0  0
 10 14  1  0  0  0  0
 11 16  1  0  0  0  0
 11 15  1  1  0  0  0
 13 10  1  0  0  0  0
 16 18  1  0  0  0  0
 17 16  1  0  0  0  0
 19  1  1  0  0  0  0
 20 19  2  0  0  0  0
 21 22  1  0  0  0  0
 22 23  2  0  0  0  0
 22 19  1  0  0  0  0
 23 24  1  0  0  0  0
 25 23  1  0  0  0  0
 26 25  1  0  0  0  0
 26 27  1  0  0  0  0
 28 26  1  0  0  0  0
 29 28  1  0  0  0  0
 30 28  2  0  0  0  0
 30 31  1  0  0  0  0
 31 25  2  0  0  0  0
 32 31  1  0  0  0  0
 32 21  2  0  0  0  0
M  END
>  <minimizedAffinity>
-6.21747255

>  <minimizedRMSD>
0.504830718

$$$$
