
 OpenBabel03242515423D

 41 45  0  0  0  0  0  0  0  0999 V2000
   44.7060   33.8070   40.2810 C   0  0  0  0  0  0  0  0  0  0  0  0
   45.1340   32.7310   39.5930 C   0  0  0  0  0  0  0  0  0  0  0  0
   46.5160   32.4420   39.6690 C   0  0  0  0  0  0  0  0  0  0  0  0
   47.3360   33.2360   40.4010 N   0  0  0  0  0  0  0  0  0  0  0  0
   46.8530   34.3110   41.0720 C   0  0  0  0  0  0  0  0  0  0  0  0
   45.5630   34.5330   40.9730 N   0  0  0  0  0  0  0  0  0  0  0  0
   44.1240   30.4140   38.8060 C   0  0  0  0  0  0  0  0  0  0  0  0
   44.6130   31.6940   38.7190 C   0  0  0  0  0  0  0  0  0  0  0  0
   44.6470   32.2450   37.4190 C   0  0  0  0  0  0  0  0  0  0  0  0
   44.9860   33.2310   37.0820 H   0  0  0  0  0  0  0  0  0  0  0  0
   44.2070   31.5290   36.2950 C   0  0  0  0  0  0  0  0  0  0  0  0
   44.0990   31.7290   34.9690 N   0  0  0  0  0  0  0  0  0  0  0  0
   44.3810   32.6160   34.5000 H   0  0  0  0  0  0  0  0  0  0  0  0
   43.5910   30.6560   34.3480 C   0  0  0  0  0  0  0  0  0  0  0  0
   43.4100   30.5780   33.2800 H   0  0  0  0  0  0  0  0  0  0  0  0
   43.3340   29.6670   35.2750 C   0  0  0  0  0  0  0  0  0  0  0  0
   43.7260   30.2410   36.4660 C   0  0  0  0  0  0  0  0  0  0  0  0
   43.6940   29.7050   37.7260 C   0  0  0  0  0  0  0  0  0  0  0  0
   47.1060   31.3140   39.0260 N   0  0  0  0  0  0  0  0  0  0  0  0
   47.2640   30.4490   39.5690 H   0  0  0  0  0  0  0  0  0  0  0  0
   47.3750   31.3630   38.0170 H   0  0  0  0  0  0  0  0  0  0  0  0
   42.9290   34.1190   40.1560 S   0  0  0  0  0  0  0  0  0  0  0  0
   40.6120   33.0470   40.9240 C   0  0  0  0  0  0  0  0  0  0  0  0
   42.0040   32.9070   41.0590 C   0  0  0  0  0  0  0  0  0  0  0  0
   42.5540   31.8790   41.8110 C   0  0  0  0  0  0  0  0  0  0  0  0
   41.7410   30.9700   42.4430 C   0  0  0  0  0  0  0  0  0  0  0  0
   40.3560   31.0920   42.3210 C   0  0  0  0  0  0  0  0  0  0  0  0
   39.7790   32.1140   41.5740 C   0  0  0  0  0  0  0  0  0  0  0  0
   39.7650   30.0450   43.0590 O   0  0  0  0  0  0  0  0  0  0  0  0
   40.7670   29.5190   43.8650 C   0  0  0  0  0  0  0  0  0  0  0  0
   41.9880   29.8620   43.2380 O   0  0  0  0  0  0  0  0  0  0  0  0
   40.1340   33.8290   40.3510 H   0  0  0  0  0  0  0  0  0  0  0  0
   43.6230   31.8410   41.8680 H   0  0  0  0  0  0  0  0  0  0  0  0
   38.7100   32.2300   41.4660 H   0  0  0  0  0  0  0  0  0  0  0  0
   40.6550   28.4300   44.0060 H   0  0  0  0  0  0  0  0  0  0  0  0
   40.7880   29.9670   44.8790 H   0  0  0  0  0  0  0  0  0  0  0  0
   47.5950   35.1750   41.8330 O   0  0  0  0  0  0  0  0  0  0  0  0
   48.8610   35.5590   41.3530 C   0  0  0  0  0  0  0  0  0  0  0  0
   49.8320   34.6590   41.7080 F   0  0  0  0  0  0  0  0  0  0  0  0
   48.7470   35.6740   39.9600 F   0  0  0  0  0  0  0  0  0  0  0  0
   49.1870   36.7780   41.9140 F   0  0  0  0  0  0  0  0  0  0  0  0
  1  6  1  0  0  0  0
  2  3  1  0  0  0  0
  2  1  2  0  0  0  0
  3  4  2  0  0  0  0
  4  5  1  0  0  0  0
  5 37  1  0  0  0  0
  6  5  2  0  0  0  0
  8  7  1  0  0  0  0
  8  2  1  0  0  0  0
  9  8  2  0  0  0  0
 10  9  1  0  0  0  0
 11 17  2  0  0  0  0
 11  9  1  0  0  0  0
 12 11  1  0  0  0  0
 13 12  1  0  0  0  0
 14 12  1  0  0  0  0
 14 16  2  0  0  0  0
 15 14  1  0  0  0  0
 16 17  1  0  0  0  0
 17 18  1  0  0  0  0
 18  7  2  0  0  0  0
 19 20  1  0  0  0  0
 19  3  1  0  0  0  0
 21 19  1  0  0  0  0
 22  1  1  0  0  0  0
 22 24  1  0  0  0  0
 23 24  2  0  0  0  0
 23 28  1  0  0  0  0
 24 25  1  0  0  0  0
 25 33  1  0  0  0  0
 25 26  2  0  0  0  0
 26 31  1  0  0  0  0
 27 26  1  0  0  0  0
 27 29  1  0  0  0  0
 28 27  2  0  0  0  0
 29 30  1  0  0  0  0
 30 35  1  0  0  0  0
 30 36  1  0  0  0  0
 31 30  1  0  0  0  0
 32 23  1  0  0  0  0
 34 28  1  0  0  0  0
 38 39  1  0  0  0  0
 38 37  1  0  0  0  0
 38 41  1  0  0  0  0
 40 38  1  0  0  0  0
M  END
>  <minimizedAffinity>
-6.0986228

>  <minimizedRMSD>
2.18017507

$$$$
