
 OpenBabel03242512203D

 44 48  0  0  0  0  0  0  0  0999 V2000
   48.3960   33.0040   41.7430 C   0  0  0  0  0  0  0  0  0  0  0  0
   47.8830   34.2500   41.9980 C   0  0  0  0  0  0  0  0  0  0  0  0
   48.7240   35.2500   42.3870 C   0  0  0  0  0  0  0  0  0  0  0  0
   50.0860   35.0010   42.5210 C   0  0  0  0  0  0  0  0  0  0  0  0
   50.5720   33.7340   42.2570 C   0  0  0  0  0  0  0  0  0  0  0  0
   49.7150   32.7070   41.8580 C   0  0  0  0  0  0  0  0  0  0  0  0
   48.3500   36.2400   42.5950 H   0  0  0  0  0  0  0  0  0  0  0  0
   50.7980   35.7570   42.8270 H   0  0  0  0  0  0  0  0  0  0  0  0
   51.6360   33.5560   42.3660 H   0  0  0  0  0  0  0  0  0  0  0  0
   46.4340   34.4270   41.8330 C   0  0  0  0  0  0  0  0  0  0  0  0
   45.9510   33.6080   41.3220 H   0  0  0  0  0  0  0  0  0  0  0  0
   46.3110   35.3260   41.1630 H   0  0  0  0  0  0  0  0  0  0  0  0
   45.7860   34.7680   43.1570 C   0  0  0  0  0  0  0  0  0  0  0  0
   45.8910   33.8320   44.1840 C   0  0  0  0  0  0  0  0  0  0  0  0
   45.2930   34.1590   45.3910 C   0  0  0  0  0  0  0  0  0  0  0  0
   44.6570   35.3410   45.5000 N   0  0  0  0  0  0  0  0  0  0  0  0
   44.5740   36.2290   44.4780 C   0  0  0  0  0  0  0  0  0  0  0  0
   45.1430   35.9240   43.3220 N   0  0  0  0  0  0  0  0  0  0  0  0
   46.4200   32.8890   44.0400 H   0  0  0  0  0  0  0  0  0  0  0  0
   45.3340   33.4800   46.2340 H   0  0  0  0  0  0  0  0  0  0  0  0
   44.0590   37.1840   44.5640 H   0  0  0  0  0  0  0  0  0  0  0  0
   47.6120   31.9120   41.3380 O   0  0  0  0  0  0  0  0  0  0  0  0
   47.5230   31.7410   40.3310 H   0  0  0  0  0  0  0  0  0  0  0  0
   50.3210   31.4680   41.6190 O   0  0  0  0  0  0  0  0  0  0  0  0
   51.0400   31.4000   40.4320 C   0  0  0  0  0  0  0  0  0  0  0  0
   52.4090   31.2990   40.4910 C   0  0  0  0  0  0  0  0  0  0  0  0
   53.2110   31.2250   39.3510 C   0  0  0  0  0  0  0  0  0  0  0  0
   52.6170   31.2540   38.1420 N   0  0  0  0  0  0  0  0  0  0  0  0
   51.2820   31.3530   38.0830 C   0  0  0  0  0  0  0  0  0  0  0  0
   50.5240   31.4230   39.1950 N   0  0  0  0  0  0  0  0  0  0  0  0
   52.9070   31.2730   41.4470 H   0  0  0  0  0  0  0  0  0  0  0  0
   54.3030   31.1440   39.4630 H   0  0  0  0  0  0  0  0  0  0  0  0
   51.1550   30.7280   35.6950 C   0  0  0  0  0  0  0  0  0  0  0  0
   50.6220   31.3860   36.7790 C   0  0  0  0  0  0  0  0  0  0  0  0
   49.4580   32.0570   36.5590 C   0  0  0  0  0  0  0  0  0  0  0  0
   48.9730   32.5990   37.3480 H   0  0  0  0  0  0  0  0  0  0  0  0
   48.8570   32.0660   35.2980 C   0  0  0  0  0  0  0  0  0  0  0  0
   47.7420   32.6310   34.8200 N   0  0  0  0  0  0  0  0  0  0  0  0
   47.0490   33.2230   35.3430 H   0  0  0  0  0  0  0  0  0  0  0  0
   47.5930   32.3330   33.4960 C   0  0  0  0  0  0  0  0  0  0  0  0
   46.8390   32.5990   32.7770 H   0  0  0  0  0  0  0  0  0  0  0  0
   48.6770   31.5350   33.1180 C   0  0  0  0  0  0  0  0  0  0  0  0
   49.4560   31.3810   34.2630 C   0  0  0  0  0  0  0  0  0  0  0  0
   50.6350   30.6800   34.4180 C   0  0  0  0  0  0  0  0  0  0  0  0
  1  6  2  0  0  0  0
  1  2  1  0  0  0  0
  2  3  2  0  0  0  0
  3  4  1  0  0  0  0
  3  7  1  0  0  0  0
  4  8  1  0  0  0  0
  5  9  1  0  0  0  0
  5  4  2  0  0  0  0
  6  5  1  0  0  0  0
 10  2  1  0  0  0  0
 10 13  1  0  0  0  0
 11 10  1  0  0  0  0
 12 10  1  0  0  0  0
 13 18  2  0  0  0  0
 13 14  1  0  0  0  0
 14 15  2  0  0  0  0
 15 16  1  0  0  0  0
 15 20  1  0  0  0  0
 17 21  1  0  0  0  0
 17 16  2  0  0  0  0
 18 17  1  0  0  0  0
 19 14  1  0  0  0  0
 22  1  1  0  0  0  0
 23 22  1  0  0  0  0
 24  6  1  0  0  0  0
 25 26  1  0  0  0  0
 25 24  1  0  0  0  0
 26 31  1  0  0  0  0
 27 32  1  0  0  0  0
 27 26  2  0  0  0  0
 28 27  1  0  0  0  0
 29 28  2  0  0  0  0
 29 30  1  0  0  0  0
 30 25  2  0  0  0  0
 33 34  1  0  0  0  0
 34 29  1  0  0  0  0
 35 34  2  0  0  0  0
 35 36  1  0  0  0  0
 37 35  1  0  0  0  0
 38 37  1  0  0  0  0
 38 39  1  0  0  0  0
 40 38  1  0  0  0  0
 41 40  1  0  0  0  0
 42 40  2  0  0  0  0
 42 43  1  0  0  0  0
 43 44  1  0  0  0  0
 43 37  2  0  0  0  0
 44 33  2  0  0  0  0
M  END
>  <minimizedAffinity>
-6.58664846

>  <minimizedRMSD>
0.889282107

$$$$
