
 OpenBabel03242516033D

 39 43  0  0  0  0  0  0  0  0999 V2000
   47.3680   33.2990   38.6980 C   0  0  0  0  0  0  0  0  0  0  0  0
   48.0690   32.1190   38.4240 C   0  0  0  0  0  0  0  0  0  0  0  0
   47.2690   31.4790   36.9240 S   0  0  0  0  0  0  0  0  0  0  0  0
   46.0590   32.9660   36.8980 C   0  0  0  0  0  0  0  0  0  0  0  0
   46.4290   33.5000   37.8080 N   0  0  0  0  0  0  0  0  0  0  0  0
   45.0360   33.1910   35.9310 N   0  0  0  0  0  0  0  0  0  0  0  0
   45.4220   33.8860   35.2550 H   0  0  0  0  0  0  0  0  0  0  0  0
   44.2040   32.6110   36.1630 H   0  0  0  0  0  0  0  0  0  0  0  0
   49.0360   30.4960   40.0750 C   0  0  0  0  0  0  0  0  0  0  0  0
   49.1740   31.4880   39.1170 C   0  0  0  0  0  0  0  0  0  0  0  0
   50.4810   31.8850   38.8210 C   0  0  0  0  0  0  0  0  0  0  0  0
   50.6400   32.6680   38.0700 H   0  0  0  0  0  0  0  0  0  0  0  0
   51.5790   31.3310   39.4420 C   0  0  0  0  0  0  0  0  0  0  0  0
   52.9120   31.5070   39.3660 N   0  0  0  0  0  0  0  0  0  0  0  0
   53.4130   32.1830   38.7420 H   0  0  0  0  0  0  0  0  0  0  0  0
   53.5370   30.6690   40.2300 C   0  0  0  0  0  0  0  0  0  0  0  0
   54.5900   30.5380   40.4340 H   0  0  0  0  0  0  0  0  0  0  0  0
   52.5980   29.9000   40.9120 C   0  0  0  0  0  0  0  0  0  0  0  0
   51.3790   30.3470   40.3890 C   0  0  0  0  0  0  0  0  0  0  0  0
   50.1110   29.9170   40.7170 C   0  0  0  0  0  0  0  0  0  0  0  0
   45.6480   32.9570   41.0460 Cl  0  0  0  0  0  0  0  0  0  0  0  0
   46.9540   34.1090   41.0180 C   0  0  0  0  0  0  0  0  0  0  0  0
   47.2550   34.9180   42.0810 C   0  0  0  0  0  0  0  0  0  0  0  0
   48.3020   35.7790   41.9340 C   0  0  0  0  0  0  0  0  0  0  0  0
   49.0340   35.8600   40.8070 C   0  0  0  0  0  0  0  0  0  0  0  0
   48.7520   35.0630   39.7370 C   0  0  0  0  0  0  0  0  0  0  0  0
   47.6860   34.1700   39.8530 C   0  0  0  0  0  0  0  0  0  0  0  0
   48.5470   36.4230   42.7680 H   0  0  0  0  0  0  0  0  0  0  0  0
   49.8500   36.5590   40.7470 H   0  0  0  0  0  0  0  0  0  0  0  0
   49.3350   35.1220   38.8270 H   0  0  0  0  0  0  0  0  0  0  0  0
   44.5630   35.4920   44.6930 C   0  0  0  0  0  0  0  0  0  0  0  0
   45.3390   35.6340   43.5430 C   0  0  0  0  0  0  0  0  0  0  0  0
   46.4320   34.7900   43.2720 C   0  0  0  0  0  0  0  0  0  0  0  0
   46.6600   33.8430   44.2120 N   0  0  0  0  0  0  0  0  0  0  0  0
   45.9010   33.7190   45.3180 C   0  0  0  0  0  0  0  0  0  0  0  0
   44.8660   34.5360   45.5520 N   0  0  0  0  0  0  0  0  0  0  0  0
   43.7440   36.2100   44.7880 H   0  0  0  0  0  0  0  0  0  0  0  0
   45.1660   36.3950   42.7760 H   0  0  0  0  0  0  0  0  0  0  0  0
   46.1280   32.9400   46.0430 H   0  0  0  0  0  0  0  0  0  0  0  0
  1 27  1  0  0  0  0
  2  1  2  0  0  0  0
  2 10  1  0  0  0  0
  3  2  1  0  0  0  0
  4  3  1  0  0  0  0
  4  5  2  0  0  0  0
  5  1  1  0  0  0  0
  6  8  1  0  0  0  0
  6  4  1  0  0  0  0
  7  6  1  0  0  0  0
  9 20  1  0  0  0  0
 10  9  2  0  0  0  0
 11 10  1  0  0  0  0
 11 13  2  0  0  0  0
 12 11  1  0  0  0  0
 13 19  1  0  0  0  0
 14 13  1  0  0  0  0
 14 16  1  0  0  0  0
 15 14  1  0  0  0  0
 16 17  1  0  0  0  0
 16 18  2  0  0  0  0
 19 20  2  0  0  0  0
 19 18  1  0  0  0  0
 22 21  1  0  0  0  0
 22 23  1  0  0  0  0
 23 33  1  0  0  0  0
 24 23  2  0  0  0  0
 24 28  1  0  0  0  0
 25 24  1  0  0  0  0
 26 27  1  0  0  0  0
 26 25  2  0  0  0  0
 27 22  2  0  0  0  0
 29 25  1  0  0  0  0
 30 26  1  0  0  0  0
 31 37  1  0  0  0  0
 31 36  1  0  0  0  0
 32 31  2  0  0  0  0
 33 32  1  0  0  0  0
 33 34  2  0  0  0  0
 34 35  1  0  0  0  0
 35 36  2  0  0  0  0
 35 39  1  0  0  0  0
 38 32  1  0  0  0  0
M  END
>  <minimizedAffinity>
-6.52289057

>  <minimizedRMSD>
2.38128185

$$$$
