
 OpenBabel03252502453D

 48 52  0  0  1  0  0  0  0  0999 V2000
   46.6860   35.5050   42.2450 C   0  0  0  0  0  0  0  0  0  0  0  0
   47.0070   35.9460   43.2110 H   0  0  0  0  0  0  0  0  0  0  0  0
   46.1310   36.3240   41.7290 H   0  0  0  0  0  0  0  0  0  0  0  0
   47.8980   35.0630   41.4940 C   0  0  1  0  0  0  0  0  0  0  0  0
   49.1200   35.9260   41.5760 C   0  0  0  0  0  0  0  0  0  0  0  0
   49.0490   34.6150   42.2690 C   0  0  2  0  0  0  0  0  0  0  0  0
   47.6820   34.6790   40.5020 H   0  0  0  0  0  0  0  0  0  0  0  0
   49.7480   36.0850   40.6780 H   0  0  0  0  0  0  0  0  0  0  0  0
   49.0280   36.8660   42.1730 H   0  0  0  0  0  0  0  0  0  0  0  0
   49.1460   34.6620   43.3470 H   0  0  0  0  0  0  0  0  0  0  0  0
   49.8200   33.5700   41.5990 N   0  0  0  0  0  0  0  0  0  0  0  0
   49.0500   32.6860   40.8010 C   0  0  0  0  0  0  0  0  0  0  0  0
   50.0370   31.6870   40.2220 C   0  0  0  0  0  0  0  0  0  0  0  0
   50.6600   30.9130   41.2360 N   0  0  0  0  0  0  0  0  0  0  0  0
   50.7760   31.5890   42.5150 C   0  0  0  0  0  0  0  0  0  0  0  0
   50.9390   33.0930   42.2910 C   0  0  0  0  0  0  0  0  0  0  0  0
   48.6140   33.2370   39.9350 H   0  0  0  0  0  0  0  0  0  0  0  0
   48.2650   32.2060   41.4010 H   0  0  0  0  0  0  0  0  0  0  0  0
   49.4750   31.0270   39.5180 H   0  0  0  0  0  0  0  0  0  0  0  0
   50.7190   32.2800   39.5820 H   0  0  0  0  0  0  0  0  0  0  0  0
   51.5470   30.4880   40.9160 H   0  0  0  0  0  0  0  0  0  0  0  0
   49.8610   31.4690   43.1130 H   0  0  0  0  0  0  0  0  0  0  0  0
   51.6390   31.1550   43.0260 H   0  0  0  0  0  0  0  0  0  0  0  0
   51.0920   33.5970   43.2460 H   0  0  0  0  0  0  0  0  0  0  0  0
   51.8910   33.2160   41.7050 H   0  0  0  0  0  0  0  0  0  0  0  0
   45.8570   34.2780   42.4960 C   0  0  0  0  0  0  0  0  0  0  0  0
   44.8150   34.5420   42.1510 H   0  0  0  0  0  0  0  0  0  0  0  0
   46.1230   33.3830   41.9560 H   0  0  0  0  0  0  0  0  0  0  0  0
   44.7000   34.7440   46.0320 C   0  0  0  0  0  0  0  0  0  0  0  0
   44.8300   34.9130   44.6360 C   0  0  0  0  0  0  0  0  0  0  0  0
   45.7050   34.1060   43.9770 C   0  0  0  0  0  0  0  0  0  0  0  0
   46.4170   33.1750   44.6750 N   0  0  0  0  0  0  0  0  0  0  0  0
   46.2890   33.0260   45.9740 C   0  0  0  0  0  0  0  0  0  0  0  0
   45.4340   33.8030   46.6680 N   0  0  0  0  0  0  0  0  0  0  0  0
   44.0220   35.3570   46.6010 H   0  0  0  0  0  0  0  0  0  0  0  0
   44.2150   35.6820   44.1900 H   0  0  0  0  0  0  0  0  0  0  0  0
   47.2940   30.7770   46.1350 C   0  0  0  0  0  0  0  0  0  0  0  0
   47.0690   32.0140   46.7030 C   0  0  0  0  0  0  0  0  0  0  0  0
   47.5840   32.2940   47.9620 C   0  0  0  0  0  0  0  0  0  0  0  0
   47.4060   33.2490   48.3910 H   0  0  0  0  0  0  0  0  0  0  0  0
   48.3070   31.2760   48.5720 C   0  0  0  0  0  0  0  0  0  0  0  0
   48.8760   31.3730   49.7870 N   0  0  0  0  0  0  0  0  0  0  0  0
   48.8900   32.1790   50.4790 H   0  0  0  0  0  0  0  0  0  0  0  0
   49.4830   30.2170   50.0550 C   0  0  0  0  0  0  0  0  0  0  0  0
   50.0400   29.9400   50.9420 H   0  0  0  0  0  0  0  0  0  0  0  0
   49.3030   29.3470   48.9790 C   0  0  0  0  0  0  0  0  0  0  0  0
   48.5480   30.0350   48.0340 C   0  0  0  0  0  0  0  0  0  0  0  0
   48.0260   29.7730   46.7760 C   0  0  0  0  0  0  0  0  0  0  0  0
  1 26  1  0  0  0  0
  1  2  1  0  0  0  0
  3  1  1  0  0  0  0
  4  7  1  6  0  0  0
  4  5  1  0  0  0  0
  4  1  1  0  0  0  0
  4  6  1  0  0  0  0
  5  9  1  0  0  0  0
  5  6  1  0  0  0  0
  6 10  1  1  0  0  0
  8  5  1  0  0  0  0
 11  6  1  0  0  0  0
 11 16  1  0  0  0  0
 12 18  1  0  0  0  0
 12 11  1  0  0  0  0
 13 12  1  0  0  0  0
 13 14  1  0  0  0  0
 14 15  1  0  0  0  0
 15 23  1  0  0  0  0
 15 22  1  0  0  0  0
 16 15  1  0  0  0  0
 16 24  1  0  0  0  0
 17 12  1  0  0  0  0
 19 13  1  0  0  0  0
 20 13  1  0  0  0  0
 21 14  1  0  0  0  0
 25 16  1  0  0  0  0
 26 31  1  0  0  0  0
 27 26  1  0  0  0  0
 28 26  1  0  0  0  0
 29 35  1  0  0  0  0
 29 34  1  0  0  0  0
 30 29  2  0  0  0  0
 31 30  1  0  0  0  0
 31 32  2  0  0  0  0
 32 33  1  0  0  0  0
 33 34  2  0  0  0  0
 33 38  1  0  0  0  0
 36 30  1  0  0  0  0
 37 38  2  0  0  0  0
 37 48  1  0  0  0  0
 38 39  1  0  0  0  0
 39 40  1  0  0  0  0
 39 41  2  0  0  0  0
 41 42  1  0  0  0  0
 42 44  1  0  0  0  0
 42 43  1  0  0  0  0
 44 45  1  0  0  0  0
 46 44  2  0  0  0  0
 47 41  1  0  0  0  0
 47 46  1  0  0  0  0
 48 47  2  0  0  0  0
M  END
>  <minimizedAffinity>
-6.34323549

>  <minimizedRMSD>
1.84938145

$$$$
