
 OpenBabel03252502453D

 48 52  0  0  1  0  0  0  0  0999 V2000
   48.3170   35.7480   41.7870 C   0  0  0  0  0  0  0  0  0  0  0  0
   48.4000   36.0250   42.8580 H   0  0  0  0  0  0  0  0  0  0  0  0
   48.4120   36.7130   41.2360 H   0  0  0  0  0  0  0  0  0  0  0  0
   49.4050   34.7800   41.4570 C   0  0  1  0  0  0  0  0  0  0  0  0
   50.3540   34.4000   42.5520 C   0  0  0  0  0  0  0  0  0  0  0  0
   49.3300   33.4500   42.0490 C   0  0  2  0  0  0  0  0  0  0  0  0
   49.8740   34.9620   40.4950 H   0  0  0  0  0  0  0  0  0  0  0  0
   51.4310   34.2760   42.3330 H   0  0  0  0  0  0  0  0  0  0  0  0
   50.1990   34.8980   43.5410 H   0  0  0  0  0  0  0  0  0  0  0  0
   48.6090   33.1230   42.7870 H   0  0  0  0  0  0  0  0  0  0  0  0
   49.8890   32.4080   41.1890 N   0  0  0  0  0  0  0  0  0  0  0  0
   49.0070   31.9310   40.1880 C   0  0  0  0  0  0  0  0  0  0  0  0
   49.7770   30.8600   39.4350 C   0  0  0  0  0  0  0  0  0  0  0  0
   50.1070   29.7610   40.2720 N   0  0  0  0  0  0  0  0  0  0  0  0
   50.2640   30.1050   41.6730 C   0  0  0  0  0  0  0  0  0  0  0  0
   50.7970   31.5330   41.7970 C   0  0  0  0  0  0  0  0  0  0  0  0
   48.7930   32.7410   39.4510 H   0  0  0  0  0  0  0  0  0  0  0  0
   48.0800   31.5490   40.6370 H   0  0  0  0  0  0  0  0  0  0  0  0
   49.1400   30.5230   38.5820 H   0  0  0  0  0  0  0  0  0  0  0  0
   50.6340   31.3830   38.9690 H   0  0  0  0  0  0  0  0  0  0  0  0
   50.8930   29.2030   39.8970 H   0  0  0  0  0  0  0  0  0  0  0  0
   49.2970   30.0960   42.1960 H   0  0  0  0  0  0  0  0  0  0  0  0
   50.9500   29.3730   42.1040 H   0  0  0  0  0  0  0  0  0  0  0  0
   50.9790   31.7730   42.8450 H   0  0  0  0  0  0  0  0  0  0  0  0
   51.8000   31.5330   41.2870 H   0  0  0  0  0  0  0  0  0  0  0  0
   47.0140   35.0390   41.5440 C   0  0  0  0  0  0  0  0  0  0  0  0
   46.4290   35.7120   40.8530 H   0  0  0  0  0  0  0  0  0  0  0  0
   47.0580   34.0820   41.0500 H   0  0  0  0  0  0  0  0  0  0  0  0
   44.5410   36.0480   44.1760 C   0  0  0  0  0  0  0  0  0  0  0  0
   45.2790   36.0330   42.9710 C   0  0  0  0  0  0  0  0  0  0  0  0
   46.2200   35.0640   42.8150 C   0  0  0  0  0  0  0  0  0  0  0  0
   46.4180   34.1520   43.8100 N   0  0  0  0  0  0  0  0  0  0  0  0
   45.7270   34.1750   44.9270 C   0  0  0  0  0  0  0  0  0  0  0  0
   44.7840   35.1170   45.1250 N   0  0  0  0  0  0  0  0  0  0  0  0
   43.7840   36.7940   44.3500 H   0  0  0  0  0  0  0  0  0  0  0  0
   45.0350   36.8050   42.2540 H   0  0  0  0  0  0  0  0  0  0  0  0
   47.0190   32.3020   45.8830 C   0  0  0  0  0  3  0  0  0  0  0  0
   45.9600   33.1800   45.9860 C   0  0  0  0  0  0  0  0  0  0  0  0
   45.1210   33.1150   47.0900 C   0  0  0  0  0  0  0  0  0  0  0  0
   44.3090   33.7950   47.1590 H   0  0  0  0  0  0  0  0  0  0  0  0
   45.4220   32.1420   48.0350 C   0  0  0  0  0  0  0  0  0  0  0  0
   44.7180   31.9390   49.1640 N   0  0  0  0  0  0  0  0  0  0  0  0
   43.8570   32.4370   49.5390 H   0  0  0  0  0  0  0  0  0  0  0  0
   45.2840   30.9340   49.8310 C   0  0  0  0  0  0  0  0  0  0  0  0
   44.9840   30.5010   50.7780 H   0  0  0  0  0  0  0  0  0  0  0  0
   46.3880   30.4740   49.1120 C   0  0  0  0  0  3  0  0  0  0  0  0
   46.4670   31.2540   47.9630 C   0  0  0  0  0  0  0  0  0  0  0  0
   47.2960   31.3330   46.8530 C   0  0  0  0  0  3  0  0  0  0  0  0
  1  2  1  0  0  0  0
  3  1  1  0  0  0  0
  4  7  1  6  0  0  0
  4  1  1  0  0  0  0
  4  6  1  0  0  0  0
  4  5  1  0  0  0  0
  5  9  1  0  0  0  0
  6  5  1  0  0  0  0
  6 10  1  1  0  0  0
  8  5  1  0  0  0  0
 11 16  1  0  0  0  0
 11  6  1  0  0  0  0
 12 18  1  0  0  0  0
 12 11  1  0  0  0  0
 13 12  1  0  0  0  0
 13 14  1  0  0  0  0
 14 15  1  0  0  0  0
 15 16  1  0  0  0  0
 15 23  1  0  0  0  0
 15 22  1  0  0  0  0
 16 24  1  0  0  0  0
 17 12  1  0  0  0  0
 19 13  1  0  0  0  0
 20 13  1  0  0  0  0
 21 14  1  0  0  0  0
 25 16  1  0  0  0  0
 26  1  1  0  0  0  0
 26 31  1  0  0  0  0
 27 26  1  0  0  0  0
 28 26  1  0  0  0  0
 29 35  1  0  0  0  0
 29 34  1  0  0  0  0
 30 29  2  0  0  0  0
 31 30  1  0  0  0  0
 31 32  2  0  0  0  0
 32 33  1  0  0  0  0
 33 34  2  0  0  0  0
 33 38  1  0  0  0  0
 36 30  1  0  0  0  0
 37 38  2  0  0  0  0
 37 48  1  0  0  0  0
 38 39  1  0  0  0  0
 39 40  1  0  0  0  0
 39 41  2  0  0  0  0
 41 42  1  0  0  0  0
 42 43  1  0  0  0  0
 42 44  1  0  0  0  0
 44 45  1  0  0  0  0
 46 44  2  0  0  0  0
 47 41  1  0  0  0  0
 47 46  1  0  0  0  0
 48 47  2  0  0  0  0
M  END
>  <minimizedAffinity>
-5.93843603

>  <minimizedRMSD>
0.850284696

$$$$
