
 OpenBabel03252502353D

 27 29  0  0  1  0  0  0  0  0999 V2000
   48.2390   34.9110   42.4730 C   0  0  2  0  0  0  0  0  0  0  0  0
   48.3310   35.3610   43.4680 H   0  0  0  0  0  0  0  0  0  0  0  0
   48.2960   32.4360   43.0810 C   0  0  0  0  0  0  0  0  0  0  0  0
   48.8470   33.5640   42.5090 C   0  0  0  0  0  0  0  0  0  0  0  0
   50.1010   33.3760   41.9180 C   0  0  0  0  0  0  0  0  0  0  0  0
   50.6340   34.2070   41.4320 H   0  0  0  0  0  0  0  0  0  0  0  0
   50.7620   32.1640   41.8930 C   0  0  0  0  0  0  0  0  0  0  0  0
   51.9520   31.7820   41.3850 N   0  0  0  0  0  0  0  0  0  0  0  0
   52.6470   32.3830   40.8750 H   0  0  0  0  0  0  0  0  0  0  0  0
   52.1020   30.4780   41.6430 C   0  0  0  0  0  0  0  0  0  0  0  0
   52.9270   29.8240   41.3910 H   0  0  0  0  0  0  0  0  0  0  0  0
   51.0110   29.9890   42.3260 C   0  0  0  0  0  0  0  0  0  0  0  0
   50.1660   31.0690   42.4790 C   0  0  0  0  0  0  0  0  0  0  0  0
   48.9130   31.2110   43.0820 C   0  0  0  0  0  0  0  0  0  0  0  0
   45.9260   35.4400   42.8410 C   0  0  0  0  0  0  0  0  0  0  0  0
   46.8700   34.8380   42.0160 C   0  0  0  0  0  0  0  0  0  0  0  0
   46.3900   34.2430   40.8480 C   0  0  0  0  0  0  0  0  0  0  0  0
   45.0640   34.2960   40.6100 N   0  0  0  0  0  0  0  0  0  0  0  0
   44.1810   34.8830   41.4230 C   0  0  0  0  0  0  0  0  0  0  0  0
   44.6010   35.4650   42.5530 N   0  0  0  0  0  0  0  0  0  0  0  0
   46.0960   35.9590   43.7980 H   0  0  0  0  0  0  0  0  0  0  0  0
   47.1370   33.7820   40.2230 H   0  0  0  0  0  0  0  0  0  0  0  0
   43.1660   34.8210   41.0590 H   0  0  0  0  0  0  0  0  0  0  0  0
   48.9810   35.8150   41.4860 C   0  0  0  0  0  0  0  0  0  0  0  0
   48.7410   36.8770   41.7050 H   0  0  0  0  0  0  0  0  0  0  0  0
   50.0940   35.7280   41.6330 H   0  0  0  0  0  0  0  0  0  0  0  0
   48.7370   35.5610   40.4420 H   0  0  0  0  0  0  0  0  0  0  0  0
  1  4  1  0  0  0  0
  1  2  1  1  0  0  0
  3 14  1  0  0  0  0
  4  3  2  0  0  0  0
  5  4  1  0  0  0  0
  6  5  1  0  0  0  0
  7  5  2  0  0  0  0
  7 13  1  0  0  0  0
  8 10  1  0  0  0  0
  8  7  1  0  0  0  0
  9  8  1  0  0  0  0
 10 12  2  0  0  0  0
 11 10  1  0  0  0  0
 12 13  1  0  0  0  0
 13 14  2  0  0  0  0
 15 21  1  0  0  0  0
 16  1  1  0  0  0  0
 16 15  2  0  0  0  0
 17 16  1  0  0  0  0
 18 17  2  0  0  0  0
 18 19  1  0  0  0  0
 19 20  2  0  0  0  0
 20 15  1  0  0  0  0
 22 17  1  0  0  0  0
 23 19  1  0  0  0  0
 24 26  1  0  0  0  0
 24 25  1  0  0  0  0
 24  1  1  0  0  0  0
 27 24  1  0  0  0  0
M  END
>  <minimizedAffinity>
-4.85923243

>  <minimizedRMSD>
6.92610645

$$$$
