
 OpenBabel03252509263D

 33 36  0  0  1  0  0  0  0  0999 V2000
   46.3310   34.9210   42.0060 C   0  0  1  0  0  0  0  0  0  0  0  0
   47.8650   35.1560   41.9510 C   0  0  0  0  0  0  0  0  0  0  0  0
   47.1040   33.8980   41.4320 C   0  0  2  0  0  0  0  0  0  0  0  0
   45.7790   35.6730   41.4170 H   0  0  0  0  0  0  0  0  0  0  0  0
   48.4550   35.0170   42.8620 H   0  0  0  0  0  0  0  0  0  0  0  0
   48.2130   35.8560   41.1760 H   0  0  0  0  0  0  0  0  0  0  0  0
   47.3190   32.9700   42.0420 H   0  0  0  0  0  0  0  0  0  0  0  0
   44.6090   35.5270   45.2840 C   0  0  0  0  0  0  0  0  0  0  0  0
   45.0400   35.7520   43.9490 C   0  0  0  0  0  0  0  0  0  0  0  0
   45.8650   34.8040   43.4400 C   0  0  0  0  0  0  0  0  0  0  0  0
   46.2630   33.6980   44.1650 N   0  0  0  0  0  0  0  0  0  0  0  0
   45.8290   33.5220   45.4380 C   0  0  0  0  0  0  0  0  0  0  0  0
   44.9970   34.4460   45.9960 N   0  0  0  0  0  0  0  0  0  0  0  0
   43.9480   36.2810   45.6970 H   0  0  0  0  0  0  0  0  0  0  0  0
   46.0960   32.6950   46.0530 H   0  0  0  0  0  0  0  0  0  0  0  0
   44.6590   36.8910   43.2210 N   0  0  0  0  0  0  0  0  0  0  0  0
   43.7450   37.1060   42.7660 H   0  0  0  0  0  0  0  0  0  0  0  0
   45.4470   37.6030   43.1540 H   0  0  0  0  0  0  0  0  0  0  0  0
   47.0840   33.6320   39.9460 C   0  0  0  0  0  0  0  0  0  0  0  0
   46.0970   33.1750   39.7350 H   0  0  0  0  0  0  0  0  0  0  0  0
   47.1530   34.5710   39.3600 H   0  0  0  0  0  0  0  0  0  0  0  0
   48.3190   31.4400   40.2240 C   0  0  0  0  0  3  0  0  0  0  0  0
   48.1250   32.6490   39.6060 C   0  0  0  0  0  0  0  0  0  0  0  0
   48.9800   32.9910   38.5630 C   0  0  0  0  0  0  0  0  0  0  0  0
   48.9020   33.9220   38.0190 H   0  0  0  0  0  0  0  0  0  0  0  0
   49.9990   32.1590   38.1420 C   0  0  0  0  0  0  0  0  0  0  0  0
   50.9410   32.2450   37.1880 N   0  0  0  0  0  0  0  0  0  0  0  0
   51.0460   33.0740   36.5370 H   0  0  0  0  0  0  0  0  0  0  0  0
   51.7140   31.1450   37.1810 C   0  0  0  0  0  0  0  0  0  0  0  0
   52.5370   31.0080   36.4860 H   0  0  0  0  0  0  0  0  0  0  0  0
   51.2700   30.2920   38.1700 C   0  0  0  0  0  3  0  0  0  0  0  0
   50.1960   30.9470   38.7600 C   0  0  0  0  0  0  0  0  0  0  0  0
   49.3430   30.6120   39.7960 C   0  0  0  0  0  3  0  0  0  0  0  0
  1  4  1  6  0  0  0
  1 10  1  0  0  0  0
  2  1  1  0  0  0  0
  2  5  1  0  0  0  0
  3  2  1  0  0  0  0
  3  1  1  0  0  0  0
  3  7  1  1  0  0  0
  6  2  1  0  0  0  0
  8 14  1  0  0  0  0
  8 13  1  0  0  0  0
  9  8  2  0  0  0  0
 10  9  1  0  0  0  0
 10 11  2  0  0  0  0
 11 12  1  0  0  0  0
 12 13  2  0  0  0  0
 12 15  1  0  0  0  0
 16  9  1  0  0  0  0
 17 16  1  0  0  0  0
 18 16  1  0  0  0  0
 19  3  1  0  0  0  0
 20 19  1  0  0  0  0
 21 19  1  0  0  0  0
 23 19  1  0  0  0  0
 23 22  2  0  0  0  0
 24 23  1  0  0  0  0
 25 24  1  0  0  0  0
 26 24  2  0  0  0  0
 26 32  1  0  0  0  0
 27 26  1  0  0  0  0
 28 27  1  0  0  0  0
 29 27  1  0  0  0  0
 29 31  2  0  0  0  0
 30 29  1  0  0  0  0
 31 32  1  0  0  0  0
 32 33  2  0  0  0  0
 33 22  1  0  0  0  0
M  END
>  <minimizedAffinity>
-5.14817142

>  <minimizedRMSD>
0.480684608

$$$$
