
 OpenBabel03242523043D

 35 38  0  0  0  0  0  0  0  0999 V2000
   39.5220   31.5640   41.6600 C   0  0  0  0  0  0  0  0  0  0  0  0
   38.5430   30.6300   41.3590 C   0  0  0  0  0  0  0  0  0  0  0  0
   37.6000   30.9980   40.4260 C   0  0  0  0  0  0  0  0  0  0  0  0
   37.6690   32.2410   39.8450 N   0  0  0  0  0  0  0  0  0  0  0  0
   38.6360   33.1250   40.1610 C   0  0  0  0  0  0  0  0  0  0  0  0
   39.5510   32.7880   41.0590 N   0  0  0  0  0  0  0  0  0  0  0  0
   40.3290   31.4340   42.3640 H   0  0  0  0  0  0  0  0  0  0  0  0
   38.7120   34.1130   39.7160 H   0  0  0  0  0  0  0  0  0  0  0  0
   38.5840   29.3720   41.9770 N   0  0  0  0  0  0  0  0  0  0  0  0
   38.1330   29.1560   43.2760 C   0  0  0  0  0  0  0  0  0  0  0  0
   37.8490   27.7290   43.6770 C   0  0  0  0  0  0  0  0  0  0  0  0
   37.4780   26.8320   42.6800 N   0  0  0  0  0  0  0  0  0  0  0  0
   38.0840   27.0190   41.4260 C   0  0  0  0  0  0  0  0  0  0  0  0
   39.0790   28.1640   41.3860 C   0  0  0  0  0  0  0  0  0  0  0  0
   37.1950   29.7000   43.4330 H   0  0  0  0  0  0  0  0  0  0  0  0
   38.9440   29.3820   44.0420 H   0  0  0  0  0  0  0  0  0  0  0  0
   38.7120   27.2530   44.2420 H   0  0  0  0  0  0  0  0  0  0  0  0
   37.0410   27.7540   44.4470 H   0  0  0  0  0  0  0  0  0  0  0  0
   37.5030   25.8720   43.0340 H   0  0  0  0  0  0  0  0  0  0  0  0
   37.3100   27.2400   40.6560 H   0  0  0  0  0  0  0  0  0  0  0  0
   38.6290   26.1200   41.1440 H   0  0  0  0  0  0  0  0  0  0  0  0
   39.5420   28.2850   40.4120 H   0  0  0  0  0  0  0  0  0  0  0  0
   39.9260   27.8250   42.0590 H   0  0  0  0  0  0  0  0  0  0  0  0
   35.3420   29.6970   40.3720 C   0  0  0  0  0  3  0  0  0  0  0  0
   36.4870   30.3020   39.8920 C   0  0  0  0  0  0  0  0  0  0  0  0
   36.5440   30.1400   38.4880 C   0  0  0  0  0  0  0  0  0  0  0  0
   37.3820   30.5510   37.8990 H   0  0  0  0  0  0  0  0  0  0  0  0
   35.6240   29.4870   37.6940 C   0  0  0  0  0  0  0  0  0  0  0  0
   35.5190   29.2430   36.3810 N   0  0  0  0  0  0  0  0  0  0  0  0
   36.2010   29.5420   35.6500 H   0  0  0  0  0  0  0  0  0  0  0  0
   34.3900   28.5480   36.1660 C   0  0  0  0  0  0  0  0  0  0  0  0
   34.0850   28.2300   35.1780 H   0  0  0  0  0  0  0  0  0  0  0  0
   33.7490   28.3360   37.3550 C   0  0  0  0  0  3  0  0  0  0  0  0
   34.5300   28.9300   38.3040 C   0  0  0  0  0  0  0  0  0  0  0  0
   34.3780   29.0310   39.6630 C   0  0  0  0  0  3  0  0  0  0  0  0
  1  7  1  0  0  0  0
  2  1  1  0  0  0  0
  2  9  1  0  0  0  0
  3  2  2  0  0  0  0
  4  5  2  0  0  0  0
  4  3  1  0  0  0  0
  5  6  1  0  0  0  0
  6  1  2  0  0  0  0
  8  5  1  0  0  0  0
  9 10  1  0  0  0  0
 10 15  1  0  0  0  0
 10 11  1  0  0  0  0
 10 16  1  0  0  0  0
 11 17  1  0  0  0  0
 11 18  1  0  0  0  0
 12 19  1  0  0  0  0
 12 11  1  0  0  0  0
 13 12  1  0  0  0  0
 14 13  1  0  0  0  0
 14  9  1  0  0  0  0
 14 23  1  0  0  0  0
 20 13  1  0  0  0  0
 21 13  1  0  0  0  0
 22 14  1  0  0  0  0
 25 24  1  0  0  0  0
 25  3  1  0  0  0  0
 26 25  2  0  0  0  0
 27 26  1  0  0  0  0
 28 34  2  0  0  0  0
 28 26  1  0  0  0  0
 29 28  1  0  0  0  0
 30 29  1  0  0  0  0
 31 29  1  0  0  0  0
 31 33  2  0  0  0  0
 32 31  1  0  0  0  0
 33 34  1  0  0  0  0
 34 35  1  0  0  0  0
 35 24  2  0  0  0  0
M  END
>  <minimizedAffinity>
-5.57173491

$$$$

 OpenBabel03242523043D

 35 38  0  0  0  0  0  0  0  0999 V2000
   38.2180   29.5860   42.7650 C   0  0  0  0  0  0  0  0  0  0  0  0
   37.8600   29.8430   41.4510 C   0  0  0  0  0  0  0  0  0  0  0  0
   36.9570   28.9790   40.8740 C   0  0  0  0  0  0  0  0  0  0  0  0
   36.4590   27.9290   41.6050 N   0  0  0  0  0  0  0  0  0  0  0  0
   36.8300   27.7090   42.8830 C   0  0  0  0  0  0  0  0  0  0  0  0
   37.6990   28.5290   43.4540 N   0  0  0  0  0  0  0  0  0  0  0  0
   38.9090   30.1630   43.3600 H   0  0  0  0  0  0  0  0  0  0  0  0
   36.4500   26.8860   43.4820 H   0  0  0  0  0  0  0  0  0  0  0  0
   38.3940   30.9670   40.8030 N   0  0  0  0  0  0  0  0  0  0  0  0
   39.6830   30.9930   40.2790 C   0  0  0  0  0  0  0  0  0  0  0  0
   39.9940   32.0710   39.2710 C   0  0  0  0  0  0  0  0  0  0  0  0
   38.9460   32.5680   38.5010 N   0  0  0  0  0  0  0  0  0  0  0  0
   37.6970   32.6510   39.1410 C   0  0  0  0  0  0  0  0  0  0  0  0
   37.7160   32.2120   40.5930 C   0  0  0  0  0  0  0  0  0  0  0  0
   39.8900   30.0440   39.7700 H   0  0  0  0  0  0  0  0  0  0  0  0
   40.4490   31.2820   41.0690 H   0  0  0  0  0  0  0  0  0  0  0  0
   40.5120   32.9680   39.7360 H   0  0  0  0  0  0  0  0  0  0  0  0
   40.7760   31.6700   38.5830 H   0  0  0  0  0  0  0  0  0  0  0  0
   39.2350   33.4140   38.0050 H   0  0  0  0  0  0  0  0  0  0  0  0
   36.9550   32.0040   38.6190 H   0  0  0  0  0  0  0  0  0  0  0  0
   37.3480   33.6830   39.1300 H   0  0  0  0  0  0  0  0  0  0  0  0
   36.7460   32.2930   41.0700 H   0  0  0  0  0  0  0  0  0  0  0  0
   38.3520   32.9920   41.1160 H   0  0  0  0  0  0  0  0  0  0  0  0
   36.8280   28.9120   38.2710 C   0  0  0  0  0  3  0  0  0  0  0  0
   36.3830   28.9500   39.5780 C   0  0  0  0  0  0  0  0  0  0  0  0
   34.9700   29.0000   39.5870 C   0  0  0  0  0  0  0  0  0  0  0  0
   34.4050   29.0340   40.5340 H   0  0  0  0  0  0  0  0  0  0  0  0
   34.1370   29.0120   38.4870 C   0  0  0  0  0  0  0  0  0  0  0  0
   32.8090   29.0550   38.3120 N   0  0  0  0  0  0  0  0  0  0  0  0
   32.0960   29.0930   39.0730 H   0  0  0  0  0  0  0  0  0  0  0  0
   32.5540   29.0440   36.9930 C   0  0  0  0  0  0  0  0  0  0  0  0
   31.5460   29.0740   36.5990 H   0  0  0  0  0  0  0  0  0  0  0  0
   33.7300   28.9910   36.2990 C   0  0  0  0  0  3  0  0  0  0  0  0
   34.7140   28.9710   37.2450 C   0  0  0  0  0  0  0  0  0  0  0  0
   36.0790   28.9200   37.1240 C   0  0  0  0  0  3  0  0  0  0  0  0
  1  7  1  0  0  0  0
  1  6  1  0  0  0  0
  2  1  2  0  0  0  0
  3  2  1  0  0  0  0
  3  4  2  0  0  0  0
  4  5  1  0  0  0  0
  5  6  2  0  0  0  0
  5  8  1  0  0  0  0
  9  2  1  0  0  0  0
 10  9  1  0  0  0  0
 10 16  1  0  0  0  0
 11 17  1  0  0  0  0
 11 10  1  0  0  0  0
 12 13  1  0  0  0  0
 12 11  1  0  0  0  0
 13 14  1  0  0  0  0
 14  9  1  0  0  0  0
 14 22  1  0  0  0  0
 14 23  1  0  0  0  0
 15 10  1  0  0  0  0
 18 11  1  0  0  0  0
 19 12  1  0  0  0  0
 20 13  1  0  0  0  0
 21 13  1  0  0  0  0
 24 25  1  0  0  0  0
 25 26  2  0  0  0  0
 25  3  1  0  0  0  0
 26 27  1  0  0  0  0
 28 26  1  0  0  0  0
 29 28  1  0  0  0  0
 29 30  1  0  0  0  0
 31 29  1  0  0  0  0
 32 31  1  0  0  0  0
 33 31  2  0  0  0  0
 33 34  1  0  0  0  0
 34 28  2  0  0  0  0
 35 34  1  0  0  0  0
 35 24  2  0  0  0  0
M  END
>  <minimizedAffinity>
-5.51322031

$$$$

 OpenBabel03242523043D

 35 38  0  0  0  0  0  0  0  0999 V2000
   38.3620   29.9040   42.4030 C   0  0  0  0  0  0  0  0  0  0  0  0
   37.6360   29.9500   41.2230 C   0  0  0  0  0  0  0  0  0  0  0  0
   36.6990   28.9580   41.0330 C   0  0  0  0  0  0  0  0  0  0  0  0
   36.5260   27.9940   41.9960 N   0  0  0  0  0  0  0  0  0  0  0  0
   37.2500   27.9820   43.1330 C   0  0  0  0  0  0  0  0  0  0  0  0
   38.1570   28.9260   43.3320 N   0  0  0  0  0  0  0  0  0  0  0  0
   39.1280   30.6010   42.7050 H   0  0  0  0  0  0  0  0  0  0  0  0
   37.1310   27.2310   43.9090 H   0  0  0  0  0  0  0  0  0  0  0  0
   37.8590   31.0000   40.3210 N   0  0  0  0  0  0  0  0  0  0  0  0
   37.1140   32.1760   40.3350 C   0  0  0  0  0  0  0  0  0  0  0  0
   37.6960   33.3670   39.6150 C   0  0  0  0  0  0  0  0  0  0  0  0
   39.0810   33.4510   39.5040 N   0  0  0  0  0  0  0  0  0  0  0  0
   39.7620   32.2310   39.3460 C   0  0  0  0  0  0  0  0  0  0  0  0
   38.8510   31.0190   39.2870 C   0  0  0  0  0  0  0  0  0  0  0  0
   36.9630   32.5010   41.3710 H   0  0  0  0  0  0  0  0  0  0  0  0
   36.1570   32.0700   39.7290 H   0  0  0  0  0  0  0  0  0  0  0  0
   37.2760   33.4930   38.5670 H   0  0  0  0  0  0  0  0  0  0  0  0
   37.3280   34.2830   40.1350 H   0  0  0  0  0  0  0  0  0  0  0  0
   39.3440   34.1830   38.8390 H   0  0  0  0  0  0  0  0  0  0  0  0
   40.4590   32.0690   40.2000 H   0  0  0  0  0  0  0  0  0  0  0  0
   40.3260   32.2450   38.4160 H   0  0  0  0  0  0  0  0  0  0  0  0
   39.3960   30.0900   39.1560 H   0  0  0  0  0  0  0  0  0  0  0  0
   38.2740   31.1460   38.3200 H   0  0  0  0  0  0  0  0  0  0  0  0
   34.6080   29.2320   39.5000 C   0  0  0  0  0  3  0  0  0  0  0  0
   35.8000   28.7100   39.9660 C   0  0  0  0  0  0  0  0  0  0  0  0
   36.1800   27.6190   39.1510 C   0  0  0  0  0  0  0  0  0  0  0  0
   37.1070   27.0560   39.3460 H   0  0  0  0  0  0  0  0  0  0  0  0
   35.4950   27.1270   38.0590 C   0  0  0  0  0  0  0  0  0  0  0  0
   35.7010   26.1270   37.1910 N   0  0  0  0  0  0  0  0  0  0  0  0
   36.5140   25.4730   37.1980 H   0  0  0  0  0  0  0  0  0  0  0  0
   34.6840   26.1090   36.3140 C   0  0  0  0  0  0  0  0  0  0  0  0
   34.6250   25.3860   35.5110 H   0  0  0  0  0  0  0  0  0  0  0  0
   33.8030   27.1100   36.6120 C   0  0  0  0  0  3  0  0  0  0  0  0
   34.3220   27.7420   37.7060 C   0  0  0  0  0  0  0  0  0  0  0  0
   33.8630   28.8110   38.4320 C   0  0  0  0  0  3  0  0  0  0  0  0
  1  7  1  0  0  0  0
  1  6  1  0  0  0  0
  2  1  2  0  0  0  0
  3  2  1  0  0  0  0
  3  4  2  0  0  0  0
  4  5  1  0  0  0  0
  5  6  2  0  0  0  0
  5  8  1  0  0  0  0
  9 10  1  0  0  0  0
  9  2  1  0  0  0  0
 10 15  1  0  0  0  0
 11 18  1  0  0  0  0
 11 10  1  0  0  0  0
 12 11  1  0  0  0  0
 13 12  1  0  0  0  0
 13 20  1  0  0  0  0
 14 13  1  0  0  0  0
 14  9  1  0  0  0  0
 16 10  1  0  0  0  0
 17 11  1  0  0  0  0
 19 12  1  0  0  0  0
 21 13  1  0  0  0  0
 22 14  1  0  0  0  0
 23 14  1  0  0  0  0
 24 25  1  0  0  0  0
 25  3  1  0  0  0  0
 26 27  1  0  0  0  0
 26 25  2  0  0  0  0
 28 26  1  0  0  0  0
 29 30  1  0  0  0  0
 29 28  1  0  0  0  0
 31 33  2  0  0  0  0
 31 29  1  0  0  0  0
 32 31  1  0  0  0  0
 33 34  1  0  0  0  0
 34 28  2  0  0  0  0
 34 35  1  0  0  0  0
 35 24  2  0  0  0  0
M  END
>  <minimizedAffinity>
-5.39006472

$$$$

 OpenBabel03242523043D

 35 38  0  0  0  0  0  0  0  0999 V2000
   40.3350   33.0620   38.9230 C   0  0  0  0  0  0  0  0  0  0  0  0
   40.3350   31.7870   39.4670 C   0  0  0  0  0  0  0  0  0  0  0  0
   39.7110   31.6320   40.6840 C   0  0  0  0  0  0  0  0  0  0  0  0
   39.1270   32.7170   41.2910 N   0  0  0  0  0  0  0  0  0  0  0  0
   39.1460   33.9440   40.7330 C   0  0  0  0  0  0  0  0  0  0  0  0
   39.7430   34.1130   39.5620 N   0  0  0  0  0  0  0  0  0  0  0  0
   40.7770   33.3520   37.9830 H   0  0  0  0  0  0  0  0  0  0  0  0
   38.6910   34.8170   41.1920 H   0  0  0  0  0  0  0  0  0  0  0  0
   40.9230   30.7360   38.7480 N   0  0  0  0  0  0  0  0  0  0  0  0
   40.1770   29.7320   38.1370 C   0  0  0  0  0  0  0  0  0  0  0  0
   40.8680   28.9120   37.0760 C   0  0  0  0  0  0  0  0  0  0  0  0
   41.9050   29.5060   36.3630 N   0  0  0  0  0  0  0  0  0  0  0  0
   42.7120   30.4050   37.0820 C   0  0  0  0  0  0  0  0  0  0  0  0
   42.3280   30.5450   38.5430 C   0  0  0  0  0  0  0  0  0  0  0  0
   39.3020   30.1730   37.6470 H   0  0  0  0  0  0  0  0  0  0  0  0
   39.9370   28.8900   38.8630 H   0  0  0  0  0  0  0  0  0  0  0  0
   41.2680   27.9270   37.4750 H   0  0  0  0  0  0  0  0  0  0  0  0
   40.0880   28.5800   36.3500 H   0  0  0  0  0  0  0  0  0  0  0  0
   42.4150   28.8050   35.8200 H   0  0  0  0  0  0  0  0  0  0  0  0
   42.6470   31.4220   36.6330 H   0  0  0  0  0  0  0  0  0  0  0  0
   43.7460   30.0650   37.0610 H   0  0  0  0  0  0  0  0  0  0  0  0
   42.9680   31.2350   39.0820 H   0  0  0  0  0  0  0  0  0  0  0  0
   42.5630   29.5320   38.9960 H   0  0  0  0  0  0  0  0  0  0  0  0
   40.3200   29.5940   42.1910 C   0  0  0  0  0  3  0  0  0  0  0  0
   39.5250   30.4910   41.5040 C   0  0  0  0  0  0  0  0  0  0  0  0
   38.1680   30.1260   41.6630 C   0  0  0  0  0  0  0  0  0  0  0  0
   37.3600   30.7140   41.1950 H   0  0  0  0  0  0  0  0  0  0  0  0
   37.6800   29.0530   42.3790 C   0  0  0  0  0  0  0  0  0  0  0  0
   36.4560   28.5680   42.6320 N   0  0  0  0  0  0  0  0  0  0  0  0
   35.5580   28.9710   42.2850 H   0  0  0  0  0  0  0  0  0  0  0  0
   36.5830   27.4760   43.4040 C   0  0  0  0  0  0  0  0  0  0  0  0
   35.7290   26.9050   43.7430 H   0  0  0  0  0  0  0  0  0  0  0  0
   37.9060   27.2460   43.6600 C   0  0  0  0  0  3  0  0  0  0  0  0
   38.5830   28.2410   43.0140 C   0  0  0  0  0  0  0  0  0  0  0  0
   39.9250   28.5060   42.9240 C   0  0  0  0  0  3  0  0  0  0  0  0
  1  2  2  0  0  0  0
  1  6  1  0  0  0  0
  2  3  1  0  0  0  0
  3  4  2  0  0  0  0
  3 25  1  0  0  0  0
  5  8  1  0  0  0  0
  5  4  1  0  0  0  0
  6  5  2  0  0  0  0
  7  1  1  0  0  0  0
  9  2  1  0  0  0  0
 10  9  1  0  0  0  0
 10 16  1  0  0  0  0
 11 17  1  0  0  0  0
 11 10  1  0  0  0  0
 12 11  1  0  0  0  0
 12 13  1  0  0  0  0
 13 14  1  0  0  0  0
 14  9  1  0  0  0  0
 14 23  1  0  0  0  0
 14 22  1  0  0  0  0
 15 10  1  0  0  0  0
 18 11  1  0  0  0  0
 19 12  1  0  0  0  0
 20 13  1  0  0  0  0
 21 13  1  0  0  0  0
 24 35  1  0  0  0  0
 25 26  1  0  0  0  0
 25 24  2  0  0  0  0
 26 28  2  0  0  0  0
 27 26  1  0  0  0  0
 28 29  1  0  0  0  0
 28 34  1  0  0  0  0
 29 31  1  0  0  0  0
 30 29  1  0  0  0  0
 31 33  2  0  0  0  0
 31 32  1  0  0  0  0
 34 33  1  0  0  0  0
 35 34  2  0  0  0  0
M  END
>  <minimizedAffinity>
-5.35309315

$$$$

 OpenBabel03242523043D

 35 38  0  0  0  0  0  0  0  0999 V2000
   41.0930   31.9370   41.2360 C   0  0  0  0  0  0  0  0  0  0  0  0
   39.9970   31.0890   41.2150 C   0  0  0  0  0  0  0  0  0  0  0  0
   40.0290   30.0130   42.0740 C   0  0  0  0  0  0  0  0  0  0  0  0
   41.1140   29.8330   42.8960 N   0  0  0  0  0  0  0  0  0  0  0  0
   42.1640   30.6790   42.8900 C   0  0  0  0  0  0  0  0  0  0  0  0
   42.1520   31.7190   42.0690 N   0  0  0  0  0  0  0  0  0  0  0  0
   41.2250   32.8200   40.6300 H   0  0  0  0  0  0  0  0  0  0  0  0
   43.0330   30.5580   43.5300 H   0  0  0  0  0  0  0  0  0  0  0  0
   38.9190   31.3840   40.3680 N   0  0  0  0  0  0  0  0  0  0  0  0
   38.0700   32.4660   40.5780 C   0  0  0  0  0  0  0  0  0  0  0  0
   37.2260   32.9150   39.4110 C   0  0  0  0  0  0  0  0  0  0  0  0
   37.7090   32.6810   38.1270 N   0  0  0  0  0  0  0  0  0  0  0  0
   38.4390   31.4920   37.9500 C   0  0  0  0  0  0  0  0  0  0  0  0
   38.5440   30.6400   39.2020 C   0  0  0  0  0  0  0  0  0  0  0  0
   38.6600   33.3420   40.8710 H   0  0  0  0  0  0  0  0  0  0  0  0
   37.2270   32.2030   41.2960 H   0  0  0  0  0  0  0  0  0  0  0  0
   36.1720   32.4940   39.4450 H   0  0  0  0  0  0  0  0  0  0  0  0
   37.0530   34.0120   39.5260 H   0  0  0  0  0  0  0  0  0  0  0  0
   36.9770   32.8470   37.4320 H   0  0  0  0  0  0  0  0  0  0  0  0
   39.4810   31.7260   37.6320 H   0  0  0  0  0  0  0  0  0  0  0  0
   37.9580   30.8770   37.1910 H   0  0  0  0  0  0  0  0  0  0  0  0
   39.1020   29.7240   39.0410 H   0  0  0  0  0  0  0  0  0  0  0  0
   37.4820   30.2920   39.3960 H   0  0  0  0  0  0  0  0  0  0  0  0
   37.9780   28.7710   43.0960 C   0  0  0  0  0  3  0  0  0  0  0  0
   39.0960   28.9730   42.3090 C   0  0  0  0  0  0  0  0  0  0  0  0
   39.3660   27.7960   41.5750 C   0  0  0  0  0  0  0  0  0  0  0  0
   40.2200   27.7410   40.8780 H   0  0  0  0  0  0  0  0  0  0  0  0
   38.6520   26.6160   41.6150 C   0  0  0  0  0  0  0  0  0  0  0  0
   38.7620   25.4290   41.0020 N   0  0  0  0  0  0  0  0  0  0  0  0
   39.4960   25.1670   40.3090 H   0  0  0  0  0  0  0  0  0  0  0  0
   37.7670   24.6350   41.4340 C   0  0  0  0  0  0  0  0  0  0  0  0
   37.6440   23.6190   41.0820 H   0  0  0  0  0  0  0  0  0  0  0  0
   36.9990   25.3130   42.3380 C   0  0  0  0  0  3  0  0  0  0  0  0
   37.5620   26.5530   42.4430 C   0  0  0  0  0  0  0  0  0  0  0  0
   37.2120   27.6410   43.1990 C   0  0  0  0  0  3  0  0  0  0  0  0
  1  6  1  0  0  0  0
  2  1  2  0  0  0  0
  2  3  1  0  0  0  0
  3 25  1  0  0  0  0
  3  4  2  0  0  0  0
  5  4  1  0  0  0  0
  5  8  1  0  0  0  0
  6  5  2  0  0  0  0
  7  1  1  0  0  0  0
  9 10  1  0  0  0  0
  9  2  1  0  0  0  0
 10 15  1  0  0  0  0
 10 16  1  0  0  0  0
 11 17  1  0  0  0  0
 11 18  1  0  0  0  0
 11 10  1  0  0  0  0
 12 11  1  0  0  0  0
 13 12  1  0  0  0  0
 13 14  1  0  0  0  0
 14 23  1  0  0  0  0
 14  9  1  0  0  0  0
 19 12  1  0  0  0  0
 20 13  1  0  0  0  0
 21 13  1  0  0  0  0
 22 14  1  0  0  0  0
 24 35  1  0  0  0  0
 25 24  2  0  0  0  0
 26 28  2  0  0  0  0
 26 25  1  0  0  0  0
 27 26  1  0  0  0  0
 28 34  1  0  0  0  0
 29 31  1  0  0  0  0
 29 28  1  0  0  0  0
 30 29  1  0  0  0  0
 31 33  2  0  0  0  0
 32 31  1  0  0  0  0
 33 34  1  0  0  0  0
 34 35  2  0  0  0  0
M  END
>  <minimizedAffinity>
-5.28946781

$$$$

 OpenBabel03242523043D

 35 38  0  0  0  0  0  0  0  0999 V2000
   37.5250   31.3030   37.0320 C   0  0  0  0  0  0  0  0  0  0  0  0
   37.8530   31.1650   38.3710 C   0  0  0  0  0  0  0  0  0  0  0  0
   37.5600   29.9540   38.9600 C   0  0  0  0  0  0  0  0  0  0  0  0
   36.9740   28.9610   38.2140 N   0  0  0  0  0  0  0  0  0  0  0  0
   36.6690   29.1310   36.9120 C   0  0  0  0  0  0  0  0  0  0  0  0
   36.9420   30.2890   36.3290 N   0  0  0  0  0  0  0  0  0  0  0  0
   37.6870   32.1810   36.4260 H   0  0  0  0  0  0  0  0  0  0  0  0
   36.2060   28.3610   36.3010 H   0  0  0  0  0  0  0  0  0  0  0  0
   38.4870   32.2250   39.0340 N   0  0  0  0  0  0  0  0  0  0  0  0
   37.7900   33.3070   39.5650 C   0  0  0  0  0  0  0  0  0  0  0  0
   38.5080   34.1540   40.5860 C   0  0  0  0  0  0  0  0  0  0  0  0
   39.4970   33.5500   41.3570 N   0  0  0  0  0  0  0  0  0  0  0  0
   40.2630   32.5630   40.7130 C   0  0  0  0  0  0  0  0  0  0  0  0
   39.8980   32.3500   39.2560 C   0  0  0  0  0  0  0  0  0  0  0  0
   36.8820   32.9480   40.0630 H   0  0  0  0  0  0  0  0  0  0  0  0
   37.6110   34.1130   38.7820 H   0  0  0  0  0  0  0  0  0  0  0  0
   38.9700   35.0870   40.1340 H   0  0  0  0  0  0  0  0  0  0  0  0
   37.7350   34.5750   41.2730 H   0  0  0  0  0  0  0  0  0  0  0  0
   40.0360   34.2540   41.8650 H   0  0  0  0  0  0  0  0  0  0  0  0
   40.1320   31.5810   41.2240 H   0  0  0  0  0  0  0  0  0  0  0  0
   41.3150   32.8440   40.7350 H   0  0  0  0  0  0  0  0  0  0  0  0
   40.5070   31.5920   38.7760 H   0  0  0  0  0  0  0  0  0  0  0  0
   40.1980   33.3170   38.7460 H   0  0  0  0  0  0  0  0  0  0  0  0
   37.5410   29.9350   41.5660 C   0  0  0  0  0  3  0  0  0  0  0  0
   37.7610   29.4810   40.2800 C   0  0  0  0  0  0  0  0  0  0  0  0
   38.3750   28.2090   40.3350 C   0  0  0  0  0  0  0  0  0  0  0  0
   38.6380   27.6610   39.4140 H   0  0  0  0  0  0  0  0  0  0  0  0
   38.7180   27.5060   41.4720 C   0  0  0  0  0  0  0  0  0  0  0  0
   39.2920   26.3180   41.7070 N   0  0  0  0  0  0  0  0  0  0  0  0
   39.6170   25.6440   40.9790 H   0  0  0  0  0  0  0  0  0  0  0  0
   39.3800   26.1440   43.0360 C   0  0  0  0  0  0  0  0  0  0  0  0
   39.8120   25.2540   43.4760 H   0  0  0  0  0  0  0  0  0  0  0  0
   38.8560   27.2310   43.6770 C   0  0  0  0  0  3  0  0  0  0  0  0
   38.4430   28.0770   42.6870 C   0  0  0  0  0  0  0  0  0  0  0  0
   37.8470   29.3100   42.7460 C   0  0  0  0  0  3  0  0  0  0  0  0
  1  2  1  0  0  0  0
  2  3  2  0  0  0  0
  2  9  1  0  0  0  0
  3 25  1  0  0  0  0
  4  3  1  0  0  0  0
  5  4  2  0  0  0  0
  6  5  1  0  0  0  0
  6  1  2  0  0  0  0
  7  1  1  0  0  0  0
  8  5  1  0  0  0  0
  9 14  1  0  0  0  0
  9 10  1  0  0  0  0
 10 15  1  0  0  0  0
 10 11  1  0  0  0  0
 11 18  1  0  0  0  0
 11 12  1  0  0  0  0
 12 19  1  0  0  0  0
 13 21  1  0  0  0  0
 13 20  1  0  0  0  0
 13 12  1  0  0  0  0
 14 13  1  0  0  0  0
 16 10  1  0  0  0  0
 17 11  1  0  0  0  0
 22 14  1  0  0  0  0
 23 14  1  0  0  0  0
 24 35  1  0  0  0  0
 25 26  1  0  0  0  0
 25 24  2  0  0  0  0
 26 28  2  0  0  0  0
 27 26  1  0  0  0  0
 28 29  1  0  0  0  0
 28 34  1  0  0  0  0
 29 31  1  0  0  0  0
 30 29  1  0  0  0  0
 31 32  1  0  0  0  0
 31 33  2  0  0  0  0
 34 35  2  0  0  0  0
 34 33  1  0  0  0  0
M  END
>  <minimizedAffinity>
-5.27793121

$$$$

 OpenBabel03242523043D

 35 38  0  0  0  0  0  0  0  0999 V2000
   37.0970   26.6960   41.2850 C   0  0  0  0  0  0  0  0  0  0  0  0
   37.3210   27.8640   40.5730 C   0  0  0  0  0  0  0  0  0  0  0  0
   37.3770   29.0320   41.3010 C   0  0  0  0  0  0  0  0  0  0  0  0
   37.2170   28.9920   42.6640 N   0  0  0  0  0  0  0  0  0  0  0  0
   37.0010   27.8360   43.3240 C   0  0  0  0  0  0  0  0  0  0  0  0
   36.9410   26.7020   42.6410 N   0  0  0  0  0  0  0  0  0  0  0  0
   37.0250   25.7030   40.8700 H   0  0  0  0  0  0  0  0  0  0  0  0
   36.8710   27.7770   44.4010 H   0  0  0  0  0  0  0  0  0  0  0  0
   37.5130   27.7950   39.1860 N   0  0  0  0  0  0  0  0  0  0  0  0
   36.4620   27.8560   38.2760 C   0  0  0  0  0  0  0  0  0  0  0  0
   36.8090   28.1810   36.8440 C   0  0  0  0  0  0  0  0  0  0  0  0
   37.9490   28.9430   36.6050 N   0  0  0  0  0  0  0  0  0  0  0  0
   39.0300   28.7250   37.4780 C   0  0  0  0  0  0  0  0  0  0  0  0
   38.7750   27.6540   38.5220 C   0  0  0  0  0  0  0  0  0  0  0  0
   35.7500   28.6290   38.5900 H   0  0  0  0  0  0  0  0  0  0  0  0
   35.9990   26.8310   38.1030 H   0  0  0  0  0  0  0  0  0  0  0  0
   36.8930   27.2540   36.1940 H   0  0  0  0  0  0  0  0  0  0  0  0
   35.9330   28.7100   36.4000 H   0  0  0  0  0  0  0  0  0  0  0  0
   38.1860   28.9310   35.6110 H   0  0  0  0  0  0  0  0  0  0  0  0
   39.2710   29.6620   38.0300 H   0  0  0  0  0  0  0  0  0  0  0  0
   39.9010   28.4060   36.9080 H   0  0  0  0  0  0  0  0  0  0  0  0
   39.6240   27.4960   39.1780 H   0  0  0  0  0  0  0  0  0  0  0  0
   38.6960   26.6930   37.9270 H   0  0  0  0  0  0  0  0  0  0  0  0
   36.8740   31.3730   40.2700 C   0  0  0  0  0  3  0  0  0  0  0  0
   37.5910   30.3750   40.9030 C   0  0  0  0  0  0  0  0  0  0  0  0
   38.8910   30.8500   41.1930 C   0  0  0  0  0  0  0  0  0  0  0  0
   39.6310   30.2100   41.7030 H   0  0  0  0  0  0  0  0  0  0  0  0
   39.3970   32.1000   40.9040 C   0  0  0  0  0  0  0  0  0  0  0  0
   40.5760   32.7070   41.1010 N   0  0  0  0  0  0  0  0  0  0  0  0
   41.4100   32.2810   41.5620 H   0  0  0  0  0  0  0  0  0  0  0  0
   40.5010   33.9520   40.6030 C   0  0  0  0  0  0  0  0  0  0  0  0
   41.3340   34.6420   40.6430 H   0  0  0  0  0  0  0  0  0  0  0  0
   39.2580   34.1610   40.0750 C   0  0  0  0  0  3  0  0  0  0  0  0
   38.5750   32.9950   40.2700 C   0  0  0  0  0  0  0  0  0  0  0  0
   37.2930   32.6350   39.9440 C   0  0  0  0  0  3  0  0  0  0  0  0
  1  6  1  0  0  0  0
  2  1  2  0  0  0  0
  2  3  1  0  0  0  0
  3  4  2  0  0  0  0
  4  5  1  0  0  0  0
  5  8  1  0  0  0  0
  6  5  2  0  0  0  0
  7  1  1  0  0  0  0
  9  2  1  0  0  0  0
 10 15  1  0  0  0  0
 10  9  1  0  0  0  0
 11 10  1  0  0  0  0
 12 11  1  0  0  0  0
 12 13  1  0  0  0  0
 13 20  1  0  0  0  0
 13 14  1  0  0  0  0
 14 22  1  0  0  0  0
 14  9  1  0  0  0  0
 16 10  1  0  0  0  0
 17 11  1  0  0  0  0
 18 11  1  0  0  0  0
 19 12  1  0  0  0  0
 21 13  1  0  0  0  0
 23 14  1  0  0  0  0
 24 25  1  0  0  0  0
 25 26  2  0  0  0  0
 25  3  1  0  0  0  0
 26 27  1  0  0  0  0
 28 29  1  0  0  0  0
 28 26  1  0  0  0  0
 29 30  1  0  0  0  0
 31 32  1  0  0  0  0
 31 29  1  0  0  0  0
 33 34  1  0  0  0  0
 33 31  2  0  0  0  0
 34 28  2  0  0  0  0
 35 34  1  0  0  0  0
 35 24  2  0  0  0  0
M  END
>  <minimizedAffinity>
-5.23891592

$$$$

 OpenBabel03242523043D

 35 38  0  0  0  0  0  0  0  0999 V2000
   41.0910   31.0920   37.3620 C   0  0  0  0  0  0  0  0  0  0  0  0
   40.3640   30.9890   38.5380 C   0  0  0  0  0  0  0  0  0  0  0  0
   40.6300   29.9010   39.3380 C   0  0  0  0  0  0  0  0  0  0  0  0
   41.5810   28.9890   38.9510 N   0  0  0  0  0  0  0  0  0  0  0  0
   42.2710   29.1210   37.8000 C   0  0  0  0  0  0  0  0  0  0  0  0
   42.0270   30.1610   37.0160 N   0  0  0  0  0  0  0  0  0  0  0  0
   41.0060   31.8780   36.6290 H   0  0  0  0  0  0  0  0  0  0  0  0
   43.0280   28.4140   37.4720 H   0  0  0  0  0  0  0  0  0  0  0  0
   39.4430   31.9950   38.8630 N   0  0  0  0  0  0  0  0  0  0  0  0
   38.1290   31.9920   38.4040 C   0  0  0  0  0  0  0  0  0  0  0  0
   37.1440   32.8720   39.1320 C   0  0  0  0  0  0  0  0  0  0  0  0
   37.3850   33.1530   40.4730 N   0  0  0  0  0  0  0  0  0  0  0  0
   38.7350   33.2880   40.8420 C   0  0  0  0  0  0  0  0  0  0  0  0
   39.7090   33.1370   39.6870 C   0  0  0  0  0  0  0  0  0  0  0  0
   37.7220   30.9760   38.4690 H   0  0  0  0  0  0  0  0  0  0  0  0
   38.0450   32.4690   37.3750 H   0  0  0  0  0  0  0  0  0  0  0  0
   36.9820   33.8690   38.6130 H   0  0  0  0  0  0  0  0  0  0  0  0
   36.1410   32.3910   39.0490 H   0  0  0  0  0  0  0  0  0  0  0  0
   36.7710   33.9030   40.7990 H   0  0  0  0  0  0  0  0  0  0  0  0
   39.0070   32.5130   41.5940 H   0  0  0  0  0  0  0  0  0  0  0  0
   38.9020   34.2770   41.2650 H   0  0  0  0  0  0  0  0  0  0  0  0
   40.7430   33.2540   39.9910 H   0  0  0  0  0  0  0  0  0  0  0  0
   39.5060   34.0370   39.0280 H   0  0  0  0  0  0  0  0  0  0  0  0
   40.4760   29.4960   41.9090 C   0  0  0  0  0  3  0  0  0  0  0  0
   40.0860   29.4970   40.5830 C   0  0  0  0  0  0  0  0  0  0  0  0
   38.8070   28.9040   40.4740 C   0  0  0  0  0  0  0  0  0  0  0  0
   38.3050   28.8050   39.4970 H   0  0  0  0  0  0  0  0  0  0  0  0
   38.0430   28.3940   41.5040 C   0  0  0  0  0  0  0  0  0  0  0  0
   36.8390   27.8110   41.5820 N   0  0  0  0  0  0  0  0  0  0  0  0
   36.2010   27.6210   40.7790 H   0  0  0  0  0  0  0  0  0  0  0  0
   36.5950   27.5120   42.8690 C   0  0  0  0  0  0  0  0  0  0  0  0
   35.6800   27.0310   43.1880 H   0  0  0  0  0  0  0  0  0  0  0  0
   37.6530   27.9060   43.6400 C   0  0  0  0  0  3  0  0  0  0  0  0
   38.5530   28.4580   42.7740 C   0  0  0  0  0  0  0  0  0  0  0  0
   39.7870   29.0150   42.9900 C   0  0  0  0  0  3  0  0  0  0  0  0
  1  2  1  0  0  0  0
  2  9  1  0  0  0  0
  2  3  2  0  0  0  0
  3 25  1  0  0  0  0
  4  3  1  0  0  0  0
  5  4  2  0  0  0  0
  6  1  2  0  0  0  0
  6  5  1  0  0  0  0
  7  1  1  0  0  0  0
  8  5  1  0  0  0  0
  9 14  1  0  0  0  0
 10 15  1  0  0  0  0
 10  9  1  0  0  0  0
 10 11  1  0  0  0  0
 11 12  1  0  0  0  0
 12 19  1  0  0  0  0
 12 13  1  0  0  0  0
 13 21  1  0  0  0  0
 13 20  1  0  0  0  0
 14 22  1  0  0  0  0
 14 13  1  0  0  0  0
 16 10  1  0  0  0  0
 17 11  1  0  0  0  0
 18 11  1  0  0  0  0
 23 14  1  0  0  0  0
 24 35  1  0  0  0  0
 25 24  2  0  0  0  0
 26 25  1  0  0  0  0
 26 28  2  0  0  0  0
 27 26  1  0  0  0  0
 28 29  1  0  0  0  0
 28 34  1  0  0  0  0
 29 31  1  0  0  0  0
 30 29  1  0  0  0  0
 31 32  1  0  0  0  0
 31 33  2  0  0  0  0
 34 35  2  0  0  0  0
 34 33  1  0  0  0  0
M  END
>  <minimizedAffinity>
-5.2302351

$$$$

 OpenBabel03242523043D

 35 38  0  0  0  0  0  0  0  0999 V2000
   36.0160   29.8010   37.6970 C   0  0  0  0  0  0  0  0  0  0  0  0
   36.6900   29.6580   38.9000 C   0  0  0  0  0  0  0  0  0  0  0  0
   36.5810   28.4390   39.5300 C   0  0  0  0  0  0  0  0  0  0  0  0
   35.8330   27.4410   38.9550 N   0  0  0  0  0  0  0  0  0  0  0  0
   35.1910   27.6150   37.7820 C   0  0  0  0  0  0  0  0  0  0  0  0
   35.2820   28.7830   37.1620 N   0  0  0  0  0  0  0  0  0  0  0  0
   35.9980   30.6860   37.0800 H   0  0  0  0  0  0  0  0  0  0  0  0
   34.5930   26.8420   37.3070 H   0  0  0  0  0  0  0  0  0  0  0  0
   37.4620   30.7240   39.3830 N   0  0  0  0  0  0  0  0  0  0  0  0
   38.8320   30.8230   39.1620 C   0  0  0  0  0  0  0  0  0  0  0  0
   39.4660   32.1770   39.3640 C   0  0  0  0  0  0  0  0  0  0  0  0
   38.6720   33.3050   39.1750 N   0  0  0  0  0  0  0  0  0  0  0  0
   37.3240   33.1810   39.5570 C   0  0  0  0  0  0  0  0  0  0  0  0
   36.9730   31.8300   40.1520 C   0  0  0  0  0  0  0  0  0  0  0  0
   39.0560   30.5440   38.1260 H   0  0  0  0  0  0  0  0  0  0  0  0
   39.4250   30.2480   39.9440 H   0  0  0  0  0  0  0  0  0  0  0  0
   39.9490   32.2860   40.3860 H   0  0  0  0  0  0  0  0  0  0  0  0
   40.3400   32.2440   38.6740 H   0  0  0  0  0  0  0  0  0  0  0  0
   39.1460   34.1410   39.5250 H   0  0  0  0  0  0  0  0  0  0  0  0
   36.6610   33.3260   38.6740 H   0  0  0  0  0  0  0  0  0  0  0  0
   37.0890   33.9280   40.3130 H   0  0  0  0  0  0  0  0  0  0  0  0
   35.9320   31.7600   40.4480 H   0  0  0  0  0  0  0  0  0  0  0  0
   37.5470   31.7940   41.1290 H   0  0  0  0  0  0  0  0  0  0  0  0
   36.8450   28.0430   42.0930 C   0  0  0  0  0  3  0  0  0  0  0  0
   37.1320   27.9580   40.7440 C   0  0  0  0  0  0  0  0  0  0  0  0
   38.3140   27.2030   40.5670 C   0  0  0  0  0  0  0  0  0  0  0  0
   38.7240   27.0110   39.5610 H   0  0  0  0  0  0  0  0  0  0  0  0
   39.0850   26.6310   41.5590 C   0  0  0  0  0  0  0  0  0  0  0  0
   40.2080   25.9000   41.5740 N   0  0  0  0  0  0  0  0  0  0  0  0
   40.7550   25.6070   40.7350 H   0  0  0  0  0  0  0  0  0  0  0  0
   40.5100   25.6110   42.8510 C   0  0  0  0  0  0  0  0  0  0  0  0
   41.3800   25.0270   43.1210 H   0  0  0  0  0  0  0  0  0  0  0  0
   39.5710   26.1600   43.6790 C   0  0  0  0  0  3  0  0  0  0  0  0
   38.6830   26.7950   42.8590 C   0  0  0  0  0  0  0  0  0  0  0  0
   37.5480   27.5100   43.1400 C   0  0  0  0  0  3  0  0  0  0  0  0
  1  2  1  0  0  0  0
  2  9  1  0  0  0  0
  2  3  2  0  0  0  0
  3 25  1  0  0  0  0
  4  3  1  0  0  0  0
  5  4  2  0  0  0  0
  6  1  2  0  0  0  0
  6  5  1  0  0  0  0
  7  1  1  0  0  0  0
  8  5  1  0  0  0  0
  9 14  1  0  0  0  0
 10 11  1  0  0  0  0
 10  9  1  0  0  0  0
 10 16  1  0  0  0  0
 11 17  1  0  0  0  0
 12 11  1  0  0  0  0
 12 19  1  0  0  0  0
 12 13  1  0  0  0  0
 13 14  1  0  0  0  0
 13 21  1  0  0  0  0
 14 22  1  0  0  0  0
 14 23  1  0  0  0  0
 15 10  1  0  0  0  0
 18 11  1  0  0  0  0
 20 13  1  0  0  0  0
 24 35  1  0  0  0  0
 25 24  2  0  0  0  0
 26 25  1  0  0  0  0
 26 28  2  0  0  0  0
 27 26  1  0  0  0  0
 28 29  1  0  0  0  0
 28 34  1  0  0  0  0
 29 31  1  0  0  0  0
 30 29  1  0  0  0  0
 31 32  1  0  0  0  0
 31 33  2  0  0  0  0
 34 35  2  0  0  0  0
 34 33  1  0  0  0  0
M  END
>  <minimizedAffinity>
-5.2072382

$$$$
