
 OpenBabel03252509263D

 33 36  0  0  1  0  0  0  0  0999 V2000
   46.4690   34.9660   42.0240 C   0  0  1  0  0  0  0  0  0  0  0  0
   47.9430   35.4500   41.9510 C   0  0  0  0  0  0  0  0  0  0  0  0
   47.3780   34.1180   41.3700 C   0  0  2  0  0  0  0  0  0  0  0  0
   45.7840   35.6510   41.4960 H   0  0  0  0  0  0  0  0  0  0  0  0
   48.5760   35.3560   42.8380 H   0  0  0  0  0  0  0  0  0  0  0  0
   48.1480   36.2430   41.2140 H   0  0  0  0  0  0  0  0  0  0  0  0
   47.7600   33.2030   41.9140 H   0  0  0  0  0  0  0  0  0  0  0  0
   44.7670   35.0770   45.3670 C   0  0  0  0  0  0  0  0  0  0  0  0
   45.1130   35.4480   44.0390 C   0  0  0  0  0  0  0  0  0  0  0  0
   46.0740   34.6890   43.4570 C   0  0  0  0  0  0  0  0  0  0  0  0
   46.6800   33.6310   44.1070 N   0  0  0  0  0  0  0  0  0  0  0  0
   46.3220   33.3110   45.3750 C   0  0  0  0  0  0  0  0  0  0  0  0
   45.3590   34.0420   46.0050 N   0  0  0  0  0  0  0  0  0  0  0  0
   43.9990   35.6800   45.8370 H   0  0  0  0  0  0  0  0  0  0  0  0
   46.7470   32.5100   45.9340 H   0  0  0  0  0  0  0  0  0  0  0  0
   44.5180   36.5410   43.3890 N   0  0  0  0  0  0  0  0  0  0  0  0
   43.5670   36.6180   42.9650 H   0  0  0  0  0  0  0  0  0  0  0  0
   45.1680   37.3820   43.3490 H   0  0  0  0  0  0  0  0  0  0  0  0
   47.3540   33.9410   39.8700 C   0  0  0  0  0  0  0  0  0  0  0  0
   46.4140   33.4000   39.6460 H   0  0  0  0  0  0  0  0  0  0  0  0
   47.3170   34.9160   39.3420 H   0  0  0  0  0  0  0  0  0  0  0  0
   48.8220   32.7860   38.1600 C   0  0  0  0  0  3  0  0  0  0  0  0
   48.4800   33.0910   39.4550 C   0  0  0  0  0  0  0  0  0  0  0  0
   49.2590   32.5560   40.4760 C   0  0  0  0  0  0  0  0  0  0  0  0
   49.0640   32.7420   41.5220 H   0  0  0  0  0  0  0  0  0  0  0  0
   50.3450   31.7410   40.2260 C   0  0  0  0  0  0  0  0  0  0  0  0
   51.2400   31.1100   41.0050 N   0  0  0  0  0  0  0  0  0  0  0  0
   51.2340   31.1560   42.0630 H   0  0  0  0  0  0  0  0  0  0  0  0
   52.1230   30.4250   40.2590 C   0  0  0  0  0  0  0  0  0  0  0  0
   52.9330   29.8430   40.6910 H   0  0  0  0  0  0  0  0  0  0  0  0
   51.8070   30.6060   38.9290 C   0  0  0  0  0  3  0  0  0  0  0  0
   50.6900   31.4340   38.9310 C   0  0  0  0  0  0  0  0  0  0  0  0
   49.9130   31.9680   37.9180 C   0  0  0  0  0  3  0  0  0  0  0  0
  1  4  1  6  0  0  0
  1 10  1  0  0  0  0
  2  1  1  0  0  0  0
  2  5  1  0  0  0  0
  3  7  1  1  0  0  0
  3  2  1  0  0  0  0
  3  1  1  0  0  0  0
  6  2  1  0  0  0  0
  8 14  1  0  0  0  0
  8 13  1  0  0  0  0
  9  8  2  0  0  0  0
 10  9  1  0  0  0  0
 10 11  2  0  0  0  0
 11 12  1  0  0  0  0
 12 15  1  0  0  0  0
 12 13  2  0  0  0  0
 16  9  1  0  0  0  0
 17 16  1  0  0  0  0
 18 16  1  0  0  0  0
 19  3  1  0  0  0  0
 20 19  1  0  0  0  0
 21 19  1  0  0  0  0
 22 23  1  0  0  0  0
 23 19  1  0  0  0  0
 23 24  2  0  0  0  0
 24 25  1  0  0  0  0
 26 24  1  0  0  0  0
 26 27  1  0  0  0  0
 27 28  1  0  0  0  0
 29 30  1  0  0  0  0
 29 27  1  0  0  0  0
 31 32  1  0  0  0  0
 31 29  2  0  0  0  0
 32 26  2  0  0  0  0
 33 22  2  0  0  0  0
 33 32  1  0  0  0  0
M  END
>  <minimizedAffinity>
-5.13031387

>  <minimizedRMSD>
1.17642283

$$$$
