
 OpenBabel03252509263D

 33 36  0  0  1  0  0  0  0  0999 V2000
   46.3320   34.9210   42.0060 C   0  0  1  0  0  0  0  0  0  0  0  0
   47.8660   35.1550   41.9520 C   0  0  0  0  0  0  0  0  0  0  0  0
   47.1040   33.8980   41.4330 C   0  0  2  0  0  0  0  0  0  0  0  0
   45.7800   35.6730   41.4170 H   0  0  0  0  0  0  0  0  0  0  0  0
   48.4550   35.0160   42.8630 H   0  0  0  0  0  0  0  0  0  0  0  0
   48.2140   35.8550   41.1760 H   0  0  0  0  0  0  0  0  0  0  0  0
   47.3190   32.9690   42.0420 H   0  0  0  0  0  0  0  0  0  0  0  0
   44.6080   35.5280   45.2840 C   0  0  0  0  0  0  0  0  0  0  0  0
   45.0400   35.7520   43.9490 C   0  0  0  0  0  0  0  0  0  0  0  0
   45.8650   34.8040   43.4400 C   0  0  0  0  0  0  0  0  0  0  0  0
   46.2630   33.6980   44.1650 N   0  0  0  0  0  0  0  0  0  0  0  0
   45.8290   33.5220   45.4380 C   0  0  0  0  0  0  0  0  0  0  0  0
   44.9960   34.4460   45.9960 N   0  0  0  0  0  0  0  0  0  0  0  0
   43.9480   36.2820   45.6960 H   0  0  0  0  0  0  0  0  0  0  0  0
   46.0960   32.6950   46.0540 H   0  0  0  0  0  0  0  0  0  0  0  0
   44.6590   36.8910   43.2210 N   0  0  0  0  0  0  0  0  0  0  0  0
   43.7450   37.1060   42.7650 H   0  0  0  0  0  0  0  0  0  0  0  0
   45.4470   37.6030   43.1530 H   0  0  0  0  0  0  0  0  0  0  0  0
   47.0840   33.6320   39.9460 C   0  0  0  0  0  0  0  0  0  0  0  0
   46.0970   33.1740   39.7350 H   0  0  0  0  0  0  0  0  0  0  0  0
   47.1530   34.5710   39.3600 H   0  0  0  0  0  0  0  0  0  0  0  0
   48.3190   31.4400   40.2250 C   0  0  0  0  0  3  0  0  0  0  0  0
   48.1250   32.6490   39.6060 C   0  0  0  0  0  0  0  0  0  0  0  0
   48.9800   32.9910   38.5630 C   0  0  0  0  0  0  0  0  0  0  0  0
   48.9010   33.9220   38.0190 H   0  0  0  0  0  0  0  0  0  0  0  0
   50.0000   32.1600   38.1420 C   0  0  0  0  0  0  0  0  0  0  0  0
   50.9400   32.2450   37.1870 N   0  0  0  0  0  0  0  0  0  0  0  0
   51.0450   33.0730   36.5360 H   0  0  0  0  0  0  0  0  0  0  0  0
   51.7140   31.1450   37.1800 C   0  0  0  0  0  0  0  0  0  0  0  0
   52.5360   31.0090   36.4850 H   0  0  0  0  0  0  0  0  0  0  0  0
   51.2710   30.2930   38.1700 C   0  0  0  0  0  3  0  0  0  0  0  0
   50.1960   30.9480   38.7600 C   0  0  0  0  0  0  0  0  0  0  0  0
   49.3450   30.6120   39.7970 C   0  0  0  0  0  3  0  0  0  0  0  0
  1  4  1  6  0  0  0
  1 10  1  0  0  0  0
  2  1  1  0  0  0  0
  2  5  1  0  0  0  0
  3  2  1  0  0  0  0
  3  1  1  0  0  0  0
  3  7  1  1  0  0  0
  6  2  1  0  0  0  0
  8 14  1  0  0  0  0
  8 13  1  0  0  0  0
  9  8  2  0  0  0  0
 10  9  1  0  0  0  0
 10 11  2  0  0  0  0
 11 12  1  0  0  0  0
 12 13  2  0  0  0  0
 12 15  1  0  0  0  0
 16  9  1  0  0  0  0
 17 16  1  0  0  0  0
 18 16  1  0  0  0  0
 19  3  1  0  0  0  0
 20 19  1  0  0  0  0
 21 19  1  0  0  0  0
 23 19  1  0  0  0  0
 23 22  2  0  0  0  0
 24 23  1  0  0  0  0
 25 24  1  0  0  0  0
 26 24  2  0  0  0  0
 26 32  1  0  0  0  0
 27 26  1  0  0  0  0
 28 27  1  0  0  0  0
 29 27  1  0  0  0  0
 29 31  2  0  0  0  0
 30 29  1  0  0  0  0
 31 32  1  0  0  0  0
 32 33  2  0  0  0  0
 33 22  1  0  0  0  0
M  END
>  <minimizedAffinity>
-5.14751101

>  <minimizedRMSD>
0.316555947

$$$$
