
 OpenBabel03252508573D

 27 29  0  0  0  0  0  0  0  0999 V2000
   36.1720   28.0290   41.8280 C   0  0  0  0  0  0  0  0  0  0  0  0
   36.3100   27.0330   41.3980 H   0  0  0  0  0  0  0  0  0  0  0  0
   35.1440   28.1870   42.1760 H   0  0  0  0  0  0  0  0  0  0  0  0
   36.6880   28.8180   39.4680 C   0  0  0  0  0  3  0  0  0  0  0  0
   36.4860   29.0690   40.7970 C   0  0  0  0  0  0  0  0  0  0  0  0
   36.5810   30.3850   41.2210 C   0  0  0  0  0  0  0  0  0  0  0  0
   36.4300   30.6280   42.2590 H   0  0  0  0  0  0  0  0  0  0  0  0
   36.8650   31.4240   40.3600 C   0  0  0  0  0  0  0  0  0  0  0  0
   37.0040   32.7510   40.5420 N   0  0  0  0  0  0  0  0  0  0  0  0
   36.9100   33.2630   41.4600 H   0  0  0  0  0  0  0  0  0  0  0  0
   37.2880   33.3390   39.3550 C   0  0  0  0  0  0  0  0  0  0  0  0
   37.4570   34.3880   39.1580 H   0  0  0  0  0  0  0  0  0  0  0  0
   37.3210   32.3110   38.4150 C   0  0  0  0  0  3  0  0  0  0  0  0
   37.0600   31.1030   39.0170 C   0  0  0  0  0  0  0  0  0  0  0  0
   36.9730   29.8070   38.5620 C   0  0  0  0  0  3  0  0  0  0  0  0
   37.1320   28.1280   42.9990 C   0  0  0  0  0  0  0  0  0  0  0  0
   37.7650   29.0140   42.9330 H   0  0  0  0  0  0  0  0  0  0  0  0
   36.5740   28.1860   43.9710 H   0  0  0  0  0  0  0  0  0  0  0  0
   38.3840   24.6290   42.3320 C   0  0  0  0  0  0  0  0  0  0  0  0
   37.5700   25.7910   42.3210 C   0  0  0  0  0  0  0  0  0  0  0  0
   37.9820   26.9200   43.0140 C   0  0  0  0  0  0  0  0  0  0  0  0
   39.1720   26.8380   43.6800 N   0  0  0  0  0  0  0  0  0  0  0  0
   39.9280   25.7300   43.6790 C   0  0  0  0  0  0  0  0  0  0  0  0
   39.5380   24.6310   43.0100 N   0  0  0  0  0  0  0  0  0  0  0  0
   38.0970   23.7300   41.8040 H   0  0  0  0  0  0  0  0  0  0  0  0
   36.6410   25.7670   41.7660 H   0  0  0  0  0  0  0  0  0  0  0  0
   40.8570   25.7590   44.2350 H   0  0  0  0  0  0  0  0  0  0  0  0
  1  3  1  0  0  0  0
  1 16  1  0  0  0  0
  2  1  1  0  0  0  0
  4  5  1  0  0  0  0
  5  6  2  0  0  0  0
  5  1  1  0  0  0  0
  6  7  1  0  0  0  0
  8  9  1  0  0  0  0
  8  6  1  0  0  0  0
  9 10  1  0  0  0  0
 11  9  1  0  0  0  0
 12 11  1  0  0  0  0
 13 14  1  0  0  0  0
 13 11  2  0  0  0  0
 14  8  2  0  0  0  0
 15 14  1  0  0  0  0
 15  4  2  0  0  0  0
 16 21  1  0  0  0  0
 16 18  1  0  0  0  0
 17 16  1  0  0  0  0
 19 24  1  0  0  0  0
 20 19  2  0  0  0  0
 20 21  1  0  0  0  0
 21 22  2  0  0  0  0
 23 22  1  0  0  0  0
 23 27  1  0  0  0  0
 24 23  2  0  0  0  0
 25 19  1  0  0  0  0
 26 20  1  0  0  0  0
M  END
>  <minimizedAffinity>
-5.52738094

$$$$

 OpenBabel03252508573D

 27 29  0  0  0  0  0  0  0  0999 V2000
   36.5700   28.4620   41.9190 C   0  0  0  0  0  0  0  0  0  0  0  0
   36.7200   27.7480   41.1040 H   0  0  0  0  0  0  0  0  0  0  0  0
   35.5120   28.7240   42.0440 H   0  0  0  0  0  0  0  0  0  0  0  0
   38.6320   29.9450   42.0160 C   0  0  0  0  0  3  0  0  0  0  0  0
   37.3370   29.7160   41.6370 C   0  0  0  0  0  0  0  0  0  0  0  0
   36.6880   30.7230   40.9400 C   0  0  0  0  0  0  0  0  0  0  0  0
   35.6690   30.5850   40.6220 H   0  0  0  0  0  0  0  0  0  0  0  0
   37.2960   31.9190   40.6240 C   0  0  0  0  0  0  0  0  0  0  0  0
   36.8710   33.0170   39.9700 N   0  0  0  0  0  0  0  0  0  0  0  0
   35.9120   33.1550   39.5510 H   0  0  0  0  0  0  0  0  0  0  0  0
   37.8720   33.9300   39.9300 C   0  0  0  0  0  0  0  0  0  0  0  0
   37.8550   34.9120   39.4780 H   0  0  0  0  0  0  0  0  0  0  0  0
   38.9500   33.3490   40.5940 C   0  0  0  0  0  3  0  0  0  0  0  0
   38.6170   32.0910   41.0390 C   0  0  0  0  0  0  0  0  0  0  0  0
   39.2910   31.1130   41.7320 C   0  0  0  0  0  3  0  0  0  0  0  0
   37.0840   27.7890   43.1780 C   0  0  0  0  0  0  0  0  0  0  0  0
   37.8000   28.4180   43.7120 H   0  0  0  0  0  0  0  0  0  0  0  0
   36.2420   27.5640   43.8850 H   0  0  0  0  0  0  0  0  0  0  0  0
   37.6120   24.3070   41.8190 C   0  0  0  0  0  0  0  0  0  0  0  0
   36.9890   25.5280   42.1840 C   0  0  0  0  0  0  0  0  0  0  0  0
   37.7370   26.5190   42.8010 C   0  0  0  0  0  0  0  0  0  0  0  0
   39.0580   26.2500   43.0240 N   0  0  0  0  0  0  0  0  0  0  0  0
   39.6300   25.0890   42.6720 C   0  0  0  0  0  0  0  0  0  0  0  0
   38.9130   24.1220   42.0740 N   0  0  0  0  0  0  0  0  0  0  0  0
   37.0620   23.5100   41.3370 H   0  0  0  0  0  0  0  0  0  0  0  0
   35.9360   25.6560   41.9680 H   0  0  0  0  0  0  0  0  0  0  0  0
   40.6830   24.9650   42.8900 H   0  0  0  0  0  0  0  0  0  0  0  0
  1  3  1  0  0  0  0
  1 16  1  0  0  0  0
  2  1  1  0  0  0  0
  5  1  1  0  0  0  0
  5  4  2  0  0  0  0
  6  5  1  0  0  0  0
  7  6  1  0  0  0  0
  8  6  2  0  0  0  0
  8 14  1  0  0  0  0
  9  8  1  0  0  0  0
 10  9  1  0  0  0  0
 11  9  1  0  0  0  0
 11 13  2  0  0  0  0
 12 11  1  0  0  0  0
 13 14  1  0  0  0  0
 14 15  2  0  0  0  0
 15  4  1  0  0  0  0
 16 17  1  0  0  0  0
 16 18  1  0  0  0  0
 19 24  2  0  0  0  0
 19 20  1  0  0  0  0
 20 21  2  0  0  0  0
 21 22  1  0  0  0  0
 21 16  1  0  0  0  0
 23 27  1  0  0  0  0
 23 22  2  0  0  0  0
 24 23  1  0  0  0  0
 25 19  1  0  0  0  0
 26 20  1  0  0  0  0
M  END
>  <minimizedAffinity>
-5.31531954

$$$$

 OpenBabel03252508573D

 27 29  0  0  0  0  0  0  0  0999 V2000
   39.1500   30.0870   42.7770 C   0  0  0  0  0  0  0  0  0  0  0  0
   39.9880   30.0200   43.4770 H   0  0  0  0  0  0  0  0  0  0  0  0
   38.4310   30.8610   43.0720 H   0  0  0  0  0  0  0  0  0  0  0  0
   37.2680   28.4900   43.3830 C   0  0  0  0  0  3  0  0  0  0  0  0
   38.4330   28.7730   42.7250 C   0  0  0  0  0  0  0  0  0  0  0  0
   38.9920   27.7670   41.9530 C   0  0  0  0  0  0  0  0  0  0  0  0
   39.9090   27.9460   41.4180 H   0  0  0  0  0  0  0  0  0  0  0  0
   38.4200   26.5180   41.8320 C   0  0  0  0  0  0  0  0  0  0  0  0
   38.7760   25.4110   41.1540 N   0  0  0  0  0  0  0  0  0  0  0  0
   39.6320   25.3050   40.5460 H   0  0  0  0  0  0  0  0  0  0  0  0
   37.8580   24.4380   41.3720 C   0  0  0  0  0  0  0  0  0  0  0  0
   37.8500   23.4330   40.9740 H   0  0  0  0  0  0  0  0  0  0  0  0
   36.9050   24.9920   42.2240 C   0  0  0  0  0  3  0  0  0  0  0  0
   37.2320   26.2920   42.5270 C   0  0  0  0  0  0  0  0  0  0  0  0
   36.6500   27.2680   43.3030 C   0  0  0  0  0  3  0  0  0  0  0  0
   39.7470   30.4270   41.4240 C   0  0  0  0  0  0  0  0  0  0  0  0
   40.7890   30.7390   41.5060 H   0  0  0  0  0  0  0  0  0  0  0  0
   39.7140   29.5400   40.7380 H   0  0  0  0  0  0  0  0  0  0  0  0
   37.0850   32.2570   39.4690 C   0  0  0  0  0  0  0  0  0  0  0  0
   37.8480   31.2100   40.0490 C   0  0  0  0  0  0  0  0  0  0  0  0
   38.9560   31.5200   40.8230 C   0  0  0  0  0  0  0  0  0  0  0  0
   39.2520   32.8450   40.9800 N   0  0  0  0  0  0  0  0  0  0  0  0
   38.5190   33.8210   40.4230 C   0  0  0  0  0  0  0  0  0  0  0  0
   37.4420   33.5310   39.6720 N   0  0  0  0  0  0  0  0  0  0  0  0
   36.2140   32.0550   38.8610 H   0  0  0  0  0  0  0  0  0  0  0  0
   37.5410   30.1880   39.8720 H   0  0  0  0  0  0  0  0  0  0  0  0
   38.8300   34.8420   40.6040 H   0  0  0  0  0  0  0  0  0  0  0  0
  1  3  1  0  0  0  0
  1  2  1  0  0  0  0
  5  1  1  0  0  0  0
  5  4  2  0  0  0  0
  6  5  1  0  0  0  0
  7  6  1  0  0  0  0
  8  6  2  0  0  0  0
  8 14  1  0  0  0  0
  9 11  1  0  0  0  0
  9  8  1  0  0  0  0
 10  9  1  0  0  0  0
 11 13  2  0  0  0  0
 12 11  1  0  0  0  0
 13 14  1  0  0  0  0
 14 15  2  0  0  0  0
 15  4  1  0  0  0  0
 16 17  1  0  0  0  0
 16  1  1  0  0  0  0
 18 16  1  0  0  0  0
 19 24  2  0  0  0  0
 19 20  1  0  0  0  0
 20 21  2  0  0  0  0
 21 22  1  0  0  0  0
 21 16  1  0  0  0  0
 23 27  1  0  0  0  0
 23 22  2  0  0  0  0
 24 23  1  0  0  0  0
 25 19  1  0  0  0  0
 26 20  1  0  0  0  0
M  END
>  <minimizedAffinity>
-5.0829339

$$$$

 OpenBabel03252508573D

 27 29  0  0  0  0  0  0  0  0999 V2000
   35.8030   29.5900   40.5530 C   0  0  0  0  0  0  0  0  0  0  0  0
   35.8550   30.3530   41.3360 H   0  0  0  0  0  0  0  0  0  0  0  0
   34.7820   29.4570   40.1780 H   0  0  0  0  0  0  0  0  0  0  0  0
   36.5370   28.0250   42.4160 C   0  0  0  0  0  3  0  0  0  0  0  0
   36.2820   28.2800   41.0970 C   0  0  0  0  0  0  0  0  0  0  0  0
   36.4830   27.2460   40.1960 C   0  0  0  0  0  0  0  0  0  0  0  0
   36.2950   27.4030   39.1470 H   0  0  0  0  0  0  0  0  0  0  0  0
   36.9220   25.9980   40.5830 C   0  0  0  0  0  0  0  0  0  0  0  0
   37.1820   24.8670   39.9000 N   0  0  0  0  0  0  0  0  0  0  0  0
   37.0840   24.7370   38.8570 H   0  0  0  0  0  0  0  0  0  0  0  0
   37.5950   23.9070   40.7630 C   0  0  0  0  0  0  0  0  0  0  0  0
   37.8800   22.8890   40.5360 H   0  0  0  0  0  0  0  0  0  0  0  0
   37.5810   24.4940   42.0260 C   0  0  0  0  0  3  0  0  0  0  0  0
   37.1640   25.8010   41.9430 C   0  0  0  0  0  0  0  0  0  0  0  0
   36.9740   26.8050   42.8640 C   0  0  0  0  0  3  0  0  0  0  0  0
   36.7050   30.0670   39.4300 C   0  0  0  0  0  0  0  0  0  0  0  0
   37.4090   29.2940   39.1180 H   0  0  0  0  0  0  0  0  0  0  0  0
   36.1030   30.3560   38.5280 H   0  0  0  0  0  0  0  0  0  0  0  0
   37.8320   33.6440   39.8600 C   0  0  0  0  0  0  0  0  0  0  0  0
   37.1150   32.5040   39.4140 C   0  0  0  0  0  0  0  0  0  0  0  0
   37.4550   31.2500   39.8980 C   0  0  0  0  0  0  0  0  0  0  0  0
   38.4840   31.1900   40.7940 N   0  0  0  0  0  0  0  0  0  0  0  0
   39.1510   32.2790   41.2050 C   0  0  0  0  0  0  0  0  0  0  0  0
   38.8300   33.4990   40.7420 N   0  0  0  0  0  0  0  0  0  0  0  0
   37.5970   34.6390   39.5060 H   0  0  0  0  0  0  0  0  0  0  0  0
   36.3130   32.6450   38.7010 H   0  0  0  0  0  0  0  0  0  0  0  0
   39.9530   32.1330   41.9180 H   0  0  0  0  0  0  0  0  0  0  0  0
  1  5  1  0  0  0  0
  1  2  1  0  0  0  0
  3  1  1  0  0  0  0
  4 15  1  0  0  0  0
  5  4  2  0  0  0  0
  6  8  2  0  0  0  0
  6  5  1  0  0  0  0
  7  6  1  0  0  0  0
  8 14  1  0  0  0  0
  9  8  1  0  0  0  0
  9 11  1  0  0  0  0
 10  9  1  0  0  0  0
 11 13  2  0  0  0  0
 12 11  1  0  0  0  0
 14 13  1  0  0  0  0
 14 15  2  0  0  0  0
 16 21  1  0  0  0  0
 16  1  1  0  0  0  0
 17 16  1  0  0  0  0
 18 16  1  0  0  0  0
 19 24  1  0  0  0  0
 20 19  2  0  0  0  0
 20 21  1  0  0  0  0
 21 22  2  0  0  0  0
 22 23  1  0  0  0  0
 23 27  1  0  0  0  0
 24 23  2  0  0  0  0
 25 19  1  0  0  0  0
 26 20  1  0  0  0  0
M  END
>  <minimizedAffinity>
-5.0591507

$$$$

 OpenBabel03252508573D

 27 29  0  0  0  0  0  0  0  0999 V2000
   37.0260   28.7090   42.4850 C   0  0  0  0  0  0  0  0  0  0  0  0
   36.9480   27.8900   41.7630 H   0  0  0  0  0  0  0  0  0  0  0  0
   36.0920   28.8560   43.0400 H   0  0  0  0  0  0  0  0  0  0  0  0
   36.4930   30.6640   40.9510 C   0  0  0  0  0  3  0  0  0  0  0  0
   37.3530   29.9820   41.7670 C   0  0  0  0  0  0  0  0  0  0  0  0
   38.6230   30.5090   41.9400 C   0  0  0  0  0  0  0  0  0  0  0  0
   39.3320   30.0040   42.5740 H   0  0  0  0  0  0  0  0  0  0  0  0
   39.0340   31.6740   41.3290 C   0  0  0  0  0  0  0  0  0  0  0  0
   40.1930   32.3590   41.3510 N   0  0  0  0  0  0  0  0  0  0  0  0
   41.0600   32.0920   41.8900 H   0  0  0  0  0  0  0  0  0  0  0  0
   40.0790   33.4580   40.5660 C   0  0  0  0  0  0  0  0  0  0  0  0
   40.8270   34.2130   40.3700 H   0  0  0  0  0  0  0  0  0  0  0  0
   38.7850   33.4280   40.0480 C   0  0  0  0  0  3  0  0  0  0  0  0
   38.1100   32.3230   40.5100 C   0  0  0  0  0  0  0  0  0  0  0  0
   36.8410   31.8280   40.3150 C   0  0  0  0  0  3  0  0  0  0  0  0
   38.1400   28.3320   43.4430 C   0  0  0  0  0  0  0  0  0  0  0  0
   39.0140   28.9750   43.3250 H   0  0  0  0  0  0  0  0  0  0  0  0
   37.7990   28.4210   44.5090 H   0  0  0  0  0  0  0  0  0  0  0  0
   38.0670   24.7790   42.1680 C   0  0  0  0  0  0  0  0  0  0  0  0
   37.6990   26.1260   42.4180 C   0  0  0  0  0  0  0  0  0  0  0  0
   38.5280   26.9300   43.1860 C   0  0  0  0  0  0  0  0  0  0  0  0
   39.6740   26.3600   43.6640 N   0  0  0  0  0  0  0  0  0  0  0  0
   40.0050   25.0840   43.4170 C   0  0  0  0  0  0  0  0  0  0  0  0
   39.2090   24.2960   42.6740 N   0  0  0  0  0  0  0  0  0  0  0  0
   37.4470   24.1210   41.5740 H   0  0  0  0  0  0  0  0  0  0  0  0
   36.7720   26.4950   41.9990 H   0  0  0  0  0  0  0  0  0  0  0  0
   40.9340   24.7190   43.8390 H   0  0  0  0  0  0  0  0  0  0  0  0
  1  3  1  0  0  0  0
  1 16  1  0  0  0  0
  2  1  1  0  0  0  0
  4  5  1  0  0  0  0
  5  6  2  0  0  0  0
  5  1  1  0  0  0  0
  6  7  1  0  0  0  0
  8  9  1  0  0  0  0
  8  6  1  0  0  0  0
  9 10  1  0  0  0  0
 11  9  1  0  0  0  0
 12 11  1  0  0  0  0
 13 14  1  0  0  0  0
 13 11  2  0  0  0  0
 14  8  2  0  0  0  0
 15 14  1  0  0  0  0
 15  4  2  0  0  0  0
 16 18  1  0  0  0  0
 17 16  1  0  0  0  0
 19 20  2  0  0  0  0
 19 24  1  0  0  0  0
 20 21  1  0  0  0  0
 21 16  1  0  0  0  0
 21 22  2  0  0  0  0
 23 22  1  0  0  0  0
 23 27  1  0  0  0  0
 24 23  2  0  0  0  0
 25 19  1  0  0  0  0
 26 20  1  0  0  0  0
M  END
>  <minimizedAffinity>
-5.0379653

$$$$

 OpenBabel03252508573D

 27 29  0  0  0  0  0  0  0  0999 V2000
   37.7970   27.9380   43.3850 C   0  0  0  0  0  0  0  0  0  0  0  0
   37.8450   27.8520   44.4750 H   0  0  0  0  0  0  0  0  0  0  0  0
   36.8170   28.2950   43.0460 H   0  0  0  0  0  0  0  0  0  0  0  0
   39.1750   25.8440   42.9660 C   0  0  0  0  0  3  0  0  0  0  0  0
   38.0530   26.6000   42.7640 C   0  0  0  0  0  0  0  0  0  0  0  0
   37.0820   26.0890   41.9170 C   0  0  0  0  0  0  0  0  0  0  0  0
   36.1830   26.6520   41.7280 H   0  0  0  0  0  0  0  0  0  0  0  0
   37.2110   24.8690   41.2890 C   0  0  0  0  0  0  0  0  0  0  0  0
   36.4160   24.1860   40.4440 N   0  0  0  0  0  0  0  0  0  0  0  0
   35.4730   24.5020   40.0890 H   0  0  0  0  0  0  0  0  0  0  0  0
   37.0140   23.0160   40.1120 C   0  0  0  0  0  0  0  0  0  0  0  0
   36.6400   22.2430   39.4560 H   0  0  0  0  0  0  0  0  0  0  0  0
   38.2290   22.9990   40.7940 C   0  0  0  0  0  3  0  0  0  0  0  0
   38.3780   24.1450   41.5380 C   0  0  0  0  0  0  0  0  0  0  0  0
   39.3620   24.6220   42.3720 C   0  0  0  0  0  3  0  0  0  0  0  0
   38.8730   28.9310   42.9860 C   0  0  0  0  0  0  0  0  0  0  0  0
   39.3200   29.4170   43.8540 H   0  0  0  0  0  0  0  0  0  0  0  0
   39.6990   28.4210   42.4230 H   0  0  0  0  0  0  0  0  0  0  0  0
   36.3320   30.8480   40.9550 C   0  0  0  0  0  0  0  0  0  0  0  0
   36.9190   29.8660   41.7950 C   0  0  0  0  0  0  0  0  0  0  0  0
   38.2660   29.9550   42.1110 C   0  0  0  0  0  0  0  0  0  0  0  0
   38.9590   31.0060   41.5810 N   0  0  0  0  0  0  0  0  0  0  0  0
   38.3870   31.9250   40.7880 C   0  0  0  0  0  0  0  0  0  0  0  0
   37.0820   31.8480   40.4760 N   0  0  0  0  0  0  0  0  0  0  0  0
   35.2850   30.8130   40.6870 H   0  0  0  0  0  0  0  0  0  0  0  0
   36.2940   29.0670   42.1710 H   0  0  0  0  0  0  0  0  0  0  0  0
   39.0160   32.7230   40.4150 H   0  0  0  0  0  0  0  0  0  0  0  0
  1  2  1  0  0  0  0
  3  1  1  0  0  0  0
  5  4  1  0  0  0  0
  5  1  1  0  0  0  0
  6  5  2  0  0  0  0
  7  6  1  0  0  0  0
  8 14  2  0  0  0  0
  8  6  1  0  0  0  0
  9  8  1  0  0  0  0
 10  9  1  0  0  0  0
 11  9  1  0  0  0  0
 11 13  2  0  0  0  0
 12 11  1  0  0  0  0
 13 14  1  0  0  0  0
 14 15  1  0  0  0  0
 15  4  2  0  0  0  0
 16  1  1  0  0  0  0
 16 17  1  0  0  0  0
 18 16  1  0  0  0  0
 19 20  1  0  0  0  0
 20 21  2  0  0  0  0
 20 26  1  0  0  0  0
 21 16  1  0  0  0  0
 22 21  1  0  0  0  0
 23 22  2  0  0  0  0
 24 23  1  0  0  0  0
 24 19  2  0  0  0  0
 25 19  1  0  0  0  0
 27 23  1  0  0  0  0
M  END
>  <minimizedAffinity>
-4.93896484

$$$$

 OpenBabel03252508573D

 27 29  0  0  0  0  0  0  0  0999 V2000
   36.2030   28.0120   41.9130 C   0  0  0  0  0  0  0  0  0  0  0  0
   36.3880   27.0740   41.3810 H   0  0  0  0  0  0  0  0  0  0  0  0
   35.1590   28.1000   42.2350 H   0  0  0  0  0  0  0  0  0  0  0  0
   36.6080   30.4720   41.4190 C   0  0  0  0  0  3  0  0  0  0  0  0
   36.5190   29.1680   41.0150 C   0  0  0  0  0  0  0  0  0  0  0  0
   36.7370   28.8990   39.6730 C   0  0  0  0  0  0  0  0  0  0  0  0
   36.6770   27.8860   39.3120 H   0  0  0  0  0  0  0  0  0  0  0  0
   37.0350   29.8840   38.7560 C   0  0  0  0  0  0  0  0  0  0  0  0
   37.2800   29.8580   37.4330 N   0  0  0  0  0  0  0  0  0  0  0  0
   37.2850   28.9980   36.8200 H   0  0  0  0  0  0  0  0  0  0  0  0
   37.5210   31.1180   36.9970 C   0  0  0  0  0  0  0  0  0  0  0  0
   37.7520   31.4390   35.9900 H   0  0  0  0  0  0  0  0  0  0  0  0
   37.4150   31.9390   38.1170 C   0  0  0  0  0  3  0  0  0  0  0  0
   37.1110   31.1930   39.2310 C   0  0  0  0  0  0  0  0  0  0  0  0
   36.9010   31.4970   40.5560 C   0  0  0  0  0  3  0  0  0  0  0  0
   37.1170   28.0070   43.1240 C   0  0  0  0  0  0  0  0  0  0  0  0
   37.7160   28.9170   43.1860 H   0  0  0  0  0  0  0  0  0  0  0  0
   36.5230   27.9300   44.0730 H   0  0  0  0  0  0  0  0  0  0  0  0
   40.1060   25.7490   43.5940 C   0  0  0  0  0  0  0  0  0  0  0  0
   39.2410   26.8700   43.6800 C   0  0  0  0  0  0  0  0  0  0  0  0
   38.0150   26.8380   43.0320 C   0  0  0  0  0  0  0  0  0  0  0  0
   37.7120   25.7030   42.3340 N   0  0  0  0  0  0  0  0  0  0  0  0
   38.5440   24.6530   42.2640 C   0  0  0  0  0  0  0  0  0  0  0  0
   39.7340   24.6730   42.8890 N   0  0  0  0  0  0  0  0  0  0  0  0
   41.0700   25.7370   44.0860 H   0  0  0  0  0  0  0  0  0  0  0  0
   39.5620   27.7290   44.2550 H   0  0  0  0  0  0  0  0  0  0  0  0
   38.2180   23.7960   41.6870 H   0  0  0  0  0  0  0  0  0  0  0  0
  1  3  1  0  0  0  0
  1 16  1  0  0  0  0
  2  1  1  0  0  0  0
  5  4  1  0  0  0  0
  5  1  1  0  0  0  0
  6  5  2  0  0  0  0
  7  6  1  0  0  0  0
  8 14  2  0  0  0  0
  8  6  1  0  0  0  0
  9  8  1  0  0  0  0
 10  9  1  0  0  0  0
 11  9  1  0  0  0  0
 11 13  2  0  0  0  0
 12 11  1  0  0  0  0
 13 14  1  0  0  0  0
 14 15  1  0  0  0  0
 15  4  2  0  0  0  0
 16 17  1  0  0  0  0
 16 18  1  0  0  0  0
 19 20  1  0  0  0  0
 19 25  1  0  0  0  0
 20 26  1  0  0  0  0
 21 16  1  0  0  0  0
 21 20  2  0  0  0  0
 22 21  1  0  0  0  0
 23 22  2  0  0  0  0
 23 24  1  0  0  0  0
 24 19  2  0  0  0  0
 27 23  1  0  0  0  0
M  END
>  <minimizedAffinity>
-4.90468359

$$$$

 OpenBabel03252508573D

 27 29  0  0  0  0  0  0  0  0999 V2000
   36.2240   30.1580   41.0990 C   0  0  0  0  0  0  0  0  0  0  0  0
   36.9010   30.7810   40.5060 H   0  0  0  0  0  0  0  0  0  0  0  0
   35.6810   30.7430   41.8510 H   0  0  0  0  0  0  0  0  0  0  0  0
   36.4930   27.9130   42.2590 C   0  0  0  0  0  3  0  0  0  0  0  0
   37.0080   29.0950   41.8040 C   0  0  0  0  0  0  0  0  0  0  0  0
   38.3590   29.3260   42.0150 C   0  0  0  0  0  0  0  0  0  0  0  0
   38.8060   30.2450   41.6730 H   0  0  0  0  0  0  0  0  0  0  0  0
   39.1780   28.4200   42.6530 C   0  0  0  0  0  0  0  0  0  0  0  0
   40.4880   28.4290   42.9620 N   0  0  0  0  0  0  0  0  0  0  0  0
   41.1690   29.2060   42.7460 H   0  0  0  0  0  0  0  0  0  0  0  0
   40.8060   27.2770   43.6000 C   0  0  0  0  0  0  0  0  0  0  0  0
   41.7730   26.9740   43.9790 H   0  0  0  0  0  0  0  0  0  0  0  0
   39.6260   26.5410   43.6770 C   0  0  0  0  0  3  0  0  0  0  0  0
   38.5910   27.2320   43.0920 C   0  0  0  0  0  0  0  0  0  0  0  0
   37.2550   26.9700   42.9000 C   0  0  0  0  0  3  0  0  0  0  0  0
   35.2420   29.5410   40.1210 C   0  0  0  0  0  0  0  0  0  0  0  0
   35.0740   28.4820   40.3270 H   0  0  0  0  0  0  0  0  0  0  0  0
   34.2460   30.0560   40.1740 H   0  0  0  0  0  0  0  0  0  0  0  0
   35.6970   29.1470   36.3940 C   0  0  0  0  0  0  0  0  0  0  0  0
   35.1830   29.0040   37.7080 C   0  0  0  0  0  0  0  0  0  0  0  0
   35.7810   29.6920   38.7540 C   0  0  0  0  0  0  0  0  0  0  0  0
   36.8530   30.4810   38.4440 N   0  0  0  0  0  0  0  0  0  0  0  0
   37.3250   30.6030   37.1950 C   0  0  0  0  0  0  0  0  0  0  0  0
   36.7530   29.9410   36.1740 N   0  0  0  0  0  0  0  0  0  0  0  0
   35.2580   28.6270   35.5530 H   0  0  0  0  0  0  0  0  0  0  0  0
   34.3290   28.3580   37.8620 H   0  0  0  0  0  0  0  0  0  0  0  0
   38.1790   31.2510   37.0450 H   0  0  0  0  0  0  0  0  0  0  0  0
  1  5  1  0  0  0  0
  1  3  1  0  0  0  0
  2  1  1  0  0  0  0
  4 15  1  0  0  0  0
  5  6  1  0  0  0  0
  5  4  2  0  0  0  0
  6  8  2  0  0  0  0
  7  6  1  0  0  0  0
  8  9  1  0  0  0  0
  8 14  1  0  0  0  0
  9 11  1  0  0  0  0
 10  9  1  0  0  0  0
 11 13  2  0  0  0  0
 11 12  1  0  0  0  0
 14 13  1  0  0  0  0
 15 14  2  0  0  0  0
 16 18  1  0  0  0  0
 16 17  1  0  0  0  0
 16  1  1  0  0  0  0
 19 20  1  0  0  0  0
 20 26  1  0  0  0  0
 20 21  2  0  0  0  0
 21 16  1  0  0  0  0
 22 21  1  0  0  0  0
 23 22  2  0  0  0  0
 24 19  2  0  0  0  0
 24 23  1  0  0  0  0
 25 19  1  0  0  0  0
 27 23  1  0  0  0  0
M  END
>  <minimizedAffinity>
-4.88696146

$$$$

 OpenBabel03252508573D

 27 29  0  0  0  0  0  0  0  0999 V2000
   36.5750   30.9810   39.6540 C   0  0  0  0  0  0  0  0  0  0  0  0
   36.6770   29.9910   39.2000 H   0  0  0  0  0  0  0  0  0  0  0  0
   35.7830   31.5700   39.1770 H   0  0  0  0  0  0  0  0  0  0  0  0
   38.4340   32.4910   40.5050 C   0  0  0  0  0  3  0  0  0  0  0  0
   37.8650   31.7300   39.5210 C   0  0  0  0  0  0  0  0  0  0  0  0
   38.5330   31.6490   38.3090 C   0  0  0  0  0  0  0  0  0  0  0  0
   38.1200   31.0610   37.5070 H   0  0  0  0  0  0  0  0  0  0  0  0
   39.7270   32.2960   38.0740 C   0  0  0  0  0  0  0  0  0  0  0  0
   40.5360   32.3600   37.0000 N   0  0  0  0  0  0  0  0  0  0  0  0
   40.3770   31.8790   36.0740 H   0  0  0  0  0  0  0  0  0  0  0  0
   41.6030   33.1450   37.2890 C   0  0  0  0  0  0  0  0  0  0  0  0
   42.4340   33.3980   36.6460 H   0  0  0  0  0  0  0  0  0  0  0  0
   41.4210   33.5720   38.6030 C   0  0  0  0  0  3  0  0  0  0  0  0
   40.2550   33.0560   39.1180 C   0  0  0  0  0  0  0  0  0  0  0  0
   39.6190   33.1590   40.3330 C   0  0  0  0  0  3  0  0  0  0  0  0
   36.2360   30.7500   41.1150 C   0  0  0  0  0  0  0  0  0  0  0  0
   36.6650   31.5210   41.7590 H   0  0  0  0  0  0  0  0  0  0  0  0
   35.1250   30.7590   41.2750 H   0  0  0  0  0  0  0  0  0  0  0  0
   38.1190   28.0760   43.0010 C   0  0  0  0  0  0  0  0  0  0  0  0
   37.6120   29.3420   42.6100 C   0  0  0  0  0  0  0  0  0  0  0  0
   36.7620   29.4300   41.5180 C   0  0  0  0  0  0  0  0  0  0  0  0
   36.4610   28.2650   40.8710 N   0  0  0  0  0  0  0  0  0  0  0  0
   36.9510   27.0770   41.2550 C   0  0  0  0  0  0  0  0  0  0  0  0
   37.7750   26.9800   42.3130 N   0  0  0  0  0  0  0  0  0  0  0  0
   38.7840   27.9670   43.8470 H   0  0  0  0  0  0  0  0  0  0  0  0
   37.9030   30.2140   43.1810 H   0  0  0  0  0  0  0  0  0  0  0  0
   36.6570   26.2070   40.6810 H   0  0  0  0  0  0  0  0  0  0  0  0
  1 16  1  0  0  0  0
  2  1  1  0  0  0  0
  3  1  1  0  0  0  0
  5  1  1  0  0  0  0
  5  4  2  0  0  0  0
  6  5  1  0  0  0  0
  7  6  1  0  0  0  0
  8  6  2  0  0  0  0
  8 14  1  0  0  0  0
  9 11  1  0  0  0  0
  9  8  1  0  0  0  0
 10  9  1  0  0  0  0
 11 13  2  0  0  0  0
 12 11  1  0  0  0  0
 13 14  1  0  0  0  0
 14 15  2  0  0  0  0
 15  4  1  0  0  0  0
 16 18  1  0  0  0  0
 16 21  1  0  0  0  0
 16 17  1  0  0  0  0
 19 25  1  0  0  0  0
 20 19  1  0  0  0  0
 20 26  1  0  0  0  0
 21 20  2  0  0  0  0
 22 23  2  0  0  0  0
 22 21  1  0  0  0  0
 23 24  1  0  0  0  0
 24 19  2  0  0  0  0
 27 23  1  0  0  0  0
M  END
>  <minimizedAffinity>
-4.86484241

$$$$
