
 OpenBabel03252509263D

 33 36  0  0  1  0  0  0  0  0999 V2000
   46.5250   35.0090   41.9050 C   0  0  1  0  0  0  0  0  0  0  0  0
   48.0380   35.3610   41.8970 C   0  0  0  0  0  0  0  0  0  0  0  0
   47.3900   34.0560   41.3410 C   0  0  2  0  0  0  0  0  0  0  0  0
   45.9330   35.7250   41.3090 H   0  0  0  0  0  0  0  0  0  0  0  0
   48.6110   35.2550   42.8230 H   0  0  0  0  0  0  0  0  0  0  0  0
   48.3520   36.0970   41.1410 H   0  0  0  0  0  0  0  0  0  0  0  0
   47.6590   33.1390   41.9450 H   0  0  0  0  0  0  0  0  0  0  0  0
   44.6570   35.4230   45.1330 C   0  0  0  0  0  0  0  0  0  0  0  0
   45.1050   35.6990   43.8130 C   0  0  0  0  0  0  0  0  0  0  0  0
   46.0300   34.8360   43.3230 C   0  0  0  0  0  0  0  0  0  0  0  0
   46.5060   33.7650   44.0520 N   0  0  0  0  0  0  0  0  0  0  0  0
   46.0530   33.5370   45.3100 C   0  0  0  0  0  0  0  0  0  0  0  0
   45.1220   34.3750   45.8490 N   0  0  0  0  0  0  0  0  0  0  0  0
   43.9180   36.1090   45.5300 H   0  0  0  0  0  0  0  0  0  0  0  0
   46.3770   32.7330   45.9280 H   0  0  0  0  0  0  0  0  0  0  0  0
   44.6430   36.8040   43.0810 N   0  0  0  0  0  0  0  0  0  0  0  0
   43.7260   36.9390   42.5990 H   0  0  0  0  0  0  0  0  0  0  0  0
   45.3630   37.5870   43.0430 H   0  0  0  0  0  0  0  0  0  0  0  0
   47.4320   33.8110   39.8510 C   0  0  0  0  0  0  0  0  0  0  0  0
   46.5030   33.2580   39.6110 H   0  0  0  0  0  0  0  0  0  0  0  0
   47.4180   34.7610   39.2790 H   0  0  0  0  0  0  0  0  0  0  0  0
   49.3440   32.2560   40.4300 C   0  0  0  0  0  0  0  0  0  0  0  0
   48.5760   32.9450   39.5260 C   0  0  0  0  0  0  0  0  0  0  0  0
   48.8940   32.8240   38.1770 C   0  0  0  0  0  0  0  0  0  0  0  0
   48.3440   33.3290   37.3950 H   0  0  0  0  0  0  0  0  0  0  0  0
   49.9430   32.0430   37.7330 C   0  0  0  0  0  0  0  0  0  0  0  0
   50.4510   31.7590   36.5220 N   0  0  0  0  0  0  0  0  0  0  0  0
   50.0640   32.1480   35.6160 H   0  0  0  0  0  0  0  0  0  0  0  0
   51.5000   30.9260   36.6270 C   0  0  0  0  0  0  0  0  0  0  0  0
   52.0580   30.5700   35.7670 H   0  0  0  0  0  0  0  0  0  0  0  0
   51.7010   30.6420   37.9630 C   0  0  0  0  0  0  0  0  0  0  0  0
   50.7140   31.3520   38.6370 C   0  0  0  0  0  0  0  0  0  0  0  0
   50.3950   31.4750   39.9780 C   0  0  0  0  0  0  0  0  0  0  0  0
  1  4  1  6  0  0  0
  1 10  1  0  0  0  0
  2  1  1  0  0  0  0
  2  5  1  0  0  0  0
  3  2  1  0  0  0  0
  3  1  1  0  0  0  0
  3  7  1  1  0  0  0
  6  2  1  0  0  0  0
  8 14  1  0  0  0  0
  8 13  1  0  0  0  0
  9  8  2  0  0  0  0
 10  9  1  0  0  0  0
 10 11  2  0  0  0  0
 11 12  1  0  0  0  0
 12 13  2  0  0  0  0
 12 15  1  0  0  0  0
 16  9  1  0  0  0  0
 17 16  1  0  0  0  0
 18 16  1  0  0  0  0
 19  3  1  0  0  0  0
 20 19  1  0  0  0  0
 21 19  1  0  0  0  0
 23 19  1  0  0  0  0
 23 22  2  0  0  0  0
 24 23  1  0  0  0  0
 25 24  1  0  0  0  0
 26 24  2  0  0  0  0
 26 32  1  0  0  0  0
 27 29  1  0  0  0  0
 27 26  1  0  0  0  0
 28 27  1  0  0  0  0
 29 31  2  0  0  0  0
 30 29  1  0  0  0  0
 31 32  1  0  0  0  0
 32 33  2  0  0  0  0
 33 22  1  0  0  0  0
M  END
>  <minimizedAffinity>
-5.48479605

>  <minimizedRMSD>
0.51070708

$$$$
