
 OpenBabel03252509263D

 33 36  0  0  1  0  0  0  0  0999 V2000
   46.3370   34.9720   42.0230 C   0  0  1  0  0  0  0  0  0  0  0  0
   47.8630   35.2530   41.9620 C   0  0  0  0  0  0  0  0  0  0  0  0
   47.1340   33.9900   41.4120 C   0  0  2  0  0  0  0  0  0  0  0  0
   45.7570   35.7240   41.4620 H   0  0  0  0  0  0  0  0  0  0  0  0
   48.4650   35.1050   42.8640 H   0  0  0  0  0  0  0  0  0  0  0  0
   48.1830   35.9870   41.2060 H   0  0  0  0  0  0  0  0  0  0  0  0
   47.3830   33.0510   41.9910 H   0  0  0  0  0  0  0  0  0  0  0  0
   44.6400   35.4350   45.3380 C   0  0  0  0  0  0  0  0  0  0  0  0
   45.0530   35.7130   44.0070 C   0  0  0  0  0  0  0  0  0  0  0  0
   45.8890   34.7980   43.4570 C   0  0  0  0  0  0  0  0  0  0  0  0
   46.3130   33.6740   44.1400 N   0  0  0  0  0  0  0  0  0  0  0  0
   45.8970   33.4470   45.4100 C   0  0  0  0  0  0  0  0  0  0  0  0
   45.0540   34.3360   46.0080 N   0  0  0  0  0  0  0  0  0  0  0  0
   43.9710   36.1630   45.7830 H   0  0  0  0  0  0  0  0  0  0  0  0
   46.1840   32.6040   45.9940 H   0  0  0  0  0  0  0  0  0  0  0  0
   44.6450   36.8690   43.3230 N   0  0  0  0  0  0  0  0  0  0  0  0
   43.7220   37.0840   42.8840 H   0  0  0  0  0  0  0  0  0  0  0  0
   45.4190   37.5960   43.2720 H   0  0  0  0  0  0  0  0  0  0  0  0
   47.1070   33.7690   39.9180 C   0  0  0  0  0  0  0  0  0  0  0  0
   46.0570   33.5210   39.6690 H   0  0  0  0  0  0  0  0  0  0  0  0
   47.3780   34.6890   39.3620 H   0  0  0  0  0  0  0  0  0  0  0  0
   47.4950   31.4220   39.0510 C   0  0  0  0  0  3  0  0  0  0  0  0
   47.9440   32.6090   39.5760 C   0  0  0  0  0  0  0  0  0  0  0  0
   49.3090   32.7410   39.8100 C   0  0  0  0  0  0  0  0  0  0  0  0
   49.7510   33.6370   40.2210 H   0  0  0  0  0  0  0  0  0  0  0  0
   50.2070   31.7280   39.5350 C   0  0  0  0  0  0  0  0  0  0  0  0
   51.5380   31.5980   39.6620 N   0  0  0  0  0  0  0  0  0  0  0  0
   52.1690   32.3580   40.0440 H   0  0  0  0  0  0  0  0  0  0  0  0
   51.9420   30.3870   39.2410 C   0  0  0  0  0  0  0  0  0  0  0  0
   52.9800   30.0740   39.2590 H   0  0  0  0  0  0  0  0  0  0  0  0
   50.8350   29.6800   38.8170 C   0  0  0  0  0  3  0  0  0  0  0  0
   49.7600   30.5390   39.0090 C   0  0  0  0  0  0  0  0  0  0  0  0
   48.4020   30.4110   38.7770 C   0  0  0  0  0  3  0  0  0  0  0  0
  1  4  1  6  0  0  0
  1 10  1  0  0  0  0
  2  1  1  0  0  0  0
  2  5  1  0  0  0  0
  3  2  1  0  0  0  0
  3  7  1  1  0  0  0
  3  1  1  0  0  0  0
  6  2  1  0  0  0  0
  8 14  1  0  0  0  0
  8 13  1  0  0  0  0
  9  8  2  0  0  0  0
 10  9  1  0  0  0  0
 10 11  2  0  0  0  0
 11 12  1  0  0  0  0
 12 15  1  0  0  0  0
 12 13  2  0  0  0  0
 16  9  1  0  0  0  0
 17 16  1  0  0  0  0
 18 16  1  0  0  0  0
 19  3  1  0  0  0  0
 20 19  1  0  0  0  0
 21 19  1  0  0  0  0
 22 23  1  0  0  0  0
 23 24  2  0  0  0  0
 23 19  1  0  0  0  0
 24 25  1  0  0  0  0
 26 27  1  0  0  0  0
 26 24  1  0  0  0  0
 27 28  1  0  0  0  0
 29 30  1  0  0  0  0
 29 27  1  0  0  0  0
 31 32  1  0  0  0  0
 31 29  2  0  0  0  0
 32 26  2  0  0  0  0
 33 32  1  0  0  0  0
 33 22  2  0  0  0  0
M  END
>  <minimizedAffinity>
-4.83142853

>  <minimizedRMSD>
0.395290375

$$$$
