
 OpenBabel03242513283D

 40 44  0  0  0  0  0  0  0  0999 V2000
   46.4690   33.6520   41.1030 C   0  0  0  0  0  0  0  0  0  0  0  0
   46.8490   34.6520   41.9720 C   0  0  0  0  0  0  0  0  0  0  0  0
   47.9240   35.4110   41.6110 C   0  0  0  0  0  0  0  0  0  0  0  0
   48.6120   35.1960   40.4240 C   0  0  0  0  0  0  0  0  0  0  0  0
   48.2230   34.1990   39.5700 C   0  0  0  0  0  0  0  0  0  0  0  0
   47.1210   33.3970   39.9060 C   0  0  0  0  0  0  0  0  0  0  0  0
   48.2590   36.2120   42.2690 H   0  0  0  0  0  0  0  0  0  0  0  0
   49.4610   35.8100   40.1590 H   0  0  0  0  0  0  0  0  0  0  0  0
   48.7240   33.9900   38.6340 H   0  0  0  0  0  0  0  0  0  0  0  0
   44.5360   36.0140   44.6050 C   0  0  0  0  0  0  0  0  0  0  0  0
   45.2440   35.8910   43.4000 C   0  0  0  0  0  0  0  0  0  0  0  0
   46.0970   34.8290   43.1890 C   0  0  0  0  0  0  0  0  0  0  0  0
   46.1770   33.9510   44.2230 N   0  0  0  0  0  0  0  0  0  0  0  0
   45.5080   34.0600   45.3720 C   0  0  0  0  0  0  0  0  0  0  0  0
   44.6830   35.0960   45.5650 N   0  0  0  0  0  0  0  0  0  0  0  0
   43.8790   36.8770   44.7070 H   0  0  0  0  0  0  0  0  0  0  0  0
   45.1500   36.6160   42.6000 H   0  0  0  0  0  0  0  0  0  0  0  0
   45.6670   33.2860   46.1120 H   0  0  0  0  0  0  0  0  0  0  0  0
   45.3760   32.8470   41.4220 O   0  0  0  0  0  0  0  0  0  0  0  0
   44.6840   32.5400   40.7570 H   0  0  0  0  0  0  0  0  0  0  0  0
   46.6890   32.3830   39.0850 O   0  0  0  0  0  0  0  0  0  0  0  0
   46.7470   32.3670   37.7490 C   0  0  0  0  0  0  0  0  0  0  0  0
   45.7420   32.5350   36.8200 C   0  0  0  0  0  0  0  0  0  0  0  0
   46.0520   32.4750   35.4790 C   0  0  0  0  0  0  0  0  0  0  0  0
   47.4240   32.2380   35.1610 C   0  0  0  0  0  0  0  0  0  0  0  0
   48.2380   32.1060   36.7850 S   0  0  0  0  0  0  0  0  0  0  0  0
   44.7300   32.7110   37.1560 H   0  0  0  0  0  0  0  0  0  0  0  0
   45.3420   32.5930   34.6740 H   0  0  0  0  0  0  0  0  0  0  0  0
   48.9170   33.0410   33.3820 C   0  0  0  0  0  0  0  0  0  0  0  0
   48.0010   32.1320   33.8710 C   0  0  0  0  0  0  0  0  0  0  0  0
   47.5800   31.0360   33.1190 C   0  0  0  0  0  0  0  0  0  0  0  0
   46.8670   30.3160   33.4820 H   0  0  0  0  0  0  0  0  0  0  0  0
   48.0720   30.8180   31.8350 C   0  0  0  0  0  0  0  0  0  0  0  0
   47.8600   29.8790   30.8960 N   0  0  0  0  0  0  0  0  0  0  0  0
   47.2230   29.0590   30.9660 H   0  0  0  0  0  0  0  0  0  0  0  0
   48.6090   30.1410   29.8000 C   0  0  0  0  0  0  0  0  0  0  0  0
   48.6930   29.6040   28.8590 H   0  0  0  0  0  0  0  0  0  0  0  0
   49.3110   31.2940   30.0820 C   0  0  0  0  0  0  0  0  0  0  0  0
   48.9920   31.7380   31.3500 C   0  0  0  0  0  0  0  0  0  0  0  0
   49.4080   32.8290   32.1100 C   0  0  0  0  0  0  0  0  0  0  0  0
  1 19  1  0  0  0  0
  1  2  1  0  0  0  0
  2 12  1  0  0  0  0
  3  2  2  0  0  0  0
  3  7  1  0  0  0  0
  4  3  1  0  0  0  0
  5  6  1  0  0  0  0
  5  4  2  0  0  0  0
  6  1  2  0  0  0  0
  8  4  1  0  0  0  0
  9  5  1  0  0  0  0
 10 16  1  0  0  0  0
 10 15  1  0  0  0  0
 11 10  2  0  0  0  0
 12 11  1  0  0  0  0
 12 13  2  0  0  0  0
 13 14  1  0  0  0  0
 14 15  2  0  0  0  0
 14 18  1  0  0  0  0
 17 11  1  0  0  0  0
 20 19  1  0  0  0  0
 21  6  1  0  0  0  0
 22 21  1  0  0  0  0
 23 27  1  0  0  0  0
 23 22  2  0  0  0  0
 24 23  1  0  0  0  0
 25 24  2  0  0  0  0
 25 26  1  0  0  0  0
 26 22  1  0  0  0  0
 28 24  1  0  0  0  0
 29 30  1  0  0  0  0
 30 25  1  0  0  0  0
 31 32  1  0  0  0  0
 31 30  2  0  0  0  0
 33 31  1  0  0  0  0
 34 35  1  0  0  0  0
 34 33  1  0  0  0  0
 36 38  2  0  0  0  0
 36 34  1  0  0  0  0
 37 36  1  0  0  0  0
 38 39  1  0  0  0  0
 39 33  2  0  0  0  0
 39 40  1  0  0  0  0
 40 29  2  0  0  0  0
M  END
>  <minimizedAffinity>
-7.25943947

>  <minimizedRMSD>
0.894962847

$$$$
