
 OpenBabel03252502063D

 51 56  0  0  0  0  0  0  0  0999 V2000
   45.6740   33.8030   45.4260 C   0  0  0  0  0  0  0  0  0  0  0  0
   44.8390   34.7640   45.8210 N   0  0  0  0  0  0  0  0  0  0  0  0
   44.5000   35.8270   45.1080 C   0  0  0  0  0  0  0  0  0  0  0  0
   45.0150   36.0030   43.8670 N   0  0  0  0  0  0  0  0  0  0  0  0
   45.8710   35.1040   43.3510 C   0  0  0  0  0  0  0  0  0  0  0  0
   46.4140   35.2820   42.0970 C   0  0  0  0  0  0  0  0  0  0  0  0
   47.2960   34.3940   41.5680 C   0  0  0  0  0  0  0  0  0  0  0  0
   47.6270   33.3060   42.3320 C   0  0  0  0  0  0  0  0  0  0  0  0
   47.0560   33.1620   43.5930 C   0  0  0  0  0  0  0  0  0  0  0  0
   46.1790   34.0230   44.1500 C   0  0  0  0  0  0  0  0  0  0  0  0
   43.8070   36.5510   45.5310 H   0  0  0  0  0  0  0  0  0  0  0  0
   46.1150   36.1580   41.5380 H   0  0  0  0  0  0  0  0  0  0  0  0
   47.6810   34.5960   40.5830 H   0  0  0  0  0  0  0  0  0  0  0  0
   47.5710   31.9820   47.9070 C   0  0  0  0  0  0  0  0  0  0  0  0
   47.0560   30.6810   47.9230 C   0  0  0  0  0  0  0  0  0  0  0  0
   46.0200   30.4250   47.0670 C   0  0  0  0  0  0  0  0  0  0  0  0
   45.5540   31.3860   46.2740 N   0  0  0  0  0  0  0  0  0  0  0  0
   46.0330   32.6230   46.2470 C   0  0  0  0  0  0  0  0  0  0  0  0
   47.0480   32.8970   47.0800 N   0  0  0  0  0  0  0  0  0  0  0  0
   45.4490   29.1730   47.0480 N   0  0  0  0  0  0  0  0  0  0  0  0
   44.2040   28.8290   46.3050 C   0  0  0  0  0  0  0  0  0  0  0  0
   44.1290   27.3280   46.3070 C   0  0  0  0  0  0  0  0  0  0  0  0
   44.8770   26.9450   47.5330 C   0  0  0  0  0  0  0  0  0  0  0  0
   45.9100   27.9920   47.7190 C   0  0  0  0  0  0  0  0  0  0  0  0
   48.4000   32.2370   48.5780 H   0  0  0  0  0  0  0  0  0  0  0  0
   44.2200   29.2780   45.2940 H   0  0  0  0  0  0  0  0  0  0  0  0
   43.3870   29.2500   46.9320 H   0  0  0  0  0  0  0  0  0  0  0  0
   44.5060   26.8850   45.3620 H   0  0  0  0  0  0  0  0  0  0  0  0
   43.0540   27.0400   46.4360 H   0  0  0  0  0  0  0  0  0  0  0  0
   45.3600   25.9510   47.3410 H   0  0  0  0  0  0  0  0  0  0  0  0
   44.2030   26.7720   48.3890 H   0  0  0  0  0  0  0  0  0  0  0  0
   45.9320   28.1470   48.8380 H   0  0  0  0  0  0  0  0  0  0  0  0
   46.8730   27.6230   47.3180 H   0  0  0  0  0  0  0  0  0  0  0  0
   47.6460   29.7690   48.7530 N   0  0  0  0  0  0  0  0  0  0  0  0
   47.2010   29.9920   49.6900 H   0  0  0  0  0  0  0  0  0  0  0  0
   48.3540   29.0220   48.5780 H   0  0  0  0  0  0  0  0  0  0  0  0
   48.3540   31.1590   41.1390 C   0  0  0  0  0  0  0  0  0  0  0  0
   48.5860   32.3880   41.7210 C   0  0  0  0  0  0  0  0  0  0  0  0
   49.8990   32.8110   41.7180 C   0  0  0  0  0  0  0  0  0  0  0  0
   50.1900   33.7600   42.1500 H   0  0  0  0  0  0  0  0  0  0  0  0
   50.9650   32.1010   41.1860 C   0  0  0  0  0  0  0  0  0  0  0  0
   52.2700   32.2950   41.0690 N   0  0  0  0  0  0  0  0  0  0  0  0
   52.8080   33.1230   41.3990 H   0  0  0  0  0  0  0  0  0  0  0  0
   52.8420   31.2430   40.4460 C   0  0  0  0  0  0  0  0  0  0  0  0
   53.8850   31.0760   40.1900 H   0  0  0  0  0  0  0  0  0  0  0  0
   51.8630   30.3010   40.1310 C   0  0  0  0  0  0  0  0  0  0  0  0
   50.7020   30.8680   40.6080 C   0  0  0  0  0  0  0  0  0  0  0  0
   49.3930   30.4310   40.6020 C   0  0  0  0  0  0  0  0  0  0  0  0
   47.4940   31.9560   44.2190 N   0  0  0  0  0  0  0  0  0  0  0  0
   48.2450   31.6820   44.8770 H   0  0  0  0  0  0  0  0  0  0  0  0
   46.8240   31.2200   43.8500 H   0  0  0  0  0  0  0  0  0  0  0  0
  1  2  1  0  0  0  0
  1 18  1  0  0  0  0
  3 11  1  0  0  0  0
  3  2  2  0  0  0  0
  4  3  1  0  0  0  0
  5  4  2  0  0  0  0
  5 10  1  0  0  0  0
  6  5  1  0  0  0  0
  7  6  2  0  0  0  0
  7  8  1  0  0  0  0
  8  9  2  0  0  0  0
  9 10  1  0  0  0  0
  9 49  1  0  0  0  0
 10  1  2  0  0  0  0
 12  6  1  0  0  0  0
 13  7  1  0  0  0  0
 14 15  1  0  0  0  0
 14 25  1  0  0  0  0
 15 34  1  0  0  0  0
 16 15  2  0  0  0  0
 17 16  1  0  0  0  0
 18 17  2  0  0  0  0
 18 19  1  0  0  0  0
 19 14  2  0  0  0  0
 20 16  1  0  0  0  0
 20 24  1  0  0  0  0
 21 22  1  0  0  0  0
 21 27  1  0  0  0  0
 21 20  1  0  0  0  0
 22 29  1  0  0  0  0
 22 23  1  0  0  0  0
 23 24  1  0  0  0  0
 23 31  1  0  0  0  0
 24 32  1  0  0  0  0
 26 21  1  0  0  0  0
 28 22  1  0  0  0  0
 30 23  1  0  0  0  0
 33 24  1  0  0  0  0
 34 35  1  0  0  0  0
 36 34  1  0  0  0  0
 37 38  1  0  0  0  0
 38  8  1  0  0  0  0
 39 38  2  0  0  0  0
 39 40  1  0  0  0  0
 41 39  1  0  0  0  0
 42 41  1  0  0  0  0
 42 43  1  0  0  0  0
 44 42  1  0  0  0  0
 45 44  1  0  0  0  0
 46 44  2  0  0  0  0
 46 47  1  0  0  0  0
 47 41  2  0  0  0  0
 48 47  1  0  0  0  0
 48 37  2  0  0  0  0
 49 50  1  0  0  0  0
 51 49  1  0  0  0  0
M  END
>  <minimizedAffinity>
-8.0152626

>  <minimizedRMSD>
0.571325362

$$$$
