
 OpenBabel03252509263D

 33 36  0  0  1  0  0  0  0  0999 V2000
   46.5090   34.9710   41.9210 C   0  0  1  0  0  0  0  0  0  0  0  0
   47.9840   35.4570   41.9040 C   0  0  0  0  0  0  0  0  0  0  0  0
   47.4590   34.0780   41.3990 C   0  0  2  0  0  0  0  0  0  0  0  0
   45.8590   35.6060   41.2940 H   0  0  0  0  0  0  0  0  0  0  0  0
   48.5570   35.4400   42.8350 H   0  0  0  0  0  0  0  0  0  0  0  0
   48.2360   36.1880   41.1190 H   0  0  0  0  0  0  0  0  0  0  0  0
   47.8060   33.2130   42.0410 H   0  0  0  0  0  0  0  0  0  0  0  0
   44.6590   35.4160   45.1550 C   0  0  0  0  0  0  0  0  0  0  0  0
   45.1000   35.6790   43.8310 C   0  0  0  0  0  0  0  0  0  0  0  0
   46.0210   34.8120   43.3430 C   0  0  0  0  0  0  0  0  0  0  0  0
   46.5010   33.7460   44.0800 N   0  0  0  0  0  0  0  0  0  0  0  0
   46.0550   33.5310   45.3420 C   0  0  0  0  0  0  0  0  0  0  0  0
   45.1280   34.3740   45.8780 N   0  0  0  0  0  0  0  0  0  0  0  0
   43.9230   36.1060   45.5500 H   0  0  0  0  0  0  0  0  0  0  0  0
   46.3810   32.7310   45.9650 H   0  0  0  0  0  0  0  0  0  0  0  0
   44.6350   36.7780   43.0920 N   0  0  0  0  0  0  0  0  0  0  0  0
   43.7150   36.9100   42.6140 H   0  0  0  0  0  0  0  0  0  0  0  0
   45.3550   37.5600   43.0420 H   0  0  0  0  0  0  0  0  0  0  0  0
   47.5330   33.7780   39.9210 C   0  0  0  0  0  0  0  0  0  0  0  0
   46.6140   33.2070   39.6830 H   0  0  0  0  0  0  0  0  0  0  0  0
   47.5220   34.7050   39.3130 H   0  0  0  0  0  0  0  0  0  0  0  0
   49.0920   32.4700   38.4140 C   0  0  0  0  0  3  0  0  0  0  0  0
   48.6920   32.9120   39.6500 C   0  0  0  0  0  0  0  0  0  0  0  0
   49.4380   32.5160   40.7550 C   0  0  0  0  0  0  0  0  0  0  0  0
   49.1970   32.8160   41.7660 H   0  0  0  0  0  0  0  0  0  0  0  0
   50.5490   31.7040   40.6440 C   0  0  0  0  0  0  0  0  0  0  0  0
   51.4230   31.1870   41.5230 N   0  0  0  0  0  0  0  0  0  0  0  0
   51.3730   31.3540   42.5680 H   0  0  0  0  0  0  0  0  0  0  0  0
   52.3490   30.4430   40.8960 C   0  0  0  0  0  0  0  0  0  0  0  0
   53.1500   29.9340   41.4220 H   0  0  0  0  0  0  0  0  0  0  0  0
   52.0830   30.4620   39.5420 C   0  0  0  0  0  3  0  0  0  0  0  0
   50.9510   31.2580   39.4070 C   0  0  0  0  0  0  0  0  0  0  0  0
   50.2070   31.6550   38.3090 C   0  0  0  0  0  3  0  0  0  0  0  0
  1  4  1  6  0  0  0
  1 10  1  0  0  0  0
  2  1  1  0  0  0  0
  2  5  1  0  0  0  0
  3  2  1  0  0  0  0
  3  1  1  0  0  0  0
  3  7  1  1  0  0  0
  6  2  1  0  0  0  0
  8 14  1  0  0  0  0
  8 13  1  0  0  0  0
  9  8  2  0  0  0  0
 10  9  1  0  0  0  0
 10 11  2  0  0  0  0
 11 12  1  0  0  0  0
 12 13  2  0  0  0  0
 12 15  1  0  0  0  0
 16  9  1  0  0  0  0
 17 16  1  0  0  0  0
 18 16  1  0  0  0  0
 19  3  1  0  0  0  0
 20 19  1  0  0  0  0
 21 19  1  0  0  0  0
 22 23  1  0  0  0  0
 23 19  1  0  0  0  0
 23 24  2  0  0  0  0
 24 25  1  0  0  0  0
 26 24  1  0  0  0  0
 26 27  1  0  0  0  0
 27 28  1  0  0  0  0
 29 30  1  0  0  0  0
 29 27  1  0  0  0  0
 31 29  2  0  0  0  0
 32 31  1  0  0  0  0
 32 26  2  0  0  0  0
 33 22  2  0  0  0  0
 33 32  1  0  0  0  0
M  END
>  <minimizedAffinity>
-5.21752691

>  <minimizedRMSD>
1.0946784

$$$$
