
 OpenBabel03252507313D

 52 56  0  0  1  0  0  0  0  0999 V2000
   46.9530   32.7960   45.5110 C   0  0  0  0  0  0  0  0  0  0  0  0
   45.8590   33.4760   46.0390 C   0  0  0  0  0  0  0  0  0  0  0  0
   45.1710   34.4120   45.2350 C   0  0  0  0  0  0  0  0  0  0  0  0
   45.6510   34.5930   43.9410 N   0  0  0  0  0  0  0  0  0  0  0  0
   46.7200   33.9000   43.4950 C   0  0  0  0  0  0  0  0  0  0  0  0
   47.3500   33.0260   44.2660 N   0  0  0  0  0  0  0  0  0  0  0  0
   45.3570   33.5210   46.9800 H   0  0  0  0  0  0  0  0  0  0  0  0
   44.3310   35.0130   45.4570 H   0  0  0  0  0  0  0  0  0  0  0  0
   47.6120   31.8280   46.3640 C   0  0  2  0  0  0  0  0  0  0  0  0
   47.4040   30.3720   45.8420 C   0  0  0  0  0  0  0  0  0  0  0  0
   48.2310   29.4370   46.6540 C   0  0  0  0  0  0  0  0  0  0  0  0
   48.2000   29.6460   48.1290 C   0  0  0  0  0  0  0  0  0  0  0  0
   48.1600   31.0270   48.5360 C   0  0  0  0  0  0  0  0  0  0  0  0
   47.1540   31.8860   47.7380 C   0  0  2  0  0  0  0  0  0  0  0  0
   48.7170   31.9400   46.2780 H   0  0  0  0  0  0  0  0  0  0  0  0
   46.3430   30.1330   45.7890 H   0  0  0  0  0  0  0  0  0  0  0  0
   47.7780   30.4160   44.7970 H   0  0  0  0  0  0  0  0  0  0  0  0
   49.2280   29.4000   46.1740 H   0  0  0  0  0  0  0  0  0  0  0  0
   47.8100   28.4040   46.4750 H   0  0  0  0  0  0  0  0  0  0  0  0
   49.3170   29.4180   48.3650 H   0  0  0  0  0  0  0  0  0  0  0  0
   47.8440   28.8280   48.7590 H   0  0  0  0  0  0  0  0  0  0  0  0
   47.7890   31.1110   49.5970 H   0  0  0  0  0  0  0  0  0  0  0  0
   49.1030   31.6280   48.5190 H   0  0  0  0  0  0  0  0  0  0  0  0
   47.2470   32.8440   48.2490 H   0  0  0  0  0  0  0  0  0  0  0  0
   45.8290   31.2720   47.8510 N   0  0  0  0  0  0  0  0  0  0  0  0
   45.1550   30.7030   48.9460 C   0  0  0  0  0  0  0  0  0  0  0  0
   44.5950   31.4040   49.8640 O   0  0  0  0  0  0  0  0  0  0  0  0
   45.1330   29.2740   48.9580 N   0  0  0  0  0  0  0  0  0  0  0  0
   45.1880   31.1220   46.9830 H   0  0  0  0  0  0  0  0  0  0  0  0
   45.4540   28.5950   49.6860 H   0  0  0  0  0  0  0  0  0  0  0  0
   44.7810   28.6250   48.2190 H   0  0  0  0  0  0  0  0  0  0  0  0
   47.1840   34.1620   42.1320 C   0  0  0  0  0  0  0  0  0  0  0  0
   48.2250   35.0310   41.8870 C   0  0  0  0  0  0  0  0  0  0  0  0
   48.7170   35.3320   40.6420 C   0  0  0  0  0  0  0  0  0  0  0  0
   48.0660   34.6730   39.6020 C   0  0  0  0  0  0  0  0  0  0  0  0
   47.0260   33.8030   39.8230 C   0  0  0  0  0  0  0  0  0  0  0  0
   46.5860   33.5500   41.1010 N   0  0  0  0  0  0  0  0  0  0  0  0
   48.6950   35.5180   42.7480 H   0  0  0  0  0  0  0  0  0  0  0  0
   49.5350   36.0150   40.4610 H   0  0  0  0  0  0  0  0  0  0  0  0
   48.4250   34.8850   38.6020 H   0  0  0  0  0  0  0  0  0  0  0  0
   45.3030   32.2230   38.9140 C   0  0  0  0  0  0  0  0  0  0  0  0
   46.3420   33.1120   38.7370 C   0  0  0  0  0  0  0  0  0  0  0  0
   46.6990   33.3050   37.4190 C   0  0  0  0  0  0  0  0  0  0  0  0
   47.5210   34.0020   37.2050 H   0  0  0  0  0  0  0  0  0  0  0  0
   46.0980   32.6860   36.3410 C   0  0  0  0  0  0  0  0  0  0  0  0
   46.3360   32.7760   35.0200 N   0  0  0  0  0  0  0  0  0  0  0  0
   47.0620   33.3660   34.5620 H   0  0  0  0  0  0  0  0  0  0  0  0
   45.4460   31.9510   34.4230 C   0  0  0  0  0  0  0  0  0  0  0  0
   45.3460   31.7670   33.3460 H   0  0  0  0  0  0  0  0  0  0  0  0
   44.6310   31.3240   35.3590 C   0  0  0  0  0  0  0  0  0  0  0  0
   45.0630   31.8080   36.5760 C   0  0  0  0  0  0  0  0  0  0  0  0
   44.6660   31.5780   37.8740 C   0  0  0  0  0  0  0  0  0  0  0  0
  1  2  1  0  0  0  0
  1  9  1  0  0  0  0
  2  7  1  0  0  0  0
  3  8  1  0  0  0  0
  3  2  2  0  0  0  0
  4  3  1  0  0  0  0
  5  4  2  0  0  0  0
  5  6  1  0  0  0  0
  6  1  2  0  0  0  0
  9 15  1  6  0  0  0
  9 14  1  0  0  0  0
 10  9  1  0  0  0  0
 10 11  1  0  0  0  0
 11 12  1  0  0  0  0
 12 20  1  0  0  0  0
 12 13  1  0  0  0  0
 12 21  1  0  0  0  0
 13 22  1  0  0  0  0
 14 25  1  0  0  0  0
 14 24  1  1  0  0  0
 14 13  1  0  0  0  0
 16 10  1  0  0  0  0
 17 10  1  0  0  0  0
 18 11  1  0  0  0  0
 19 11  1  0  0  0  0
 23 13  1  0  0  0  0
 25 26  1  0  0  0  0
 26 28  1  0  0  0  0
 26 27  2  0  0  0  0
 28 30  1  0  0  0  0
 29 25  1  0  0  0  0
 31 28  1  0  0  0  0
 32  5  1  0  0  0  0
 33 32  1  0  0  0  0
 33 38  1  0  0  0  0
 34 33  2  0  0  0  0
 35 36  2  0  0  0  0
 35 34  1  0  0  0  0
 36 37  1  0  0  0  0
 37 32  2  0  0  0  0
 39 34  1  0  0  0  0
 40 35  1  0  0  0  0
 42 41  1  0  0  0  0
 42 36  1  0  0  0  0
 43 42  2  0  0  0  0
 44 43  1  0  0  0  0
 45 51  2  0  0  0  0
 45 43  1  0  0  0  0
 46 45  1  0  0  0  0
 47 46  1  0  0  0  0
 48 46  1  0  0  0  0
 48 50  2  0  0  0  0
 49 48  1  0  0  0  0
 50 51  1  0  0  0  0
 51 52  1  0  0  0  0
 52 41  2  0  0  0  0
M  END
>  <minimizedAffinity>
-7.15769958

>  <minimizedRMSD>
0.268052578

$$$$
