
 OpenBabel03252508533D

 46 50  0  0  1  0  0  0  0  0999 V2000
   43.2440   34.3770   40.5230 C   0  0  0  0  0  0  0  0  0  0  0  0
   43.2690   35.4780   39.8770 O   0  0  0  0  0  0  0  0  0  0  0  0
   41.8310   34.0430   40.4080 N   0  0  0  0  0  0  0  0  0  0  0  0
   41.3620   33.8780   39.0530 C   0  0  0  0  0  0  0  0  0  0  0  0
   40.6700   35.2130   38.7020 C   0  0  0  0  0  0  0  0  0  0  0  0
   40.0030   35.7080   39.9980 C   0  0  0  0  0  0  0  0  0  0  0  0
   39.5830   34.5330   40.8500 C   0  0  0  0  0  0  0  0  0  0  0  0
   40.8330   33.8540   41.4430 C   0  0  1  0  0  0  0  0  0  0  0  0
   40.6650   33.0320   38.9330 H   0  0  0  0  0  0  0  0  0  0  0  0
   42.1660   33.7640   38.3020 H   0  0  0  0  0  0  0  0  0  0  0  0
   39.8840   34.9870   37.9780 H   0  0  0  0  0  0  0  0  0  0  0  0
   41.4330   35.9340   38.3830 H   0  0  0  0  0  0  0  0  0  0  0  0
   40.7360   36.2920   40.5840 H   0  0  0  0  0  0  0  0  0  0  0  0
   39.0990   36.3000   39.7730 H   0  0  0  0  0  0  0  0  0  0  0  0
   38.8620   34.8350   41.6030 H   0  0  0  0  0  0  0  0  0  0  0  0
   39.1480   33.7470   40.1850 H   0  0  0  0  0  0  0  0  0  0  0  0
   41.1310   34.3920   42.3460 H   0  0  0  0  0  0  0  0  0  0  0  0
   41.4940   31.4550   42.0040 C   0  0  0  0  0  0  0  0  0  0  0  0
   40.5730   32.4060   41.6450 C   0  0  0  0  0  0  0  0  0  0  0  0
   39.2800   31.9660   41.4540 C   0  0  0  0  0  0  0  0  0  0  0  0
   38.4240   32.5610   41.1720 H   0  0  0  0  0  0  0  0  0  0  0  0
   38.9140   30.6270   41.6140 C   0  0  0  0  0  0  0  0  0  0  0  0
   37.7860   29.8990   41.5090 N   0  0  0  0  0  0  0  0  0  0  0  0
   36.8600   30.3040   41.2450 H   0  0  0  0  0  0  0  0  0  0  0  0
   38.0350   28.6060   41.7890 C   0  0  0  0  0  0  0  0  0  0  0  0
   37.2680   27.8180   41.7690 H   0  0  0  0  0  0  0  0  0  0  0  0
   39.3700   28.4390   42.0960 C   0  0  0  0  0  0  0  0  0  0  0  0
   39.8980   29.7080   41.9810 C   0  0  0  0  0  0  0  0  0  0  0  0
   41.1970   30.1300   42.1760 C   0  0  0  0  0  0  0  0  0  0  0  0
   44.2930   33.7560   41.1230 O   0  0  0  0  0  0  0  0  0  0  0  0
   45.6300   34.0120   40.9450 C   0  0  0  0  0  0  0  0  0  0  0  0
   46.3190   34.6190   41.9970 C   0  0  0  0  0  0  0  0  0  0  0  0
   47.6830   34.8700   41.7900 C   0  0  0  0  0  0  0  0  0  0  0  0
   48.2460   34.5120   40.5890 N   0  0  0  0  0  0  0  0  0  0  0  0
   47.5390   33.9410   39.6320 C   0  0  0  0  0  0  0  0  0  0  0  0
   46.2320   33.6850   39.7970 N   0  0  0  0  0  0  0  0  0  0  0  0
   48.2010   35.3360   42.6040 H   0  0  0  0  0  0  0  0  0  0  0  0
   48.0820   33.6960   38.7180 H   0  0  0  0  0  0  0  0  0  0  0  0
   45.6290   34.9550   43.2200 C   0  0  0  0  0  0  0  0  0  0  0  0
   45.0380   36.1920   43.4470 C   0  0  0  0  0  0  0  0  0  0  0  0
   44.5070   36.0820   44.7050 C   0  0  0  0  0  0  0  0  0  0  0  0
   44.7530   34.8580   45.2180 N   0  0  0  0  0  0  0  0  0  0  0  0
   45.4290   34.2060   44.3020 N   0  0  0  0  0  0  0  0  0  0  0  0
   44.9910   37.0650   42.8000 H   0  0  0  0  0  0  0  0  0  0  0  0
   43.9540   36.8110   45.2880 H   0  0  0  0  0  0  0  0  0  0  0  0
   44.4850   34.4620   46.1460 H   0  0  0  0  0  0  0  0  0  0  0  0
  1 30  1  0  0  0  0
  2  1  2  0  0  0  0
  3  1  1  0  0  0  0
  3  8  1  0  0  0  0
  4  3  1  0  0  0  0
  5  4  1  0  0  0  0
  5  6  1  0  0  0  0
  6 13  1  0  0  0  0
  6  7  1  0  0  0  0
  7  8  1  0  0  0  0
  7 15  1  0  0  0  0
  8 19  1  0  0  0  0
  8 17  1  1  0  0  0
  9  4  1  0  0  0  0
 10  4  1  0  0  0  0
 11  5  1  0  0  0  0
 12  5  1  0  0  0  0
 14  6  1  0  0  0  0
 16  7  1  0  0  0  0
 18 29  1  0  0  0  0
 19 18  2  0  0  0  0
 20 22  2  0  0  0  0
 20 19  1  0  0  0  0
 21 20  1  0  0  0  0
 22 28  1  0  0  0  0
 23 22  1  0  0  0  0
 23 25  1  0  0  0  0
 24 23  1  0  0  0  0
 25 27  2  0  0  0  0
 26 25  1  0  0  0  0
 28 27  1  0  0  0  0
 28 29  2  0  0  0  0
 31 30  1  0  0  0  0
 31 32  1  0  0  0  0
 32 39  1  0  0  0  0
 33 32  2  0  0  0  0
 33 37  1  0  0  0  0
 34 33  1  0  0  0  0
 35 36  1  0  0  0  0
 35 34  2  0  0  0  0
 36 31  2  0  0  0  0
 38 35  1  0  0  0  0
 39 40  1  0  0  0  0
 39 43  2  0  0  0  0
 40 41  2  0  0  0  0
 41 42  1  0  0  0  0
 41 45  1  0  0  0  0
 42 46  1  0  0  0  0
 43 42  1  0  0  0  0
 44 40  1  0  0  0  0
M  END
>  <minimizedAffinity>
-7.22926855

>  <minimizedRMSD>
1.56240833

$$$$
