
 OpenBabel03242514293D

 41 45  0  0  0  0  0  0  0  0999 V2000
   48.8230   33.2600   37.5850 Cl  0  0  0  0  0  0  0  0  0  0  0  0
   47.0810   33.0560   37.6290 C   0  0  0  0  0  0  0  0  0  0  0  0
   46.4070   33.3270   38.7720 C   0  0  0  0  0  0  0  0  0  0  0  0
   45.0610   33.0130   38.7350 C   0  0  0  0  0  0  0  0  0  0  0  0
   44.3960   32.4700   37.6570 C   0  0  0  0  0  0  0  0  0  0  0  0
   45.1240   32.2140   36.5060 C   0  0  0  0  0  0  0  0  0  0  0  0
   46.4800   32.5150   36.5050 C   0  0  0  0  0  0  0  0  0  0  0  0
   44.5470   33.2450   39.6870 H   0  0  0  0  0  0  0  0  0  0  0  0
   43.3560   32.3100   37.8560 H   0  0  0  0  0  0  0  0  0  0  0  0
   44.5540   31.7950   35.6990 H   0  0  0  0  0  0  0  0  0  0  0  0
   48.4260   32.8510   35.0490 C   0  0  0  0  0  0  0  0  0  0  0  0
   47.2150   32.2320   35.2770 C   0  0  0  0  0  0  0  0  0  0  0  0
   46.7070   31.3510   34.3430 C   0  0  0  0  0  0  0  0  0  0  0  0
   45.7600   30.8470   34.4890 H   0  0  0  0  0  0  0  0  0  0  0  0
   47.4660   31.1400   33.2090 C   0  0  0  0  0  0  0  0  0  0  0  0
   47.2420   30.3460   32.1250 N   0  0  0  0  0  0  0  0  0  0  0  0
   46.4150   29.7390   31.9740 H   0  0  0  0  0  0  0  0  0  0  0  0
   48.2540   30.4450   31.2410 C   0  0  0  0  0  0  0  0  0  0  0  0
   48.3650   29.9440   30.2980 H   0  0  0  0  0  0  0  0  0  0  0  0
   49.1880   31.3290   31.7410 C   0  0  0  0  0  0  0  0  0  0  0  0
   48.6810   31.7450   32.9550 C   0  0  0  0  0  0  0  0  0  0  0  0
   49.1730   32.6220   33.8980 C   0  0  0  0  0  0  0  0  0  0  0  0
   48.7910   35.2490   40.9090 C   0  0  0  0  0  0  0  0  0  0  0  0
   48.1570   34.7480   39.7620 C   0  0  0  0  0  0  0  0  0  0  0  0
   47.0590   33.9100   39.9120 C   0  0  0  0  0  0  0  0  0  0  0  0
   46.6590   33.6320   41.1750 N   0  0  0  0  0  0  0  0  0  0  0  0
   47.2660   34.1200   42.2700 C   0  0  0  0  0  0  0  0  0  0  0  0
   48.3360   34.9250   42.1410 N   0  0  0  0  0  0  0  0  0  0  0  0
   49.6520   35.9010   40.9460 H   0  0  0  0  0  0  0  0  0  0  0  0
   48.6500   35.1670   38.9440 H   0  0  0  0  0  0  0  0  0  0  0  0
   45.0490   35.9680   43.2780 Cl  0  0  0  0  0  0  0  0  0  0  0  0
   45.7440   34.6270   44.1600 C   0  0  0  0  0  0  0  0  0  0  0  0
   46.7540   33.8470   43.5980 C   0  0  0  0  0  0  0  0  0  0  0  0
   47.2110   32.8330   44.3690 C   0  0  0  0  0  0  0  0  0  0  0  0
   46.7380   32.5460   45.6430 C   0  0  0  0  0  0  0  0  0  0  0  0
   45.7450   33.3280   46.1700 C   0  0  0  0  0  0  0  0  0  0  0  0
   45.2330   32.8650   47.7810 Cl  0  0  0  0  0  0  0  0  0  0  0  0
   45.2490   34.3620   45.4380 C   0  0  0  0  0  0  0  0  0  0  0  0
   47.9980   32.2160   43.9460 H   0  0  0  0  0  0  0  0  0  0  0  0
   47.1940   31.7040   46.1490 H   0  0  0  0  0  0  0  0  0  0  0  0
   44.4680   34.9530   45.8930 H   0  0  0  0  0  0  0  0  0  0  0  0
  1  2  1  0  0  0  0
  2  3  1  0  0  0  0
  3 25  1  0  0  0  0
  4  3  2  0  0  0  0
  4  8  1  0  0  0  0
  5  9  1  0  0  0  0
  5  4  1  0  0  0  0
  6  5  2  0  0  0  0
  7  6  1  0  0  0  0
  7  2  2  0  0  0  0
 10  6  1  0  0  0  0
 11 12  1  0  0  0  0
 12  7  1  0  0  0  0
 13 14  1  0  0  0  0
 13 12  2  0  0  0  0
 15 13  1  0  0  0  0
 16 15  1  0  0  0  0
 17 16  1  0  0  0  0
 18 20  2  0  0  0  0
 18 16  1  0  0  0  0
 19 18  1  0  0  0  0
 20 21  1  0  0  0  0
 21 15  2  0  0  0  0
 21 22  1  0  0  0  0
 22 11  2  0  0  0  0
 23 29  1  0  0  0  0
 23 28  1  0  0  0  0
 24 25  1  0  0  0  0
 24 23  2  0  0  0  0
 25 26  2  0  0  0  0
 26 27  1  0  0  0  0
 27 33  1  0  0  0  0
 28 27  2  0  0  0  0
 30 24  1  0  0  0  0
 31 32  1  0  0  0  0
 32 38  1  0  0  0  0
 33 32  2  0  0  0  0
 33 34  1  0  0  0  0
 34 35  2  0  0  0  0
 35 40  1  0  0  0  0
 35 36  1  0  0  0  0
 36 37  1  0  0  0  0
 38 41  1  0  0  0  0
 38 36  2  0  0  0  0
 39 34  1  0  0  0  0
M  END
>  <minimizedAffinity>
-7.39575768

>  <minimizedRMSD>
0.87320596

$$$$
