
 OpenBabel03252504293D

 30 32  0  0  0  0  0  0  0  0999 V2000
   39.5540   31.0250   41.2790 C   0  0  0  0  0  3  0  0  0  0  0  0
   39.4970   30.4610   42.5070 C   0  0  0  0  0  3  0  0  0  0  0  0
   40.0670   29.1480   42.9120 C   0  0  0  0  0  0  0  0  0  0  0  0
   40.9260   28.9820   42.2070 H   0  0  0  0  0  0  0  0  0  0  0  0
   40.5100   29.1910   43.9350 H   0  0  0  0  0  0  0  0  0  0  0  0
   37.7710   28.1110   43.1170 C   0  0  0  0  0  3  0  0  0  0  0  0
   39.1160   28.0390   42.7480 C   0  0  0  0  0  0  0  0  0  0  0  0
   39.5780   26.8480   42.1940 C   0  0  0  0  0  0  0  0  0  0  0  0
   40.6060   26.6900   41.8730 H   0  0  0  0  0  0  0  0  0  0  0  0
   38.7720   25.7480   41.9960 C   0  0  0  0  0  0  0  0  0  0  0  0
   38.9350   24.5090   41.5000 N   0  0  0  0  0  0  0  0  0  0  0  0
   39.8190   24.1320   41.1360 H   0  0  0  0  0  0  0  0  0  0  0  0
   37.7900   23.8160   41.5380 C   0  0  0  0  0  0  0  0  0  0  0  0
   37.6560   22.7890   41.1950 H   0  0  0  0  0  0  0  0  0  0  0  0
   36.8240   24.6280   42.0830 C   0  0  0  0  0  3  0  0  0  0  0  0
   37.4490   25.8330   42.3650 C   0  0  0  0  0  0  0  0  0  0  0  0
   36.9960   26.9960   42.9070 C   0  0  0  0  0  3  0  0  0  0  0  0
   38.9660   32.2630   41.0790 O   0  0  0  0  0  0  0  0  0  0  0  0
   37.8060   32.5660   40.4120 C   0  0  0  0  0  0  0  0  0  0  0  0
   37.3140   33.4410   40.8680 H   0  0  0  0  0  0  0  0  0  0  0  0
   38.1380   32.9710   39.3900 H   0  0  0  0  0  0  0  0  0  0  0  0
   36.9430   31.0970   38.7530 C   0  0  0  0  0  0  0  0  0  0  0  0
   36.9290   31.4500   40.1110 C   0  0  0  0  0  0  0  0  0  0  0  0
   36.1070   30.7100   40.9170 C   0  0  0  0  0  0  0  0  0  0  0  0
   35.3910   29.7220   40.3600 N   0  0  0  0  0  0  0  0  0  0  0  0
   35.4120   29.3980   39.0730 C   0  0  0  0  0  0  0  0  0  0  0  0
   36.2150   30.0910   38.1820 N   0  0  0  0  0  0  0  0  0  0  0  0
   37.5490   31.5950   37.9810 H   0  0  0  0  0  0  0  0  0  0  0  0
   36.1300   31.0180   41.9520 H   0  0  0  0  0  0  0  0  0  0  0  0
   34.7850   28.5790   38.7500 H   0  0  0  0  0  0  0  0  0  0  0  0
  1  2  2  0  0  0  0
  2  3  1  0  0  0  0
  3  5  1  0  0  0  0
  4  3  1  0  0  0  0
  7  3  1  0  0  0  0
  7  6  2  0  0  0  0
  8  7  1  0  0  0  0
  9  8  1  0  0  0  0
 10  8  2  0  0  0  0
 10 16  1  0  0  0  0
 11 13  1  0  0  0  0
 11 10  1  0  0  0  0
 12 11  1  0  0  0  0
 13 15  2  0  0  0  0
 14 13  1  0  0  0  0
 15 16  1  0  0  0  0
 16 17  2  0  0  0  0
 17  6  1  0  0  0  0
 18  1  1  0  0  0  0
 19 20  1  0  0  0  0
 19 18  1  0  0  0  0
 21 19  1  0  0  0  0
 22 23  1  0  0  0  0
 23 19  1  0  0  0  0
 23 24  2  0  0  0  0
 24 29  1  0  0  0  0
 25 24  1  0  0  0  0
 26 25  2  0  0  0  0
 27 22  2  0  0  0  0
 27 26  1  0  0  0  0
 28 22  1  0  0  0  0
 30 26  1  0  0  0  0
M  END
>  <minimizedAffinity>
-5.19978666

$$$$

 OpenBabel03252504293D

 30 32  0  0  0  0  0  0  0  0999 V2000
   36.2060   29.0460   40.6000 C   0  0  0  0  0  3  0  0  0  0  0  0
   36.7580   30.1990   41.0420 C   0  0  0  0  0  3  0  0  0  0  0  0
   36.6500   31.5400   40.4070 C   0  0  0  0  0  0  0  0  0  0  0  0
   36.0530   31.3620   39.4710 H   0  0  0  0  0  0  0  0  0  0  0  0
   36.0470   32.2410   41.0300 H   0  0  0  0  0  0  0  0  0  0  0  0
   38.7730   32.8240   40.8880 C   0  0  0  0  0  3  0  0  0  0  0  0
   37.9540   32.0960   40.0210 C   0  0  0  0  0  0  0  0  0  0  0  0
   38.4050   31.8880   38.7200 C   0  0  0  0  0  0  0  0  0  0  0  0
   37.8440   31.3350   37.9690 H   0  0  0  0  0  0  0  0  0  0  0  0
   39.6110   32.3650   38.2560 C   0  0  0  0  0  0  0  0  0  0  0  0
   40.2820   32.3210   37.0920 N   0  0  0  0  0  0  0  0  0  0  0  0
   39.9520   31.8540   36.2390 H   0  0  0  0  0  0  0  0  0  0  0  0
   41.4510   32.9680   37.1810 C   0  0  0  0  0  0  0  0  0  0  0  0
   42.1810   33.0780   36.3770 H   0  0  0  0  0  0  0  0  0  0  0  0
   41.5620   33.4640   38.4580 C   0  0  0  0  0  3  0  0  0  0  0  0
   40.4070   33.0810   39.1200 C   0  0  0  0  0  0  0  0  0  0  0  0
   39.9680   33.2860   40.3930 C   0  0  0  0  0  3  0  0  0  0  0  0
   36.4110   27.8810   41.3210 O   0  0  0  0  0  0  0  0  0  0  0  0
   36.7980   27.7370   42.6290 C   0  0  0  0  0  0  0  0  0  0  0  0
   36.9330   28.7240   43.1030 H   0  0  0  0  0  0  0  0  0  0  0  0
   35.8800   27.3210   43.1760 H   0  0  0  0  0  0  0  0  0  0  0  0
   37.6230   25.5350   42.2790 C   0  0  0  0  0  0  0  0  0  0  0  0
   37.8570   26.7780   42.8830 C   0  0  0  0  0  0  0  0  0  0  0  0
   39.0150   26.8880   43.6050 C   0  0  0  0  0  0  0  0  0  0  0  0
   39.8230   25.8210   43.6790 N   0  0  0  0  0  0  0  0  0  0  0  0
   39.5890   24.6480   43.1020 C   0  0  0  0  0  0  0  0  0  0  0  0
   38.4430   24.4440   42.3510 N   0  0  0  0  0  0  0  0  0  0  0  0
   36.7400   25.2890   41.6680 H   0  0  0  0  0  0  0  0  0  0  0  0
   39.1520   27.8630   44.0510 H   0  0  0  0  0  0  0  0  0  0  0  0
   40.3220   23.8650   43.2390 H   0  0  0  0  0  0  0  0  0  0  0  0
  1  2  2  0  0  0  0
  1 18  1  0  0  0  0
  3  5  1  0  0  0  0
  3  2  1  0  0  0  0
  4  3  1  0  0  0  0
  7  3  1  0  0  0  0
  7  6  2  0  0  0  0
  8  7  1  0  0  0  0
  9  8  1  0  0  0  0
 10  8  2  0  0  0  0
 10 16  1  0  0  0  0
 11 13  1  0  0  0  0
 11 10  1  0  0  0  0
 12 11  1  0  0  0  0
 13 15  2  0  0  0  0
 14 13  1  0  0  0  0
 15 16  1  0  0  0  0
 16 17  2  0  0  0  0
 17  6  1  0  0  0  0
 18 19  1  0  0  0  0
 19 23  1  0  0  0  0
 19 20  1  0  0  0  0
 19 21  1  0  0  0  0
 22 27  2  0  0  0  0
 22 23  1  0  0  0  0
 23 24  2  0  0  0  0
 24 25  1  0  0  0  0
 24 29  1  0  0  0  0
 26 30  1  0  0  0  0
 26 25  2  0  0  0  0
 27 26  1  0  0  0  0
 28 22  1  0  0  0  0
M  END
>  <minimizedAffinity>
-5.17738152

$$$$

 OpenBabel03252504293D

 30 32  0  0  0  0  0  0  0  0999 V2000
   36.3870   29.4510   38.7980 C   0  0  0  0  0  3  0  0  0  0  0  0
   35.7410   29.6880   39.9630 C   0  0  0  0  0  3  0  0  0  0  0  0
   35.4500   28.7000   41.0370 C   0  0  0  0  0  0  0  0  0  0  0  0
   34.7710   29.2470   41.7470 H   0  0  0  0  0  0  0  0  0  0  0  0
   34.8610   27.8350   40.6510 H   0  0  0  0  0  0  0  0  0  0  0  0
   37.4290   29.1630   42.5390 C   0  0  0  0  0  3  0  0  0  0  0  0
   36.6520   28.2890   41.7750 C   0  0  0  0  0  0  0  0  0  0  0  0
   37.0430   26.9540   41.7120 C   0  0  0  0  0  0  0  0  0  0  0  0
   36.5080   26.1950   41.1460 H   0  0  0  0  0  0  0  0  0  0  0  0
   38.1530   26.4630   42.3650 C   0  0  0  0  0  0  0  0  0  0  0  0
   38.7530   25.2660   42.4820 N   0  0  0  0  0  0  0  0  0  0  0  0
   38.4280   24.3990   42.0360 H   0  0  0  0  0  0  0  0  0  0  0  0
   39.8390   25.3410   43.2610 C   0  0  0  0  0  0  0  0  0  0  0  0
   40.5000   24.5100   43.5140 H   0  0  0  0  0  0  0  0  0  0  0  0
   39.9680   26.6440   43.6800 C   0  0  0  0  0  3  0  0  0  0  0  0
   38.9090   27.3360   43.1140 C   0  0  0  0  0  0  0  0  0  0  0  0
   38.5290   28.6410   43.1760 C   0  0  0  0  0  3  0  0  0  0  0  0
   36.5720   30.4950   37.9070 O   0  0  0  0  0  0  0  0  0  0  0  0
   37.7410   31.1040   37.5270 C   0  0  0  0  0  0  0  0  0  0  0  0
   38.4430   30.3660   37.1050 H   0  0  0  0  0  0  0  0  0  0  0  0
   37.4700   31.7430   36.6130 H   0  0  0  0  0  0  0  0  0  0  0  0
   37.3790   32.9310   39.0050 C   0  0  0  0  0  0  0  0  0  0  0  0
   38.3190   32.0330   38.4810 C   0  0  0  0  0  0  0  0  0  0  0  0
   39.6030   32.1730   38.9330 C   0  0  0  0  0  0  0  0  0  0  0  0
   39.8610   33.1390   39.8270 N   0  0  0  0  0  0  0  0  0  0  0  0
   38.9610   33.9840   40.3160 C   0  0  0  0  0  0  0  0  0  0  0  0
   37.6370   33.9170   39.9160 N   0  0  0  0  0  0  0  0  0  0  0  0
   36.3090   32.9470   38.7420 H   0  0  0  0  0  0  0  0  0  0  0  0
   40.2910   31.4600   38.5020 H   0  0  0  0  0  0  0  0  0  0  0  0
   39.2990   34.7200   41.0320 H   0  0  0  0  0  0  0  0  0  0  0  0
  1  2  2  0  0  0  0
  2  3  1  0  0  0  0
  3  4  1  0  0  0  0
  3  7  1  0  0  0  0
  5  3  1  0  0  0  0
  6 17  1  0  0  0  0
  7  6  2  0  0  0  0
  8  7  1  0  0  0  0
  8 10  2  0  0  0  0
  9  8  1  0  0  0  0
 10 11  1  0  0  0  0
 10 16  1  0  0  0  0
 11 13  1  0  0  0  0
 12 11  1  0  0  0  0
 13 14  1  0  0  0  0
 13 15  2  0  0  0  0
 16 17  2  0  0  0  0
 16 15  1  0  0  0  0
 18  1  1  0  0  0  0
 19 18  1  0  0  0  0
 19 23  1  0  0  0  0
 20 19  1  0  0  0  0
 21 19  1  0  0  0  0
 22 27  1  0  0  0  0
 23 24  1  0  0  0  0
 23 22  2  0  0  0  0
 24 25  2  0  0  0  0
 25 26  1  0  0  0  0
 26 30  1  0  0  0  0
 27 26  2  0  0  0  0
 28 22  1  0  0  0  0
 29 24  1  0  0  0  0
M  END
>  <minimizedAffinity>
-5.1528759

$$$$

 OpenBabel03252504293D

 30 32  0  0  0  0  0  0  0  0999 V2000
   40.4880   32.3740   40.0580 C   0  0  0  0  0  3  0  0  0  0  0  0
   40.5650   32.2060   41.3980 C   0  0  0  0  0  3  0  0  0  0  0  0
   41.3650   31.1830   42.1240 C   0  0  0  0  0  0  0  0  0  0  0  0
   42.1360   30.8460   41.3790 H   0  0  0  0  0  0  0  0  0  0  0  0
   41.9310   31.6310   42.9740 H   0  0  0  0  0  0  0  0  0  0  0  0
   41.1070   28.7390   42.7160 C   0  0  0  0  0  3  0  0  0  0  0  0
   40.5680   30.0140   42.5220 C   0  0  0  0  0  0  0  0  0  0  0  0
   39.2000   30.1800   42.7180 C   0  0  0  0  0  0  0  0  0  0  0  0
   38.6840   31.1300   42.5930 H   0  0  0  0  0  0  0  0  0  0  0  0
   38.3630   29.1520   43.0910 C   0  0  0  0  0  0  0  0  0  0  0  0
   37.0490   29.0210   43.3450 N   0  0  0  0  0  0  0  0  0  0  0  0
   36.3600   29.7810   43.2920 H   0  0  0  0  0  0  0  0  0  0  0  0
   36.7420   27.7620   43.6790 C   0  0  0  0  0  0  0  0  0  0  0  0
   35.7450   27.3940   43.9320 H   0  0  0  0  0  0  0  0  0  0  0  0
   37.9010   27.0220   43.6470 C   0  0  0  0  0  3  0  0  0  0  0  0
   38.9070   27.9010   43.2780 C   0  0  0  0  0  0  0  0  0  0  0  0
   40.2440   27.7360   43.0870 C   0  0  0  0  0  3  0  0  0  0  0  0
   39.6890   33.3850   39.5510 O   0  0  0  0  0  0  0  0  0  0  0  0
   38.3250   33.5130   39.6090 C   0  0  0  0  0  0  0  0  0  0  0  0
   38.0300   34.1190   40.4830 H   0  0  0  0  0  0  0  0  0  0  0  0
   38.0430   34.1930   38.7280 H   0  0  0  0  0  0  0  0  0  0  0  0
   36.9480   31.8400   40.5870 C   0  0  0  0  0  0  0  0  0  0  0  0
   37.5570   32.2980   39.4100 C   0  0  0  0  0  0  0  0  0  0  0  0
   37.3430   31.5440   38.2890 C   0  0  0  0  0  0  0  0  0  0  0  0
   36.5820   30.4450   38.3960 N   0  0  0  0  0  0  0  0  0  0  0  0
   36.0110   30.0210   39.5180 C   0  0  0  0  0  0  0  0  0  0  0  0
   36.1710   30.7210   40.7020 N   0  0  0  0  0  0  0  0  0  0  0  0
   37.0250   32.3340   41.5680 H   0  0  0  0  0  0  0  0  0  0  0  0
   37.8310   31.9360   37.4080 H   0  0  0  0  0  0  0  0  0  0  0  0
   35.4200   29.1170   39.4700 H   0  0  0  0  0  0  0  0  0  0  0  0
  1  2  2  0  0  0  0
  2  3  1  0  0  0  0
  3  7  1  0  0  0  0
  3  5  1  0  0  0  0
  4  3  1  0  0  0  0
  6 17  1  0  0  0  0
  7  6  2  0  0  0  0
  7  8  1  0  0  0  0
  8 10  2  0  0  0  0
  9  8  1  0  0  0  0
 10 16  1  0  0  0  0
 10 11  1  0  0  0  0
 11 13  1  0  0  0  0
 12 11  1  0  0  0  0
 13 14  1  0  0  0  0
 15 13  2  0  0  0  0
 16 15  1  0  0  0  0
 17 16  2  0  0  0  0
 18 19  1  0  0  0  0
 18  1  1  0  0  0  0
 19 20  1  0  0  0  0
 21 19  1  0  0  0  0
 22 27  1  0  0  0  0
 22 28  1  0  0  0  0
 23 19  1  0  0  0  0
 23 22  2  0  0  0  0
 24 25  2  0  0  0  0
 24 23  1  0  0  0  0
 25 26  1  0  0  0  0
 26 27  2  0  0  0  0
 29 24  1  0  0  0  0
 30 26  1  0  0  0  0
M  END
>  <minimizedAffinity>
-5.13499022

$$$$

 OpenBabel03252504293D

 30 32  0  0  0  0  0  0  0  0999 V2000
   37.5370   29.5730   42.0920 C   0  0  0  0  0  3  0  0  0  0  0  0
   37.1860   28.5820   42.9430 C   0  0  0  0  0  3  0  0  0  0  0  0
   38.1020   27.6410   43.6420 C   0  0  0  0  0  0  0  0  0  0  0  0
   39.0870   28.1800   43.6790 H   0  0  0  0  0  0  0  0  0  0  0  0
   37.7960   27.4820   44.7030 H   0  0  0  0  0  0  0  0  0  0  0  0
   39.4850   25.6530   42.9200 C   0  0  0  0  0  3  0  0  0  0  0  0
   38.2930   26.3820   42.9090 C   0  0  0  0  0  0  0  0  0  0  0  0
   37.2310   25.8830   42.1600 C   0  0  0  0  0  0  0  0  0  0  0  0
   36.2620   26.3740   42.0860 H   0  0  0  0  0  0  0  0  0  0  0  0
   37.3040   24.7130   41.4360 C   0  0  0  0  0  0  0  0  0  0  0  0
   36.4700   24.0110   40.6490 N   0  0  0  0  0  0  0  0  0  0  0  0
   35.5020   24.2780   40.4310 H   0  0  0  0  0  0  0  0  0  0  0  0
   37.0610   22.9080   40.1760 C   0  0  0  0  0  0  0  0  0  0  0  0
   36.6000   22.1700   39.5160 H   0  0  0  0  0  0  0  0  0  0  0  0
   38.3440   22.8720   40.6700 C   0  0  0  0  0  3  0  0  0  0  0  0
   38.4840   24.0050   41.4550 C   0  0  0  0  0  0  0  0  0  0  0  0
   39.5240   24.4910   42.1870 C   0  0  0  0  0  3  0  0  0  0  0  0
   36.5450   30.3600   41.5290 O   0  0  0  0  0  0  0  0  0  0  0  0
   36.6760   31.4390   40.6940 C   0  0  0  0  0  0  0  0  0  0  0  0
   35.8910   32.1860   40.9010 H   0  0  0  0  0  0  0  0  0  0  0  0
   37.6300   31.9780   41.0360 H   0  0  0  0  0  0  0  0  0  0  0  0
   36.1400   30.0470   38.8420 C   0  0  0  0  0  0  0  0  0  0  0  0
   36.8920   31.1420   39.2900 C   0  0  0  0  0  0  0  0  0  0  0  0
   37.6980   31.7400   38.3590 C   0  0  0  0  0  0  0  0  0  0  0  0
   37.7070   31.2440   37.1130 N   0  0  0  0  0  0  0  0  0  0  0  0
   36.9880   30.2050   36.7010 C   0  0  0  0  0  0  0  0  0  0  0  0
   36.1450   29.5380   37.5740 N   0  0  0  0  0  0  0  0  0  0  0  0
   35.4470   29.4630   39.4680 H   0  0  0  0  0  0  0  0  0  0  0  0
   38.2580   32.5780   38.7490 H   0  0  0  0  0  0  0  0  0  0  0  0
   37.0870   29.9040   35.6680 H   0  0  0  0  0  0  0  0  0  0  0  0
  1  2  2  0  0  0  0
  2  3  1  0  0  0  0
  3  4  1  0  0  0  0
  3  5  1  0  0  0  0
  7  6  1  0  0  0  0
  7  3  1  0  0  0  0
  8  7  2  0  0  0  0
  9  8  1  0  0  0  0
 10 16  2  0  0  0  0
 10  8  1  0  0  0  0
 11 10  1  0  0  0  0
 12 11  1  0  0  0  0
 13 11  1  0  0  0  0
 13 15  2  0  0  0  0
 14 13  1  0  0  0  0
 15 16  1  0  0  0  0
 16 17  1  0  0  0  0
 17  6  2  0  0  0  0
 18  1  1  0  0  0  0
 19 20  1  0  0  0  0
 19 21  1  0  0  0  0
 19 18  1  0  0  0  0
 22 23  1  0  0  0  0
 22 28  1  0  0  0  0
 23 19  1  0  0  0  0
 24 29  1  0  0  0  0
 24 23  2  0  0  0  0
 25 24  1  0  0  0  0
 26 25  2  0  0  0  0
 26 27  1  0  0  0  0
 27 22  2  0  0  0  0
 30 26  1  0  0  0  0
M  END
>  <minimizedAffinity>
-5.12915182

$$$$

 OpenBabel03252504293D

 30 32  0  0  0  0  0  0  0  0999 V2000
   36.6760   27.6750   40.6430 C   0  0  0  0  0  3  0  0  0  0  0  0
   35.8590   28.7130   40.9340 C   0  0  0  0  0  3  0  0  0  0  0  0
   35.4380   29.8020   40.0110 C   0  0  0  0  0  0  0  0  0  0  0  0
   35.1380   29.2720   39.0660 H   0  0  0  0  0  0  0  0  0  0  0  0
   34.5210   30.3200   40.3790 H   0  0  0  0  0  0  0  0  0  0  0  0
   37.1060   30.8410   38.4220 C   0  0  0  0  0  3  0  0  0  0  0  0
   36.5300   30.7320   39.6900 C   0  0  0  0  0  0  0  0  0  0  0  0
   37.0200   31.5520   40.7020 C   0  0  0  0  0  0  0  0  0  0  0  0
   36.6400   31.5450   41.7220 H   0  0  0  0  0  0  0  0  0  0  0  0
   38.0400   32.4590   40.5090 C   0  0  0  0  0  0  0  0  0  0  0  0
   38.6960   33.3500   41.2720 N   0  0  0  0  0  0  0  0  0  0  0  0
   38.5110   33.5210   42.2680 H   0  0  0  0  0  0  0  0  0  0  0  0
   39.6310   33.9980   40.5670 C   0  0  0  0  0  0  0  0  0  0  0  0
   40.2990   34.7700   40.9520 H   0  0  0  0  0  0  0  0  0  0  0  0
   39.5970   33.5160   39.2790 C   0  0  0  0  0  3  0  0  0  0  0  0
   38.5990   32.5550   39.2550 C   0  0  0  0  0  0  0  0  0  0  0  0
   38.1210   31.7540   38.2640 C   0  0  0  0  0  3  0  0  0  0  0  0
   36.9630   26.7480   41.6300 O   0  0  0  0  0  0  0  0  0  0  0  0
   37.3760   26.9650   42.9200 C   0  0  0  0  0  0  0  0  0  0  0  0
   36.8760   27.8540   43.3410 H   0  0  0  0  0  0  0  0  0  0  0  0
   36.9240   26.1090   43.5350 H   0  0  0  0  0  0  0  0  0  0  0  0
   39.4610   28.1100   42.9420 C   0  0  0  0  0  0  0  0  0  0  0  0
   38.8060   26.8880   43.1570 C   0  0  0  0  0  0  0  0  0  0  0  0
   39.5980   25.8400   43.5400 C   0  0  0  0  0  0  0  0  0  0  0  0
   40.9140   26.0550   43.6800 N   0  0  0  0  0  0  0  0  0  0  0  0
   41.5220   27.2170   43.4730 C   0  0  0  0  0  0  0  0  0  0  0  0
   40.8020   28.3330   43.0830 N   0  0  0  0  0  0  0  0  0  0  0  0
   38.9640   29.0430   42.6310 H   0  0  0  0  0  0  0  0  0  0  0  0
   39.0500   24.9210   43.6940 H   0  0  0  0  0  0  0  0  0  0  0  0
   42.5920   27.2570   43.6200 H   0  0  0  0  0  0  0  0  0  0  0  0
  1  2  2  0  0  0  0
  1 18  1  0  0  0  0
  3  5  1  0  0  0  0
  3  2  1  0  0  0  0
  4  3  1  0  0  0  0
  6  7  1  0  0  0  0
  7  3  1  0  0  0  0
  7  8  2  0  0  0  0
  8  9  1  0  0  0  0
 10  8  1  0  0  0  0
 10 11  1  0  0  0  0
 11 12  1  0  0  0  0
 13 14  1  0  0  0  0
 13 11  1  0  0  0  0
 15 13  2  0  0  0  0
 16 15  1  0  0  0  0
 16 10  2  0  0  0  0
 17  6  2  0  0  0  0
 17 16  1  0  0  0  0
 18 19  1  0  0  0  0
 19 23  1  0  0  0  0
 19 20  1  0  0  0  0
 19 21  1  0  0  0  0
 22 27  2  0  0  0  0
 22 23  1  0  0  0  0
 23 24  2  0  0  0  0
 24 25  1  0  0  0  0
 24 29  1  0  0  0  0
 26 30  1  0  0  0  0
 26 25  2  0  0  0  0
 27 26  1  0  0  0  0
 28 22  1  0  0  0  0
M  END
>  <minimizedAffinity>
-5.01068401

$$$$

 OpenBabel03252504293D

 30 32  0  0  0  0  0  0  0  0999 V2000
   38.4540   29.5210   41.8320 C   0  0  0  0  0  3  0  0  0  0  0  0
   37.1390   29.8160   41.9550 C   0  0  0  0  0  3  0  0  0  0  0  0
   36.3470   30.7340   41.0920 C   0  0  0  0  0  0  0  0  0  0  0  0
   35.3900   30.8980   41.6580 H   0  0  0  0  0  0  0  0  0  0  0  0
   36.8310   31.7350   41.0060 H   0  0  0  0  0  0  0  0  0  0  0  0
   34.9610   29.2500   39.5870 C   0  0  0  0  0  3  0  0  0  0  0  0
   36.0140   30.1460   39.7870 C   0  0  0  0  0  0  0  0  0  0  0  0
   36.7890   30.4980   38.6850 C   0  0  0  0  0  0  0  0  0  0  0  0
   37.6300   31.1870   38.7350 H   0  0  0  0  0  0  0  0  0  0  0  0
   36.5640   30.0060   37.4180 C   0  0  0  0  0  0  0  0  0  0  0  0
   37.1270   30.1620   36.2080 N   0  0  0  0  0  0  0  0  0  0  0  0
   37.9360   30.7640   36.0080 H   0  0  0  0  0  0  0  0  0  0  0  0
   36.4990   29.4290   35.2810 C   0  0  0  0  0  0  0  0  0  0  0  0
   36.7610   29.3800   34.2230 H   0  0  0  0  0  0  0  0  0  0  0  0
   35.4730   28.7550   35.9010 C   0  0  0  0  0  3  0  0  0  0  0  0
   35.5230   29.1230   37.2360 C   0  0  0  0  0  0  0  0  0  0  0  0
   34.7650   28.7770   38.3120 C   0  0  0  0  0  3  0  0  0  0  0  0
   39.0330   28.6390   42.7290 O   0  0  0  0  0  0  0  0  0  0  0  0
   38.4410   27.6300   43.4450 C   0  0  0  0  0  0  0  0  0  0  0  0
   38.7710   27.6580   44.4970 H   0  0  0  0  0  0  0  0  0  0  0  0
   37.3330   27.9190   43.5230 H   0  0  0  0  0  0  0  0  0  0  0  0
   37.1920   25.9420   42.3290 C   0  0  0  0  0  0  0  0  0  0  0  0
   38.4480   26.3170   42.8290 C   0  0  0  0  0  0  0  0  0  0  0  0
   39.4560   25.4050   42.6660 C   0  0  0  0  0  0  0  0  0  0  0  0
   39.1740   24.2460   42.0540 N   0  0  0  0  0  0  0  0  0  0  0  0
   37.9790   23.9040   41.5860 C   0  0  0  0  0  0  0  0  0  0  0  0
   36.9000   24.7630   41.7050 N   0  0  0  0  0  0  0  0  0  0  0  0
   36.2840   26.5640   42.3820 H   0  0  0  0  0  0  0  0  0  0  0  0
   40.4040   25.7370   43.0660 H   0  0  0  0  0  0  0  0  0  0  0  0
   37.8840   22.9370   41.1120 H   0  0  0  0  0  0  0  0  0  0  0  0
  1  2  2  0  0  0  0
  1 18  1  0  0  0  0
  3  4  1  0  0  0  0
  3  2  1  0  0  0  0
  5  3  1  0  0  0  0
  6  7  1  0  0  0  0
  7  3  1  0  0  0  0
  8  9  1  0  0  0  0
  8  7  2  0  0  0  0
 10  8  1  0  0  0  0
 11 10  1  0  0  0  0
 12 11  1  0  0  0  0
 13 15  2  0  0  0  0
 13 11  1  0  0  0  0
 14 13  1  0  0  0  0
 15 16  1  0  0  0  0
 16 10  2  0  0  0  0
 16 17  1  0  0  0  0
 17  6  2  0  0  0  0
 18 19  1  0  0  0  0
 19 21  1  0  0  0  0
 19 20  1  0  0  0  0
 22 28  1  0  0  0  0
 22 23  1  0  0  0  0
 23 19  1  0  0  0  0
 24 23  2  0  0  0  0
 24 29  1  0  0  0  0
 25 24  1  0  0  0  0
 26 27  1  0  0  0  0
 26 25  2  0  0  0  0
 27 22  2  0  0  0  0
 30 26  1  0  0  0  0
M  END
>  <minimizedAffinity>
-4.96858215

$$$$

 OpenBabel03252504293D

 30 32  0  0  0  0  0  0  0  0999 V2000
   36.8990   29.3460   36.9310 C   0  0  0  0  0  3  0  0  0  0  0  0
   35.7710   28.9910   37.5880 C   0  0  0  0  0  3  0  0  0  0  0  0
   35.4700   27.6630   38.1880 C   0  0  0  0  0  0  0  0  0  0  0  0
   34.3540   27.6600   38.3230 H   0  0  0  0  0  0  0  0  0  0  0  0
   35.6980   26.8320   37.4800 H   0  0  0  0  0  0  0  0  0  0  0  0
   36.6410   26.2680   39.9400 C   0  0  0  0  0  3  0  0  0  0  0  0
   36.0930   27.4780   39.5060 C   0  0  0  0  0  0  0  0  0  0  0  0
   36.1430   28.5650   40.3740 C   0  0  0  0  0  0  0  0  0  0  0  0
   35.7460   29.5490   40.1310 H   0  0  0  0  0  0  0  0  0  0  0  0
   36.7040   28.5000   41.6310 C   0  0  0  0  0  0  0  0  0  0  0  0
   36.8890   29.3560   42.6500 N   0  0  0  0  0  0  0  0  0  0  0  0
   36.5970   30.3410   42.6530 H   0  0  0  0  0  0  0  0  0  0  0  0
   37.5080   28.7620   43.6770 C   0  0  0  0  0  0  0  0  0  0  0  0
   37.7740   29.2380   44.6230 H   0  0  0  0  0  0  0  0  0  0  0  0
   37.7460   27.4540   43.3260 C   0  0  0  0  0  3  0  0  0  0  0  0
   37.2400   27.3020   42.0460 C   0  0  0  0  0  0  0  0  0  0  0  0
   37.1920   26.2370   41.1990 C   0  0  0  0  0  3  0  0  0  0  0  0
   37.0110   30.6340   36.4350 O   0  0  0  0  0  0  0  0  0  0  0  0
   37.7820   31.6700   36.8980 C   0  0  0  0  0  0  0  0  0  0  0  0
   38.7120   31.7520   36.3110 H   0  0  0  0  0  0  0  0  0  0  0  0
   37.2180   32.6260   36.6080 H   0  0  0  0  0  0  0  0  0  0  0  0
   39.2700   31.5230   38.7470 C   0  0  0  0  0  0  0  0  0  0  0  0
   37.9480   31.7510   38.3380 C   0  0  0  0  0  0  0  0  0  0  0  0
   37.0440   32.0020   39.3340 C   0  0  0  0  0  0  0  0  0  0  0  0
   37.4810   32.0110   40.6020 N   0  0  0  0  0  0  0  0  0  0  0  0
   38.7360   31.7930   40.9770 C   0  0  0  0  0  0  0  0  0  0  0  0
   39.7200   31.5310   40.0380 N   0  0  0  0  0  0  0  0  0  0  0  0
   40.1100   31.3080   38.0680 H   0  0  0  0  0  0  0  0  0  0  0  0
   36.0410   32.1720   38.9710 H   0  0  0  0  0  0  0  0  0  0  0  0
   38.9580   31.8280   42.0340 H   0  0  0  0  0  0  0  0  0  0  0  0
  1  2  2  0  0  0  0
  2  3  1  0  0  0  0
  3  4  1  0  0  0  0
  3  7  1  0  0  0  0
  5  3  1  0  0  0  0
  6 17  1  0  0  0  0
  7  6  2  0  0  0  0
  7  8  1  0  0  0  0
  8 10  2  0  0  0  0
  9  8  1  0  0  0  0
 10 16  1  0  0  0  0
 10 11  1  0  0  0  0
 11 12  1  0  0  0  0
 11 13  1  0  0  0  0
 13 14  1  0  0  0  0
 15 13  2  0  0  0  0
 16 15  1  0  0  0  0
 17 16  2  0  0  0  0
 18 19  1  0  0  0  0
 18  1  1  0  0  0  0
 19 23  1  0  0  0  0
 20 19  1  0  0  0  0
 21 19  1  0  0  0  0
 22 27  1  0  0  0  0
 23 22  2  0  0  0  0
 23 24  1  0  0  0  0
 24 25  2  0  0  0  0
 25 26  1  0  0  0  0
 26 30  1  0  0  0  0
 27 26  2  0  0  0  0
 28 22  1  0  0  0  0
 29 24  1  0  0  0  0
M  END
>  <minimizedAffinity>
-4.95141792

$$$$

 OpenBabel03252504293D

 30 32  0  0  0  0  0  0  0  0999 V2000
   33.8570   28.3210   36.4850 C   0  0  0  0  0  3  0  0  0  0  0  0
   34.2820   28.7800   37.6850 C   0  0  0  0  0  3  0  0  0  0  0  0
   35.6690   29.1800   38.0450 C   0  0  0  0  0  0  0  0  0  0  0  0
   36.3010   28.8060   37.1950 H   0  0  0  0  0  0  0  0  0  0  0  0
   35.7860   30.2890   38.0540 H   0  0  0  0  0  0  0  0  0  0  0  0
   36.4080   27.1800   39.4020 C   0  0  0  0  0  3  0  0  0  0  0  0
   36.1420   28.5470   39.2840 C   0  0  0  0  0  0  0  0  0  0  0  0
   36.3370   29.3480   40.4060 C   0  0  0  0  0  0  0  0  0  0  0  0
   36.1590   30.4220   40.4180 H   0  0  0  0  0  0  0  0  0  0  0  0
   36.7770   28.8570   41.6150 C   0  0  0  0  0  0  0  0  0  0  0  0
   37.0470   29.3740   42.8260 N   0  0  0  0  0  0  0  0  0  0  0  0
   36.9530   30.3660   43.0770 H   0  0  0  0  0  0  0  0  0  0  0  0
   37.4580   28.4270   43.6780 C   0  0  0  0  0  0  0  0  0  0  0  0
   37.7390   28.5860   44.7210 H   0  0  0  0  0  0  0  0  0  0  0  0
   37.4630   27.2280   43.0050 C   0  0  0  0  0  3  0  0  0  0  0  0
   37.0350   27.5090   41.7170 C   0  0  0  0  0  0  0  0  0  0  0  0
   36.8450   26.7230   40.6220 C   0  0  0  0  0  3  0  0  0  0  0  0
   32.5210   27.9930   36.3250 O   0  0  0  0  0  0  0  0  0  0  0  0
   31.5480   28.6670   35.6320 C   0  0  0  0  0  0  0  0  0  0  0  0
   31.8500   28.8120   34.5810 H   0  0  0  0  0  0  0  0  0  0  0  0
   30.6710   27.9320   35.5410 H   0  0  0  0  0  0  0  0  0  0  0  0
   31.0230   30.9810   35.4700 C   0  0  0  0  0  0  0  0  0  0  0  0
   30.9920   29.8390   36.2830 C   0  0  0  0  0  0  0  0  0  0  0  0
   30.4630   30.0060   37.5340 C   0  0  0  0  0  0  0  0  0  0  0  0
   30.0210   31.2230   37.8820 N   0  0  0  0  0  0  0  0  0  0  0  0
   30.0560   32.2970   37.1010 C   0  0  0  0  0  0  0  0  0  0  0  0
   30.5740   32.2240   35.8190 N   0  0  0  0  0  0  0  0  0  0  0  0
   31.4170   31.0090   34.4410 H   0  0  0  0  0  0  0  0  0  0  0  0
   30.4600   29.1000   38.1240 H   0  0  0  0  0  0  0  0  0  0  0  0
   29.6680   33.2230   37.5020 H   0  0  0  0  0  0  0  0  0  0  0  0
  1  2  2  0  0  0  0
  2  3  1  0  0  0  0
  3  5  1  0  0  0  0
  3  7  1  0  0  0  0
  4  3  1  0  0  0  0
  6 17  1  0  0  0  0
  7  6  2  0  0  0  0
  7  8  1  0  0  0  0
  8  9  1  0  0  0  0
  8 10  2  0  0  0  0
 10 16  1  0  0  0  0
 10 11  1  0  0  0  0
 11 12  1  0  0  0  0
 11 13  1  0  0  0  0
 13 14  1  0  0  0  0
 15 13  2  0  0  0  0
 16 15  1  0  0  0  0
 17 16  2  0  0  0  0
 18  1  1  0  0  0  0
 19 23  1  0  0  0  0
 19 18  1  0  0  0  0
 20 19  1  0  0  0  0
 21 19  1  0  0  0  0
 22 27  2  0  0  0  0
 22 23  1  0  0  0  0
 23 24  2  0  0  0  0
 24 25  1  0  0  0  0
 24 29  1  0  0  0  0
 26 30  1  0  0  0  0
 26 25  2  0  0  0  0
 27 26  1  0  0  0  0
 28 22  1  0  0  0  0
M  END
>  <minimizedAffinity>
-4.90466499

$$$$
