
 OpenBabel03252509103D

 34 38  0  0  0  0  0  0  0  0999 V2000
   44.9940   31.3940   41.6970 C   0  0  0  0  0  0  0  0  0  0  0  0
   45.8440   31.4230   42.7880 C   0  0  0  0  0  0  0  0  0  0  0  0
   45.5920   30.7110   43.9410 C   0  0  0  0  0  0  0  0  0  0  0  0
   44.4310   29.9230   44.0250 C   0  0  0  0  0  0  0  0  0  0  0  0
   43.8830   29.1170   44.9750 N   0  0  0  0  0  0  0  0  0  0  0  0
   42.7220   28.6070   44.4770 C   0  0  0  0  0  0  0  0  0  0  0  0
   42.5770   29.1110   43.2190 N   0  0  0  0  0  0  0  0  0  0  0  0
   43.6080   29.9190   42.9210 C   0  0  0  0  0  0  0  0  0  0  0  0
   43.8400   30.6180   41.7650 C   0  0  0  0  0  0  0  0  0  0  0  0
   45.2210   31.9690   40.7970 H   0  0  0  0  0  0  0  0  0  0  0  0
   44.3230   28.9550   45.9130 H   0  0  0  0  0  0  0  0  0  0  0  0
   42.0890   27.9300   45.0410 H   0  0  0  0  0  0  0  0  0  0  0  0
   43.1430   30.5620   40.9390 H   0  0  0  0  0  0  0  0  0  0  0  0
   47.2830   29.5970   45.1550 C   0  0  0  0  0  3  0  0  0  0  0  0
   46.4320   30.6900   45.1230 C   0  0  0  0  0  0  0  0  0  0  0  0
   46.4620   31.6100   46.1670 C   0  0  0  0  0  0  0  0  0  0  0  0
   45.7580   32.4270   46.0480 H   0  0  0  0  0  0  0  0  0  0  0  0
   47.3360   31.4130   47.2050 C   0  0  0  0  0  0  0  0  0  0  0  0
   47.5240   32.1670   48.2950 N   0  0  0  0  0  0  0  0  0  0  0  0
   47.0440   33.0450   48.5620 H   0  0  0  0  0  0  0  0  0  0  0  0
   48.4920   31.5850   49.0500 C   0  0  0  0  0  0  0  0  0  0  0  0
   48.8560   31.9590   49.9780 H   0  0  0  0  0  0  0  0  0  0  0  0
   48.9170   30.4310   48.4030 C   0  0  0  0  0  3  0  0  0  0  0  0
   48.1840   30.3320   47.2450 C   0  0  0  0  0  0  0  0  0  0  0  0
   48.1600   29.4240   46.2230 C   0  0  0  0  0  3  0  0  0  0  0  0
   48.1720   34.2560   43.0460 C   0  0  0  0  0  0  0  0  0  0  0  0
   49.3810   33.6930   42.6430 C   0  0  0  0  0  0  0  0  0  0  0  0
   49.3900   32.3390   42.2840 C   0  0  0  0  0  0  0  0  0  0  0  0
   48.2120   31.6520   42.3500 N   0  0  0  0  0  0  0  0  0  0  0  0
   47.0530   32.2230   42.7450 C   0  0  0  0  0  0  0  0  0  0  0  0
   47.0450   33.5110   43.0860 N   0  0  0  0  0  0  0  0  0  0  0  0
   48.0980   35.3100   43.3390 H   0  0  0  0  0  0  0  0  0  0  0  0
   50.2750   34.2840   42.6100 H   0  0  0  0  0  0  0  0  0  0  0  0
   50.3080   31.8540   41.9620 H   0  0  0  0  0  0  0  0  0  0  0  0
  1  9  2  0  0  0  0
  1  2  1  0  0  0  0
  2  3  2  0  0  0  0
  3  4  1  0  0  0  0
  3 15  1  0  0  0  0
  4  5  1  0  0  0  0
  5 11  1  0  0  0  0
  6  5  1  0  0  0  0
  6 12  1  0  0  0  0
  7  6  2  0  0  0  0
  8  7  1  0  0  0  0
  8  4  2  0  0  0  0
  9  8  1  0  0  0  0
 10  1  1  0  0  0  0
 13  9  1  0  0  0  0
 14 25  1  0  0  0  0
 15 14  2  0  0  0  0
 15 16  1  0  0  0  0
 16 18  2  0  0  0  0
 17 16  1  0  0  0  0
 18 24  1  0  0  0  0
 18 19  1  0  0  0  0
 19 20  1  0  0  0  0
 19 21  1  0  0  0  0
 21 22  1  0  0  0  0
 23 21  2  0  0  0  0
 24 23  1  0  0  0  0
 25 24  2  0  0  0  0
 26 31  1  0  0  0  0
 26 32  1  0  0  0  0
 27 26  2  0  0  0  0
 28 29  2  0  0  0  0
 28 27  1  0  0  0  0
 29 30  1  0  0  0  0
 30  2  1  0  0  0  0
 30 31  2  0  0  0  0
 33 27  1  0  0  0  0
 34 28  1  0  0  0  0
M  END
>  <minimizedAffinity>
-4.19056988

>  <minimizedRMSD>
5.39460754

$$$$
