
 OpenBabel03252508543D

 46 50  0  0  1  0  0  0  0  0999 V2000
   42.9370   34.2080   40.4920 C   0  0  0  0  0  0  0  0  0  0  0  0
   42.9140   35.2270   39.7230 O   0  0  0  0  0  0  0  0  0  0  0  0
   41.5700   33.7330   40.3310 N   0  0  0  0  0  0  0  0  0  0  0  0
   41.2140   33.3750   38.9790 C   0  0  0  0  0  0  0  0  0  0  0  0
   40.4370   34.5920   38.4330 C   0  0  0  0  0  0  0  0  0  0  0  0
   39.6400   35.1650   39.6180 C   0  0  0  0  0  0  0  0  0  0  0  0
   39.2620   34.0580   40.5750 C   0  0  0  0  0  0  0  0  0  0  0  0
   40.5200   33.5690   41.3190 C   0  0  1  0  0  0  0  0  0  0  0  0
   40.6020   32.4600   38.9180 H   0  0  0  0  0  0  0  0  0  0  0  0
   42.0770   33.2520   38.2980 H   0  0  0  0  0  0  0  0  0  0  0  0
   39.7270   34.2140   37.6940 H   0  0  0  0  0  0  0  0  0  0  0  0
   41.1570   35.3400   38.0780 H   0  0  0  0  0  0  0  0  0  0  0  0
   40.2770   35.8760   40.1750 H   0  0  0  0  0  0  0  0  0  0  0  0
   38.7070   35.6410   39.2700 H   0  0  0  0  0  0  0  0  0  0  0  0
   38.4670   34.3750   41.2420 H   0  0  0  0  0  0  0  0  0  0  0  0
   38.9440   33.1660   39.9820 H   0  0  0  0  0  0  0  0  0  0  0  0
   40.7060   34.2300   42.1690 H   0  0  0  0  0  0  0  0  0  0  0  0
   39.2680   31.3500   41.4540 C   0  0  0  0  0  3  0  0  0  0  0  0
   40.3710   32.1350   41.6740 C   0  0  0  0  0  0  0  0  0  0  0  0
   41.4460   31.5230   42.2860 C   0  0  0  0  0  0  0  0  0  0  0  0
   42.3940   31.9740   42.5400 H   0  0  0  0  0  0  0  0  0  0  0  0
   41.4250   30.1780   42.6650 C   0  0  0  0  0  0  0  0  0  0  0  0
   42.2700   29.3130   43.2580 N   0  0  0  0  0  0  0  0  0  0  0  0
   43.2320   29.5700   43.5740 H   0  0  0  0  0  0  0  0  0  0  0  0
   41.6940   28.1020   43.3750 C   0  0  0  0  0  0  0  0  0  0  0  0
   42.1890   27.2310   43.8270 H   0  0  0  0  0  0  0  0  0  0  0  0
   40.4190   28.1340   42.8490 C   0  0  0  0  0  3  0  0  0  0  0  0
   40.2720   29.4340   42.4130 C   0  0  0  0  0  0  0  0  0  0  0  0
   39.1870   30.0300   41.8020 C   0  0  0  0  0  3  0  0  0  0  0  0
   43.9900   33.7570   41.2240 O   0  0  0  0  0  0  0  0  0  0  0  0
   45.3260   33.9430   40.9690 C   0  0  0  0  0  0  0  0  0  0  0  0
   46.1000   34.5360   41.9690 C   0  0  0  0  0  0  0  0  0  0  0  0
   47.4610   34.7150   41.6840 C   0  0  0  0  0  0  0  0  0  0  0  0
   47.9400   34.3050   40.4630 N   0  0  0  0  0  0  0  0  0  0  0  0
   47.1560   33.7500   39.5590 C   0  0  0  0  0  0  0  0  0  0  0  0
   45.8480   33.5630   39.7990 N   0  0  0  0  0  0  0  0  0  0  0  0
   48.0440   35.1720   42.4590 H   0  0  0  0  0  0  0  0  0  0  0  0
   47.6360   33.4600   38.6240 H   0  0  0  0  0  0  0  0  0  0  0  0
   45.4940   34.9310   43.2190 C   0  0  0  0  0  0  0  0  0  0  0  0
   45.0060   36.2090   43.4590 C   0  0  0  0  0  0  0  0  0  0  0  0
   44.5280   36.1490   44.7420 C   0  0  0  0  0  0  0  0  0  0  0  0
   44.7080   34.9140   45.2560 N   0  0  0  0  0  0  0  0  0  0  0  0
   45.2910   34.2070   44.3170 N   0  0  0  0  0  0  0  0  0  0  0  0
   44.9920   37.0790   42.8060 H   0  0  0  0  0  0  0  0  0  0  0  0
   44.0570   36.9200   45.3420 H   0  0  0  0  0  0  0  0  0  0  0  0
   44.4550   34.5450   46.1990 H   0  0  0  0  0  0  0  0  0  0  0  0
  1 30  1  0  0  0  0
  2  1  2  0  0  0  0
  3  1  1  0  0  0  0
  3  8  1  0  0  0  0
  4  3  1  0  0  0  0
  5  4  1  0  0  0  0
  5  6  1  0  0  0  0
  6 13  1  0  0  0  0
  6  7  1  0  0  0  0
  7 15  1  0  0  0  0
  7  8  1  0  0  0  0
  8 19  1  0  0  0  0
  8 17  1  1  0  0  0
  9  4  1  0  0  0  0
 10  4  1  0  0  0  0
 11  5  1  0  0  0  0
 12  5  1  0  0  0  0
 14  6  1  0  0  0  0
 16  7  1  0  0  0  0
 18 19  2  0  0  0  0
 18 29  1  0  0  0  0
 19 20  1  0  0  0  0
 20 21  1  0  0  0  0
 20 22  2  0  0  0  0
 22 23  1  0  0  0  0
 23 25  1  0  0  0  0
 23 24  1  0  0  0  0
 25 26  1  0  0  0  0
 27 25  2  0  0  0  0
 28 22  1  0  0  0  0
 28 27  1  0  0  0  0
 29 28  2  0  0  0  0
 31 30  1  0  0  0  0
 31 32  1  0  0  0  0
 32 39  1  0  0  0  0
 33 32  2  0  0  0  0
 33 37  1  0  0  0  0
 34 33  1  0  0  0  0
 35 36  1  0  0  0  0
 35 34  2  0  0  0  0
 36 31  2  0  0  0  0
 38 35  1  0  0  0  0
 39 40  1  0  0  0  0
 39 43  2  0  0  0  0
 40 41  2  0  0  0  0
 41 42  1  0  0  0  0
 41 45  1  0  0  0  0
 42 46  1  0  0  0  0
 43 42  1  0  0  0  0
 44 40  1  0  0  0  0
M  END
>  <minimizedAffinity>
-6.98450804

>  <minimizedRMSD>
1.42796385

$$$$
