
 OpenBabel03252508533D

 46 50  0  0  1  0  0  0  0  0999 V2000
   43.2400   34.3760   40.5550 C   0  0  0  0  0  0  0  0  0  0  0  0
   43.2580   35.4850   39.9220 O   0  0  0  0  0  0  0  0  0  0  0  0
   41.8270   34.0410   40.4460 N   0  0  0  0  0  0  0  0  0  0  0  0
   41.3480   33.8920   39.0930 C   0  0  0  0  0  0  0  0  0  0  0  0
   40.6500   35.2300   38.7640 C   0  0  0  0  0  0  0  0  0  0  0  0
   39.9920   35.7070   40.0710 C   0  0  0  0  0  0  0  0  0  0  0  0
   39.5810   34.5210   40.9110 C   0  0  0  0  0  0  0  0  0  0  0  0
   40.8370   33.8370   41.4860 C   0  0  1  0  0  0  0  0  0  0  0  0
   40.6520   33.0460   38.9680 H   0  0  0  0  0  0  0  0  0  0  0  0
   42.1470   33.7880   38.3350 H   0  0  0  0  0  0  0  0  0  0  0  0
   39.8600   35.0110   38.0430 H   0  0  0  0  0  0  0  0  0  0  0  0
   41.4100   35.9560   38.4480 H   0  0  0  0  0  0  0  0  0  0  0  0
   40.7290   36.2860   40.6580 H   0  0  0  0  0  0  0  0  0  0  0  0
   39.0860   36.3000   39.8600 H   0  0  0  0  0  0  0  0  0  0  0  0
   38.8660   34.8120   41.6730 H   0  0  0  0  0  0  0  0  0  0  0  0
   39.1420   33.7420   40.2390 H   0  0  0  0  0  0  0  0  0  0  0  0
   41.1410   34.3650   42.3930 H   0  0  0  0  0  0  0  0  0  0  0  0
   41.5050   31.4350   42.0220 C   0  0  0  0  0  3  0  0  0  0  0  0
   40.5810   32.3860   41.6720 C   0  0  0  0  0  0  0  0  0  0  0  0
   39.2890   31.9440   41.4760 C   0  0  0  0  0  0  0  0  0  0  0  0
   38.4330   32.5390   41.2000 H   0  0  0  0  0  0  0  0  0  0  0  0
   38.9290   30.6020   41.6230 C   0  0  0  0  0  0  0  0  0  0  0  0
   37.8030   29.8710   41.5090 N   0  0  0  0  0  0  0  0  0  0  0  0
   36.8760   30.2760   41.2480 H   0  0  0  0  0  0  0  0  0  0  0  0
   38.0550   28.5760   41.7750 C   0  0  0  0  0  0  0  0  0  0  0  0
   37.2930   27.7860   41.7470 H   0  0  0  0  0  0  0  0  0  0  0  0
   39.3920   28.4110   42.0810 C   0  0  0  0  0  3  0  0  0  0  0  0
   39.9150   29.6820   41.9800 C   0  0  0  0  0  0  0  0  0  0  0  0
   41.2120   30.1070   42.1800 C   0  0  0  0  0  3  0  0  0  0  0  0
   44.2950   33.7500   41.1390 O   0  0  0  0  0  0  0  0  0  0  0  0
   45.6290   34.0140   40.9580 C   0  0  0  0  0  0  0  0  0  0  0  0
   46.3180   34.6230   42.0100 C   0  0  0  0  0  0  0  0  0  0  0  0
   47.6800   34.8830   41.7990 C   0  0  0  0  0  0  0  0  0  0  0  0
   48.2420   34.5300   40.5960 N   0  0  0  0  0  0  0  0  0  0  0  0
   47.5360   33.9570   39.6400 C   0  0  0  0  0  0  0  0  0  0  0  0
   46.2300   33.6930   39.8080 N   0  0  0  0  0  0  0  0  0  0  0  0
   48.1970   35.3500   42.6130 H   0  0  0  0  0  0  0  0  0  0  0  0
   48.0780   33.7170   38.7250 H   0  0  0  0  0  0  0  0  0  0  0  0
   45.6290   34.9520   43.2350 C   0  0  0  0  0  0  0  0  0  0  0  0
   45.0300   36.1850   43.4650 C   0  0  0  0  0  0  0  0  0  0  0  0
   44.5030   36.0700   44.7250 C   0  0  0  0  0  0  0  0  0  0  0  0
   44.7600   34.8470   45.2350 N   0  0  0  0  0  0  0  0  0  0  0  0
   45.4370   34.2000   44.3160 N   0  0  0  0  0  0  0  0  0  0  0  0
   44.9740   37.0590   42.8200 H   0  0  0  0  0  0  0  0  0  0  0  0
   43.9460   36.7930   45.3100 H   0  0  0  0  0  0  0  0  0  0  0  0
   44.4970   34.4480   46.1630 H   0  0  0  0  0  0  0  0  0  0  0  0
  1 30  1  0  0  0  0
  2  1  2  0  0  0  0
  3  1  1  0  0  0  0
  3  8  1  0  0  0  0
  4  3  1  0  0  0  0
  5  4  1  0  0  0  0
  5  6  1  0  0  0  0
  6 13  1  0  0  0  0
  6  7  1  0  0  0  0
  7  8  1  0  0  0  0
  7 15  1  0  0  0  0
  8 19  1  0  0  0  0
  8 17  1  1  0  0  0
  9  4  1  0  0  0  0
 10  4  1  0  0  0  0
 11  5  1  0  0  0  0
 12  5  1  0  0  0  0
 14  6  1  0  0  0  0
 16  7  1  0  0  0  0
 18 29  1  0  0  0  0
 19 18  2  0  0  0  0
 20 22  2  0  0  0  0
 20 19  1  0  0  0  0
 21 20  1  0  0  0  0
 22 28  1  0  0  0  0
 23 22  1  0  0  0  0
 23 25  1  0  0  0  0
 24 23  1  0  0  0  0
 25 27  2  0  0  0  0
 26 25  1  0  0  0  0
 28 27  1  0  0  0  0
 28 29  2  0  0  0  0
 31 30  1  0  0  0  0
 31 32  1  0  0  0  0
 32 39  1  0  0  0  0
 33 32  2  0  0  0  0
 33 37  1  0  0  0  0
 34 33  1  0  0  0  0
 35 36  1  0  0  0  0
 35 34  2  0  0  0  0
 36 31  2  0  0  0  0
 38 35  1  0  0  0  0
 39 40  1  0  0  0  0
 39 43  2  0  0  0  0
 40 41  2  0  0  0  0
 41 42  1  0  0  0  0
 41 45  1  0  0  0  0
 42 46  1  0  0  0  0
 43 42  1  0  0  0  0
 44 40  1  0  0  0  0
M  END
>  <minimizedAffinity>
-7.22110891

>  <minimizedRMSD>
0.968642652

$$$$
