
 OpenBabel03252508533D

 46 50  0  0  1  0  0  0  0  0999 V2000
   42.5270   34.1670   40.2280 C   0  0  0  0  0  0  0  0  0  0  0  0
   42.4610   35.0920   39.3500 O   0  0  0  0  0  0  0  0  0  0  0  0
   41.2000   33.5850   40.0900 N   0  0  0  0  0  0  0  0  0  0  0  0
   40.9100   33.0570   38.7780 C   0  0  0  0  0  0  0  0  0  0  0  0
   40.0720   34.1500   38.0810 C   0  0  0  0  0  0  0  0  0  0  0  0
   39.2030   34.7940   39.1760 C   0  0  0  0  0  0  0  0  0  0  0  0
   38.8690   33.7760   40.2420 C   0  0  0  0  0  0  0  0  0  0  0  0
   40.1330   33.4590   41.0640 C   0  0  1  0  0  0  0  0  0  0  0  0
   40.3620   32.1010   38.8050 H   0  0  0  0  0  0  0  0  0  0  0  0
   41.8000   32.9200   38.1350 H   0  0  0  0  0  0  0  0  0  0  0  0
   39.4120   33.6460   37.3720 H   0  0  0  0  0  0  0  0  0  0  0  0
   40.7520   34.9030   37.6610 H   0  0  0  0  0  0  0  0  0  0  0  0
   39.7740   35.6040   39.6640 H   0  0  0  0  0  0  0  0  0  0  0  0
   38.2520   35.1640   38.7550 H   0  0  0  0  0  0  0  0  0  0  0  0
   38.0340   34.1080   40.8490 H   0  0  0  0  0  0  0  0  0  0  0  0
   38.6290   32.8040   39.7440 H   0  0  0  0  0  0  0  0  0  0  0  0
   40.2490   34.2200   41.8390 H   0  0  0  0  0  0  0  0  0  0  0  0
   39.0670   31.1580   41.3400 C   0  0  0  0  0  3  0  0  0  0  0  0
   40.0680   32.0650   41.5730 C   0  0  0  0  0  0  0  0  0  0  0  0
   41.1160   31.6330   42.3610 C   0  0  0  0  0  0  0  0  0  0  0  0
   41.9880   32.1990   42.6510 H   0  0  0  0  0  0  0  0  0  0  0  0
   41.1660   30.3430   42.8970 C   0  0  0  0  0  0  0  0  0  0  0  0
   42.0100   29.6360   43.6710 N   0  0  0  0  0  0  0  0  0  0  0  0
   42.9060   30.0180   44.0480 H   0  0  0  0  0  0  0  0  0  0  0  0
   41.5300   28.3950   43.8760 C   0  0  0  0  0  0  0  0  0  0  0  0
   42.0440   27.6320   44.4770 H   0  0  0  0  0  0  0  0  0  0  0  0
   40.3220   28.2440   43.2240 C   0  0  0  0  0  3  0  0  0  0  0  0
   40.1160   29.4680   42.6220 C   0  0  0  0  0  0  0  0  0  0  0  0
   39.0600   29.8820   41.8360 C   0  0  0  0  0  3  0  0  0  0  0  0
   43.5840   33.8730   41.0310 O   0  0  0  0  0  0  0  0  0  0  0  0
   44.9160   33.8880   40.6980 C   0  0  0  0  0  0  0  0  0  0  0  0
   45.8110   34.4140   41.6330 C   0  0  0  0  0  0  0  0  0  0  0  0
   47.1650   34.4190   41.2690 C   0  0  0  0  0  0  0  0  0  0  0  0
   47.5210   33.9180   40.0400 N   0  0  0  0  0  0  0  0  0  0  0  0
   46.6260   33.4340   39.2000 C   0  0  0  0  0  0  0  0  0  0  0  0
   45.3220   33.4140   39.5160 N   0  0  0  0  0  0  0  0  0  0  0  0
   47.8420   34.8240   41.9940 H   0  0  0  0  0  0  0  0  0  0  0  0
   47.0140   33.0610   38.2520 H   0  0  0  0  0  0  0  0  0  0  0  0
   45.3290   34.9160   42.8980 C   0  0  0  0  0  0  0  0  0  0  0  0
   45.0850   36.2620   43.1410 C   0  0  0  0  0  0  0  0  0  0  0  0
   44.6480   36.2940   44.4390 C   0  0  0  0  0  0  0  0  0  0  0  0
   44.6240   35.0490   44.9600 N   0  0  0  0  0  0  0  0  0  0  0  0
   45.0380   34.2450   44.0090 N   0  0  0  0  0  0  0  0  0  0  0  0
   45.2030   37.1180   42.4790 H   0  0  0  0  0  0  0  0  0  0  0  0
   44.3430   37.1390   45.0460 H   0  0  0  0  0  0  0  0  0  0  0  0
   44.3420   34.7360   45.9150 H   0  0  0  0  0  0  0  0  0  0  0  0
  1 30  1  0  0  0  0
  2  1  2  0  0  0  0
  3  1  1  0  0  0  0
  3  8  1  0  0  0  0
  4  9  1  0  0  0  0
  4  3  1  0  0  0  0
  5  4  1  0  0  0  0
  5  6  1  0  0  0  0
  6 13  1  0  0  0  0
  6  7  1  0  0  0  0
  7 15  1  0  0  0  0
  7  8  1  0  0  0  0
  8 19  1  0  0  0  0
  8 17  1  1  0  0  0
 10  4  1  0  0  0  0
 11  5  1  0  0  0  0
 12  5  1  0  0  0  0
 14  6  1  0  0  0  0
 16  7  1  0  0  0  0
 18 19  2  0  0  0  0
 18 29  1  0  0  0  0
 19 20  1  0  0  0  0
 20 21  1  0  0  0  0
 20 22  2  0  0  0  0
 22 23  1  0  0  0  0
 23 25  1  0  0  0  0
 23 24  1  0  0  0  0
 25 26  1  0  0  0  0
 27 25  2  0  0  0  0
 28 22  1  0  0  0  0
 28 27  1  0  0  0  0
 29 28  2  0  0  0  0
 31 30  1  0  0  0  0
 31 32  1  0  0  0  0
 32 39  1  0  0  0  0
 33 32  2  0  0  0  0
 33 37  1  0  0  0  0
 34 33  1  0  0  0  0
 35 36  1  0  0  0  0
 35 34  2  0  0  0  0
 36 31  2  0  0  0  0
 38 35  1  0  0  0  0
 39 40  1  0  0  0  0
 39 43  2  0  0  0  0
 40 41  2  0  0  0  0
 41 42  1  0  0  0  0
 41 45  1  0  0  0  0
 42 46  1  0  0  0  0
 43 42  1  0  0  0  0
 44 40  1  0  0  0  0
M  END
>  <minimizedAffinity>
-7.16045666

>  <minimizedRMSD>
2.06874347

$$$$
