
 OpenBabel03252508533D

 46 50  0  0  1  0  0  0  0  0999 V2000
   43.2370   34.3740   40.5020 C   0  0  0  0  0  0  0  0  0  0  0  0
   43.2660   35.4700   39.8480 O   0  0  0  0  0  0  0  0  0  0  0  0
   41.8240   34.0410   40.3820 N   0  0  0  0  0  0  0  0  0  0  0  0
   41.3620   33.8660   39.0260 C   0  0  0  0  0  0  0  0  0  0  0  0
   40.6730   35.1990   38.6620 C   0  0  0  0  0  0  0  0  0  0  0  0
   40.0000   35.7050   39.9510 C   0  0  0  0  0  0  0  0  0  0  0  0
   39.5740   34.5360   40.8090 C   0  0  0  0  0  0  0  0  0  0  0  0
   40.8210   33.8610   41.4140 C   0  0  1  0  0  0  0  0  0  0  0  0
   40.6650   33.0200   38.9100 H   0  0  0  0  0  0  0  0  0  0  0  0
   42.1700   33.7450   38.2810 H   0  0  0  0  0  0  0  0  0  0  0  0
   39.8910   34.9680   37.9360 H   0  0  0  0  0  0  0  0  0  0  0  0
   41.4390   35.9170   38.3420 H   0  0  0  0  0  0  0  0  0  0  0  0
   40.7300   36.2920   40.5360 H   0  0  0  0  0  0  0  0  0  0  0  0
   39.0980   36.2960   39.7160 H   0  0  0  0  0  0  0  0  0  0  0  0
   38.8500   34.8450   41.5560 H   0  0  0  0  0  0  0  0  0  0  0  0
   39.1410   33.7460   40.1480 H   0  0  0  0  0  0  0  0  0  0  0  0
   41.1140   34.4050   42.3140 H   0  0  0  0  0  0  0  0  0  0  0  0
   41.4760   31.4640   41.9920 C   0  0  0  0  0  3  0  0  0  0  0  0
   40.5580   32.4150   41.6250 C   0  0  0  0  0  0  0  0  0  0  0  0
   39.2640   31.9750   41.4350 C   0  0  0  0  0  0  0  0  0  0  0  0
   38.4100   32.5710   41.1470 H   0  0  0  0  0  0  0  0  0  0  0  0
   38.8950   30.6390   41.6050 C   0  0  0  0  0  0  0  0  0  0  0  0
   37.7660   29.9120   41.5020 N   0  0  0  0  0  0  0  0  0  0  0  0
   36.8410   30.3160   41.2340 H   0  0  0  0  0  0  0  0  0  0  0  0
   38.0120   28.6200   41.7910 C   0  0  0  0  0  0  0  0  0  0  0  0
   37.2450   27.8340   41.7750 H   0  0  0  0  0  0  0  0  0  0  0  0
   39.3460   28.4530   42.1010 C   0  0  0  0  0  3  0  0  0  0  0  0
   39.8770   29.7210   41.9790 C   0  0  0  0  0  0  0  0  0  0  0  0
   41.1770   30.1410   42.1740 C   0  0  0  0  0  3  0  0  0  0  0  0
   44.2820   33.7570   41.1130 O   0  0  0  0  0  0  0  0  0  0  0  0
   45.6200   34.0040   40.9330 C   0  0  0  0  0  0  0  0  0  0  0  0
   46.3130   34.6120   41.9830 C   0  0  0  0  0  0  0  0  0  0  0  0
   47.6780   34.8540   41.7740 C   0  0  0  0  0  0  0  0  0  0  0  0
   48.2390   34.4880   40.5750 N   0  0  0  0  0  0  0  0  0  0  0  0
   47.5290   33.9160   39.6210 C   0  0  0  0  0  0  0  0  0  0  0  0
   46.2200   33.6690   39.7870 N   0  0  0  0  0  0  0  0  0  0  0  0
   48.1990   35.3210   42.5860 H   0  0  0  0  0  0  0  0  0  0  0  0
   48.0700   33.6640   38.7080 H   0  0  0  0  0  0  0  0  0  0  0  0
   45.6250   34.9570   43.2040 C   0  0  0  0  0  0  0  0  0  0  0  0
   45.0470   36.2010   43.4280 C   0  0  0  0  0  0  0  0  0  0  0  0
   44.5130   36.1000   44.6860 C   0  0  0  0  0  0  0  0  0  0  0  0
   44.7450   34.8740   45.2010 N   0  0  0  0  0  0  0  0  0  0  0  0
   45.4150   34.2120   44.2860 N   0  0  0  0  0  0  0  0  0  0  0  0
   45.0110   37.0740   42.7800 H   0  0  0  0  0  0  0  0  0  0  0  0
   43.9670   36.8350   45.2670 H   0  0  0  0  0  0  0  0  0  0  0  0
   44.4700   34.4820   46.1290 H   0  0  0  0  0  0  0  0  0  0  0  0
  1 30  1  0  0  0  0
  2  1  2  0  0  0  0
  3  1  1  0  0  0  0
  3  8  1  0  0  0  0
  4  3  1  0  0  0  0
  5  4  1  0  0  0  0
  5  6  1  0  0  0  0
  6 13  1  0  0  0  0
  6  7  1  0  0  0  0
  7  8  1  0  0  0  0
  7 15  1  0  0  0  0
  8 19  1  0  0  0  0
  8 17  1  1  0  0  0
  9  4  1  0  0  0  0
 10  4  1  0  0  0  0
 11  5  1  0  0  0  0
 12  5  1  0  0  0  0
 14  6  1  0  0  0  0
 16  7  1  0  0  0  0
 18 29  1  0  0  0  0
 19 18  2  0  0  0  0
 20 22  2  0  0  0  0
 20 19  1  0  0  0  0
 21 20  1  0  0  0  0
 22 28  1  0  0  0  0
 23 22  1  0  0  0  0
 23 25  1  0  0  0  0
 24 23  1  0  0  0  0
 25 27  2  0  0  0  0
 26 25  1  0  0  0  0
 28 27  1  0  0  0  0
 28 29  2  0  0  0  0
 31 30  1  0  0  0  0
 31 32  1  0  0  0  0
 32 39  1  0  0  0  0
 33 32  2  0  0  0  0
 33 37  1  0  0  0  0
 34 33  1  0  0  0  0
 35 36  1  0  0  0  0
 35 34  2  0  0  0  0
 36 31  2  0  0  0  0
 38 35  1  0  0  0  0
 39 40  1  0  0  0  0
 39 43  2  0  0  0  0
 40 41  2  0  0  0  0
 41 42  1  0  0  0  0
 41 45  1  0  0  0  0
 42 46  1  0  0  0  0
 43 42  1  0  0  0  0
 44 40  1  0  0  0  0
M  END
>  <minimizedAffinity>
-7.22575045

>  <minimizedRMSD>
1.77074587

$$$$
