
 OpenBabel03252508593D

 48 51  0  0  1  0  0  0  0  0999 V2000
   47.1230   34.2010   43.4520 N   0  0  0  0  0  0  0  0  0  0  0  0
   46.6880   35.3390   42.7240 C   0  0  0  0  0  0  0  0  0  0  0  0
   45.1990   35.5830   42.7400 C   0  0  0  0  0  0  0  0  0  0  0  0
   44.5080   35.1550   44.0080 C   0  0  0  0  0  0  0  0  0  0  0  0
   45.5000   34.6830   45.0450 C   0  0  0  0  0  0  0  0  0  0  0  0
   46.2670   33.5270   44.3070 C   0  0  2  0  0  0  0  0  0  0  0  0
   47.1480   36.2260   43.2280 H   0  0  0  0  0  0  0  0  0  0  0  0
   47.0070   35.3900   41.6810 H   0  0  0  0  0  0  0  0  0  0  0  0
   45.0190   36.6950   42.6550 H   0  0  0  0  0  0  0  0  0  0  0  0
   44.7120   35.1480   41.8400 H   0  0  0  0  0  0  0  0  0  0  0  0
   43.8090   35.8820   44.4230 H   0  0  0  0  0  0  0  0  0  0  0  0
   43.8870   34.2600   43.7420 H   0  0  0  0  0  0  0  0  0  0  0  0
   46.2150   35.4490   45.3530 H   0  0  0  0  0  0  0  0  0  0  0  0
   44.9600   34.1750   45.8630 H   0  0  0  0  0  0  0  0  0  0  0  0
   45.4900   32.8640   43.8740 H   0  0  0  0  0  0  0  0  0  0  0  0
   48.1890   33.4750   42.8250 C   0  0  0  0  0  0  0  0  0  0  0  0
   48.8540   34.1920   42.3110 H   0  0  0  0  0  0  0  0  0  0  0  0
   48.7720   32.9630   43.6270 H   0  0  0  0  0  0  0  0  0  0  0  0
   47.6030   32.4260   41.9360 C   0  0  0  0  0  0  0  0  0  0  0  0
   47.8680   31.3950   42.2190 H   0  0  0  0  0  0  0  0  0  0  0  0
   46.4860   32.4950   41.9290 H   0  0  0  0  0  0  0  0  0  0  0  0
   49.3950   32.1040   38.6450 C   0  0  0  0  0  0  0  0  0  0  0  0
   48.9820   31.8740   39.9710 C   0  0  0  0  0  0  0  0  0  0  0  0
   48.0270   32.6850   40.5340 C   0  0  0  0  0  0  0  0  0  0  0  0
   47.5270   33.6740   39.7810 N   0  0  0  0  0  0  0  0  0  0  0  0
   47.9240   33.8930   38.5110 C   0  0  0  0  0  0  0  0  0  0  0  0
   48.8520   33.1190   37.9350 N   0  0  0  0  0  0  0  0  0  0  0  0
   50.1400   31.4750   38.1980 H   0  0  0  0  0  0  0  0  0  0  0  0
   49.4200   31.0590   40.5360 H   0  0  0  0  0  0  0  0  0  0  0  0
   47.4650   34.7160   37.9740 H   0  0  0  0  0  0  0  0  0  0  0  0
   46.9500   32.9270   45.3550 O   0  0  0  0  0  0  0  0  0  0  0  0
   45.4960   30.8020   44.6860 O   0  0  0  0  0  0  0  0  0  0  0  0
   46.2580   31.4740   45.8370 P   0  0  2  0  0  0  0  0  0  0  0  0
   45.0460   31.8800   46.9760 O   0  0  0  0  0  0  0  0  0  0  0  0
   44.3540   31.1960   46.9580 H   0  0  0  0  0  0  0  0  0  0  0  0
   47.3440   30.4550   46.5730 O   0  0  0  0  0  0  0  0  0  0  0  0
   45.8070   28.7770   47.1720 C   0  0  0  0  0  3  0  0  0  0  0  0
   47.1310   29.1700   46.9860 C   0  0  0  0  0  0  0  0  0  0  0  0
   48.0980   28.2090   47.2420 C   0  0  0  0  0  0  0  0  0  0  0  0
   49.1270   28.5150   47.0970 H   0  0  0  0  0  0  0  0  0  0  0  0
   47.8060   26.9390   47.6540 C   0  0  0  0  0  0  0  0  0  0  0  0
   48.5640   25.8790   47.9500 N   0  0  0  0  0  0  0  0  0  0  0  0
   49.6040   25.8130   47.9230 H   0  0  0  0  0  0  0  0  0  0  0  0
   47.7580   24.8680   48.3060 C   0  0  0  0  0  0  0  0  0  0  0  0
   48.0970   23.8810   48.6000 H   0  0  0  0  0  0  0  0  0  0  0  0
   46.4280   25.2450   48.2500 C   0  0  0  0  0  3  0  0  0  0  0  0
   46.4880   26.5650   47.8340 C   0  0  0  0  0  0  0  0  0  0  0  0
   45.5000   27.5060   47.5840 C   0  0  0  0  0  3  0  0  0  0  0  0
  1  6  1  0  0  0  0
  2  3  1  0  0  0  0
  2  7  1  0  0  0  0
  2  1  1  0  0  0  0
  3  4  1  0  0  0  0
  4 11  1  0  0  0  0
  4  5  1  0  0  0  0
  5 13  1  0  0  0  0
  5 14  1  0  0  0  0
  6 15  1  6  0  0  0
  6  5  1  0  0  0  0
  6 31  1  0  0  0  0
  8  2  1  0  0  0  0
  9  3  1  0  0  0  0
 10  3  1  0  0  0  0
 12  4  1  0  0  0  0
 16  1  1  0  0  0  0
 16 18  1  0  0  0  0
 17 16  1  0  0  0  0
 19 20  1  0  0  0  0
 19 16  1  0  0  0  0
 21 19  1  0  0  0  0
 22 23  1  0  0  0  0
 23 24  2  0  0  0  0
 23 29  1  0  0  0  0
 24 19  1  0  0  0  0
 25 24  1  0  0  0  0
 26 25  2  0  0  0  0
 27 26  1  0  0  0  0
 27 22  2  0  0  0  0
 28 22  1  0  0  0  0
 30 26  1  0  0  0  0
 31 33  1  0  0  0  0
 33 32  2  6  0  0  0
 33 36  1  0  0  0  0
 33 34  1  0  0  0  0
 35 34  1  0  0  0  0
 36 38  1  0  0  0  0
 37 48  1  0  0  0  0
 38 37  2  0  0  0  0
 38 39  1  0  0  0  0
 39 41  2  0  0  0  0
 40 39  1  0  0  0  0
 41 47  1  0  0  0  0
 41 42  1  0  0  0  0
 42 44  1  0  0  0  0
 43 42  1  0  0  0  0
 44 45  1  0  0  0  0
 46 44  2  0  0  0  0
 47 46  1  0  0  0  0
 48 47  2  0  0  0  0
M  END
>  <minimizedAffinity>
-4.53604555

>  <minimizedRMSD>
1.48129225

$$$$
