
 OpenBabel03242523213D

 40 44  0  0  0  0  0  0  0  0999 V2000
   36.5200   29.2090   40.7700 Cl  0  0  0  0  0  0  0  0  0  0  0  0
   36.6800   27.4570   40.6360 C   0  0  0  0  0  0  0  0  0  0  0  0
   37.1440   26.8040   41.7950 C   0  0  0  0  0  0  0  0  0  0  0  0
   37.2290   25.4350   41.5820 C   0  0  0  0  0  0  0  0  0  0  0  0
   36.9390   24.7180   40.4860 C   0  0  0  0  0  0  0  0  0  0  0  0
   36.4970   25.4260   39.4100 C   0  0  0  0  0  0  0  0  0  0  0  0
   36.3630   26.7700   39.4600 C   0  0  0  0  0  0  0  0  0  0  0  0
   37.6110   24.7730   42.3870 H   0  0  0  0  0  0  0  0  0  0  0  0
   37.0210   23.6530   40.3730 H   0  0  0  0  0  0  0  0  0  0  0  0
   36.2210   25.0020   38.4520 H   0  0  0  0  0  0  0  0  0  0  0  0
   34.7060   28.2550   38.1500 C   0  0  0  0  0  3  0  0  0  0  0  0
   35.8980   27.5860   38.3360 C   0  0  0  0  0  0  0  0  0  0  0  0
   36.8700   27.6470   37.3320 C   0  0  0  0  0  0  0  0  0  0  0  0
   37.8580   27.1610   37.3560 H   0  0  0  0  0  0  0  0  0  0  0  0
   36.6510   28.3620   36.1720 C   0  0  0  0  0  0  0  0  0  0  0  0
   37.3630   28.6070   35.0550 N   0  0  0  0  0  0  0  0  0  0  0  0
   38.3260   28.2510   34.8530 H   0  0  0  0  0  0  0  0  0  0  0  0
   36.6540   29.3960   34.1990 C   0  0  0  0  0  0  0  0  0  0  0  0
   36.9460   29.7660   33.2260 H   0  0  0  0  0  0  0  0  0  0  0  0
   35.4150   29.6900   34.7690 C   0  0  0  0  0  3  0  0  0  0  0  0
   35.4650   29.0230   35.9960 C   0  0  0  0  0  0  0  0  0  0  0  0
   34.5200   28.9570   36.9820 C   0  0  0  0  0  3  0  0  0  0  0  0
   37.4920   27.4360   43.0990 C   0  0  0  0  0  0  0  0  0  0  0  0
   36.3710   27.6080   43.5080 O   0  0  0  0  0  0  0  0  0  0  0  0
   38.9550   27.5160   43.2050 C   0  0  0  0  0  0  0  0  0  0  0  0
   39.7170   28.5760   42.9010 C   0  0  0  0  0  0  0  0  0  0  0  0
   41.0820   28.3470   42.9970 C   0  0  0  0  0  0  0  0  0  0  0  0
   41.5310   27.0750   43.3950 N   0  0  0  0  0  0  0  0  0  0  0  0
   40.7070   26.0860   43.6800 C   0  0  0  0  0  0  0  0  0  0  0  0
   39.3490   26.2700   43.5940 N   0  0  0  0  0  0  0  0  0  0  0  0
   41.8450   29.0820   42.7890 H   0  0  0  0  0  0  0  0  0  0  0  0
   41.2000   25.1630   43.9720 H   0  0  0  0  0  0  0  0  0  0  0  0
   39.2630   29.8880   42.6170 C   0  0  0  0  0  0  0  0  0  0  0  0
   39.9860   31.0390   42.5510 C   0  0  0  0  0  0  0  0  0  0  0  0
   39.6480   30.4800   41.1960 C   0  0  0  0  0  0  0  0  0  0  0  0
   38.2190   30.0780   42.9260 H   0  0  0  0  0  0  0  0  0  0  0  0
   41.0970   31.0140   42.7630 H   0  0  0  0  0  0  0  0  0  0  0  0
   39.6540   32.0980   42.6600 H   0  0  0  0  0  0  0  0  0  0  0  0
   38.8140   30.9220   40.6310 H   0  0  0  0  0  0  0  0  0  0  0  0
   40.3950   29.8750   40.6650 H   0  0  0  0  0  0  0  0  0  0  0  0
  2  1  1  0  0  0  0
  2  3  1  0  0  0  0
  3 23  1  0  0  0  0
  4  3  2  0  0  0  0
  4  8  1  0  0  0  0
  5  4  1  0  0  0  0
  6  7  1  0  0  0  0
  6  5  2  0  0  0  0
  7  2  2  0  0  0  0
  9  5  1  0  0  0  0
 10  6  1  0  0  0  0
 11 12  1  0  0  0  0
 12  7  1  0  0  0  0
 13 14  1  0  0  0  0
 13 12  2  0  0  0  0
 15 13  1  0  0  0  0
 16 15  1  0  0  0  0
 17 16  1  0  0  0  0
 18 20  2  0  0  0  0
 18 16  1  0  0  0  0
 19 18  1  0  0  0  0
 20 21  1  0  0  0  0
 21 15  2  0  0  0  0
 21 22  1  0  0  0  0
 22 11  2  0  0  0  0
 23 25  1  0  0  0  0
 23 24  2  0  0  0  0
 25 30  1  0  0  0  0
 26 27  1  0  0  0  0
 26 25  2  0  0  0  0
 27 28  2  0  0  0  0
 28 29  1  0  0  0  0
 29 32  1  0  0  0  0
 30 29  2  0  0  0  0
 31 27  1  0  0  0  0
 33 26  1  0  0  0  0
 33 36  1  0  0  0  0
 34 33  1  0  0  0  0
 34 38  1  0  0  0  0
 34 37  1  0  0  0  0
 35 34  1  0  0  0  0
 35 33  1  0  0  0  0
 39 35  1  0  0  0  0
 40 35  1  0  0  0  0
M  END
>  <minimizedAffinity>
-6.54054451

$$$$

 OpenBabel03242523213D

 40 44  0  0  0  0  0  0  0  0999 V2000
   33.0380   29.2130   39.0250 Cl  0  0  0  0  0  0  0  0  0  0  0  0
   34.1330   29.1850   37.6410 C   0  0  0  0  0  0  0  0  0  0  0  0
   33.5130   29.0270   36.3850 C   0  0  0  0  0  0  0  0  0  0  0  0
   34.4610   29.0230   35.3720 C   0  0  0  0  0  0  0  0  0  0  0  0
   35.7950   29.1460   35.4440 C   0  0  0  0  0  0  0  0  0  0  0  0
   36.3130   29.2950   36.6950 C   0  0  0  0  0  0  0  0  0  0  0  0
   35.5170   29.3160   37.7870 C   0  0  0  0  0  0  0  0  0  0  0  0
   34.1440   28.8730   34.3190 H   0  0  0  0  0  0  0  0  0  0  0  0
   36.4880   29.1380   34.6230 H   0  0  0  0  0  0  0  0  0  0  0  0
   37.3650   29.4070   36.9270 H   0  0  0  0  0  0  0  0  0  0  0  0
   36.2380   30.6050   39.9050 C   0  0  0  0  0  3  0  0  0  0  0  0
   36.0150   29.4690   39.1560 C   0  0  0  0  0  0  0  0  0  0  0  0
   36.2860   28.2200   39.7260 C   0  0  0  0  0  0  0  0  0  0  0  0
   36.1520   27.2420   39.2390 H   0  0  0  0  0  0  0  0  0  0  0  0
   36.7680   28.1170   41.0150 C   0  0  0  0  0  0  0  0  0  0  0  0
   37.1160   27.0960   41.8230 N   0  0  0  0  0  0  0  0  0  0  0  0
   37.0740   26.0800   41.5780 H   0  0  0  0  0  0  0  0  0  0  0  0
   37.5420   27.5660   43.0300 C   0  0  0  0  0  0  0  0  0  0  0  0
   37.8870   27.0030   43.8880 H   0  0  0  0  0  0  0  0  0  0  0  0
   37.4740   28.9590   43.0280 C   0  0  0  0  0  3  0  0  0  0  0  0
   36.9860   29.2500   41.7520 C   0  0  0  0  0  0  0  0  0  0  0  0
   36.7200   30.4660   41.1860 C   0  0  0  0  0  3  0  0  0  0  0  0
   32.0530   28.8970   36.1190 C   0  0  0  0  0  0  0  0  0  0  0  0
   31.9690   27.6990   36.2160 O   0  0  0  0  0  0  0  0  0  0  0  0
   31.4980   30.2380   35.8890 C   0  0  0  0  0  0  0  0  0  0  0  0
   30.6490   30.8960   36.6920 C   0  0  0  0  0  0  0  0  0  0  0  0
   30.2030   32.1070   36.1850 C   0  0  0  0  0  0  0  0  0  0  0  0
   30.6660   32.5280   34.9260 N   0  0  0  0  0  0  0  0  0  0  0  0
   31.5070   31.8170   34.2010 C   0  0  0  0  0  0  0  0  0  0  0  0
   31.9700   30.6100   34.6650 N   0  0  0  0  0  0  0  0  0  0  0  0
   29.5170   32.7700   36.6900 H   0  0  0  0  0  0  0  0  0  0  0  0
   31.7740   32.2710   33.2520 H   0  0  0  0  0  0  0  0  0  0  0  0
   30.2780   30.5280   38.0090 C   0  0  0  0  0  0  0  0  0  0  0  0
   29.1720   30.8960   38.7120 C   0  0  0  0  0  0  0  0  0  0  0  0
   29.0720   29.5050   38.1470 C   0  0  0  0  0  0  0  0  0  0  0  0
   31.1350   30.3200   38.6760 H   0  0  0  0  0  0  0  0  0  0  0  0
   28.4240   31.6050   38.2450 H   0  0  0  0  0  0  0  0  0  0  0  0
   28.9990   30.9130   39.8130 H   0  0  0  0  0  0  0  0  0  0  0  0
   29.2590   28.6470   38.8100 H   0  0  0  0  0  0  0  0  0  0  0  0
   28.5300   29.3480   37.2050 H   0  0  0  0  0  0  0  0  0  0  0  0
  2  7  1  0  0  0  0
  2  1  1  0  0  0  0
  3  2  2  0  0  0  0
  4  5  2  0  0  0  0
  4  3  1  0  0  0  0
  5  6  1  0  0  0  0
  6 10  1  0  0  0  0
  6  7  2  0  0  0  0
  7 12  1  0  0  0  0
  8  4  1  0  0  0  0
  9  5  1  0  0  0  0
 11 22  1  0  0  0  0
 12 13  1  0  0  0  0
 12 11  2  0  0  0  0
 13 15  2  0  0  0  0
 14 13  1  0  0  0  0
 15 21  1  0  0  0  0
 15 16  1  0  0  0  0
 16 18  1  0  0  0  0
 17 16  1  0  0  0  0
 18 19  1  0  0  0  0
 20 18  2  0  0  0  0
 21 20  1  0  0  0  0
 22 21  2  0  0  0  0
 23 24  2  0  0  0  0
 23  3  1  0  0  0  0
 25 23  1  0  0  0  0
 25 26  1  0  0  0  0
 26 33  1  0  0  0  0
 27 31  1  0  0  0  0
 27 26  2  0  0  0  0
 28 27  1  0  0  0  0
 29 30  1  0  0  0  0
 29 28  2  0  0  0  0
 30 25  2  0  0  0  0
 32 29  1  0  0  0  0
 33 35  1  0  0  0  0
 33 36  1  0  0  0  0
 33 34  1  0  0  0  0
 34 38  1  0  0  0  0
 35 34  1  0  0  0  0
 35 39  1  0  0  0  0
 37 34  1  0  0  0  0
 40 35  1  0  0  0  0
M  END
>  <minimizedAffinity>
-6.39857435

$$$$

 OpenBabel03242523213D

 40 44  0  0  0  0  0  0  0  0999 V2000
   39.0350   29.8700   42.6040 Cl  0  0  0  0  0  0  0  0  0  0  0  0
   37.6950   29.5080   41.5140 C   0  0  0  0  0  0  0  0  0  0  0  0
   36.9390   28.3660   41.8460 C   0  0  0  0  0  0  0  0  0  0  0  0
   35.9140   28.1770   40.9300 C   0  0  0  0  0  0  0  0  0  0  0  0
   35.5830   28.9020   39.8510 C   0  0  0  0  0  0  0  0  0  0  0  0
   36.3640   29.9900   39.6010 C   0  0  0  0  0  0  0  0  0  0  0  0
   37.4050   30.3060   40.4020 C   0  0  0  0  0  0  0  0  0  0  0  0
   35.2420   27.2980   41.0260 H   0  0  0  0  0  0  0  0  0  0  0  0
   34.7730   28.7130   39.1710 H   0  0  0  0  0  0  0  0  0  0  0  0
   36.2330   30.6780   38.7740 H   0  0  0  0  0  0  0  0  0  0  0  0
   38.2660   32.7150   40.7490 C   0  0  0  0  0  3  0  0  0  0  0  0
   38.2830   31.4580   40.1830 C   0  0  0  0  0  0  0  0  0  0  0  0
   39.2670   31.1580   39.2350 C   0  0  0  0  0  0  0  0  0  0  0  0
   39.3910   30.1970   38.7120 H   0  0  0  0  0  0  0  0  0  0  0  0
   40.2090   32.0970   38.8670 C   0  0  0  0  0  0  0  0  0  0  0  0
   41.2510   32.1170   38.0110 N   0  0  0  0  0  0  0  0  0  0  0  0
   41.5600   31.3220   37.4060 H   0  0  0  0  0  0  0  0  0  0  0  0
   41.8650   33.3330   38.0350 C   0  0  0  0  0  0  0  0  0  0  0  0
   42.7240   33.6650   37.4680 H   0  0  0  0  0  0  0  0  0  0  0  0
   41.2050   34.1610   38.9450 C   0  0  0  0  0  3  0  0  0  0  0  0
   40.1840   33.3430   39.4340 C   0  0  0  0  0  0  0  0  0  0  0  0
   39.2180   33.6270   40.3590 C   0  0  0  0  0  3  0  0  0  0  0  0
   37.1510   27.4620   43.0110 C   0  0  0  0  0  0  0  0  0  0  0  0
   36.2160   27.8250   43.6800 O   0  0  0  0  0  0  0  0  0  0  0  0
   38.3360   26.6320   42.7510 C   0  0  0  0  0  0  0  0  0  0  0  0
   38.4360   25.6520   41.8420 C   0  0  0  0  0  0  0  0  0  0  0  0
   39.6380   24.9610   41.8750 C   0  0  0  0  0  0  0  0  0  0  0  0
   40.6120   25.3350   42.8170 N   0  0  0  0  0  0  0  0  0  0  0  0
   40.4300   26.3190   43.6770 C   0  0  0  0  0  0  0  0  0  0  0  0
   39.2530   27.0270   43.6800 N   0  0  0  0  0  0  0  0  0  0  0  0
   39.8940   24.1410   41.2200 H   0  0  0  0  0  0  0  0  0  0  0  0
   41.2700   26.4920   44.3420 H   0  0  0  0  0  0  0  0  0  0  0  0
   37.5050   25.3550   40.8170 C   0  0  0  0  0  0  0  0  0  0  0  0
   37.4940   24.2950   39.9620 C   0  0  0  0  0  0  0  0  0  0  0  0
   36.5090   24.1490   41.0900 C   0  0  0  0  0  0  0  0  0  0  0  0
   37.0320   26.2470   40.3660 H   0  0  0  0  0  0  0  0  0  0  0  0
   38.3250   23.5290   40.0130 H   0  0  0  0  0  0  0  0  0  0  0  0
   37.0070   24.1860   38.9650 H   0  0  0  0  0  0  0  0  0  0  0  0
   35.4480   24.3650   40.9000 H   0  0  0  0  0  0  0  0  0  0  0  0
   36.7870   23.5520   41.9690 H   0  0  0  0  0  0  0  0  0  0  0  0
  2  3  1  0  0  0  0
  2  1  1  0  0  0  0
  3 23  1  0  0  0  0
  4  8  1  0  0  0  0
  4  3  2  0  0  0  0
  5  4  1  0  0  0  0
  6  5  2  0  0  0  0
  6  7  1  0  0  0  0
  7  2  2  0  0  0  0
  9  5  1  0  0  0  0
 10  6  1  0  0  0  0
 12  7  1  0  0  0  0
 12 11  2  0  0  0  0
 13 12  1  0  0  0  0
 14 13  1  0  0  0  0
 15 13  2  0  0  0  0
 15 21  1  0  0  0  0
 16 18  1  0  0  0  0
 16 15  1  0  0  0  0
 17 16  1  0  0  0  0
 18 20  2  0  0  0  0
 19 18  1  0  0  0  0
 20 21  1  0  0  0  0
 21 22  2  0  0  0  0
 22 11  1  0  0  0  0
 23 24  2  0  0  0  0
 25 23  1  0  0  0  0
 25 30  1  0  0  0  0
 26 27  1  0  0  0  0
 26 25  2  0  0  0  0
 27 28  2  0  0  0  0
 28 29  1  0  0  0  0
 29 30  2  0  0  0  0
 29 32  1  0  0  0  0
 31 27  1  0  0  0  0
 33 35  1  0  0  0  0
 33 26  1  0  0  0  0
 34 37  1  0  0  0  0
 34 33  1  0  0  0  0
 34 35  1  0  0  0  0
 35 40  1  0  0  0  0
 36 33  1  0  0  0  0
 38 34  1  0  0  0  0
 39 35  1  0  0  0  0
M  END
>  <minimizedAffinity>
-6.28922176

$$$$

 OpenBabel03242523213D

 40 44  0  0  0  0  0  0  0  0999 V2000
   39.3260   27.3020   39.6370 Cl  0  0  0  0  0  0  0  0  0  0  0  0
   38.5880   27.7950   41.1630 C   0  0  0  0  0  0  0  0  0  0  0  0
   38.8670   29.1160   41.5670 C   0  0  0  0  0  0  0  0  0  0  0  0
   38.2370   29.3990   42.7710 C   0  0  0  0  0  0  0  0  0  0  0  0
   37.4520   28.6220   43.5330 C   0  0  0  0  0  0  0  0  0  0  0  0
   37.2330   27.3610   43.0690 C   0  0  0  0  0  0  0  0  0  0  0  0
   37.7800   26.9330   41.9100 C   0  0  0  0  0  0  0  0  0  0  0  0
   38.3810   30.3900   43.2510 H   0  0  0  0  0  0  0  0  0  0  0  0
   36.9850   28.8920   44.4620 H   0  0  0  0  0  0  0  0  0  0  0  0
   36.6260   26.6100   43.5610 H   0  0  0  0  0  0  0  0  0  0  0  0
   38.1820   24.3910   41.7010 C   0  0  0  0  0  3  0  0  0  0  0  0
   37.5860   25.5880   41.3630 C   0  0  0  0  0  0  0  0  0  0  0  0
   36.6320   25.6020   40.3410 C   0  0  0  0  0  0  0  0  0  0  0  0
   36.0850   26.4860   39.9770 H   0  0  0  0  0  0  0  0  0  0  0  0
   36.2860   24.4440   39.6750 C   0  0  0  0  0  0  0  0  0  0  0  0
   35.4320   24.1360   38.6780 N   0  0  0  0  0  0  0  0  0  0  0  0
   34.8080   24.8100   38.1770 H   0  0  0  0  0  0  0  0  0  0  0  0
   35.4860   22.8030   38.3970 C   0  0  0  0  0  0  0  0  0  0  0  0
   34.9280   22.2480   37.6550 H   0  0  0  0  0  0  0  0  0  0  0  0
   36.4150   22.1950   39.2420 C   0  0  0  0  0  3  0  0  0  0  0  0
   36.8830   23.2600   40.0160 C   0  0  0  0  0  0  0  0  0  0  0  0
   37.8150   23.2560   41.0170 C   0  0  0  0  0  3  0  0  0  0  0  0
   39.6960   30.1180   40.8400 C   0  0  0  0  0  0  0  0  0  0  0  0
   40.7490   29.5350   40.8900 O   0  0  0  0  0  0  0  0  0  0  0  0
   38.8360   31.2460   40.4550 C   0  0  0  0  0  0  0  0  0  0  0  0
   37.8220   31.2100   39.5800 C   0  0  0  0  0  0  0  0  0  0  0  0
   37.2400   32.4420   39.3250 C   0  0  0  0  0  0  0  0  0  0  0  0
   37.7400   33.5790   39.9850 N   0  0  0  0  0  0  0  0  0  0  0  0
   38.7440   33.5230   40.8380 C   0  0  0  0  0  0  0  0  0  0  0  0
   39.3500   32.3220   41.1150 N   0  0  0  0  0  0  0  0  0  0  0  0
   36.4150   32.6050   38.6480 H   0  0  0  0  0  0  0  0  0  0  0  0
   39.0190   34.4810   41.2690 H   0  0  0  0  0  0  0  0  0  0  0  0
   37.2430   30.0500   39.0070 C   0  0  0  0  0  0  0  0  0  0  0  0
   36.2830   29.9680   38.0450 C   0  0  0  0  0  0  0  0  0  0  0  0
   37.6670   29.7050   37.5180 C   0  0  0  0  0  0  0  0  0  0  0  0
   37.2130   29.1790   39.6890 H   0  0  0  0  0  0  0  0  0  0  0  0
   35.8340   30.9160   37.6230 H   0  0  0  0  0  0  0  0  0  0  0  0
   35.5810   29.1360   37.8070 H   0  0  0  0  0  0  0  0  0  0  0  0
   37.9840   28.6650   37.3490 H   0  0  0  0  0  0  0  0  0  0  0  0
   38.2160   30.5200   37.0270 H   0  0  0  0  0  0  0  0  0  0  0  0
  1  2  1  0  0  0  0
  2  3  2  0  0  0  0
  2  7  1  0  0  0  0
  3  4  1  0  0  0  0
  4  8  1  0  0  0  0
  4  5  2  0  0  0  0
  5  9  1  0  0  0  0
  6  5  1  0  0  0  0
  6 10  1  0  0  0  0
  7  6  2  0  0  0  0
 12 11  1  0  0  0  0
 12  7  1  0  0  0  0
 13 12  2  0  0  0  0
 14 13  1  0  0  0  0
 15 21  2  0  0  0  0
 15 13  1  0  0  0  0
 16 15  1  0  0  0  0
 17 16  1  0  0  0  0
 18 16  1  0  0  0  0
 18 20  2  0  0  0  0
 19 18  1  0  0  0  0
 20 21  1  0  0  0  0
 21 22  1  0  0  0  0
 22 11  2  0  0  0  0
 23 24  2  0  0  0  0
 23  3  1  0  0  0  0
 25 23  1  0  0  0  0
 25 30  1  0  0  0  0
 26 25  2  0  0  0  0
 27 26  1  0  0  0  0
 27 28  2  0  0  0  0
 28 29  1  0  0  0  0
 29 30  2  0  0  0  0
 29 32  1  0  0  0  0
 31 27  1  0  0  0  0
 33 26  1  0  0  0  0
 33 36  1  0  0  0  0
 34 33  1  0  0  0  0
 35 34  1  0  0  0  0
 35 33  1  0  0  0  0
 37 34  1  0  0  0  0
 38 34  1  0  0  0  0
 39 35  1  0  0  0  0
 40 35  1  0  0  0  0
M  END
>  <minimizedAffinity>
-6.16967916

$$$$

 OpenBabel03242523213D

 40 44  0  0  0  0  0  0  0  0999 V2000
   40.3490   27.8670   40.8840 Cl  0  0  0  0  0  0  0  0  0  0  0  0
   38.8520   27.5930   41.7780 C   0  0  0  0  0  0  0  0  0  0  0  0
   38.5520   26.2430   42.0500 C   0  0  0  0  0  0  0  0  0  0  0  0
   37.3630   26.1420   42.7560 C   0  0  0  0  0  0  0  0  0  0  0  0
   36.5320   27.1070   43.1800 C   0  0  0  0  0  0  0  0  0  0  0  0
   36.8960   28.3830   42.8760 C   0  0  0  0  0  0  0  0  0  0  0  0
   38.0290   28.6460   42.1880 C   0  0  0  0  0  0  0  0  0  0  0  0
   36.9610   25.1420   43.0240 H   0  0  0  0  0  0  0  0  0  0  0  0
   35.6180   26.9750   43.7290 H   0  0  0  0  0  0  0  0  0  0  0  0
   36.3390   29.2740   43.1430 H   0  0  0  0  0  0  0  0  0  0  0  0
   39.6560   30.6480   42.0900 C   0  0  0  0  0  3  0  0  0  0  0  0
   38.4710   29.9950   41.8270 C   0  0  0  0  0  0  0  0  0  0  0  0
   37.4780   30.6640   41.1040 C   0  0  0  0  0  0  0  0  0  0  0  0
   36.4920   30.2580   40.8270 H   0  0  0  0  0  0  0  0  0  0  0  0
   37.6720   31.9550   40.6570 C   0  0  0  0  0  0  0  0  0  0  0  0
   36.9350   32.8430   39.9590 N   0  0  0  0  0  0  0  0  0  0  0  0
   35.9700   32.6810   39.5910 H   0  0  0  0  0  0  0  0  0  0  0  0
   37.6250   34.0070   39.7890 C   0  0  0  0  0  0  0  0  0  0  0  0
   37.3110   34.9060   39.2770 H   0  0  0  0  0  0  0  0  0  0  0  0
   38.8740   33.8910   40.3990 C   0  0  0  0  0  3  0  0  0  0  0  0
   38.8520   32.5960   40.9230 C   0  0  0  0  0  0  0  0  0  0  0  0
   39.8160   31.9350   41.6310 C   0  0  0  0  0  3  0  0  0  0  0  0
   39.3670   25.0530   41.6750 C   0  0  0  0  0  0  0  0  0  0  0  0
   39.6420   24.6790   42.7870 O   0  0  0  0  0  0  0  0  0  0  0  0
   39.4080   24.9560   40.2100 C   0  0  0  0  0  0  0  0  0  0  0  0
   38.3550   24.8140   39.3920 C   0  0  0  0  0  0  0  0  0  0  0  0
   38.6850   24.6470   38.0560 C   0  0  0  0  0  0  0  0  0  0  0  0
   40.0410   24.6470   37.6860 N   0  0  0  0  0  0  0  0  0  0  0  0
   41.0180   24.7980   38.5600 C   0  0  0  0  0  0  0  0  0  0  0  0
   40.7340   24.9630   39.8930 N   0  0  0  0  0  0  0  0  0  0  0  0
   37.9700   24.5160   37.2570 H   0  0  0  0  0  0  0  0  0  0  0  0
   42.0130   24.7770   38.1260 H   0  0  0  0  0  0  0  0  0  0  0  0
   36.9890   24.9330   39.7490 C   0  0  0  0  0  0  0  0  0  0  0  0
   35.8940   24.4980   39.0670 C   0  0  0  0  0  0  0  0  0  0  0  0
   36.2590   23.6060   40.2220 C   0  0  0  0  0  0  0  0  0  0  0  0
   36.7600   25.8250   40.3610 H   0  0  0  0  0  0  0  0  0  0  0  0
   36.0260   23.9850   38.0670 H   0  0  0  0  0  0  0  0  0  0  0  0
   34.8340   24.8410   39.1240 H   0  0  0  0  0  0  0  0  0  0  0  0
   35.6920   23.6910   41.1610 H   0  0  0  0  0  0  0  0  0  0  0  0
   36.8500   22.6990   40.0320 H   0  0  0  0  0  0  0  0  0  0  0  0
  1  2  1  0  0  0  0
  2  3  2  0  0  0  0
  2  7  1  0  0  0  0
  3  4  1  0  0  0  0
  4  8  1  0  0  0  0
  4  5  2  0  0  0  0
  5  9  1  0  0  0  0
  6 10  1  0  0  0  0
  6  5  1  0  0  0  0
  7  6  2  0  0  0  0
 12 11  1  0  0  0  0
 12  7  1  0  0  0  0
 13 12  2  0  0  0  0
 14 13  1  0  0  0  0
 15 21  2  0  0  0  0
 15 13  1  0  0  0  0
 16 15  1  0  0  0  0
 17 16  1  0  0  0  0
 18 16  1  0  0  0  0
 18 20  2  0  0  0  0
 19 18  1  0  0  0  0
 20 21  1  0  0  0  0
 21 22  1  0  0  0  0
 22 11  2  0  0  0  0
 23  3  1  0  0  0  0
 23 24  2  0  0  0  0
 25 23  1  0  0  0  0
 26 33  1  0  0  0  0
 26 25  2  0  0  0  0
 27 26  1  0  0  0  0
 28 27  2  0  0  0  0
 28 29  1  0  0  0  0
 29 30  2  0  0  0  0
 30 25  1  0  0  0  0
 31 27  1  0  0  0  0
 32 29  1  0  0  0  0
 33 35  1  0  0  0  0
 33 36  1  0  0  0  0
 34 38  1  0  0  0  0
 34 33  1  0  0  0  0
 34 35  1  0  0  0  0
 35 39  1  0  0  0  0
 37 34  1  0  0  0  0
 40 35  1  0  0  0  0
M  END
>  <minimizedAffinity>
-6.11176109

$$$$

 OpenBabel03242523213D

 40 44  0  0  0  0  0  0  0  0999 V2000
   39.3490   27.9980   39.7790 Cl  0  0  0  0  0  0  0  0  0  0  0  0
   38.2720   27.6700   41.1380 C   0  0  0  0  0  0  0  0  0  0  0  0
   37.8680   26.3270   41.2760 C   0  0  0  0  0  0  0  0  0  0  0  0
   37.0310   26.1810   42.3730 C   0  0  0  0  0  0  0  0  0  0  0  0
   36.5990   27.0990   43.2510 C   0  0  0  0  0  0  0  0  0  0  0  0
   37.0360   28.3720   43.0460 C   0  0  0  0  0  0  0  0  0  0  0  0
   37.8570   28.6760   42.0160 C   0  0  0  0  0  0  0  0  0  0  0  0
   36.5930   25.1880   42.6060 H   0  0  0  0  0  0  0  0  0  0  0  0
   35.9490   26.9320   44.0900 H   0  0  0  0  0  0  0  0  0  0  0  0
   36.7820   29.2280   43.6610 H   0  0  0  0  0  0  0  0  0  0  0  0
   39.5490   30.6250   42.0870 C   0  0  0  0  0  3  0  0  0  0  0  0
   38.3560   30.0250   41.7410 C   0  0  0  0  0  0  0  0  0  0  0  0
   37.4180   30.7610   41.0100 C   0  0  0  0  0  0  0  0  0  0  0  0
   36.4330   30.4020   40.6720 H   0  0  0  0  0  0  0  0  0  0  0  0
   37.6720   32.0650   40.6360 C   0  0  0  0  0  0  0  0  0  0  0  0
   36.9960   33.0090   39.9520 N   0  0  0  0  0  0  0  0  0  0  0  0
   36.0430   32.8980   39.5360 H   0  0  0  0  0  0  0  0  0  0  0  0
   37.7280   34.1560   39.8700 C   0  0  0  0  0  0  0  0  0  0  0  0
   37.4660   35.0890   39.3890 H   0  0  0  0  0  0  0  0  0  0  0  0
   38.9450   33.9690   40.5270 C   0  0  0  0  0  3  0  0  0  0  0  0
   38.8590   32.6530   40.9840 C   0  0  0  0  0  0  0  0  0  0  0  0
   39.7690   31.9260   41.7000 C   0  0  0  0  0  3  0  0  0  0  0  0
   38.2650   25.1800   40.4110 C   0  0  0  0  0  0  0  0  0  0  0  0
   39.4300   25.1330   40.7170 O   0  0  0  0  0  0  0  0  0  0  0  0
   37.0820   24.7230   39.6700 C   0  0  0  0  0  0  0  0  0  0  0  0
   36.3850   25.4300   38.7690 C   0  0  0  0  0  0  0  0  0  0  0  0
   35.2500   24.7920   38.2930 C   0  0  0  0  0  0  0  0  0  0  0  0
   34.9420   23.5060   38.7710 N   0  0  0  0  0  0  0  0  0  0  0  0
   35.6890   22.8780   39.6600 C   0  0  0  0  0  0  0  0  0  0  0  0
   36.8190   23.4770   40.1590 N   0  0  0  0  0  0  0  0  0  0  0  0
   34.5680   25.2080   37.5670 H   0  0  0  0  0  0  0  0  0  0  0  0
   35.3250   21.8920   39.9330 H   0  0  0  0  0  0  0  0  0  0  0  0
   36.7590   26.6720   38.2000 C   0  0  0  0  0  0  0  0  0  0  0  0
   36.1400   27.3730   37.2110 C   0  0  0  0  0  0  0  0  0  0  0  0
   35.8660   27.9270   38.5830 C   0  0  0  0  0  0  0  0  0  0  0  0
   37.8490   26.8630   38.2150 H   0  0  0  0  0  0  0  0  0  0  0  0
   35.2110   26.9490   36.7250 H   0  0  0  0  0  0  0  0  0  0  0  0
   36.5480   28.1480   36.5220 H   0  0  0  0  0  0  0  0  0  0  0  0
   36.4230   28.8140   38.9190 H   0  0  0  0  0  0  0  0  0  0  0  0
   34.9340   27.6520   39.0950 H   0  0  0  0  0  0  0  0  0  0  0  0
  1  2  1  0  0  0  0
  2  3  2  0  0  0  0
  2  7  1  0  0  0  0
  3  4  1  0  0  0  0
  4  8  1  0  0  0  0
  4  5  2  0  0  0  0
  5  9  1  0  0  0  0
  6  5  1  0  0  0  0
  6 10  1  0  0  0  0
  7  6  2  0  0  0  0
 12  7  1  0  0  0  0
 12 11  1  0  0  0  0
 13 12  2  0  0  0  0
 14 13  1  0  0  0  0
 15 21  2  0  0  0  0
 15 13  1  0  0  0  0
 16 15  1  0  0  0  0
 17 16  1  0  0  0  0
 18 16  1  0  0  0  0
 18 20  2  0  0  0  0
 19 18  1  0  0  0  0
 20 21  1  0  0  0  0
 21 22  1  0  0  0  0
 22 11  2  0  0  0  0
 23 24  2  0  0  0  0
 23  3  1  0  0  0  0
 25 30  1  0  0  0  0
 25 23  1  0  0  0  0
 26 25  2  0  0  0  0
 27 26  1  0  0  0  0
 27 28  2  0  0  0  0
 28 29  1  0  0  0  0
 29 32  1  0  0  0  0
 29 30  2  0  0  0  0
 31 27  1  0  0  0  0
 33 36  1  0  0  0  0
 33 35  1  0  0  0  0
 33 26  1  0  0  0  0
 34 33  1  0  0  0  0
 34 35  1  0  0  0  0
 35 39  1  0  0  0  0
 35 40  1  0  0  0  0
 37 34  1  0  0  0  0
 38 34  1  0  0  0  0
M  END
>  <minimizedAffinity>
-6.07319307

$$$$

 OpenBabel03242523213D

 40 44  0  0  0  0  0  0  0  0999 V2000
   37.3490   26.8570   37.8670 Cl  0  0  0  0  0  0  0  0  0  0  0  0
   37.3550   28.3480   38.8110 C   0  0  0  0  0  0  0  0  0  0  0  0
   38.2590   28.3720   39.8920 C   0  0  0  0  0  0  0  0  0  0  0  0
   38.1840   29.5850   40.5610 C   0  0  0  0  0  0  0  0  0  0  0  0
   37.4140   30.6560   40.3140 C   0  0  0  0  0  0  0  0  0  0  0  0
   36.5690   30.5500   39.2510 C   0  0  0  0  0  0  0  0  0  0  0  0
   36.5230   29.4270   38.5000 C   0  0  0  0  0  0  0  0  0  0  0  0
   38.8080   29.7590   41.4630 H   0  0  0  0  0  0  0  0  0  0  0  0
   37.3960   31.5780   40.8650 H   0  0  0  0  0  0  0  0  0  0  0  0
   35.8840   31.3190   38.9170 H   0  0  0  0  0  0  0  0  0  0  0  0
   35.8870   29.3610   35.9980 C   0  0  0  0  0  3  0  0  0  0  0  0
   35.6330   29.2510   37.3490 C   0  0  0  0  0  0  0  0  0  0  0  0
   34.3400   28.9240   37.7690 C   0  0  0  0  0  0  0  0  0  0  0  0
   34.0070   28.8060   38.8120 H   0  0  0  0  0  0  0  0  0  0  0  0
   33.3280   28.7120   36.8540 C   0  0  0  0  0  0  0  0  0  0  0  0
   32.0210   28.3940   36.9360 N   0  0  0  0  0  0  0  0  0  0  0  0
   31.4850   28.2330   37.8190 H   0  0  0  0  0  0  0  0  0  0  0  0
   31.4720   28.3060   35.6910 C   0  0  0  0  0  0  0  0  0  0  0  0
   30.4510   28.0700   35.4210 H   0  0  0  0  0  0  0  0  0  0  0  0
   32.4540   28.5780   34.7380 C   0  0  0  0  0  3  0  0  0  0  0  0
   33.5890   28.8230   35.5150 C   0  0  0  0  0  0  0  0  0  0  0  0
   34.8560   29.1440   35.1150 C   0  0  0  0  0  3  0  0  0  0  0  0
   39.1980   27.2890   40.2980 C   0  0  0  0  0  0  0  0  0  0  0  0
   40.2300   27.8520   40.0340 O   0  0  0  0  0  0  0  0  0  0  0  0
   38.4130   26.1480   40.7880 C   0  0  0  0  0  0  0  0  0  0  0  0
   37.5280   26.1660   41.7960 C   0  0  0  0  0  0  0  0  0  0  0  0
   37.0010   24.9240   42.1180 C   0  0  0  0  0  0  0  0  0  0  0  0
   37.4190   23.7980   41.3860 N   0  0  0  0  0  0  0  0  0  0  0  0
   38.2950   23.8720   40.4030 C   0  0  0  0  0  0  0  0  0  0  0  0
   38.8430   25.0820   40.0540 N   0  0  0  0  0  0  0  0  0  0  0  0
   36.2790   24.7460   42.9000 H   0  0  0  0  0  0  0  0  0  0  0  0
   38.5180   22.9200   39.9310 H   0  0  0  0  0  0  0  0  0  0  0  0
   37.0210   27.3140   42.4520 C   0  0  0  0  0  0  0  0  0  0  0  0
   36.4320   27.4010   43.6760 C   0  0  0  0  0  0  0  0  0  0  0  0
   37.8640   27.8620   43.6800 C   0  0  0  0  0  0  0  0  0  0  0  0
   36.6500   28.0970   41.7640 H   0  0  0  0  0  0  0  0  0  0  0  0
   36.2800   26.4620   44.2890 H   0  0  0  0  0  0  0  0  0  0  0  0
   35.7420   28.1760   44.0840 H   0  0  0  0  0  0  0  0  0  0  0  0
   38.0750   28.9410   43.6600 H   0  0  0  0  0  0  0  0  0  0  0  0
   38.6490   27.1670   44.0070 H   0  0  0  0  0  0  0  0  0  0  0  0
  1  2  1  0  0  0  0
  2  3  1  0  0  0  0
  3 23  1  0  0  0  0
  3  4  2  0  0  0  0
  4  8  1  0  0  0  0
  5  4  1  0  0  0  0
  5  9  1  0  0  0  0
  6  5  2  0  0  0  0
  7  2  2  0  0  0  0
  7  6  1  0  0  0  0
 10  6  1  0  0  0  0
 11 12  1  0  0  0  0
 12 13  2  0  0  0  0
 12  7  1  0  0  0  0
 13 14  1  0  0  0  0
 15 16  1  0  0  0  0
 15 13  1  0  0  0  0
 16 17  1  0  0  0  0
 18 16  1  0  0  0  0
 19 18  1  0  0  0  0
 20 21  1  0  0  0  0
 20 18  2  0  0  0  0
 21 15  2  0  0  0  0
 22 21  1  0  0  0  0
 22 11  2  0  0  0  0
 23 25  1  0  0  0  0
 24 23  2  0  0  0  0
 25 26  1  0  0  0  0
 26 27  2  0  0  0  0
 26 33  1  0  0  0  0
 27 31  1  0  0  0  0
 28 27  1  0  0  0  0
 29 28  2  0  0  0  0
 30 29  1  0  0  0  0
 30 25  2  0  0  0  0
 32 29  1  0  0  0  0
 33 34  1  0  0  0  0
 33 35  1  0  0  0  0
 34 35  1  0  0  0  0
 34 38  1  0  0  0  0
 34 37  1  0  0  0  0
 35 40  1  0  0  0  0
 36 33  1  0  0  0  0
 39 35  1  0  0  0  0
M  END
>  <minimizedAffinity>
-5.98158026

$$$$

 OpenBabel03242523213D

 40 44  0  0  0  0  0  0  0  0999 V2000
   39.6440   29.1690   38.6400 Cl  0  0  0  0  0  0  0  0  0  0  0  0
   38.2800   29.9260   39.4660 C   0  0  0  0  0  0  0  0  0  0  0  0
   37.1600   29.0940   39.6670 C   0  0  0  0  0  0  0  0  0  0  0  0
   36.1520   29.7840   40.3240 C   0  0  0  0  0  0  0  0  0  0  0  0
   36.1240   31.0530   40.7600 C   0  0  0  0  0  0  0  0  0  0  0  0
   37.2460   31.7880   40.5250 C   0  0  0  0  0  0  0  0  0  0  0  0
   38.3150   31.2570   39.8920 C   0  0  0  0  0  0  0  0  0  0  0  0
   35.1830   29.2840   40.5310 H   0  0  0  0  0  0  0  0  0  0  0  0
   35.3140   31.5420   41.2680 H   0  0  0  0  0  0  0  0  0  0  0  0
   37.3870   32.8240   40.8120 H   0  0  0  0  0  0  0  0  0  0  0  0
   40.0600   32.4530   38.4110 C   0  0  0  0  0  3  0  0  0  0  0  0
   39.5470   31.9980   39.6070 C   0  0  0  0  0  0  0  0  0  0  0  0
   40.2600   32.2430   40.7850 C   0  0  0  0  0  0  0  0  0  0  0  0
   39.9630   31.9360   41.8000 H   0  0  0  0  0  0  0  0  0  0  0  0
   41.4590   32.9270   40.7600 C   0  0  0  0  0  0  0  0  0  0  0  0
   42.3570   33.3100   41.6900 N   0  0  0  0  0  0  0  0  0  0  0  0
   42.2880   33.1300   42.7180 H   0  0  0  0  0  0  0  0  0  0  0  0
   43.3930   33.9770   41.1070 C   0  0  0  0  0  0  0  0  0  0  0  0
   44.2660   34.4080   41.5780 H   0  0  0  0  0  0  0  0  0  0  0  0
   43.1780   34.0420   39.7300 C   0  0  0  0  0  3  0  0  0  0  0  0
   41.9610   33.3750   39.5680 C   0  0  0  0  0  0  0  0  0  0  0  0
   41.2570   33.1300   38.4220 C   0  0  0  0  0  3  0  0  0  0  0  0
   37.0260   27.6640   39.2690 C   0  0  0  0  0  0  0  0  0  0  0  0
   36.2750   27.8160   38.3390 O   0  0  0  0  0  0  0  0  0  0  0  0
   37.8440   26.8480   40.1770 C   0  0  0  0  0  0  0  0  0  0  0  0
   37.7880   26.8480   41.5160 C   0  0  0  0  0  0  0  0  0  0  0  0
   38.7440   26.0540   42.1310 C   0  0  0  0  0  0  0  0  0  0  0  0
   39.6510   25.3390   41.3280 N   0  0  0  0  0  0  0  0  0  0  0  0
   39.6330   25.3940   40.0110 C   0  0  0  0  0  0  0  0  0  0  0  0
   38.7050   26.1710   39.3630 N   0  0  0  0  0  0  0  0  0  0  0  0
   38.8500   25.9340   43.1980 H   0  0  0  0  0  0  0  0  0  0  0  0
   40.3940   24.7880   39.5280 H   0  0  0  0  0  0  0  0  0  0  0  0
   36.8000   27.4720   42.3180 C   0  0  0  0  0  0  0  0  0  0  0  0
   36.5090   27.2520   43.6290 C   0  0  0  0  0  0  0  0  0  0  0  0
   37.3180   28.5010   43.4100 C   0  0  0  0  0  0  0  0  0  0  0  0
   35.9110   27.8110   41.7540 H   0  0  0  0  0  0  0  0  0  0  0  0
   37.0820   26.4630   44.2030 H   0  0  0  0  0  0  0  0  0  0  0  0
   35.5710   27.4560   44.1970 H   0  0  0  0  0  0  0  0  0  0  0  0
   36.8060   29.4750   43.4170 H   0  0  0  0  0  0  0  0  0  0  0  0
   38.4070   28.4660   43.5530 H   0  0  0  0  0  0  0  0  0  0  0  0
  1  2  1  0  0  0  0
  2  3  2  0  0  0  0
  2  7  1  0  0  0  0
  3  4  1  0  0  0  0
  4  8  1  0  0  0  0
  4  5  2  0  0  0  0
  5  9  1  0  0  0  0
  6  5  1  0  0  0  0
  6 10  1  0  0  0  0
  7  6  2  0  0  0  0
 11 22  2  0  0  0  0
 11 12  1  0  0  0  0
 12  7  1  0  0  0  0
 12 13  2  0  0  0  0
 13 14  1  0  0  0  0
 15 13  1  0  0  0  0
 15 16  1  0  0  0  0
 16 17  1  0  0  0  0
 18 19  1  0  0  0  0
 18 16  1  0  0  0  0
 20 18  2  0  0  0  0
 21 20  1  0  0  0  0
 21 15  2  0  0  0  0
 22 21  1  0  0  0  0
 23  3  1  0  0  0  0
 23 25  1  0  0  0  0
 24 23  2  0  0  0  0
 25 26  1  0  0  0  0
 26 27  2  0  0  0  0
 26 33  1  0  0  0  0
 27 31  1  0  0  0  0
 28 27  1  0  0  0  0
 29 28  2  0  0  0  0
 30 29  1  0  0  0  0
 30 25  2  0  0  0  0
 32 29  1  0  0  0  0
 33 35  1  0  0  0  0
 33 34  1  0  0  0  0
 34 38  1  0  0  0  0
 34 37  1  0  0  0  0
 35 39  1  0  0  0  0
 35 40  1  0  0  0  0
 35 34  1  0  0  0  0
 36 33  1  0  0  0  0
M  END
>  <minimizedAffinity>
-5.94211435

$$$$

 OpenBabel03242523213D

 40 44  0  0  0  0  0  0  0  0999 V2000
   36.4000   26.0280   39.5170 Cl  0  0  0  0  0  0  0  0  0  0  0  0
   36.6790   27.4140   40.5730 C   0  0  0  0  0  0  0  0  0  0  0  0
   37.2830   27.1170   41.8110 C   0  0  0  0  0  0  0  0  0  0  0  0
   37.4590   28.2730   42.5570 C   0  0  0  0  0  0  0  0  0  0  0  0
   37.1480   29.5430   42.2570 C   0  0  0  0  0  0  0  0  0  0  0  0
   36.5680   29.7440   41.0420 C   0  0  0  0  0  0  0  0  0  0  0  0
   36.3270   28.7150   40.2000 C   0  0  0  0  0  0  0  0  0  0  0  0
   37.8920   28.2130   43.5780 H   0  0  0  0  0  0  0  0  0  0  0  0
   37.3080   30.4090   42.8740 H   0  0  0  0  0  0  0  0  0  0  0  0
   36.2570   30.7040   40.6470 H   0  0  0  0  0  0  0  0  0  0  0  0
   34.3840   28.7420   38.5000 C   0  0  0  0  0  3  0  0  0  0  0  0
   35.7030   28.8670   38.8830 C   0  0  0  0  0  0  0  0  0  0  0  0
   36.6600   29.1860   37.9150 C   0  0  0  0  0  0  0  0  0  0  0  0
   37.7400   29.3140   38.0880 H   0  0  0  0  0  0  0  0  0  0  0  0
   36.3010   29.3750   36.5960 C   0  0  0  0  0  0  0  0  0  0  0  0
   36.9640   29.6800   35.4620 N   0  0  0  0  0  0  0  0  0  0  0  0
   37.9930   29.8470   35.3810 H   0  0  0  0  0  0  0  0  0  0  0  0
   36.1010   29.7460   34.4080 C   0  0  0  0  0  0  0  0  0  0  0  0
   36.3200   29.9680   33.3720 H   0  0  0  0  0  0  0  0  0  0  0  0
   34.8090   29.4720   34.8570 C   0  0  0  0  0  3  0  0  0  0  0  0
   34.9890   29.2490   36.2240 C   0  0  0  0  0  0  0  0  0  0  0  0
   34.0610   28.9360   37.1770 C   0  0  0  0  0  3  0  0  0  0  0  0
   37.7110   25.7750   42.2980 C   0  0  0  0  0  0  0  0  0  0  0  0
   36.6180   25.3200   42.5250 O   0  0  0  0  0  0  0  0  0  0  0  0
   39.1770   25.7050   42.2490 C   0  0  0  0  0  0  0  0  0  0  0  0
   39.9170   25.2230   41.2400 C   0  0  0  0  0  0  0  0  0  0  0  0
   41.2790   25.1830   41.4960 C   0  0  0  0  0  0  0  0  0  0  0  0
   41.7500   25.6380   42.7410 N   0  0  0  0  0  0  0  0  0  0  0  0
   40.9480   26.1020   43.6800 C   0  0  0  0  0  0  0  0  0  0  0  0
   39.5920   26.1560   43.4670 N   0  0  0  0  0  0  0  0  0  0  0  0
   42.0260   24.8250   40.8040 H   0  0  0  0  0  0  0  0  0  0  0  0
   41.4560   26.4170   44.5860 H   0  0  0  0  0  0  0  0  0  0  0  0
   39.4550   24.8770   39.9460 C   0  0  0  0  0  0  0  0  0  0  0  0
   40.0410   24.0620   39.0270 C   0  0  0  0  0  0  0  0  0  0  0  0
   38.9070   23.4000   39.7590 C   0  0  0  0  0  0  0  0  0  0  0  0
   38.8400   25.6590   39.4640 H   0  0  0  0  0  0  0  0  0  0  0  0
   41.0410   23.5860   39.2600 H   0  0  0  0  0  0  0  0  0  0  0  0
   39.9060   24.0190   37.9210 H   0  0  0  0  0  0  0  0  0  0  0  0
   37.9270   23.3220   39.2650 H   0  0  0  0  0  0  0  0  0  0  0  0
   39.1300   22.7460   40.6130 H   0  0  0  0  0  0  0  0  0  0  0  0
  1  2  1  0  0  0  0
  2  3  1  0  0  0  0
  3 23  1  0  0  0  0
  3  4  2  0  0  0  0
  4  8  1  0  0  0  0
  5  4  1  0  0  0  0
  5  9  1  0  0  0  0
  6  5  2  0  0  0  0
  7  2  2  0  0  0  0
  7  6  1  0  0  0  0
 10  6  1  0  0  0  0
 11 12  1  0  0  0  0
 12  7  1  0  0  0  0
 13 14  1  0  0  0  0
 13 12  2  0  0  0  0
 15 13  1  0  0  0  0
 16 15  1  0  0  0  0
 17 16  1  0  0  0  0
 18 20  2  0  0  0  0
 18 16  1  0  0  0  0
 19 18  1  0  0  0  0
 20 21  1  0  0  0  0
 21 15  2  0  0  0  0
 21 22  1  0  0  0  0
 22 11  2  0  0  0  0
 23 24  2  0  0  0  0
 25 23  1  0  0  0  0
 25 30  1  0  0  0  0
 26 27  1  0  0  0  0
 26 25  2  0  0  0  0
 27 28  2  0  0  0  0
 28 29  1  0  0  0  0
 29 32  1  0  0  0  0
 30 29  2  0  0  0  0
 31 27  1  0  0  0  0
 33 26  1  0  0  0  0
 34 37  1  0  0  0  0
 34 35  1  0  0  0  0
 34 33  1  0  0  0  0
 35 33  1  0  0  0  0
 35 40  1  0  0  0  0
 36 33  1  0  0  0  0
 38 34  1  0  0  0  0
 39 35  1  0  0  0  0
M  END
>  <minimizedAffinity>
-5.93139744

$$$$
