
 OpenBabel03252508593D

 48 51  0  0  1  0  0  0  0  0999 V2000
   46.9300   34.3010   43.3760 N   0  0  0  0  0  0  0  0  0  0  0  0
   46.4930   35.4900   42.7350 C   0  0  0  0  0  0  0  0  0  0  0  0
   45.0170   35.7820   42.8590 C   0  0  0  0  0  0  0  0  0  0  0  0
   44.3910   35.3100   44.1440 C   0  0  0  0  0  0  0  0  0  0  0  0
   45.4270   34.7510   45.0910 C   0  0  0  0  0  0  0  0  0  0  0  0
   46.1050   33.6110   44.2480 C   0  0  2  0  0  0  0  0  0  0  0  0
   47.0150   36.3330   43.2530 H   0  0  0  0  0  0  0  0  0  0  0  0
   46.7490   35.5850   41.6780 H   0  0  0  0  0  0  0  0  0  0  0  0
   44.8730   36.9020   42.8410 H   0  0  0  0  0  0  0  0  0  0  0  0
   44.4610   35.4110   41.9710 H   0  0  0  0  0  0  0  0  0  0  0  0
   43.7460   36.0370   44.6400 H   0  0  0  0  0  0  0  0  0  0  0  0
   43.7230   34.4510   43.8730 H   0  0  0  0  0  0  0  0  0  0  0  0
   46.1870   35.4760   45.3910 H   0  0  0  0  0  0  0  0  0  0  0  0
   44.9210   34.2180   45.9150 H   0  0  0  0  0  0  0  0  0  0  0  0
   45.2790   32.9980   43.8320 H   0  0  0  0  0  0  0  0  0  0  0  0
   47.9290   33.5740   42.6470 C   0  0  0  0  0  0  0  0  0  0  0  0
   48.6320   34.2950   42.1920 H   0  0  0  0  0  0  0  0  0  0  0  0
   48.4900   32.9410   43.3740 H   0  0  0  0  0  0  0  0  0  0  0  0
   47.2510   32.6690   41.6690 C   0  0  0  0  0  0  0  0  0  0  0  0
   47.3080   31.6010   41.9300 H   0  0  0  0  0  0  0  0  0  0  0  0
   46.1680   32.9330   41.5740 H   0  0  0  0  0  0  0  0  0  0  0  0
   49.2700   32.1420   38.5410 C   0  0  0  0  0  0  0  0  0  0  0  0
   48.7080   31.9530   39.8170 C   0  0  0  0  0  0  0  0  0  0  0  0
   47.8360   32.8870   40.3190 C   0  0  0  0  0  0  0  0  0  0  0  0
   47.5580   33.9530   39.5560 N   0  0  0  0  0  0  0  0  0  0  0  0
   48.0980   34.1330   38.3330 C   0  0  0  0  0  0  0  0  0  0  0  0
   48.9510   33.2400   37.8180 N   0  0  0  0  0  0  0  0  0  0  0  0
   49.9520   31.4170   38.1410 H   0  0  0  0  0  0  0  0  0  0  0  0
   48.9680   31.0710   40.3920 H   0  0  0  0  0  0  0  0  0  0  0  0
   47.8170   35.0250   37.7850 H   0  0  0  0  0  0  0  0  0  0  0  0
   46.8290   32.9350   45.2190 O   0  0  0  0  0  0  0  0  0  0  0  0
   45.3570   30.9020   44.3390 O   0  0  0  0  0  0  0  0  0  0  0  0
   46.2680   31.3730   45.4820 P   0  0  2  0  0  0  0  0  0  0  0  0
   45.2370   31.4620   46.8450 O   0  0  0  0  0  0  0  0  0  0  0  0
   44.5720   30.7540   46.7850 H   0  0  0  0  0  0  0  0  0  0  0  0
   47.4870   30.2970   45.8200 O   0  0  0  0  0  0  0  0  0  0  0  0
   46.2860   28.2840   46.0230 C   0  0  0  0  0  3  0  0  0  0  0  0
   47.3730   29.0670   46.4050 C   0  0  0  0  0  0  0  0  0  0  0  0
   48.2290   28.5110   47.3440 C   0  0  0  0  0  0  0  0  0  0  0  0
   49.0730   29.1210   47.6400 H   0  0  0  0  0  0  0  0  0  0  0  0
   48.0480   27.2690   47.8850 C   0  0  0  0  0  0  0  0  0  0  0  0
   48.7340   26.5560   48.7830 N   0  0  0  0  0  0  0  0  0  0  0  0
   49.6070   26.8330   49.2820 H   0  0  0  0  0  0  0  0  0  0  0  0
   48.1120   25.3830   48.9580 C   0  0  0  0  0  0  0  0  0  0  0  0
   48.4440   24.6000   49.6310 H   0  0  0  0  0  0  0  0  0  0  0  0
   46.9810   25.2930   48.1660 C   0  0  0  0  0  3  0  0  0  0  0  0
   46.9660   26.5050   47.4950 C   0  0  0  0  0  0  0  0  0  0  0  0
   46.0910   27.0370   46.5570 C   0  0  0  0  0  3  0  0  0  0  0  0
  1  6  1  0  0  0  0
  2  3  1  0  0  0  0
  2  7  1  0  0  0  0
  2  1  1  0  0  0  0
  3  4  1  0  0  0  0
  4 11  1  0  0  0  0
  4  5  1  0  0  0  0
  5 13  1  0  0  0  0
  5 14  1  0  0  0  0
  6 15  1  6  0  0  0
  6  5  1  0  0  0  0
  6 31  1  0  0  0  0
  8  2  1  0  0  0  0
  9  3  1  0  0  0  0
 10  3  1  0  0  0  0
 12  4  1  0  0  0  0
 16 18  1  0  0  0  0
 16  1  1  0  0  0  0
 17 16  1  0  0  0  0
 19 20  1  0  0  0  0
 19 16  1  0  0  0  0
 21 19  1  0  0  0  0
 22 23  1  0  0  0  0
 23 24  2  0  0  0  0
 23 29  1  0  0  0  0
 24 19  1  0  0  0  0
 25 24  1  0  0  0  0
 26 25  2  0  0  0  0
 27 26  1  0  0  0  0
 27 22  2  0  0  0  0
 28 22  1  0  0  0  0
 30 26  1  0  0  0  0
 31 33  1  0  0  0  0
 33 32  2  6  0  0  0
 33 36  1  0  0  0  0
 33 34  1  0  0  0  0
 35 34  1  0  0  0  0
 36 38  1  0  0  0  0
 37 38  2  0  0  0  0
 37 48  1  0  0  0  0
 38 39  1  0  0  0  0
 39 40  1  0  0  0  0
 39 41  2  0  0  0  0
 41 42  1  0  0  0  0
 42 44  1  0  0  0  0
 42 43  1  0  0  0  0
 44 45  1  0  0  0  0
 46 44  2  0  0  0  0
 47 41  1  0  0  0  0
 47 46  1  0  0  0  0
 48 47  2  0  0  0  0
M  END
>  <minimizedAffinity>
-4.60098028

>  <minimizedRMSD>
1.22446227

$$$$
