
 OpenBabel03242523183D

 40 44  0  0  0  0  0  0  0  0999 V2000
   44.0100   32.2720   41.2660 Cl  0  0  0  0  0  0  0  0  0  0  0  0
   44.4050   33.8400   41.9750 C   0  0  0  0  0  0  0  0  0  0  0  0
   45.4960   33.8400   42.8670 C   0  0  0  0  0  0  0  0  0  0  0  0
   45.7210   35.1170   43.3600 C   0  0  0  0  0  0  0  0  0  0  0  0
   45.0720   36.2630   43.1030 C   0  0  0  0  0  0  0  0  0  0  0  0
   44.0300   36.1750   42.2310 C   0  0  0  0  0  0  0  0  0  0  0  0
   43.6840   34.9970   41.6660 C   0  0  0  0  0  0  0  0  0  0  0  0
   46.5260   35.2880   44.1050 H   0  0  0  0  0  0  0  0  0  0  0  0
   45.2890   37.2320   43.5130 H   0  0  0  0  0  0  0  0  0  0  0  0
   43.4050   37.0030   41.9170 H   0  0  0  0  0  0  0  0  0  0  0  0
   42.5020   35.0940   39.3720 C   0  0  0  0  0  0  0  0  0  0  0  0
   42.5720   34.8390   40.7250 C   0  0  0  0  0  0  0  0  0  0  0  0
   41.4370   34.3480   41.3790 C   0  0  0  0  0  0  0  0  0  0  0  0
   41.3600   34.1040   42.4500 H   0  0  0  0  0  0  0  0  0  0  0  0
   40.2630   34.1200   40.6900 C   0  0  0  0  0  0  0  0  0  0  0  0
   39.0370   33.6680   41.0210 N   0  0  0  0  0  0  0  0  0  0  0  0
   38.7300   33.3760   41.9770 H   0  0  0  0  0  0  0  0  0  0  0  0
   38.2270   33.6390   39.9240 C   0  0  0  0  0  0  0  0  0  0  0  0
   37.1930   33.3280   39.8590 H   0  0  0  0  0  0  0  0  0  0  0  0
   38.9430   34.0920   38.8150 C   0  0  0  0  0  0  0  0  0  0  0  0
   40.2030   34.3770   39.3470 C   0  0  0  0  0  0  0  0  0  0  0  0
   41.3170   34.8570   38.7170 C   0  0  0  0  0  0  0  0  0  0  0  0
   46.3380   32.6710   43.2500 C   0  0  0  0  0  0  0  0  0  0  0  0
   45.8200   32.4300   44.3110 O   0  0  0  0  0  0  0  0  0  0  0  0
   47.3170   32.4300   42.1820 C   0  0  0  0  0  0  0  0  0  0  0  0
   48.3140   33.2500   41.8170 C   0  0  0  0  0  0  0  0  0  0  0  0
   49.0310   32.8230   40.7100 C   0  0  0  0  0  0  0  0  0  0  0  0
   48.6700   31.6120   40.0920 N   0  0  0  0  0  0  0  0  0  0  0  0
   47.6730   30.8630   40.5220 C   0  0  0  0  0  0  0  0  0  0  0  0
   46.9350   31.2510   41.6130 N   0  0  0  0  0  0  0  0  0  0  0  0
   49.8630   33.3530   40.2730 H   0  0  0  0  0  0  0  0  0  0  0  0
   47.5130   29.9570   39.9440 H   0  0  0  0  0  0  0  0  0  0  0  0
   48.7510   34.4060   42.5100 C   0  0  0  0  0  0  0  0  0  0  0  0
   49.9650   35.0200   42.4520 C   0  0  0  0  0  0  0  0  0  0  0  0
   48.9090   35.7310   41.6510 C   0  0  0  0  0  0  0  0  0  0  0  0
   48.2660   34.5510   43.4930 H   0  0  0  0  0  0  0  0  0  0  0  0
   50.7800   34.5840   41.8000 H   0  0  0  0  0  0  0  0  0  0  0  0
   50.4580   35.6970   43.1880 H   0  0  0  0  0  0  0  0  0  0  0  0
   48.4300   36.6250   42.0770 H   0  0  0  0  0  0  0  0  0  0  0  0
   48.8480   35.5530   40.5690 H   0  0  0  0  0  0  0  0  0  0  0  0
  1  2  1  0  0  0  0
  2  3  1  0  0  0  0
  3 23  1  0  0  0  0
  3  4  2  0  0  0  0
  4  8  1  0  0  0  0
  5  4  1  0  0  0  0
  5  9  1  0  0  0  0
  6  5  2  0  0  0  0
  7  2  2  0  0  0  0
  7  6  1  0  0  0  0
 10  6  1  0  0  0  0
 11 12  1  0  0  0  0
 12 13  2  0  0  0  0
 12  7  1  0  0  0  0
 13 14  1  0  0  0  0
 15 16  1  0  0  0  0
 15 13  1  0  0  0  0
 16 17  1  0  0  0  0
 18 16  1  0  0  0  0
 19 18  1  0  0  0  0
 20 21  1  0  0  0  0
 20 18  2  0  0  0  0
 21 15  2  0  0  0  0
 22 21  1  0  0  0  0
 22 11  2  0  0  0  0
 23 24  2  0  0  0  0
 25 23  1  0  0  0  0
 26 25  1  0  0  0  0
 26 33  1  0  0  0  0
 27 26  2  0  0  0  0
 28 29  2  0  0  0  0
 28 27  1  0  0  0  0
 29 30  1  0  0  0  0
 30 25  2  0  0  0  0
 31 27  1  0  0  0  0
 32 29  1  0  0  0  0
 33 36  1  0  0  0  0
 34 33  1  0  0  0  0
 34 38  1  0  0  0  0
 35 39  1  0  0  0  0
 35 34  1  0  0  0  0
 35 33  1  0  0  0  0
 37 34  1  0  0  0  0
 40 35  1  0  0  0  0
M  END
>  <minimizedAffinity>
-6.88429976

>  <minimizedRMSD>
2.01452637

$$$$
