
 OpenBabel03252505203D

 37 41  0  0  0  0  0  0  0  0999 V2000
   33.0320   29.0190   37.2220 C   0  0  0  0  0  0  0  0  0  0  0  0
   33.3350   28.4800   35.9780 C   0  0  0  0  0  0  0  0  0  0  0  0
   34.4780   27.6930   35.8440 C   0  0  0  0  0  0  0  0  0  0  0  0
   35.2570   27.4860   36.9630 C   0  0  0  0  0  0  0  0  0  0  0  0
   34.9000   28.0510   38.1750 C   0  0  0  0  0  0  0  0  0  0  0  0
   33.7880   28.8170   38.3010 N   0  0  0  0  0  0  0  0  0  0  0  0
   32.6990   28.6650   35.1230 H   0  0  0  0  0  0  0  0  0  0  0  0
   34.7030   27.2790   34.8690 H   0  0  0  0  0  0  0  0  0  0  0  0
   36.1210   26.8790   36.8220 H   0  0  0  0  0  0  0  0  0  0  0  0
   36.4600   26.7070   39.6210 C   0  0  0  0  0  3  0  0  0  0  0  0
   35.7160   27.8380   39.3630 C   0  0  0  0  0  0  0  0  0  0  0  0
   35.8050   28.7950   40.3540 C   0  0  0  0  0  0  0  0  0  0  0  0
   35.2440   29.7280   40.2290 H   0  0  0  0  0  0  0  0  0  0  0  0
   36.5440   28.6970   41.5140 C   0  0  0  0  0  0  0  0  0  0  0  0
   36.7280   29.5200   42.5480 N   0  0  0  0  0  0  0  0  0  0  0  0
   36.3020   30.4720   42.6660 H   0  0  0  0  0  0  0  0  0  0  0  0
   37.5600   28.9030   43.4050 C   0  0  0  0  0  0  0  0  0  0  0  0
   37.8920   29.3420   44.3510 H   0  0  0  0  0  0  0  0  0  0  0  0
   37.9240   27.6560   42.9220 C   0  0  0  0  0  3  0  0  0  0  0  0
   37.2660   27.5410   41.7140 C   0  0  0  0  0  0  0  0  0  0  0  0
   37.2190   26.5490   40.7610 C   0  0  0  0  0  3  0  0  0  0  0  0
   29.9310   30.5730   38.4700 C   0  0  0  0  0  0  0  0  0  0  0  0
   29.5660   31.4410   37.4410 C   0  0  0  0  0  0  0  0  0  0  0  0
   30.4010   31.4760   36.3420 C   0  0  0  0  0  0  0  0  0  0  0  0
   31.5300   30.6830   36.2960 N   0  0  0  0  0  0  0  0  0  0  0  0
   31.8460   29.8470   37.3310 C   0  0  0  0  0  0  0  0  0  0  0  0
   31.0400   29.8080   38.3990 N   0  0  0  0  0  0  0  0  0  0  0  0
   29.2620   30.5540   39.3360 H   0  0  0  0  0  0  0  0  0  0  0  0
   28.6900   32.0610   37.4700 H   0  0  0  0  0  0  0  0  0  0  0  0
   30.0920   32.3490   35.1650 C   0  0  0  0  0  0  0  0  0  0  0  0
   31.2770   32.5090   34.2120 C   0  0  0  0  0  0  0  0  0  0  0  0
   29.9510   31.7540   33.8610 C   0  0  0  0  0  0  0  0  0  0  0  0
   29.7220   33.3690   35.4600 H   0  0  0  0  0  0  0  0  0  0  0  0
   31.4140   33.4240   33.6390 H   0  0  0  0  0  0  0  0  0  0  0  0
   32.1600   31.8390   34.3480 H   0  0  0  0  0  0  0  0  0  0  0  0
   29.2880   32.2420   33.1220 H   0  0  0  0  0  0  0  0  0  0  0  0
   30.0470   30.6550   33.7760 H   0  0  0  0  0  0  0  0  0  0  0  0
  1 26  1  0  0  0  0
  1  6  1  0  0  0  0
  2  1  2  0  0  0  0
  3  2  1  0  0  0  0
  3  4  2  0  0  0  0
  4  5  1  0  0  0  0
  5  6  2  0  0  0  0
  5 11  1  0  0  0  0
  7  2  1  0  0  0  0
  8  3  1  0  0  0  0
  9  4  1  0  0  0  0
 10 21  1  0  0  0  0
 11 10  2  0  0  0  0
 11 12  1  0  0  0  0
 12 14  2  0  0  0  0
 13 12  1  0  0  0  0
 14 20  1  0  0  0  0
 14 15  1  0  0  0  0
 15 16  1  0  0  0  0
 15 17  1  0  0  0  0
 17 18  1  0  0  0  0
 19 17  2  0  0  0  0
 20 19  1  0  0  0  0
 21 20  2  0  0  0  0
 22 28  1  0  0  0  0
 23 29  1  0  0  0  0
 23 22  2  0  0  0  0
 24 23  1  0  0  0  0
 25 24  2  0  0  0  0
 25 26  1  0  0  0  0
 26 27  2  0  0  0  0
 27 22  1  0  0  0  0
 30 33  1  0  0  0  0
 30 24  1  0  0  0  0
 31 35  1  0  0  0  0
 31 30  1  0  0  0  0
 32 31  1  0  0  0  0
 32 30  1  0  0  0  0
 34 31  1  0  0  0  0
 36 32  1  0  0  0  0
 37 32  1  0  0  0  0
M  END
>  <minimizedAffinity>
-6.20408392

$$$$

 OpenBabel03252505203D

 37 41  0  0  0  0  0  0  0  0999 V2000
   37.0380   27.0610   41.4200 C   0  0  0  0  0  0  0  0  0  0  0  0
   37.0870   26.7560   42.7740 C   0  0  0  0  0  0  0  0  0  0  0  0
   37.4240   27.7610   43.6800 C   0  0  0  0  0  0  0  0  0  0  0  0
   37.6930   29.0180   43.1830 C   0  0  0  0  0  0  0  0  0  0  0  0
   37.6260   29.2580   41.8210 C   0  0  0  0  0  0  0  0  0  0  0  0
   37.2990   28.2780   40.9430 N   0  0  0  0  0  0  0  0  0  0  0  0
   36.8690   25.7570   43.1260 H   0  0  0  0  0  0  0  0  0  0  0  0
   37.4580   27.5100   44.7330 H   0  0  0  0  0  0  0  0  0  0  0  0
   37.9460   29.7600   43.9050 H   0  0  0  0  0  0  0  0  0  0  0  0
   37.0150   31.3610   40.5810 C   0  0  0  0  0  3  0  0  0  0  0  0
   37.9090   30.5840   41.2850 C   0  0  0  0  0  0  0  0  0  0  0  0
   39.1440   31.1770   41.4520 C   0  0  0  0  0  0  0  0  0  0  0  0
   39.9160   30.6270   42.0020 H   0  0  0  0  0  0  0  0  0  0  0  0
   39.5170   32.4210   40.9880 C   0  0  0  0  0  0  0  0  0  0  0  0
   40.6510   33.1190   41.0680 N   0  0  0  0  0  0  0  0  0  0  0  0
   41.5370   32.8120   41.5410 H   0  0  0  0  0  0  0  0  0  0  0  0
   40.4470   34.2850   40.4300 C   0  0  0  0  0  0  0  0  0  0  0  0
   41.2080   35.0650   40.3330 H   0  0  0  0  0  0  0  0  0  0  0  0
   39.1570   34.3480   39.9260 C   0  0  0  0  0  3  0  0  0  0  0  0
   38.5780   33.1490   40.2920 C   0  0  0  0  0  0  0  0  0  0  0  0
   37.3270   32.6110   40.0920 C   0  0  0  0  0  3  0  0  0  0  0  0
   36.5310   23.7260   39.9330 C   0  0  0  0  0  0  0  0  0  0  0  0
   36.0640   24.0110   38.6500 C   0  0  0  0  0  0  0  0  0  0  0  0
   35.9260   25.3460   38.3280 C   0  0  0  0  0  0  0  0  0  0  0  0
   36.2420   26.3240   39.2500 N   0  0  0  0  0  0  0  0  0  0  0  0
   36.6990   25.9940   40.4970 C   0  0  0  0  0  0  0  0  0  0  0  0
   36.8340   24.7010   40.8140 N   0  0  0  0  0  0  0  0  0  0  0  0
   36.6360   22.6640   40.1760 H   0  0  0  0  0  0  0  0  0  0  0  0
   35.8150   23.2560   37.9280 H   0  0  0  0  0  0  0  0  0  0  0  0
   35.4600   25.7700   36.9690 C   0  0  0  0  0  0  0  0  0  0  0  0
   33.9720   26.1190   36.9300 C   0  0  0  0  0  0  0  0  0  0  0  0
   35.1310   27.1520   36.7330 C   0  0  0  0  0  0  0  0  0  0  0  0
   35.6760   25.0060   36.1740 H   0  0  0  0  0  0  0  0  0  0  0  0
   33.3840   25.9570   36.0280 H   0  0  0  0  0  0  0  0  0  0  0  0
   33.4260   26.2240   37.8980 H   0  0  0  0  0  0  0  0  0  0  0  0
   35.2570   27.5620   35.7140 H   0  0  0  0  0  0  0  0  0  0  0  0
   35.2640   27.8690   37.5650 H   0  0  0  0  0  0  0  0  0  0  0  0
  1  2  1  0  0  0  0
  2  7  1  0  0  0  0
  2  3  2  0  0  0  0
  3  8  1  0  0  0  0
  4  3  1  0  0  0  0
  4  9  1  0  0  0  0
  5  4  2  0  0  0  0
  6  1  2  0  0  0  0
  6  5  1  0  0  0  0
 10 11  1  0  0  0  0
 11 12  2  0  0  0  0
 11  5  1  0  0  0  0
 12 13  1  0  0  0  0
 14 15  1  0  0  0  0
 14 12  1  0  0  0  0
 15 16  1  0  0  0  0
 17 15  1  0  0  0  0
 18 17  1  0  0  0  0
 19 20  1  0  0  0  0
 19 17  2  0  0  0  0
 20 14  2  0  0  0  0
 21 20  1  0  0  0  0
 21 10  2  0  0  0  0
 22 28  1  0  0  0  0
 22 27  1  0  0  0  0
 23 22  2  0  0  0  0
 24 23  1  0  0  0  0
 24 25  2  0  0  0  0
 25 26  1  0  0  0  0
 26 27  2  0  0  0  0
 26  1  1  0  0  0  0
 29 23  1  0  0  0  0
 30 24  1  0  0  0  0
 31 30  1  0  0  0  0
 31 35  1  0  0  0  0
 32 31  1  0  0  0  0
 32 30  1  0  0  0  0
 32 37  1  0  0  0  0
 33 30  1  0  0  0  0
 34 31  1  0  0  0  0
 36 32  1  0  0  0  0
M  END
>  <minimizedAffinity>
-6.15084553

$$$$

 OpenBabel03252505203D

 37 41  0  0  0  0  0  0  0  0999 V2000
   38.9720   31.4890   39.2690 C   0  0  0  0  0  0  0  0  0  0  0  0
   38.0700   32.5350   39.4130 C   0  0  0  0  0  0  0  0  0  0  0  0
   36.8990   32.3190   40.1390 C   0  0  0  0  0  0  0  0  0  0  0  0
   36.6930   31.0690   40.6820 C   0  0  0  0  0  0  0  0  0  0  0  0
   37.6320   30.0680   40.5020 C   0  0  0  0  0  0  0  0  0  0  0  0
   38.7700   30.2810   39.7950 N   0  0  0  0  0  0  0  0  0  0  0  0
   38.2660   33.5020   38.9730 H   0  0  0  0  0  0  0  0  0  0  0  0
   36.2030   33.1430   40.2440 H   0  0  0  0  0  0  0  0  0  0  0  0
   35.7870   30.9420   41.2290 H   0  0  0  0  0  0  0  0  0  0  0  0
   37.3760   28.4580   42.4180 C   0  0  0  0  0  3  0  0  0  0  0  0
   37.4250   28.7430   41.0710 C   0  0  0  0  0  0  0  0  0  0  0  0
   37.2550   27.6350   40.2660 C   0  0  0  0  0  0  0  0  0  0  0  0
   37.2800   27.7710   39.1790 H   0  0  0  0  0  0  0  0  0  0  0  0
   37.0530   26.3400   40.6980 C   0  0  0  0  0  0  0  0  0  0  0  0
   36.8760   25.1840   40.0560 N   0  0  0  0  0  0  0  0  0  0  0  0
   36.8580   25.0490   39.0150 H   0  0  0  0  0  0  0  0  0  0  0  0
   36.7240   24.2290   40.9900 C   0  0  0  0  0  0  0  0  0  0  0  0
   36.5610   23.1720   40.7570 H   0  0  0  0  0  0  0  0  0  0  0  0
   36.8040   24.7710   42.2630 C   0  0  0  0  0  3  0  0  0  0  0  0
   37.0150   26.1210   42.0570 C   0  0  0  0  0  0  0  0  0  0  0  0
   37.1770   27.1870   42.9120 C   0  0  0  0  0  3  0  0  0  0  0  0
   41.8400   33.1570   37.6620 C   0  0  0  0  0  0  0  0  0  0  0  0
   42.4650   32.1260   36.9610 C   0  0  0  0  0  0  0  0  0  0  0  0
   41.8880   30.8750   37.0650 C   0  0  0  0  0  0  0  0  0  0  0  0
   40.7540   30.6900   37.8290 N   0  0  0  0  0  0  0  0  0  0  0  0
   40.1760   31.7350   38.4970 C   0  0  0  0  0  0  0  0  0  0  0  0
   40.7310   32.9490   38.4010 N   0  0  0  0  0  0  0  0  0  0  0  0
   42.3060   34.1440   37.5720 H   0  0  0  0  0  0  0  0  0  0  0  0
   43.3470   32.2620   36.3660 H   0  0  0  0  0  0  0  0  0  0  0  0
   42.4570   29.6990   36.3320 C   0  0  0  0  0  0  0  0  0  0  0  0
   43.6070   30.0770   35.3990 C   0  0  0  0  0  0  0  0  0  0  0  0
   43.7620   29.2080   36.6910 C   0  0  0  0  0  0  0  0  0  0  0  0
   41.6840   29.1310   35.7470 H   0  0  0  0  0  0  0  0  0  0  0  0
   43.7880   29.5180   34.4820 H   0  0  0  0  0  0  0  0  0  0  0  0
   44.0440   31.1010   35.4820 H   0  0  0  0  0  0  0  0  0  0  0  0
   43.9870   28.1350   36.5380 H   0  0  0  0  0  0  0  0  0  0  0  0
   44.2950   29.7010   37.5250 H   0  0  0  0  0  0  0  0  0  0  0  0
  1  2  2  0  0  0  0
  1  6  1  0  0  0  0
  2  3  1  0  0  0  0
  3  8  1  0  0  0  0
  3  4  2  0  0  0  0
  4  9  1  0  0  0  0
  5  4  1  0  0  0  0
  5 11  1  0  0  0  0
  6  5  2  0  0  0  0
  7  2  1  0  0  0  0
 10 21  1  0  0  0  0
 11 10  2  0  0  0  0
 12 14  2  0  0  0  0
 12 11  1  0  0  0  0
 13 12  1  0  0  0  0
 14 20  1  0  0  0  0
 15 14  1  0  0  0  0
 15 17  1  0  0  0  0
 16 15  1  0  0  0  0
 17 19  2  0  0  0  0
 18 17  1  0  0  0  0
 20 19  1  0  0  0  0
 20 21  2  0  0  0  0
 22 27  1  0  0  0  0
 23 24  1  0  0  0  0
 23 22  2  0  0  0  0
 24 25  2  0  0  0  0
 25 26  1  0  0  0  0
 26  1  1  0  0  0  0
 27 26  2  0  0  0  0
 28 22  1  0  0  0  0
 29 23  1  0  0  0  0
 30 32  1  0  0  0  0
 30 24  1  0  0  0  0
 31 35  1  0  0  0  0
 31 30  1  0  0  0  0
 31 32  1  0  0  0  0
 32 37  1  0  0  0  0
 33 30  1  0  0  0  0
 34 31  1  0  0  0  0
 36 32  1  0  0  0  0
M  END
>  <minimizedAffinity>
-6.07795334

$$$$

 OpenBabel03252505203D

 37 41  0  0  0  0  0  0  0  0999 V2000
   37.6220   26.4210   41.4580 C   0  0  0  0  0  0  0  0  0  0  0  0
   36.9160   26.1390   42.6210 C   0  0  0  0  0  0  0  0  0  0  0  0
   36.6120   27.1830   43.4940 C   0  0  0  0  0  0  0  0  0  0  0  0
   37.0280   28.4530   43.1570 C   0  0  0  0  0  0  0  0  0  0  0  0
   37.7280   28.6680   41.9820 C   0  0  0  0  0  0  0  0  0  0  0  0
   38.0240   27.6500   41.1360 N   0  0  0  0  0  0  0  0  0  0  0  0
   36.6060   25.1300   42.8510 H   0  0  0  0  0  0  0  0  0  0  0  0
   36.0610   26.9500   44.3970 H   0  0  0  0  0  0  0  0  0  0  0  0
   36.7770   29.2240   43.8480 H   0  0  0  0  0  0  0  0  0  0  0  0
   39.4260   30.5210   41.8710 C   0  0  0  0  0  3  0  0  0  0  0  0
   38.1740   30.0060   41.6160 C   0  0  0  0  0  0  0  0  0  0  0  0
   37.3370   30.8880   40.9630 C   0  0  0  0  0  0  0  0  0  0  0  0
   36.3190   30.5590   40.7210 H   0  0  0  0  0  0  0  0  0  0  0  0
   37.6540   32.1720   40.5730 C   0  0  0  0  0  0  0  0  0  0  0  0
   36.9670   33.1280   39.9450 N   0  0  0  0  0  0  0  0  0  0  0  0
   35.9750   33.0610   39.6090 H   0  0  0  0  0  0  0  0  0  0  0  0
   37.7830   34.1900   39.8240 C   0  0  0  0  0  0  0  0  0  0  0  0
   37.4890   35.1300   39.3460 H   0  0  0  0  0  0  0  0  0  0  0  0
   39.0230   33.9220   40.3820 C   0  0  0  0  0  3  0  0  0  0  0  0
   38.9220   32.6290   40.8560 C   0  0  0  0  0  0  0  0  0  0  0  0
   39.8040   31.7960   41.5060 C   0  0  0  0  0  3  0  0  0  0  0  0
   39.4510   24.0590   39.2990 C   0  0  0  0  0  0  0  0  0  0  0  0
   38.4550   23.1950   38.8450 C   0  0  0  0  0  0  0  0  0  0  0  0
   37.1750   23.4410   39.3010 C   0  0  0  0  0  0  0  0  0  0  0  0
   36.9280   24.4940   40.1580 N   0  0  0  0  0  0  0  0  0  0  0  0
   37.9400   25.3160   40.5740 C   0  0  0  0  0  0  0  0  0  0  0  0
   39.1830   25.0820   40.1360 N   0  0  0  0  0  0  0  0  0  0  0  0
   40.4620   23.8540   38.9310 H   0  0  0  0  0  0  0  0  0  0  0  0
   38.6390   22.3730   38.1800 H   0  0  0  0  0  0  0  0  0  0  0  0
   36.0210   22.5950   38.8570 C   0  0  0  0  0  0  0  0  0  0  0  0
   34.6920   23.0220   39.4820 C   0  0  0  0  0  0  0  0  0  0  0  0
   35.0400   23.1510   37.9620 C   0  0  0  0  0  0  0  0  0  0  0  0
   36.1790   21.4990   39.0520 H   0  0  0  0  0  0  0  0  0  0  0  0
   33.9100   22.2930   39.6820 H   0  0  0  0  0  0  0  0  0  0  0  0
   34.6510   23.9970   40.0250 H   0  0  0  0  0  0  0  0  0  0  0  0
   34.5020   22.4710   37.2740 H   0  0  0  0  0  0  0  0  0  0  0  0
   35.1890   24.1870   37.6020 H   0  0  0  0  0  0  0  0  0  0  0  0
  1  2  1  0  0  0  0
  2  7  1  0  0  0  0
  2  3  2  0  0  0  0
  3  8  1  0  0  0  0
  4  3  1  0  0  0  0
  4  9  1  0  0  0  0
  5  4  2  0  0  0  0
  6  1  2  0  0  0  0
  6  5  1  0  0  0  0
 11 10  1  0  0  0  0
 11  5  1  0  0  0  0
 12 11  2  0  0  0  0
 13 12  1  0  0  0  0
 14 20  2  0  0  0  0
 14 12  1  0  0  0  0
 15 14  1  0  0  0  0
 16 15  1  0  0  0  0
 17 15  1  0  0  0  0
 17 19  2  0  0  0  0
 18 17  1  0  0  0  0
 19 20  1  0  0  0  0
 20 21  1  0  0  0  0
 21 10  2  0  0  0  0
 22 27  1  0  0  0  0
 23 22  2  0  0  0  0
 23 24  1  0  0  0  0
 24 25  2  0  0  0  0
 25 26  1  0  0  0  0
 26  1  1  0  0  0  0
 27 26  2  0  0  0  0
 28 22  1  0  0  0  0
 29 23  1  0  0  0  0
 30 33  1  0  0  0  0
 30 24  1  0  0  0  0
 30 31  1  0  0  0  0
 31 34  1  0  0  0  0
 31 35  1  0  0  0  0
 32 30  1  0  0  0  0
 32 31  1  0  0  0  0
 36 32  1  0  0  0  0
 37 32  1  0  0  0  0
M  END
>  <minimizedAffinity>
-5.99940681

$$$$

 OpenBabel03252505203D

 37 41  0  0  0  0  0  0  0  0999 V2000
   38.0880   31.0720   39.8040 C   0  0  0  0  0  0  0  0  0  0  0  0
   37.0810   32.0200   39.9350 C   0  0  0  0  0  0  0  0  0  0  0  0
   37.4210   33.3720   39.9110 C   0  0  0  0  0  0  0  0  0  0  0  0
   38.7500   33.7040   39.7570 C   0  0  0  0  0  0  0  0  0  0  0  0
   39.7060   32.7100   39.6310 C   0  0  0  0  0  0  0  0  0  0  0  0
   39.3720   31.3970   39.6560 N   0  0  0  0  0  0  0  0  0  0  0  0
   36.0490   31.7200   40.0540 H   0  0  0  0  0  0  0  0  0  0  0  0
   36.6270   34.1010   40.0140 H   0  0  0  0  0  0  0  0  0  0  0  0
   38.9710   34.7460   39.7430 H   0  0  0  0  0  0  0  0  0  0  0  0
   41.8800   33.7190   40.3980 C   0  0  0  0  0  3  0  0  0  0  0  0
   41.1140   33.0510   39.4680 C   0  0  0  0  0  0  0  0  0  0  0  0
   41.8060   32.7130   38.3220 C   0  0  0  0  0  0  0  0  0  0  0  0
   41.2710   32.1780   37.5290 H   0  0  0  0  0  0  0  0  0  0  0  0
   43.1330   32.9850   38.0650 C   0  0  0  0  0  0  0  0  0  0  0  0
   43.9290   32.7290   37.0260 N   0  0  0  0  0  0  0  0  0  0  0  0
   43.6570   32.2300   36.1430 H   0  0  0  0  0  0  0  0  0  0  0  0
   45.1430   33.2290   37.3210 C   0  0  0  0  0  0  0  0  0  0  0  0
   46.0050   33.1660   36.6490 H   0  0  0  0  0  0  0  0  0  0  0  0
   45.1370   33.8200   38.5740 C   0  0  0  0  0  3  0  0  0  0  0  0
   43.8460   33.6560   39.0340 C   0  0  0  0  0  0  0  0  0  0  0  0
   43.2110   34.0200   40.2000 C   0  0  0  0  0  3  0  0  0  0  0  0
   37.1190   27.6590   38.8040 C   0  0  0  0  0  0  0  0  0  0  0  0
   36.9490   27.0000   40.0210 C   0  0  0  0  0  0  0  0  0  0  0  0
   37.1800   27.7450   41.1600 C   0  0  0  0  0  0  0  0  0  0  0  0
   37.5580   29.0690   41.0650 N   0  0  0  0  0  0  0  0  0  0  0  0
   37.7100   29.6720   39.8470 C   0  0  0  0  0  0  0  0  0  0  0  0
   37.4880   28.9540   38.7390 N   0  0  0  0  0  0  0  0  0  0  0  0
   36.9340   27.0580   37.9070 H   0  0  0  0  0  0  0  0  0  0  0  0
   36.6560   25.9700   40.1020 H   0  0  0  0  0  0  0  0  0  0  0  0
   37.0000   27.1480   42.5230 C   0  0  0  0  0  0  0  0  0  0  0  0
   38.2920   27.1250   43.3390 C   0  0  0  0  0  0  0  0  0  0  0  0
   37.0430   28.0050   43.6800 C   0  0  0  0  0  0  0  0  0  0  0  0
   36.5680   26.1120   42.4940 H   0  0  0  0  0  0  0  0  0  0  0  0
   38.4760   26.3400   44.0710 H   0  0  0  0  0  0  0  0  0  0  0  0
   39.1690   27.7040   42.9620 H   0  0  0  0  0  0  0  0  0  0  0  0
   36.4670   27.7140   44.5780 H   0  0  0  0  0  0  0  0  0  0  0  0
   37.1790   29.0910   43.5210 H   0  0  0  0  0  0  0  0  0  0  0  0
  1 26  1  0  0  0  0
  1  2  1  0  0  0  0
  2  7  1  0  0  0  0
  3  2  2  0  0  0  0
  3  8  1  0  0  0  0
  4  3  1  0  0  0  0
  5  6  1  0  0  0  0
  5  4  2  0  0  0  0
  6  1  2  0  0  0  0
  9  4  1  0  0  0  0
 11  5  1  0  0  0  0
 11 10  2  0  0  0  0
 12 11  1  0  0  0  0
 13 12  1  0  0  0  0
 14 12  2  0  0  0  0
 14 20  1  0  0  0  0
 15 17  1  0  0  0  0
 15 14  1  0  0  0  0
 16 15  1  0  0  0  0
 17 19  2  0  0  0  0
 18 17  1  0  0  0  0
 19 20  1  0  0  0  0
 20 21  2  0  0  0  0
 21 10  1  0  0  0  0
 22 23  1  0  0  0  0
 23 29  1  0  0  0  0
 23 24  2  0  0  0  0
 24 30  1  0  0  0  0
 25 24  1  0  0  0  0
 26 25  2  0  0  0  0
 27 22  2  0  0  0  0
 27 26  1  0  0  0  0
 28 22  1  0  0  0  0
 30 31  1  0  0  0  0
 30 32  1  0  0  0  0
 31 32  1  0  0  0  0
 31 34  1  0  0  0  0
 32 36  1  0  0  0  0
 33 30  1  0  0  0  0
 35 31  1  0  0  0  0
 37 32  1  0  0  0  0
M  END
>  <minimizedAffinity>
-5.93425751

$$$$

 OpenBabel03252505203D

 37 41  0  0  0  0  0  0  0  0999 V2000
   38.0470   30.6660   40.8940 C   0  0  0  0  0  0  0  0  0  0  0  0
   36.9090   31.3270   40.4510 C   0  0  0  0  0  0  0  0  0  0  0  0
   37.0550   32.5200   39.7440 C   0  0  0  0  0  0  0  0  0  0  0  0
   38.3310   32.9880   39.5180 C   0  0  0  0  0  0  0  0  0  0  0  0
   39.4250   32.2810   39.9870 C   0  0  0  0  0  0  0  0  0  0  0  0
   39.2800   31.1220   40.6740 N   0  0  0  0  0  0  0  0  0  0  0  0
   35.9230   30.9280   40.6470 H   0  0  0  0  0  0  0  0  0  0  0  0
   36.1590   33.0250   39.4030 H   0  0  0  0  0  0  0  0  0  0  0  0
   38.4020   33.9020   38.9750 H   0  0  0  0  0  0  0  0  0  0  0  0
   41.5170   33.5150   40.6460 C   0  0  0  0  0  3  0  0  0  0  0  0
   40.7790   32.7680   39.7530 C   0  0  0  0  0  0  0  0  0  0  0  0
   41.4440   32.5020   38.5730 C   0  0  0  0  0  0  0  0  0  0  0  0
   40.9290   31.9120   37.8060 H   0  0  0  0  0  0  0  0  0  0  0  0
   42.7210   32.9120   38.2500 C   0  0  0  0  0  0  0  0  0  0  0  0
   43.4860   32.7390   37.1710 N   0  0  0  0  0  0  0  0  0  0  0  0
   43.2230   32.2120   36.3020 H   0  0  0  0  0  0  0  0  0  0  0  0
   44.6530   33.3640   37.4060 C   0  0  0  0  0  0  0  0  0  0  0  0
   45.4820   33.3910   36.6910 H   0  0  0  0  0  0  0  0  0  0  0  0
   44.6490   33.9550   38.6590 C   0  0  0  0  0  3  0  0  0  0  0  0
   43.4070   33.6570   39.1840 C   0  0  0  0  0  0  0  0  0  0  0  0
   42.7970   33.9540   40.3820 C   0  0  0  0  0  3  0  0  0  0  0  0
   37.5590   28.2590   43.6440 C   0  0  0  0  0  0  0  0  0  0  0  0
   37.5720   27.0230   42.9990 C   0  0  0  0  0  0  0  0  0  0  0  0
   37.7400   27.0460   41.6290 C   0  0  0  0  0  0  0  0  0  0  0  0
   37.8860   28.2460   40.9630 N   0  0  0  0  0  0  0  0  0  0  0  0
   37.8680   29.4340   41.6400 C   0  0  0  0  0  0  0  0  0  0  0  0
   37.7040   29.4180   42.9690 N   0  0  0  0  0  0  0  0  0  0  0  0
   37.4240   28.2280   44.7300 H   0  0  0  0  0  0  0  0  0  0  0  0
   37.4580   26.0860   43.5100 H   0  0  0  0  0  0  0  0  0  0  0  0
   37.7990   25.7770   40.8350 C   0  0  0  0  0  0  0  0  0  0  0  0
   36.9590   24.6540   41.4430 C   0  0  0  0  0  0  0  0  0  0  0  0
   36.6440   25.3600   40.0830 C   0  0  0  0  0  0  0  0  0  0  0  0
   38.8480   25.4040   40.6810 H   0  0  0  0  0  0  0  0  0  0  0  0
   37.2520   23.6120   41.3280 H   0  0  0  0  0  0  0  0  0  0  0  0
   36.2470   24.9090   42.2650 H   0  0  0  0  0  0  0  0  0  0  0  0
   36.7950   24.7560   39.1680 H   0  0  0  0  0  0  0  0  0  0  0  0
   35.7520   26.0140   40.0900 H   0  0  0  0  0  0  0  0  0  0  0  0
  1 26  1  0  0  0  0
  2  7  1  0  0  0  0
  2  1  2  0  0  0  0
  3  2  1  0  0  0  0
  4  3  2  0  0  0  0
  4  5  1  0  0  0  0
  5  6  2  0  0  0  0
  6  1  1  0  0  0  0
  8  3  1  0  0  0  0
  9  4  1  0  0  0  0
 11  5  1  0  0  0  0
 11 10  2  0  0  0  0
 12 11  1  0  0  0  0
 13 12  1  0  0  0  0
 14 12  2  0  0  0  0
 14 20  1  0  0  0  0
 15 17  1  0  0  0  0
 15 14  1  0  0  0  0
 16 15  1  0  0  0  0
 17 19  2  0  0  0  0
 18 17  1  0  0  0  0
 19 20  1  0  0  0  0
 20 21  2  0  0  0  0
 21 10  1  0  0  0  0
 22 28  1  0  0  0  0
 23 29  1  0  0  0  0
 23 22  1  0  0  0  0
 24 23  2  0  0  0  0
 25 24  1  0  0  0  0
 25 26  2  0  0  0  0
 26 27  1  0  0  0  0
 27 22  2  0  0  0  0
 30 31  1  0  0  0  0
 30 24  1  0  0  0  0
 31 35  1  0  0  0  0
 32 37  1  0  0  0  0
 32 30  1  0  0  0  0
 32 31  1  0  0  0  0
 33 30  1  0  0  0  0
 34 31  1  0  0  0  0
 36 32  1  0  0  0  0
M  END
>  <minimizedAffinity>
-5.9318614

$$$$

 OpenBabel03252505203D

 37 41  0  0  0  0  0  0  0  0999 V2000
   38.1400   29.0300   41.3080 C   0  0  0  0  0  0  0  0  0  0  0  0
   38.4460   30.3220   41.7190 C   0  0  0  0  0  0  0  0  0  0  0  0
   37.9600   31.3970   40.9770 C   0  0  0  0  0  0  0  0  0  0  0  0
   37.1950   31.1240   39.8630 C   0  0  0  0  0  0  0  0  0  0  0  0
   36.9260   29.8140   39.5070 C   0  0  0  0  0  0  0  0  0  0  0  0
   37.4000   28.7700   40.2310 N   0  0  0  0  0  0  0  0  0  0  0  0
   39.0500   30.4960   42.5990 H   0  0  0  0  0  0  0  0  0  0  0  0
   38.2060   32.3990   41.3070 H   0  0  0  0  0  0  0  0  0  0  0  0
   36.8420   31.9710   39.3220 H   0  0  0  0  0  0  0  0  0  0  0  0
   36.5330   29.6630   37.0260 C   0  0  0  0  0  3  0  0  0  0  0  0
   36.1180   29.5140   38.3320 C   0  0  0  0  0  0  0  0  0  0  0  0
   34.8270   29.0400   38.4500 C   0  0  0  0  0  0  0  0  0  0  0  0
   34.4170   28.8900   39.4560 H   0  0  0  0  0  0  0  0  0  0  0  0
   33.9790   28.7250   37.4090 C   0  0  0  0  0  0  0  0  0  0  0  0
   32.7270   28.2650   37.3630 N   0  0  0  0  0  0  0  0  0  0  0  0
   32.1170   28.0420   38.1880 H   0  0  0  0  0  0  0  0  0  0  0  0
   32.3960   28.1410   36.0660 C   0  0  0  0  0  0  0  0  0  0  0  0
   31.4220   27.7810   35.7190 H   0  0  0  0  0  0  0  0  0  0  0  0
   33.4500   28.5260   35.2520 C   0  0  0  0  0  3  0  0  0  0  0  0
   34.4520   28.8970   36.1270 C   0  0  0  0  0  0  0  0  0  0  0  0
   35.7330   29.3670   35.9440 C   0  0  0  0  0  3  0  0  0  0  0  0
   40.1480   27.0450   43.6790 C   0  0  0  0  0  0  0  0  0  0  0  0
   39.6540   25.7500   43.5180 C   0  0  0  0  0  0  0  0  0  0  0  0
   38.6330   25.5920   42.6010 C   0  0  0  0  0  0  0  0  0  0  0  0
   38.1510   26.6770   41.8980 N   0  0  0  0  0  0  0  0  0  0  0  0
   38.6700   27.9280   42.0900 C   0  0  0  0  0  0  0  0  0  0  0  0
   39.6590   28.0880   42.9770 N   0  0  0  0  0  0  0  0  0  0  0  0
   40.9560   27.1580   44.4080 H   0  0  0  0  0  0  0  0  0  0  0  0
   40.0240   24.9020   44.0620 H   0  0  0  0  0  0  0  0  0  0  0  0
   38.0460   24.2420   42.3250 C   0  0  0  0  0  0  0  0  0  0  0  0
   36.7830   24.3050   41.4650 C   0  0  0  0  0  0  0  0  0  0  0  0
   38.1440   23.6860   41.0000 C   0  0  0  0  0  0  0  0  0  0  0  0
   37.8200   23.6620   43.2610 H   0  0  0  0  0  0  0  0  0  0  0  0
   35.9930   23.5660   41.5790 H   0  0  0  0  0  0  0  0  0  0  0  0
   36.5280   25.2720   40.9670 H   0  0  0  0  0  0  0  0  0  0  0  0
   38.1700   22.5860   40.8860 H   0  0  0  0  0  0  0  0  0  0  0  0
   38.6830   24.2670   40.2290 H   0  0  0  0  0  0  0  0  0  0  0  0
  1  2  1  0  0  0  0
  1 26  1  0  0  0  0
  2  7  1  0  0  0  0
  3  8  1  0  0  0  0
  3  2  2  0  0  0  0
  4  3  1  0  0  0  0
  5  4  2  0  0  0  0
  5  6  1  0  0  0  0
  6  1  2  0  0  0  0
  9  4  1  0  0  0  0
 10 11  1  0  0  0  0
 11 12  2  0  0  0  0
 11  5  1  0  0  0  0
 12 13  1  0  0  0  0
 14 12  1  0  0  0  0
 15 14  1  0  0  0  0
 15 16  1  0  0  0  0
 17 15  1  0  0  0  0
 18 17  1  0  0  0  0
 19 17  2  0  0  0  0
 19 20  1  0  0  0  0
 20 14  2  0  0  0  0
 21 20  1  0  0  0  0
 21 10  2  0  0  0  0
 22 28  1  0  0  0  0
 23 22  1  0  0  0  0
 23 29  1  0  0  0  0
 24 23  2  0  0  0  0
 25 26  2  0  0  0  0
 25 24  1  0  0  0  0
 26 27  1  0  0  0  0
 27 22  2  0  0  0  0
 30 24  1  0  0  0  0
 30 33  1  0  0  0  0
 31 34  1  0  0  0  0
 31 30  1  0  0  0  0
 32 31  1  0  0  0  0
 32 30  1  0  0  0  0
 35 31  1  0  0  0  0
 36 32  1  0  0  0  0
 37 32  1  0  0  0  0
M  END
>  <minimizedAffinity>
-5.90128708

$$$$

 OpenBabel03252505203D

 37 41  0  0  0  0  0  0  0  0999 V2000
   36.7630   27.4450   39.7110 C   0  0  0  0  0  0  0  0  0  0  0  0
   35.7510   27.2860   38.7730 C   0  0  0  0  0  0  0  0  0  0  0  0
   35.3540   28.3890   38.0170 C   0  0  0  0  0  0  0  0  0  0  0  0
   35.9900   29.5910   38.2400 C   0  0  0  0  0  0  0  0  0  0  0  0
   36.9920   29.6840   39.1900 C   0  0  0  0  0  0  0  0  0  0  0  0
   37.3750   28.6100   39.9240 N   0  0  0  0  0  0  0  0  0  0  0  0
   35.2760   26.3270   38.6260 H   0  0  0  0  0  0  0  0  0  0  0  0
   34.5640   28.2510   37.2880 H   0  0  0  0  0  0  0  0  0  0  0  0
   35.6590   30.4100   37.6440 H   0  0  0  0  0  0  0  0  0  0  0  0
   37.0450   32.1720   39.5630 C   0  0  0  0  0  3  0  0  0  0  0  0
   37.6700   30.9500   39.4340 C   0  0  0  0  0  0  0  0  0  0  0  0
   39.0430   31.0170   39.5570 C   0  0  0  0  0  0  0  0  0  0  0  0
   39.6210   30.0890   39.4680 H   0  0  0  0  0  0  0  0  0  0  0  0
   39.7840   32.1580   39.7870 C   0  0  0  0  0  0  0  0  0  0  0  0
   41.0920   32.3800   39.9280 N   0  0  0  0  0  0  0  0  0  0  0  0
   41.8520   31.6570   39.8840 H   0  0  0  0  0  0  0  0  0  0  0  0
   41.2510   33.6990   40.1370 C   0  0  0  0  0  0  0  0  0  0  0  0
   42.2250   34.1760   40.2880 H   0  0  0  0  0  0  0  0  0  0  0  0
   40.0270   34.3470   40.1320 C   0  0  0  0  0  3  0  0  0  0  0  0
   39.1010   33.3470   39.9070 C   0  0  0  0  0  0  0  0  0  0  0  0
   37.7290   33.3460   39.7930 C   0  0  0  0  0  3  0  0  0  0  0  0
   36.9300   24.0310   41.0920 C   0  0  0  0  0  0  0  0  0  0  0  0
   37.9200   24.1250   42.0700 C   0  0  0  0  0  0  0  0  0  0  0  0
   38.5140   25.3620   42.2270 C   0  0  0  0  0  0  0  0  0  0  0  0
   38.1250   26.4280   41.4420 N   0  0  0  0  0  0  0  0  0  0  0  0
   37.1480   26.2870   40.4950 C   0  0  0  0  0  0  0  0  0  0  0  0
   36.5690   25.0900   40.3380 N   0  0  0  0  0  0  0  0  0  0  0  0
   36.4670   23.0460   40.9770 H   0  0  0  0  0  0  0  0  0  0  0  0
   38.2270   23.3000   42.6840 H   0  0  0  0  0  0  0  0  0  0  0  0
   39.5680   25.5860   43.2670 C   0  0  0  0  0  0  0  0  0  0  0  0
   40.8500   26.1930   42.6960 C   0  0  0  0  0  0  0  0  0  0  0  0
   39.8800   26.9310   43.6780 C   0  0  0  0  0  0  0  0  0  0  0  0
   39.8280   24.6530   43.8360 H   0  0  0  0  0  0  0  0  0  0  0  0
   41.8190   25.9690   43.1390 H   0  0  0  0  0  0  0  0  0  0  0  0
   40.8310   26.5890   41.6520 H   0  0  0  0  0  0  0  0  0  0  0  0
   40.2540   27.1000   44.7050 H   0  0  0  0  0  0  0  0  0  0  0  0
   39.3030   27.7610   43.2290 H   0  0  0  0  0  0  0  0  0  0  0  0
  1  6  1  0  0  0  0
  1 26  1  0  0  0  0
  2  1  2  0  0  0  0
  3  4  2  0  0  0  0
  3  2  1  0  0  0  0
  4  5  1  0  0  0  0
  5 11  1  0  0  0  0
  5  6  2  0  0  0  0
  7  2  1  0  0  0  0
  8  3  1  0  0  0  0
  9  4  1  0  0  0  0
 10 21  1  0  0  0  0
 11 12  1  0  0  0  0
 11 10  2  0  0  0  0
 12 14  2  0  0  0  0
 13 12  1  0  0  0  0
 14 20  1  0  0  0  0
 14 15  1  0  0  0  0
 15 17  1  0  0  0  0
 16 15  1  0  0  0  0
 17 18  1  0  0  0  0
 19 17  2  0  0  0  0
 20 19  1  0  0  0  0
 21 20  2  0  0  0  0
 22 23  1  0  0  0  0
 23 24  2  0  0  0  0
 23 29  1  0  0  0  0
 24 30  1  0  0  0  0
 25 24  1  0  0  0  0
 26 25  2  0  0  0  0
 27 26  1  0  0  0  0
 27 22  2  0  0  0  0
 28 22  1  0  0  0  0
 30 32  1  0  0  0  0
 30 33  1  0  0  0  0
 31 34  1  0  0  0  0
 31 30  1  0  0  0  0
 31 32  1  0  0  0  0
 32 36  1  0  0  0  0
 35 31  1  0  0  0  0
 37 32  1  0  0  0  0
M  END
>  <minimizedAffinity>
-5.89494419

$$$$

 OpenBabel03252505203D

 37 41  0  0  0  0  0  0  0  0999 V2000
   41.4220   30.9070   42.1020 C   0  0  0  0  0  0  0  0  0  0  0  0
   42.5890   31.0540   42.8410 C   0  0  0  0  0  0  0  0  0  0  0  0
   43.0600   29.9680   43.5790 C   0  0  0  0  0  0  0  0  0  0  0  0
   42.3380   28.7940   43.5380 C   0  0  0  0  0  0  0  0  0  0  0  0
   41.1820   28.7130   42.7810 C   0  0  0  0  0  0  0  0  0  0  0  0
   40.7270   29.7710   42.0650 N   0  0  0  0  0  0  0  0  0  0  0  0
   43.1280   31.9910   42.8490 H   0  0  0  0  0  0  0  0  0  0  0  0
   43.9710   30.0950   44.1510 H   0  0  0  0  0  0  0  0  0  0  0  0
   42.7290   27.9880   44.1140 H   0  0  0  0  0  0  0  0  0  0  0  0
   40.7100   26.3290   43.4330 C   0  0  0  0  0  3  0  0  0  0  0  0
   40.4120   27.4770   42.7300 C   0  0  0  0  0  0  0  0  0  0  0  0
   39.2850   27.3650   41.9430 C   0  0  0  0  0  0  0  0  0  0  0  0
   38.9750   28.2330   41.3490 H   0  0  0  0  0  0  0  0  0  0  0  0
   38.4860   26.2470   41.8210 C   0  0  0  0  0  0  0  0  0  0  0  0
   37.3840   25.9890   41.1150 N   0  0  0  0  0  0  0  0  0  0  0  0
   36.8900   26.6540   40.4700 H   0  0  0  0  0  0  0  0  0  0  0  0
   37.0270   24.7200   41.3830 C   0  0  0  0  0  0  0  0  0  0  0  0
   36.1530   24.2290   40.9430 H   0  0  0  0  0  0  0  0  0  0  0  0
   37.9110   24.1430   42.2810 C   0  0  0  0  0  3  0  0  0  0  0  0
   38.8360   25.1320   42.5490 C   0  0  0  0  0  0  0  0  0  0  0  0
   39.9520   25.1810   43.3540 C   0  0  0  0  0  3  0  0  0  0  0  0
   41.2680   34.1540   40.3630 C   0  0  0  0  0  0  0  0  0  0  0  0
   39.9380   34.2400   39.9520 C   0  0  0  0  0  0  0  0  0  0  0  0
   39.1250   33.1720   40.2770 C   0  0  0  0  0  0  0  0  0  0  0  0
   39.6320   32.0930   40.9720 N   0  0  0  0  0  0  0  0  0  0  0  0
   40.9450   32.0560   41.3550 C   0  0  0  0  0  0  0  0  0  0  0  0
   41.7380   33.0880   41.0420 N   0  0  0  0  0  0  0  0  0  0  0  0
   41.9030   35.0060   40.0990 H   0  0  0  0  0  0  0  0  0  0  0  0
   39.5370   35.0750   39.4110 H   0  0  0  0  0  0  0  0  0  0  0  0
   37.6720   33.1680   39.9110 C   0  0  0  0  0  0  0  0  0  0  0  0
   37.3740   32.3460   38.6570 C   0  0  0  0  0  0  0  0  0  0  0  0
   36.9000   31.9670   40.1000 C   0  0  0  0  0  0  0  0  0  0  0  0
   37.2500   34.2010   39.7790 H   0  0  0  0  0  0  0  0  0  0  0  0
   36.5550   32.6170   37.9940 H   0  0  0  0  0  0  0  0  0  0  0  0
   38.1780   31.6850   38.2530 H   0  0  0  0  0  0  0  0  0  0  0  0
   35.8160   32.0580   40.3010 H   0  0  0  0  0  0  0  0  0  0  0  0
   37.4030   31.0860   40.5410 H   0  0  0  0  0  0  0  0  0  0  0  0
  1  2  1  0  0  0  0
  2  7  1  0  0  0  0
  2  3  2  0  0  0  0
  3  8  1  0  0  0  0
  4  3  1  0  0  0  0
  4  9  1  0  0  0  0
  5  4  2  0  0  0  0
  6  1  2  0  0  0  0
  6  5  1  0  0  0  0
 11  5  1  0  0  0  0
 11 10  2  0  0  0  0
 12 11  1  0  0  0  0
 13 12  1  0  0  0  0
 14 12  2  0  0  0  0
 14 20  1  0  0  0  0
 15 17  1  0  0  0  0
 15 14  1  0  0  0  0
 16 15  1  0  0  0  0
 17 19  2  0  0  0  0
 18 17  1  0  0  0  0
 19 20  1  0  0  0  0
 20 21  2  0  0  0  0
 21 10  1  0  0  0  0
 22 27  1  0  0  0  0
 23 24  1  0  0  0  0
 23 22  2  0  0  0  0
 24 25  2  0  0  0  0
 25 26  1  0  0  0  0
 26  1  1  0  0  0  0
 27 26  2  0  0  0  0
 28 22  1  0  0  0  0
 29 23  1  0  0  0  0
 30 32  1  0  0  0  0
 30 24  1  0  0  0  0
 31 30  1  0  0  0  0
 31 32  1  0  0  0  0
 32 36  1  0  0  0  0
 32 37  1  0  0  0  0
 33 30  1  0  0  0  0
 34 31  1  0  0  0  0
 35 31  1  0  0  0  0
M  END
>  <minimizedAffinity>
-5.85006189

$$$$
