
 OpenBabel03252504483D

 27 29  0  0  0  0  0  0  0  0999 V2000
   46.8910   34.2290   40.9760 C   0  0  0  0  0  0  0  0  0  0  0  0
   47.1990   34.5810   42.2930 C   0  0  0  0  0  0  0  0  0  0  0  0
   46.1240   35.0040   43.0930 C   0  0  0  0  0  0  0  0  0  0  0  0
   44.8840   35.0360   42.5250 N   0  0  0  0  0  0  0  0  0  0  0  0
   44.6460   34.6880   41.2580 C   0  0  0  0  0  0  0  0  0  0  0  0
   45.6580   34.2830   40.4820 N   0  0  0  0  0  0  0  0  0  0  0  0
   47.7370   33.8980   40.3540 H   0  0  0  0  0  0  0  0  0  0  0  0
   46.3420   35.2780   44.1070 H   0  0  0  0  0  0  0  0  0  0  0  0
   42.3130   35.2350   41.6740 C   0  0  0  0  0  0  0  0  0  0  0  0
   43.2690   34.7710   40.7810 C   0  0  0  0  0  0  0  0  0  0  0  0
   43.0080   34.3850   39.4810 C   0  0  0  0  0  0  0  0  0  0  0  0
   43.7850   34.0290   38.8200 H   0  0  0  0  0  0  0  0  0  0  0  0
   41.6840   34.4740   39.0510 C   0  0  0  0  0  0  0  0  0  0  0  0
   41.0860   34.1870   37.8710 N   0  0  0  0  0  0  0  0  0  0  0  0
   41.6050   33.8180   37.0350 H   0  0  0  0  0  0  0  0  0  0  0  0
   39.7630   34.4490   37.9610 C   0  0  0  0  0  0  0  0  0  0  0  0
   39.0100   34.3250   37.1910 H   0  0  0  0  0  0  0  0  0  0  0  0
   39.5000   34.9120   39.2160 C   0  0  0  0  0  0  0  0  0  0  0  0
   40.6790   34.9350   39.9080 C   0  0  0  0  0  0  0  0  0  0  0  0
   41.0080   35.3110   41.2150 C   0  0  0  0  0  0  0  0  0  0  0  0
   48.5600   34.5020   42.7760 C   0  0  0  0  0  0  0  0  0  0  0  0
   48.6860   34.7020   43.8610 H   0  0  0  0  0  0  0  0  0  0  0  0
   48.9670   33.5040   42.5860 H   0  0  0  0  0  0  0  0  0  0  0  0
   49.4080   35.5060   42.0060 C   0  0  0  0  0  0  0  0  0  0  0  0
   50.4300   35.0810   41.8390 H   0  0  0  0  0  0  0  0  0  0  0  0
   49.4140   36.4760   42.5310 H   0  0  0  0  0  0  0  0  0  0  0  0
   48.9470   35.6190   40.9840 H   0  0  0  0  0  0  0  0  0  0  0  0
  1  2  1  0  0  0  0
  2 21  1  0  0  0  0
  2  3  2  0  0  0  0
  3  8  1  0  0  0  0
  4  3  1  0  0  0  0
  5  4  2  0  0  0  0
  6  1  2  0  0  0  0
  6  5  1  0  0  0  0
  7  1  1  0  0  0  0
 10  5  1  0  0  0  0
 10  9  2  0  0  0  0
 11 10  1  0  0  0  0
 12 11  1  0  0  0  0
 13 11  2  0  0  0  0
 13 19  1  0  0  0  0
 14 16  1  0  0  0  0
 14 13  1  0  0  0  0
 15 14  1  0  0  0  0
 16 18  2  0  0  0  0
 17 16  1  0  0  0  0
 18 19  1  0  0  0  0
 19 20  2  0  0  0  0
 20  9  1  0  0  0  0
 21 22  1  0  0  0  0
 23 21  1  0  0  0  0
 24 26  1  0  0  0  0
 24 21  1  0  0  0  0
 25 24  1  0  0  0  0
 27 24  1  0  0  0  0
M  END
>  <minimizedAffinity>
-5.6837759

>  <minimizedRMSD>
8.30814934

$$$$
