
 OpenBabel03242517183D

 36 39  0  0  0  0  0  0  0  0999 V2000
   38.3500   28.4540   40.2500 C   0  0  0  0  0  0  0  0  0  0  0  0
   37.1560   28.0020   40.8390 C   0  0  0  0  0  0  0  0  0  0  0  0
   36.2660   28.9600   41.2830 C   0  0  0  0  0  0  0  0  0  0  0  0
   36.6090   30.2700   41.1190 N   0  0  0  0  0  0  0  0  0  0  0  0
   37.7540   30.6750   40.5550 C   0  0  0  0  0  0  0  0  0  0  0  0
   38.6200   29.7480   40.1230 N   0  0  0  0  0  0  0  0  0  0  0  0
   39.0290   27.6980   39.9110 H   0  0  0  0  0  0  0  0  0  0  0  0
   35.3170   28.7030   41.7520 H   0  0  0  0  0  0  0  0  0  0  0  0
   37.2400   32.9590   39.7470 C   0  0  0  0  0  3  0  0  0  0  0  0
   38.0870   32.0870   40.3960 C   0  0  0  0  0  0  0  0  0  0  0  0
   39.2490   32.6040   40.8840 C   0  0  0  0  0  0  0  0  0  0  0  0
   39.9480   31.9450   41.4050 H   0  0  0  0  0  0  0  0  0  0  0  0
   39.5540   33.9410   40.7280 C   0  0  0  0  0  0  0  0  0  0  0  0
   40.6050   34.7000   41.1000 N   0  0  0  0  0  0  0  0  0  0  0  0
   41.4270   34.3580   41.6120 H   0  0  0  0  0  0  0  0  0  0  0  0
   40.4310   35.9780   40.7070 C   0  0  0  0  0  0  0  0  0  0  0  0
   41.1110   36.8130   40.8670 H   0  0  0  0  0  0  0  0  0  0  0  0
   39.2150   36.0320   40.0580 C   0  0  0  0  0  3  0  0  0  0  0  0
   38.6640   34.7680   40.0670 C   0  0  0  0  0  0  0  0  0  0  0  0
   37.4670   34.3080   39.5480 C   0  0  0  0  0  3  0  0  0  0  0  0
   36.8440   26.5880   40.9870 C   0  0  0  0  0  3  0  0  0  0  0  0
   37.2420   25.8120   41.9640 C   0  0  0  0  0  3  0  0  0  0  0  0
   36.8750   24.3650   42.0410 C   0  0  0  0  0  0  0  0  0  0  0  0
   37.1970   23.9030   42.9950 H   0  0  0  0  0  0  0  0  0  0  0  0
   35.7500   24.3680   42.0920 H   0  0  0  0  0  0  0  0  0  0  0  0
   34.9860   23.4350   40.2150 F   0  0  0  0  0  0  0  0  0  0  0  0
   36.3050   23.2080   39.9310 C   0  0  0  0  0  0  0  0  0  0  0  0
   37.2650   23.6660   40.8320 C   0  0  0  0  0  0  0  0  0  0  0  0
   38.5440   23.3720   40.4230 C   0  0  0  0  0  0  0  0  0  0  0  0
   38.9400   22.7110   39.2830 C   0  0  0  0  0  0  0  0  0  0  0  0
   37.8970   22.3010   38.4610 C   0  0  0  0  0  0  0  0  0  0  0  0
   36.5700   22.5260   38.7400 C   0  0  0  0  0  0  0  0  0  0  0  0
   39.3670   23.6920   41.0710 H   0  0  0  0  0  0  0  0  0  0  0  0
   39.9720   22.5330   39.0580 H   0  0  0  0  0  0  0  0  0  0  0  0
   38.1300   21.7750   37.5420 H   0  0  0  0  0  0  0  0  0  0  0  0
   35.7480   22.2140   38.1120 H   0  0  0  0  0  0  0  0  0  0  0  0
  1  2  1  0  0  0  0
  2 21  1  0  0  0  0
  2  3  2  0  0  0  0
  3  8  1  0  0  0  0
  4  3  1  0  0  0  0
  5  4  2  0  0  0  0
  6  1  2  0  0  0  0
  6  5  1  0  0  0  0
  7  1  1  0  0  0  0
  9 10  1  0  0  0  0
 10  5  1  0  0  0  0
 10 11  2  0  0  0  0
 11 12  1  0  0  0  0
 13 11  1  0  0  0  0
 13 14  1  0  0  0  0
 14 15  1  0  0  0  0
 16 17  1  0  0  0  0
 16 14  1  0  0  0  0
 18 19  1  0  0  0  0
 18 16  2  0  0  0  0
 19 13  2  0  0  0  0
 20  9  2  0  0  0  0
 20 19  1  0  0  0  0
 21 22  2  0  0  0  0
 22 23  1  0  0  0  0
 23 25  1  0  0  0  0
 23 24  1  0  0  0  0
 27 26  1  0  0  0  0
 27 28  1  0  0  0  0
 28 23  1  0  0  0  0
 29 28  2  0  0  0  0
 29 33  1  0  0  0  0
 30 29  1  0  0  0  0
 31 32  1  0  0  0  0
 31 30  2  0  0  0  0
 32 27  2  0  0  0  0
 34 30  1  0  0  0  0
 35 31  1  0  0  0  0
 36 32  1  0  0  0  0
M  END
>  <minimizedAffinity>
-6.48796606

$$$$

 OpenBabel03242517183D

 36 39  0  0  0  0  0  0  0  0999 V2000
   34.6070   29.2610   39.5130 C   0  0  0  0  0  0  0  0  0  0  0  0
   34.5670   28.6160   38.2650 C   0  0  0  0  0  0  0  0  0  0  0  0
   35.4590   27.5820   38.0560 C   0  0  0  0  0  0  0  0  0  0  0  0
   36.3110   27.2650   39.0740 N   0  0  0  0  0  0  0  0  0  0  0  0
   36.3290   27.8960   40.2550 C   0  0  0  0  0  0  0  0  0  0  0  0
   35.4650   28.8990   40.4600 N   0  0  0  0  0  0  0  0  0  0  0  0
   33.9080   30.0600   39.6580 H   0  0  0  0  0  0  0  0  0  0  0  0
   35.5000   27.0260   37.1220 H   0  0  0  0  0  0  0  0  0  0  0  0
   37.0430   27.9120   42.6260 C   0  0  0  0  0  3  0  0  0  0  0  0
   37.2560   27.5280   41.3200 C   0  0  0  0  0  0  0  0  0  0  0  0
   38.3720   26.7870   41.0690 C   0  0  0  0  0  0  0  0  0  0  0  0
   38.5760   26.4630   40.0460 H   0  0  0  0  0  0  0  0  0  0  0  0
   39.2420   26.4440   42.0840 C   0  0  0  0  0  0  0  0  0  0  0  0
   40.3910   25.7390   42.1190 N   0  0  0  0  0  0  0  0  0  0  0  0
   40.8390   25.3030   41.3060 H   0  0  0  0  0  0  0  0  0  0  0  0
   40.8750   25.6820   43.3770 C   0  0  0  0  0  0  0  0  0  0  0  0
   41.7830   25.1830   43.7090 H   0  0  0  0  0  0  0  0  0  0  0  0
   39.9930   26.3830   44.1750 C   0  0  0  0  0  3  0  0  0  0  0  0
   38.9750   26.8600   43.3760 C   0  0  0  0  0  0  0  0  0  0  0  0
   37.8600   27.6130   43.7010 C   0  0  0  0  0  3  0  0  0  0  0  0
   33.6330   28.9990   37.2160 C   0  0  0  0  0  3  0  0  0  0  0  0
   32.7420   28.2180   36.6590 C   0  0  0  0  0  3  0  0  0  0  0  0
   31.8180   28.6930   35.5840 C   0  0  0  0  0  0  0  0  0  0  0  0
   32.2850   28.6420   34.5810 H   0  0  0  0  0  0  0  0  0  0  0  0
   31.0030   27.9160   35.5570 H   0  0  0  0  0  0  0  0  0  0  0  0
   31.8770   30.8810   33.8590 F   0  0  0  0  0  0  0  0  0  0  0  0
   31.2530   31.0440   35.0650 C   0  0  0  0  0  0  0  0  0  0  0  0
   31.2130   29.9610   35.9420 C   0  0  0  0  0  0  0  0  0  0  0  0
   30.5580   30.2620   37.1120 C   0  0  0  0  0  0  0  0  0  0  0  0
   29.9760   31.4560   37.4760 C   0  0  0  0  0  0  0  0  0  0  0  0
   30.0780   32.4630   36.5230 C   0  0  0  0  0  0  0  0  0  0  0  0
   30.7040   32.3060   35.3100 C   0  0  0  0  0  0  0  0  0  0  0  0
   30.4780   29.4710   37.8640 H   0  0  0  0  0  0  0  0  0  0  0  0
   29.4870   31.5850   38.4190 H   0  0  0  0  0  0  0  0  0  0  0  0
   29.6430   33.4320   36.7370 H   0  0  0  0  0  0  0  0  0  0  0  0
   30.7920   33.0780   34.5580 H   0  0  0  0  0  0  0  0  0  0  0  0
  1  7  1  0  0  0  0
  1  6  1  0  0  0  0
  2  1  2  0  0  0  0
  3  2  1  0  0  0  0
  3  4  2  0  0  0  0
  4  5  1  0  0  0  0
  5  6  2  0  0  0  0
  5 10  1  0  0  0  0
  8  3  1  0  0  0  0
  9 20  1  0  0  0  0
 10  9  2  0  0  0  0
 11 10  1  0  0  0  0
 11 13  2  0  0  0  0
 12 11  1  0  0  0  0
 13 14  1  0  0  0  0
 13 19  1  0  0  0  0
 14 16  1  0  0  0  0
 15 14  1  0  0  0  0
 16 17  1  0  0  0  0
 16 18  2  0  0  0  0
 19 20  2  0  0  0  0
 19 18  1  0  0  0  0
 21  2  1  0  0  0  0
 22 21  2  0  0  0  0
 23 28  1  0  0  0  0
 23 22  1  0  0  0  0
 24 23  1  0  0  0  0
 25 23  1  0  0  0  0
 26 27  1  0  0  0  0
 27 32  2  0  0  0  0
 27 28  1  0  0  0  0
 28 29  2  0  0  0  0
 29 30  1  0  0  0  0
 29 33  1  0  0  0  0
 30 34  1  0  0  0  0
 31 35  1  0  0  0  0
 31 30  2  0  0  0  0
 32 31  1  0  0  0  0
 36 32  1  0  0  0  0
M  END
>  <minimizedAffinity>
-6.46043348

$$$$

 OpenBabel03242517183D

 36 39  0  0  0  0  0  0  0  0999 V2000
   38.4570   28.6000   40.9960 C   0  0  0  0  0  0  0  0  0  0  0  0
   37.1070   28.2330   41.1210 C   0  0  0  0  0  0  0  0  0  0  0  0
   36.1650   29.2420   41.0400 C   0  0  0  0  0  0  0  0  0  0  0  0
   36.6160   30.5150   40.8460 N   0  0  0  0  0  0  0  0  0  0  0  0
   37.9100   30.8380   40.7310 C   0  0  0  0  0  0  0  0  0  0  0  0
   38.8250   29.8630   40.8090 N   0  0  0  0  0  0  0  0  0  0  0  0
   39.1730   27.8060   41.0610 H   0  0  0  0  0  0  0  0  0  0  0  0
   35.0970   29.0520   41.1250 H   0  0  0  0  0  0  0  0  0  0  0  0
   37.5230   33.1630   39.9690 C   0  0  0  0  0  3  0  0  0  0  0  0
   38.3530   32.2130   40.5240 C   0  0  0  0  0  0  0  0  0  0  0  0
   39.6070   32.6180   40.8700 C   0  0  0  0  0  0  0  0  0  0  0  0
   40.2960   31.8940   41.3130 H   0  0  0  0  0  0  0  0  0  0  0  0
   40.0160   33.9200   40.6700 C   0  0  0  0  0  0  0  0  0  0  0  0
   41.1700   34.5760   40.9130 N   0  0  0  0  0  0  0  0  0  0  0  0
   42.0090   34.1560   41.3290 H   0  0  0  0  0  0  0  0  0  0  0  0
   41.0720   35.8660   40.5320 C   0  0  0  0  0  0  0  0  0  0  0  0
   41.8410   36.6320   40.6060 H   0  0  0  0  0  0  0  0  0  0  0  0
   39.7990   36.0360   40.0260 C   0  0  0  0  0  3  0  0  0  0  0  0
   39.1380   34.8290   40.1090 C   0  0  0  0  0  0  0  0  0  0  0  0
   37.8500   34.4860   39.7350 C   0  0  0  0  0  3  0  0  0  0  0  0
   36.6860   26.8550   41.3260 C   0  0  0  0  0  3  0  0  0  0  0  0
   37.3480   25.9420   41.9910 C   0  0  0  0  0  3  0  0  0  0  0  0
   36.8440   24.5440   42.1560 C   0  0  0  0  0  0  0  0  0  0  0  0
   37.3130   24.0310   43.0180 H   0  0  0  0  0  0  0  0  0  0  0  0
   35.7660   24.6730   42.4540 H   0  0  0  0  0  0  0  0  0  0  0  0
   39.1640   23.3070   41.2320 F   0  0  0  0  0  0  0  0  0  0  0  0
   38.0450   23.2170   40.4500 C   0  0  0  0  0  0  0  0  0  0  0  0
   36.8750   23.8290   40.8940 C   0  0  0  0  0  0  0  0  0  0  0  0
   35.8330   23.6600   40.0150 C   0  0  0  0  0  0  0  0  0  0  0  0
   35.8360   22.9880   38.8130 C   0  0  0  0  0  0  0  0  0  0  0  0
   37.0580   22.4190   38.4740 C   0  0  0  0  0  0  0  0  0  0  0  0
   38.1850   22.5050   39.2550 C   0  0  0  0  0  0  0  0  0  0  0  0
   34.8700   24.1090   40.2800 H   0  0  0  0  0  0  0  0  0  0  0  0
   34.9620   22.9160   38.2000 H   0  0  0  0  0  0  0  0  0  0  0  0
   37.1390   21.8710   37.5410 H   0  0  0  0  0  0  0  0  0  0  0  0
   39.1420   22.0690   39.0050 H   0  0  0  0  0  0  0  0  0  0  0  0
  1  7  1  0  0  0  0
  1  2  1  0  0  0  0
  2 21  1  0  0  0  0
  3  2  2  0  0  0  0
  3  8  1  0  0  0  0
  4  3  1  0  0  0  0
  5  6  1  0  0  0  0
  5  4  2  0  0  0  0
  6  1  2  0  0  0  0
  9 10  1  0  0  0  0
 10  5  1  0  0  0  0
 10 11  2  0  0  0  0
 11 12  1  0  0  0  0
 13 11  1  0  0  0  0
 13 14  1  0  0  0  0
 14 15  1  0  0  0  0
 16 17  1  0  0  0  0
 16 14  1  0  0  0  0
 18 19  1  0  0  0  0
 18 16  2  0  0  0  0
 19 13  2  0  0  0  0
 20  9  2  0  0  0  0
 20 19  1  0  0  0  0
 21 22  2  0  0  0  0
 22 23  1  0  0  0  0
 23 25  1  0  0  0  0
 23 24  1  0  0  0  0
 27 28  1  0  0  0  0
 27 26  1  0  0  0  0
 28 23  1  0  0  0  0
 29 33  1  0  0  0  0
 29 28  2  0  0  0  0
 30 29  1  0  0  0  0
 31 30  2  0  0  0  0
 31 32  1  0  0  0  0
 32 27  2  0  0  0  0
 34 30  1  0  0  0  0
 35 31  1  0  0  0  0
 36 32  1  0  0  0  0
M  END
>  <minimizedAffinity>
-6.41445446

$$$$

 OpenBabel03242517183D

 36 39  0  0  0  0  0  0  0  0999 V2000
   35.5100   27.4570   37.9170 C   0  0  0  0  0  0  0  0  0  0  0  0
   34.5140   28.4460   37.9920 C   0  0  0  0  0  0  0  0  0  0  0  0
   34.3970   29.1400   39.1810 C   0  0  0  0  0  0  0  0  0  0  0  0
   35.2540   28.8150   40.1920 N   0  0  0  0  0  0  0  0  0  0  0  0
   36.1950   27.8670   40.0950 C   0  0  0  0  0  0  0  0  0  0  0  0
   36.3110   27.1930   38.9430 N   0  0  0  0  0  0  0  0  0  0  0  0
   35.5870   26.9290   36.9880 H   0  0  0  0  0  0  0  0  0  0  0  0
   33.6550   29.9220   39.3300 H   0  0  0  0  0  0  0  0  0  0  0  0
   36.7970   27.9030   42.4970 C   0  0  0  0  0  3  0  0  0  0  0  0
   37.0940   27.5480   41.1980 C   0  0  0  0  0  0  0  0  0  0  0  0
   38.2660   26.8840   40.9940 C   0  0  0  0  0  0  0  0  0  0  0  0
   38.5370   26.5840   39.9790 H   0  0  0  0  0  0  0  0  0  0  0  0
   39.1100   26.5870   42.0450 C   0  0  0  0  0  0  0  0  0  0  0  0
   40.2990   25.9570   42.1280 N   0  0  0  0  0  0  0  0  0  0  0  0
   40.8120   25.5600   41.3320 H   0  0  0  0  0  0  0  0  0  0  0  0
   40.7280   25.9170   43.4060 C   0  0  0  0  0  0  0  0  0  0  0  0
   41.6510   25.4740   43.7750 H   0  0  0  0  0  0  0  0  0  0  0  0
   39.7670   26.5510   44.1680 C   0  0  0  0  0  3  0  0  0  0  0  0
   38.7580   26.9700   43.3270 C   0  0  0  0  0  0  0  0  0  0  0  0
   37.5830   27.6460   43.6050 C   0  0  0  0  0  3  0  0  0  0  0  0
   33.6270   28.7490   36.8780 C   0  0  0  0  0  3  0  0  0  0  0  0
   32.4150   28.2830   36.7140 C   0  0  0  0  0  3  0  0  0  0  0  0
   31.5670   28.6450   35.5360 C   0  0  0  0  0  0  0  0  0  0  0  0
   32.0450   28.3660   34.5770 H   0  0  0  0  0  0  0  0  0  0  0  0
   30.6750   27.9630   35.6180 H   0  0  0  0  0  0  0  0  0  0  0  0
   29.8420   29.4480   37.5720 F   0  0  0  0  0  0  0  0  0  0  0  0
   30.2320   30.3940   36.6640 C   0  0  0  0  0  0  0  0  0  0  0  0
   31.0940   30.0120   35.6390 C   0  0  0  0  0  0  0  0  0  0  0  0
   31.4040   31.0580   34.8020 C   0  0  0  0  0  0  0  0  0  0  0  0
   30.9690   32.3620   34.8770 C   0  0  0  0  0  0  0  0  0  0  0  0
   30.1130   32.6250   35.9400 C   0  0  0  0  0  0  0  0  0  0  0  0
   29.7180   31.6790   36.8550 C   0  0  0  0  0  0  0  0  0  0  0  0
   32.0760   30.8520   33.9630 H   0  0  0  0  0  0  0  0  0  0  0  0
   31.2730   33.1040   34.1670 H   0  0  0  0  0  0  0  0  0  0  0  0
   29.7290   33.6310   36.0650 H   0  0  0  0  0  0  0  0  0  0  0  0
   29.0530   31.8680   37.6860 H   0  0  0  0  0  0  0  0  0  0  0  0
  1  2  2  0  0  0  0
  1  6  1  0  0  0  0
  2  3  1  0  0  0  0
  3  8  1  0  0  0  0
  3  4  2  0  0  0  0
  5  4  1  0  0  0  0
  5 10  1  0  0  0  0
  6  5  2  0  0  0  0
  7  1  1  0  0  0  0
  9 20  1  0  0  0  0
 10  9  2  0  0  0  0
 11 10  1  0  0  0  0
 11 13  2  0  0  0  0
 12 11  1  0  0  0  0
 13 14  1  0  0  0  0
 13 19  1  0  0  0  0
 14 16  1  0  0  0  0
 15 14  1  0  0  0  0
 16 17  1  0  0  0  0
 16 18  2  0  0  0  0
 19 20  2  0  0  0  0
 19 18  1  0  0  0  0
 21  2  1  0  0  0  0
 22 21  2  0  0  0  0
 23 25  1  0  0  0  0
 23 28  1  0  0  0  0
 23 22  1  0  0  0  0
 24 23  1  0  0  0  0
 27 32  1  0  0  0  0
 27 26  1  0  0  0  0
 28 27  2  0  0  0  0
 29 30  2  0  0  0  0
 29 28  1  0  0  0  0
 30 31  1  0  0  0  0
 31 35  1  0  0  0  0
 31 32  2  0  0  0  0
 32 36  1  0  0  0  0
 33 29  1  0  0  0  0
 34 30  1  0  0  0  0
M  END
>  <minimizedAffinity>
-6.14414501

$$$$

 OpenBabel03242517183D

 36 39  0  0  0  0  0  0  0  0999 V2000
   34.4680   28.3640   36.0350 C   0  0  0  0  0  0  0  0  0  0  0  0
   34.3900   28.2400   37.4330 C   0  0  0  0  0  0  0  0  0  0  0  0
   33.3290   28.8590   38.0660 C   0  0  0  0  0  0  0  0  0  0  0  0
   32.4390   29.5420   37.2900 N   0  0  0  0  0  0  0  0  0  0  0  0
   32.5370   29.6450   35.9580 C   0  0  0  0  0  0  0  0  0  0  0  0
   33.5640   29.0460   35.3420 N   0  0  0  0  0  0  0  0  0  0  0  0
   35.2970   27.8780   35.5610 H   0  0  0  0  0  0  0  0  0  0  0  0
   33.1880   28.8170   39.1440 H   0  0  0  0  0  0  0  0  0  0  0  0
   30.9360   31.5100   35.6530 C   0  0  0  0  0  3  0  0  0  0  0  0
   31.5640   30.3860   35.1620 C   0  0  0  0  0  0  0  0  0  0  0  0
   31.2350   29.9990   33.8980 C   0  0  0  0  0  0  0  0  0  0  0  0
   31.7120   29.1120   33.4720 H   0  0  0  0  0  0  0  0  0  0  0  0
   30.3140   30.7060   33.1530 C   0  0  0  0  0  0  0  0  0  0  0  0
   29.8140   30.5520   31.9100 N   0  0  0  0  0  0  0  0  0  0  0  0
   30.0740   29.8010   31.2600 H   0  0  0  0  0  0  0  0  0  0  0  0
   28.9210   31.5240   31.6330 C   0  0  0  0  0  0  0  0  0  0  0  0
   28.3590   31.6550   30.7100 H   0  0  0  0  0  0  0  0  0  0  0  0
   28.8510   32.3300   32.7500 C   0  0  0  0  0  3  0  0  0  0  0  0
   29.7160   31.8270   33.7000 C   0  0  0  0  0  0  0  0  0  0  0  0
   30.0040   32.2760   34.9770 C   0  0  0  0  0  3  0  0  0  0  0  0
   35.3710   27.4960   38.2080 C   0  0  0  0  0  3  0  0  0  0  0  0
   36.1970   28.0030   39.0890 C   0  0  0  0  0  3  0  0  0  0  0  0
   37.1790   27.1650   39.8450 C   0  0  0  0  0  0  0  0  0  0  0  0
   37.0250   26.0830   39.6700 H   0  0  0  0  0  0  0  0  0  0  0  0
   38.1690   27.3940   39.3590 H   0  0  0  0  0  0  0  0  0  0  0  0
   38.8200   29.2670   40.6510 F   0  0  0  0  0  0  0  0  0  0  0  0
   38.0830   28.6360   41.6150 C   0  0  0  0  0  0  0  0  0  0  0  0
   37.2560   27.5820   41.2320 C   0  0  0  0  0  0  0  0  0  0  0  0
   36.5760   27.0410   42.2960 C   0  0  0  0  0  0  0  0  0  0  0  0
   36.6320   27.4170   43.6200 C   0  0  0  0  0  0  0  0  0  0  0  0
   37.4900   28.4780   43.8820 C   0  0  0  0  0  0  0  0  0  0  0  0
   38.2330   29.1170   42.9190 C   0  0  0  0  0  0  0  0  0  0  0  0
   35.9010   26.2040   42.0910 H   0  0  0  0  0  0  0  0  0  0  0  0
   36.0560   26.9240   44.3760 H   0  0  0  0  0  0  0  0  0  0  0  0
   37.5870   28.8330   44.9020 H   0  0  0  0  0  0  0  0  0  0  0  0
   38.9050   29.9430   43.1060 H   0  0  0  0  0  0  0  0  0  0  0  0
  1  2  1  0  0  0  0
  2  3  2  0  0  0  0
  2 21  1  0  0  0  0
  3  8  1  0  0  0  0
  4  3  1  0  0  0  0
  5  4  2  0  0  0  0
  6  5  1  0  0  0  0
  6  1  2  0  0  0  0
  7  1  1  0  0  0  0
 10  9  1  0  0  0  0
 10  5  1  0  0  0  0
 11 10  2  0  0  0  0
 12 11  1  0  0  0  0
 13 19  2  0  0  0  0
 13 11  1  0  0  0  0
 14 13  1  0  0  0  0
 15 14  1  0  0  0  0
 16 14  1  0  0  0  0
 16 18  2  0  0  0  0
 17 16  1  0  0  0  0
 18 19  1  0  0  0  0
 19 20  1  0  0  0  0
 20  9  2  0  0  0  0
 21 22  2  0  0  0  0
 22 23  1  0  0  0  0
 23 28  1  0  0  0  0
 24 23  1  0  0  0  0
 25 23  1  0  0  0  0
 26 27  1  0  0  0  0
 27 32  1  0  0  0  0
 28 27  2  0  0  0  0
 28 29  1  0  0  0  0
 29 30  2  0  0  0  0
 30 31  1  0  0  0  0
 30 34  1  0  0  0  0
 31 35  1  0  0  0  0
 32 36  1  0  0  0  0
 32 31  2  0  0  0  0
 33 29  1  0  0  0  0
M  END
>  <minimizedAffinity>
-5.88097525

$$$$

 OpenBabel03242517183D

 36 39  0  0  0  0  0  0  0  0999 V2000
   36.7810   28.4070   39.2630 C   0  0  0  0  0  0  0  0  0  0  0  0
   36.8830   28.9620   40.5500 C   0  0  0  0  0  0  0  0  0  0  0  0
   36.9470   28.0850   41.6160 C   0  0  0  0  0  0  0  0  0  0  0  0
   36.9050   26.7490   41.3410 N   0  0  0  0  0  0  0  0  0  0  0  0
   36.8070   26.2450   40.1050 C   0  0  0  0  0  0  0  0  0  0  0  0
   36.7460   27.0930   39.0690 N   0  0  0  0  0  0  0  0  0  0  0  0
   36.7330   29.1000   38.4490 H   0  0  0  0  0  0  0  0  0  0  0  0
   37.0270   28.4240   42.6470 H   0  0  0  0  0  0  0  0  0  0  0  0
   35.8420   24.2550   38.9900 C   0  0  0  0  0  3  0  0  0  0  0  0
   36.7650   24.8090   39.8500 C   0  0  0  0  0  0  0  0  0  0  0  0
   37.6380   23.9530   40.4520 C   0  0  0  0  0  0  0  0  0  0  0  0
   38.3850   24.3530   41.1410 H   0  0  0  0  0  0  0  0  0  0  0  0
   37.5900   22.5960   40.2040 C   0  0  0  0  0  0  0  0  0  0  0  0
   38.3110   21.5480   40.6510 N   0  0  0  0  0  0  0  0  0  0  0  0
   39.0910   21.6100   41.3150 H   0  0  0  0  0  0  0  0  0  0  0  0
   37.8680   20.3980   40.1020 C   0  0  0  0  0  0  0  0  0  0  0  0
   38.2560   19.3960   40.2750 H   0  0  0  0  0  0  0  0  0  0  0  0
   36.8180   20.7330   39.2710 C   0  0  0  0  0  3  0  0  0  0  0  0
   36.6400   22.0990   39.3310 C   0  0  0  0  0  0  0  0  0  0  0  0
   35.7240   22.9120   38.6850 C   0  0  0  0  0  3  0  0  0  0  0  0
   36.9240   30.3980   40.7810 C   0  0  0  0  0  3  0  0  0  0  0  0
   37.5200   31.2810   40.0200 C   0  0  0  0  0  3  0  0  0  0  0  0
   37.5140   32.7440   40.3300 C   0  0  0  0  0  0  0  0  0  0  0  0
   36.8060   33.3040   39.6880 H   0  0  0  0  0  0  0  0  0  0  0  0
   37.0700   32.8050   41.3640 H   0  0  0  0  0  0  0  0  0  0  0  0
   38.0720   35.4250   39.8140 F   0  0  0  0  0  0  0  0  0  0  0  0
   39.1240   34.6100   40.1330 C   0  0  0  0  0  0  0  0  0  0  0  0
   38.8650   33.2660   40.3940 C   0  0  0  0  0  0  0  0  0  0  0  0
   40.0080   32.5660   40.6990 C   0  0  0  0  0  0  0  0  0  0  0  0
   41.3000   33.0370   40.7660 C   0  0  0  0  0  0  0  0  0  0  0  0
   41.4360   34.3920   40.4860 C   0  0  0  0  0  0  0  0  0  0  0  0
   40.3830   35.2160   40.1660 C   0  0  0  0  0  0  0  0  0  0  0  0
   39.9030   31.4990   40.9180 H   0  0  0  0  0  0  0  0  0  0  0  0
   42.1250   32.4020   41.0150 H   0  0  0  0  0  0  0  0  0  0  0  0
   42.4240   34.8370   40.5200 H   0  0  0  0  0  0  0  0  0  0  0  0
   40.4720   36.2700   39.9460 H   0  0  0  0  0  0  0  0  0  0  0  0
  1  2  1  0  0  0  0
  2 21  1  0  0  0  0
  2  3  2  0  0  0  0
  3  8  1  0  0  0  0
  4  3  1  0  0  0  0
  5  4  2  0  0  0  0
  6  1  2  0  0  0  0
  6  5  1  0  0  0  0
  7  1  1  0  0  0  0
  9 10  1  0  0  0  0
 10  5  1  0  0  0  0
 10 11  2  0  0  0  0
 11 12  1  0  0  0  0
 13 11  1  0  0  0  0
 13 14  1  0  0  0  0
 14 15  1  0  0  0  0
 16 17  1  0  0  0  0
 16 14  1  0  0  0  0
 18 19  1  0  0  0  0
 18 16  2  0  0  0  0
 19 13  2  0  0  0  0
 20  9  2  0  0  0  0
 20 19  1  0  0  0  0
 22 23  1  0  0  0  0
 22 21  2  0  0  0  0
 23 28  1  0  0  0  0
 23 25  1  0  0  0  0
 24 23  1  0  0  0  0
 26 27  1  0  0  0  0
 27 32  2  0  0  0  0
 27 28  1  0  0  0  0
 28 29  2  0  0  0  0
 29 30  1  0  0  0  0
 29 33  1  0  0  0  0
 30 34  1  0  0  0  0
 31 35  1  0  0  0  0
 31 30  2  0  0  0  0
 32 31  1  0  0  0  0
 36 32  1  0  0  0  0
M  END
>  <minimizedAffinity>
-5.71028471

$$$$

 OpenBabel03242517183D

 36 39  0  0  0  0  0  0  0  0999 V2000
   36.7190   30.7680   39.2880 C   0  0  0  0  0  0  0  0  0  0  0  0
   36.7770   30.2240   37.9940 C   0  0  0  0  0  0  0  0  0  0  0  0
   37.9490   30.4030   37.2830 C   0  0  0  0  0  0  0  0  0  0  0  0
   38.9590   31.0910   37.8880 N   0  0  0  0  0  0  0  0  0  0  0  0
   38.8780   31.6000   39.1240 C   0  0  0  0  0  0  0  0  0  0  0  0
   37.7430   31.4280   39.8160 N   0  0  0  0  0  0  0  0  0  0  0  0
   35.8040   30.6210   39.8250 H   0  0  0  0  0  0  0  0  0  0  0  0
   38.0830   30.0170   36.2740 H   0  0  0  0  0  0  0  0  0  0  0  0
   41.2040   31.7350   39.9650 C   0  0  0  0  0  3  0  0  0  0  0  0
   39.9810   32.3310   39.7390 C   0  0  0  0  0  0  0  0  0  0  0  0
   39.8520   33.6340   40.1150 C   0  0  0  0  0  0  0  0  0  0  0  0
   38.8980   34.1420   39.9510 H   0  0  0  0  0  0  0  0  0  0  0  0
   40.9020   34.3160   40.6950 C   0  0  0  0  0  0  0  0  0  0  0  0
   41.0470   35.5760   41.1520 N   0  0  0  0  0  0  0  0  0  0  0  0
   40.3160   36.2970   41.1330 H   0  0  0  0  0  0  0  0  0  0  0  0
   42.2900   35.7650   41.6380 C   0  0  0  0  0  0  0  0  0  0  0  0
   42.6940   36.6780   42.0720 H   0  0  0  0  0  0  0  0  0  0  0  0
   42.9630   34.5710   41.4840 C   0  0  0  0  0  3  0  0  0  0  0  0
   42.1050   33.6650   40.8970 C   0  0  0  0  0  0  0  0  0  0  0  0
   42.3050   32.3430   40.5390 C   0  0  0  0  0  3  0  0  0  0  0  0
   35.6640   29.4980   37.4000 C   0  0  0  0  0  3  0  0  0  0  0  0
   34.6430   28.9960   38.0480 C   0  0  0  0  0  3  0  0  0  0  0  0
   33.5380   28.2600   37.3590 C   0  0  0  0  0  0  0  0  0  0  0  0
   33.9170   27.4280   36.7340 H   0  0  0  0  0  0  0  0  0  0  0  0
   32.9790   27.7550   38.1970 H   0  0  0  0  0  0  0  0  0  0  0  0
   33.7640   28.8720   34.6500 F   0  0  0  0  0  0  0  0  0  0  0  0
   32.7570   29.4760   35.3520 C   0  0  0  0  0  0  0  0  0  0  0  0
   32.6280   29.1830   36.7080 C   0  0  0  0  0  0  0  0  0  0  0  0
   31.5790   29.8550   37.2880 C   0  0  0  0  0  0  0  0  0  0  0  0
   30.7020   30.7340   36.6940 C   0  0  0  0  0  0  0  0  0  0  0  0
   30.9290   30.9490   35.3390 C   0  0  0  0  0  0  0  0  0  0  0  0
   31.9380   30.3460   34.6290 C   0  0  0  0  0  0  0  0  0  0  0  0
   31.4000   29.6880   38.3550 H   0  0  0  0  0  0  0  0  0  0  0  0
   29.9130   31.2080   37.2420 H   0  0  0  0  0  0  0  0  0  0  0  0
   30.2770   31.6290   34.8010 H   0  0  0  0  0  0  0  0  0  0  0  0
   32.1270   30.5030   33.5760 H   0  0  0  0  0  0  0  0  0  0  0  0
  1  6  1  0  0  0  0
  1  7  1  0  0  0  0
  2  1  2  0  0  0  0
  3  4  2  0  0  0  0
  3  2  1  0  0  0  0
  4  5  1  0  0  0  0
  5 10  1  0  0  0  0
  5  6  2  0  0  0  0
  8  3  1  0  0  0  0
  9 20  1  0  0  0  0
 10  9  2  0  0  0  0
 10 11  1  0  0  0  0
 11 13  2  0  0  0  0
 12 11  1  0  0  0  0
 13 19  1  0  0  0  0
 13 14  1  0  0  0  0
 14 16  1  0  0  0  0
 15 14  1  0  0  0  0
 16 17  1  0  0  0  0
 18 16  2  0  0  0  0
 19 18  1  0  0  0  0
 20 19  2  0  0  0  0
 21  2  1  0  0  0  0
 21 22  2  0  0  0  0
 23 22  1  0  0  0  0
 23 25  1  0  0  0  0
 24 23  1  0  0  0  0
 26 27  1  0  0  0  0
 27 28  1  0  0  0  0
 28 29  2  0  0  0  0
 28 23  1  0  0  0  0
 29 33  1  0  0  0  0
 30 34  1  0  0  0  0
 30 29  1  0  0  0  0
 31 30  2  0  0  0  0
 32 31  1  0  0  0  0
 32 27  2  0  0  0  0
 35 31  1  0  0  0  0
 36 32  1  0  0  0  0
M  END
>  <minimizedAffinity>
-5.68813562

$$$$

 OpenBabel03242517183D

 36 39  0  0  0  0  0  0  0  0999 V2000
   38.7210   30.8650   39.7030 C   0  0  0  0  0  0  0  0  0  0  0  0
   39.1320   31.5700   40.8470 C   0  0  0  0  0  0  0  0  0  0  0  0
   39.0680   30.9070   42.0580 C   0  0  0  0  0  0  0  0  0  0  0  0
   38.6130   29.6210   42.0530 N   0  0  0  0  0  0  0  0  0  0  0  0
   38.2270   28.9710   40.9470 C   0  0  0  0  0  0  0  0  0  0  0  0
   38.2880   29.6110   39.7720 N   0  0  0  0  0  0  0  0  0  0  0  0
   38.7770   31.3930   38.7730 H   0  0  0  0  0  0  0  0  0  0  0  0
   39.3650   31.3740   42.9950 H   0  0  0  0  0  0  0  0  0  0  0  0
   37.7730   26.8490   42.1420 C   0  0  0  0  0  3  0  0  0  0  0  0
   37.7460   27.5940   40.9820 C   0  0  0  0  0  0  0  0  0  0  0  0
   37.2480   26.9840   39.8700 C   0  0  0  0  0  0  0  0  0  0  0  0
   37.2090   27.5410   38.9310 H   0  0  0  0  0  0  0  0  0  0  0  0
   36.7950   25.6810   39.9140 C   0  0  0  0  0  0  0  0  0  0  0  0
   36.2670   24.8530   38.9900 N   0  0  0  0  0  0  0  0  0  0  0  0
   36.1050   25.0960   38.0060 H   0  0  0  0  0  0  0  0  0  0  0  0
   35.9780   23.6540   39.5370 C   0  0  0  0  0  0  0  0  0  0  0  0
   35.5440   22.7920   39.0340 H   0  0  0  0  0  0  0  0  0  0  0  0
   36.3390   23.7260   40.8660 C   0  0  0  0  0  3  0  0  0  0  0  0
   36.8480   24.9840   41.1080 C   0  0  0  0  0  0  0  0  0  0  0  0
   37.3410   25.5420   42.2740 C   0  0  0  0  0  3  0  0  0  0  0  0
   39.6090   32.9440   40.7890 C   0  0  0  0  0  3  0  0  0  0  0  0
   40.0010   33.5750   39.7110 C   0  0  0  0  0  3  0  0  0  0  0  0
   40.4790   34.9920   39.7390 C   0  0  0  0  0  0  0  0  0  0  0  0
   40.5220   35.4380   38.7260 H   0  0  0  0  0  0  0  0  0  0  0  0
   39.6530   35.5510   40.2620 H   0  0  0  0  0  0  0  0  0  0  0  0
   42.8110   33.6000   39.1120 F   0  0  0  0  0  0  0  0  0  0  0  0
   42.8370   34.4140   40.2110 C   0  0  0  0  0  0  0  0  0  0  0  0
   41.6810   35.1180   40.5420 C   0  0  0  0  0  0  0  0  0  0  0  0
   41.8470   35.8940   41.6640 C   0  0  0  0  0  0  0  0  0  0  0  0
   42.9740   36.0310   42.4420 C   0  0  0  0  0  0  0  0  0  0  0  0
   44.0640   35.2810   42.0170 C   0  0  0  0  0  0  0  0  0  0  0  0
   44.0450   34.4620   40.9130 C   0  0  0  0  0  0  0  0  0  0  0  0
   40.9880   36.4840   42.0010 H   0  0  0  0  0  0  0  0  0  0  0  0
   42.9970   36.6670   43.3030 H   0  0  0  0  0  0  0  0  0  0  0  0
   44.9900   35.3370   42.5780 H   0  0  0  0  0  0  0  0  0  0  0  0
   44.8830   33.8730   40.5690 H   0  0  0  0  0  0  0  0  0  0  0  0
  1  6  2  0  0  0  0
  1  2  1  0  0  0  0
  2  3  2  0  0  0  0
  3  8  1  0  0  0  0
  4  3  1  0  0  0  0
  5 10  1  0  0  0  0
  5  4  2  0  0  0  0
  6  5  1  0  0  0  0
  7  1  1  0  0  0  0
  9 20  1  0  0  0  0
 10  9  2  0  0  0  0
 11 13  2  0  0  0  0
 11 10  1  0  0  0  0
 12 11  1  0  0  0  0
 13 19  1  0  0  0  0
 14 16  1  0  0  0  0
 14 13  1  0  0  0  0
 15 14  1  0  0  0  0
 16 18  2  0  0  0  0
 17 16  1  0  0  0  0
 18 19  1  0  0  0  0
 19 20  2  0  0  0  0
 21  2  1  0  0  0  0
 22 23  1  0  0  0  0
 22 21  2  0  0  0  0
 23 25  1  0  0  0  0
 23 28  1  0  0  0  0
 24 23  1  0  0  0  0
 26 27  1  0  0  0  0
 27 28  2  0  0  0  0
 27 32  1  0  0  0  0
 28 29  1  0  0  0  0
 29 33  1  0  0  0  0
 29 30  2  0  0  0  0
 30 34  1  0  0  0  0
 31 30  1  0  0  0  0
 31 35  1  0  0  0  0
 32 31  2  0  0  0  0
 36 32  1  0  0  0  0
M  END
>  <minimizedAffinity>
-5.63219976

$$$$

 OpenBabel03242517183D

 36 39  0  0  0  0  0  0  0  0999 V2000
   37.6380   29.6380   39.4680 C   0  0  0  0  0  0  0  0  0  0  0  0
   37.8260   30.3850   40.6440 C   0  0  0  0  0  0  0  0  0  0  0  0
   38.0060   29.6820   41.8200 C   0  0  0  0  0  0  0  0  0  0  0  0
   37.9890   28.3200   41.7530 N   0  0  0  0  0  0  0  0  0  0  0  0
   37.8080   27.6310   40.6180 C   0  0  0  0  0  0  0  0  0  0  0  0
   37.6330   28.3100   39.4770 N   0  0  0  0  0  0  0  0  0  0  0  0
   37.5000   30.1990   38.5660 H   0  0  0  0  0  0  0  0  0  0  0  0
   38.1580   30.1760   42.7780 H   0  0  0  0  0  0  0  0  0  0  0  0
   37.0880   25.4370   41.5120 C   0  0  0  0  0  3  0  0  0  0  0  0
   37.7960   26.1730   40.5870 C   0  0  0  0  0  0  0  0  0  0  0  0
   38.4840   25.4740   39.6400 C   0  0  0  0  0  0  0  0  0  0  0  0
   39.0570   26.0220   38.8880 H   0  0  0  0  0  0  0  0  0  0  0  0
   38.4650   24.0950   39.6190 C   0  0  0  0  0  0  0  0  0  0  0  0
   39.0390   23.1740   38.8190 N   0  0  0  0  0  0  0  0  0  0  0  0
   39.6430   23.3860   38.0160 H   0  0  0  0  0  0  0  0  0  0  0  0
   38.7110   21.9270   39.2170 C   0  0  0  0  0  0  0  0  0  0  0  0
   39.0260   20.9890   38.7640 H   0  0  0  0  0  0  0  0  0  0  0  0
   37.8930   22.0650   40.3190 C   0  0  0  0  0  3  0  0  0  0  0  0
   37.7360   23.4110   40.5750 C   0  0  0  0  0  0  0  0  0  0  0  0
   37.0150   24.0570   41.5640 C   0  0  0  0  0  3  0  0  0  0  0  0
   37.8350   31.8400   40.6530 C   0  0  0  0  0  3  0  0  0  0  0  0
   37.6910   32.6150   39.6070 C   0  0  0  0  0  3  0  0  0  0  0  0
   37.7130   34.1070   39.7030 C   0  0  0  0  0  0  0  0  0  0  0  0
   37.2320   34.5880   38.8300 H   0  0  0  0  0  0  0  0  0  0  0  0
   37.0290   34.3380   40.5680 H   0  0  0  0  0  0  0  0  0  0  0  0
   39.9990   33.0680   38.4960 F   0  0  0  0  0  0  0  0  0  0  0  0
   40.1700   34.0540   39.4290 C   0  0  0  0  0  0  0  0  0  0  0  0
   39.0390   34.5860   40.0440 C   0  0  0  0  0  0  0  0  0  0  0  0
   39.3540   35.5640   40.9570 C   0  0  0  0  0  0  0  0  0  0  0  0
   40.6010   36.0360   41.2990 C   0  0  0  0  0  0  0  0  0  0  0  0
   41.6530   35.4300   40.6210 C   0  0  0  0  0  0  0  0  0  0  0  0
   41.4890   34.4410   39.6830 C   0  0  0  0  0  0  0  0  0  0  0  0
   38.5270   36.0400   41.4930 H   0  0  0  0  0  0  0  0  0  0  0  0
   40.7370   36.8070   42.0290 H   0  0  0  0  0  0  0  0  0  0  0  0
   42.6670   35.7500   40.8360 H   0  0  0  0  0  0  0  0  0  0  0  0
   42.2960   33.9600   39.1470 H   0  0  0  0  0  0  0  0  0  0  0  0
  1  6  2  0  0  0  0
  1  2  1  0  0  0  0
  2 21  1  0  0  0  0
  2  3  2  0  0  0  0
  3  8  1  0  0  0  0
  4  3  1  0  0  0  0
  5  4  2  0  0  0  0
  6  5  1  0  0  0  0
  7  1  1  0  0  0  0
  9 20  1  0  0  0  0
 10  5  1  0  0  0  0
 10  9  2  0  0  0  0
 11 10  1  0  0  0  0
 12 11  1  0  0  0  0
 13 11  2  0  0  0  0
 13 19  1  0  0  0  0
 14 16  1  0  0  0  0
 14 13  1  0  0  0  0
 15 14  1  0  0  0  0
 16 18  2  0  0  0  0
 17 16  1  0  0  0  0
 18 19  1  0  0  0  0
 19 20  2  0  0  0  0
 22 23  1  0  0  0  0
 22 21  2  0  0  0  0
 23 28  1  0  0  0  0
 23 25  1  0  0  0  0
 24 23  1  0  0  0  0
 26 27  1  0  0  0  0
 27 32  2  0  0  0  0
 27 28  1  0  0  0  0
 28 29  2  0  0  0  0
 29 30  1  0  0  0  0
 29 33  1  0  0  0  0
 30 34  1  0  0  0  0
 31 35  1  0  0  0  0
 31 30  2  0  0  0  0
 32 31  1  0  0  0  0
 36 32  1  0  0  0  0
M  END
>  <minimizedAffinity>
-5.62370396

$$$$
