
 OpenBabel03252508593D

 48 51  0  0  1  0  0  0  0  0999 V2000
   46.6900   34.5150   43.5450 N   0  0  0  0  0  0  0  0  0  0  0  0
   46.1890   35.5310   42.6900 C   0  0  0  0  0  0  0  0  0  0  0  0
   44.6900   35.7060   42.7070 C   0  0  0  0  0  0  0  0  0  0  0  0
   44.0400   35.4070   44.0320 C   0  0  0  0  0  0  0  0  0  0  0  0
   45.0680   35.1160   45.0990 C   0  0  0  0  0  0  0  0  0  0  0  0
   45.8810   33.9140   44.4940 C   0  0  2  0  0  0  0  0  0  0  0  0
   46.6130   36.4940   43.0710 H   0  0  0  0  0  0  0  0  0  0  0  0
   46.4900   35.4660   41.6430 H   0  0  0  0  0  0  0  0  0  0  0  0
   44.4550   36.7890   42.4880 H   0  0  0  0  0  0  0  0  0  0  0  0
   44.2120   35.1390   41.8790 H   0  0  0  0  0  0  0  0  0  0  0  0
   43.3120   36.1480   44.3680 H   0  0  0  0  0  0  0  0  0  0  0  0
   43.4600   34.4590   43.8920 H   0  0  0  0  0  0  0  0  0  0  0  0
   45.7490   35.9470   45.2940 H   0  0  0  0  0  0  0  0  0  0  0  0
   44.5660   34.6890   45.9850 H   0  0  0  0  0  0  0  0  0  0  0  0
   45.1300   33.1660   44.1630 H   0  0  0  0  0  0  0  0  0  0  0  0
   47.7800   33.7660   42.9920 C   0  0  0  0  0  0  0  0  0  0  0  0
   48.4660   34.4640   42.4790 H   0  0  0  0  0  0  0  0  0  0  0  0
   48.3290   33.2870   43.8360 H   0  0  0  0  0  0  0  0  0  0  0  0
   47.2320   32.6840   42.1190 C   0  0  0  0  0  0  0  0  0  0  0  0
   47.4390   31.6650   42.4810 H   0  0  0  0  0  0  0  0  0  0  0  0
   46.1210   32.7840   42.0190 H   0  0  0  0  0  0  0  0  0  0  0  0
   49.0690   31.9810   38.9140 C   0  0  0  0  0  0  0  0  0  0  0  0
   48.5480   31.8450   40.2150 C   0  0  0  0  0  0  0  0  0  0  0  0
   47.7730   32.8470   40.7440 C   0  0  0  0  0  0  0  0  0  0  0  0
   47.5460   33.9270   39.9820 N   0  0  0  0  0  0  0  0  0  0  0  0
   48.0460   34.0560   38.7370 C   0  0  0  0  0  0  0  0  0  0  0  0
   48.8040   33.0960   38.1940 N   0  0  0  0  0  0  0  0  0  0  0  0
   49.6750   31.2030   38.4930 H   0  0  0  0  0  0  0  0  0  0  0  0
   48.7630   30.9490   40.7870 H   0  0  0  0  0  0  0  0  0  0  0  0
   47.8110   34.9630   38.1920 H   0  0  0  0  0  0  0  0  0  0  0  0
   46.6070   33.4820   45.5950 O   0  0  0  0  0  0  0  0  0  0  0  0
   45.6500   31.1080   44.8730 O   0  0  0  0  0  0  0  0  0  0  0  0
   46.2350   31.9070   46.0460 P   0  0  2  0  0  0  0  0  0  0  0  0
   44.9480   32.0260   47.1690 O   0  0  0  0  0  0  0  0  0  0  0  0
   44.4180   31.2110   47.1290 H   0  0  0  0  0  0  0  0  0  0  0  0
   47.5020   31.1310   46.7870 O   0  0  0  0  0  0  0  0  0  0  0  0
   46.7240   28.9800   47.3390 C   0  0  0  0  0  3  0  0  0  0  0  0
   47.7420   29.7860   46.8340 C   0  0  0  0  0  0  0  0  0  0  0  0
   48.8980   29.1340   46.4310 C   0  0  0  0  0  0  0  0  0  0  0  0
   49.6890   29.7620   46.0390 H   0  0  0  0  0  0  0  0  0  0  0  0
   49.0640   27.7800   46.5090 C   0  0  0  0  0  0  0  0  0  0  0  0
   50.0710   26.9640   46.1860 N   0  0  0  0  0  0  0  0  0  0  0  0
   50.9940   27.2240   45.7790 H   0  0  0  0  0  0  0  0  0  0  0  0
   49.7050   25.7060   46.4710 C   0  0  0  0  0  0  0  0  0  0  0  0
   50.3260   24.8310   46.3110 H   0  0  0  0  0  0  0  0  0  0  0  0
   48.4290   25.6630   46.9990 C   0  0  0  0  0  3  0  0  0  0  0  0
   48.0450   26.9940   47.0120 C   0  0  0  0  0  0  0  0  0  0  0  0
   46.8760   27.6210   47.4240 C   0  0  0  0  0  3  0  0  0  0  0  0
  1  6  1  0  0  0  0
  2  3  1  0  0  0  0
  2  7  1  0  0  0  0
  2  1  1  0  0  0  0
  3  4  1  0  0  0  0
  4 11  1  0  0  0  0
  4  5  1  0  0  0  0
  5 13  1  0  0  0  0
  5 14  1  0  0  0  0
  6 15  1  6  0  0  0
  6  5  1  0  0  0  0
  6 31  1  0  0  0  0
  8  2  1  0  0  0  0
  9  3  1  0  0  0  0
 10  3  1  0  0  0  0
 12  4  1  0  0  0  0
 16  1  1  0  0  0  0
 16 18  1  0  0  0  0
 17 16  1  0  0  0  0
 19 20  1  0  0  0  0
 19 16  1  0  0  0  0
 21 19  1  0  0  0  0
 22 23  1  0  0  0  0
 23 24  2  0  0  0  0
 23 29  1  0  0  0  0
 24 19  1  0  0  0  0
 25 24  1  0  0  0  0
 26 25  2  0  0  0  0
 27 26  1  0  0  0  0
 27 22  2  0  0  0  0
 28 22  1  0  0  0  0
 30 26  1  0  0  0  0
 31 33  1  0  0  0  0
 33 32  2  6  0  0  0
 33 36  1  0  0  0  0
 33 34  1  0  0  0  0
 35 34  1  0  0  0  0
 36 38  1  0  0  0  0
 37 48  1  0  0  0  0
 38 37  2  0  0  0  0
 39 41  2  0  0  0  0
 39 38  1  0  0  0  0
 40 39  1  0  0  0  0
 41 47  1  0  0  0  0
 42 44  1  0  0  0  0
 42 41  1  0  0  0  0
 43 42  1  0  0  0  0
 44 46  2  0  0  0  0
 45 44  1  0  0  0  0
 46 47  1  0  0  0  0
 47 48  2  0  0  0  0
M  END
>  <minimizedAffinity>
-4.35441399

>  <minimizedRMSD>
1.45505857

$$$$
