
 OpenBabel03252508593D

 48 51  0  0  1  0  0  0  0  0999 V2000
   46.9440   34.3200   43.5420 N   0  0  0  0  0  0  0  0  0  0  0  0
   46.4940   35.4090   42.7510 C   0  0  0  0  0  0  0  0  0  0  0  0
   45.0040   35.6420   42.7650 C   0  0  0  0  0  0  0  0  0  0  0  0
   44.3260   35.2850   44.0610 C   0  0  0  0  0  0  0  0  0  0  0  0
   45.3290   34.8840   45.1160 C   0  0  0  0  0  0  0  0  0  0  0  0
   46.1000   33.6910   44.4420 C   0  0  2  0  0  0  0  0  0  0  0  0
   46.9510   36.3280   43.1980 H   0  0  0  0  0  0  0  0  0  0  0  0
   46.8060   35.4000   41.7040 H   0  0  0  0  0  0  0  0  0  0  0  0
   44.8140   36.7460   42.6140 H   0  0  0  0  0  0  0  0  0  0  0  0
   44.5140   35.1510   41.8960 H   0  0  0  0  0  0  0  0  0  0  0  0
   43.6230   36.0300   44.4380 H   0  0  0  0  0  0  0  0  0  0  0  0
   43.7110   34.3710   43.8530 H   0  0  0  0  0  0  0  0  0  0  0  0
   46.0390   35.6720   45.3720 H   0  0  0  0  0  0  0  0  0  0  0  0
   44.7990   34.4210   45.9670 H   0  0  0  0  0  0  0  0  0  0  0  0
   45.3250   32.9980   44.0560 H   0  0  0  0  0  0  0  0  0  0  0  0
   48.0110   33.5660   42.9520 C   0  0  0  0  0  0  0  0  0  0  0  0
   48.6970   34.2630   42.4370 H   0  0  0  0  0  0  0  0  0  0  0  0
   48.5710   33.0620   43.7750 H   0  0  0  0  0  0  0  0  0  0  0  0
   47.4280   32.5090   42.0710 C   0  0  0  0  0  0  0  0  0  0  0  0
   47.6510   31.4800   42.3940 H   0  0  0  0  0  0  0  0  0  0  0  0
   46.3140   32.6090   42.0210 H   0  0  0  0  0  0  0  0  0  0  0  0
   49.3820   32.0830   38.8870 C   0  0  0  0  0  0  0  0  0  0  0  0
   48.9120   31.9040   40.2020 C   0  0  0  0  0  0  0  0  0  0  0  0
   47.9110   32.7140   40.6800 C   0  0  0  0  0  0  0  0  0  0  0  0
   47.4210   33.6510   39.8570 N   0  0  0  0  0  0  0  0  0  0  0  0
   47.8720   33.8210   38.5980 C   0  0  0  0  0  0  0  0  0  0  0  0
   48.8470   33.0480   38.1040 N   0  0  0  0  0  0  0  0  0  0  0  0
   50.1630   31.4550   38.5050 H   0  0  0  0  0  0  0  0  0  0  0  0
   49.3450   31.1300   40.8250 H   0  0  0  0  0  0  0  0  0  0  0  0
   47.4180   34.6040   38.0010 H   0  0  0  0  0  0  0  0  0  0  0  0
   46.7950   33.1610   45.5190 O   0  0  0  0  0  0  0  0  0  0  0  0
   45.4790   30.9410   44.8750 O   0  0  0  0  0  0  0  0  0  0  0  0
   46.1880   31.6770   46.0210 P   0  0  2  0  0  0  0  0  0  0  0  0
   44.9420   32.0290   47.1410 O   0  0  0  0  0  0  0  0  0  0  0  0
   44.2920   31.3050   47.1290 H   0  0  0  0  0  0  0  0  0  0  0  0
   47.3250   30.7380   46.7840 O   0  0  0  0  0  0  0  0  0  0  0  0
   45.9500   28.8770   47.2170 C   0  0  0  0  0  3  0  0  0  0  0  0
   47.2310   29.4120   47.1030 C   0  0  0  0  0  0  0  0  0  0  0  0
   48.2830   28.5360   47.3260 C   0  0  0  0  0  0  0  0  0  0  0  0
   49.2790   28.9520   47.2380 H   0  0  0  0  0  0  0  0  0  0  0  0
   48.1100   27.2180   47.6420 C   0  0  0  0  0  0  0  0  0  0  0  0
   48.9630   26.2200   47.8930 N   0  0  0  0  0  0  0  0  0  0  0  0
   50.0040   26.2580   47.8950 H   0  0  0  0  0  0  0  0  0  0  0  0
   48.2540   25.1120   48.1510 C   0  0  0  0  0  0  0  0  0  0  0  0
   48.6830   24.1450   48.3900 H   0  0  0  0  0  0  0  0  0  0  0  0
   46.8960   25.3580   48.0770 C   0  0  0  0  0  3  0  0  0  0  0  0
   46.8330   26.7030   47.7520 C   0  0  0  0  0  0  0  0  0  0  0  0
   45.7610   27.5580   47.5330 C   0  0  0  0  0  3  0  0  0  0  0  0
  1  6  1  0  0  0  0
  2  3  1  0  0  0  0
  2  7  1  0  0  0  0
  2  1  1  0  0  0  0
  3  4  1  0  0  0  0
  4 11  1  0  0  0  0
  4  5  1  0  0  0  0
  5 13  1  0  0  0  0
  5 14  1  0  0  0  0
  6 15  1  6  0  0  0
  6  5  1  0  0  0  0
  6 31  1  0  0  0  0
  8  2  1  0  0  0  0
  9  3  1  0  0  0  0
 10  3  1  0  0  0  0
 12  4  1  0  0  0  0
 16  1  1  0  0  0  0
 16 18  1  0  0  0  0
 17 16  1  0  0  0  0
 19 20  1  0  0  0  0
 19 16  1  0  0  0  0
 21 19  1  0  0  0  0
 22 23  1  0  0  0  0
 23 24  2  0  0  0  0
 23 29  1  0  0  0  0
 24 19  1  0  0  0  0
 25 24  1  0  0  0  0
 26 25  2  0  0  0  0
 27 26  1  0  0  0  0
 27 22  2  0  0  0  0
 28 22  1  0  0  0  0
 30 26  1  0  0  0  0
 31 33  1  0  0  0  0
 33 32  2  6  0  0  0
 33 36  1  0  0  0  0
 33 34  1  0  0  0  0
 35 34  1  0  0  0  0
 36 38  1  0  0  0  0
 37 48  1  0  0  0  0
 38 37  2  0  0  0  0
 38 39  1  0  0  0  0
 39 41  2  0  0  0  0
 40 39  1  0  0  0  0
 41 47  1  0  0  0  0
 41 42  1  0  0  0  0
 42 43  1  0  0  0  0
 42 44  1  0  0  0  0
 44 45  1  0  0  0  0
 46 44  2  0  0  0  0
 47 46  1  0  0  0  0
 48 47  2  0  0  0  0
M  END
>  <minimizedAffinity>
-4.52510214

>  <minimizedRMSD>
1.55909109

$$$$
