
 OpenBabel03252505183D

 37 41  0  0  0  0  0  0  0  0999 V2000
   46.1980   32.6850   47.0240 C   0  0  0  0  0  0  0  0  0  0  0  0
   45.0740   32.4780   47.8140 C   0  0  0  0  0  0  0  0  0  0  0  0
   45.1870   31.6780   48.9500 C   0  0  0  0  0  0  0  0  0  0  0  0
   46.4180   31.1280   49.2370 C   0  0  0  0  0  0  0  0  0  0  0  0
   47.5000   31.3740   48.4090 C   0  0  0  0  0  0  0  0  0  0  0  0
   47.3860   32.1520   47.3040 N   0  0  0  0  0  0  0  0  0  0  0  0
   44.1240   32.9270   47.5570 H   0  0  0  0  0  0  0  0  0  0  0  0
   44.3040   31.5250   49.5580 H   0  0  0  0  0  0  0  0  0  0  0  0
   46.4660   30.5230   50.1120 H   0  0  0  0  0  0  0  0  0  0  0  0
   49.4490   29.8560   47.9270 C   0  0  0  0  0  0  0  0  0  0  0  0
   48.8060   30.7970   48.7020 C   0  0  0  0  0  0  0  0  0  0  0  0
   49.5200   31.1690   49.8230 C   0  0  0  0  0  0  0  0  0  0  0  0
   49.0820   31.9160   50.4960 H   0  0  0  0  0  0  0  0  0  0  0  0
   50.7580   30.6890   50.1940 C   0  0  0  0  0  0  0  0  0  0  0  0
   51.5610   30.9460   51.2290 N   0  0  0  0  0  0  0  0  0  0  0  0
   51.3700   31.6210   52.0100 H   0  0  0  0  0  0  0  0  0  0  0  0
   52.6570   30.1810   51.0820 C   0  0  0  0  0  0  0  0  0  0  0  0
   53.4950   30.1800   51.7860 H   0  0  0  0  0  0  0  0  0  0  0  0
   52.5670   29.4130   49.9320 C   0  0  0  0  0  0  0  0  0  0  0  0
   51.3480   29.7500   49.3780 C   0  0  0  0  0  0  0  0  0  0  0  0
   50.6860   29.3380   48.2440 C   0  0  0  0  0  0  0  0  0  0  0  0
   44.9220   35.1290   44.5770 C   0  0  0  0  0  0  0  0  0  0  0  0
   45.8190   35.0230   43.5140 C   0  0  0  0  0  0  0  0  0  0  0  0
   46.8490   34.1160   43.6680 C   0  0  0  0  0  0  0  0  0  0  0  0
   46.9570   33.3700   44.8240 N   0  0  0  0  0  0  0  0  0  0  0  0
   46.0500   33.5090   45.8390 C   0  0  0  0  0  0  0  0  0  0  0  0
   45.0500   34.3870   45.6960 N   0  0  0  0  0  0  0  0  0  0  0  0
   44.1100   35.8510   44.4430 H   0  0  0  0  0  0  0  0  0  0  0  0
   45.7420   35.6000   42.6130 H   0  0  0  0  0  0  0  0  0  0  0  0
   47.8550   33.8970   42.5800 C   0  0  0  0  0  0  0  0  0  0  0  0
   48.0760   35.1370   41.7140 C   0  0  0  0  0  0  0  0  0  0  0  0
   49.1470   34.5240   42.6760 C   0  0  0  0  0  0  0  0  0  0  0  0
   47.5980   33.0290   41.9140 H   0  0  0  0  0  0  0  0  0  0  0  0
   48.3410   35.0440   40.6620 H   0  0  0  0  0  0  0  0  0  0  0  0
   47.6540   36.1100   42.0620 H   0  0  0  0  0  0  0  0  0  0  0  0
   50.0140   34.0310   42.1970 H   0  0  0  0  0  0  0  0  0  0  0  0
   49.3690   35.1290   43.5760 H   0  0  0  0  0  0  0  0  0  0  0  0
  1  6  2  0  0  0  0
  1  2  1  0  0  0  0
  2  3  2  0  0  0  0
  3  4  1  0  0  0  0
  3  8  1  0  0  0  0
  4  9  1  0  0  0  0
  5 11  1  0  0  0  0
  5  4  2  0  0  0  0
  6  5  1  0  0  0  0
  7  2  1  0  0  0  0
 10 21  2  0  0  0  0
 10 11  1  0  0  0  0
 11 12  2  0  0  0  0
 12 14  1  0  0  0  0
 12 13  1  0  0  0  0
 14 15  1  0  0  0  0
 15 16  1  0  0  0  0
 17 15  1  0  0  0  0
 17 18  1  0  0  0  0
 19 17  2  0  0  0  0
 20 19  1  0  0  0  0
 20 14  2  0  0  0  0
 21 20  1  0  0  0  0
 22 27  1  0  0  0  0
 23 24  1  0  0  0  0
 23 22  2  0  0  0  0
 24 25  2  0  0  0  0
 25 26  1  0  0  0  0
 26  1  1  0  0  0  0
 27 26  2  0  0  0  0
 28 22  1  0  0  0  0
 29 23  1  0  0  0  0
 30 32  1  0  0  0  0
 30 24  1  0  0  0  0
 31 35  1  0  0  0  0
 31 30  1  0  0  0  0
 31 32  1  0  0  0  0
 32 37  1  0  0  0  0
 33 30  1  0  0  0  0
 34 31  1  0  0  0  0
 36 32  1  0  0  0  0
M  END
>  <minimizedAffinity>
-6.6743722

>  <minimizedRMSD>
1.79773247

$$$$
