
 OpenBabel03242512363D

 37 41  0  0  0  0  0  0  0  0999 V2000
   46.6910   35.0890   42.7660 C   0  0  0  0  0  0  0  0  0  0  0  0
   45.7550   36.1320   42.7080 C   0  0  0  0  0  0  0  0  0  0  0  0
   44.7670   36.1080   43.7140 C   0  0  0  0  0  0  0  0  0  0  0  0
   44.7830   35.1050   44.6450 N   0  0  0  0  0  0  0  0  0  0  0  0
   45.7170   34.1380   44.6330 C   0  0  0  0  0  0  0  0  0  0  0  0
   46.6730   34.1370   43.6830 N   0  0  0  0  0  0  0  0  0  0  0  0
   45.7950   36.8990   41.9450 H   0  0  0  0  0  0  0  0  0  0  0  0
   44.0170   36.8830   43.7270 H   0  0  0  0  0  0  0  0  0  0  0  0
   46.0990   31.7980   45.1950 C   0  0  0  0  0  0  0  0  0  0  0  0
   45.7390   33.0670   45.6230 C   0  0  0  0  0  0  0  0  0  0  0  0
   45.4170   33.2880   46.9500 C   0  0  0  0  0  0  0  0  0  0  0  0
   45.1460   34.2740   47.2400 H   0  0  0  0  0  0  0  0  0  0  0  0
   45.4800   32.1900   47.7790 C   0  0  0  0  0  0  0  0  0  0  0  0
   45.2150   32.1320   49.1070 N   0  0  0  0  0  0  0  0  0  0  0  0
   44.9200   32.9210   49.7220 H   0  0  0  0  0  0  0  0  0  0  0  0
   45.4040   30.8450   49.5230 C   0  0  0  0  0  0  0  0  0  0  0  0
   45.2540   30.5500   50.5520 H   0  0  0  0  0  0  0  0  0  0  0  0
   45.7980   30.0460   48.4460 C   0  0  0  0  0  0  0  0  0  0  0  0
   45.8330   30.9240   47.3740 C   0  0  0  0  0  0  0  0  0  0  0  0
   46.1530   30.7090   46.0510 C   0  0  0  0  0  0  0  0  0  0  0  0
   47.6960   35.1100   41.7470 C   0  0  0  0  0  0  0  0  0  0  0  0
   48.8290   35.6700   41.8200 O   0  0  0  0  0  0  0  0  0  0  0  0
   46.3230   33.7050   40.1740 C   0  0  0  0  0  0  0  0  0  0  0  0
   47.4770   34.4420   40.4580 C   0  0  0  0  0  0  0  0  0  0  0  0
   48.4340   34.5500   39.4840 C   0  0  0  0  0  0  0  0  0  0  0  0
   48.3370   33.9720   38.2220 C   0  0  0  0  0  0  0  0  0  0  0  0
   49.1420   33.9580   37.1450 N   0  0  0  0  0  0  0  0  0  0  0  0
   48.5660   33.2490   36.1770 C   0  0  0  0  0  0  0  0  0  0  0  0
   47.3440   32.7900   36.6560 C   0  0  0  0  0  0  0  0  0  0  0  0
   47.1880   33.2430   37.9550 C   0  0  0  0  0  0  0  0  0  0  0  0
   46.2120   33.1160   38.9080 C   0  0  0  0  0  0  0  0  0  0  0  0
   45.5740   33.6130   40.9200 H   0  0  0  0  0  0  0  0  0  0  0  0
   49.3760   35.1090   39.6150 H   0  0  0  0  0  0  0  0  0  0  0  0
   50.0880   34.4310   37.0570 H   0  0  0  0  0  0  0  0  0  0  0  0
   48.9770   33.0600   35.1850 H   0  0  0  0  0  0  0  0  0  0  0  0
   46.6350   32.1750   36.0930 H   0  0  0  0  0  0  0  0  0  0  0  0
   45.3360   32.5390   38.6520 H   0  0  0  0  0  0  0  0  0  0  0  0
  1  6  1  0  0  0  0
  2  1  2  0  0  0  0
  2  3  1  0  0  0  0
  3  8  1  0  0  0  0
  3  4  2  0  0  0  0
  5  4  1  0  0  0  0
  5 10  1  0  0  0  0
  6  5  2  0  0  0  0
  7  2  1  0  0  0  0
  9 10  2  0  0  0  0
  9 20  1  0  0  0  0
 10 11  1  0  0  0  0
 11 12  1  0  0  0  0
 11 13  2  0  0  0  0
 13 14  1  0  0  0  0
 14 16  1  0  0  0  0
 14 15  1  0  0  0  0
 16 17  1  0  0  0  0
 18 16  2  0  0  0  0
 19 13  1  0  0  0  0
 19 18  1  0  0  0  0
 20 19  2  0  0  0  0
 21 22  2  0  0  0  0
 21  1  1  0  0  0  0
 23 24  1  0  0  0  0
 23 32  1  0  0  0  0
 24 21  1  0  0  0  0
 25 33  1  0  0  0  0
 25 24  2  0  0  0  0
 26 25  1  0  0  0  0
 27 26  1  0  0  0  0
 28 29  2  0  0  0  0
 28 27  1  0  0  0  0
 29 30  1  0  0  0  0
 30 26  2  0  0  0  0
 30 31  1  0  0  0  0
 31 23  2  0  0  0  0
 34 27  1  0  0  0  0
 35 28  1  0  0  0  0
 36 29  1  0  0  0  0
 37 31  1  0  0  0  0
M  END
>  <minimizedAffinity>
-7.26177502

>  <minimizedRMSD>
1.09791243

$$$$
