
 OpenBabel03242522533D

 43 46  0  0  1  0  0  0  0  0999 V2000
   48.2700   31.2710   48.4430 C   0  0  0  0  0  0  0  0  0  0  0  0
   48.8890   32.0750   49.2120 O   0  0  0  0  0  0  0  0  0  0  0  0
   49.1660   30.2340   48.8180 N   0  0  0  0  0  0  0  0  0  0  0  0
   49.3080   29.3110   47.7090 C   0  0  0  0  0  0  0  0  0  0  0  0
   50.1870   28.1810   48.2140 C   0  0  0  0  0  0  0  0  0  0  0  0
   49.7730   27.7950   49.5690 N   0  0  0  0  0  0  0  0  0  0  0  0
   50.3560   28.7840   50.4320 C   0  0  0  0  0  0  0  0  0  0  0  0
   49.8300   30.1200   50.1090 C   0  0  1  0  0  0  0  0  0  0  0  0
   48.3130   28.8890   47.4940 H   0  0  0  0  0  0  0  0  0  0  0  0
   49.7840   29.7680   46.8240 H   0  0  0  0  0  0  0  0  0  0  0  0
   51.2500   28.4410   48.1730 H   0  0  0  0  0  0  0  0  0  0  0  0
   50.0370   27.3150   47.5360 H   0  0  0  0  0  0  0  0  0  0  0  0
   50.0770   26.8330   49.7690 H   0  0  0  0  0  0  0  0  0  0  0  0
   50.1310   28.5020   51.4810 H   0  0  0  0  0  0  0  0  0  0  0  0
   51.4800   28.7300   50.3610 H   0  0  0  0  0  0  0  0  0  0  0  0
   49.0500   30.4540   50.8540 H   0  0  0  0  0  0  0  0  0  0  0  0
   51.9280   31.2350   49.2510 C   0  0  0  0  0  0  0  0  0  0  0  0
   50.9330   31.1110   50.2260 C   0  0  0  0  0  0  0  0  0  0  0  0
   51.0190   31.9700   51.3280 C   0  0  0  0  0  0  0  0  0  0  0  0
   50.2240   31.8370   52.0610 H   0  0  0  0  0  0  0  0  0  0  0  0
   52.0300   32.8970   51.4620 C   0  0  0  0  0  0  0  0  0  0  0  0
   52.2240   33.7800   52.4760 N   0  0  0  0  0  0  0  0  0  0  0  0
   51.6240   33.8890   53.3200 H   0  0  0  0  0  0  0  0  0  0  0  0
   53.3470   34.4680   52.1450 C   0  0  0  0  0  0  0  0  0  0  0  0
   53.7590   35.2470   52.7610 H   0  0  0  0  0  0  0  0  0  0  0  0
   53.8520   34.0120   50.9250 C   0  0  0  0  0  0  0  0  0  0  0  0
   53.0080   33.0140   50.4980 C   0  0  0  0  0  0  0  0  0  0  0  0
   52.9300   32.1720   49.4080 C   0  0  0  0  0  0  0  0  0  0  0  0
   47.2200   31.8420   47.7860 O   0  0  0  0  0  0  0  0  0  0  0  0
   44.7880   30.8260   47.6690 O   0  0  0  0  0  0  0  0  0  0  0  0
   45.6350   32.0010   48.2170 P   0  0  1  0  0  0  0  0  0  0  0  0
   45.4280   31.9480   49.8880 O   0  0  0  0  0  0  0  0  0  0  0  0
   45.0690   32.8050   50.1900 H   0  0  0  0  0  0  0  0  0  0  0  0
   44.9890   33.4260   47.5830 O   0  0  0  0  0  0  0  0  0  0  0  0
   46.6380   33.5510   44.3550 C   0  0  0  0  0  0  0  0  0  0  0  0
   46.2620   33.1630   45.6680 C   0  0  0  0  0  0  0  0  0  0  0  0
   45.2910   33.8660   46.3220 C   0  0  0  0  0  0  0  0  0  0  0  0
   44.7020   34.9250   45.6960 N   0  0  0  0  0  0  0  0  0  0  0  0
   45.0690   35.2790   44.4520 C   0  0  0  0  0  0  0  0  0  0  0  0
   46.0240   34.6100   43.7770 N   0  0  0  0  0  0  0  0  0  0  0  0
   47.3920   33.0520   43.7730 H   0  0  0  0  0  0  0  0  0  0  0  0
   46.8390   32.3100   45.9840 H   0  0  0  0  0  0  0  0  0  0  0  0
   44.5740   36.1280   43.9910 H   0  0  0  0  0  0  0  0  0  0  0  0
  1  3  1  0  0  0  0
  1  2  2  0  0  0  0
  3  8  1  0  0  0  0
  4  5  1  0  0  0  0
  4  3  1  0  0  0  0
  5  6  1  0  0  0  0
  6 13  1  0  0  0  0
  6  7  1  0  0  0  0
  7 14  1  0  0  0  0
  8 18  1  0  0  0  0
  8  7  1  0  0  0  0
  8 16  1  1  0  0  0
  9  4  1  0  0  0  0
 10  4  1  0  0  0  0
 11  5  1  0  0  0  0
 12  5  1  0  0  0  0
 15  7  1  0  0  0  0
 17 28  2  0  0  0  0
 17 18  1  0  0  0  0
 18 19  2  0  0  0  0
 19 21  1  0  0  0  0
 19 20  1  0  0  0  0
 21 22  1  0  0  0  0
 22 23  1  0  0  0  0
 24 22  1  0  0  0  0
 24 25  1  0  0  0  0
 26 24  2  0  0  0  0
 27 26  1  0  0  0  0
 27 21  2  0  0  0  0
 28 27  1  0  0  0  0
 29 31  1  0  0  0  0
 29  1  1  0  0  0  0
 31 30  2  6  0  0  0
 31 32  1  0  0  0  0
 32 33  1  0  0  0  0
 34 31  1  0  0  0  0
 35 36  1  0  0  0  0
 36 42  1  0  0  0  0
 36 37  2  0  0  0  0
 37 34  1  0  0  0  0
 38 37  1  0  0  0  0
 39 38  2  0  0  0  0
 40 35  2  0  0  0  0
 40 39  1  0  0  0  0
 41 35  1  0  0  0  0
 43 39  1  0  0  0  0
M  END
>  <minimizedAffinity>
-6.50073195

>  <minimizedRMSD>
1.65484297

$$$$
