
 OpenBabel03242513153D

 33 36  0  0  0  0  0  0  0  0999 V2000
   38.9780   27.7970   40.0150 Cl  0  0  0  0  0  0  0  0  0  0  0  0
   38.1760   27.8420   41.5760 C   0  0  0  0  0  0  0  0  0  0  0  0
   38.3490   28.9210   42.4000 C   0  0  0  0  0  0  0  0  0  0  0  0
   37.6930   28.9150   43.6060 C   0  0  0  0  0  0  0  0  0  0  0  0
   36.8930   27.8700   43.9810 C   0  0  0  0  0  0  0  0  0  0  0  0
   36.7210   26.7600   43.1240 C   0  0  0  0  0  0  0  0  0  0  0  0
   37.3830   26.7570   41.8950 C   0  0  0  0  0  0  0  0  0  0  0  0
   37.6890   29.6610   44.3680 H   0  0  0  0  0  0  0  0  0  0  0  0
   36.3310   27.7540   44.8970 H   0  0  0  0  0  0  0  0  0  0  0  0
   36.0890   25.8960   43.3790 H   0  0  0  0  0  0  0  0  0  0  0  0
   36.5030   25.5700   39.8250 C   0  0  0  0  0  3  0  0  0  0  0  0
   37.2020   25.6080   41.0130 C   0  0  0  0  0  0  0  0  0  0  0  0
   37.8230   24.4340   41.4550 C   0  0  0  0  0  0  0  0  0  0  0  0
   38.4010   24.3670   42.3860 H   0  0  0  0  0  0  0  0  0  0  0  0
   37.7580   23.2500   40.7500 C   0  0  0  0  0  0  0  0  0  0  0  0
   38.2290   22.0020   40.9040 N   0  0  0  0  0  0  0  0  0  0  0  0
   38.8090   21.6680   41.7050 H   0  0  0  0  0  0  0  0  0  0  0  0
   37.8290   21.2400   39.8510 C   0  0  0  0  0  0  0  0  0  0  0  0
   38.0420   20.1880   39.6740 H   0  0  0  0  0  0  0  0  0  0  0  0
   37.0780   22.0130   38.9880 C   0  0  0  0  0  3  0  0  0  0  0  0
   37.0520   23.2570   39.5720 C   0  0  0  0  0  0  0  0  0  0  0  0
   36.4210   24.4010   39.0960 C   0  0  0  0  0  3  0  0  0  0  0  0
   39.2110   30.0100   41.9910 C   0  0  0  0  0  0  0  0  0  0  0  0
   40.4360   29.9010   42.2980 O   0  0  0  0  0  0  0  0  0  0  0  0
   39.0530   33.3410   40.5680 C   0  0  0  0  0  0  0  0  0  0  0  0
   37.8230   33.3870   39.8980 C   0  0  0  0  0  0  0  0  0  0  0  0
   37.0600   32.2250   39.9640 C   0  0  0  0  0  0  0  0  0  0  0  0
   37.5360   31.1480   40.6500 N   0  0  0  0  0  0  0  0  0  0  0  0
   38.7200   31.1590   41.2730 C   0  0  0  0  0  0  0  0  0  0  0  0
   39.4730   32.2630   41.2270 N   0  0  0  0  0  0  0  0  0  0  0  0
   39.7310   34.2080   40.5780 H   0  0  0  0  0  0  0  0  0  0  0  0
   37.5180   34.2840   39.3750 H   0  0  0  0  0  0  0  0  0  0  0  0
   36.1060   32.2510   39.4470 H   0  0  0  0  0  0  0  0  0  0  0  0
  1  2  1  0  0  0  0
  2  7  2  0  0  0  0
  2  3  1  0  0  0  0
  3  4  2  0  0  0  0
  4  5  1  0  0  0  0
  4  8  1  0  0  0  0
  5  9  1  0  0  0  0
  6 10  1  0  0  0  0
  6  5  2  0  0  0  0
  7  6  1  0  0  0  0
 11 12  1  0  0  0  0
 12 13  2  0  0  0  0
 12  7  1  0  0  0  0
 13 14  1  0  0  0  0
 15 16  1  0  0  0  0
 15 13  1  0  0  0  0
 16 17  1  0  0  0  0
 18 16  1  0  0  0  0
 19 18  1  0  0  0  0
 20 21  1  0  0  0  0
 20 18  2  0  0  0  0
 21 15  2  0  0  0  0
 22 21  1  0  0  0  0
 22 11  2  0  0  0  0
 23 24  2  0  0  0  0
 23  3  1  0  0  0  0
 25 31  1  0  0  0  0
 25 30  1  0  0  0  0
 26 27  1  0  0  0  0
 26 25  2  0  0  0  0
 27 28  2  0  0  0  0
 28 29  1  0  0  0  0
 29 23  1  0  0  0  0
 30 29  2  0  0  0  0
 32 26  1  0  0  0  0
 33 27  1  0  0  0  0
M  END
>  <minimizedAffinity>
-6.49014807

$$$$

 OpenBabel03242513153D

 33 36  0  0  0  0  0  0  0  0999 V2000
   39.0470   28.2680   39.6300 Cl  0  0  0  0  0  0  0  0  0  0  0  0
   38.5550   28.0270   41.2980 C   0  0  0  0  0  0  0  0  0  0  0  0
   38.6420   26.7830   41.8600 C   0  0  0  0  0  0  0  0  0  0  0  0
   38.2560   26.6460   43.1700 C   0  0  0  0  0  0  0  0  0  0  0  0
   37.7960   27.7110   43.8970 C   0  0  0  0  0  0  0  0  0  0  0  0
   37.7080   28.9910   43.3070 C   0  0  0  0  0  0  0  0  0  0  0  0
   38.1010   29.1410   41.9760 C   0  0  0  0  0  0  0  0  0  0  0  0
   38.2650   25.7720   43.7820 H   0  0  0  0  0  0  0  0  0  0  0  0
   37.4660   27.7250   44.9250 H   0  0  0  0  0  0  0  0  0  0  0  0
   37.3460   29.8790   43.8480 H   0  0  0  0  0  0  0  0  0  0  0  0
   36.9530   30.9820   40.6470 C   0  0  0  0  0  3  0  0  0  0  0  0
   38.0080   30.4670   41.3710 C   0  0  0  0  0  0  0  0  0  0  0  0
   39.1330   31.2750   41.5700 C   0  0  0  0  0  0  0  0  0  0  0  0
   40.0200   30.9540   42.1310 H   0  0  0  0  0  0  0  0  0  0  0  0
   39.2230   32.5580   41.0700 C   0  0  0  0  0  0  0  0  0  0  0  0
   40.1320   33.5460   41.0890 N   0  0  0  0  0  0  0  0  0  0  0  0
   41.0650   33.5010   41.5560 H   0  0  0  0  0  0  0  0  0  0  0  0
   39.6450   34.6150   40.4040 C   0  0  0  0  0  0  0  0  0  0  0  0
   40.1330   35.5720   40.2340 H   0  0  0  0  0  0  0  0  0  0  0  0
   38.3860   34.3150   39.9250 C   0  0  0  0  0  3  0  0  0  0  0  0
   38.1490   33.0310   40.3550 C   0  0  0  0  0  0  0  0  0  0  0  0
   37.0130   32.2620   40.1340 C   0  0  0  0  0  3  0  0  0  0  0  0
   39.1180   25.6660   41.0710 C   0  0  0  0  0  0  0  0  0  0  0  0
   40.3710   25.6070   40.8830 O   0  0  0  0  0  0  0  0  0  0  0  0
   36.2840   24.1750   39.3730 C   0  0  0  0  0  0  0  0  0  0  0  0
   36.5070   22.7930   39.4470 C   0  0  0  0  0  0  0  0  0  0  0  0
   37.6710   22.4090   40.1060 C   0  0  0  0  0  0  0  0  0  0  0  0
   38.4960   23.3620   40.6230 N   0  0  0  0  0  0  0  0  0  0  0  0
   38.2330   24.6700   40.5230 C   0  0  0  0  0  0  0  0  0  0  0  0
   37.1220   25.0680   39.8960 N   0  0  0  0  0  0  0  0  0  0  0  0
   35.3920   24.5840   38.8730 H   0  0  0  0  0  0  0  0  0  0  0  0
   35.8000   22.1010   39.0090 H   0  0  0  0  0  0  0  0  0  0  0  0
   37.8520   21.3400   40.1680 H   0  0  0  0  0  0  0  0  0  0  0  0
  1  2  1  0  0  0  0
  2  3  2  0  0  0  0
  2  7  1  0  0  0  0
  3  4  1  0  0  0  0
  4  8  1  0  0  0  0
  4  5  2  0  0  0  0
  5  9  1  0  0  0  0
  6 10  1  0  0  0  0
  6  5  1  0  0  0  0
  7  6  2  0  0  0  0
 11 12  1  0  0  0  0
 12 13  2  0  0  0  0
 12  7  1  0  0  0  0
 13 14  1  0  0  0  0
 15 16  1  0  0  0  0
 15 13  1  0  0  0  0
 16 17  1  0  0  0  0
 18 16  1  0  0  0  0
 19 18  1  0  0  0  0
 20 21  1  0  0  0  0
 20 18  2  0  0  0  0
 21 15  2  0  0  0  0
 22 21  1  0  0  0  0
 22 11  2  0  0  0  0
 23  3  1  0  0  0  0
 24 23  2  0  0  0  0
 25 26  2  0  0  0  0
 25 30  1  0  0  0  0
 26 27  1  0  0  0  0
 27 33  1  0  0  0  0
 27 28  2  0  0  0  0
 29 28  1  0  0  0  0
 29 23  1  0  0  0  0
 30 29  2  0  0  0  0
 31 25  1  0  0  0  0
 32 26  1  0  0  0  0
M  END
>  <minimizedAffinity>
-6.05895567

$$$$

 OpenBabel03242513153D

 33 36  0  0  0  0  0  0  0  0999 V2000
   39.8720   28.4210   40.3290 Cl  0  0  0  0  0  0  0  0  0  0  0  0
   38.7390   28.0570   41.6200 C   0  0  0  0  0  0  0  0  0  0  0  0
   37.3930   28.1540   41.3920 C   0  0  0  0  0  0  0  0  0  0  0  0
   36.5460   27.8490   42.4280 C   0  0  0  0  0  0  0  0  0  0  0  0
   37.0230   27.4620   43.6530 C   0  0  0  0  0  0  0  0  0  0  0  0
   38.4140   27.3660   43.8780 C   0  0  0  0  0  0  0  0  0  0  0  0
   39.2830   27.6720   42.8300 C   0  0  0  0  0  0  0  0  0  0  0  0
   35.4800   27.8490   42.4430 H   0  0  0  0  0  0  0  0  0  0  0  0
   36.4590   27.2000   44.5360 H   0  0  0  0  0  0  0  0  0  0  0  0
   38.8460   27.0600   44.8420 H   0  0  0  0  0  0  0  0  0  0  0  0
   41.6150   28.6100   43.2190 C   0  0  0  0  0  3  0  0  0  0  0  0
   40.7190   27.5710   43.0680 C   0  0  0  0  0  0  0  0  0  0  0  0
   41.2040   26.2610   43.1470 C   0  0  0  0  0  0  0  0  0  0  0  0
   40.5700   25.3720   43.0400 H   0  0  0  0  0  0  0  0  0  0  0  0
   42.5350   25.9740   43.3670 C   0  0  0  0  0  0  0  0  0  0  0  0
   43.2820   24.8650   43.4900 N   0  0  0  0  0  0  0  0  0  0  0  0
   42.9260   23.8860   43.4280 H   0  0  0  0  0  0  0  0  0  0  0  0
   44.5770   25.2190   43.7060 C   0  0  0  0  0  0  0  0  0  0  0  0
   45.4300   24.5600   43.8470 H   0  0  0  0  0  0  0  0  0  0  0  0
   44.6770   26.5950   43.7240 C   0  0  0  0  0  3  0  0  0  0  0  0
   43.3930   27.0380   43.5120 C   0  0  0  0  0  0  0  0  0  0  0  0
   42.9530   28.3550   43.4410 C   0  0  0  0  0  3  0  0  0  0  0  0
   36.9100   28.5780   40.0940 C   0  0  0  0  0  0  0  0  0  0  0  0
   36.3580   27.6850   39.3830 O   0  0  0  0  0  0  0  0  0  0  0  0
   36.9870   32.2020   40.0910 C   0  0  0  0  0  0  0  0  0  0  0  0
   37.2890   32.5540   38.7690 C   0  0  0  0  0  0  0  0  0  0  0  0
   37.4610   31.4890   37.8900 C   0  0  0  0  0  0  0  0  0  0  0  0
   37.3300   30.2130   38.3480 N   0  0  0  0  0  0  0  0  0  0  0  0
   37.0390   29.9340   39.6240 C   0  0  0  0  0  0  0  0  0  0  0  0
   36.8690   30.9370   40.4910 N   0  0  0  0  0  0  0  0  0  0  0  0
   36.8310   32.9700   40.8660 H   0  0  0  0  0  0  0  0  0  0  0  0
   37.3760   33.5950   38.4860 H   0  0  0  0  0  0  0  0  0  0  0  0
   37.6950   31.7520   36.8640 H   0  0  0  0  0  0  0  0  0  0  0  0
  1  2  1  0  0  0  0
  2  7  1  0  0  0  0
  3  2  2  0  0  0  0
  3  4  1  0  0  0  0
  4  8  1  0  0  0  0
  4  5  2  0  0  0  0
  5  6  1  0  0  0  0
  5  9  1  0  0  0  0
  6 10  1  0  0  0  0
  7 12  1  0  0  0  0
  7  6  2  0  0  0  0
 11 22  1  0  0  0  0
 12 13  1  0  0  0  0
 12 11  2  0  0  0  0
 13 15  2  0  0  0  0
 14 13  1  0  0  0  0
 15 16  1  0  0  0  0
 15 21  1  0  0  0  0
 16 18  1  0  0  0  0
 17 16  1  0  0  0  0
 18 20  2  0  0  0  0
 18 19  1  0  0  0  0
 21 20  1  0  0  0  0
 22 21  2  0  0  0  0
 23  3  1  0  0  0  0
 24 23  2  0  0  0  0
 25 30  1  0  0  0  0
 25 31  1  0  0  0  0
 26 25  2  0  0  0  0
 27 28  2  0  0  0  0
 27 26  1  0  0  0  0
 28 29  1  0  0  0  0
 29 23  1  0  0  0  0
 29 30  2  0  0  0  0
 32 26  1  0  0  0  0
 33 27  1  0  0  0  0
M  END
>  <minimizedAffinity>
-6.03924084

$$$$

 OpenBabel03242513153D

 33 36  0  0  0  0  0  0  0  0999 V2000
   40.1870   31.3610   42.1130 Cl  0  0  0  0  0  0  0  0  0  0  0  0
   38.7790   31.3020   41.0660 C   0  0  0  0  0  0  0  0  0  0  0  0
   38.4580   32.3870   40.2960 C   0  0  0  0  0  0  0  0  0  0  0  0
   37.3540   32.2900   39.4860 C   0  0  0  0  0  0  0  0  0  0  0  0
   36.5940   31.1510   39.4430 C   0  0  0  0  0  0  0  0  0  0  0  0
   36.9340   30.0380   40.2430 C   0  0  0  0  0  0  0  0  0  0  0  0
   38.0550   30.1260   41.0690 C   0  0  0  0  0  0  0  0  0  0  0  0
   36.9560   33.0110   38.8090 H   0  0  0  0  0  0  0  0  0  0  0  0
   35.7110   30.9600   38.8510 H   0  0  0  0  0  0  0  0  0  0  0  0
   36.3560   29.1010   40.2450 H   0  0  0  0  0  0  0  0  0  0  0  0
   37.9340   28.6790   43.1580 C   0  0  0  0  0  3  0  0  0  0  0  0
   38.4020   28.9720   41.8930 C   0  0  0  0  0  0  0  0  0  0  0  0
   39.3090   28.0870   41.3010 C   0  0  0  0  0  0  0  0  0  0  0  0
   39.7360   28.2350   40.3000 H   0  0  0  0  0  0  0  0  0  0  0  0
   39.7510   26.9430   41.9330 C   0  0  0  0  0  0  0  0  0  0  0  0
   40.5860   25.9330   41.6400 N   0  0  0  0  0  0  0  0  0  0  0  0
   41.1230   25.8300   40.7510 H   0  0  0  0  0  0  0  0  0  0  0  0
   40.6220   25.0650   42.6860 C   0  0  0  0  0  0  0  0  0  0  0  0
   41.1990   24.1470   42.7670 H   0  0  0  0  0  0  0  0  0  0  0  0
   39.7890   25.5220   43.6870 C   0  0  0  0  0  3  0  0  0  0  0  0
   39.2600   26.6900   43.1910 C   0  0  0  0  0  0  0  0  0  0  0  0
   38.3570   27.5420   43.8160 C   0  0  0  0  0  3  0  0  0  0  0  0
   39.2670   33.5860   40.3650 C   0  0  0  0  0  0  0  0  0  0  0  0
   38.7840   34.5490   41.0350 O   0  0  0  0  0  0  0  0  0  0  0  0
   41.8480   33.3420   37.8320 C   0  0  0  0  0  0  0  0  0  0  0  0
   42.9900   33.8920   38.4290 C   0  0  0  0  0  0  0  0  0  0  0  0
   42.8250   34.3430   39.7350 C   0  0  0  0  0  0  0  0  0  0  0  0
   41.6080   34.2290   40.3360 N   0  0  0  0  0  0  0  0  0  0  0  0
   40.5490   33.6940   39.7170 C   0  0  0  0  0  0  0  0  0  0  0  0
   40.6790   33.2520   38.4630 N   0  0  0  0  0  0  0  0  0  0  0  0
   41.8710   32.9550   36.8010 H   0  0  0  0  0  0  0  0  0  0  0  0
   43.9220   33.9450   37.8810 H   0  0  0  0  0  0  0  0  0  0  0  0
   43.7050   34.7710   40.2050 H   0  0  0  0  0  0  0  0  0  0  0  0
  2  7  1  0  0  0  0
  2  1  1  0  0  0  0
  3 23  1  0  0  0  0
  3  2  2  0  0  0  0
  4  3  1  0  0  0  0
  5  4  2  0  0  0  0
  5  6  1  0  0  0  0
  6 10  1  0  0  0  0
  6  7  2  0  0  0  0
  7 12  1  0  0  0  0
  8  4  1  0  0  0  0
  9  5  1  0  0  0  0
 11 22  1  0  0  0  0
 12 11  2  0  0  0  0
 13 12  1  0  0  0  0
 13 15  2  0  0  0  0
 14 13  1  0  0  0  0
 15 21  1  0  0  0  0
 16 15  1  0  0  0  0
 16 18  1  0  0  0  0
 17 16  1  0  0  0  0
 18 19  1  0  0  0  0
 18 20  2  0  0  0  0
 21 20  1  0  0  0  0
 21 22  2  0  0  0  0
 23 24  2  0  0  0  0
 25 26  2  0  0  0  0
 25 30  1  0  0  0  0
 26 27  1  0  0  0  0
 27 33  1  0  0  0  0
 27 28  2  0  0  0  0
 29 28  1  0  0  0  0
 29 23  1  0  0  0  0
 30 29  2  0  0  0  0
 31 25  1  0  0  0  0
 32 26  1  0  0  0  0
M  END
>  <minimizedAffinity>
-5.98652029

$$$$

 OpenBabel03242513153D

 33 36  0  0  0  0  0  0  0  0999 V2000
   37.4780   28.9950   38.7380 Cl  0  0  0  0  0  0  0  0  0  0  0  0
   37.3310   28.5910   40.4400 C   0  0  0  0  0  0  0  0  0  0  0  0
   36.9940   27.3170   40.8110 C   0  0  0  0  0  0  0  0  0  0  0  0
   36.9010   27.0470   42.1530 C   0  0  0  0  0  0  0  0  0  0  0  0
   37.1350   28.0110   43.0960 C   0  0  0  0  0  0  0  0  0  0  0  0
   37.4820   29.3230   42.7030 C   0  0  0  0  0  0  0  0  0  0  0  0
   37.5800   29.6080   41.3410 C   0  0  0  0  0  0  0  0  0  0  0  0
   36.6700   26.1240   42.6340 H   0  0  0  0  0  0  0  0  0  0  0  0
   37.0920   27.9180   44.1720 H   0  0  0  0  0  0  0  0  0  0  0  0
   37.6790   30.1320   43.4220 H   0  0  0  0  0  0  0  0  0  0  0  0
   37.1200   31.9030   40.3450 C   0  0  0  0  0  3  0  0  0  0  0  0
   37.9380   30.9650   40.9400 C   0  0  0  0  0  0  0  0  0  0  0  0
   39.2660   31.3170   41.2070 C   0  0  0  0  0  0  0  0  0  0  0  0
   39.9910   30.6400   41.6770 H   0  0  0  0  0  0  0  0  0  0  0  0
   39.7810   32.5590   40.8960 C   0  0  0  0  0  0  0  0  0  0  0  0
   40.9670   33.1770   41.0210 N   0  0  0  0  0  0  0  0  0  0  0  0
   41.8280   32.7560   41.4350 H   0  0  0  0  0  0  0  0  0  0  0  0
   40.8690   34.4370   40.5200 C   0  0  0  0  0  0  0  0  0  0  0  0
   41.6490   35.1940   40.4710 H   0  0  0  0  0  0  0  0  0  0  0  0
   39.5860   34.6460   40.0570 C   0  0  0  0  0  3  0  0  0  0  0  0
   38.9320   33.4620   40.3050 C   0  0  0  0  0  0  0  0  0  0  0  0
   37.6060   33.1540   40.0230 C   0  0  0  0  0  3  0  0  0  0  0  0
   36.7370   26.3150   39.7970 C   0  0  0  0  0  0  0  0  0  0  0  0
   35.8620   26.6090   38.9280 O   0  0  0  0  0  0  0  0  0  0  0  0
   39.3370   23.8570   39.2150 C   0  0  0  0  0  0  0  0  0  0  0  0
   38.8030   22.6500   39.6870 C   0  0  0  0  0  0  0  0  0  0  0  0
   37.5150   22.7290   40.2080 C   0  0  0  0  0  0  0  0  0  0  0  0
   36.8710   23.9290   40.2290 N   0  0  0  0  0  0  0  0  0  0  0  0
   37.4300   25.0520   39.7630 C   0  0  0  0  0  0  0  0  0  0  0  0
   38.6660   25.0060   39.2560 N   0  0  0  0  0  0  0  0  0  0  0  0
   40.3490   23.9040   38.7820 H   0  0  0  0  0  0  0  0  0  0  0  0
   39.3820   21.7380   39.6340 H   0  0  0  0  0  0  0  0  0  0  0  0
   37.0940   21.7990   40.5770 H   0  0  0  0  0  0  0  0  0  0  0  0
  1  2  1  0  0  0  0
  2  3  2  0  0  0  0
  2  7  1  0  0  0  0
  3  4  1  0  0  0  0
  4  8  1  0  0  0  0
  4  5  2  0  0  0  0
  5  9  1  0  0  0  0
  6  5  1  0  0  0  0
  6 10  1  0  0  0  0
  7  6  2  0  0  0  0
 11 12  1  0  0  0  0
 12 13  2  0  0  0  0
 12  7  1  0  0  0  0
 13 14  1  0  0  0  0
 15 16  1  0  0  0  0
 15 13  1  0  0  0  0
 16 17  1  0  0  0  0
 18 16  1  0  0  0  0
 19 18  1  0  0  0  0
 20 21  1  0  0  0  0
 20 18  2  0  0  0  0
 21 15  2  0  0  0  0
 22 21  1  0  0  0  0
 22 11  2  0  0  0  0
 23  3  1  0  0  0  0
 24 23  2  0  0  0  0
 25 30  2  0  0  0  0
 25 26  1  0  0  0  0
 26 27  2  0  0  0  0
 27 28  1  0  0  0  0
 27 33  1  0  0  0  0
 29 23  1  0  0  0  0
 29 28  2  0  0  0  0
 30 29  1  0  0  0  0
 31 25  1  0  0  0  0
 32 26  1  0  0  0  0
M  END
>  <minimizedAffinity>
-5.9573884

$$$$

 OpenBabel03242513153D

 33 36  0  0  0  0  0  0  0  0999 V2000
   39.2450   27.5320   40.1660 Cl  0  0  0  0  0  0  0  0  0  0  0  0
   38.3600   27.7150   41.6710 C   0  0  0  0  0  0  0  0  0  0  0  0
   38.3930   28.9090   42.3400 C   0  0  0  0  0  0  0  0  0  0  0  0
   37.6770   29.0080   43.5060 C   0  0  0  0  0  0  0  0  0  0  0  0
   36.9520   27.9530   43.9930 C   0  0  0  0  0  0  0  0  0  0  0  0
   36.9240   26.7250   43.2960 C   0  0  0  0  0  0  0  0  0  0  0  0
   37.6480   26.6150   42.1080 C   0  0  0  0  0  0  0  0  0  0  0  0
   37.5660   29.8480   44.1540 H   0  0  0  0  0  0  0  0  0  0  0  0
   36.3540   27.9120   44.8920 H   0  0  0  0  0  0  0  0  0  0  0  0
   36.3570   25.8490   43.6460 H   0  0  0  0  0  0  0  0  0  0  0  0
   38.5080   24.2970   41.5100 C   0  0  0  0  0  3  0  0  0  0  0  0
   37.6160   25.3440   41.3920 C   0  0  0  0  0  0  0  0  0  0  0  0
   36.5500   25.2080   40.4970 C   0  0  0  0  0  0  0  0  0  0  0  0
   35.7910   25.9850   40.3350 H   0  0  0  0  0  0  0  0  0  0  0  0
   36.3600   24.0750   39.7340 C   0  0  0  0  0  0  0  0  0  0  0  0
   35.4680   23.6570   38.8210 N   0  0  0  0  0  0  0  0  0  0  0  0
   34.6460   24.2040   38.4830 H   0  0  0  0  0  0  0  0  0  0  0  0
   35.8080   22.4080   38.4030 C   0  0  0  0  0  0  0  0  0  0  0  0
   35.2930   21.7900   37.6710 H   0  0  0  0  0  0  0  0  0  0  0  0
   36.9510   22.0010   39.0620 C   0  0  0  0  0  3  0  0  0  0  0  0
   37.2700   23.0570   39.8830 C   0  0  0  0  0  0  0  0  0  0  0  0
   38.3440   23.1500   40.7600 C   0  0  0  0  0  3  0  0  0  0  0  0
   39.1770   30.0080   41.8150 C   0  0  0  0  0  0  0  0  0  0  0  0
   40.4210   29.9770   42.0620 O   0  0  0  0  0  0  0  0  0  0  0  0
   38.5680   33.3340   40.5070 C   0  0  0  0  0  0  0  0  0  0  0  0
   37.5110   33.1750   39.6010 C   0  0  0  0  0  0  0  0  0  0  0  0
   37.0250   31.8780   39.4690 C   0  0  0  0  0  0  0  0  0  0  0  0
   37.5840   30.8730   40.2000 N   0  0  0  0  0  0  0  0  0  0  0  0
   38.5940   31.0820   41.0530 C   0  0  0  0  0  0  0  0  0  0  0  0
   39.0800   32.3180   41.2010 N   0  0  0  0  0  0  0  0  0  0  0  0
   39.0250   34.3200   40.6870 H   0  0  0  0  0  0  0  0  0  0  0  0
   37.1230   34.0270   39.0580 H   0  0  0  0  0  0  0  0  0  0  0  0
   36.2060   31.7460   38.7690 H   0  0  0  0  0  0  0  0  0  0  0  0
  1  2  1  0  0  0  0
  2  7  2  0  0  0  0
  2  3  1  0  0  0  0
  3  4  2  0  0  0  0
  4  5  1  0  0  0  0
  4  8  1  0  0  0  0
  5  9  1  0  0  0  0
  6 10  1  0  0  0  0
  6  5  2  0  0  0  0
  7  6  1  0  0  0  0
 12 11  1  0  0  0  0
 12  7  1  0  0  0  0
 13 12  2  0  0  0  0
 14 13  1  0  0  0  0
 15 21  2  0  0  0  0
 15 13  1  0  0  0  0
 16 15  1  0  0  0  0
 17 16  1  0  0  0  0
 18 16  1  0  0  0  0
 18 20  2  0  0  0  0
 19 18  1  0  0  0  0
 20 21  1  0  0  0  0
 21 22  1  0  0  0  0
 22 11  2  0  0  0  0
 23 24  2  0  0  0  0
 23  3  1  0  0  0  0
 25 31  1  0  0  0  0
 25 30  1  0  0  0  0
 26 25  2  0  0  0  0
 27 26  1  0  0  0  0
 27 28  2  0  0  0  0
 28 29  1  0  0  0  0
 29 30  2  0  0  0  0
 29 23  1  0  0  0  0
 32 26  1  0  0  0  0
 33 27  1  0  0  0  0
M  END
>  <minimizedAffinity>
-5.95011425

$$$$

 OpenBabel03242513153D

 33 36  0  0  0  0  0  0  0  0999 V2000
   39.0780   27.7050   40.1410 Cl  0  0  0  0  0  0  0  0  0  0  0  0
   38.2010   27.7780   41.6600 C   0  0  0  0  0  0  0  0  0  0  0  0
   38.3700   28.8510   42.4930 C   0  0  0  0  0  0  0  0  0  0  0  0
   37.6550   28.8680   43.6650 C   0  0  0  0  0  0  0  0  0  0  0  0
   36.8010   27.8510   43.9980 C   0  0  0  0  0  0  0  0  0  0  0  0
   36.6350   26.7480   43.1330 C   0  0  0  0  0  0  0  0  0  0  0  0
   37.3560   26.7210   41.9380 C   0  0  0  0  0  0  0  0  0  0  0  0
   37.6380   29.6140   44.4260 H   0  0  0  0  0  0  0  0  0  0  0  0
   36.1920   27.7550   44.8850 H   0  0  0  0  0  0  0  0  0  0  0  0
   35.9620   25.9060   43.3550 H   0  0  0  0  0  0  0  0  0  0  0  0
   36.4800   25.5470   39.8580 C   0  0  0  0  0  3  0  0  0  0  0  0
   37.1800   25.5790   41.0470 C   0  0  0  0  0  0  0  0  0  0  0  0
   37.8060   24.4040   41.4780 C   0  0  0  0  0  0  0  0  0  0  0  0
   38.3850   24.3320   42.4080 H   0  0  0  0  0  0  0  0  0  0  0  0
   37.7470   23.2260   40.7640 C   0  0  0  0  0  0  0  0  0  0  0  0
   38.2240   21.9780   40.9070 N   0  0  0  0  0  0  0  0  0  0  0  0
   38.8060   21.6410   41.7050 H   0  0  0  0  0  0  0  0  0  0  0  0
   37.8260   21.2240   39.8480 C   0  0  0  0  0  0  0  0  0  0  0  0
   38.0440   20.1740   39.6630 H   0  0  0  0  0  0  0  0  0  0  0  0
   37.0710   22.0000   38.9920 C   0  0  0  0  0  3  0  0  0  0  0  0
   37.0400   23.2390   39.5860 C   0  0  0  0  0  0  0  0  0  0  0  0
   36.4030   24.3830   39.1210 C   0  0  0  0  0  3  0  0  0  0  0  0
   39.2880   29.9100   42.1280 C   0  0  0  0  0  0  0  0  0  0  0  0
   38.8390   30.7920   41.3360 O   0  0  0  0  0  0  0  0  0  0  0  0
   42.5310   28.8530   43.3550 C   0  0  0  0  0  0  0  0  0  0  0  0
   43.2350   30.0430   43.5820 C   0  0  0  0  0  0  0  0  0  0  0  0
   42.5400   31.2140   43.2940 C   0  0  0  0  0  0  0  0  0  0  0  0
   41.2630   31.1390   42.8260 N   0  0  0  0  0  0  0  0  0  0  0  0
   40.6380   29.9720   42.6280 C   0  0  0  0  0  0  0  0  0  0  0  0
   41.2810   28.8320   42.8970 N   0  0  0  0  0  0  0  0  0  0  0  0
   42.9900   27.8710   43.5510 H   0  0  0  0  0  0  0  0  0  0  0  0
   44.2500   30.0160   43.9550 H   0  0  0  0  0  0  0  0  0  0  0  0
   43.0780   32.1410   43.4660 H   0  0  0  0  0  0  0  0  0  0  0  0
  1  2  1  0  0  0  0
  2  7  2  0  0  0  0
  2  3  1  0  0  0  0
  3  4  2  0  0  0  0
  4  5  1  0  0  0  0
  4  8  1  0  0  0  0
  5  9  1  0  0  0  0
  6 10  1  0  0  0  0
  6  5  2  0  0  0  0
  7  6  1  0  0  0  0
 11 12  1  0  0  0  0
 12 13  2  0  0  0  0
 12  7  1  0  0  0  0
 13 14  1  0  0  0  0
 15 16  1  0  0  0  0
 15 13  1  0  0  0  0
 16 17  1  0  0  0  0
 18 16  1  0  0  0  0
 19 18  1  0  0  0  0
 20 21  1  0  0  0  0
 20 18  2  0  0  0  0
 21 15  2  0  0  0  0
 22 21  1  0  0  0  0
 22 11  2  0  0  0  0
 23  3  1  0  0  0  0
 23 29  1  0  0  0  0
 24 23  2  0  0  0  0
 25 31  1  0  0  0  0
 25 26  1  0  0  0  0
 26 32  1  0  0  0  0
 27 33  1  0  0  0  0
 27 26  2  0  0  0  0
 28 27  1  0  0  0  0
 29 28  2  0  0  0  0
 29 30  1  0  0  0  0
 30 25  2  0  0  0  0
M  END
>  <minimizedAffinity>
-5.94718695

$$$$

 OpenBabel03242513153D

 33 36  0  0  0  0  0  0  0  0999 V2000
   37.2740   32.6370   38.9480 Cl  0  0  0  0  0  0  0  0  0  0  0  0
   38.0160   31.6880   40.2250 C   0  0  0  0  0  0  0  0  0  0  0  0
   39.0860   32.1920   40.9140 C   0  0  0  0  0  0  0  0  0  0  0  0
   39.6260   31.4180   41.9110 C   0  0  0  0  0  0  0  0  0  0  0  0
   39.1180   30.1830   42.2130 C   0  0  0  0  0  0  0  0  0  0  0  0
   38.0140   29.6710   41.4960 C   0  0  0  0  0  0  0  0  0  0  0  0
   37.4570   30.4510   40.4810 C   0  0  0  0  0  0  0  0  0  0  0  0
   40.4410   31.6390   42.5620 H   0  0  0  0  0  0  0  0  0  0  0  0
   39.4560   29.4890   42.9690 H   0  0  0  0  0  0  0  0  0  0  0  0
   37.5700   28.6850   41.7000 H   0  0  0  0  0  0  0  0  0  0  0  0
   35.0820   29.5720   40.2520 C   0  0  0  0  0  3  0  0  0  0  0  0
   36.3170   29.9180   39.7430 C   0  0  0  0  0  0  0  0  0  0  0  0
   36.5370   29.7550   38.3710 C   0  0  0  0  0  0  0  0  0  0  0  0
   37.4850   30.0020   37.8750 H   0  0  0  0  0  0  0  0  0  0  0  0
   35.5720   29.2630   37.5170 C   0  0  0  0  0  0  0  0  0  0  0  0
   35.4800   28.9990   36.2030 N   0  0  0  0  0  0  0  0  0  0  0  0
   36.2410   29.1440   35.5030 H   0  0  0  0  0  0  0  0  0  0  0  0
   34.2400   28.5130   35.9300 C   0  0  0  0  0  0  0  0  0  0  0  0
   33.8470   28.2040   34.9640 H   0  0  0  0  0  0  0  0  0  0  0  0
   33.5040   28.4580   37.0960 C   0  0  0  0  0  3  0  0  0  0  0  0
   34.3570   28.9310   38.0660 C   0  0  0  0  0  0  0  0  0  0  0  0
   34.0950   29.0780   39.4230 C   0  0  0  0  0  3  0  0  0  0  0  0
   39.6160   33.4950   40.5700 C   0  0  0  0  0  0  0  0  0  0  0  0
   38.9660   34.4950   41.0000 O   0  0  0  0  0  0  0  0  0  0  0  0
   43.0670   34.1950   39.7060 C   0  0  0  0  0  0  0  0  0  0  0  0
   43.1400   33.9870   38.3220 C   0  0  0  0  0  0  0  0  0  0  0  0
   41.9510   33.6000   37.7110 C   0  0  0  0  0  0  0  0  0  0  0  0
   40.8260   33.4510   38.4640 N   0  0  0  0  0  0  0  0  0  0  0  0
   40.8130   33.6630   39.7860 C   0  0  0  0  0  0  0  0  0  0  0  0
   41.9410   34.0360   40.3990 N   0  0  0  0  0  0  0  0  0  0  0  0
   43.9510   34.5030   40.2850 H   0  0  0  0  0  0  0  0  0  0  0  0
   44.0750   34.1270   37.7960 H   0  0  0  0  0  0  0  0  0  0  0  0
   41.9980   33.4370   36.6390 H   0  0  0  0  0  0  0  0  0  0  0  0
  1  2  1  0  0  0  0
  2  7  2  0  0  0  0
  2  3  1  0  0  0  0
  3  4  2  0  0  0  0
  4  5  1  0  0  0  0
  4  8  1  0  0  0  0
  5  9  1  0  0  0  0
  6 10  1  0  0  0  0
  6  5  2  0  0  0  0
  7  6  1  0  0  0  0
 12 11  1  0  0  0  0
 12  7  1  0  0  0  0
 13 12  2  0  0  0  0
 14 13  1  0  0  0  0
 15 21  2  0  0  0  0
 15 13  1  0  0  0  0
 16 15  1  0  0  0  0
 17 16  1  0  0  0  0
 18 16  1  0  0  0  0
 18 20  2  0  0  0  0
 19 18  1  0  0  0  0
 20 21  1  0  0  0  0
 21 22  1  0  0  0  0
 22 11  2  0  0  0  0
 23  3  1  0  0  0  0
 23 24  2  0  0  0  0
 25 31  1  0  0  0  0
 25 30  1  0  0  0  0
 26 25  2  0  0  0  0
 27 26  1  0  0  0  0
 27 28  2  0  0  0  0
 28 29  1  0  0  0  0
 29 30  2  0  0  0  0
 29 23  1  0  0  0  0
 32 26  1  0  0  0  0
 33 27  1  0  0  0  0
M  END
>  <minimizedAffinity>
-5.9071846

$$$$

 OpenBabel03242513153D

 33 36  0  0  0  0  0  0  0  0999 V2000
   37.5410   28.7910   40.7370 Cl  0  0  0  0  0  0  0  0  0  0  0  0
   38.7760   28.2630   41.8670 C   0  0  0  0  0  0  0  0  0  0  0  0
   38.5980   27.1090   42.5810 C   0  0  0  0  0  0  0  0  0  0  0  0
   39.5960   26.7320   43.4440 C   0  0  0  0  0  0  0  0  0  0  0  0
   40.7350   27.4790   43.5940 C   0  0  0  0  0  0  0  0  0  0  0  0
   40.9080   28.6690   42.8530 C   0  0  0  0  0  0  0  0  0  0  0  0
   39.8990   29.0600   41.9710 C   0  0  0  0  0  0  0  0  0  0  0  0
   39.6500   25.8690   44.0680 H   0  0  0  0  0  0  0  0  0  0  0  0
   41.5810   27.2850   44.2370 H   0  0  0  0  0  0  0  0  0  0  0  0
   41.8040   29.3030   42.9370 H   0  0  0  0  0  0  0  0  0  0  0  0
   40.8450   30.4590   40.0690 C   0  0  0  0  0  3  0  0  0  0  0  0
   40.0840   30.2900   41.2080 C   0  0  0  0  0  0  0  0  0  0  0  0
   39.3990   31.3980   41.7170 C   0  0  0  0  0  0  0  0  0  0  0  0
   38.7690   31.3610   42.6160 H   0  0  0  0  0  0  0  0  0  0  0  0
   39.4570   32.6430   41.1260 C   0  0  0  0  0  0  0  0  0  0  0  0
   38.9330   33.8570   41.3640 N   0  0  0  0  0  0  0  0  0  0  0  0
   38.2990   34.0970   42.1580 H   0  0  0  0  0  0  0  0  0  0  0  0
   39.3600   34.7240   40.4090 C   0  0  0  0  0  0  0  0  0  0  0  0
   39.1190   35.7800   40.3150 H   0  0  0  0  0  0  0  0  0  0  0  0
   40.1840   34.0580   39.5240 C   0  0  0  0  0  3  0  0  0  0  0  0
   40.2250   32.7670   39.9940 C   0  0  0  0  0  0  0  0  0  0  0  0
   40.9230   31.6930   39.4550 C   0  0  0  0  0  3  0  0  0  0  0  0
   37.3810   26.3410   42.4190 C   0  0  0  0  0  0  0  0  0  0  0  0
   36.4170   26.6510   43.1820 O   0  0  0  0  0  0  0  0  0  0  0  0
   37.7120   23.0940   40.8420 C   0  0  0  0  0  0  0  0  0  0  0  0
   37.0330   23.2160   39.6220 C   0  0  0  0  0  0  0  0  0  0  0  0
   36.4650   24.4620   39.3750 C   0  0  0  0  0  0  0  0  0  0  0  0
   36.5960   25.4550   40.2990 N   0  0  0  0  0  0  0  0  0  0  0  0
   37.2560   25.2820   41.4490 C   0  0  0  0  0  0  0  0  0  0  0  0
   37.8130   24.0960   41.7130 N   0  0  0  0  0  0  0  0  0  0  0  0
   38.1980   22.1500   41.1340 H   0  0  0  0  0  0  0  0  0  0  0  0
   36.9750   22.3770   38.9420 H   0  0  0  0  0  0  0  0  0  0  0  0
   35.9370   24.5660   38.4320 H   0  0  0  0  0  0  0  0  0  0  0  0
  1  2  1  0  0  0  0
  2  7  2  0  0  0  0
  2  3  1  0  0  0  0
  3  4  2  0  0  0  0
  4  5  1  0  0  0  0
  4  8  1  0  0  0  0
  5  9  1  0  0  0  0
  6 10  1  0  0  0  0
  6  5  2  0  0  0  0
  7  6  1  0  0  0  0
 11 12  1  0  0  0  0
 12 13  2  0  0  0  0
 12  7  1  0  0  0  0
 13 14  1  0  0  0  0
 15 16  1  0  0  0  0
 15 13  1  0  0  0  0
 16 17  1  0  0  0  0
 18 16  1  0  0  0  0
 19 18  1  0  0  0  0
 20 21  1  0  0  0  0
 20 18  2  0  0  0  0
 21 15  2  0  0  0  0
 22 21  1  0  0  0  0
 22 11  2  0  0  0  0
 23  3  1  0  0  0  0
 23 24  2  0  0  0  0
 25 31  1  0  0  0  0
 25 30  1  0  0  0  0
 26 25  2  0  0  0  0
 27 26  1  0  0  0  0
 27 28  2  0  0  0  0
 28 29  1  0  0  0  0
 29 30  2  0  0  0  0
 29 23  1  0  0  0  0
 32 26  1  0  0  0  0
 33 27  1  0  0  0  0
M  END
>  <minimizedAffinity>
-5.81566381

$$$$
