
 OpenBabel03252500333D

 46 50  0  0  1  0  0  0  0  0999 V2000
   36.4280   29.7370   40.1000 N   0  0  0  0  0  0  0  0  0  0  0  0
   35.2320   28.9810   39.9430 C   0  0  0  0  0  0  0  0  0  0  0  0
   35.2310   28.2190   38.6290 C   0  0  0  0  0  0  0  0  0  0  0  0
   35.1770   29.2760   37.5350 C   0  0  0  0  0  0  0  0  0  0  0  0
   36.4580   30.0720   37.6710 C   0  0  0  0  0  0  0  0  0  0  0  0
   36.6440   30.6370   39.0680 C   0  0  2  0  0  0  0  0  0  0  0  0
   34.8430   28.4520   40.7960 H   0  0  0  0  0  0  0  0  0  0  0  0
   34.4450   29.7850   39.7770 H   0  0  0  0  0  0  0  0  0  0  0  0
   36.1830   27.6630   38.4800 H   0  0  0  0  0  0  0  0  0  0  0  0
   34.3610   27.5560   38.5650 H   0  0  0  0  0  0  0  0  0  0  0  0
   34.2800   29.9130   37.6580 H   0  0  0  0  0  0  0  0  0  0  0  0
   35.2090   28.8250   36.5280 H   0  0  0  0  0  0  0  0  0  0  0  0
   36.4420   30.9500   36.9770 H   0  0  0  0  0  0  0  0  0  0  0  0
   37.2860   29.4250   37.3530 H   0  0  0  0  0  0  0  0  0  0  0  0
   35.7580   31.3540   39.1330 H   0  0  0  0  0  0  0  0  0  0  0  0
   38.2210   32.4520   39.9360 C   0  0  0  0  0  3  0  0  0  0  0  0
   37.8320   31.4750   39.0490 C   0  0  0  0  0  0  0  0  0  0  0  0
   38.7760   31.3650   38.0130 C   0  0  0  0  0  0  0  0  0  0  0  0
   38.5910   30.6150   37.2250 H   0  0  0  0  0  0  0  0  0  0  0  0
   39.9350   32.0940   37.8530 C   0  0  0  0  0  0  0  0  0  0  0  0
   40.8970   32.0750   36.9160 N   0  0  0  0  0  0  0  0  0  0  0  0
   40.9540   31.4620   36.0750 H   0  0  0  0  0  0  0  0  0  0  0  0
   41.7860   33.0160   37.2820 C   0  0  0  0  0  0  0  0  0  0  0  0
   42.7080   33.3150   36.7950 H   0  0  0  0  0  0  0  0  0  0  0  0
   41.3940   33.6360   38.4510 C   0  0  0  0  0  3  0  0  0  0  0  0
   40.2050   33.0370   38.8090 C   0  0  0  0  0  0  0  0  0  0  0  0
   39.3510   33.2350   39.8720 C   0  0  0  0  0  3  0  0  0  0  0  0
   37.4780   29.1010   40.8050 C   0  0  0  0  0  0  0  0  0  0  0  0
   38.4570   29.1970   40.3450 H   0  0  0  0  0  0  0  0  0  0  0  0
   37.2430   27.9960   40.8500 H   0  0  0  0  0  0  0  0  0  0  0  0
   37.7090   28.5320   43.3400 C   0  0  1  0  0  0  0  0  0  0  0  0
   38.6380   29.5620   43.0510 C   0  0  0  0  0  0  0  0  0  0  0  0
   37.4050   29.5540   42.2250 C   0  0  1  0  0  0  0  0  0  0  0  0
   37.0690   28.5980   44.2590 H   0  0  0  0  0  0  0  0  0  0  0  0
   38.7890   30.3930   43.7950 H   0  0  0  0  0  0  0  0  0  0  0  0
   39.5940   29.3820   42.4960 H   0  0  0  0  0  0  0  0  0  0  0  0
   36.4970   30.1110   42.4810 H   0  0  0  0  0  0  0  0  0  0  0  0
   39.1660   26.5640   42.8880 C   0  0  0  0  0  0  0  0  0  0  0  0
   37.8500   27.1080   42.9320 C   0  0  0  0  0  0  0  0  0  0  0  0
   36.8000   26.2950   42.5950 C   0  0  0  0  0  0  0  0  0  0  0  0
   37.0830   25.0000   42.2330 N   0  0  0  0  0  0  0  0  0  0  0  0
   38.3350   24.5060   42.1990 C   0  0  0  0  0  0  0  0  0  0  0  0
   39.4090   25.2840   42.5280 N   0  0  0  0  0  0  0  0  0  0  0  0
   39.9980   27.2040   43.1540 H   0  0  0  0  0  0  0  0  0  0  0  0
   35.8110   26.6830   42.6210 H   0  0  0  0  0  0  0  0  0  0  0  0
   38.4800   23.4730   41.9030 H   0  0  0  0  0  0  0  0  0  0  0  0
  1 28  1  0  0  0  0
  2  1  1  0  0  0  0
  2  7  1  0  0  0  0
  3  2  1  0  0  0  0
  4 11  1  0  0  0  0
  4  5  1  0  0  0  0
  4  3  1  0  0  0  0
  5  6  1  0  0  0  0
  6 15  1  1  0  0  0
  6  1  1  0  0  0  0
  8  2  1  0  0  0  0
  9  3  1  0  0  0  0
 10  3  1  0  0  0  0
 12  4  1  0  0  0  0
 13  5  1  0  0  0  0
 14  5  1  0  0  0  0
 17  6  1  0  0  0  0
 17 16  2  0  0  0  0
 18 17  1  0  0  0  0
 19 18  1  0  0  0  0
 20 18  2  0  0  0  0
 20 26  1  0  0  0  0
 21 23  1  0  0  0  0
 21 20  1  0  0  0  0
 22 21  1  0  0  0  0
 23 25  2  0  0  0  0
 24 23  1  0  0  0  0
 25 26  1  0  0  0  0
 26 27  2  0  0  0  0
 27 16  1  0  0  0  0
 28 30  1  0  0  0  0
 28 33  1  0  0  0  0
 29 28  1  0  0  0  0
 31 34  1  1  0  0  0
 32 31  1  0  0  0  0
 32 35  1  0  0  0  0
 33 37  1  1  0  0  0
 33 32  1  0  0  0  0
 33 31  1  0  0  0  0
 36 32  1  0  0  0  0
 38 39  1  0  0  0  0
 38 44  1  0  0  0  0
 39 31  1  0  0  0  0
 40 45  1  0  0  0  0
 40 39  2  0  0  0  0
 41 40  1  0  0  0  0
 42 41  2  0  0  0  0
 42 43  1  0  0  0  0
 43 38  2  0  0  0  0
 46 42  1  0  0  0  0
M  END
>  <minimizedAffinity>
-6.34031677

$$$$

 OpenBabel03252500333D

 46 50  0  0  1  0  0  0  0  0999 V2000
   40.3580   32.3260   40.8750 N   0  0  0  0  0  0  0  0  0  0  0  0
   41.1070   33.5200   40.6720 C   0  0  0  0  0  0  0  0  0  0  0  0
   42.5680   33.2120   40.3880 C   0  0  0  0  0  0  0  0  0  0  0  0
   43.1230   32.6100   41.6710 C   0  0  0  0  0  0  0  0  0  0  0  0
   42.3550   31.3240   41.8870 C   0  0  0  0  0  0  0  0  0  0  0  0
   40.8530   31.5410   41.9060 C   0  0  2  0  0  0  0  0  0  0  0  0
   40.6680   34.3080   40.0860 H   0  0  0  0  0  0  0  0  0  0  0  0
   41.1360   33.9790   41.7120 H   0  0  0  0  0  0  0  0  0  0  0  0
   42.6740   32.4290   39.6050 H   0  0  0  0  0  0  0  0  0  0  0  0
   43.1130   34.1250   40.1250 H   0  0  0  0  0  0  0  0  0  0  0  0
   42.9930   33.3150   42.5160 H   0  0  0  0  0  0  0  0  0  0  0  0
   44.1810   32.3140   41.5610 H   0  0  0  0  0  0  0  0  0  0  0  0
   42.6200   30.8770   42.8780 H   0  0  0  0  0  0  0  0  0  0  0  0
   42.6790   30.6110   41.1160 H   0  0  0  0  0  0  0  0  0  0  0  0
   40.7390   32.1950   42.8340 H   0  0  0  0  0  0  0  0  0  0  0  0
   40.7410   28.9980   42.1380 C   0  0  0  0  0  3  0  0  0  0  0  0
   40.2280   30.2700   42.2370 C   0  0  0  0  0  0  0  0  0  0  0  0
   38.9100   30.2190   42.7220 C   0  0  0  0  0  0  0  0  0  0  0  0
   38.3720   31.1740   42.8520 H   0  0  0  0  0  0  0  0  0  0  0  0
   38.1850   29.0970   43.0630 C   0  0  0  0  0  0  0  0  0  0  0  0
   36.9360   28.9320   43.5300 N   0  0  0  0  0  0  0  0  0  0  0  0
   36.2300   29.6710   43.7360 H   0  0  0  0  0  0  0  0  0  0  0  0
   36.7720   27.6050   43.6800 C   0  0  0  0  0  0  0  0  0  0  0  0
   35.9050   27.0570   44.0340 H   0  0  0  0  0  0  0  0  0  0  0  0
   37.9130   26.9230   43.3110 C   0  0  0  0  0  3  0  0  0  0  0  0
   38.8140   27.8900   42.9170 C   0  0  0  0  0  0  0  0  0  0  0  0
   40.1080   27.8160   42.4500 C   0  0  0  0  0  3  0  0  0  0  0  0
   39.7190   31.7890   39.7310 C   0  0  0  0  0  0  0  0  0  0  0  0
   39.2440   30.8260   39.8870 H   0  0  0  0  0  0  0  0  0  0  0  0
   40.5080   31.6410   38.9340 H   0  0  0  0  0  0  0  0  0  0  0  0
   37.3270   32.5280   39.0010 C   0  0  1  0  0  0  0  0  0  0  0  0
   37.7470   33.4080   40.0290 C   0  0  0  0  0  0  0  0  0  0  0  0
   38.8260   32.8480   39.1780 C   0  0  1  0  0  0  0  0  0  0  0  0
   36.8390   32.9380   38.0790 H   0  0  0  0  0  0  0  0  0  0  0  0
   37.5050   34.5040   39.9490 H   0  0  0  0  0  0  0  0  0  0  0  0
   37.7790   33.1130   41.1090 H   0  0  0  0  0  0  0  0  0  0  0  0
   39.2020   33.3360   38.2720 H   0  0  0  0  0  0  0  0  0  0  0  0
   36.1950   30.7980   40.3900 C   0  0  0  0  0  0  0  0  0  0  0  0
   36.9100   31.1130   39.1990 C   0  0  0  0  0  0  0  0  0  0  0  0
   37.1720   30.1010   38.3130 C   0  0  0  0  0  0  0  0  0  0  0  0
   36.7290   28.8400   38.6310 N   0  0  0  0  0  0  0  0  0  0  0  0
   36.0540   28.5650   39.7640 C   0  0  0  0  0  0  0  0  0  0  0  0
   35.7720   29.5460   40.6720 N   0  0  0  0  0  0  0  0  0  0  0  0
   35.9860   31.5950   41.0920 H   0  0  0  0  0  0  0  0  0  0  0  0
   37.7050   30.3160   37.4180 H   0  0  0  0  0  0  0  0  0  0  0  0
   35.7360   27.5450   39.9450 H   0  0  0  0  0  0  0  0  0  0  0  0
  1  6  1  0  0  0  0
  2  1  1  0  0  0  0
  2  8  1  0  0  0  0
  3  2  1  0  0  0  0
  3  4  1  0  0  0  0
  4  5  1  0  0  0  0
  4 11  1  0  0  0  0
  5  6  1  0  0  0  0
  5 13  1  0  0  0  0
  6 17  1  0  0  0  0
  6 15  1  1  0  0  0
  7  2  1  0  0  0  0
  9  3  1  0  0  0  0
 10  3  1  0  0  0  0
 12  4  1  0  0  0  0
 14  5  1  0  0  0  0
 16 17  2  0  0  0  0
 16 27  1  0  0  0  0
 17 18  1  0  0  0  0
 18 19  1  0  0  0  0
 18 20  2  0  0  0  0
 20 21  1  0  0  0  0
 21 23  1  0  0  0  0
 21 22  1  0  0  0  0
 23 24  1  0  0  0  0
 25 23  2  0  0  0  0
 26 20  1  0  0  0  0
 26 25  1  0  0  0  0
 27 26  2  0  0  0  0
 28 29  1  0  0  0  0
 28  1  1  0  0  0  0
 30 28  1  0  0  0  0
 31 34  1  6  0  0  0
 31 33  1  0  0  0  0
 31 39  1  0  0  0  0
 31 32  1  0  0  0  0
 32 36  1  0  0  0  0
 33 37  1  6  0  0  0
 33 28  1  0  0  0  0
 33 32  1  0  0  0  0
 35 32  1  0  0  0  0
 38 43  1  0  0  0  0
 38 44  1  0  0  0  0
 39 38  2  0  0  0  0
 40 41  2  0  0  0  0
 40 39  1  0  0  0  0
 41 42  1  0  0  0  0
 42 46  1  0  0  0  0
 42 43  2  0  0  0  0
 45 40  1  0  0  0  0
M  END
>  <minimizedAffinity>
-6.17357731

$$$$

 OpenBabel03252500333D

 46 50  0  0  1  0  0  0  0  0999 V2000
   37.0510   28.6720   40.8970 N   0  0  0  0  0  0  0  0  0  0  0  0
   37.0660   29.7800   41.7910 C   0  0  0  0  0  0  0  0  0  0  0  0
   38.2220   29.6810   42.7710 C   0  0  0  0  0  0  0  0  0  0  0  0
   37.9240   28.4720   43.6460 C   0  0  0  0  0  0  0  0  0  0  0  0
   37.9320   27.2800   42.7140 C   0  0  0  0  0  0  0  0  0  0  0  0
   36.9760   27.4490   41.5470 C   0  0  2  0  0  0  0  0  0  0  0  0
   36.8640   30.7610   41.3960 H   0  0  0  0  0  0  0  0  0  0  0  0
   36.1550   29.5900   42.4440 H   0  0  0  0  0  0  0  0  0  0  0  0
   39.1800   29.4610   42.2500 H   0  0  0  0  0  0  0  0  0  0  0  0
   38.2930   30.5880   43.3810 H   0  0  0  0  0  0  0  0  0  0  0  0
   36.9460   28.5940   44.1520 H   0  0  0  0  0  0  0  0  0  0  0  0
   38.7290   28.2870   44.3780 H   0  0  0  0  0  0  0  0  0  0  0  0
   37.6010   26.3600   43.2600 H   0  0  0  0  0  0  0  0  0  0  0  0
   38.9710   27.1110   42.4000 H   0  0  0  0  0  0  0  0  0  0  0  0
   35.9720   27.4820   42.0900 H   0  0  0  0  0  0  0  0  0  0  0  0
   36.3870   25.9220   39.5830 C   0  0  0  0  0  3  0  0  0  0  0  0
   36.9770   26.2050   40.7930 C   0  0  0  0  0  0  0  0  0  0  0  0
   37.6310   25.0630   41.2860 C   0  0  0  0  0  0  0  0  0  0  0  0
   38.1510   25.1460   42.2570 H   0  0  0  0  0  0  0  0  0  0  0  0
   37.7070   23.8200   40.6960 C   0  0  0  0  0  0  0  0  0  0  0  0
   38.2950   22.6720   41.0720 N   0  0  0  0  0  0  0  0  0  0  0  0
   38.8440   22.4920   41.9390 H   0  0  0  0  0  0  0  0  0  0  0  0
   38.0330   21.7870   40.0930 C   0  0  0  0  0  0  0  0  0  0  0  0
   38.3290   20.7460   40.0120 H   0  0  0  0  0  0  0  0  0  0  0  0
   37.2780   22.3670   39.0940 C   0  0  0  0  0  3  0  0  0  0  0  0
   37.0750   23.6710   39.4900 C   0  0  0  0  0  0  0  0  0  0  0  0
   36.4000   24.7230   38.9080 C   0  0  0  0  0  3  0  0  0  0  0  0
   37.7260   28.8550   39.6670 C   0  0  0  0  0  0  0  0  0  0  0  0
   38.3760   28.0330   39.3790 H   0  0  0  0  0  0  0  0  0  0  0  0
   38.3810   29.7720   39.7660 H   0  0  0  0  0  0  0  0  0  0  0  0
   36.8020   30.6300   37.9950 C   0  0  1  0  0  0  0  0  0  0  0  0
   37.1320   29.4740   37.2450 C   0  0  0  0  0  0  0  0  0  0  0  0
   36.7060   29.2350   38.6470 C   0  0  1  0  0  0  0  0  0  0  0  0
   35.8300   31.1570   37.8100 H   0  0  0  0  0  0  0  0  0  0  0  0
   36.4550   29.1480   36.4080 H   0  0  0  0  0  0  0  0  0  0  0  0
   38.1870   29.1850   37.0040 H   0  0  0  0  0  0  0  0  0  0  0  0
   35.6690   29.0430   38.9440 H   0  0  0  0  0  0  0  0  0  0  0  0
   37.2950   32.5300   39.5280 C   0  0  0  0  0  0  0  0  0  0  0  0
   37.7820   31.5840   38.5800 C   0  0  0  0  0  0  0  0  0  0  0  0
   39.1150   31.6120   38.2620 C   0  0  0  0  0  0  0  0  0  0  0  0
   39.9010   32.5550   38.8800 N   0  0  0  0  0  0  0  0  0  0  0  0
   39.4200   33.4400   39.7740 C   0  0  0  0  0  0  0  0  0  0  0  0
   38.0960   33.4440   40.1180 N   0  0  0  0  0  0  0  0  0  0  0  0
   36.2430   32.5110   39.7810 H   0  0  0  0  0  0  0  0  0  0  0  0
   39.4980   30.9150   37.5570 H   0  0  0  0  0  0  0  0  0  0  0  0
   40.1010   34.1540   40.2200 H   0  0  0  0  0  0  0  0  0  0  0  0
  1  6  1  0  0  0  0
  1  2  1  0  0  0  0
  2  8  1  0  0  0  0
  2  3  1  0  0  0  0
  3 10  1  0  0  0  0
  3  4  1  0  0  0  0
  4 11  1  0  0  0  0
  4 12  1  0  0  0  0
  5 13  1  0  0  0  0
  5  4  1  0  0  0  0
  6 15  1  1  0  0  0
  6  5  1  0  0  0  0
  7  2  1  0  0  0  0
  9  3  1  0  0  0  0
 14  5  1  0  0  0  0
 16 17  1  0  0  0  0
 17 18  2  0  0  0  0
 17  6  1  0  0  0  0
 18 19  1  0  0  0  0
 20 21  1  0  0  0  0
 20 18  1  0  0  0  0
 21 22  1  0  0  0  0
 23 21  1  0  0  0  0
 24 23  1  0  0  0  0
 25 26  1  0  0  0  0
 25 23  2  0  0  0  0
 26 20  2  0  0  0  0
 27 26  1  0  0  0  0
 27 16  2  0  0  0  0
 28 30  1  0  0  0  0
 28  1  1  0  0  0  0
 29 28  1  0  0  0  0
 31 34  1  6  0  0  0
 31 39  1  0  0  0  0
 31 33  1  0  0  0  0
 32 31  1  0  0  0  0
 32 33  1  0  0  0  0
 33 37  1  1  0  0  0
 33 28  1  0  0  0  0
 35 32  1  0  0  0  0
 36 32  1  0  0  0  0
 38 44  1  0  0  0  0
 38 43  1  0  0  0  0
 39 38  2  0  0  0  0
 40 39  1  0  0  0  0
 40 41  2  0  0  0  0
 41 42  1  0  0  0  0
 42 43  2  0  0  0  0
 42 46  1  0  0  0  0
 45 40  1  0  0  0  0
M  END
>  <minimizedAffinity>
-6.1065197

$$$$

 OpenBabel03252500333D

 46 50  0  0  1  0  0  0  0  0999 V2000
   37.1690   29.5400   41.6670 N   0  0  0  0  0  0  0  0  0  0  0  0
   37.6940   29.3080   42.9700 C   0  0  0  0  0  0  0  0  0  0  0  0
   38.5100   28.0270   43.0150 C   0  0  0  0  0  0  0  0  0  0  0  0
   37.5210   26.8950   42.7790 C   0  0  0  0  0  0  0  0  0  0  0  0
   36.9730   27.1120   41.3840 C   0  0  0  0  0  0  0  0  0  0  0  0
   36.3810   28.4980   41.2030 C   0  0  2  0  0  0  0  0  0  0  0  0
   38.0940   30.1420   43.5190 H   0  0  0  0  0  0  0  0  0  0  0  0
   36.7650   29.0450   43.5730 H   0  0  0  0  0  0  0  0  0  0  0  0
   39.2420   27.9810   42.1780 H   0  0  0  0  0  0  0  0  0  0  0  0
   39.0000   27.9120   43.9880 H   0  0  0  0  0  0  0  0  0  0  0  0
   36.7200   26.9160   43.5440 H   0  0  0  0  0  0  0  0  0  0  0  0
   38.0210   25.9110   42.7560 H   0  0  0  0  0  0  0  0  0  0  0  0
   36.1460   26.3870   41.1760 H   0  0  0  0  0  0  0  0  0  0  0  0
   37.7810   26.8910   40.6730 H   0  0  0  0  0  0  0  0  0  0  0  0
   35.5080   28.4600   41.9370 H   0  0  0  0  0  0  0  0  0  0  0  0
   36.3620   28.3110   38.6540 C   0  0  0  0  0  3  0  0  0  0  0  0
   35.7830   28.5510   39.8780 C   0  0  0  0  0  0  0  0  0  0  0  0
   34.4330   28.9030   39.7100 C   0  0  0  0  0  0  0  0  0  0  0  0
   33.8420   29.1260   40.6150 H   0  0  0  0  0  0  0  0  0  0  0  0
   33.7350   29.0090   38.5260 C   0  0  0  0  0  0  0  0  0  0  0  0
   32.4610   29.3340   38.2500 N   0  0  0  0  0  0  0  0  0  0  0  0
   31.7070   29.5840   38.9240 H   0  0  0  0  0  0  0  0  0  0  0  0
   32.3480   29.2730   36.9100 C   0  0  0  0  0  0  0  0  0  0  0  0
   31.4820   29.4630   36.2860 H   0  0  0  0  0  0  0  0  0  0  0  0
   33.5470   28.9100   36.3310 C   0  0  0  0  0  3  0  0  0  0  0  0
   34.4300   28.7430   37.3760 C   0  0  0  0  0  0  0  0  0  0  0  0
   35.7610   28.3870   37.4170 C   0  0  0  0  0  3  0  0  0  0  0  0
   37.9530   30.3560   40.8170 C   0  0  0  0  0  0  0  0  0  0  0  0
   38.3140   29.8630   39.9200 H   0  0  0  0  0  0  0  0  0  0  0  0
   38.8640   30.6860   41.4010 H   0  0  0  0  0  0  0  0  0  0  0  0
   37.9120   32.7910   39.8840 C   0  0  1  0  0  0  0  0  0  0  0  0
   36.9270   32.0520   39.1820 C   0  0  0  0  0  0  0  0  0  0  0  0
   37.1910   31.6160   40.5760 C   0  0  1  0  0  0  0  0  0  0  0  0
   37.6720   33.8160   40.2700 H   0  0  0  0  0  0  0  0  0  0  0  0
   35.9410   32.5380   38.9420 H   0  0  0  0  0  0  0  0  0  0  0  0
   37.1780   31.3060   38.3860 H   0  0  0  0  0  0  0  0  0  0  0  0
   36.6400   31.9910   41.4460 H   0  0  0  0  0  0  0  0  0  0  0  0
   39.8400   32.1710   38.4340 C   0  0  0  0  0  0  0  0  0  0  0  0
   39.3820   32.6640   39.6900 C   0  0  0  0  0  0  0  0  0  0  0  0
   40.3150   32.9840   40.6410 C   0  0  0  0  0  0  0  0  0  0  0  0
   41.6400   32.8100   40.3220 N   0  0  0  0  0  0  0  0  0  0  0  0
   42.0520   32.3430   39.1280 C   0  0  0  0  0  0  0  0  0  0  0  0
   41.1520   32.0120   38.1530 N   0  0  0  0  0  0  0  0  0  0  0  0
   39.1050   31.9170   37.6810 H   0  0  0  0  0  0  0  0  0  0  0  0
   39.9930   33.3530   41.5850 H   0  0  0  0  0  0  0  0  0  0  0  0
   43.1150   32.2330   38.9490 H   0  0  0  0  0  0  0  0  0  0  0  0
  1  2  1  0  0  0  0
  2  3  1  0  0  0  0
  2  7  1  0  0  0  0
  2  8  1  0  0  0  0
  3 10  1  0  0  0  0
  4  3  1  0  0  0  0
  4 11  1  0  0  0  0
  5  4  1  0  0  0  0
  6  5  1  0  0  0  0
  6  1  1  0  0  0  0
  6 15  1  1  0  0  0
  9  3  1  0  0  0  0
 12  4  1  0  0  0  0
 13  5  1  0  0  0  0
 14  5  1  0  0  0  0
 16 17  1  0  0  0  0
 17  6  1  0  0  0  0
 18 17  2  0  0  0  0
 18 19  1  0  0  0  0
 20 18  1  0  0  0  0
 21 20  1  0  0  0  0
 21 22  1  0  0  0  0
 23 21  1  0  0  0  0
 24 23  1  0  0  0  0
 25 23  2  0  0  0  0
 25 26  1  0  0  0  0
 26 27  1  0  0  0  0
 26 20  2  0  0  0  0
 27 16  2  0  0  0  0
 28 30  1  0  0  0  0
 28  1  1  0  0  0  0
 29 28  1  0  0  0  0
 31 34  1  1  0  0  0
 31 33  1  0  0  0  0
 32 31  1  0  0  0  0
 32 33  1  0  0  0  0
 33 28  1  0  0  0  0
 33 37  1  1  0  0  0
 35 32  1  0  0  0  0
 36 32  1  0  0  0  0
 38 39  1  0  0  0  0
 39 31  1  0  0  0  0
 39 40  2  0  0  0  0
 40 45  1  0  0  0  0
 41 40  1  0  0  0  0
 42 41  2  0  0  0  0
 43 38  2  0  0  0  0
 43 42  1  0  0  0  0
 44 38  1  0  0  0  0
 46 42  1  0  0  0  0
M  END
>  <minimizedAffinity>
-6.02693844

$$$$

 OpenBabel03252500333D

 46 50  0  0  1  0  0  0  0  0999 V2000
   36.7470   26.3410   40.3360 N   0  0  0  0  0  0  0  0  0  0  0  0
   36.4760   25.0180   39.8830 C   0  0  0  0  0  0  0  0  0  0  0  0
   37.0960   24.7660   38.5190 C   0  0  0  0  0  0  0  0  0  0  0  0
   36.3540   25.6750   37.5500 C   0  0  0  0  0  0  0  0  0  0  0  0
   36.6550   27.0880   38.0020 C   0  0  0  0  0  0  0  0  0  0  0  0
   36.3010   27.3190   39.4600 C   0  0  2  0  0  0  0  0  0  0  0  0
   36.5440   24.2090   40.5890 H   0  0  0  0  0  0  0  0  0  0  0  0
   35.3620   25.0510   39.6590 H   0  0  0  0  0  0  0  0  0  0  0  0
   38.1620   25.0830   38.4910 H   0  0  0  0  0  0  0  0  0  0  0  0
   36.9790   23.7160   38.2270 H   0  0  0  0  0  0  0  0  0  0  0  0
   35.2690   25.4570   37.5710 H   0  0  0  0  0  0  0  0  0  0  0  0
   36.7550   25.5950   36.5240 H   0  0  0  0  0  0  0  0  0  0  0  0
   36.0470   27.8200   37.4110 H   0  0  0  0  0  0  0  0  0  0  0  0
   37.7110   27.2910   37.7760 H   0  0  0  0  0  0  0  0  0  0  0  0
   35.1680   27.1750   39.4340 H   0  0  0  0  0  0  0  0  0  0  0  0
   35.7870   29.5710   40.5540 C   0  0  0  0  0  3  0  0  0  0  0  0
   36.5160   28.7280   39.7470 C   0  0  0  0  0  0  0  0  0  0  0  0
   37.5810   29.4300   39.1580 C   0  0  0  0  0  0  0  0  0  0  0  0
   38.2530   28.8740   38.4810 H   0  0  0  0  0  0  0  0  0  0  0  0
   37.9020   30.7610   39.3220 C   0  0  0  0  0  0  0  0  0  0  0  0
   38.8820   31.5270   38.8160 N   0  0  0  0  0  0  0  0  0  0  0  0
   39.6380   31.2410   38.1580 H   0  0  0  0  0  0  0  0  0  0  0  0
   38.6930   32.7550   39.3320 C   0  0  0  0  0  0  0  0  0  0  0  0
   39.2680   33.6610   39.1750 H   0  0  0  0  0  0  0  0  0  0  0  0
   37.5940   32.7740   40.1670 C   0  0  0  0  0  3  0  0  0  0  0  0
   37.0940   31.4900   40.1540 C   0  0  0  0  0  0  0  0  0  0  0  0
   36.0180   30.9080   40.7880 C   0  0  0  0  0  3  0  0  0  0  0  0
   37.8930   26.4970   41.1520 C   0  0  0  0  0  0  0  0  0  0  0  0
   38.4670   27.3980   40.9600 H   0  0  0  0  0  0  0  0  0  0  0  0
   38.5800   25.6210   40.9530 H   0  0  0  0  0  0  0  0  0  0  0  0
   37.9950   27.3010   43.6310 C   0  0  1  0  0  0  0  0  0  0  0  0
   36.6400   27.3680   43.2200 C   0  0  0  0  0  0  0  0  0  0  0  0
   37.4620   26.3170   42.5690 C   0  0  1  0  0  0  0  0  0  0  0  0
   38.2550   26.8600   44.6280 H   0  0  0  0  0  0  0  0  0  0  0  0
   35.8310   27.0590   43.9370 H   0  0  0  0  0  0  0  0  0  0  0  0
   36.2490   28.1670   42.5390 H   0  0  0  0  0  0  0  0  0  0  0  0
   37.5500   25.2920   42.9470 H   0  0  0  0  0  0  0  0  0  0  0  0
   38.6930   29.5810   42.9140 C   0  0  0  0  0  0  0  0  0  0  0  0
   39.0690   28.2390   43.2060 C   0  0  0  0  0  0  0  0  0  0  0  0
   40.3880   27.8910   43.0750 C   0  0  0  0  0  0  0  0  0  0  0  0
   41.2690   28.8640   42.6670 N   0  0  0  0  0  0  0  0  0  0  0  0
   40.8930   30.1280   42.3970 C   0  0  0  0  0  0  0  0  0  0  0  0
   39.5860   30.5140   42.5160 N   0  0  0  0  0  0  0  0  0  0  0  0
   37.6520   29.8590   43.0160 H   0  0  0  0  0  0  0  0  0  0  0  0
   40.6890   26.8940   43.2870 H   0  0  0  0  0  0  0  0  0  0  0  0
   41.6450   30.8400   42.0810 H   0  0  0  0  0  0  0  0  0  0  0  0
  1 28  1  0  0  0  0
  2  1  1  0  0  0  0
  2  7  1  0  0  0  0
  3  2  1  0  0  0  0
  4 11  1  0  0  0  0
  4  5  1  0  0  0  0
  4  3  1  0  0  0  0
  5  6  1  0  0  0  0
  6 15  1  1  0  0  0
  6 17  1  0  0  0  0
  6  1  1  0  0  0  0
  8  2  1  0  0  0  0
  9  3  1  0  0  0  0
 10  3  1  0  0  0  0
 12  4  1  0  0  0  0
 13  5  1  0  0  0  0
 14  5  1  0  0  0  0
 16 27  1  0  0  0  0
 17 16  2  0  0  0  0
 18 20  2  0  0  0  0
 18 17  1  0  0  0  0
 19 18  1  0  0  0  0
 20 26  1  0  0  0  0
 21 20  1  0  0  0  0
 21 23  1  0  0  0  0
 22 21  1  0  0  0  0
 23 25  2  0  0  0  0
 24 23  1  0  0  0  0
 26 25  1  0  0  0  0
 26 27  2  0  0  0  0
 28 33  1  0  0  0  0
 29 28  1  0  0  0  0
 30 28  1  0  0  0  0
 31 34  1  1  0  0  0
 32 31  1  0  0  0  0
 32 35  1  0  0  0  0
 33 37  1  1  0  0  0
 33 32  1  0  0  0  0
 33 31  1  0  0  0  0
 36 32  1  0  0  0  0
 38 44  1  0  0  0  0
 38 39  1  0  0  0  0
 39 31  1  0  0  0  0
 40 39  2  0  0  0  0
 40 45  1  0  0  0  0
 41 40  1  0  0  0  0
 42 43  1  0  0  0  0
 42 41  2  0  0  0  0
 43 38  2  0  0  0  0
 46 42  1  0  0  0  0
M  END
>  <minimizedAffinity>
-5.91554737

$$$$

 OpenBabel03252500333D

 46 50  0  0  1  0  0  0  0  0999 V2000
   35.7070   28.8070   38.7070 N   0  0  0  0  0  0  0  0  0  0  0  0
   34.6670   28.0580   38.0850 C   0  0  0  0  0  0  0  0  0  0  0  0
   35.1390   27.4420   36.7790 C   0  0  0  0  0  0  0  0  0  0  0  0
   35.4010   28.6090   35.8390 C   0  0  0  0  0  0  0  0  0  0  0  0
   36.5250   29.4010   36.4720 C   0  0  0  0  0  0  0  0  0  0  0  0
   36.2110   29.8150   37.8980 C   0  0  2  0  0  0  0  0  0  0  0  0
   34.0430   27.4370   38.7020 H   0  0  0  0  0  0  0  0  0  0  0  0
   33.9440   28.8670   37.7440 H   0  0  0  0  0  0  0  0  0  0  0  0
   36.1110   26.9170   36.9040 H   0  0  0  0  0  0  0  0  0  0  0  0
   34.3710   26.7790   36.3630 H   0  0  0  0  0  0  0  0  0  0  0  0
   34.4850   29.2190   35.7150 H   0  0  0  0  0  0  0  0  0  0  0  0
   35.7860   28.2700   34.8610 H   0  0  0  0  0  0  0  0  0  0  0  0
   36.7000   30.3490   35.9010 H   0  0  0  0  0  0  0  0  0  0  0  0
   37.4410   28.8020   36.3890 H   0  0  0  0  0  0  0  0  0  0  0  0
   35.3210   30.5110   37.7330 H   0  0  0  0  0  0  0  0  0  0  0  0
   38.6430   30.5770   38.0910 C   0  0  0  0  0  3  0  0  0  0  0  0
   37.2970   30.6650   38.3600 C   0  0  0  0  0  0  0  0  0  0  0  0
   37.0490   31.7490   39.2200 C   0  0  0  0  0  0  0  0  0  0  0  0
   36.0050   31.9390   39.5220 H   0  0  0  0  0  0  0  0  0  0  0  0
   37.9710   32.6280   39.7480 C   0  0  0  0  0  0  0  0  0  0  0  0
   37.8500   33.6840   40.5690 N   0  0  0  0  0  0  0  0  0  0  0  0
   36.9760   34.0660   40.9900 H   0  0  0  0  0  0  0  0  0  0  0  0
   39.0960   34.1600   40.7430 C   0  0  0  0  0  0  0  0  0  0  0  0
   39.4310   35.0050   41.3340 H   0  0  0  0  0  0  0  0  0  0  0  0
   40.0130   33.4090   40.0350 C   0  0  0  0  0  3  0  0  0  0  0  0
   39.2810   32.4290   39.4000 C   0  0  0  0  0  0  0  0  0  0  0  0
   39.6440   31.3970   38.5620 C   0  0  0  0  0  3  0  0  0  0  0  0
   36.4920   28.1120   39.6570 C   0  0  0  0  0  0  0  0  0  0  0  0
   37.5630   28.1660   39.4880 H   0  0  0  0  0  0  0  0  0  0  0  0
   36.2060   27.0190   39.6060 H   0  0  0  0  0  0  0  0  0  0  0  0
   36.6390   27.8350   42.2460 C   0  0  1  0  0  0  0  0  0  0  0  0
   37.0330   29.1610   41.9390 C   0  0  0  0  0  0  0  0  0  0  0  0
   36.0490   28.5490   41.0130 C   0  0  1  0  0  0  0  0  0  0  0  0
   35.9310   27.6460   43.0940 H   0  0  0  0  0  0  0  0  0  0  0  0
   36.7020   30.0040   42.6070 H   0  0  0  0  0  0  0  0  0  0  0  0
   38.0290   29.4120   41.4900 H   0  0  0  0  0  0  0  0  0  0  0  0
   34.9630   28.6410   41.1310 H   0  0  0  0  0  0  0  0  0  0  0  0
   38.8620   26.7850   41.8490 C   0  0  0  0  0  0  0  0  0  0  0  0
   37.4550   26.6160   41.9970 C   0  0  0  0  0  0  0  0  0  0  0  0
   36.9390   25.3510   41.8960 C   0  0  0  0  0  0  0  0  0  0  0  0
   37.8150   24.3190   41.6570 N   0  0  0  0  0  0  0  0  0  0  0  0
   39.1420   24.5010   41.5220 C   0  0  0  0  0  0  0  0  0  0  0  0
   39.6950   25.7470   41.6160 N   0  0  0  0  0  0  0  0  0  0  0  0
   39.2720   27.7830   41.9280 H   0  0  0  0  0  0  0  0  0  0  0  0
   35.8910   25.2050   42.0020 H   0  0  0  0  0  0  0  0  0  0  0  0
   39.7700   23.6380   41.3360 H   0  0  0  0  0  0  0  0  0  0  0  0
  1 28  1  0  0  0  0
  2  7  1  0  0  0  0
  2  1  1  0  0  0  0
  3  9  1  0  0  0  0
  3  2  1  0  0  0  0
  4  5  1  0  0  0  0
  4  3  1  0  0  0  0
  5  6  1  0  0  0  0
  6 15  1  6  0  0  0
  6 17  1  0  0  0  0
  6  1  1  0  0  0  0
  8  2  1  0  0  0  0
 10  3  1  0  0  0  0
 11  4  1  0  0  0  0
 12  4  1  0  0  0  0
 13  5  1  0  0  0  0
 14  5  1  0  0  0  0
 16 17  2  0  0  0  0
 16 27  1  0  0  0  0
 17 18  1  0  0  0  0
 18 19  1  0  0  0  0
 18 20  2  0  0  0  0
 20 21  1  0  0  0  0
 21 23  1  0  0  0  0
 21 22  1  0  0  0  0
 23 24  1  0  0  0  0
 25 23  2  0  0  0  0
 26 20  1  0  0  0  0
 26 25  1  0  0  0  0
 27 26  2  0  0  0  0
 28 33  1  0  0  0  0
 29 28  1  0  0  0  0
 30 28  1  0  0  0  0
 31 34  1  1  0  0  0
 32 31  1  0  0  0  0
 32 35  1  0  0  0  0
 33 37  1  1  0  0  0
 33 32  1  0  0  0  0
 33 31  1  0  0  0  0
 36 32  1  0  0  0  0
 38 44  1  0  0  0  0
 38 39  1  0  0  0  0
 39 31  1  0  0  0  0
 40 39  2  0  0  0  0
 40 45  1  0  0  0  0
 41 40  1  0  0  0  0
 42 43  1  0  0  0  0
 42 41  2  0  0  0  0
 43 38  2  0  0  0  0
 46 42  1  0  0  0  0
M  END
>  <minimizedAffinity>
-5.89857769

$$$$

 OpenBabel03252500333D

 46 50  0  0  1  0  0  0  0  0999 V2000
   37.6000   29.6500   41.8250 N   0  0  0  0  0  0  0  0  0  0  0  0
   38.3500   29.5420   43.0310 C   0  0  0  0  0  0  0  0  0  0  0  0
   39.1440   28.2470   43.0710 C   0  0  0  0  0  0  0  0  0  0  0  0
   38.1130   27.1300   43.1440 C   0  0  0  0  0  0  0  0  0  0  0  0
   37.3250   27.2140   41.8550 C   0  0  0  0  0  0  0  0  0  0  0  0
   36.7280   28.5910   41.6280 C   0  0  2  0  0  0  0  0  0  0  0  0
   38.8540   30.4170   43.4030 H   0  0  0  0  0  0  0  0  0  0  0  0
   37.5430   29.3760   43.8150 H   0  0  0  0  0  0  0  0  0  0  0  0
   39.7110   28.0880   42.1280 H   0  0  0  0  0  0  0  0  0  0  0  0
   39.8000   28.2210   43.9480 H   0  0  0  0  0  0  0  0  0  0  0  0
   37.4650   27.2590   44.0330 H   0  0  0  0  0  0  0  0  0  0  0  0
   38.5890   26.1330   43.1420 H   0  0  0  0  0  0  0  0  0  0  0  0
   36.4640   26.4980   41.8800 H   0  0  0  0  0  0  0  0  0  0  0  0
   37.9870   26.8910   41.0400 H   0  0  0  0  0  0  0  0  0  0  0  0
   36.0020   28.6600   42.5070 H   0  0  0  0  0  0  0  0  0  0  0  0
   34.7630   29.2280   40.1240 C   0  0  0  0  0  3  0  0  0  0  0  0
   35.9010   28.5210   40.4340 C   0  0  0  0  0  0  0  0  0  0  0  0
   36.2090   27.6270   39.3940 C   0  0  0  0  0  0  0  0  0  0  0  0
   37.1030   26.9910   39.5110 H   0  0  0  0  0  0  0  0  0  0  0  0
   35.5170   27.4390   38.2170 C   0  0  0  0  0  0  0  0  0  0  0  0
   35.7160   26.6250   37.1680 N   0  0  0  0  0  0  0  0  0  0  0  0
   36.4850   25.9330   37.0350 H   0  0  0  0  0  0  0  0  0  0  0  0
   34.7130   26.8800   36.3080 C   0  0  0  0  0  0  0  0  0  0  0  0
   34.5100   26.4360   35.3390 H   0  0  0  0  0  0  0  0  0  0  0  0
   33.8740   27.8560   36.8060 C   0  0  0  0  0  3  0  0  0  0  0  0
   34.3990   28.2090   38.0310 C   0  0  0  0  0  0  0  0  0  0  0  0
   33.9990   29.1210   38.9830 C   0  0  0  0  0  3  0  0  0  0  0  0
   38.2280   30.3440   40.7630 C   0  0  0  0  0  0  0  0  0  0  0  0
   38.2970   29.7860   39.8340 H   0  0  0  0  0  0  0  0  0  0  0  0
   39.2870   30.5800   41.0830 H   0  0  0  0  0  0  0  0  0  0  0  0
   38.1800   32.7190   39.6850 C   0  0  1  0  0  0  0  0  0  0  0  0
   36.9600   32.0780   39.3530 C   0  0  0  0  0  0  0  0  0  0  0  0
   37.5690   31.6780   40.6460 C   0  0  1  0  0  0  0  0  0  0  0  0
   38.1740   33.7820   40.0400 H   0  0  0  0  0  0  0  0  0  0  0  0
   36.0050   32.6730   39.3620 H   0  0  0  0  0  0  0  0  0  0  0  0
   36.8880   31.2700   38.5810 H   0  0  0  0  0  0  0  0  0  0  0  0
   37.3370   32.1580   41.6030 H   0  0  0  0  0  0  0  0  0  0  0  0
   40.6650   32.7580   39.8450 C   0  0  0  0  0  0  0  0  0  0  0  0
   39.5080   32.3980   39.0960 C   0  0  0  0  0  0  0  0  0  0  0  0
   39.6860   31.7860   37.8830 C   0  0  0  0  0  0  0  0  0  0  0  0
   40.9740   31.5570   37.4630 N   0  0  0  0  0  0  0  0  0  0  0  0
   42.0540   31.9060   38.1880 C   0  0  0  0  0  0  0  0  0  0  0  0
   41.9190   32.5180   39.4030 N   0  0  0  0  0  0  0  0  0  0  0  0
   40.5280   33.2430   40.8030 H   0  0  0  0  0  0  0  0  0  0  0  0
   38.8350   31.5100   37.3080 H   0  0  0  0  0  0  0  0  0  0  0  0
   43.0390   31.6920   37.7910 H   0  0  0  0  0  0  0  0  0  0  0  0
  1  2  1  0  0  0  0
  2  3  1  0  0  0  0
  2  7  1  0  0  0  0
  2  8  1  0  0  0  0
  3  4  1  0  0  0  0
  3 10  1  0  0  0  0
  4 11  1  0  0  0  0
  5 13  1  0  0  0  0
  5  4  1  0  0  0  0
  6  1  1  0  0  0  0
  6  5  1  0  0  0  0
  6 15  1  1  0  0  0
  9  3  1  0  0  0  0
 12  4  1  0  0  0  0
 14  5  1  0  0  0  0
 16 17  1  0  0  0  0
 17  6  1  0  0  0  0
 18 19  1  0  0  0  0
 18 17  2  0  0  0  0
 20 18  1  0  0  0  0
 21 20  1  0  0  0  0
 22 21  1  0  0  0  0
 23 25  2  0  0  0  0
 23 21  1  0  0  0  0
 24 23  1  0  0  0  0
 25 26  1  0  0  0  0
 26 20  2  0  0  0  0
 26 27  1  0  0  0  0
 27 16  2  0  0  0  0
 28 30  1  0  0  0  0
 28  1  1  0  0  0  0
 29 28  1  0  0  0  0
 31 34  1  1  0  0  0
 31 33  1  0  0  0  0
 32 35  1  0  0  0  0
 32 31  1  0  0  0  0
 32 33  1  0  0  0  0
 33 28  1  0  0  0  0
 33 37  1  1  0  0  0
 36 32  1  0  0  0  0
 38 44  1  0  0  0  0
 39 31  1  0  0  0  0
 39 38  2  0  0  0  0
 40 39  1  0  0  0  0
 41 40  2  0  0  0  0
 41 42  1  0  0  0  0
 42 43  2  0  0  0  0
 43 38  1  0  0  0  0
 45 40  1  0  0  0  0
 46 42  1  0  0  0  0
M  END
>  <minimizedAffinity>
-5.82867908

$$$$

 OpenBabel03252500333D

 46 50  0  0  1  0  0  0  0  0999 V2000
   37.1810   25.7650   41.1850 N   0  0  0  0  0  0  0  0  0  0  0  0
   37.1840   24.4040   41.6030 C   0  0  0  0  0  0  0  0  0  0  0  0
   38.0300   23.5460   40.6770 C   0  0  0  0  0  0  0  0  0  0  0  0
   37.3100   23.5460   39.3360 C   0  0  0  0  0  0  0  0  0  0  0  0
   37.3230   24.9840   38.8640 C   0  0  0  0  0  0  0  0  0  0  0  0
   36.7260   25.9360   39.8850 C   0  0  2  0  0  0  0  0  0  0  0  0
   37.2680   24.1900   42.6540 H   0  0  0  0  0  0  0  0  0  0  0  0
   36.1230   24.0670   41.3710 H   0  0  0  0  0  0  0  0  0  0  0  0
   39.0270   24.0040   40.4970 H   0  0  0  0  0  0  0  0  0  0  0  0
   38.1170   22.5250   41.0660 H   0  0  0  0  0  0  0  0  0  0  0  0
   36.2790   23.1580   39.4510 H   0  0  0  0  0  0  0  0  0  0  0  0
   37.8660   22.9740   38.5730 H   0  0  0  0  0  0  0  0  0  0  0  0
   36.7060   25.0920   37.9360 H   0  0  0  0  0  0  0  0  0  0  0  0
   38.3570   25.2350   38.5930 H   0  0  0  0  0  0  0  0  0  0  0  0
   35.6450   25.5700   39.9180 H   0  0  0  0  0  0  0  0  0  0  0  0
   35.5930   28.0620   39.0350 C   0  0  0  0  0  3  0  0  0  0  0  0
   36.6800   27.2580   39.2820 C   0  0  0  0  0  0  0  0  0  0  0  0
   37.8550   27.8890   38.8370 C   0  0  0  0  0  0  0  0  0  0  0  0
   38.8100   27.3530   38.9720 H   0  0  0  0  0  0  0  0  0  0  0  0
   37.9670   29.1250   38.2380 C   0  0  0  0  0  0  0  0  0  0  0  0
   39.0220   29.8180   37.7780 N   0  0  0  0  0  0  0  0  0  0  0  0
   40.0250   29.5330   37.7890 H   0  0  0  0  0  0  0  0  0  0  0  0
   38.5230   30.9690   37.2930 C   0  0  0  0  0  0  0  0  0  0  0  0
   39.0440   31.8030   36.8340 H   0  0  0  0  0  0  0  0  0  0  0  0
   37.1520   31.0140   37.4430 C   0  0  0  0  0  3  0  0  0  0  0  0
   36.8050   29.8250   38.0500 C   0  0  0  0  0  0  0  0  0  0  0  0
   35.5910   29.3070   38.4460 C   0  0  0  0  0  3  0  0  0  0  0  0
   38.1560   26.6010   41.7800 C   0  0  0  0  0  0  0  0  0  0  0  0
   38.3860   27.5010   41.2180 H   0  0  0  0  0  0  0  0  0  0  0  0
   39.1160   26.0090   41.8580 H   0  0  0  0  0  0  0  0  0  0  0  0
   37.5300   28.2850   43.6700 C   0  0  1  0  0  0  0  0  0  0  0  0
   36.4160   27.4290   43.4800 C   0  0  0  0  0  0  0  0  0  0  0  0
   37.7450   26.8330   43.1950 C   0  0  1  0  0  0  0  0  0  0  0  0
   37.8800   28.5220   44.7090 H   0  0  0  0  0  0  0  0  0  0  0  0
   35.8390   27.0680   44.3750 H   0  0  0  0  0  0  0  0  0  0  0  0
   35.7260   27.5140   42.6020 H   0  0  0  0  0  0  0  0  0  0  0  0
   38.3420   26.2920   43.9380 H   0  0  0  0  0  0  0  0  0  0  0  0
   39.3150   29.7730   42.7770 C   0  0  0  0  0  0  0  0  0  0  0  0
   37.9490   29.3700   42.7430 C   0  0  0  0  0  0  0  0  0  0  0  0
   37.1070   30.0040   41.8680 C   0  0  0  0  0  0  0  0  0  0  0  0
   37.6340   30.9940   41.0740 N   0  0  0  0  0  0  0  0  0  0  0  0
   38.9300   31.3590   41.1220 C   0  0  0  0  0  0  0  0  0  0  0  0
   39.8020   30.7510   41.9810 N   0  0  0  0  0  0  0  0  0  0  0  0
   39.9830   29.2750   43.4680 H   0  0  0  0  0  0  0  0  0  0  0  0
   36.0840   29.7180   41.8280 H   0  0  0  0  0  0  0  0  0  0  0  0
   39.2730   32.1480   40.4640 H   0  0  0  0  0  0  0  0  0  0  0  0
  1  2  1  0  0  0  0
  1 28  1  0  0  0  0
  2  7  1  0  0  0  0
  3 10  1  0  0  0  0
  3  2  1  0  0  0  0
  4 11  1  0  0  0  0
  4  3  1  0  0  0  0
  5  4  1  0  0  0  0
  5  6  1  0  0  0  0
  6 15  1  1  0  0  0
  6  1  1  0  0  0  0
  8  2  1  0  0  0  0
  9  3  1  0  0  0  0
 12  4  1  0  0  0  0
 13  5  1  0  0  0  0
 14  5  1  0  0  0  0
 16 17  1  0  0  0  0
 17  6  1  0  0  0  0
 18 19  1  0  0  0  0
 18 17  2  0  0  0  0
 20 18  1  0  0  0  0
 21 22  1  0  0  0  0
 21 20  1  0  0  0  0
 23 25  2  0  0  0  0
 23 21  1  0  0  0  0
 24 23  1  0  0  0  0
 25 26  1  0  0  0  0
 26 20  2  0  0  0  0
 26 27  1  0  0  0  0
 27 16  2  0  0  0  0
 28 30  1  0  0  0  0
 28 33  1  0  0  0  0
 29 28  1  0  0  0  0
 31 34  1  1  0  0  0
 32 31  1  0  0  0  0
 32 35  1  0  0  0  0
 33 32  1  0  0  0  0
 33 31  1  0  0  0  0
 33 37  1  1  0  0  0
 36 32  1  0  0  0  0
 38 44  1  0  0  0  0
 39 38  1  0  0  0  0
 39 31  1  0  0  0  0
 40 39  2  0  0  0  0
 41 42  2  0  0  0  0
 41 40  1  0  0  0  0
 42 43  1  0  0  0  0
 43 38  2  0  0  0  0
 45 40  1  0  0  0  0
 46 42  1  0  0  0  0
M  END
>  <minimizedAffinity>
-5.82132769

$$$$

 OpenBabel03252500333D

 46 50  0  0  1  0  0  0  0  0999 V2000
   39.2160   30.7430   41.6560 N   0  0  0  0  0  0  0  0  0  0  0  0
   40.1200   31.8360   41.7860 C   0  0  0  0  0  0  0  0  0  0  0  0
   41.5610   31.3800   41.6280 C   0  0  0  0  0  0  0  0  0  0  0  0
   41.8480   30.4860   42.8250 C   0  0  0  0  0  0  0  0  0  0  0  0
   40.9130   29.3030   42.6860 C   0  0  0  0  0  0  0  0  0  0  0  0
   39.4600   29.7240   42.5640 C   0  0  2  0  0  0  0  0  0  0  0  0
   39.8660   32.7710   41.3170 H   0  0  0  0  0  0  0  0  0  0  0  0
   40.0490   32.0920   42.8920 H   0  0  0  0  0  0  0  0  0  0  0  0
   41.6900   30.7440   40.7240 H   0  0  0  0  0  0  0  0  0  0  0  0
   42.2410   32.2390   41.6190 H   0  0  0  0  0  0  0  0  0  0  0  0
   41.6780   31.0380   43.7690 H   0  0  0  0  0  0  0  0  0  0  0  0
   42.8690   30.0680   42.7880 H   0  0  0  0  0  0  0  0  0  0  0  0
   40.9760   28.6520   43.5950 H   0  0  0  0  0  0  0  0  0  0  0  0
   41.2620   28.7020   41.8360 H   0  0  0  0  0  0  0  0  0  0  0  0
   39.2870   30.2100   43.5830 H   0  0  0  0  0  0  0  0  0  0  0  0
   37.4310   28.2840   43.1530 C   0  0  0  0  0  3  0  0  0  0  0  0
   38.6500   28.5150   42.5600 C   0  0  0  0  0  0  0  0  0  0  0  0
   39.0900   27.3560   41.8980 C   0  0  0  0  0  0  0  0  0  0  0  0
   40.0610   27.3980   41.3750 H   0  0  0  0  0  0  0  0  0  0  0  0
   38.4440   26.1400   41.8180 C   0  0  0  0  0  0  0  0  0  0  0  0
   38.7660   24.9800   41.2220 N   0  0  0  0  0  0  0  0  0  0  0  0
   39.6220   24.7640   40.6690 H   0  0  0  0  0  0  0  0  0  0  0  0
   37.7490   24.1390   41.4840 C   0  0  0  0  0  0  0  0  0  0  0  0
   37.6200   23.1040   41.1830 H   0  0  0  0  0  0  0  0  0  0  0  0
   36.7800   24.7590   42.2450 C   0  0  0  0  0  3  0  0  0  0  0  0
   37.2350   26.0430   42.4540 C   0  0  0  0  0  0  0  0  0  0  0  0
   36.7030   27.1160   43.1360 C   0  0  0  0  0  3  0  0  0  0  0  0
   38.6950   30.5170   40.3600 C   0  0  0  0  0  0  0  0  0  0  0  0
   38.6000   29.4710   40.0850 H   0  0  0  0  0  0  0  0  0  0  0  0
   39.4040   30.9900   39.6160 H   0  0  0  0  0  0  0  0  0  0  0  0
   36.2140   30.6580   39.5670 C   0  0  1  0  0  0  0  0  0  0  0  0
   36.2240   30.8790   40.9660 C   0  0  0  0  0  0  0  0  0  0  0  0
   37.4400   31.3150   40.2350 C   0  0  1  0  0  0  0  0  0  0  0  0
   35.6000   31.3200   38.9010 H   0  0  0  0  0  0  0  0  0  0  0  0
   35.5450   31.6600   41.4060 H   0  0  0  0  0  0  0  0  0  0  0  0
   36.3770   30.0560   41.7110 H   0  0  0  0  0  0  0  0  0  0  0  0
   37.5780   32.3230   39.8300 H   0  0  0  0  0  0  0  0  0  0  0  0
   36.0640   28.1730   39.6260 C   0  0  0  0  0  0  0  0  0  0  0  0
   36.4290   29.3450   38.9020 C   0  0  0  0  0  0  0  0  0  0  0  0
   36.9560   29.1930   37.6460 C   0  0  0  0  0  0  0  0  0  0  0  0
   37.1010   27.9150   37.1620 N   0  0  0  0  0  0  0  0  0  0  0  0
   36.7490   26.8210   37.8640 C   0  0  0  0  0  0  0  0  0  0  0  0
   36.2200   26.9300   39.1200 N   0  0  0  0  0  0  0  0  0  0  0  0
   35.6480   28.2890   40.6180 H   0  0  0  0  0  0  0  0  0  0  0  0
   37.2350   30.0550   37.0900 H   0  0  0  0  0  0  0  0  0  0  0  0
   36.8930   25.8450   37.4160 H   0  0  0  0  0  0  0  0  0  0  0  0
  1  2  1  0  0  0  0
  1  6  1  0  0  0  0
  2  8  1  0  0  0  0
  3  2  1  0  0  0  0
  3  4  1  0  0  0  0
  4 11  1  0  0  0  0
  5  4  1  0  0  0  0
  5 13  1  0  0  0  0
  6  5  1  0  0  0  0
  6 15  1  1  0  0  0
  7  2  1  0  0  0  0
  9  3  1  0  0  0  0
 10  3  1  0  0  0  0
 12  4  1  0  0  0  0
 14  5  1  0  0  0  0
 17  6  1  0  0  0  0
 17 16  2  0  0  0  0
 18 17  1  0  0  0  0
 19 18  1  0  0  0  0
 20 18  2  0  0  0  0
 20 26  1  0  0  0  0
 21 23  1  0  0  0  0
 21 20  1  0  0  0  0
 22 21  1  0  0  0  0
 23 25  2  0  0  0  0
 24 23  1  0  0  0  0
 25 26  1  0  0  0  0
 26 27  2  0  0  0  0
 27 16  1  0  0  0  0
 28  1  1  0  0  0  0
 29 28  1  0  0  0  0
 30 28  1  0  0  0  0
 31 34  1  6  0  0  0
 31 33  1  0  0  0  0
 31 32  1  0  0  0  0
 32 35  1  0  0  0  0
 32 36  1  0  0  0  0
 33 37  1  6  0  0  0
 33 28  1  0  0  0  0
 33 32  1  0  0  0  0
 38 44  1  0  0  0  0
 39 31  1  0  0  0  0
 39 38  2  0  0  0  0
 40 39  1  0  0  0  0
 41 40  2  0  0  0  0
 41 42  1  0  0  0  0
 42 43  2  0  0  0  0
 43 38  1  0  0  0  0
 45 40  1  0  0  0  0
 46 42  1  0  0  0  0
M  END
>  <minimizedAffinity>
-5.79954672

$$$$
