
 OpenBabel03252508593D

 48 51  0  0  1  0  0  0  0  0999 V2000
   47.1880   34.2220   43.4280 N   0  0  0  0  0  0  0  0  0  0  0  0
   46.7640   35.3930   42.7470 C   0  0  0  0  0  0  0  0  0  0  0  0
   45.2770   35.6490   42.7700 C   0  0  0  0  0  0  0  0  0  0  0  0
   44.5800   35.1730   44.0170 C   0  0  0  0  0  0  0  0  0  0  0  0
   45.5650   34.6510   45.0360 C   0  0  0  0  0  0  0  0  0  0  0  0
   46.3250   33.5200   44.2520 C   0  0  2  0  0  0  0  0  0  0  0  0
   47.2310   36.2540   43.2890 H   0  0  0  0  0  0  0  0  0  0  0  0
   47.0870   35.4850   41.7080 H   0  0  0  0  0  0  0  0  0  0  0  0
   45.1070   36.7650   42.7310 H   0  0  0  0  0  0  0  0  0  0  0  0
   44.7890   35.2560   41.8520 H   0  0  0  0  0  0  0  0  0  0  0  0
   43.8850   35.8890   44.4610 H   0  0  0  0  0  0  0  0  0  0  0  0
   43.9530   34.2960   43.7130 H   0  0  0  0  0  0  0  0  0  0  0  0
   46.2850   35.3970   45.3770 H   0  0  0  0  0  0  0  0  0  0  0  0
   45.0190   34.1130   45.8310 H   0  0  0  0  0  0  0  0  0  0  0  0
   45.5430   32.8820   43.7900 H   0  0  0  0  0  0  0  0  0  0  0  0
   48.2500   33.5140   42.7740 C   0  0  0  0  0  0  0  0  0  0  0  0
   48.9080   34.2450   42.2710 H   0  0  0  0  0  0  0  0  0  0  0  0
   48.8420   32.9860   43.5580 H   0  0  0  0  0  0  0  0  0  0  0  0
   47.6580   32.4860   41.8660 C   0  0  0  0  0  0  0  0  0  0  0  0
   47.9190   31.4490   42.1280 H   0  0  0  0  0  0  0  0  0  0  0  0
   46.5410   32.5590   41.8620 H   0  0  0  0  0  0  0  0  0  0  0  0
   49.2990   32.1180   38.5020 C   0  0  0  0  0  0  0  0  0  0  0  0
   48.8900   31.8650   39.8250 C   0  0  0  0  0  0  0  0  0  0  0  0
   48.0820   32.7700   40.4690 C   0  0  0  0  0  0  0  0  0  0  0  0
   47.7170   33.8700   39.7940 N   0  0  0  0  0  0  0  0  0  0  0  0
   48.1110   34.1090   38.5270 C   0  0  0  0  0  0  0  0  0  0  0  0
   48.8980   33.2460   37.8740 N   0  0  0  0  0  0  0  0  0  0  0  0
   49.9300   31.4160   37.9920 H   0  0  0  0  0  0  0  0  0  0  0  0
   49.2150   30.9590   40.3230 H   0  0  0  0  0  0  0  0  0  0  0  0
   47.7680   35.0250   38.0580 H   0  0  0  0  0  0  0  0  0  0  0  0
   47.0000   32.8720   45.2760 O   0  0  0  0  0  0  0  0  0  0  0  0
   45.3830   30.8470   44.6770 O   0  0  0  0  0  0  0  0  0  0  0  0
   46.2120   31.4840   45.8010 P   0  0  2  0  0  0  0  0  0  0  0  0
   45.0530   32.0020   46.9500 O   0  0  0  0  0  0  0  0  0  0  0  0
   44.3120   31.3710   46.9570 H   0  0  0  0  0  0  0  0  0  0  0  0
   47.2320   30.4030   46.5410 O   0  0  0  0  0  0  0  0  0  0  0  0
   45.6140   28.8780   47.3130 C   0  0  0  0  0  3  0  0  0  0  0  0
   46.9380   29.1370   46.9650 C   0  0  0  0  0  0  0  0  0  0  0  0
   47.8230   28.0760   47.0860 C   0  0  0  0  0  0  0  0  0  0  0  0
   48.8520   28.2780   46.8160 H   0  0  0  0  0  0  0  0  0  0  0  0
   47.4530   26.8330   47.5190 C   0  0  0  0  0  0  0  0  0  0  0  0
   48.1250   25.6950   47.7070 N   0  0  0  0  0  0  0  0  0  0  0  0
   49.1410   25.5220   47.5470 H   0  0  0  0  0  0  0  0  0  0  0  0
   47.2690   24.7640   48.1500 C   0  0  0  0  0  0  0  0  0  0  0  0
   47.5360   23.7400   48.3880 H   0  0  0  0  0  0  0  0  0  0  0  0
   45.9900   25.2770   48.2670 C   0  0  0  0  0  3  0  0  0  0  0  0
   46.1360   26.5930   47.8600 C   0  0  0  0  0  0  0  0  0  0  0  0
   45.2290   27.6380   47.7480 C   0  0  0  0  0  3  0  0  0  0  0  0
  1  6  1  0  0  0  0
  2  3  1  0  0  0  0
  2  7  1  0  0  0  0
  2  1  1  0  0  0  0
  3  4  1  0  0  0  0
  4 11  1  0  0  0  0
  4  5  1  0  0  0  0
  5 13  1  0  0  0  0
  5 14  1  0  0  0  0
  6 15  1  6  0  0  0
  6  5  1  0  0  0  0
  6 31  1  0  0  0  0
  8  2  1  0  0  0  0
  9  3  1  0  0  0  0
 10  3  1  0  0  0  0
 12  4  1  0  0  0  0
 16  1  1  0  0  0  0
 16 18  1  0  0  0  0
 17 16  1  0  0  0  0
 19 20  1  0  0  0  0
 19 16  1  0  0  0  0
 21 19  1  0  0  0  0
 22 23  1  0  0  0  0
 23 29  1  0  0  0  0
 23 24  2  0  0  0  0
 24 19  1  0  0  0  0
 25 24  1  0  0  0  0
 26 25  2  0  0  0  0
 27 22  2  0  0  0  0
 27 26  1  0  0  0  0
 28 22  1  0  0  0  0
 30 26  1  0  0  0  0
 31 33  1  0  0  0  0
 33 32  2  6  0  0  0
 33 36  1  0  0  0  0
 33 34  1  0  0  0  0
 34 35  1  0  0  0  0
 36 38  1  0  0  0  0
 37 48  1  0  0  0  0
 38 39  1  0  0  0  0
 38 37  2  0  0  0  0
 39 41  2  0  0  0  0
 40 39  1  0  0  0  0
 41 42  1  0  0  0  0
 41 47  1  0  0  0  0
 42 44  1  0  0  0  0
 43 42  1  0  0  0  0
 44 46  2  0  0  0  0
 44 45  1  0  0  0  0
 47 46  1  0  0  0  0
 48 47  2  0  0  0  0
M  END
>  <minimizedAffinity>
-4.58037949

>  <minimizedRMSD>
1.5915122

$$$$
