
 OpenBabel03252508593D

 48 51  0  0  1  0  0  0  0  0999 V2000
   46.6030   34.5760   43.6100 N   0  0  0  0  0  0  0  0  0  0  0  0
   46.1080   35.5740   42.7300 C   0  0  0  0  0  0  0  0  0  0  0  0
   44.6080   35.7440   42.7290 C   0  0  0  0  0  0  0  0  0  0  0  0
   43.9460   35.4700   44.0530 C   0  0  0  0  0  0  0  0  0  0  0  0
   44.9650   35.2030   45.1350 C   0  0  0  0  0  0  0  0  0  0  0  0
   45.7860   33.9910   44.5630 C   0  0  2  0  0  0  0  0  0  0  0  0
   46.5250   36.5450   43.0950 H   0  0  0  0  0  0  0  0  0  0  0  0
   46.4200   35.4890   41.6870 H   0  0  0  0  0  0  0  0  0  0  0  0
   44.3720   36.8220   42.4860 H   0  0  0  0  0  0  0  0  0  0  0  0
   44.1400   35.1600   41.9070 H   0  0  0  0  0  0  0  0  0  0  0  0
   43.2130   36.2150   44.3670 H   0  0  0  0  0  0  0  0  0  0  0  0
   43.3700   34.5170   43.9260 H   0  0  0  0  0  0  0  0  0  0  0  0
   45.6410   36.0390   45.3210 H   0  0  0  0  0  0  0  0  0  0  0  0
   44.4550   34.7920   46.0240 H   0  0  0  0  0  0  0  0  0  0  0  0
   45.0410   33.2350   44.2390 H   0  0  0  0  0  0  0  0  0  0  0  0
   47.7010   33.8200   43.0820 C   0  0  0  0  0  0  0  0  0  0  0  0
   48.4050   34.5130   42.5870 H   0  0  0  0  0  0  0  0  0  0  0  0
   48.2260   33.3350   43.9390 H   0  0  0  0  0  0  0  0  0  0  0  0
   47.1660   32.7430   42.1950 C   0  0  0  0  0  0  0  0  0  0  0  0
   47.3480   31.7220   42.5660 H   0  0  0  0  0  0  0  0  0  0  0  0
   46.0610   32.8570   42.0590 H   0  0  0  0  0  0  0  0  0  0  0  0
   49.1990   32.0680   39.1040 C   0  0  0  0  0  0  0  0  0  0  0  0
   48.6340   31.9410   40.3870 C   0  0  0  0  0  0  0  0  0  0  0  0
   47.7530   32.8940   40.8370 C   0  0  0  0  0  0  0  0  0  0  0  0
   47.4700   33.9170   40.0180 N   0  0  0  0  0  0  0  0  0  0  0  0
   48.0120   34.0360   38.7900 C   0  0  0  0  0  0  0  0  0  0  0  0
   48.8740   33.1240   38.3240 N   0  0  0  0  0  0  0  0  0  0  0  0
   49.8870   31.3280   38.7440 H   0  0  0  0  0  0  0  0  0  0  0  0
   48.8980   31.0930   41.0080 H   0  0  0  0  0  0  0  0  0  0  0  0
   47.7270   34.8960   38.1950 H   0  0  0  0  0  0  0  0  0  0  0  0
   46.5030   33.5840   45.6790 O   0  0  0  0  0  0  0  0  0  0  0  0
   45.6040   31.1920   44.9390 O   0  0  0  0  0  0  0  0  0  0  0  0
   46.1840   31.9930   46.1140 P   0  0  2  0  0  0  0  0  0  0  0  0
   44.9120   32.0600   47.2580 O   0  0  0  0  0  0  0  0  0  0  0  0
   44.4060   31.2300   47.2160 H   0  0  0  0  0  0  0  0  0  0  0  0
   47.4850   31.2450   46.8250 O   0  0  0  0  0  0  0  0  0  0  0  0
   48.9130   29.4560   47.3750 C   0  0  0  0  0  3  0  0  0  0  0  0
   47.6230   29.9170   47.1200 C   0  0  0  0  0  0  0  0  0  0  0  0
   46.6090   28.9730   47.1930 C   0  0  0  0  0  0  0  0  0  0  0  0
   45.6070   29.3320   46.9940 H   0  0  0  0  0  0  0  0  0  0  0  0
   46.8260   27.6590   47.4950 C   0  0  0  0  0  0  0  0  0  0  0  0
   46.0140   26.6050   47.6170 N   0  0  0  0  0  0  0  0  0  0  0  0
   44.9800   26.5810   47.4940 H   0  0  0  0  0  0  0  0  0  0  0  0
   46.7550   25.5330   47.9320 C   0  0  0  0  0  0  0  0  0  0  0  0
   46.3620   24.5350   48.0930 H   0  0  0  0  0  0  0  0  0  0  0  0
   48.0960   25.8620   48.0280 C   0  0  0  0  0  3  0  0  0  0  0  0
   48.1110   27.2180   47.7460 C   0  0  0  0  0  0  0  0  0  0  0  0
   49.1460   28.1410   47.6790 C   0  0  0  0  0  3  0  0  0  0  0  0
  1  6  1  0  0  0  0
  2  7  1  0  0  0  0
  2  1  1  0  0  0  0
  3  2  1  0  0  0  0
  3  4  1  0  0  0  0
  4 11  1  0  0  0  0
  4  5  1  0  0  0  0
  5 13  1  0  0  0  0
  5 14  1  0  0  0  0
  6 15  1  6  0  0  0
  6  5  1  0  0  0  0
  6 31  1  0  0  0  0
  8  2  1  0  0  0  0
  9  3  1  0  0  0  0
 10  3  1  0  0  0  0
 12  4  1  0  0  0  0
 16  1  1  0  0  0  0
 16 18  1  0  0  0  0
 17 16  1  0  0  0  0
 19 20  1  0  0  0  0
 19 16  1  0  0  0  0
 21 19  1  0  0  0  0
 22 23  1  0  0  0  0
 23 24  2  0  0  0  0
 23 29  1  0  0  0  0
 24 19  1  0  0  0  0
 25 24  1  0  0  0  0
 26 25  2  0  0  0  0
 27 26  1  0  0  0  0
 27 22  2  0  0  0  0
 28 22  1  0  0  0  0
 30 26  1  0  0  0  0
 31 33  1  0  0  0  0
 33 32  2  6  0  0  0
 33 36  1  0  0  0  0
 33 34  1  0  0  0  0
 35 34  1  0  0  0  0
 36 38  1  0  0  0  0
 37 48  1  0  0  0  0
 38 39  1  0  0  0  0
 38 37  2  0  0  0  0
 39 41  2  0  0  0  0
 40 39  1  0  0  0  0
 41 42  1  0  0  0  0
 41 47  1  0  0  0  0
 42 44  1  0  0  0  0
 43 42  1  0  0  0  0
 44 46  2  0  0  0  0
 44 45  1  0  0  0  0
 47 46  1  0  0  0  0
 48 47  2  0  0  0  0
M  END
>  <minimizedAffinity>
-4.69511604

>  <minimizedRMSD>
1.80235875

$$$$
