
 OpenBabel03242518083D

 32 34  0  0  1  0  0  0  0  0999 V2000
   37.7910   28.5560   41.0310 N   0  0  0  0  0  0  0  0  0  0  0  0
   38.9860   28.4950   41.8000 C   0  0  0  0  0  0  0  0  0  0  0  0
   38.6760   28.5950   43.2450 C   0  0  0  0  0  0  0  0  0  0  0  0
   37.3100   28.2430   43.6800 C   0  0  0  0  0  0  0  0  0  0  0  0
   36.4750   27.4420   42.7510 C   0  0  0  0  0  0  0  0  0  0  0  0
   36.7220   27.6400   41.2810 C   0  0  2  0  0  0  0  0  0  0  0  0
   39.5090   27.5390   41.6030 H   0  0  0  0  0  0  0  0  0  0  0  0
   39.7080   29.3070   41.4930 H   0  0  0  0  0  0  0  0  0  0  0  0
   38.8990   29.6480   43.5700 H   0  0  0  0  0  0  0  0  0  0  0  0
   39.4560   28.0020   43.8080 H   0  0  0  0  0  0  0  0  0  0  0  0
   36.7250   29.1750   43.9390 H   0  0  0  0  0  0  0  0  0  0  0  0
   37.3760   27.7050   44.6520 H   0  0  0  0  0  0  0  0  0  0  0  0
   35.3910   27.6050   43.0240 H   0  0  0  0  0  0  0  0  0  0  0  0
   36.6380   26.3720   42.9880 H   0  0  0  0  0  0  0  0  0  0  0  0
   35.7900   28.0580   40.8520 H   0  0  0  0  0  0  0  0  0  0  0  0
   36.7990   30.6300   40.1890 C   0  0  0  0  0  0  0  0  0  0  0  0
   37.6640   29.5400   40.0070 C   0  0  0  0  0  0  0  0  0  0  0  0
   38.3880   29.4660   38.7880 C   0  0  0  0  0  0  0  0  0  0  0  0
   38.1910   30.4540   37.8860 N   0  0  0  0  0  0  0  0  0  0  0  0
   37.3470   31.4850   38.1020 C   0  0  0  0  0  0  0  0  0  0  0  0
   36.6550   31.5710   39.2490 N   0  0  0  0  0  0  0  0  0  0  0  0
   36.0790   30.7070   41.4040 N   0  0  0  0  0  0  0  0  0  0  0  0
   39.0580   28.6290   38.6390 H   0  0  0  0  0  0  0  0  0  0  0  0
   37.2000   32.2680   37.3700 H   0  0  0  0  0  0  0  0  0  0  0  0
   35.4460   29.8590   41.4520 H   0  0  0  0  0  0  0  0  0  0  0  0
   36.0720   31.3900   42.1800 H   0  0  0  0  0  0  0  0  0  0  0  0
   36.9200   26.3200   40.6280 C   0  0  0  0  0  0  0  0  0  0  0  0
   37.3410   25.1420   41.1800 C   0  0  0  0  0  0  0  0  0  0  0  0
   37.5710   25.1010   42.2350 H   0  0  0  0  0  0  0  0  0  0  0  0
   37.4550   24.0570   40.3830 C   0  0  0  0  0  3  0  0  0  0  0  0
   37.1340   24.2060   39.0240 C   0  0  0  0  0  3  0  0  0  0  0  0
   36.6350   26.0370   38.9080 S   0  0  0  0  0  0  0  0  0  0  0  0
  1  6  1  0  0  0  0
  1  2  1  0  0  0  0
  2  3  1  0  0  0  0
  3  9  1  0  0  0  0
  3  4  1  0  0  0  0
  3 10  1  0  0  0  0
  4 11  1  0  0  0  0
  4 12  1  0  0  0  0
  5 14  1  0  0  0  0
  5 13  1  0  0  0  0
  5  4  1  0  0  0  0
  6 15  1  6  0  0  0
  6  5  1  0  0  0  0
  7  2  1  0  0  0  0
  8  2  1  0  0  0  0
 16 22  1  0  0  0  0
 17 16  1  0  0  0  0
 17  1  1  0  0  0  0
 18 17  2  0  0  0  0
 19 20  2  0  0  0  0
 19 18  1  0  0  0  0
 20 21  1  0  0  0  0
 21 16  2  0  0  0  0
 22 25  1  0  0  0  0
 22 26  1  0  0  0  0
 23 18  1  0  0  0  0
 24 20  1  0  0  0  0
 27 28  2  0  0  0  0
 27  6  1  0  0  0  0
 28 29  1  0  0  0  0
 30 28  1  0  0  0  0
 31 30  2  0  0  0  0
 32 31  1  0  0  0  0
 32 27  1  0  0  0  0
M  END
>  <minimizedAffinity>
-5.07113314

$$$$

 OpenBabel03242518083D

 32 34  0  0  1  0  0  0  0  0999 V2000
   37.5720   28.5130   40.9430 N   0  0  0  0  0  0  0  0  0  0  0  0
   38.8110   29.0510   40.4990 C   0  0  0  0  0  0  0  0  0  0  0  0
   39.2820   30.1020   41.4290 C   0  0  0  0  0  0  0  0  0  0  0  0
   38.7540   30.0860   42.8070 C   0  0  0  0  0  0  0  0  0  0  0  0
   38.1310   28.8290   43.2920 C   0  0  0  0  0  0  0  0  0  0  0  0
   37.4490   27.9740   42.2610 C   0  0  2  0  0  0  0  0  0  0  0  0
   39.5690   28.2450   40.4430 H   0  0  0  0  0  0  0  0  0  0  0  0
   38.7240   29.4600   39.4500 H   0  0  0  0  0  0  0  0  0  0  0  0
   39.0480   31.0990   40.9640 H   0  0  0  0  0  0  0  0  0  0  0  0
   40.4120   30.0940   41.4180 H   0  0  0  0  0  0  0  0  0  0  0  0
   37.9980   30.9140   42.9510 H   0  0  0  0  0  0  0  0  0  0  0  0
   39.5750   30.3670   43.5040 H   0  0  0  0  0  0  0  0  0  0  0  0
   37.4420   29.0880   44.1510 H   0  0  0  0  0  0  0  0  0  0  0  0
   38.9230   28.2240   43.7750 H   0  0  0  0  0  0  0  0  0  0  0  0
   36.3730   27.9410   42.5310 H   0  0  0  0  0  0  0  0  0  0  0  0
   35.4760   29.5210   40.1790 C   0  0  0  0  0  0  0  0  0  0  0  0
   36.4490   28.5170   40.0640 C   0  0  0  0  0  0  0  0  0  0  0  0
   36.2670   27.5310   39.0590 C   0  0  0  0  0  0  0  0  0  0  0  0
   35.1660   27.6310   38.2810 N   0  0  0  0  0  0  0  0  0  0  0  0
   34.2540   28.6140   38.4260 C   0  0  0  0  0  0  0  0  0  0  0  0
   34.4090   29.5550   39.3720 N   0  0  0  0  0  0  0  0  0  0  0  0
   35.6560   30.5060   41.1780 N   0  0  0  0  0  0  0  0  0  0  0  0
   37.0140   26.7530   38.9620 H   0  0  0  0  0  0  0  0  0  0  0  0
   33.3770   28.6810   37.7960 H   0  0  0  0  0  0  0  0  0  0  0  0
   35.6360   30.0130   42.1160 H   0  0  0  0  0  0  0  0  0  0  0  0
   35.7930   31.5300   41.1460 H   0  0  0  0  0  0  0  0  0  0  0  0
   37.9430   26.5770   42.3690 C   0  0  0  0  0  0  0  0  0  0  0  0
   37.3070   25.4120   42.0380 C   0  0  0  0  0  0  0  0  0  0  0  0
   36.3050   25.4490   41.6310 H   0  0  0  0  0  0  0  0  0  0  0  0
   37.9540   24.2420   42.2300 C   0  0  0  0  0  3  0  0  0  0  0  0
   39.2520   24.2930   42.7640 C   0  0  0  0  0  3  0  0  0  0  0  0
   39.5390   26.1580   42.9950 S   0  0  0  0  0  0  0  0  0  0  0  0
  1  6  1  0  0  0  0
  2  1  1  0  0  0  0
  2  3  1  0  0  0  0
  3  4  1  0  0  0  0
  4 11  1  0  0  0  0
  4  5  1  0  0  0  0
  4 12  1  0  0  0  0
  5 14  1  0  0  0  0
  5 13  1  0  0  0  0
  6 27  1  0  0  0  0
  6 15  1  1  0  0  0
  6  5  1  0  0  0  0
  7  2  1  0  0  0  0
  8  2  1  0  0  0  0
  9  3  1  0  0  0  0
 10  3  1  0  0  0  0
 16 22  1  0  0  0  0
 17 16  1  0  0  0  0
 17  1  1  0  0  0  0
 18 17  2  0  0  0  0
 19 20  2  0  0  0  0
 19 18  1  0  0  0  0
 20 21  1  0  0  0  0
 21 16  2  0  0  0  0
 22 25  1  0  0  0  0
 23 18  1  0  0  0  0
 24 20  1  0  0  0  0
 26 22  1  0  0  0  0
 27 32  1  0  0  0  0
 28 30  1  0  0  0  0
 28 27  2  0  0  0  0
 29 28  1  0  0  0  0
 30 31  2  0  0  0  0
 31 32  1  0  0  0  0
M  END
>  <minimizedAffinity>
-4.99040174

$$$$

 OpenBabel03242518083D

 32 34  0  0  1  0  0  0  0  0999 V2000
   39.6960   31.9470   39.6380 N   0  0  0  0  0  0  0  0  0  0  0  0
   39.3340   33.1430   40.3170 C   0  0  0  0  0  0  0  0  0  0  0  0
   38.0130   33.6230   39.8500 C   0  0  0  0  0  0  0  0  0  0  0  0
   37.1100   32.6410   39.2200 C   0  0  0  0  0  0  0  0  0  0  0  0
   37.3850   31.2010   39.4530 C   0  0  0  0  0  0  0  0  0  0  0  0
   38.8230   30.8140   39.6540 C   0  0  2  0  0  0  0  0  0  0  0  0
   39.2910   32.9550   41.4080 H   0  0  0  0  0  0  0  0  0  0  0  0
   40.1180   33.9430   40.1770 H   0  0  0  0  0  0  0  0  0  0  0  0
   38.1920   34.4660   39.1270 H   0  0  0  0  0  0  0  0  0  0  0  0
   37.5120   34.1540   40.7140 H   0  0  0  0  0  0  0  0  0  0  0  0
   37.0710   32.7990   38.1010 H   0  0  0  0  0  0  0  0  0  0  0  0
   36.0680   32.8600   39.5440 H   0  0  0  0  0  0  0  0  0  0  0  0
   36.9000   30.6120   38.6190 H   0  0  0  0  0  0  0  0  0  0  0  0
   36.8140   30.8900   40.3500 H   0  0  0  0  0  0  0  0  0  0  0  0
   39.0970   30.1450   38.8130 H   0  0  0  0  0  0  0  0  0  0  0  0
   40.9660   32.0830   37.5500 C   0  0  0  0  0  0  0  0  0  0  0  0
   40.9360   31.8850   38.9380 C   0  0  0  0  0  0  0  0  0  0  0  0
   42.1680   31.6250   39.5960 C   0  0  0  0  0  0  0  0  0  0  0  0
   43.2840   31.5880   38.8340 N   0  0  0  0  0  0  0  0  0  0  0  0
   43.2670   31.7840   37.5000 C   0  0  0  0  0  0  0  0  0  0  0  0
   42.1110   32.0300   36.8610 N   0  0  0  0  0  0  0  0  0  0  0  0
   39.7400   32.3440   36.8930 N   0  0  0  0  0  0  0  0  0  0  0  0
   42.1550   31.4710   40.6670 H   0  0  0  0  0  0  0  0  0  0  0  0
   44.1690   31.7500   36.9030 H   0  0  0  0  0  0  0  0  0  0  0  0
   39.1230   31.4920   37.0230 H   0  0  0  0  0  0  0  0  0  0  0  0
   39.3820   33.1530   36.3590 H   0  0  0  0  0  0  0  0  0  0  0  0
   38.9510   29.9970   40.8890 C   0  0  0  0  0  0  0  0  0  0  0  0
   38.1970   30.0380   42.0290 C   0  0  0  0  0  0  0  0  0  0  0  0
   37.3760   30.7390   42.0990 H   0  0  0  0  0  0  0  0  0  0  0  0
   38.5020   29.1960   43.0390 C   0  0  0  0  0  3  0  0  0  0  0  0
   39.5870   28.3210   42.8580 C   0  0  0  0  0  3  0  0  0  0  0  0
   40.1890   28.7580   41.1080 S   0  0  0  0  0  0  0  0  0  0  0  0
  1  6  1  0  0  0  0
  1  2  1  0  0  0  0
  2  7  1  0  0  0  0
  3  2  1  0  0  0  0
  3 10  1  0  0  0  0
  4  5  1  0  0  0  0
  4 12  1  0  0  0  0
  4  3  1  0  0  0  0
  5  6  1  0  0  0  0
  5 14  1  0  0  0  0
  6 15  1  6  0  0  0
  6 27  1  0  0  0  0
  8  2  1  0  0  0  0
  9  3  1  0  0  0  0
 11  4  1  0  0  0  0
 13  5  1  0  0  0  0
 16 17  1  0  0  0  0
 17 18  2  0  0  0  0
 17  1  1  0  0  0  0
 18 23  1  0  0  0  0
 19 18  1  0  0  0  0
 20 19  2  0  0  0  0
 21 20  1  0  0  0  0
 21 16  2  0  0  0  0
 22 25  1  0  0  0  0
 22 16  1  0  0  0  0
 24 20  1  0  0  0  0
 26 22  1  0  0  0  0
 27 32  1  0  0  0  0
 27 28  2  0  0  0  0
 28 29  1  0  0  0  0
 28 30  1  0  0  0  0
 31 30  2  0  0  0  0
 32 31  1  0  0  0  0
M  END
>  <minimizedAffinity>
-4.98787594

$$$$

 OpenBabel03242518083D

 32 34  0  0  1  0  0  0  0  0999 V2000
   38.3360   30.9830   40.2020 N   0  0  0  0  0  0  0  0  0  0  0  0
   38.2440   31.1400   38.7920 C   0  0  0  0  0  0  0  0  0  0  0  0
   37.4470   32.3430   38.4570 C   0  0  0  0  0  0  0  0  0  0  0  0
   37.3240   33.3930   39.4880 C   0  0  0  0  0  0  0  0  0  0  0  0
   38.3040   33.3850   40.6020 C   0  0  0  0  0  0  0  0  0  0  0  0
   38.8410   32.0440   41.0170 C   0  0  2  0  0  0  0  0  0  0  0  0
   39.2590   31.2420   38.3600 H   0  0  0  0  0  0  0  0  0  0  0  0
   37.7970   30.2230   38.3090 H   0  0  0  0  0  0  0  0  0  0  0  0
   36.4170   32.0000   38.1660 H   0  0  0  0  0  0  0  0  0  0  0  0
   37.8420   32.7610   37.4840 H   0  0  0  0  0  0  0  0  0  0  0  0
   36.2910   33.3760   39.9480 H   0  0  0  0  0  0  0  0  0  0  0  0
   37.3630   34.3860   38.9870 H   0  0  0  0  0  0  0  0  0  0  0  0
   37.8520   33.9480   41.4710 H   0  0  0  0  0  0  0  0  0  0  0  0
   39.1590   34.0230   40.3030 H   0  0  0  0  0  0  0  0  0  0  0  0
   38.5110   31.8750   42.0620 H   0  0  0  0  0  0  0  0  0  0  0  0
   36.6300   29.6470   41.3430 C   0  0  0  0  0  0  0  0  0  0  0  0
   37.9200   29.7570   40.8010 C   0  0  0  0  0  0  0  0  0  0  0  0
   38.7680   28.6210   40.8750 C   0  0  0  0  0  0  0  0  0  0  0  0
   38.2700   27.5110   41.4650 N   0  0  0  0  0  0  0  0  0  0  0  0
   37.0230   27.4490   41.9740 C   0  0  0  0  0  0  0  0  0  0  0  0
   36.2060   28.5140   41.9130 N   0  0  0  0  0  0  0  0  0  0  0  0
   35.7830   30.7780   41.2680 N   0  0  0  0  0  0  0  0  0  0  0  0
   39.7640   28.6960   40.4590 H   0  0  0  0  0  0  0  0  0  0  0  0
   36.6380   26.5520   42.4430 H   0  0  0  0  0  0  0  0  0  0  0  0
   36.2380   31.5530   41.8290 H   0  0  0  0  0  0  0  0  0  0  0  0
   34.8800   30.9550   40.7980 H   0  0  0  0  0  0  0  0  0  0  0  0
   40.3260   32.0930   41.0570 C   0  0  0  0  0  0  0  0  0  0  0  0
   41.1840   32.8120   40.2710 C   0  0  0  0  0  0  0  0  0  0  0  0
   40.7850   33.4570   39.5000 H   0  0  0  0  0  0  0  0  0  0  0  0
   42.5120   32.6940   40.4850 C   0  0  0  0  0  3  0  0  0  0  0  0
   42.9370   31.8320   41.5090 C   0  0  0  0  0  3  0  0  0  0  0  0
   41.2970   31.1590   42.1970 S   0  0  0  0  0  0  0  0  0  0  0  0
  1 17  1  0  0  0  0
  1  6  1  0  0  0  0
  2  1  1  0  0  0  0
  3  2  1  0  0  0  0
  3  4  1  0  0  0  0
  4 11  1  0  0  0  0
  4  5  1  0  0  0  0
  5  6  1  0  0  0  0
  5 13  1  0  0  0  0
  6 27  1  0  0  0  0
  6 15  1  1  0  0  0
  7  2  1  0  0  0  0
  8  2  1  0  0  0  0
  9  3  1  0  0  0  0
 10  3  1  0  0  0  0
 12  4  1  0  0  0  0
 14  5  1  0  0  0  0
 16 21  1  0  0  0  0
 17 18  1  0  0  0  0
 17 16  2  0  0  0  0
 18 19  2  0  0  0  0
 19 20  1  0  0  0  0
 20 24  1  0  0  0  0
 21 20  2  0  0  0  0
 22 16  1  0  0  0  0
 22 25  1  0  0  0  0
 23 18  1  0  0  0  0
 26 22  1  0  0  0  0
 27 32  1  0  0  0  0
 28 30  1  0  0  0  0
 28 27  2  0  0  0  0
 29 28  1  0  0  0  0
 30 31  2  0  0  0  0
 31 32  1  0  0  0  0
M  END
>  <minimizedAffinity>
-4.95595598

$$$$

 OpenBabel03242518083D

 32 34  0  0  1  0  0  0  0  0999 V2000
   38.2030   29.1220   41.5240 N   0  0  0  0  0  0  0  0  0  0  0  0
   38.5920   29.0210   42.8880 C   0  0  0  0  0  0  0  0  0  0  0  0
   37.5350   28.3500   43.6790 C   0  0  0  0  0  0  0  0  0  0  0  0
   36.5740   27.4950   42.9540 C   0  0  0  0  0  0  0  0  0  0  0  0
   36.9490   27.0350   41.5940 C   0  0  0  0  0  0  0  0  0  0  0  0
   37.8280   27.9530   40.7910 C   0  0  2  0  0  0  0  0  0  0  0  0
   39.5320   28.4410   42.9660 H   0  0  0  0  0  0  0  0  0  0  0  0
   38.8250   30.0380   43.3200 H   0  0  0  0  0  0  0  0  0  0  0  0
   36.9650   29.1460   44.2320 H   0  0  0  0  0  0  0  0  0  0  0  0
   38.0370   27.7880   44.5220 H   0  0  0  0  0  0  0  0  0  0  0  0
   35.5710   28.0090   42.8710 H   0  0  0  0  0  0  0  0  0  0  0  0
   36.3520   26.6030   43.5820 H   0  0  0  0  0  0  0  0  0  0  0  0
   36.0010   26.7640   41.0420 H   0  0  0  0  0  0  0  0  0  0  0  0
   37.4690   26.0620   41.6990 H   0  0  0  0  0  0  0  0  0  0  0  0
   37.2400   28.2650   39.9040 H   0  0  0  0  0  0  0  0  0  0  0  0
   36.9960   31.1380   40.8370 C   0  0  0  0  0  0  0  0  0  0  0  0
   38.1870   30.3990   40.8910 C   0  0  0  0  0  0  0  0  0  0  0  0
   39.3460   30.9680   40.3000 C   0  0  0  0  0  0  0  0  0  0  0  0
   39.2180   32.1850   39.7260 N   0  0  0  0  0  0  0  0  0  0  0  0
   38.0510   32.8620   39.6960 C   0  0  0  0  0  0  0  0  0  0  0  0
   36.9440   32.3390   40.2500 N   0  0  0  0  0  0  0  0  0  0  0  0
   35.8410   30.5730   41.4270 N   0  0  0  0  0  0  0  0  0  0  0  0
   40.2700   30.4060   40.3370 H   0  0  0  0  0  0  0  0  0  0  0  0
   37.9640   33.8360   39.2320 H   0  0  0  0  0  0  0  0  0  0  0  0
   35.6200   29.6800   40.9010 H   0  0  0  0  0  0  0  0  0  0  0  0
   35.2360   30.8610   42.2140 H   0  0  0  0  0  0  0  0  0  0  0  0
   38.9920   27.1940   40.2660 C   0  0  0  0  0  0  0  0  0  0  0  0
   39.6740   26.1580   40.8420 C   0  0  0  0  0  0  0  0  0  0  0  0
   39.3650   25.7920   41.8120 H   0  0  0  0  0  0  0  0  0  0  0  0
   40.7180   25.6190   40.1780 C   0  0  0  0  0  3  0  0  0  0  0  0
   41.0460   26.1610   38.9240 C   0  0  0  0  0  3  0  0  0  0  0  0
   39.7500   27.5340   38.7080 S   0  0  0  0  0  0  0  0  0  0  0  0
  1  2  1  0  0  0  0
  2  7  1  0  0  0  0
  2  8  1  0  0  0  0
  2  3  1  0  0  0  0
  3  9  1  0  0  0  0
  3 10  1  0  0  0  0
  4 12  1  0  0  0  0
  4  3  1  0  0  0  0
  5 14  1  0  0  0  0
  5  4  1  0  0  0  0
  6 15  1  6  0  0  0
  6  1  1  0  0  0  0
  6  5  1  0  0  0  0
 11  4  1  0  0  0  0
 13  5  1  0  0  0  0
 16 17  1  0  0  0  0
 16 22  1  0  0  0  0
 17  1  1  0  0  0  0
 18 23  1  0  0  0  0
 18 17  2  0  0  0  0
 19 18  1  0  0  0  0
 20 19  2  0  0  0  0
 20 21  1  0  0  0  0
 21 16  2  0  0  0  0
 22 26  1  0  0  0  0
 24 20  1  0  0  0  0
 25 22  1  0  0  0  0
 27  6  1  0  0  0  0
 27 28  2  0  0  0  0
 28 29  1  0  0  0  0
 30 28  1  0  0  0  0
 31 30  2  0  0  0  0
 32 31  1  0  0  0  0
 32 27  1  0  0  0  0
M  END
>  <minimizedAffinity>
-4.94012022

$$$$

 OpenBabel03242518083D

 32 34  0  0  1  0  0  0  0  0999 V2000
   37.0570   28.7440   40.6120 N   0  0  0  0  0  0  0  0  0  0  0  0
   35.7140   29.0260   40.9870 C   0  0  0  0  0  0  0  0  0  0  0  0
   34.8490   29.1090   39.7880 C   0  0  0  0  0  0  0  0  0  0  0  0
   35.3160   28.4410   38.5580 C   0  0  0  0  0  0  0  0  0  0  0  0
   36.3760   27.4100   38.6920 C   0  0  0  0  0  0  0  0  0  0  0  0
   37.3590   27.5970   39.8140 C   0  0  2  0  0  0  0  0  0  0  0  0
   35.3370   28.2270   41.6560 H   0  0  0  0  0  0  0  0  0  0  0  0
   35.6520   29.9800   41.5880 H   0  0  0  0  0  0  0  0  0  0  0  0
   34.6790   30.1980   39.5650 H   0  0  0  0  0  0  0  0  0  0  0  0
   33.8150   28.7620   40.0820 H   0  0  0  0  0  0  0  0  0  0  0  0
   35.6800   29.2030   37.8070 H   0  0  0  0  0  0  0  0  0  0  0  0
   34.4380   27.9830   38.0500 H   0  0  0  0  0  0  0  0  0  0  0  0
   36.8900   27.3040   37.6910 H   0  0  0  0  0  0  0  0  0  0  0  0
   35.8780   26.4300   38.8270 H   0  0  0  0  0  0  0  0  0  0  0  0
   38.3540   27.7430   39.3470 H   0  0  0  0  0  0  0  0  0  0  0  0
   38.3350   29.8080   42.4080 C   0  0  0  0  0  0  0  0  0  0  0  0
   38.1020   29.6140   41.0380 C   0  0  0  0  0  0  0  0  0  0  0  0
   38.9350   30.3080   40.1210 C   0  0  0  0  0  0  0  0  0  0  0  0
   39.8950   31.1080   40.6360 N   0  0  0  0  0  0  0  0  0  0  0  0
   40.0850   31.2660   41.9620 C   0  0  0  0  0  0  0  0  0  0  0  0
   39.3060   30.6180   42.8440 N   0  0  0  0  0  0  0  0  0  0  0  0
   37.5080   29.1160   43.3240 N   0  0  0  0  0  0  0  0  0  0  0  0
   38.7630   30.1640   39.0620 H   0  0  0  0  0  0  0  0  0  0  0  0
   40.8580   31.9110   42.3580 H   0  0  0  0  0  0  0  0  0  0  0  0
   36.5160   29.4570   43.1760 H   0  0  0  0  0  0  0  0  0  0  0  0
   37.6960   28.3990   44.0440 H   0  0  0  0  0  0  0  0  0  0  0  0
   37.4550   26.3430   40.6050 C   0  0  0  0  0  0  0  0  0  0  0  0
   36.6330   25.2500   40.5860 C   0  0  0  0  0  0  0  0  0  0  0  0
   35.7810   25.2350   39.9210 H   0  0  0  0  0  0  0  0  0  0  0  0
   36.9130   24.2140   41.4070 C   0  0  0  0  0  3  0  0  0  0  0  0
   38.0410   24.3240   42.2380 C   0  0  0  0  0  3  0  0  0  0  0  0
   38.7280   26.0380   41.7890 S   0  0  0  0  0  0  0  0  0  0  0  0
  1  2  1  0  0  0  0
  1 17  1  0  0  0  0
  2  8  1  0  0  0  0
  2  7  1  0  0  0  0
  3 10  1  0  0  0  0
  3  2  1  0  0  0  0
  4  5  1  0  0  0  0
  4  3  1  0  0  0  0
  5 14  1  0  0  0  0
  5  6  1  0  0  0  0
  6 15  1  6  0  0  0
  6 27  1  0  0  0  0
  6  1  1  0  0  0  0
  9  3  1  0  0  0  0
 11  4  1  0  0  0  0
 12  4  1  0  0  0  0
 13  5  1  0  0  0  0
 16 21  1  0  0  0  0
 16 22  1  0  0  0  0
 17 16  2  0  0  0  0
 18 19  2  0  0  0  0
 18 17  1  0  0  0  0
 19 20  1  0  0  0  0
 20 24  1  0  0  0  0
 20 21  2  0  0  0  0
 22 26  1  0  0  0  0
 23 18  1  0  0  0  0
 25 22  1  0  0  0  0
 27 32  1  0  0  0  0
 28 27  2  0  0  0  0
 28 30  1  0  0  0  0
 29 28  1  0  0  0  0
 30 31  2  0  0  0  0
 32 31  1  0  0  0  0
M  END
>  <minimizedAffinity>
-4.73533344

$$$$

 OpenBabel03242518083D

 32 34  0  0  1  0  0  0  0  0999 V2000
   37.8250   30.4190   39.3830 N   0  0  0  0  0  0  0  0  0  0  0  0
   36.5240   30.5210   38.8170 C   0  0  0  0  0  0  0  0  0  0  0  0
   36.4050   29.6410   37.6320 C   0  0  0  0  0  0  0  0  0  0  0  0
   37.3460   28.5090   37.5210 C   0  0  0  0  0  0  0  0  0  0  0  0
   38.0560   28.0790   38.7510 C   0  0  0  0  0  0  0  0  0  0  0  0
   38.3480   29.1460   39.7690 C   0  0  2  0  0  0  0  0  0  0  0  0
   35.7660   30.2270   39.5690 H   0  0  0  0  0  0  0  0  0  0  0  0
   36.2830   31.5890   38.5440 H   0  0  0  0  0  0  0  0  0  0  0  0
   36.5070   30.2870   36.7170 H   0  0  0  0  0  0  0  0  0  0  0  0
   35.3310   29.2970   37.5630 H   0  0  0  0  0  0  0  0  0  0  0  0
   38.1310   28.7230   36.7360 H   0  0  0  0  0  0  0  0  0  0  0  0
   36.7990   27.6350   37.1020 H   0  0  0  0  0  0  0  0  0  0  0  0
   38.9900   27.5220   38.4400 H   0  0  0  0  0  0  0  0  0  0  0  0
   37.4430   27.2950   39.2370 H   0  0  0  0  0  0  0  0  0  0  0  0
   39.4520   29.2240   39.8440 H   0  0  0  0  0  0  0  0  0  0  0  0
   39.5840   31.9390   38.6140 C   0  0  0  0  0  0  0  0  0  0  0  0
   38.6070   31.5980   39.5620 C   0  0  0  0  0  0  0  0  0  0  0  0
   38.4400   32.4590   40.6790 C   0  0  0  0  0  0  0  0  0  0  0  0
   39.2360   33.5490   40.7480 N   0  0  0  0  0  0  0  0  0  0  0  0
   40.1650   33.8390   39.8130 C   0  0  0  0  0  0  0  0  0  0  0  0
   40.3370   33.0360   38.7510 N   0  0  0  0  0  0  0  0  0  0  0  0
   39.7510   31.0830   37.4990 N   0  0  0  0  0  0  0  0  0  0  0  0
   37.6890   32.2040   41.4150 H   0  0  0  0  0  0  0  0  0  0  0  0
   40.7950   34.7160   39.8830 H   0  0  0  0  0  0  0  0  0  0  0  0
   40.0610   30.1390   37.8680 H   0  0  0  0  0  0  0  0  0  0  0  0
   39.6290   31.2160   36.4820 H   0  0  0  0  0  0  0  0  0  0  0  0
   37.8760   28.7010   41.1050 C   0  0  0  0  0  0  0  0  0  0  0  0
   36.8280   27.8780   41.4170 C   0  0  0  0  0  0  0  0  0  0  0  0
   36.2270   27.4580   40.6230 H   0  0  0  0  0  0  0  0  0  0  0  0
   36.5760   27.6140   42.7170 C   0  0  0  0  0  3  0  0  0  0  0  0
   37.4110   28.2060   43.6800 C   0  0  0  0  0  3  0  0  0  0  0  0
   38.6330   29.2030   42.6190 S   0  0  0  0  0  0  0  0  0  0  0  0
  1 17  1  0  0  0  0
  1  6  1  0  0  0  0
  2  1  1  0  0  0  0
  2  7  1  0  0  0  0
  3  2  1  0  0  0  0
  4  3  1  0  0  0  0
  4  5  1  0  0  0  0
  5 14  1  0  0  0  0
  5  6  1  0  0  0  0
  6 15  1  1  0  0  0
  6 27  1  0  0  0  0
  8  2  1  0  0  0  0
  9  3  1  0  0  0  0
 10  3  1  0  0  0  0
 11  4  1  0  0  0  0
 12  4  1  0  0  0  0
 13  5  1  0  0  0  0
 16 21  2  0  0  0  0
 16 17  1  0  0  0  0
 17 18  2  0  0  0  0
 18 19  1  0  0  0  0
 18 23  1  0  0  0  0
 20 24  1  0  0  0  0
 20 19  2  0  0  0  0
 21 20  1  0  0  0  0
 22 25  1  0  0  0  0
 22 16  1  0  0  0  0
 26 22  1  0  0  0  0
 27 28  2  0  0  0  0
 27 32  1  0  0  0  0
 28 30  1  0  0  0  0
 29 28  1  0  0  0  0
 30 31  2  0  0  0  0
 32 31  1  0  0  0  0
M  END
>  <minimizedAffinity>
-4.69799566

$$$$

 OpenBabel03242518083D

 32 34  0  0  1  0  0  0  0  0999 V2000
   37.6870   28.7930   41.4920 N   0  0  0  0  0  0  0  0  0  0  0  0
   37.3340   28.9380   42.8620 C   0  0  0  0  0  0  0  0  0  0  0  0
   37.9920   27.8930   43.6800 C   0  0  0  0  0  0  0  0  0  0  0  0
   39.2000   27.2500   43.1270 C   0  0  0  0  0  0  0  0  0  0  0  0
   39.9070   27.9430   42.0210 C   0  0  0  0  0  0  0  0  0  0  0  0
   39.0610   28.7740   41.0970 C   0  0  2  0  0  0  0  0  0  0  0  0
   37.6470   29.9370   43.2240 H   0  0  0  0  0  0  0  0  0  0  0  0
   36.2140   28.9020   43.0000 H   0  0  0  0  0  0  0  0  0  0  0  0
   37.2270   27.0980   43.8970 H   0  0  0  0  0  0  0  0  0  0  0  0
   38.1840   28.3250   44.7060 H   0  0  0  0  0  0  0  0  0  0  0  0
   38.9640   26.2030   42.7720 H   0  0  0  0  0  0  0  0  0  0  0  0
   39.9210   27.0810   43.9580 H   0  0  0  0  0  0  0  0  0  0  0  0
   40.5190   27.1760   41.4610 H   0  0  0  0  0  0  0  0  0  0  0  0
   40.6750   28.6010   42.4720 H   0  0  0  0  0  0  0  0  0  0  0  0
   39.1330   28.3110   40.0920 H   0  0  0  0  0  0  0  0  0  0  0  0
   35.6930   29.6720   40.3770 C   0  0  0  0  0  0  0  0  0  0  0  0
   36.6590   28.6640   40.5120 C   0  0  0  0  0  0  0  0  0  0  0  0
   36.5660   27.5390   39.6500 C   0  0  0  0  0  0  0  0  0  0  0  0
   35.5510   27.5210   38.7590 N   0  0  0  0  0  0  0  0  0  0  0  0
   34.6420   28.5140   38.6630 C   0  0  0  0  0  0  0  0  0  0  0  0
   34.7130   29.5850   39.4700 N   0  0  0  0  0  0  0  0  0  0  0  0
   35.7840   30.7950   41.2340 N   0  0  0  0  0  0  0  0  0  0  0  0
   37.3080   26.7570   39.7470 H   0  0  0  0  0  0  0  0  0  0  0  0
   33.8340   28.4840   37.9430 H   0  0  0  0  0  0  0  0  0  0  0  0
   35.6630   30.4460   42.2270 H   0  0  0  0  0  0  0  0  0  0  0  0
   35.9370   31.8030   41.0650 H   0  0  0  0  0  0  0  0  0  0  0  0
   39.6500   30.1310   40.9680 C   0  0  0  0  0  0  0  0  0  0  0  0
   39.5100   31.0370   39.9530 C   0  0  0  0  0  0  0  0  0  0  0  0
   38.8930   30.7890   39.1000 H   0  0  0  0  0  0  0  0  0  0  0  0
   40.1520   32.2210   40.0470 C   0  0  0  0  0  3  0  0  0  0  0  0
   40.9330   32.4540   41.1920 C   0  0  0  0  0  3  0  0  0  0  0  0
   40.7110   30.8480   42.1840 S   0  0  0  0  0  0  0  0  0  0  0  0
  1  2  1  0  0  0  0
  2  8  1  0  0  0  0
  2  7  1  0  0  0  0
  2  3  1  0  0  0  0
  3  9  1  0  0  0  0
  3 10  1  0  0  0  0
  4  3  1  0  0  0  0
  4 12  1  0  0  0  0
  5 14  1  0  0  0  0
  5  4  1  0  0  0  0
  6 15  1  6  0  0  0
  6  1  1  0  0  0  0
  6  5  1  0  0  0  0
 11  4  1  0  0  0  0
 13  5  1  0  0  0  0
 16 17  1  0  0  0  0
 16 22  1  0  0  0  0
 17  1  1  0  0  0  0
 18 23  1  0  0  0  0
 18 17  2  0  0  0  0
 19 18  1  0  0  0  0
 20 19  2  0  0  0  0
 20 21  1  0  0  0  0
 21 16  2  0  0  0  0
 22 25  1  0  0  0  0
 24 20  1  0  0  0  0
 26 22  1  0  0  0  0
 27  6  1  0  0  0  0
 27 32  1  0  0  0  0
 28 30  1  0  0  0  0
 28 27  2  0  0  0  0
 29 28  1  0  0  0  0
 30 31  2  0  0  0  0
 31 32  1  0  0  0  0
M  END
>  <minimizedAffinity>
-4.67792988

$$$$

 OpenBabel03242518083D

 32 34  0  0  1  0  0  0  0  0999 V2000
   36.5450   29.0460   39.3660 N   0  0  0  0  0  0  0  0  0  0  0  0
   35.1770   28.6770   39.2390 C   0  0  0  0  0  0  0  0  0  0  0  0
   35.0200   27.6190   38.2150 C   0  0  0  0  0  0  0  0  0  0  0  0
   36.2050   26.8020   37.8850 C   0  0  0  0  0  0  0  0  0  0  0  0
   37.3320   26.8000   38.8510 C   0  0  0  0  0  0  0  0  0  0  0  0
   37.5380   28.0570   39.6490 C   0  0  2  0  0  0  0  0  0  0  0  0
   34.7990   28.3050   40.2110 H   0  0  0  0  0  0  0  0  0  0  0  0
   34.5370   29.5720   38.9860 H   0  0  0  0  0  0  0  0  0  0  0  0
   34.6450   28.1080   37.2740 H   0  0  0  0  0  0  0  0  0  0  0  0
   34.1420   26.9740   38.5150 H   0  0  0  0  0  0  0  0  0  0  0  0
   36.6240   27.1010   36.8790 H   0  0  0  0  0  0  0  0  0  0  0  0
   35.8750   25.7520   37.7220 H   0  0  0  0  0  0  0  0  0  0  0  0
   38.2680   26.4920   38.2970 H   0  0  0  0  0  0  0  0  0  0  0  0
   37.1690   25.9640   39.5590 H   0  0  0  0  0  0  0  0  0  0  0  0
   38.5300   28.4610   39.3630 H   0  0  0  0  0  0  0  0  0  0  0  0
   36.5980   31.3460   40.2040 C   0  0  0  0  0  0  0  0  0  0  0  0
   36.9210   30.4130   39.2070 C   0  0  0  0  0  0  0  0  0  0  0  0
   37.6210   30.8810   38.0640 C   0  0  0  0  0  0  0  0  0  0  0  0
   37.9270   32.1970   38.0180 N   0  0  0  0  0  0  0  0  0  0  0  0
   37.5960   33.0610   39.0000 C   0  0  0  0  0  0  0  0  0  0  0  0
   36.9330   32.6360   40.0880 N   0  0  0  0  0  0  0  0  0  0  0  0
   35.9020   30.8810   41.3450 N   0  0  0  0  0  0  0  0  0  0  0  0
   37.8760   30.1680   37.2910 H   0  0  0  0  0  0  0  0  0  0  0  0
   37.8480   34.1120   38.9480 H   0  0  0  0  0  0  0  0  0  0  0  0
   34.9640   30.5130   41.0150 H   0  0  0  0  0  0  0  0  0  0  0  0
   36.1370   30.8440   42.3500 H   0  0  0  0  0  0  0  0  0  0  0  0
   37.6310   27.7200   41.0930 C   0  0  0  0  0  0  0  0  0  0  0  0
   36.8200   26.9120   41.8410 C   0  0  0  0  0  0  0  0  0  0  0  0
   35.9810   26.4180   41.3710 H   0  0  0  0  0  0  0  0  0  0  0  0
   37.0940   26.7550   43.1540 C   0  0  0  0  0  3  0  0  0  0  0  0
   38.2050   27.4380   43.6770 C   0  0  0  0  0  3  0  0  0  0  0  0
   38.8850   28.3590   42.1590 S   0  0  0  0  0  0  0  0  0  0  0  0
  1  6  1  0  0  0  0
  2  1  1  0  0  0  0
  2  7  1  0  0  0  0
  3 10  1  0  0  0  0
  3  2  1  0  0  0  0
  4  3  1  0  0  0  0
  4  5  1  0  0  0  0
  5 14  1  0  0  0  0
  5  6  1  0  0  0  0
  6 15  1  6  0  0  0
  6 27  1  0  0  0  0
  8  2  1  0  0  0  0
  9  3  1  0  0  0  0
 11  4  1  0  0  0  0
 12  4  1  0  0  0  0
 13  5  1  0  0  0  0
 16 22  1  0  0  0  0
 17  1  1  0  0  0  0
 17 16  2  0  0  0  0
 18 17  1  0  0  0  0
 19 18  2  0  0  0  0
 19 20  1  0  0  0  0
 20 21  2  0  0  0  0
 21 16  1  0  0  0  0
 22 26  1  0  0  0  0
 23 18  1  0  0  0  0
 24 20  1  0  0  0  0
 25 22  1  0  0  0  0
 27 28  2  0  0  0  0
 27 32  1  0  0  0  0
 28 30  1  0  0  0  0
 29 28  1  0  0  0  0
 30 31  2  0  0  0  0
 32 31  1  0  0  0  0
M  END
>  <minimizedAffinity>
-4.67690277

$$$$
