
 OpenBabel03252509263D

 27 29  0  0  1  0  0  0  0  0999 V2000
   46.8150   35.1320   41.8870 C   0  0  1  0  0  0  0  0  0  0  0  0
   48.3170   35.5350   41.9460 C   0  0  0  0  0  0  0  0  0  0  0  0
   47.7210   34.2670   41.2520 C   0  0  2  0  0  0  0  0  0  0  0  0
   46.1960   35.8740   41.3430 H   0  0  0  0  0  0  0  0  0  0  0  0
   48.8680   35.4060   42.8700 H   0  0  0  0  0  0  0  0  0  0  0  0
   48.6300   36.3180   41.2370 H   0  0  0  0  0  0  0  0  0  0  0  0
   48.0040   33.3260   41.8200 H   0  0  0  0  0  0  0  0  0  0  0  0
   44.8250   35.0780   45.0700 C   0  0  0  0  0  0  0  0  0  0  0  0
   45.2740   35.5070   43.7820 C   0  0  0  0  0  0  0  0  0  0  0  0
   46.3040   34.7990   43.2610 C   0  0  0  0  0  0  0  0  0  0  0  0
   46.8770   33.7390   43.9380 N   0  0  0  0  0  0  0  0  0  0  0  0
   46.4190   33.3670   45.1600 C   0  0  0  0  0  0  0  0  0  0  0  0
   45.3910   34.0400   45.7250 N   0  0  0  0  0  0  0  0  0  0  0  0
   43.9960   35.6520   45.4810 H   0  0  0  0  0  0  0  0  0  0  0  0
   46.8590   32.5400   45.6990 H   0  0  0  0  0  0  0  0  0  0  0  0
   44.6950   36.6060   43.1050 N   0  0  0  0  0  0  0  0  0  0  0  0
   44.7060   37.6380   43.3210 H   0  0  0  0  0  0  0  0  0  0  0  0
   44.2290   36.1430   42.2990 H   0  0  0  0  0  0  0  0  0  0  0  0
   47.8080   34.1770   39.7450 C   0  0  0  0  0  0  0  0  0  0  0  0
   46.7650   33.9330   39.4000 H   0  0  0  0  0  0  0  0  0  0  0  0
   48.1810   35.1230   39.3020 H   0  0  0  0  0  0  0  0  0  0  0  0
   48.6430   33.0190   39.3780 C   0  0  0  0  0  0  0  0  0  0  0  0
   49.0400   32.4280   38.2130 C   0  0  0  0  0  0  0  0  0  0  0  0
   48.6930   32.8640   37.2870 H   0  0  0  0  0  0  0  0  0  0  0  0
   49.8500   31.3230   38.2960 C   0  0  0  0  0  3  0  0  0  0  0  0
   50.2180   30.8710   39.5340 C   0  0  0  0  0  3  0  0  0  0  0  0
   49.3580   32.0960   40.6660 S   0  0  0  0  0  0  0  0  0  0  0  0
  1  4  1  6  0  0  0
  1  2  1  0  0  0  0
  1 10  1  0  0  0  0
  2  5  1  0  0  0  0
  3  7  1  1  0  0  0
  3  1  1  0  0  0  0
  3  2  1  0  0  0  0
  6  2  1  0  0  0  0
  8 14  1  0  0  0  0
  8 13  1  0  0  0  0
  9  8  2  0  0  0  0
 10  9  1  0  0  0  0
 10 11  2  0  0  0  0
 11 12  1  0  0  0  0
 12 15  1  0  0  0  0
 12 13  2  0  0  0  0
 16 17  1  0  0  0  0
 16  9  1  0  0  0  0
 18 16  1  0  0  0  0
 19  3  1  0  0  0  0
 20 19  1  0  0  0  0
 21 19  1  0  0  0  0
 22 19  1  0  0  0  0
 22 27  1  0  0  0  0
 23 25  1  0  0  0  0
 23 22  2  0  0  0  0
 24 23  1  0  0  0  0
 25 26  2  0  0  0  0
 26 27  1  0  0  0  0
M  END
>  <minimizedAffinity>
-4.59654999

>  <minimizedRMSD>
0.70274514

$$$$
