
 OpenBabel03242523533D

 40 43  0  0  1  0  0  0  0  0999 V2000
   37.2160   31.8850   39.9990 C   0  0  1  0  0  0  0  0  0  0  0  0
   37.6110   31.7660   38.5240 C   0  0  1  0  0  0  0  0  0  0  0  0
   38.9870   32.0170   38.3900 O   0  0  0  0  0  0  0  0  0  0  0  0
   39.4660   32.9520   39.3060 C   0  0  0  0  0  0  0  0  0  0  0  0
   39.4540   32.3830   40.7180 C   0  0  2  0  0  0  0  0  0  0  0  0
   38.3870   31.2880   40.7580 C   0  0  1  0  0  0  0  0  0  0  0  0
   36.2790   31.3280   40.2010 H   0  0  0  0  0  0  0  0  0  0  0  0
   37.0910   32.4850   37.8790 H   0  0  0  0  0  0  0  0  0  0  0  0
   38.9790   33.9350   39.2430 H   0  0  0  0  0  0  0  0  0  0  0  0
   40.5230   33.1070   39.0350 H   0  0  0  0  0  0  0  0  0  0  0  0
   40.4360   32.0330   41.0300 H   0  0  0  0  0  0  0  0  0  0  0  0
   38.8220   30.4430   40.1480 H   0  0  0  0  0  0  0  0  0  0  0  0
   37.0480   33.2210   40.3560 O   0  0  0  0  0  0  0  0  0  0  0  0
   36.3590   33.5880   39.7270 H   0  0  0  0  0  0  0  0  0  0  0  0
   38.9310   33.3910   41.5610 O   0  0  0  0  0  0  0  0  0  0  0  0
   39.5600   34.1430   41.6550 H   0  0  0  0  0  0  0  0  0  0  0  0
   37.4400   30.4190   38.1920 O   0  0  0  0  0  0  0  0  0  0  0  0
   36.5920   29.9470   37.2760 C   0  0  0  0  0  0  0  0  0  0  0  0
   35.3650   29.4100   37.6610 C   0  0  0  0  0  0  0  0  0  0  0  0
   34.5090   28.9300   36.6770 C   0  0  0  0  0  0  0  0  0  0  0  0
   34.8930   28.9960   35.3450 N   0  0  0  0  0  0  0  0  0  0  0  0
   36.0850   29.5210   35.0190 C   0  0  0  0  0  0  0  0  0  0  0  0
   36.9290   29.9930   35.9650 N   0  0  0  0  0  0  0  0  0  0  0  0
   35.0300   29.3410   38.6800 H   0  0  0  0  0  0  0  0  0  0  0  0
   36.4090   29.5850   33.9890 H   0  0  0  0  0  0  0  0  0  0  0  0
   33.1750   28.3300   37.0510 C   0  0  0  0  0  0  0  0  0  0  0  0
   31.9340   29.0690   36.6100 C   0  0  0  0  0  0  0  0  0  0  0  0
   32.3680   27.7090   36.0330 C   0  0  0  0  0  0  0  0  0  0  0  0
   33.1360   28.0870   38.1320 H   0  0  0  0  0  0  0  0  0  0  0  0
   31.0380   29.0850   37.2440 H   0  0  0  0  0  0  0  0  0  0  0  0
   32.1010   29.9270   35.9310 H   0  0  0  0  0  0  0  0  0  0  0  0
   32.7650   27.7220   34.9930 H   0  0  0  0  0  0  0  0  0  0  0  0
   31.7130   26.8680   36.3400 H   0  0  0  0  0  0  0  0  0  0  0  0
   38.0940   30.9340   42.0510 O   0  0  0  0  0  0  0  0  0  0  0  0
   37.6320   29.5520   42.2120 C   0  0  0  0  0  0  0  0  0  0  0  0
   37.9470   28.9600   43.3430 C   0  0  0  0  0  0  0  0  0  0  0  0
   38.5100   29.3000   44.2350 H   0  0  0  0  0  0  0  0  0  0  0  0
   37.6200   27.7050   43.6780 C   0  0  0  0  0  3  0  0  0  0  0  0
   36.8820   27.0640   42.6710 C   0  0  0  0  0  3  0  0  0  0  0  0
   36.7390   28.3840   41.3080 S   0  0  0  0  0  0  0  0  0  0  0  0
  1  7  1  1  0  0  0
  1 13  1  0  0  0  0
  1  6  1  0  0  0  0
  2  8  1  6  0  0  0
  2  1  1  0  0  0  0
  3  2  1  0  0  0  0
  3  4  1  0  0  0  0
  4  5  1  0  0  0  0
  5  6  1  0  0  0  0
  5 11  1  1  0  0  0
  5 15  1  0  0  0  0
  6 12  1  6  0  0  0
  6 34  1  0  0  0  0
  9  4  1  0  0  0  0
 10  4  1  0  0  0  0
 14 13  1  0  0  0  0
 15 16  1  0  0  0  0
 17  2  1  0  0  0  0
 18 19  1  0  0  0  0
 18 17  1  0  0  0  0
 19 24  1  0  0  0  0
 20 26  1  0  0  0  0
 20 19  2  0  0  0  0
 21 20  1  0  0  0  0
 22 21  2  0  0  0  0
 22 23  1  0  0  0  0
 23 18  2  0  0  0  0
 25 22  1  0  0  0  0
 26 29  1  0  0  0  0
 27 26  1  0  0  0  0
 27 30  1  0  0  0  0
 28 33  1  0  0  0  0
 28 27  1  0  0  0  0
 28 26  1  0  0  0  0
 31 27  1  0  0  0  0
 32 28  1  0  0  0  0
 34 35  1  0  0  0  0
 35 36  2  0  0  0  0
 36 38  1  0  0  0  0
 36 37  1  0  0  0  0
 39 38  2  0  0  0  0
 40 35  1  0  0  0  0
 40 39  1  0  0  0  0
M  END
>  <minimizedAffinity>
-5.75392818

$$$$

 OpenBabel03242523533D

 40 43  0  0  1  0  0  0  0  0999 V2000
   36.6760   30.0960   40.3560 C   0  0  1  0  0  0  0  0  0  0  0  0
   36.5480   29.6630   38.8930 C   0  0  1  0  0  0  0  0  0  0  0  0
   37.2040   30.5960   38.0730 O   0  0  0  0  0  0  0  0  0  0  0  0
   37.1370   31.8980   38.5620 C   0  0  0  0  0  0  0  0  0  0  0  0
   37.9730   32.0480   39.8250 C   0  0  2  0  0  0  0  0  0  0  0  0
   38.0800   30.6630   40.4660 C   0  0  1  0  0  0  0  0  0  0  0  0
   36.5350   29.2320   41.0360 H   0  0  0  0  0  0  0  0  0  0  0  0
   35.5080   29.6100   38.5480 H   0  0  0  0  0  0  0  0  0  0  0  0
   36.1150   32.2820   38.6850 H   0  0  0  0  0  0  0  0  0  0  0  0
   37.6150   32.5230   37.7890 H   0  0  0  0  0  0  0  0  0  0  0  0
   38.9430   32.5010   39.6280 H   0  0  0  0  0  0  0  0  0  0  0  0
   38.7600   30.0810   39.7780 H   0  0  0  0  0  0  0  0  0  0  0  0
   35.7390   31.0810   40.6600 O   0  0  0  0  0  0  0  0  0  0  0  0
   34.8450   30.6870   40.4360 H   0  0  0  0  0  0  0  0  0  0  0  0
   37.1950   32.7840   40.7480 O   0  0  0  0  0  0  0  0  0  0  0  0
   37.0950   33.7220   40.4640 H   0  0  0  0  0  0  0  0  0  0  0  0
   37.2840   28.4800   38.7810 O   0  0  0  0  0  0  0  0  0  0  0  0
   36.7740   27.2470   38.7590 C   0  0  0  0  0  0  0  0  0  0  0  0
   37.0110   26.3670   39.8130 C   0  0  0  0  0  0  0  0  0  0  0  0
   36.4610   25.0920   39.7540 C   0  0  0  0  0  0  0  0  0  0  0  0
   35.6950   24.7280   38.6560 N   0  0  0  0  0  0  0  0  0  0  0  0
   35.4930   25.6080   37.6620 C   0  0  0  0  0  0  0  0  0  0  0  0
   36.0210   26.8530   37.7050 N   0  0  0  0  0  0  0  0  0  0  0  0
   37.5980   26.6080   40.6810 H   0  0  0  0  0  0  0  0  0  0  0  0
   34.9000   25.3500   36.7940 H   0  0  0  0  0  0  0  0  0  0  0  0
   36.7020   24.1030   40.8690 C   0  0  0  0  0  0  0  0  0  0  0  0
   38.0860   24.0600   41.4710 C   0  0  0  0  0  0  0  0  0  0  0  0
   36.8450   24.5800   42.2200 C   0  0  0  0  0  0  0  0  0  0  0  0
   36.3550   23.0880   40.5840 H   0  0  0  0  0  0  0  0  0  0  0  0
   38.5190   23.1100   41.8110 H   0  0  0  0  0  0  0  0  0  0  0  0
   38.7810   24.8530   41.1350 H   0  0  0  0  0  0  0  0  0  0  0  0
   36.7920   25.6800   42.3780 H   0  0  0  0  0  0  0  0  0  0  0  0
   36.5090   23.9100   43.0380 H   0  0  0  0  0  0  0  0  0  0  0  0
   38.5490   30.7510   41.7520 O   0  0  0  0  0  0  0  0  0  0  0  0
   38.6150   29.4700   42.4630 C   0  0  0  0  0  0  0  0  0  0  0  0
   39.6790   28.7320   42.2350 C   0  0  0  0  0  0  0  0  0  0  0  0
   40.5700   28.8800   41.5940 H   0  0  0  0  0  0  0  0  0  0  0  0
   39.9230   27.5340   42.7840 C   0  0  0  0  0  3  0  0  0  0  0  0
   38.9010   27.1340   43.6560 C   0  0  0  0  0  3  0  0  0  0  0  0
   37.6580   28.5730   43.5850 S   0  0  0  0  0  0  0  0  0  0  0  0
  1  6  1  0  0  0  0
  1 13  1  0  0  0  0
  1  7  1  1  0  0  0
  2  8  1  6  0  0  0
  2  1  1  0  0  0  0
  3  4  1  0  0  0  0
  3  2  1  0  0  0  0
  4  9  1  0  0  0  0
  4  5  1  0  0  0  0
  5 11  1  6  0  0  0
  5  6  1  0  0  0  0
  5 15  1  0  0  0  0
  6 12  1  6  0  0  0
  6 34  1  0  0  0  0
 10  4  1  0  0  0  0
 14 13  1  0  0  0  0
 16 15  1  0  0  0  0
 17  2  1  0  0  0  0
 18 17  1  0  0  0  0
 18 19  1  0  0  0  0
 19 24  1  0  0  0  0
 20 19  2  0  0  0  0
 20 26  1  0  0  0  0
 21 20  1  0  0  0  0
 22 23  1  0  0  0  0
 22 21  2  0  0  0  0
 23 18  2  0  0  0  0
 25 22  1  0  0  0  0
 26 27  1  0  0  0  0
 26 28  1  0  0  0  0
 27 30  1  0  0  0  0
 27 28  1  0  0  0  0
 28 32  1  0  0  0  0
 28 33  1  0  0  0  0
 29 26  1  0  0  0  0
 31 27  1  0  0  0  0
 34 35  1  0  0  0  0
 35 40  1  0  0  0  0
 36 35  2  0  0  0  0
 36 38  1  0  0  0  0
 37 36  1  0  0  0  0
 38 39  2  0  0  0  0
 40 39  1  0  0  0  0
M  END
>  <minimizedAffinity>
-5.69643784

$$$$

 OpenBabel03242523533D

 40 43  0  0  1  0  0  0  0  0999 V2000
   39.8790   30.5200   38.6910 C   0  0  1  0  0  0  0  0  0  0  0  0
   41.1730   30.4120   39.5040 C   0  0  1  0  0  0  0  0  0  0  0  0
   41.9410   31.5720   39.3080 O   0  0  0  0  0  0  0  0  0  0  0  0
   41.8050   32.1110   38.0310 C   0  0  0  0  0  0  0  0  0  0  0  0
   40.4150   32.7000   37.8360 C   0  0  2  0  0  0  0  0  0  0  0  0
   39.4760   31.9780   38.8040 C   0  0  1  0  0  0  0  0  0  0  0  0
   39.0970   29.8520   39.1070 H   0  0  0  0  0  0  0  0  0  0  0  0
   41.7980   29.5610   39.2090 H   0  0  0  0  0  0  0  0  0  0  0  0
   42.0910   31.4270   37.2190 H   0  0  0  0  0  0  0  0  0  0  0  0
   42.5150   32.9540   37.9950 H   0  0  0  0  0  0  0  0  0  0  0  0
   40.4040   33.7810   37.9580 H   0  0  0  0  0  0  0  0  0  0  0  0
   39.7720   32.3580   39.8260 H   0  0  0  0  0  0  0  0  0  0  0  0
   40.1080   30.1900   37.3570 O   0  0  0  0  0  0  0  0  0  0  0  0
   40.4990   29.2670   37.3670 H   0  0  0  0  0  0  0  0  0  0  0  0
   39.9670   32.2810   36.5610 O   0  0  0  0  0  0  0  0  0  0  0  0
   40.4730   32.7230   35.8400 H   0  0  0  0  0  0  0  0  0  0  0  0
   40.7820   30.4410   40.8460 O   0  0  0  0  0  0  0  0  0  0  0  0
   40.7690   29.3940   41.6730 C   0  0  0  0  0  0  0  0  0  0  0  0
   39.5600   28.8340   42.0820 C   0  0  0  0  0  0  0  0  0  0  0  0
   39.5870   27.7440   42.9430 C   0  0  0  0  0  0  0  0  0  0  0  0
   40.8080   27.2440   43.3730 N   0  0  0  0  0  0  0  0  0  0  0  0
   41.9490   27.8150   42.9550 C   0  0  0  0  0  0  0  0  0  0  0  0
   41.9380   28.8760   42.1160 N   0  0  0  0  0  0  0  0  0  0  0  0
   38.5940   29.1910   41.7720 H   0  0  0  0  0  0  0  0  0  0  0  0
   42.9140   27.4450   43.2750 H   0  0  0  0  0  0  0  0  0  0  0  0
   38.3010   27.1130   43.4190 C   0  0  0  0  0  0  0  0  0  0  0  0
   37.1320   28.0330   43.6800 C   0  0  0  0  0  0  0  0  0  0  0  0
   37.1810   27.0230   42.5180 C   0  0  0  0  0  0  0  0  0  0  0  0
   38.4830   26.4380   44.2800 H   0  0  0  0  0  0  0  0  0  0  0  0
   36.4310   27.8270   44.4980 H   0  0  0  0  0  0  0  0  0  0  0  0
   37.2730   29.0870   43.3730 H   0  0  0  0  0  0  0  0  0  0  0  0
   37.3130   27.4520   41.5000 H   0  0  0  0  0  0  0  0  0  0  0  0
   36.4880   26.1660   42.6470 H   0  0  0  0  0  0  0  0  0  0  0  0
   38.1630   32.2230   38.4890 O   0  0  0  0  0  0  0  0  0  0  0  0
   37.2090   31.2890   39.0970 C   0  0  0  0  0  0  0  0  0  0  0  0
   36.9880   31.4380   40.3850 C   0  0  0  0  0  0  0  0  0  0  0  0
   37.3850   32.1490   41.1350 H   0  0  0  0  0  0  0  0  0  0  0  0
   36.1560   30.6880   41.1190 C   0  0  0  0  0  3  0  0  0  0  0  0
   35.5240   29.6960   40.3550 C   0  0  0  0  0  3  0  0  0  0  0  0
   36.2220   29.9620   38.6050 S   0  0  0  0  0  0  0  0  0  0  0  0
  1  6  1  0  0  0  0
  1  7  1  1  0  0  0
  1  2  1  0  0  0  0
  2  8  1  6  0  0  0
  2 17  1  0  0  0  0
  3  2  1  0  0  0  0
  4  3  1  0  0  0  0
  5 11  1  1  0  0  0
  5  4  1  0  0  0  0
  5  6  1  0  0  0  0
  6 12  1  1  0  0  0
  9  4  1  0  0  0  0
 10  4  1  0  0  0  0
 13 14  1  0  0  0  0
 13  1  1  0  0  0  0
 15  5  1  0  0  0  0
 16 15  1  0  0  0  0
 17 18  1  0  0  0  0
 18 19  2  0  0  0  0
 18 23  1  0  0  0  0
 19 20  1  0  0  0  0
 20 21  2  0  0  0  0
 20 26  1  0  0  0  0
 22 25  1  0  0  0  0
 22 21  1  0  0  0  0
 23 22  2  0  0  0  0
 24 19  1  0  0  0  0
 26 27  1  0  0  0  0
 26 29  1  0  0  0  0
 27 30  1  0  0  0  0
 28 33  1  0  0  0  0
 28 26  1  0  0  0  0
 28 27  1  0  0  0  0
 31 27  1  0  0  0  0
 32 28  1  0  0  0  0
 34  6  1  0  0  0  0
 34 35  1  0  0  0  0
 35 36  2  0  0  0  0
 36 38  1  0  0  0  0
 36 37  1  0  0  0  0
 39 38  2  0  0  0  0
 40 35  1  0  0  0  0
 40 39  1  0  0  0  0
M  END
>  <minimizedAffinity>
-5.55671453

$$$$

 OpenBabel03242523533D

 40 43  0  0  1  0  0  0  0  0999 V2000
   38.5180   29.7590   37.8550 C   0  0  1  0  0  0  0  0  0  0  0  0
   38.5550   29.9250   39.3780 C   0  0  1  0  0  0  0  0  0  0  0  0
   38.1810   31.2370   39.7110 O   0  0  0  0  0  0  0  0  0  0  0  0
   38.5780   32.1780   38.7630 C   0  0  0  0  0  0  0  0  0  0  0  0
   37.7870   32.0160   37.4730 C   0  0  2  0  0  0  0  0  0  0  0  0
   37.3100   30.5640   37.4110 C   0  0  1  0  0  0  0  0  0  0  0  0
   38.4150   28.6910   37.5790 H   0  0  0  0  0  0  0  0  0  0  0  0
   39.5510   29.7580   39.8060 H   0  0  0  0  0  0  0  0  0  0  0  0
   39.6630   32.2160   38.5910 H   0  0  0  0  0  0  0  0  0  0  0  0
   38.2940   33.1560   39.1890 H   0  0  0  0  0  0  0  0  0  0  0  0
   36.9740   32.7350   37.3930 H   0  0  0  0  0  0  0  0  0  0  0  0
   36.5140   30.4900   38.2080 H   0  0  0  0  0  0  0  0  0  0  0  0
   39.6750   30.2780   37.2780 O   0  0  0  0  0  0  0  0  0  0  0  0
   40.4390   29.7980   37.7140 H   0  0  0  0  0  0  0  0  0  0  0  0
   38.7140   32.1090   36.4090 O   0  0  0  0  0  0  0  0  0  0  0  0
   39.0620   33.0250   36.3140 H   0  0  0  0  0  0  0  0  0  0  0  0
   37.5370   29.1060   39.8730 O   0  0  0  0  0  0  0  0  0  0  0  0
   37.5970   28.3850   40.9950 C   0  0  0  0  0  0  0  0  0  0  0  0
   37.2630   27.0330   40.9830 C   0  0  0  0  0  0  0  0  0  0  0  0
   37.3390   26.3150   42.1700 C   0  0  0  0  0  0  0  0  0  0  0  0
   37.7440   26.9580   43.3320 N   0  0  0  0  0  0  0  0  0  0  0  0
   38.0560   28.2640   43.2980 C   0  0  0  0  0  0  0  0  0  0  0  0
   37.9870   28.9750   42.1500 N   0  0  0  0  0  0  0  0  0  0  0  0
   36.9450   26.4970   40.1060 H   0  0  0  0  0  0  0  0  0  0  0  0
   38.3740   28.7890   44.1890 H   0  0  0  0  0  0  0  0  0  0  0  0
   36.9760   24.8510   42.2040 C   0  0  0  0  0  0  0  0  0  0  0  0
   36.5590   24.2090   40.9020 C   0  0  0  0  0  0  0  0  0  0  0  0
   37.8760   23.8840   41.6310 C   0  0  0  0  0  0  0  0  0  0  0  0
   36.2430   24.6400   43.0100 H   0  0  0  0  0  0  0  0  0  0  0  0
   35.7860   23.4300   40.8860 H   0  0  0  0  0  0  0  0  0  0  0  0
   36.6800   24.8350   39.9980 H   0  0  0  0  0  0  0  0  0  0  0  0
   38.8050   24.2740   41.1600 H   0  0  0  0  0  0  0  0  0  0  0  0
   37.8950   22.8710   42.0810 H   0  0  0  0  0  0  0  0  0  0  0  0
   36.8580   30.2470   36.1550 O   0  0  0  0  0  0  0  0  0  0  0  0
   35.8120   29.2200   36.1280 C   0  0  0  0  0  0  0  0  0  0  0  0
   35.0040   29.1830   37.1660 C   0  0  0  0  0  0  0  0  0  0  0  0
   34.9470   29.7880   38.0920 H   0  0  0  0  0  0  0  0  0  0  0  0
   33.9920   28.3210   37.3290 C   0  0  0  0  0  3  0  0  0  0  0  0
   33.8720   27.4350   36.2480 C   0  0  0  0  0  3  0  0  0  0  0  0
   35.2800   27.9570   35.0790 S   0  0  0  0  0  0  0  0  0  0  0  0
  1  7  1  6  0  0  0
  1  2  1  0  0  0  0
  2  3  1  0  0  0  0
  2  8  1  1  0  0  0
  2 17  1  0  0  0  0
  4 10  1  0  0  0  0
  4  3  1  0  0  0  0
  5 11  1  6  0  0  0
  5  4  1  0  0  0  0
  6  5  1  0  0  0  0
  6  1  1  0  0  0  0
  6 12  1  1  0  0  0
  9  4  1  0  0  0  0
 13 14  1  0  0  0  0
 13  1  1  0  0  0  0
 15  5  1  0  0  0  0
 16 15  1  0  0  0  0
 17 18  1  0  0  0  0
 18 23  1  0  0  0  0
 19 18  2  0  0  0  0
 19 20  1  0  0  0  0
 20 26  1  0  0  0  0
 20 21  2  0  0  0  0
 22 21  1  0  0  0  0
 22 25  1  0  0  0  0
 23 22  2  0  0  0  0
 24 19  1  0  0  0  0
 26 29  1  0  0  0  0
 27 28  1  0  0  0  0
 27 26  1  0  0  0  0
 28 33  1  0  0  0  0
 28 26  1  0  0  0  0
 30 27  1  0  0  0  0
 31 27  1  0  0  0  0
 32 28  1  0  0  0  0
 34  6  1  0  0  0  0
 35 34  1  0  0  0  0
 35 36  2  0  0  0  0
 36 38  1  0  0  0  0
 36 37  1  0  0  0  0
 39 38  2  0  0  0  0
 40 35  1  0  0  0  0
 40 39  1  0  0  0  0
M  END
>  <minimizedAffinity>
-5.54478836

$$$$

 OpenBabel03242523533D

 40 43  0  0  1  0  0  0  0  0999 V2000
   36.9650   30.1350   41.2670 C   0  0  1  0  0  0  0  0  0  0  0  0
   36.7560   29.0150   40.2430 C   0  0  1  0  0  0  0  0  0  0  0  0
   36.9490   29.5280   38.9500 O   0  0  0  0  0  0  0  0  0  0  0  0
   36.5490   30.8560   38.8210 C   0  0  0  0  0  0  0  0  0  0  0  0
   37.4800   31.7800   39.5940 C   0  0  2  0  0  0  0  0  0  0  0  0
   38.1160   30.9520   40.7120 C   0  0  1  0  0  0  0  0  0  0  0  0
   37.2120   29.7150   42.2630 H   0  0  0  0  0  0  0  0  0  0  0  0
   35.7460   28.5880   40.2700 H   0  0  0  0  0  0  0  0  0  0  0  0
   35.4900   31.0340   39.0540 H   0  0  0  0  0  0  0  0  0  0  0  0
   36.6800   31.0960   37.7520 H   0  0  0  0  0  0  0  0  0  0  0  0
   38.2140   32.2610   38.9500 H   0  0  0  0  0  0  0  0  0  0  0  0
   38.8320   30.2570   40.1820 H   0  0  0  0  0  0  0  0  0  0  0  0
   35.8230   30.9270   41.3680 O   0  0  0  0  0  0  0  0  0  0  0  0
   35.0760   30.3020   41.6050 H   0  0  0  0  0  0  0  0  0  0  0  0
   36.6610   32.7020   40.2860 O   0  0  0  0  0  0  0  0  0  0  0  0
   36.2270   33.3320   39.6660 H   0  0  0  0  0  0  0  0  0  0  0  0
   37.8020   28.1110   40.4500 O   0  0  0  0  0  0  0  0  0  0  0  0
   37.6690   26.8550   40.8800 C   0  0  0  0  0  0  0  0  0  0  0  0
   36.8320   25.9650   40.2100 C   0  0  0  0  0  0  0  0  0  0  0  0
   36.7210   24.6650   40.6880 C   0  0  0  0  0  0  0  0  0  0  0  0
   37.4390   24.2880   41.8140 N   0  0  0  0  0  0  0  0  0  0  0  0
   38.2330   25.1780   42.4300 C   0  0  0  0  0  0  0  0  0  0  0  0
   38.3520   26.4470   41.9750 N   0  0  0  0  0  0  0  0  0  0  0  0
   36.2590   26.2170   39.3360 H   0  0  0  0  0  0  0  0  0  0  0  0
   38.8030   24.9100   43.3090 H   0  0  0  0  0  0  0  0  0  0  0  0
   35.8170   23.6710   39.9990 C   0  0  0  0  0  0  0  0  0  0  0  0
   35.3460   24.0130   38.6060 C   0  0  0  0  0  0  0  0  0  0  0  0
   36.3360   22.8750   38.9170 C   0  0  0  0  0  0  0  0  0  0  0  0
   34.9680   23.3840   40.6520 H   0  0  0  0  0  0  0  0  0  0  0  0
   34.3400   23.7280   38.2710 H   0  0  0  0  0  0  0  0  0  0  0  0
   35.8090   24.9070   38.1480 H   0  0  0  0  0  0  0  0  0  0  0  0
   37.3940   23.0500   38.6200 H   0  0  0  0  0  0  0  0  0  0  0  0
   35.9060   21.8620   38.7750 H   0  0  0  0  0  0  0  0  0  0  0  0
   38.7260   31.7610   41.6370 O   0  0  0  0  0  0  0  0  0  0  0  0
   40.1890   31.6650   41.6570 C   0  0  0  0  0  0  0  0  0  0  0  0
   40.7160   31.0050   42.6650 C   0  0  0  0  0  0  0  0  0  0  0  0
   40.2690   30.4860   43.5360 H   0  0  0  0  0  0  0  0  0  0  0  0
   42.0270   30.8090   42.8620 C   0  0  0  0  0  3  0  0  0  0  0  0
   42.8070   31.3940   41.8540 C   0  0  0  0  0  3  0  0  0  0  0  0
   41.5240   32.1900   40.6960 S   0  0  0  0  0  0  0  0  0  0  0  0
  1 13  1  0  0  0  0
  1  7  1  1  0  0  0
  2  8  1  1  0  0  0
  2 17  1  0  0  0  0
  2  1  1  0  0  0  0
  3  2  1  0  0  0  0
  4  3  1  0  0  0  0
  4  9  1  0  0  0  0
  4  5  1  0  0  0  0
  5 11  1  6  0  0  0
  5 15  1  0  0  0  0
  5  6  1  0  0  0  0
  6 12  1  6  0  0  0
  6  1  1  0  0  0  0
  6 34  1  0  0  0  0
 10  4  1  0  0  0  0
 13 14  1  0  0  0  0
 16 15  1  0  0  0  0
 17 18  1  0  0  0  0
 18 23  1  0  0  0  0
 19 20  1  0  0  0  0
 19 18  2  0  0  0  0
 20 21  2  0  0  0  0
 21 22  1  0  0  0  0
 22 25  1  0  0  0  0
 23 22  2  0  0  0  0
 24 19  1  0  0  0  0
 26 29  1  0  0  0  0
 26 20  1  0  0  0  0
 27 28  1  0  0  0  0
 27 26  1  0  0  0  0
 28 26  1  0  0  0  0
 30 27  1  0  0  0  0
 31 27  1  0  0  0  0
 32 28  1  0  0  0  0
 33 28  1  0  0  0  0
 34 35  1  0  0  0  0
 35 36  2  0  0  0  0
 36 38  1  0  0  0  0
 36 37  1  0  0  0  0
 39 38  2  0  0  0  0
 40 35  1  0  0  0  0
 40 39  1  0  0  0  0
M  END
>  <minimizedAffinity>
-5.51212788

$$$$

 OpenBabel03242523533D

 40 43  0  0  1  0  0  0  0  0999 V2000
   37.7950   31.2760   40.3840 C   0  0  1  0  0  0  0  0  0  0  0  0
   38.0780   31.1110   38.8880 C   0  0  1  0  0  0  0  0  0  0  0  0
   39.1870   31.8970   38.5360 O   0  0  0  0  0  0  0  0  0  0  0  0
   39.2830   33.0740   39.2750 C   0  0  0  0  0  0  0  0  0  0  0  0
   39.6390   32.7780   40.7250 C   0  0  2  0  0  0  0  0  0  0  0  0
   39.1680   31.3540   41.0270 C   0  0  1  0  0  0  0  0  0  0  0  0
   37.2170   30.4120   40.7720 H   0  0  0  0  0  0  0  0  0  0  0  0
   37.2430   31.4350   38.2530 H   0  0  0  0  0  0  0  0  0  0  0  0
   38.4110   33.7370   39.1820 H   0  0  0  0  0  0  0  0  0  0  0  0
   40.1380   33.6200   38.8430 H   0  0  0  0  0  0  0  0  0  0  0  0
   40.6980   32.9280   40.9290 H   0  0  0  0  0  0  0  0  0  0  0  0
   39.8760   30.6900   40.4500 H   0  0  0  0  0  0  0  0  0  0  0  0
   37.0890   32.4520   40.6240 O   0  0  0  0  0  0  0  0  0  0  0  0
   36.2590   32.3920   40.0650 H   0  0  0  0  0  0  0  0  0  0  0  0
   38.8000   33.5850   41.5270 O   0  0  0  0  0  0  0  0  0  0  0  0
   39.0420   34.5370   41.4540 H   0  0  0  0  0  0  0  0  0  0  0  0
   38.4870   29.7850   38.7220 O   0  0  0  0  0  0  0  0  0  0  0  0
   37.7190   28.7080   38.8980 C   0  0  0  0  0  0  0  0  0  0  0  0
   38.1680   27.6410   39.6730 C   0  0  0  0  0  0  0  0  0  0  0  0
   37.3400   26.5380   39.8350 C   0  0  0  0  0  0  0  0  0  0  0  0
   36.0930   26.5250   39.2240 N   0  0  0  0  0  0  0  0  0  0  0  0
   35.7000   27.5740   38.4850 C   0  0  0  0  0  0  0  0  0  0  0  0
   36.4960   28.6560   38.3200 N   0  0  0  0  0  0  0  0  0  0  0  0
   39.1260   27.6110   40.1620 H   0  0  0  0  0  0  0  0  0  0  0  0
   34.7340   27.5900   37.9990 H   0  0  0  0  0  0  0  0  0  0  0  0
   37.7910   25.3550   40.6570 C   0  0  0  0  0  0  0  0  0  0  0  0
   36.8880   24.9060   41.7810 C   0  0  0  0  0  0  0  0  0  0  0  0
   37.1270   24.0870   40.4980 C   0  0  0  0  0  0  0  0  0  0  0  0
   38.8350   25.4890   41.0070 H   0  0  0  0  0  0  0  0  0  0  0  0
   37.3120   24.5150   42.7150 H   0  0  0  0  0  0  0  0  0  0  0  0
   35.9000   25.4000   41.8290 H   0  0  0  0  0  0  0  0  0  0  0  0
   36.2800   24.0450   39.7790 H   0  0  0  0  0  0  0  0  0  0  0  0
   37.7280   23.1700   40.6640 H   0  0  0  0  0  0  0  0  0  0  0  0
   39.1690   31.1120   42.3770 O   0  0  0  0  0  0  0  0  0  0  0  0
   39.3130   29.6980   42.7400 C   0  0  0  0  0  0  0  0  0  0  0  0
   38.2450   29.1120   43.2360 C   0  0  0  0  0  0  0  0  0  0  0  0
   37.2200   29.4770   43.4450 H   0  0  0  0  0  0  0  0  0  0  0  0
   38.1750   27.8330   43.6270 C   0  0  0  0  0  3  0  0  0  0  0  0
   39.3910   27.1570   43.4490 C   0  0  0  0  0  3  0  0  0  0  0  0
   40.5400   28.4840   42.7140 S   0  0  0  0  0  0  0  0  0  0  0  0
  1 13  1  0  0  0  0
  1  7  1  1  0  0  0
  1  6  1  0  0  0  0
  2  8  1  6  0  0  0
  2  1  1  0  0  0  0
  3  2  1  0  0  0  0
  3  4  1  0  0  0  0
  4  5  1  0  0  0  0
  5 11  1  1  0  0  0
  5  6  1  0  0  0  0
  5 15  1  0  0  0  0
  6 12  1  6  0  0  0
  6 34  1  0  0  0  0
  9  4  1  0  0  0  0
 10  4  1  0  0  0  0
 14 13  1  0  0  0  0
 16 15  1  0  0  0  0
 17  2  1  0  0  0  0
 17 18  1  0  0  0  0
 18 19  1  0  0  0  0
 19 20  2  0  0  0  0
 19 24  1  0  0  0  0
 20 26  1  0  0  0  0
 21 20  1  0  0  0  0
 22 21  2  0  0  0  0
 23 22  1  0  0  0  0
 23 18  2  0  0  0  0
 25 22  1  0  0  0  0
 26 29  1  0  0  0  0
 26 27  1  0  0  0  0
 27 31  1  0  0  0  0
 27 30  1  0  0  0  0
 28 26  1  0  0  0  0
 28 33  1  0  0  0  0
 28 27  1  0  0  0  0
 32 28  1  0  0  0  0
 34 35  1  0  0  0  0
 35 36  2  0  0  0  0
 36 37  1  0  0  0  0
 36 38  1  0  0  0  0
 39 38  2  0  0  0  0
 40 35  1  0  0  0  0
 40 39  1  0  0  0  0
M  END
>  <minimizedAffinity>
-5.49675703

$$$$

 OpenBabel03242523533D

 40 43  0  0  1  0  0  0  0  0999 V2000
   39.4930   30.8270   39.8560 C   0  0  1  0  0  0  0  0  0  0  0  0
   40.2050   30.9430   41.2070 C   0  0  1  0  0  0  0  0  0  0  0  0
   40.6210   32.2710   41.4000 O   0  0  0  0  0  0  0  0  0  0  0  0
   40.9770   32.9120   40.2150 C   0  0  0  0  0  0  0  0  0  0  0  0
   39.7540   33.1590   39.3430 C   0  0  2  0  0  0  0  0  0  0  0  0
   38.7030   32.1160   39.7270 C   0  0  1  0  0  0  0  0  0  0  0  0
   38.8260   29.9420   39.8390 H   0  0  0  0  0  0  0  0  0  0  0  0
   41.1010   30.3150   41.2780 H   0  0  0  0  0  0  0  0  0  0  0  0
   41.7950   32.4240   39.6660 H   0  0  0  0  0  0  0  0  0  0  0  0
   41.3540   33.9020   40.5230 H   0  0  0  0  0  0  0  0  0  0  0  0
   39.3890   34.1810   39.4240 H   0  0  0  0  0  0  0  0  0  0  0  0
   38.3510   32.4300   40.7530 H   0  0  0  0  0  0  0  0  0  0  0  0
   40.4190   30.7290   38.8200 O   0  0  0  0  0  0  0  0  0  0  0  0
   40.9930   29.9370   39.0400 H   0  0  0  0  0  0  0  0  0  0  0  0
   40.1130   32.8020   38.0230 O   0  0  0  0  0  0  0  0  0  0  0  0
   40.7610   33.4390   37.6420 H   0  0  0  0  0  0  0  0  0  0  0  0
   39.2240   30.7120   42.1750 O   0  0  0  0  0  0  0  0  0  0  0  0
   38.8830   29.5170   42.6650 C   0  0  0  0  0  0  0  0  0  0  0  0
   39.8330   28.5050   42.7770 C   0  0  0  0  0  0  0  0  0  0  0  0
   39.4400   27.2760   43.2930 C   0  0  0  0  0  0  0  0  0  0  0  0
   38.1200   27.0880   43.6800 N   0  0  0  0  0  0  0  0  0  0  0  0
   37.2380   28.0910   43.5530 C   0  0  0  0  0  0  0  0  0  0  0  0
   37.6060   29.2930   43.0540 N   0  0  0  0  0  0  0  0  0  0  0  0
   40.8640   28.6090   42.4900 H   0  0  0  0  0  0  0  0  0  0  0  0
   36.2040   27.9720   43.8460 H   0  0  0  0  0  0  0  0  0  0  0  0
   40.4340   26.1470   43.4220 C   0  0  0  0  0  0  0  0  0  0  0  0
   39.9060   24.7390   43.2840 C   0  0  0  0  0  0  0  0  0  0  0  0
   40.8260   25.4110   42.2480 C   0  0  0  0  0  0  0  0  0  0  0  0
   41.0480   26.2590   44.3390 H   0  0  0  0  0  0  0  0  0  0  0  0
   40.3320   23.9220   43.8820 H   0  0  0  0  0  0  0  0  0  0  0  0
   38.8500   24.6510   42.9670 H   0  0  0  0  0  0  0  0  0  0  0  0
   40.3500   25.7010   41.2850 H   0  0  0  0  0  0  0  0  0  0  0  0
   41.8520   24.9890   42.2270 H   0  0  0  0  0  0  0  0  0  0  0  0
   37.6970   32.0660   38.7960 O   0  0  0  0  0  0  0  0  0  0  0  0
   36.8360   30.8830   38.8960 C   0  0  0  0  0  0  0  0  0  0  0  0
   36.1970   30.7230   40.0350 C   0  0  0  0  0  0  0  0  0  0  0  0
   36.1720   31.3170   40.9690 H   0  0  0  0  0  0  0  0  0  0  0  0
   35.3680   29.7100   40.3220 C   0  0  0  0  0  3  0  0  0  0  0  0
   35.2430   28.8100   39.2540 C   0  0  0  0  0  3  0  0  0  0  0  0
   36.3730   29.5450   37.9100 S   0  0  0  0  0  0  0  0  0  0  0  0
  1  7  1  6  0  0  0
  1  2  1  0  0  0  0
  2  8  1  1  0  0  0
  2  3  1  0  0  0  0
  2 17  1  0  0  0  0
  4 10  1  0  0  0  0
  4  3  1  0  0  0  0
  5 11  1  1  0  0  0
  5  6  1  0  0  0  0
  5  4  1  0  0  0  0
  6  1  1  0  0  0  0
  6 12  1  1  0  0  0
  9  4  1  0  0  0  0
 13 14  1  0  0  0  0
 13  1  1  0  0  0  0
 15  5  1  0  0  0  0
 16 15  1  0  0  0  0
 17 18  1  0  0  0  0
 18 19  2  0  0  0  0
 18 23  1  0  0  0  0
 19 20  1  0  0  0  0
 20 26  1  0  0  0  0
 20 21  2  0  0  0  0
 22 21  1  0  0  0  0
 22 25  1  0  0  0  0
 23 22  2  0  0  0  0
 24 19  1  0  0  0  0
 26 29  1  0  0  0  0
 27 26  1  0  0  0  0
 27 30  1  0  0  0  0
 28 27  1  0  0  0  0
 28 26  1  0  0  0  0
 31 27  1  0  0  0  0
 32 28  1  0  0  0  0
 33 28  1  0  0  0  0
 34 35  1  0  0  0  0
 34  6  1  0  0  0  0
 35 36  2  0  0  0  0
 36 38  1  0  0  0  0
 36 37  1  0  0  0  0
 39 38  2  0  0  0  0
 40 35  1  0  0  0  0
 40 39  1  0  0  0  0
M  END
>  <minimizedAffinity>
-5.48316002

$$$$

 OpenBabel03242523533D

 40 43  0  0  1  0  0  0  0  0999 V2000
   38.1140   32.0060   40.5580 C   0  0  1  0  0  0  0  0  0  0  0  0
   37.9510   31.7690   39.0530 C   0  0  1  0  0  0  0  0  0  0  0  0
   39.1860   31.9700   38.4160 O   0  0  0  0  0  0  0  0  0  0  0  0
   39.9630   32.9550   39.0220 C   0  0  0  0  0  0  0  0  0  0  0  0
   40.4600   32.4920   40.3840 C   0  0  2  0  0  0  0  0  0  0  0  0
   39.4790   31.4330   40.8900 C   0  0  1  0  0  0  0  0  0  0  0  0
   37.3110   31.4930   41.1260 H   0  0  0  0  0  0  0  0  0  0  0  0
   37.2330   32.4540   38.5840 H   0  0  0  0  0  0  0  0  0  0  0  0
   39.4870   33.9450   39.0610 H   0  0  0  0  0  0  0  0  0  0  0  0
   40.8520   33.0600   38.3780 H   0  0  0  0  0  0  0  0  0  0  0  0
   41.4880   32.1370   40.3490 H   0  0  0  0  0  0  0  0  0  0  0  0
   39.6640   30.5340   40.2330 H   0  0  0  0  0  0  0  0  0  0  0  0
   38.0860   33.3690   40.8460 O   0  0  0  0  0  0  0  0  0  0  0  0
   37.2170   33.7090   40.4790 H   0  0  0  0  0  0  0  0  0  0  0  0
   40.2770   33.5720   41.2770 O   0  0  0  0  0  0  0  0  0  0  0  0
   40.8980   34.3110   41.0790 H   0  0  0  0  0  0  0  0  0  0  0  0
   37.6700   30.4070   38.9120 O   0  0  0  0  0  0  0  0  0  0  0  0
   36.4580   29.8790   38.7330 C   0  0  0  0  0  0  0  0  0  0  0  0
   36.0330   29.5030   37.4610 C   0  0  0  0  0  0  0  0  0  0  0  0
   34.7640   28.9550   37.3150 C   0  0  0  0  0  0  0  0  0  0  0  0
   33.9560   28.7970   38.4330 N   0  0  0  0  0  0  0  0  0  0  0  0
   34.4060   29.1740   39.6400 C   0  0  0  0  0  0  0  0  0  0  0  0
   35.6390   29.7080   39.7980 N   0  0  0  0  0  0  0  0  0  0  0  0
   36.6270   29.6080   36.5710 H   0  0  0  0  0  0  0  0  0  0  0  0
   33.7970   29.0620   40.5280 H   0  0  0  0  0  0  0  0  0  0  0  0
   34.2600   28.5440   35.9530 C   0  0  0  0  0  0  0  0  0  0  0  0
   33.1200   29.3420   35.3660 C   0  0  0  0  0  0  0  0  0  0  0  0
   34.5560   29.3690   34.8100 C   0  0  0  0  0  0  0  0  0  0  0  0
   34.0510   27.4560   35.9170 H   0  0  0  0  0  0  0  0  0  0  0  0
   32.3520   28.8510   34.7540 H   0  0  0  0  0  0  0  0  0  0  0  0
   32.8310   30.2510   35.9260 H   0  0  0  0  0  0  0  0  0  0  0  0
   35.1360   30.3000   34.9940 H   0  0  0  0  0  0  0  0  0  0  0  0
   34.6600   28.8640   33.8280 H   0  0  0  0  0  0  0  0  0  0  0  0
   39.6710   31.1830   42.2260 O   0  0  0  0  0  0  0  0  0  0  0  0
   39.2620   29.8430   42.6570 C   0  0  0  0  0  0  0  0  0  0  0  0
   40.2240   28.9570   42.7980 C   0  0  0  0  0  0  0  0  0  0  0  0
   41.3210   29.0140   42.6530 H   0  0  0  0  0  0  0  0  0  0  0  0
   40.0550   27.6840   43.1800 C   0  0  0  0  0  3  0  0  0  0  0  0
   38.7080   27.3800   43.4250 C   0  0  0  0  0  3  0  0  0  0  0  0
   37.8040   29.0150   43.0640 S   0  0  0  0  0  0  0  0  0  0  0  0
  1 13  1  0  0  0  0
  1  6  1  0  0  0  0
  1  7  1  1  0  0  0
  2  8  1  6  0  0  0
  2  1  1  0  0  0  0
  3  4  1  0  0  0  0
  3  2  1  0  0  0  0
  4  9  1  0  0  0  0
  4  5  1  0  0  0  0
  5 11  1  6  0  0  0
  5  6  1  0  0  0  0
  5 15  1  0  0  0  0
  6 12  1  6  0  0  0
  6 34  1  0  0  0  0
 10  4  1  0  0  0  0
 14 13  1  0  0  0  0
 16 15  1  0  0  0  0
 17  2  1  0  0  0  0
 18 17  1  0  0  0  0
 18 23  1  0  0  0  0
 19 18  2  0  0  0  0
 20 19  1  0  0  0  0
 20 21  2  0  0  0  0
 21 22  1  0  0  0  0
 22 23  2  0  0  0  0
 22 25  1  0  0  0  0
 24 19  1  0  0  0  0
 26 20  1  0  0  0  0
 27 31  1  0  0  0  0
 27 26  1  0  0  0  0
 28 32  1  0  0  0  0
 28 27  1  0  0  0  0
 28 26  1  0  0  0  0
 29 26  1  0  0  0  0
 30 27  1  0  0  0  0
 33 28  1  0  0  0  0
 34 35  1  0  0  0  0
 35 36  2  0  0  0  0
 35 40  1  0  0  0  0
 36 38  1  0  0  0  0
 37 36  1  0  0  0  0
 38 39  2  0  0  0  0
 40 39  1  0  0  0  0
M  END
>  <minimizedAffinity>
-5.38349915

$$$$

 OpenBabel03242523533D

 40 43  0  0  1  0  0  0  0  0999 V2000
   39.2970   31.7260   38.7530 C   0  0  1  0  0  0  0  0  0  0  0  0
   40.1950   31.3550   39.9370 C   0  0  1  0  0  0  0  0  0  0  0  0
   39.6010   31.8030   41.1280 O   0  0  0  0  0  0  0  0  0  0  0  0
   38.8800   32.9850   40.9710 C   0  0  0  0  0  0  0  0  0  0  0  0
   37.6260   32.7490   40.1430 C   0  0  2  0  0  0  0  0  0  0  0  0
   37.8830   31.5220   39.2660 C   0  0  1  0  0  0  0  0  0  0  0  0
   39.5080   31.0750   37.8810 H   0  0  0  0  0  0  0  0  0  0  0  0
   41.1900   31.8130   39.8840 H   0  0  0  0  0  0  0  0  0  0  0  0
   39.4760   33.8310   40.6020 H   0  0  0  0  0  0  0  0  0  0  0  0
   38.5450   33.2570   41.9860 H   0  0  0  0  0  0  0  0  0  0  0  0
   36.7350   32.6510   40.7610 H   0  0  0  0  0  0  0  0  0  0  0  0
   37.8810   30.6510   39.9850 H   0  0  0  0  0  0  0  0  0  0  0  0
   39.4860   33.0580   38.3930 O   0  0  0  0  0  0  0  0  0  0  0  0
   40.4650   33.1530   38.1980 H   0  0  0  0  0  0  0  0  0  0  0  0
   37.5410   33.8120   39.2140 O   0  0  0  0  0  0  0  0  0  0  0  0
   37.3260   34.6630   39.6610 H   0  0  0  0  0  0  0  0  0  0  0  0
   40.1740   29.9590   40.0070 O   0  0  0  0  0  0  0  0  0  0  0  0
   40.2330   29.2370   41.1280 C   0  0  0  0  0  0  0  0  0  0  0  0
   39.0930   28.6060   41.6210 C   0  0  0  0  0  0  0  0  0  0  0  0
   39.1950   27.8620   42.7900 C   0  0  0  0  0  0  0  0  0  0  0  0
   40.4210   27.7670   43.4340 N   0  0  0  0  0  0  0  0  0  0  0  0
   41.4940   28.3920   42.9240 C   0  0  0  0  0  0  0  0  0  0  0  0
   41.4100   29.1190   41.7860 N   0  0  0  0  0  0  0  0  0  0  0  0
   38.1260   28.6550   41.1540 H   0  0  0  0  0  0  0  0  0  0  0  0
   42.4600   28.3340   43.4060 H   0  0  0  0  0  0  0  0  0  0  0  0
   37.9820   27.1710   43.3660 C   0  0  0  0  0  0  0  0  0  0  0  0
   36.6260   27.6890   42.9500 C   0  0  0  0  0  0  0  0  0  0  0  0
   37.1850   26.3200   42.5210 C   0  0  0  0  0  0  0  0  0  0  0  0
   38.0590   27.0830   44.4690 H   0  0  0  0  0  0  0  0  0  0  0  0
   35.7880   27.6920   43.6590 H   0  0  0  0  0  0  0  0  0  0  0  0
   36.6290   28.4530   42.1500 H   0  0  0  0  0  0  0  0  0  0  0  0
   37.4950   26.2280   41.4570 H   0  0  0  0  0  0  0  0  0  0  0  0
   36.6700   25.4620   42.9990 H   0  0  0  0  0  0  0  0  0  0  0  0
   36.9380   31.4170   38.2770 O   0  0  0  0  0  0  0  0  0  0  0  0
   36.3470   30.0820   38.1420 C   0  0  0  0  0  0  0  0  0  0  0  0
   36.3160   29.3460   39.2310 C   0  0  0  0  0  0  0  0  0  0  0  0
   36.6560   29.5300   40.2690 H   0  0  0  0  0  0  0  0  0  0  0  0
   35.8200   28.1040   39.3120 C   0  0  0  0  0  3  0  0  0  0  0  0
   35.3190   27.6530   38.0820 C   0  0  0  0  0  3  0  0  0  0  0  0
   35.6300   29.1150   36.9050 S   0  0  0  0  0  0  0  0  0  0  0  0
  1  7  1  6  0  0  0
  1  6  1  0  0  0  0
  1  2  1  0  0  0  0
  2  8  1  6  0  0  0
  2 17  1  0  0  0  0
  2  3  1  0  0  0  0
  4  3  1  0  0  0  0
  4 10  1  0  0  0  0
  5 11  1  1  0  0  0
  5  4  1  0  0  0  0
  6 12  1  1  0  0  0
  6  5  1  0  0  0  0
  9  4  1  0  0  0  0
 13  1  1  0  0  0  0
 14 13  1  0  0  0  0
 15 16  1  0  0  0  0
 15  5  1  0  0  0  0
 17 18  1  0  0  0  0
 18 19  2  0  0  0  0
 18 23  1  0  0  0  0
 19 20  1  0  0  0  0
 20 26  1  0  0  0  0
 20 21  2  0  0  0  0
 22 25  1  0  0  0  0
 22 21  1  0  0  0  0
 23 22  2  0  0  0  0
 24 19  1  0  0  0  0
 26 29  1  0  0  0  0
 27 26  1  0  0  0  0
 27 30  1  0  0  0  0
 28 27  1  0  0  0  0
 28 33  1  0  0  0  0
 28 26  1  0  0  0  0
 31 27  1  0  0  0  0
 32 28  1  0  0  0  0
 34  6  1  0  0  0  0
 35 34  1  0  0  0  0
 35 36  2  0  0  0  0
 36 38  1  0  0  0  0
 36 37  1  0  0  0  0
 39 38  2  0  0  0  0
 40 39  1  0  0  0  0
 40 35  1  0  0  0  0
M  END
>  <minimizedAffinity>
-5.36397362

$$$$
