
 OpenBabel03242512373D

 31 34  0  0  0  0  0  0  0  0999 V2000
   47.6320   35.0450   42.0600 C   0  0  0  0  0  0  0  0  0  0  0  0
   48.7540   35.6060   42.1460 O   0  0  0  0  0  0  0  0  0  0  0  0
   46.2090   33.6910   40.4520 C   0  0  0  0  0  0  0  0  0  0  0  0
   47.3410   34.4290   40.7410 C   0  0  0  0  0  0  0  0  0  0  0  0
   48.3010   34.6130   39.7530 C   0  0  0  0  0  0  0  0  0  0  0  0
   48.1830   34.0880   38.4760 C   0  0  0  0  0  0  0  0  0  0  0  0
   48.9610   34.1290   37.3770 N   0  0  0  0  0  0  0  0  0  0  0  0
   48.3640   33.4400   36.3960 C   0  0  0  0  0  0  0  0  0  0  0  0
   47.1570   32.9410   36.8910 C   0  0  0  0  0  0  0  0  0  0  0  0
   47.0470   33.3550   38.2120 C   0  0  0  0  0  0  0  0  0  0  0  0
   46.0920   33.1660   39.1740 C   0  0  0  0  0  0  0  0  0  0  0  0
   45.4850   33.5710   41.2450 H   0  0  0  0  0  0  0  0  0  0  0  0
   49.2370   35.1840   39.8850 H   0  0  0  0  0  0  0  0  0  0  0  0
   49.8860   34.6110   37.2750 H   0  0  0  0  0  0  0  0  0  0  0  0
   48.7650   33.3050   35.3940 H   0  0  0  0  0  0  0  0  0  0  0  0
   46.4590   32.3440   36.3220 H   0  0  0  0  0  0  0  0  0  0  0  0
   45.2070   32.5870   38.9450 H   0  0  0  0  0  0  0  0  0  0  0  0
   46.6460   34.9570   43.1010 C   0  0  0  0  0  0  0  0  0  0  0  0
   45.5950   35.8500   43.0340 C   0  0  0  0  0  0  0  0  0  0  0  0
   44.6310   35.7600   44.0630 C   0  0  0  0  0  0  0  0  0  0  0  0
   44.7850   34.8190   45.0430 N   0  0  0  0  0  0  0  0  0  0  0  0
   45.8240   33.9850   45.0500 C   0  0  0  0  0  0  0  0  0  0  0  0
   46.7590   34.0480   44.0810 N   0  0  0  0  0  0  0  0  0  0  0  0
   45.4380   36.5950   42.2910 H   0  0  0  0  0  0  0  0  0  0  0  0
   43.7740   36.4140   44.0980 H   0  0  0  0  0  0  0  0  0  0  0  0
   45.8800   33.0300   46.1390 C   0  0  0  0  0  0  0  0  0  0  0  0
   45.2970   33.0040   47.3580 C   0  0  0  0  0  0  0  0  0  0  0  0
   44.6580   33.8400   47.6050 H   0  0  0  0  0  0  0  0  0  0  0  0
   45.5280   31.9630   48.2020 C   0  0  0  0  0  0  0  0  0  0  0  0
   46.3660   30.9500   47.7710 C   0  0  0  0  0  0  0  0  0  0  0  0
   46.8740   31.4460   46.1140 S   0  0  0  0  0  0  0  0  0  0  0  0
  1  2  2  0  0  0  0
  1 18  1  0  0  0  0
  3  4  1  0  0  0  0
  3 12  1  0  0  0  0
  4  1  1  0  0  0  0
  5 13  1  0  0  0  0
  5  4  2  0  0  0  0
  6  5  1  0  0  0  0
  7  6  1  0  0  0  0
  8  9  2  0  0  0  0
  8  7  1  0  0  0  0
  9 10  1  0  0  0  0
 10  6  2  0  0  0  0
 10 11  1  0  0  0  0
 11  3  2  0  0  0  0
 14  7  1  0  0  0  0
 15  8  1  0  0  0  0
 16  9  1  0  0  0  0
 17 11  1  0  0  0  0
 18 23  1  0  0  0  0
 19 18  2  0  0  0  0
 19 20  1  0  0  0  0
 20 25  1  0  0  0  0
 20 21  2  0  0  0  0
 21 22  1  0  0  0  0
 22 26  1  0  0  0  0
 23 22  2  0  0  0  0
 24 19  1  0  0  0  0
 26 27  2  0  0  0  0
 27 28  1  0  0  0  0
 27 29  1  0  0  0  0
 30 29  2  0  0  0  0
 31 26  1  0  0  0  0
 31 30  1  0  0  0  0
M  END
>  <minimizedAffinity>
-6.3041153

>  <minimizedRMSD>
0.569982231

$$$$
