
 OpenBabel03252509263D

 27 29  0  0  1  0  0  0  0  0999 V2000
   46.6620   35.0950   41.9220 C   0  0  1  0  0  0  0  0  0  0  0  0
   48.1720   35.4740   41.9610 C   0  0  0  0  0  0  0  0  0  0  0  0
   47.5530   34.1810   41.3360 C   0  0  2  0  0  0  0  0  0  0  0  0
   46.0570   35.8180   41.3380 H   0  0  0  0  0  0  0  0  0  0  0  0
   48.7200   35.3840   42.8910 H   0  0  0  0  0  0  0  0  0  0  0  0
   48.4990   36.2110   41.2110 H   0  0  0  0  0  0  0  0  0  0  0  0
   47.8190   33.2670   41.9530 H   0  0  0  0  0  0  0  0  0  0  0  0
   44.7060   35.2860   45.1200 C   0  0  0  0  0  0  0  0  0  0  0  0
   45.1680   35.6380   43.8140 C   0  0  0  0  0  0  0  0  0  0  0  0
   46.1450   34.8460   43.3110 C   0  0  0  0  0  0  0  0  0  0  0  0
   46.6550   33.7760   44.0220 N   0  0  0  0  0  0  0  0  0  0  0  0
   46.1870   33.4790   45.2600 C   0  0  0  0  0  0  0  0  0  0  0  0
   45.2110   34.2380   45.8080 N   0  0  0  0  0  0  0  0  0  0  0  0
   43.9210   35.9270   45.5170 H   0  0  0  0  0  0  0  0  0  0  0  0
   46.5790   32.6450   45.8260 H   0  0  0  0  0  0  0  0  0  0  0  0
   44.6550   36.7460   43.1010 N   0  0  0  0  0  0  0  0  0  0  0  0
   44.7350   37.7830   43.2800 H   0  0  0  0  0  0  0  0  0  0  0  0
   44.1520   36.2860   42.3170 H   0  0  0  0  0  0  0  0  0  0  0  0
   47.6390   34.0080   39.8360 C   0  0  0  0  0  0  0  0  0  0  0  0
   46.6310   33.6160   39.5230 H   0  0  0  0  0  0  0  0  0  0  0  0
   47.8870   34.9640   39.3300 H   0  0  0  0  0  0  0  0  0  0  0  0
   48.6080   32.9420   39.5270 C   0  0  0  0  0  0  0  0  0  0  0  0
   49.1510   32.4100   38.3920 C   0  0  0  0  0  0  0  0  0  0  0  0
   48.8370   32.8260   37.4460 H   0  0  0  0  0  0  0  0  0  0  0  0
   50.0550   31.3870   38.5300 C   0  0  0  0  0  3  0  0  0  0  0  0
   50.3660   30.9520   39.7900 C   0  0  0  0  0  3  0  0  0  0  0  0
   49.3040   32.0690   40.8610 S   0  0  0  0  0  0  0  0  0  0  0  0
  1  4  1  6  0  0  0
  1  2  1  0  0  0  0
  1 10  1  0  0  0  0
  2  5  1  0  0  0  0
  3  1  1  0  0  0  0
  3  7  1  1  0  0  0
  3  2  1  0  0  0  0
  6  2  1  0  0  0  0
  8 14  1  0  0  0  0
  8 13  1  0  0  0  0
  9  8  2  0  0  0  0
 10  9  1  0  0  0  0
 10 11  2  0  0  0  0
 11 12  1  0  0  0  0
 12 13  2  0  0  0  0
 12 15  1  0  0  0  0
 16 17  1  0  0  0  0
 16  9  1  0  0  0  0
 18 16  1  0  0  0  0
 19  3  1  0  0  0  0
 20 19  1  0  0  0  0
 21 19  1  0  0  0  0
 22 19  1  0  0  0  0
 22 27  1  0  0  0  0
 23 25  1  0  0  0  0
 23 22  2  0  0  0  0
 24 23  1  0  0  0  0
 25 26  2  0  0  0  0
 26 27  1  0  0  0  0
M  END
>  <minimizedAffinity>
-4.60901308

>  <minimizedRMSD>
0.310283542

$$$$
