
 OpenBabel03252508563D

 21 22  0  0  0  0  0  0  0  0999 V2000
   43.8490   35.1220   40.9440 C   0  0  0  0  0  0  0  0  0  0  0  0
   44.4640   34.2760   40.6340 H   0  0  0  0  0  0  0  0  0  0  0  0
   43.9650   35.9080   40.1820 H   0  0  0  0  0  0  0  0  0  0  0  0
   40.0810   35.2690   40.8220 C   0  0  0  0  0  0  0  0  0  0  0  0
   41.4460   35.6570   40.7640 C   0  0  0  0  0  0  0  0  0  0  0  0
   42.4290   34.7090   41.0070 C   0  0  0  0  0  0  0  0  0  0  0  0
   42.0200   33.4480   41.2880 N   0  0  0  0  0  0  0  0  0  0  0  0
   40.7270   33.0960   41.3390 C   0  0  0  0  0  0  0  0  0  0  0  0
   39.7710   34.0000   41.1080 N   0  0  0  0  0  0  0  0  0  0  0  0
   39.3480   36.0430   40.6260 H   0  0  0  0  0  0  0  0  0  0  0  0
   41.7670   36.6750   40.5370 H   0  0  0  0  0  0  0  0  0  0  0  0
   40.4690   32.0680   41.5700 H   0  0  0  0  0  0  0  0  0  0  0  0
   44.2630   35.6550   42.2960 C   0  0  0  0  0  0  0  0  0  0  0  0
   43.4370   35.3890   43.0170 H   0  0  0  0  0  0  0  0  0  0  0  0
   44.3620   36.7380   42.3230 H   0  0  0  0  0  0  0  0  0  0  0  0
   45.4600   34.9630   42.7920 C   0  0  0  0  0  0  0  0  0  0  0  0
   46.7710   35.0430   42.3840 C   0  0  0  0  0  0  0  0  0  0  0  0
   46.9990   35.7150   41.5720 H   0  0  0  0  0  0  0  0  0  0  0  0
   47.7170   34.2930   43.0020 C   0  0  0  0  0  3  0  0  0  0  0  0
   47.2260   33.4420   44.0810 C   0  0  0  0  0  3  0  0  0  0  0  0
   45.4010   33.8170   44.0980 S   0  0  0  0  0  0  0  0  0  0  0  0
  1  6  1  0  0  0  0
  1 13  1  0  0  0  0
  2  1  1  0  0  0  0
  3  1  1  0  0  0  0
  4  9  1  0  0  0  0
  5  4  2  0  0  0  0
  5  6  1  0  0  0  0
  6  7  2  0  0  0  0
  7  8  1  0  0  0  0
  8 12  1  0  0  0  0
  9  8  2  0  0  0  0
 10  4  1  0  0  0  0
 11  5  1  0  0  0  0
 13 15  1  0  0  0  0
 13 16  1  0  0  0  0
 13 14  1  0  0  0  0
 16 21  1  0  0  0  0
 17 16  2  0  0  0  0
 17 19  1  0  0  0  0
 18 17  1  0  0  0  0
 19 20  2  0  0  0  0
 20 21  1  0  0  0  0
M  END
>  <minimizedAffinity>
-3.84962773

>  <minimizedRMSD>
5.12924147

$$$$
