
 OpenBabel03242523533D

 42 45  0  0  1  0  0  0  0  0999 V2000
   42.7790   34.3510   38.9170 C   0  0  1  0  0  0  0  0  0  0  0  0
   42.9900   35.1750   40.1780 C   0  0  1  0  0  0  0  0  0  0  0  0
   41.7330   35.6020   40.6450 O   0  0  0  0  0  0  0  0  0  0  0  0
   40.8460   35.8970   39.6060 C   0  0  0  0  0  0  0  0  0  0  0  0
   40.4160   34.6480   38.8600 C   0  0  2  0  0  0  0  0  0  0  0  0
   41.5240   33.5710   39.1350 C   0  0  1  0  0  0  0  0  0  0  0  0
   43.6650   33.6940   38.7250 H   0  0  0  0  0  0  0  0  0  0  0  0
   43.6770   36.0210   40.0330 H   0  0  0  0  0  0  0  0  0  0  0  0
   39.9540   36.3210   40.0790 H   0  0  0  0  0  0  0  0  0  0  0  0
   41.2490   36.6710   38.9240 H   0  0  0  0  0  0  0  0  0  0  0  0
   39.4390   34.2750   39.2020 H   0  0  0  0  0  0  0  0  0  0  0  0
   41.2850   33.4630   40.2460 H   0  0  0  0  0  0  0  0  0  0  0  0
   42.6600   35.1780   37.7910 O   0  0  0  0  0  0  0  0  0  0  0  0
   43.5180   35.5460   37.5260 H   0  0  0  0  0  0  0  0  0  0  0  0
   40.4710   34.8810   37.4930 O   0  0  0  0  0  0  0  0  0  0  0  0
   39.5770   35.1380   37.1260 H   0  0  0  0  0  0  0  0  0  0  0  0
   43.4220   34.2600   41.1510 O   0  0  0  0  0  0  0  0  0  0  0  0
   44.5650   34.3560   41.8430 C   0  0  0  0  0  0  0  0  0  0  0  0
   45.7980   34.4730   41.1850 C   0  0  0  0  0  0  0  0  0  0  0  0
   46.9500   34.5710   41.9500 C   0  0  0  0  0  0  0  0  0  0  0  0
   46.8480   34.5490   43.3300 N   0  0  0  0  0  0  0  0  0  0  0  0
   45.6400   34.4350   43.9280 C   0  0  0  0  0  0  0  0  0  0  0  0
   44.5050   34.3380   43.1870 N   0  0  0  0  0  0  0  0  0  0  0  0
   45.8840   34.4910   40.1130 H   0  0  0  0  0  0  0  0  0  0  0  0
   45.6380   34.4240   45.0100 H   0  0  0  0  0  0  0  0  0  0  0  0
   48.3010   34.6830   41.3230 C   0  0  0  0  0  0  0  0  0  0  0  0
   49.0410   36.0060   41.5230 C   0  0  0  0  0  0  0  0  0  0  0  0
   49.4890   34.6570   42.1160 C   0  0  0  0  0  0  0  0  0  0  0  0
   48.3160   34.3340   40.2520 H   0  0  0  0  0  0  0  0  0  0  0  0
   48.6300   36.7130   42.2430 H   0  0  0  0  0  0  0  0  0  0  0  0
   49.6910   36.3580   40.7000 H   0  0  0  0  0  0  0  0  0  0  0  0
   50.4260   34.2040   41.7320 H   0  0  0  0  0  0  0  0  0  0  0  0
   49.3910   34.5510   43.2240 H   0  0  0  0  0  0  0  0  0  0  0  0
   41.2890   32.5300   38.3140 O   0  0  0  0  0  0  0  0  0  0  0  0
   40.2800   31.6630   38.2810 C   0  0  0  0  0  0  0  0  0  0  0  0
   39.9780   30.9450   37.2110 O   0  0  0  0  0  0  0  0  0  0  0  0
   39.2020   31.2050   39.3530 C   0  0  0  0  0  0  0  0  0  0  0  0
   38.7820   31.7300   40.4500 C   0  0  0  0  0  0  0  0  0  0  0  0
   39.2410   32.6780   40.7040 H   0  0  0  0  0  0  0  0  0  0  0  0
   37.8340   31.0940   41.1880 C   0  0  0  0  0  3  0  0  0  0  0  0
   37.3710   29.8760   40.6800 C   0  0  0  0  0  3  0  0  0  0  0  0
   38.4050   29.7200   39.0650 S   0  0  0  0  0  0  0  0  0  0  0  0
  1  7  1  6  0  0  0
  1  6  1  0  0  0  0
  1  2  1  0  0  0  0
  2  8  1  6  0  0  0
  2  3  1  0  0  0  0
  2 17  1  0  0  0  0
  4  9  1  0  0  0  0
  4  3  1  0  0  0  0
  5  6  1  0  0  0  0
  5 11  1  1  0  0  0
  5  4  1  0  0  0  0
  6 12  1  1  0  0  0
 10  4  1  0  0  0  0
 13  1  1  0  0  0  0
 14 13  1  0  0  0  0
 15  5  1  0  0  0  0
 16 15  1  0  0  0  0
 17 18  1  0  0  0  0
 18 23  1  0  0  0  0
 19 18  2  0  0  0  0
 19 20  1  0  0  0  0
 20 21  2  0  0  0  0
 21 22  1  0  0  0  0
 22 25  1  0  0  0  0
 23 22  2  0  0  0  0
 24 19  1  0  0  0  0
 26 27  1  0  0  0  0
 26 20  1  0  0  0  0
 26 28  1  0  0  0  0
 27 28  1  0  0  0  0
 27 30  1  0  0  0  0
 28 33  1  0  0  0  0
 29 26  1  0  0  0  0
 31 27  1  0  0  0  0
 32 28  1  0  0  0  0
 34  6  1  0  0  0  0
 35 34  1  0  0  0  0
 35 37  1  0  0  0  0
 36 35  2  0  0  0  0
 37 38  2  0  0  0  0
 38 39  1  0  0  0  0
 38 40  1  0  0  0  0
 41 40  2  0  0  0  0
 42 37  1  0  0  0  0
 42 41  1  0  0  0  0
M  END
>  <minimizedAffinity>
-6.23044968

>  <minimizedRMSD>
1.9285953

$$$$
