
 OpenBabel03252505513D

 22 23  0  0  0  0  0  0  0  0999 V2000
   43.0330   34.1270   39.1850 C   0  0  0  0  0  0  0  0  0  0  0  0
   42.1410   35.0530   39.7230 C   0  0  0  0  0  0  0  0  0  0  0  0
   42.4840   35.6570   40.9490 C   0  0  0  0  0  0  0  0  0  0  0  0
   43.6510   35.3120   41.5420 N   0  0  0  0  0  0  0  0  0  0  0  0
   44.4790   34.4160   40.9900 C   0  0  0  0  0  0  0  0  0  0  0  0
   44.1910   33.8140   39.8180 N   0  0  0  0  0  0  0  0  0  0  0  0
   42.7840   33.6560   38.2460 H   0  0  0  0  0  0  0  0  0  0  0  0
   41.7800   36.3600   41.3310 H   0  0  0  0  0  0  0  0  0  0  0  0
   40.8850   35.3410   38.9540 C   0  0  0  0  0  0  0  0  0  0  0  0
   41.1990   36.3570   38.1000 F   0  0  0  0  0  0  0  0  0  0  0  0
   39.9530   35.7750   39.8920 F   0  0  0  0  0  0  0  0  0  0  0  0
   40.4740   34.1800   38.3580 F   0  0  0  0  0  0  0  0  0  0  0  0
   45.6790   34.0390   41.5620 O   0  0  0  0  0  0  0  0  0  0  0  0
   46.5170   34.9570   42.2340 C   0  0  0  0  0  0  0  0  0  0  0  0
   46.6690   35.8880   41.6250 H   0  0  0  0  0  0  0  0  0  0  0  0
   46.1750   35.1960   43.2550 H   0  0  0  0  0  0  0  0  0  0  0  0
   47.8580   34.3200   42.3140 C   0  0  0  0  0  0  0  0  0  0  0  0
   48.2120   33.0480   42.5190 C   0  0  0  0  0  0  0  0  0  0  0  0
   47.4240   32.3190   42.6540 H   0  0  0  0  0  0  0  0  0  0  0  0
   49.5270   32.6670   42.5580 C   0  0  0  0  0  3  0  0  0  0  0  0
   50.4550   33.7650   42.3590 C   0  0  0  0  0  3  0  0  0  0  0  0
   49.3080   35.2340   42.1360 S   0  0  0  0  0  0  0  0  0  0  0  0
  1  2  2  0  0  0  0
  1  6  1  0  0  0  0
  2  3  1  0  0  0  0
  3  8  1  0  0  0  0
  3  4  2  0  0  0  0
  5  4  1  0  0  0  0
  5 13  1  0  0  0  0
  6  5  2  0  0  0  0
  7  1  1  0  0  0  0
  9  2  1  0  0  0  0
  9 11  1  0  0  0  0
 10  9  1  0  0  0  0
 12  9  1  0  0  0  0
 13 14  1  0  0  0  0
 14 17  1  0  0  0  0
 14 16  1  0  0  0  0
 15 14  1  0  0  0  0
 17 18  2  0  0  0  0
 18 20  1  0  0  0  0
 18 19  1  0  0  0  0
 21 20  2  0  0  0  0
 22 17  1  0  0  0  0
 22 21  1  0  0  0  0
M  END
>  <minimizedAffinity>
-4.32561207

>  <minimizedRMSD>
7.37804937

$$$$
