
 OpenBabel03252508193D

 44 48  0  0  1  0  0  0  0  0999 V2000
   37.1300   26.2800   39.5080 C   0  0  0  0  0  0  0  0  0  0  0  0
   37.2180   27.3200   39.7800 H   0  0  0  0  0  0  0  0  0  0  0  0
   38.0190   25.9260   38.9150 H   0  0  0  0  0  0  0  0  0  0  0  0
   36.8950   25.2890   40.5970 C   0  0  1  0  0  0  0  0  0  0  0  0
   38.1300   24.7880   41.2640 C   0  0  0  0  0  0  0  0  0  0  0  0
   37.1970   25.6400   42.0000 C   0  0  1  0  0  0  0  0  0  0  0  0
   36.2610   24.3990   40.3080 H   0  0  0  0  0  0  0  0  0  0  0  0
   38.2650   23.7590   41.5960 H   0  0  0  0  0  0  0  0  0  0  0  0
   39.1070   25.2800   41.0190 H   0  0  0  0  0  0  0  0  0  0  0  0
   36.5400   25.1430   42.7440 H   0  0  0  0  0  0  0  0  0  0  0  0
   37.5210   27.0660   42.3100 C   0  0  2  0  0  0  0  0  0  0  0  0
   36.8620   27.6000   43.6020 C   0  0  0  0  0  0  0  0  0  0  0  0
   36.3770   28.0750   42.2940 C   0  0  1  0  0  0  0  0  0  0  0  0
   38.5550   27.4240   42.2570 H   0  0  0  0  0  0  0  0  0  0  0  0
   36.2600   26.8980   44.1830 H   0  0  0  0  0  0  0  0  0  0  0  0
   37.3700   28.3490   44.2150 H   0  0  0  0  0  0  0  0  0  0  0  0
   35.3740   27.6870   42.0160 H   0  0  0  0  0  0  0  0  0  0  0  0
   36.7510   29.3070   41.6740 C   0  0  0  0  0  0  0  0  0  0  0  0
   36.1140   30.1640   40.8980 C   0  0  0  0  0  0  0  0  0  0  0  0
   35.0800   30.0790   40.5890 H   0  0  0  0  0  0  0  0  0  0  0  0
   36.6740   31.2980   40.3850 C   0  0  0  0  0  3  0  0  0  0  0  0
   38.0250   31.5250   40.7380 C   0  0  0  0  0  3  0  0  0  0  0  0
   38.4830   30.0310   41.8530 S   0  0  0  0  0  0  0  0  0  0  0  0
   35.4200   27.3600   38.2960 C   0  0  0  0  0  3  0  0  0  0  0  0
   35.9950   26.2530   38.5090 C   0  0  0  0  0  3  0  0  0  0  0  0
   32.9510   26.4770   35.7040 C   0  0  0  0  0  0  0  0  0  0  0  0
   32.0970   27.5720   35.6980 C   0  0  0  0  0  0  0  0  0  0  0  0
   32.3930   28.5710   36.5720 C   0  0  0  0  0  0  0  0  0  0  0  0
   33.4750   28.4680   37.3930 N   0  0  0  0  0  0  0  0  0  0  0  0
   34.2830   27.3900   37.3720 C   0  0  0  0  0  0  0  0  0  0  0  0
   33.9980   26.4160   36.5220 N   0  0  0  0  0  0  0  0  0  0  0  0
   32.7950   25.6360   35.0460 H   0  0  0  0  0  0  0  0  0  0  0  0
   31.2490   27.6270   35.0390 H   0  0  0  0  0  0  0  0  0  0  0  0
   31.5870   29.7840   36.6770 C   0  0  0  0  0  0  0  0  0  0  0  0
   31.4550   30.7150   35.6700 C   0  0  0  0  0  0  0  0  0  0  0  0
   30.6850   31.8560   35.7910 C   0  0  0  0  0  0  0  0  0  0  0  0
   30.0040   32.1080   36.9530 C   0  0  0  0  0  0  0  0  0  0  0  0
   30.1040   31.2100   37.9840 C   0  0  0  0  0  0  0  0  0  0  0  0
   30.8850   30.0780   37.8270 C   0  0  0  0  0  0  0  0  0  0  0  0
   31.9930   30.5270   34.7420 H   0  0  0  0  0  0  0  0  0  0  0  0
   30.6490   32.5150   34.9500 H   0  0  0  0  0  0  0  0  0  0  0  0
   29.3930   32.9880   37.0820 H   0  0  0  0  0  0  0  0  0  0  0  0
   29.5880   31.3610   38.9220 H   0  0  0  0  0  0  0  0  0  0  0  0
   30.9420   29.3880   38.6640 H   0  0  0  0  0  0  0  0  0  0  0  0
  1  2  1  0  0  0  0
  1  4  1  0  0  0  0
  3  1  1  0  0  0  0
  4  7  1  6  0  0  0
  4  5  1  0  0  0  0
  4  6  1  0  0  0  0
  5  8  1  0  0  0  0
  5  6  1  0  0  0  0
  6 11  1  0  0  0  0
  6 10  1  1  0  0  0
  9  5  1  0  0  0  0
 11 14  1  6  0  0  0
 11 12  1  0  0  0  0
 12 15  1  0  0  0  0
 12 16  1  0  0  0  0
 13 17  1  6  0  0  0
 13 11  1  0  0  0  0
 13 12  1  0  0  0  0
 18 23  1  0  0  0  0
 18 13  1  0  0  0  0
 19 18  2  0  0  0  0
 20 19  1  0  0  0  0
 21 22  2  0  0  0  0
 21 19  1  0  0  0  0
 22 23  1  0  0  0  0
 24 25  2  0  0  0  0
 25  1  1  0  0  0  0
 26 31  1  0  0  0  0
 27 26  2  0  0  0  0
 27 28  1  0  0  0  0
 28 34  1  0  0  0  0
 28 29  2  0  0  0  0
 30 29  1  0  0  0  0
 30 24  1  0  0  0  0
 31 30  2  0  0  0  0
 32 26  1  0  0  0  0
 33 27  1  0  0  0  0
 34 39  1  0  0  0  0
 35 36  1  0  0  0  0
 35 34  2  0  0  0  0
 36 37  2  0  0  0  0
 37 42  1  0  0  0  0
 37 38  1  0  0  0  0
 38 43  1  0  0  0  0
 39 38  2  0  0  0  0
 39 44  1  0  0  0  0
 40 35  1  0  0  0  0
 41 36  1  0  0  0  0
M  END
>  <minimizedAffinity>
-6.18991661

$$$$

 OpenBabel03252508193D

 44 48  0  0  1  0  0  0  0  0999 V2000
   42.1830   30.6820   43.2800 C   0  0  0  0  0  0  0  0  0  0  0  0
   41.8780   30.2060   44.1980 H   0  0  0  0  0  0  0  0  0  0  0  0
   42.7630   31.6270   43.4700 H   0  0  0  0  0  0  0  0  0  0  0  0
   42.9580   29.8730   42.2960 C   0  0  1  0  0  0  0  0  0  0  0  0
   43.9280   28.9160   42.8990 C   0  0  0  0  0  0  0  0  0  0  0  0
   42.7450   28.4140   42.2010 C   0  0  1  0  0  0  0  0  0  0  0  0
   43.4950   30.4700   41.5000 H   0  0  0  0  0  0  0  0  0  0  0  0
   44.9090   28.7010   42.4770 H   0  0  0  0  0  0  0  0  0  0  0  0
   43.9080   28.7620   44.0090 H   0  0  0  0  0  0  0  0  0  0  0  0
   42.8980   27.9980   41.1840 H   0  0  0  0  0  0  0  0  0  0  0  0
   41.5900   27.8250   42.9470 C   0  0  2  0  0  0  0  0  0  0  0  0
   41.5010   26.2840   42.8620 C   0  0  0  0  0  0  0  0  0  0  0  0
   40.5140   27.1060   42.1380 C   0  0  1  0  0  0  0  0  0  0  0  0
   41.3700   28.1450   43.9710 H   0  0  0  0  0  0  0  0  0  0  0  0
   42.2880   25.7670   42.3100 H   0  0  0  0  0  0  0  0  0  0  0  0
   41.1050   25.7060   43.7000 H   0  0  0  0  0  0  0  0  0  0  0  0
   40.6420   27.0970   41.0350 H   0  0  0  0  0  0  0  0  0  0  0  0
   39.1970   27.4110   42.6010 C   0  0  0  0  0  0  0  0  0  0  0  0
   38.6800   28.4260   43.2690 C   0  0  0  0  0  0  0  0  0  0  0  0
   39.2240   29.3050   43.5900 H   0  0  0  0  0  0  0  0  0  0  0  0
   37.3690   28.5150   43.6370 C   0  0  0  0  0  3  0  0  0  0  0  0
   36.5520   27.4260   43.2530 C   0  0  0  0  0  3  0  0  0  0  0  0
   37.7450   26.2390   42.3280 S   0  0  0  0  0  0  0  0  0  0  0  0
   40.9920   31.7470   41.5460 C   0  0  0  0  0  3  0  0  0  0  0  0
   40.8880   31.1690   42.6680 C   0  0  0  0  0  3  0  0  0  0  0  0
   38.4580   34.0160   40.1230 C   0  0  0  0  0  0  0  0  0  0  0  0
   37.4500   33.1480   39.7220 C   0  0  0  0  0  0  0  0  0  0  0  0
   37.6660   31.8260   39.9530 C   0  0  0  0  0  0  0  0  0  0  0  0
   38.8210   31.4110   40.5470 N   0  0  0  0  0  0  0  0  0  0  0  0
   39.7780   32.2810   40.9220 C   0  0  0  0  0  0  0  0  0  0  0  0
   39.5700   33.5690   40.6990 N   0  0  0  0  0  0  0  0  0  0  0  0
   38.3740   35.0820   39.9800 H   0  0  0  0  0  0  0  0  0  0  0  0
   36.5470   33.5020   39.2550 H   0  0  0  0  0  0  0  0  0  0  0  0
   36.6960   30.7970   39.5880 C   0  0  0  0  0  0  0  0  0  0  0  0
   36.4670   30.3740   38.2970 C   0  0  0  0  0  0  0  0  0  0  0  0
   35.5440   29.3970   37.9750 C   0  0  0  0  0  0  0  0  0  0  0  0
   34.8010   28.7980   38.9590 C   0  0  0  0  0  0  0  0  0  0  0  0
   34.9940   29.1860   40.2580 C   0  0  0  0  0  0  0  0  0  0  0  0
   35.9280   30.1680   40.5450 C   0  0  0  0  0  0  0  0  0  0  0  0
   37.0490   30.8430   37.5060 H   0  0  0  0  0  0  0  0  0  0  0  0
   35.4420   29.1400   36.9420 H   0  0  0  0  0  0  0  0  0  0  0  0
   34.0730   28.0320   38.7430 H   0  0  0  0  0  0  0  0  0  0  0  0
   34.4350   28.7470   41.0730 H   0  0  0  0  0  0  0  0  0  0  0  0
   36.0540   30.4520   41.5860 H   0  0  0  0  0  0  0  0  0  0  0  0
  1  3  1  0  0  0  0
  1  2  1  0  0  0  0
  4  7  1  6  0  0  0
  4  5  1  0  0  0  0
  4  1  1  0  0  0  0
  5  9  1  0  0  0  0
  6 10  1  6  0  0  0
  6  4  1  0  0  0  0
  6  5  1  0  0  0  0
  6 11  1  0  0  0  0
  8  5  1  0  0  0  0
 11 14  1  1  0  0  0
 12 11  1  0  0  0  0
 12 16  1  0  0  0  0
 13 17  1  6  0  0  0
 13 18  1  0  0  0  0
 13 12  1  0  0  0  0
 13 11  1  0  0  0  0
 15 12  1  0  0  0  0
 18 19  2  0  0  0  0
 19 20  1  0  0  0  0
 19 21  1  0  0  0  0
 22 21  2  0  0  0  0
 23 18  1  0  0  0  0
 23 22  1  0  0  0  0
 24 25  2  0  0  0  0
 25  1  1  0  0  0  0
 26 31  1  0  0  0  0
 27 28  1  0  0  0  0
 27 26  2  0  0  0  0
 28 29  2  0  0  0  0
 29 30  1  0  0  0  0
 30 24  1  0  0  0  0
 31 30  2  0  0  0  0
 32 26  1  0  0  0  0
 33 27  1  0  0  0  0
 34 28  1  0  0  0  0
 34 39  1  0  0  0  0
 35 34  2  0  0  0  0
 36 35  1  0  0  0  0
 36 37  2  0  0  0  0
 37 38  1  0  0  0  0
 38 39  2  0  0  0  0
 38 43  1  0  0  0  0
 39 44  1  0  0  0  0
 40 35  1  0  0  0  0
 41 36  1  0  0  0  0
 42 37  1  0  0  0  0
M  END
>  <minimizedAffinity>
-5.90185452

$$$$

 OpenBabel03252508193D

 44 48  0  0  1  0  0  0  0  0999 V2000
   37.1860   25.5390   39.8310 C   0  0  0  0  0  0  0  0  0  0  0  0
   38.1880   25.4960   39.4350 H   0  0  0  0  0  0  0  0  0  0  0  0
   36.4110   25.3760   39.0320 H   0  0  0  0  0  0  0  0  0  0  0  0
   36.8450   24.6440   40.9740 C   0  0  1  0  0  0  0  0  0  0  0  0
   37.7030   23.4310   41.0960 C   0  0  0  0  0  0  0  0  0  0  0  0
   37.7840   24.4890   42.1030 C   0  0  1  0  0  0  0  0  0  0  0  0
   35.7620   24.3200   41.0250 H   0  0  0  0  0  0  0  0  0  0  0  0
   37.3310   22.4540   41.4000 H   0  0  0  0  0  0  0  0  0  0  0  0
   38.6080   23.3490   40.4410 H   0  0  0  0  0  0  0  0  0  0  0  0
   37.2930   24.2940   43.0790 H   0  0  0  0  0  0  0  0  0  0  0  0
   38.9570   25.4140   42.1700 C   0  0  2  0  0  0  0  0  0  0  0  0
   39.9680   25.0760   43.2900 C   0  0  0  0  0  0  0  0  0  0  0  0
   39.1160   26.2720   43.4220 C   0  0  1  0  0  0  0  0  0  0  0  0
   39.5030   25.6850   41.2590 H   0  0  0  0  0  0  0  0  0  0  0  0
   39.7640   24.1930   43.8980 H   0  0  0  0  0  0  0  0  0  0  0  0
   41.0340   25.2730   43.1520 H   0  0  0  0  0  0  0  0  0  0  0  0
   38.3230   26.1780   44.1940 H   0  0  0  0  0  0  0  0  0  0  0  0
   39.5170   27.6090   43.1140 C   0  0  0  0  0  0  0  0  0  0  0  0
   38.8590   28.7450   42.9750 C   0  0  0  0  0  0  0  0  0  0  0  0
   37.7930   28.8720   43.1100 H   0  0  0  0  0  0  0  0  0  0  0  0
   39.4450   29.9350   42.6520 C   0  0  0  0  0  3  0  0  0  0  0  0
   40.8460   29.8960   42.4670 C   0  0  0  0  0  3  0  0  0  0  0  0
   41.3160   28.0600   42.7750 S   0  0  0  0  0  0  0  0  0  0  0  0
   37.3920   27.8420   39.3670 C   0  0  0  0  0  3  0  0  0  0  0  0
   37.0040   26.9900   40.2190 C   0  0  0  0  0  3  0  0  0  0  0  0
   36.2150   31.0830   40.6710 C   0  0  0  0  0  0  0  0  0  0  0  0
   37.2190   31.9610   40.2810 C   0  0  0  0  0  0  0  0  0  0  0  0
   38.2550   31.4210   39.5880 C   0  0  0  0  0  0  0  0  0  0  0  0
   38.2750   30.0870   39.3090 N   0  0  0  0  0  0  0  0  0  0  0  0
   37.2840   29.2640   39.7030 C   0  0  0  0  0  0  0  0  0  0  0  0
   36.2730   29.7880   40.3780 N   0  0  0  0  0  0  0  0  0  0  0  0
   35.3530   31.4220   41.2250 H   0  0  0  0  0  0  0  0  0  0  0  0
   37.1770   33.0110   40.5150 H   0  0  0  0  0  0  0  0  0  0  0  0
   39.3810   32.2200   39.1120 C   0  0  0  0  0  0  0  0  0  0  0  0
   40.1250   31.9190   37.9920 C   0  0  0  0  0  0  0  0  0  0  0  0
   41.1850   32.6920   37.5590 C   0  0  0  0  0  0  0  0  0  0  0  0
   41.5460   33.8190   38.2510 C   0  0  0  0  0  0  0  0  0  0  0  0
   40.8360   34.1590   39.3720 C   0  0  0  0  0  0  0  0  0  0  0  0
   39.7780   33.3610   39.7770 C   0  0  0  0  0  0  0  0  0  0  0  0
   39.8490   31.0260   37.4340 H   0  0  0  0  0  0  0  0  0  0  0  0
   41.6970   32.3720   36.6770 H   0  0  0  0  0  0  0  0  0  0  0  0
   42.3680   34.4450   37.9410 H   0  0  0  0  0  0  0  0  0  0  0  0
   41.0780   35.0370   39.9550 H   0  0  0  0  0  0  0  0  0  0  0  0
   39.2380   33.6610   40.6700 H   0  0  0  0  0  0  0  0  0  0  0  0
  1 25  1  0  0  0  0
  1  4  1  0  0  0  0
  2  1  1  0  0  0  0
  3  1  1  0  0  0  0
  4  7  1  1  0  0  0
  4  5  1  0  0  0  0
  4  6  1  0  0  0  0
  5  8  1  0  0  0  0
  5  6  1  0  0  0  0
  6 11  1  0  0  0  0
  6 10  1  1  0  0  0
  9  5  1  0  0  0  0
 11 14  1  6  0  0  0
 11 12  1  0  0  0  0
 11 13  1  0  0  0  0
 12 13  1  0  0  0  0
 12 15  1  0  0  0  0
 13 17  1  1  0  0  0
 16 12  1  0  0  0  0
 18 13  1  0  0  0  0
 19 20  1  0  0  0  0
 19 18  2  0  0  0  0
 21 19  1  0  0  0  0
 22 21  2  0  0  0  0
 22 23  1  0  0  0  0
 23 18  1  0  0  0  0
 24 30  1  0  0  0  0
 24 25  2  0  0  0  0
 26 32  1  0  0  0  0
 27 33  1  0  0  0  0
 27 26  2  0  0  0  0
 28 27  1  0  0  0  0
 29 28  2  0  0  0  0
 29 30  1  0  0  0  0
 30 31  2  0  0  0  0
 31 26  1  0  0  0  0
 34 28  1  0  0  0  0
 34 39  1  0  0  0  0
 35 34  2  0  0  0  0
 36 35  1  0  0  0  0
 36 37  2  0  0  0  0
 37 38  1  0  0  0  0
 38 39  2  0  0  0  0
 38 43  1  0  0  0  0
 39 44  1  0  0  0  0
 40 35  1  0  0  0  0
 41 36  1  0  0  0  0
 42 37  1  0  0  0  0
M  END
>  <minimizedAffinity>
-5.82417631

$$$$

 OpenBabel03252508193D

 44 48  0  0  1  0  0  0  0  0999 V2000
   38.6960   25.5590   40.2600 C   0  0  0  0  0  0  0  0  0  0  0  0
   39.4070   25.7650   41.0440 H   0  0  0  0  0  0  0  0  0  0  0  0
   39.1090   24.8410   39.4980 H   0  0  0  0  0  0  0  0  0  0  0  0
   37.3440   25.0670   40.6520 C   0  0  1  0  0  0  0  0  0  0  0  0
   37.3300   24.1340   41.8140 C   0  0  0  0  0  0  0  0  0  0  0  0
   36.7510   25.4710   41.9430 C   0  0  1  0  0  0  0  0  0  0  0  0
   36.7410   24.6030   39.8160 H   0  0  0  0  0  0  0  0  0  0  0  0
   36.6680   23.2730   41.8930 H   0  0  0  0  0  0  0  0  0  0  0  0
   38.2790   23.9860   42.3920 H   0  0  0  0  0  0  0  0  0  0  0  0
   35.6440   25.5440   41.9320 H   0  0  0  0  0  0  0  0  0  0  0  0
   37.4380   26.5470   42.7230 C   0  0  2  0  0  0  0  0  0  0  0  0
   36.5080   27.3280   43.6790 C   0  0  0  0  0  0  0  0  0  0  0  0
   37.0170   27.9910   42.4650 C   0  0  1  0  0  0  0  0  0  0  0  0
   38.3900   26.3460   43.2260 H   0  0  0  0  0  0  0  0  0  0  0  0
   35.4650   27.0130   43.7310 H   0  0  0  0  0  0  0  0  0  0  0  0
   36.8910   27.7230   44.6240 H   0  0  0  0  0  0  0  0  0  0  0  0
   36.2450   28.1530   41.6830 H   0  0  0  0  0  0  0  0  0  0  0  0
   38.1350   28.8800   42.4160 C   0  0  0  0  0  0  0  0  0  0  0  0
   38.2710   30.1520   42.0920 C   0  0  0  0  0  0  0  0  0  0  0  0
   37.4650   30.8130   41.8000 H   0  0  0  0  0  0  0  0  0  0  0  0
   39.4600   30.8220   42.0940 C   0  0  0  0  0  3  0  0  0  0  0  0
   40.5890   30.0600   42.4790 C   0  0  0  0  0  3  0  0  0  0  0  0
   39.8810   28.3130   42.8440 S   0  0  0  0  0  0  0  0  0  0  0  0
   37.5570   27.0040   38.7860 C   0  0  0  0  0  3  0  0  0  0  0  0
   38.5900   26.8650   39.5050 C   0  0  0  0  0  3  0  0  0  0  0  0
   36.8360   29.3910   36.0700 C   0  0  0  0  0  0  0  0  0  0  0  0
   37.1940   30.6140   36.6240 C   0  0  0  0  0  0  0  0  0  0  0  0
   37.6700   30.5820   37.8970 C   0  0  0  0  0  0  0  0  0  0  0  0
   37.7750   29.3970   38.5620 N   0  0  0  0  0  0  0  0  0  0  0  0
   37.4180   28.2290   37.9940 C   0  0  0  0  0  0  0  0  0  0  0  0
   36.9540   28.2570   36.7540 N   0  0  0  0  0  0  0  0  0  0  0  0
   36.4480   29.3190   35.0660 H   0  0  0  0  0  0  0  0  0  0  0  0
   37.1000   31.5350   36.0760 H   0  0  0  0  0  0  0  0  0  0  0  0
   38.0870   31.7870   38.6080 C   0  0  0  0  0  0  0  0  0  0  0  0
   37.2190   32.6540   39.2360 C   0  0  0  0  0  0  0  0  0  0  0  0
   37.6370   33.7880   39.9050 C   0  0  0  0  0  0  0  0  0  0  0  0
   38.9700   34.1010   39.9690 C   0  0  0  0  0  0  0  0  0  0  0  0
   39.8710   33.2680   39.3590 C   0  0  0  0  0  0  0  0  0  0  0  0
   39.4170   32.1390   38.6980 C   0  0  0  0  0  0  0  0  0  0  0  0
   36.1570   32.4180   39.1920 H   0  0  0  0  0  0  0  0  0  0  0  0
   36.8830   34.3950   40.3600 H   0  0  0  0  0  0  0  0  0  0  0  0
   39.3310   34.9770   40.4830 H   0  0  0  0  0  0  0  0  0  0  0  0
   40.9340   33.4670   39.3780 H   0  0  0  0  0  0  0  0  0  0  0  0
   40.1590   31.5020   38.2260 H   0  0  0  0  0  0  0  0  0  0  0  0
  1  4  1  0  0  0  0
  1  2  1  0  0  0  0
  3  1  1  0  0  0  0
  4  7  1  6  0  0  0
  4  5  1  0  0  0  0
  4  6  1  0  0  0  0
  5  8  1  0  0  0  0
  5  6  1  0  0  0  0
  5  9  1  0  0  0  0
  6 10  1  1  0  0  0
  6 11  1  0  0  0  0
 11 14  1  1  0  0  0
 11 12  1  0  0  0  0
 12 15  1  0  0  0  0
 12 16  1  0  0  0  0
 13 17  1  6  0  0  0
 13 11  1  0  0  0  0
 13 12  1  0  0  0  0
 18 13  1  0  0  0  0
 18 23  1  0  0  0  0
 19 21  1  0  0  0  0
 19 18  2  0  0  0  0
 20 19  1  0  0  0  0
 21 22  2  0  0  0  0
 22 23  1  0  0  0  0
 24 25  2  0  0  0  0
 25  1  1  0  0  0  0
 26 27  2  0  0  0  0
 26 31  1  0  0  0  0
 27 28  1  0  0  0  0
 28 29  2  0  0  0  0
 28 34  1  0  0  0  0
 30 29  1  0  0  0  0
 30 24  1  0  0  0  0
 31 30  2  0  0  0  0
 32 26  1  0  0  0  0
 33 27  1  0  0  0  0
 34 39  2  0  0  0  0
 34 35  1  0  0  0  0
 35 36  2  0  0  0  0
 36 37  1  0  0  0  0
 36 41  1  0  0  0  0
 37 42  1  0  0  0  0
 38 43  1  0  0  0  0
 38 37  2  0  0  0  0
 39 38  1  0  0  0  0
 40 35  1  0  0  0  0
 44 39  1  0  0  0  0
M  END
>  <minimizedAffinity>
-5.77951193

$$$$

 OpenBabel03252508193D

 44 48  0  0  1  0  0  0  0  0999 V2000
   40.9600   31.4660   40.2440 C   0  0  0  0  0  0  0  0  0  0  0  0
   40.6330   31.1800   39.2570 H   0  0  0  0  0  0  0  0  0  0  0  0
   42.0320   31.1810   40.4310 H   0  0  0  0  0  0  0  0  0  0  0  0
   40.8010   32.8930   40.6480 C   0  0  1  0  0  0  0  0  0  0  0  0
   40.9180   33.8760   39.5340 C   0  0  0  0  0  0  0  0  0  0  0  0
   39.6290   33.6690   40.1930 C   0  0  1  0  0  0  0  0  0  0  0  0
   41.4720   33.2310   41.4930 H   0  0  0  0  0  0  0  0  0  0  0  0
   41.4000   34.8480   39.6320 H   0  0  0  0  0  0  0  0  0  0  0  0
   40.9660   33.4890   38.4830 H   0  0  0  0  0  0  0  0  0  0  0  0
   39.2960   34.4510   40.9070 H   0  0  0  0  0  0  0  0  0  0  0  0
   38.5180   32.9280   39.5180 C   0  0  2  0  0  0  0  0  0  0  0  0
   37.2340   33.7640   39.3110 C   0  0  0  0  0  0  0  0  0  0  0  0
   37.2400   32.6840   40.3150 C   0  0  1  0  0  0  0  0  0  0  0  0
   38.7130   32.3340   38.6190 H   0  0  0  0  0  0  0  0  0  0  0  0
   37.2580   34.8060   39.6330 H   0  0  0  0  0  0  0  0  0  0  0  0
   36.5960   33.5910   38.4410 H   0  0  0  0  0  0  0  0  0  0  0  0
   37.2310   33.0450   41.3660 H   0  0  0  0  0  0  0  0  0  0  0  0
   36.7210   31.3680   40.1150 C   0  0  0  0  0  0  0  0  0  0  0  0
   36.0630   30.5230   40.8870 C   0  0  0  0  0  0  0  0  0  0  0  0
   35.7500   30.7190   41.9040 H   0  0  0  0  0  0  0  0  0  0  0  0
   35.6670   29.2760   40.4970 C   0  0  0  0  0  3  0  0  0  0  0  0
   36.0060   28.9140   39.1720 C   0  0  0  0  0  3  0  0  0  0  0  0
   36.9330   30.4480   38.4820 S   0  0  0  0  0  0  0  0  0  0  0  0
   39.8700   29.4250   40.7010 C   0  0  0  0  0  3  0  0  0  0  0  0
   40.1780   30.5600   41.1700 C   0  0  0  0  0  3  0  0  0  0  0  0
   37.9870   27.9400   43.5010 C   0  0  0  0  0  0  0  0  0  0  0  0
   37.5570   26.7260   42.9800 C   0  0  0  0  0  0  0  0  0  0  0  0
   37.9250   26.4560   41.7000 C   0  0  0  0  0  0  0  0  0  0  0  0
   38.6740   27.3510   40.9960 N   0  0  0  0  0  0  0  0  0  0  0  0
   39.0740   28.5200   41.5330 C   0  0  0  0  0  0  0  0  0  0  0  0
   38.7170   28.7860   42.7790 N   0  0  0  0  0  0  0  0  0  0  0  0
   37.7430   28.2400   44.5080 H   0  0  0  0  0  0  0  0  0  0  0  0
   36.9660   26.0380   43.5580 H   0  0  0  0  0  0  0  0  0  0  0  0
   37.5490   25.2190   41.0210 C   0  0  0  0  0  0  0  0  0  0  0  0
   38.1090   23.9890   41.2870 C   0  0  0  0  0  0  0  0  0  0  0  0
   37.7360   22.8300   40.6330 C   0  0  0  0  0  0  0  0  0  0  0  0
   36.7650   22.8660   39.6660 C   0  0  0  0  0  0  0  0  0  0  0  0
   36.1780   24.0680   39.3670 C   0  0  0  0  0  0  0  0  0  0  0  0
   36.5770   25.2080   40.0430 C   0  0  0  0  0  0  0  0  0  0  0  0
   38.8830   23.9470   42.0530 H   0  0  0  0  0  0  0  0  0  0  0  0
   38.2320   21.9260   40.9150 H   0  0  0  0  0  0  0  0  0  0  0  0
   36.4480   21.9820   39.1370 H   0  0  0  0  0  0  0  0  0  0  0  0
   35.4080   24.1520   38.6120 H   0  0  0  0  0  0  0  0  0  0  0  0
   36.0910   26.1430   39.7790 H   0  0  0  0  0  0  0  0  0  0  0  0
  1  3  1  0  0  0  0
  1  4  1  0  0  0  0
  1 25  1  0  0  0  0
  2  1  1  0  0  0  0
  4  7  1  1  0  0  0
  5  8  1  0  0  0  0
  5  6  1  0  0  0  0
  5  4  1  0  0  0  0
  6  4  1  0  0  0  0
  6 10  1  1  0  0  0
  9  5  1  0  0  0  0
 11 14  1  6  0  0  0
 11  6  1  0  0  0  0
 11 13  1  0  0  0  0
 12 11  1  0  0  0  0
 12 15  1  0  0  0  0
 12 13  1  0  0  0  0
 13 17  1  1  0  0  0
 16 12  1  0  0  0  0
 18 13  1  0  0  0  0
 18 19  2  0  0  0  0
 19 20  1  0  0  0  0
 21 19  1  0  0  0  0
 22 21  2  0  0  0  0
 23 22  1  0  0  0  0
 23 18  1  0  0  0  0
 24 25  2  0  0  0  0
 24 30  1  0  0  0  0
 26 32  1  0  0  0  0
 27 26  1  0  0  0  0
 27 33  1  0  0  0  0
 28 27  2  0  0  0  0
 29 30  2  0  0  0  0
 29 28  1  0  0  0  0
 30 31  1  0  0  0  0
 31 26  2  0  0  0  0
 34 35  1  0  0  0  0
 34 28  1  0  0  0  0
 35 40  1  0  0  0  0
 36 41  1  0  0  0  0
 36 35  2  0  0  0  0
 37 36  1  0  0  0  0
 38 37  2  0  0  0  0
 38 39  1  0  0  0  0
 39 34  2  0  0  0  0
 42 37  1  0  0  0  0
 43 38  1  0  0  0  0
 44 39  1  0  0  0  0
M  END
>  <minimizedAffinity>
-5.71773577

$$$$

 OpenBabel03252508193D

 44 48  0  0  1  0  0  0  0  0999 V2000
   34.2500   28.0140   37.1450 C   0  0  0  0  0  0  0  0  0  0  0  0
   33.3090   28.2880   37.5950 H   0  0  0  0  0  0  0  0  0  0  0  0
   34.2770   26.9260   36.8600 H   0  0  0  0  0  0  0  0  0  0  0  0
   34.7160   28.7970   35.9650 C   0  0  1  0  0  0  0  0  0  0  0  0
   34.5720   28.1000   34.6550 C   0  0  0  0  0  0  0  0  0  0  0  0
   33.7460   29.2700   34.9560 C   0  0  1  0  0  0  0  0  0  0  0  0
   35.7710   29.1980   36.0400 H   0  0  0  0  0  0  0  0  0  0  0  0
   35.2980   28.1730   33.8470 H   0  0  0  0  0  0  0  0  0  0  0  0
   34.0060   27.1330   34.6240 H   0  0  0  0  0  0  0  0  0  0  0  0
   34.0280   30.2250   34.4670 H   0  0  0  0  0  0  0  0  0  0  0  0
   32.2900   29.1370   35.2690 C   0  0  2  0  0  0  0  0  0  0  0  0
   31.3720   30.0340   34.4080 C   0  0  0  0  0  0  0  0  0  0  0  0
   31.5690   30.3580   35.8320 C   0  0  1  0  0  0  0  0  0  0  0  0
   31.8330   28.1470   35.3740 H   0  0  0  0  0  0  0  0  0  0  0  0
   31.8490   30.6460   33.6400 H   0  0  0  0  0  0  0  0  0  0  0  0
   30.3670   29.7010   34.1380 H   0  0  0  0  0  0  0  0  0  0  0  0
   32.1870   31.2650   36.0070 H   0  0  0  0  0  0  0  0  0  0  0  0
   30.6700   30.0160   36.8880 C   0  0  0  0  0  0  0  0  0  0  0  0
   30.5880   30.3610   38.1600 C   0  0  0  0  0  0  0  0  0  0  0  0
   31.2460   31.0570   38.6630 H   0  0  0  0  0  0  0  0  0  0  0  0
   29.6390   29.8930   39.0220 C   0  0  0  0  0  3  0  0  0  0  0  0
   28.7070   28.9840   38.4700 C   0  0  0  0  0  3  0  0  0  0  0  0
   29.2410   28.8130   36.6330 S   0  0  0  0  0  0  0  0  0  0  0  0
   34.9450   28.9200   39.2090 C   0  0  0  0  0  3  0  0  0  0  0  0
   35.2460   28.1150   38.2790 C   0  0  0  0  0  3  0  0  0  0  0  0
   36.9920   30.3750   41.9070 C   0  0  0  0  0  0  0  0  0  0  0  0
   37.6910   29.2790   42.3960 C   0  0  0  0  0  0  0  0  0  0  0  0
   37.4440   28.0880   41.7900 C   0  0  0  0  0  0  0  0  0  0  0  0
   36.5520   28.0110   40.7620 N   0  0  0  0  0  0  0  0  0  0  0  0
   35.8910   29.0960   40.3130 C   0  0  0  0  0  0  0  0  0  0  0  0
   36.1300   30.2570   40.9020 N   0  0  0  0  0  0  0  0  0  0  0  0
   37.1230   31.3610   42.3270 H   0  0  0  0  0  0  0  0  0  0  0  0
   38.3900   29.3680   43.2100 H   0  0  0  0  0  0  0  0  0  0  0  0
   38.1050   26.8500   42.1950 C   0  0  0  0  0  0  0  0  0  0  0  0
   37.8060   25.6080   41.6780 C   0  0  0  0  0  0  0  0  0  0  0  0
   38.4460   24.4500   42.0750 C   0  0  0  0  0  0  0  0  0  0  0  0
   39.4310   24.4980   43.0270 C   0  0  0  0  0  0  0  0  0  0  0  0
   39.7640   25.7110   43.5700 C   0  0  0  0  0  0  0  0  0  0  0  0
   39.1010   26.8510   43.1480 C   0  0  0  0  0  0  0  0  0  0  0  0
   37.0240   25.5570   40.9220 H   0  0  0  0  0  0  0  0  0  0  0  0
   38.1400   23.5370   41.6120 H   0  0  0  0  0  0  0  0  0  0  0  0
   39.9520   23.6140   43.3600 H   0  0  0  0  0  0  0  0  0  0  0  0
   40.5330   25.8050   44.3250 H   0  0  0  0  0  0  0  0  0  0  0  0
   39.3900   27.7960   43.6010 H   0  0  0  0  0  0  0  0  0  0  0  0
  1  2  1  0  0  0  0
  1 25  1  0  0  0  0
  3  1  1  0  0  0  0
  4  7  1  1  0  0  0
  4  1  1  0  0  0  0
  5  6  1  0  0  0  0
  5  4  1  0  0  0  0
  6 10  1  6  0  0  0
  6 11  1  0  0  0  0
  6  4  1  0  0  0  0
  8  5  1  0  0  0  0
  9  5  1  0  0  0  0
 11 14  1  1  0  0  0
 11 13  1  0  0  0  0
 12 11  1  0  0  0  0
 12 13  1  0  0  0  0
 13 17  1  1  0  0  0
 13 18  1  0  0  0  0
 15 12  1  0  0  0  0
 16 12  1  0  0  0  0
 18 19  2  0  0  0  0
 19 20  1  0  0  0  0
 19 21  1  0  0  0  0
 22 21  2  0  0  0  0
 23 18  1  0  0  0  0
 23 22  1  0  0  0  0
 24 30  1  0  0  0  0
 25 24  2  0  0  0  0
 26 32  1  0  0  0  0
 26 27  1  0  0  0  0
 27 33  1  0  0  0  0
 28 34  1  0  0  0  0
 28 27  2  0  0  0  0
 29 28  1  0  0  0  0
 30 29  2  0  0  0  0
 30 31  1  0  0  0  0
 31 26  2  0  0  0  0
 34 39  1  0  0  0  0
 35 36  1  0  0  0  0
 35 34  2  0  0  0  0
 36 37  2  0  0  0  0
 37 42  1  0  0  0  0
 37 38  1  0  0  0  0
 38 43  1  0  0  0  0
 39 38  2  0  0  0  0
 39 44  1  0  0  0  0
 40 35  1  0  0  0  0
 41 36  1  0  0  0  0
M  END
>  <minimizedAffinity>
-5.71344614

$$$$

 OpenBabel03252508193D

 44 48  0  0  1  0  0  0  0  0999 V2000
   37.3220   32.5230   40.2990 C   0  0  0  0  0  0  0  0  0  0  0  0
   37.2890   32.3930   41.3680 H   0  0  0  0  0  0  0  0  0  0  0  0
   36.5530   33.2630   39.9420 H   0  0  0  0  0  0  0  0  0  0  0  0
   38.6250   32.9000   39.6790 C   0  0  1  0  0  0  0  0  0  0  0  0
   39.3500   34.0040   40.3690 C   0  0  0  0  0  0  0  0  0  0  0  0
   39.8910   32.6450   40.3960 C   0  0  1  0  0  0  0  0  0  0  0  0
   38.5800   33.1390   38.5740 H   0  0  0  0  0  0  0  0  0  0  0  0
   39.9150   34.7760   39.8490 H   0  0  0  0  0  0  0  0  0  0  0  0
   38.9610   34.3640   41.3560 H   0  0  0  0  0  0  0  0  0  0  0  0
   40.7540   32.4330   39.7320 H   0  0  0  0  0  0  0  0  0  0  0  0
   39.8380   31.8080   41.6340 C   0  0  2  0  0  0  0  0  0  0  0  0
   41.2200   31.3360   42.1400 C   0  0  0  0  0  0  0  0  0  0  0  0
   40.3000   30.3580   41.5330 C   0  0  1  0  0  0  0  0  0  0  0  0
   39.2260   32.1200   42.4880 H   0  0  0  0  0  0  0  0  0  0  0  0
   42.0970   31.6750   41.5860 H   0  0  0  0  0  0  0  0  0  0  0  0
   41.4030   31.2060   43.2100 H   0  0  0  0  0  0  0  0  0  0  0  0
   40.6170   30.0050   40.5280 H   0  0  0  0  0  0  0  0  0  0  0  0
   39.4480   29.4670   42.2560 C   0  0  0  0  0  0  0  0  0  0  0  0
   38.1880   29.5300   42.6450 C   0  0  0  0  0  0  0  0  0  0  0  0
   37.5090   30.3460   42.4360 H   0  0  0  0  0  0  0  0  0  0  0  0
   37.5560   28.5540   43.3610 C   0  0  0  0  0  3  0  0  0  0  0  0
   38.3450   27.4240   43.6800 C   0  0  0  0  0  3  0  0  0  0  0  0
   40.0600   27.8070   42.9070 S   0  0  0  0  0  0  0  0  0  0  0  0
   37.1200   30.9660   38.5390 C   0  0  0  0  0  3  0  0  0  0  0  0
   36.8330   31.2010   39.7490 C   0  0  0  0  0  3  0  0  0  0  0  0
   35.7380   28.4860   36.1880 C   0  0  0  0  0  0  0  0  0  0  0  0
   35.7700   27.3060   36.9220 C   0  0  0  0  0  0  0  0  0  0  0  0
   36.2570   27.3980   38.1880 C   0  0  0  0  0  0  0  0  0  0  0  0
   36.6810   28.5980   38.6760 N   0  0  0  0  0  0  0  0  0  0  0  0
   36.6350   29.7220   37.9360 C   0  0  0  0  0  0  0  0  0  0  0  0
   36.1620   29.6360   36.7030 N   0  0  0  0  0  0  0  0  0  0  0  0
   35.3680   28.5090   35.1740 H   0  0  0  0  0  0  0  0  0  0  0  0
   35.4290   26.3720   36.5110 H   0  0  0  0  0  0  0  0  0  0  0  0
   36.3500   26.2440   39.0770 C   0  0  0  0  0  0  0  0  0  0  0  0
   35.8620   24.9910   38.7720 C   0  0  0  0  0  0  0  0  0  0  0  0
   35.9620   23.9120   39.6280 C   0  0  0  0  0  0  0  0  0  0  0  0
   36.5700   24.0540   40.8490 C   0  0  0  0  0  0  0  0  0  0  0  0
   37.0710   25.2810   41.1970 C   0  0  0  0  0  0  0  0  0  0  0  0
   36.9520   26.3410   40.3130 C   0  0  0  0  0  0  0  0  0  0  0  0
   35.3760   24.8660   37.8060 H   0  0  0  0  0  0  0  0  0  0  0  0
   35.5520   22.9820   39.2970 H   0  0  0  0  0  0  0  0  0  0  0  0
   36.6670   23.2330   41.5420 H   0  0  0  0  0  0  0  0  0  0  0  0
   37.5590   25.4480   42.1470 H   0  0  0  0  0  0  0  0  0  0  0  0
   37.3610   27.2990   40.6210 H   0  0  0  0  0  0  0  0  0  0  0  0
  1  2  1  0  0  0  0
  3  1  1  0  0  0  0
  4  7  1  6  0  0  0
  4  1  1  0  0  0  0
  4  5  1  0  0  0  0
  4  6  1  0  0  0  0
  5  6  1  0  0  0  0
  5  9  1  0  0  0  0
  6 10  1  6  0  0  0
  6 11  1  0  0  0  0
  8  5  1  0  0  0  0
 11 12  1  0  0  0  0
 11 14  1  1  0  0  0
 12 16  1  0  0  0  0
 13 17  1  6  0  0  0
 13 11  1  0  0  0  0
 13 12  1  0  0  0  0
 13 18  1  0  0  0  0
 15 12  1  0  0  0  0
 18 19  2  0  0  0  0
 18 23  1  0  0  0  0
 19 21  1  0  0  0  0
 20 19  1  0  0  0  0
 21 22  2  0  0  0  0
 23 22  1  0  0  0  0
 24 25  2  0  0  0  0
 25  1  1  0  0  0  0
 26 31  2  0  0  0  0
 26 27  1  0  0  0  0
 27 28  2  0  0  0  0
 28 29  1  0  0  0  0
 28 34  1  0  0  0  0
 30 24  1  0  0  0  0
 30 29  2  0  0  0  0
 31 30  1  0  0  0  0
 32 26  1  0  0  0  0
 33 27  1  0  0  0  0
 34 39  1  0  0  0  0
 35 34  2  0  0  0  0
 35 36  1  0  0  0  0
 36 37  2  0  0  0  0
 37 38  1  0  0  0  0
 37 42  1  0  0  0  0
 38 43  1  0  0  0  0
 39 44  1  0  0  0  0
 39 38  2  0  0  0  0
 40 35  1  0  0  0  0
 41 36  1  0  0  0  0
M  END
>  <minimizedAffinity>
-5.63617897

$$$$

 OpenBabel03252508193D

 44 48  0  0  1  0  0  0  0  0999 V2000
   35.9220   25.7560   38.4990 C   0  0  0  0  0  0  0  0  0  0  0  0
   36.0180   26.4930   39.2790 H   0  0  0  0  0  0  0  0  0  0  0  0
   36.7710   25.8120   37.7620 H   0  0  0  0  0  0  0  0  0  0  0  0
   35.7730   24.3270   38.8990 C   0  0  1  0  0  0  0  0  0  0  0  0
   36.9270   23.4540   38.5450 C   0  0  0  0  0  0  0  0  0  0  0  0
   36.6410   23.7540   39.9480 C   0  0  1  0  0  0  0  0  0  0  0  0
   34.8240   23.8250   38.5430 H   0  0  0  0  0  0  0  0  0  0  0  0
   36.8260   22.4240   38.2040 H   0  0  0  0  0  0  0  0  0  0  0  0
   37.8600   23.9350   38.1520 H   0  0  0  0  0  0  0  0  0  0  0  0
   36.1620   22.9520   40.5470 H   0  0  0  0  0  0  0  0  0  0  0  0
   37.5000   24.6920   40.7350 C   0  0  2  0  0  0  0  0  0  0  0  0
   38.0700   24.0860   42.0380 C   0  0  0  0  0  0  0  0  0  0  0  0
   37.0120   25.1090   42.1200 C   0  0  1  0  0  0  0  0  0  0  0  0
   38.2780   25.2810   40.2390 H   0  0  0  0  0  0  0  0  0  0  0  0
   37.8350   23.0410   42.2490 H   0  0  0  0  0  0  0  0  0  0  0  0
   39.0510   24.3950   42.4090 H   0  0  0  0  0  0  0  0  0  0  0  0
   36.0260   24.7120   42.4410 H   0  0  0  0  0  0  0  0  0  0  0  0
   37.2270   26.4990   42.3720 C   0  0  0  0  0  0  0  0  0  0  0  0
   36.9170   27.2980   43.3760 C   0  0  0  0  0  0  0  0  0  0  0  0
   36.4150   26.9950   44.2860 H   0  0  0  0  0  0  0  0  0  0  0  0
   37.2040   28.6330   43.4110 C   0  0  0  0  0  3  0  0  0  0  0  0
   37.8780   29.1420   42.2770 C   0  0  0  0  0  3  0  0  0  0  0  0
   38.0950   27.6180   41.1280 S   0  0  0  0  0  0  0  0  0  0  0  0
   34.9740   26.7600   36.5870 C   0  0  0  0  0  3  0  0  0  0  0  0
   34.7210   26.2140   37.7010 C   0  0  0  0  0  3  0  0  0  0  0  0
   32.4840   27.2600   33.9150 C   0  0  0  0  0  0  0  0  0  0  0  0
   31.7100   28.3070   34.4000 C   0  0  0  0  0  0  0  0  0  0  0  0
   32.0650   28.8070   35.6130 C   0  0  0  0  0  0  0  0  0  0  0  0
   33.1260   28.2830   36.2890 N   0  0  0  0  0  0  0  0  0  0  0  0
   33.8550   27.2660   35.7890 C   0  0  0  0  0  0  0  0  0  0  0  0
   33.5120   26.7780   34.6070 N   0  0  0  0  0  0  0  0  0  0  0  0
   32.2770   26.8000   32.9610 H   0  0  0  0  0  0  0  0  0  0  0  0
   30.8760   28.7010   33.8450 H   0  0  0  0  0  0  0  0  0  0  0  0
   31.3460   29.9080   36.2480 C   0  0  0  0  0  0  0  0  0  0  0  0
   30.8910   29.8870   37.5480 C   0  0  0  0  0  0  0  0  0  0  0  0
   30.2140   30.9430   38.1290 C   0  0  0  0  0  0  0  0  0  0  0  0
   29.9630   32.0820   37.4090 C   0  0  0  0  0  0  0  0  0  0  0  0
   30.3960   32.1490   36.1100 C   0  0  0  0  0  0  0  0  0  0  0  0
   31.0720   31.0720   35.5610 C   0  0  0  0  0  0  0  0  0  0  0  0
   31.0830   28.9880   38.1310 H   0  0  0  0  0  0  0  0  0  0  0  0
   29.9040   30.8270   39.1450 H   0  0  0  0  0  0  0  0  0  0  0  0
   29.4380   32.9240   37.8300 H   0  0  0  0  0  0  0  0  0  0  0  0
   30.2250   33.0230   35.4980 H   0  0  0  0  0  0  0  0  0  0  0  0
   31.4010   31.1600   34.5300 H   0  0  0  0  0  0  0  0  0  0  0  0
  1  4  1  0  0  0  0
  1  2  1  0  0  0  0
  3  1  1  0  0  0  0
  4  7  1  6  0  0  0
  4  6  1  0  0  0  0
  5  4  1  0  0  0  0
  5  6  1  0  0  0  0
  6 10  1  1  0  0  0
  6 11  1  0  0  0  0
  8  5  1  0  0  0  0
  9  5  1  0  0  0  0
 11 14  1  6  0  0  0
 11 12  1  0  0  0  0
 11 13  1  0  0  0  0
 12 13  1  0  0  0  0
 12 15  1  0  0  0  0
 12 16  1  0  0  0  0
 13 18  1  0  0  0  0
 13 17  1  1  0  0  0
 18 19  2  0  0  0  0
 19 21  1  0  0  0  0
 19 20  1  0  0  0  0
 22 21  2  0  0  0  0
 23 22  1  0  0  0  0
 23 18  1  0  0  0  0
 24 25  2  0  0  0  0
 25  1  1  0  0  0  0
 26 27  2  0  0  0  0
 26 31  1  0  0  0  0
 27 28  1  0  0  0  0
 28 34  1  0  0  0  0
 28 29  2  0  0  0  0
 30 29  1  0  0  0  0
 30 24  1  0  0  0  0
 31 30  2  0  0  0  0
 32 26  1  0  0  0  0
 33 27  1  0  0  0  0
 34 35  1  0  0  0  0
 35 36  2  0  0  0  0
 35 40  1  0  0  0  0
 36 41  1  0  0  0  0
 37 42  1  0  0  0  0
 37 36  1  0  0  0  0
 38 37  2  0  0  0  0
 39 38  1  0  0  0  0
 39 34  2  0  0  0  0
 43 38  1  0  0  0  0
 44 39  1  0  0  0  0
M  END
>  <minimizedAffinity>
-5.52890491

$$$$

 OpenBabel03252508193D

 44 48  0  0  1  0  0  0  0  0999 V2000
   38.2830   25.9170   39.9680 C   0  0  0  0  0  0  0  0  0  0  0  0
   38.6690   26.7740   40.4950 H   0  0  0  0  0  0  0  0  0  0  0  0
   39.0920   25.1720   39.7300 H   0  0  0  0  0  0  0  0  0  0  0  0
   37.1520   25.1660   40.5850 C   0  0  1  0  0  0  0  0  0  0  0  0
   37.5350   24.2790   41.7190 C   0  0  0  0  0  0  0  0  0  0  0  0
   36.7230   25.4700   41.9660 C   0  0  1  0  0  0  0  0  0  0  0  0
   36.5200   24.5680   39.8620 H   0  0  0  0  0  0  0  0  0  0  0  0
   37.0890   23.3020   41.9010 H   0  0  0  0  0  0  0  0  0  0  0  0
   38.5800   24.3430   42.1190 H   0  0  0  0  0  0  0  0  0  0  0  0
   35.6400   25.3130   42.1510 H   0  0  0  0  0  0  0  0  0  0  0  0
   37.2980   26.6830   42.6260 C   0  0  2  0  0  0  0  0  0  0  0  0
   36.3700   27.3310   43.6790 C   0  0  0  0  0  0  0  0  0  0  0  0
   36.5960   28.0180   42.3950 C   0  0  1  0  0  0  0  0  0  0  0  0
   38.3260   26.6730   43.0050 H   0  0  0  0  0  0  0  0  0  0  0  0
   35.4150   26.8400   43.8730 H   0  0  0  0  0  0  0  0  0  0  0  0
   36.7910   27.8270   44.5570 H   0  0  0  0  0  0  0  0  0  0  0  0
   35.7170   28.0080   41.7170 H   0  0  0  0  0  0  0  0  0  0  0  0
   37.5230   29.0860   42.1830 C   0  0  0  0  0  0  0  0  0  0  0  0
   38.6820   29.4040   42.7270 C   0  0  0  0  0  0  0  0  0  0  0  0
   39.1920   28.8330   43.4920 H   0  0  0  0  0  0  0  0  0  0  0  0
   39.4140   30.5040   42.3850 C   0  0  0  0  0  3  0  0  0  0  0  0
   38.8520   31.3220   41.3770 C   0  0  0  0  0  3  0  0  0  0  0  0
   37.2030   30.4500   40.9220 S   0  0  0  0  0  0  0  0  0  0  0  0
   36.9410   27.3060   38.6150 C   0  0  0  0  0  3  0  0  0  0  0  0
   37.8850   26.4630   38.6140 C   0  0  0  0  0  3  0  0  0  0  0  0
   36.7690   28.3680   35.0890 C   0  0  0  0  0  0  0  0  0  0  0  0
   35.4720   28.8520   34.9700 C   0  0  0  0  0  0  0  0  0  0  0  0
   34.7060   28.8010   36.0910 C   0  0  0  0  0  0  0  0  0  0  0  0
   35.2150   28.2980   37.2510 N   0  0  0  0  0  0  0  0  0  0  0  0
   36.4790   27.8380   37.3300 C   0  0  0  0  0  0  0  0  0  0  0  0
   37.2280   27.8850   36.2400 N   0  0  0  0  0  0  0  0  0  0  0  0
   37.4500   28.3680   34.2520 H   0  0  0  0  0  0  0  0  0  0  0  0
   35.0950   29.2430   34.0410 H   0  0  0  0  0  0  0  0  0  0  0  0
   33.3240   29.2740   36.1180 C   0  0  0  0  0  0  0  0  0  0  0  0
   32.5300   29.2780   37.2430 C   0  0  0  0  0  0  0  0  0  0  0  0
   31.2250   29.7320   37.2460 C   0  0  0  0  0  0  0  0  0  0  0  0
   30.6580   30.2090   36.0920 C   0  0  0  0  0  0  0  0  0  0  0  0
   31.4100   30.2240   34.9470 C   0  0  0  0  0  0  0  0  0  0  0  0
   32.7140   29.7610   34.9820 C   0  0  0  0  0  0  0  0  0  0  0  0
   32.9680   28.9010   38.1660 H   0  0  0  0  0  0  0  0  0  0  0  0
   30.6930   29.6940   38.1720 H   0  0  0  0  0  0  0  0  0  0  0  0
   29.6430   30.5710   36.0580 H   0  0  0  0  0  0  0  0  0  0  0  0
   31.0120   30.5890   34.0100 H   0  0  0  0  0  0  0  0  0  0  0  0
   33.2800   29.7880   34.0550 H   0  0  0  0  0  0  0  0  0  0  0  0
  1  2  1  0  0  0  0
  1  4  1  0  0  0  0
  3  1  1  0  0  0  0
  4  7  1  6  0  0  0
  4  5  1  0  0  0  0
  4  6  1  0  0  0  0
  5  8  1  0  0  0  0
  5  6  1  0  0  0  0
  5  9  1  0  0  0  0
  6 10  1  1  0  0  0
  6 11  1  0  0  0  0
 11 14  1  1  0  0  0
 11 12  1  0  0  0  0
 12 15  1  0  0  0  0
 12 16  1  0  0  0  0
 13 17  1  6  0  0  0
 13 11  1  0  0  0  0
 13 12  1  0  0  0  0
 18 13  1  0  0  0  0
 18 19  2  0  0  0  0
 19 20  1  0  0  0  0
 21 19  1  0  0  0  0
 22 21  2  0  0  0  0
 23 22  1  0  0  0  0
 23 18  1  0  0  0  0
 25 24  2  0  0  0  0
 25  1  1  0  0  0  0
 26 31  1  0  0  0  0
 27 26  2  0  0  0  0
 27 28  1  0  0  0  0
 28 34  1  0  0  0  0
 28 29  2  0  0  0  0
 29 30  1  0  0  0  0
 30 24  1  0  0  0  0
 31 30  2  0  0  0  0
 32 26  1  0  0  0  0
 33 27  1  0  0  0  0
 34 35  1  0  0  0  0
 35 36  2  0  0  0  0
 35 40  1  0  0  0  0
 36 41  1  0  0  0  0
 37 36  1  0  0  0  0
 38 39  1  0  0  0  0
 38 37  2  0  0  0  0
 39 34  2  0  0  0  0
 42 37  1  0  0  0  0
 43 38  1  0  0  0  0
 44 39  1  0  0  0  0
M  END
>  <minimizedAffinity>
-5.52817583

$$$$
