
 OpenBabel03252507553D

 41 44  0  0  1  0  0  0  0  0999 V2000
   47.2370   34.7570   42.2650 C   0  0  2  0  0  0  0  0  0  0  0  0
   46.4490   34.5460   40.9720 C   0  0  0  0  0  0  0  0  0  0  0  0
   47.6460   34.3800   40.0140 C   0  0  0  0  0  0  0  0  0  0  0  0
   48.6770   33.6450   40.8130 C   0  0  1  0  0  0  0  0  0  0  0  0
   48.1310   33.5480   42.2060 C   0  0  0  0  0  0  0  0  0  0  0  0
   47.7950   35.6920   42.1610 H   0  0  0  0  0  0  0  0  0  0  0  0
   45.9160   33.5910   41.0050 H   0  0  0  0  0  0  0  0  0  0  0  0
   45.8490   35.4180   40.6990 H   0  0  0  0  0  0  0  0  0  0  0  0
   48.0440   35.4010   39.8030 H   0  0  0  0  0  0  0  0  0  0  0  0
   47.3350   33.8390   39.1040 H   0  0  0  0  0  0  0  0  0  0  0  0
   49.6530   34.1770   40.8560 H   0  0  0  0  0  0  0  0  0  0  0  0
   48.9210   33.6850   42.9750 H   0  0  0  0  0  0  0  0  0  0  0  0
   47.5260   32.6380   42.3720 H   0  0  0  0  0  0  0  0  0  0  0  0
   44.5640   35.5600   44.7940 C   0  0  0  0  0  0  0  0  0  0  0  0
   45.3150   35.6640   43.6130 C   0  0  0  0  0  0  0  0  0  0  0  0
   46.3470   34.7450   43.4570 C   0  0  0  0  0  0  0  0  0  0  0  0
   46.6060   33.7780   44.4400 N   0  0  0  0  0  0  0  0  0  0  0  0
   45.8400   33.7360   45.5600 C   0  0  0  0  0  0  0  0  0  0  0  0
   44.8250   34.6260   45.7300 N   0  0  0  0  0  0  0  0  0  0  0  0
   43.7520   36.2640   44.9430 H   0  0  0  0  0  0  0  0  0  0  0  0
   45.1410   36.3910   42.8450 H   0  0  0  0  0  0  0  0  0  0  0  0
   46.1380   32.9500   46.2370 H   0  0  0  0  0  0  0  0  0  0  0  0
   48.9460   32.2340   40.3390 C   0  0  2  0  0  0  0  0  0  0  0  0
   50.0220   31.5280   41.0270 C   0  0  0  0  0  0  0  0  0  0  0  0
   50.1570   31.8960   39.5880 C   0  0  1  0  0  0  0  0  0  0  0  0
   48.0310   31.6680   40.0970 H   0  0  0  0  0  0  0  0  0  0  0  0
   50.5900   32.0400   41.8050 H   0  0  0  0  0  0  0  0  0  0  0  0
   49.8340   30.4510   41.3040 H   0  0  0  0  0  0  0  0  0  0  0  0
   50.8270   32.7230   39.3110 H   0  0  0  0  0  0  0  0  0  0  0  0
   50.0620   30.8560   38.6340 O   0  0  0  0  0  0  0  0  0  0  0  0
   48.0930   31.4120   37.0210 O   0  0  0  0  0  0  0  0  0  0  0  0
   49.5930   31.5230   37.1680 P   0  0  1  0  0  0  0  0  0  0  0  0
   49.9840   33.1950   37.1380 O   0  0  0  0  0  0  0  0  0  0  0  0
   50.9870   33.2530   37.1810 H   0  0  0  0  0  0  0  0  0  0  0  0
   50.3040   30.8510   35.8270 O   0  0  0  0  0  0  0  0  0  0  0  0
   49.5500   30.6990   34.6670 C   0  0  0  0  0  0  0  0  0  0  0  0
   48.8870   29.7050   34.0420 C   0  0  0  0  0  0  0  0  0  0  0  0
   48.9590   28.7730   34.5860 H   0  0  0  0  0  0  0  0  0  0  0  0
   48.2310   29.9130   32.8790 C   0  0  0  0  0  3  0  0  0  0  0  0
   48.2960   31.2300   32.3810 C   0  0  0  0  0  3  0  0  0  0  0  0
   49.3420   32.1140   33.6810 S   0  0  0  0  0  0  0  0  0  0  0  0
  1  6  1  6  0  0  0
  1 16  1  0  0  0  0
  2  7  1  0  0  0  0
  2  1  1  0  0  0  0
  3  4  1  0  0  0  0
  3  2  1  0  0  0  0
  4 11  1  1  0  0  0
  4  5  1  0  0  0  0
  5  1  1  0  0  0  0
  5 13  1  0  0  0  0
  5 12  1  0  0  0  0
  8  2  1  0  0  0  0
  9  3  1  0  0  0  0
 10  3  1  0  0  0  0
 14 20  1  0  0  0  0
 14 19  1  0  0  0  0
 15 14  2  0  0  0  0
 16 15  1  0  0  0  0
 16 17  2  0  0  0  0
 17 18  1  0  0  0  0
 18 19  2  0  0  0  0
 18 22  1  0  0  0  0
 21 15  1  0  0  0  0
 23 26  1  6  0  0  0
 23  4  1  0  0  0  0
 23 24  1  0  0  0  0
 24 28  1  0  0  0  0
 24 27  1  0  0  0  0
 25 29  1  6  0  0  0
 25 23  1  0  0  0  0
 25 24  1  0  0  0  0
 30 25  1  0  0  0  0
 32 31  2  6  0  0  0
 32 30  1  0  0  0  0
 33 32  1  0  0  0  0
 33 34  1  0  0  0  0
 35 32  1  0  0  0  0
 36 35  1  0  0  0  0
 37 38  1  0  0  0  0
 37 36  2  0  0  0  0
 39 37  1  0  0  0  0
 40 39  2  0  0  0  0
 40 41  1  0  0  0  0
 41 36  1  0  0  0  0
M  END
>  <minimizedAffinity>
-5.04986095

>  <minimizedRMSD>
3.71041536

$$$$
