
 OpenBabel03252509213D

 22 24  0  0  0  0  0  0  0  0999 V2000
   45.2200   32.6430   43.4600 C   0  0  0  0  0  0  0  0  0  0  0  0
   45.5310   33.6640   42.5360 C   0  0  0  0  0  0  0  0  0  0  0  0
   46.8070   34.1520   42.6190 C   0  0  0  0  0  0  0  0  0  0  0  0
   47.6610   33.6240   43.5700 N   0  0  0  0  0  0  0  0  0  0  0  0
   47.3290   32.6570   44.4260 C   0  0  0  0  0  0  0  0  0  0  0  0
   46.0820   32.1790   44.3480 N   0  0  0  0  0  0  0  0  0  0  0  0
   44.2540   32.1970   43.4780 H   0  0  0  0  0  0  0  0  0  0  0  0
   48.1670   32.4230   45.0620 H   0  0  0  0  0  0  0  0  0  0  0  0
   47.3230   35.1670   41.6230 C   0  0  0  0  0  0  0  0  0  0  0  0
   48.8370   35.3540   41.7870 C   0  0  0  0  0  0  0  0  0  0  0  0
   48.1670   34.7030   40.5390 C   0  0  0  0  0  0  0  0  0  0  0  0
   46.8570   36.1670   41.7640 H   0  0  0  0  0  0  0  0  0  0  0  0
   49.2950   36.3290   41.6020 H   0  0  0  0  0  0  0  0  0  0  0  0
   49.4130   34.6410   42.3980 H   0  0  0  0  0  0  0  0  0  0  0  0
   48.2950   33.6130   40.4310 H   0  0  0  0  0  0  0  0  0  0  0  0
   48.1810   35.3340   39.6240 H   0  0  0  0  0  0  0  0  0  0  0  0
   44.5690   34.1500   41.6100 C   0  0  0  0  0  0  0  0  0  0  0  0
   44.3580   33.4560   40.4070 C   0  0  0  0  0  0  0  0  0  0  0  0
   44.8020   32.5580   40.0030 H   0  0  0  0  0  0  0  0  0  0  0  0
   43.4730   33.8500   39.4780 C   0  0  0  0  0  3  0  0  0  0  0  0
   42.7200   35.0350   39.7470 C   0  0  0  0  0  3  0  0  0  0  0  0
   43.4220   35.4880   41.4360 S   0  0  0  0  0  0  0  0  0  0  0  0
  1  7  1  0  0  0  0
  1  6  1  0  0  0  0
  2  3  1  0  0  0  0
  2  1  2  0  0  0  0
  3  4  2  0  0  0  0
  4  5  1  0  0  0  0
  5  8  1  0  0  0  0
  6  5  2  0  0  0  0
  9 12  1  0  0  0  0
  9 10  1  0  0  0  0
  9  3  1  0  0  0  0
 10 14  1  0  0  0  0
 11  9  1  0  0  0  0
 11 10  1  0  0  0  0
 13 10  1  0  0  0  0
 15 11  1  0  0  0  0
 16 11  1  0  0  0  0
 17  2  1  0  0  0  0
 18 17  2  0  0  0  0
 19 18  1  0  0  0  0
 20 21  2  0  0  0  0
 20 18  1  0  0  0  0
 21 22  1  0  0  0  0
 22 17  1  0  0  0  0
M  END
>  <minimizedAffinity>
-3.88359857

>  <minimizedRMSD>
2.67804623

$$$$
