
 OpenBabel03252508053D

 37 40  0  0  0  0  0  0  0  0999 V2000
   44.8240   33.9670   42.9350 C   0  0  0  0  0  0  0  0  0  0  0  0
   45.2260   32.6970   43.3490 C   0  0  0  0  0  0  0  0  0  0  0  0
   45.5850   32.4980   44.6690 C   0  0  0  0  0  0  0  0  0  0  0  0
   45.5190   33.5720   45.5230 N   0  0  0  0  0  0  0  0  0  0  0  0
   45.1280   34.7820   45.1030 C   0  0  0  0  0  0  0  0  0  0  0  0
   44.7870   34.9660   43.8150 N   0  0  0  0  0  0  0  0  0  0  0  0
   44.5370   34.1740   41.9070 H   0  0  0  0  0  0  0  0  0  0  0  0
   45.1140   35.5660   45.8750 H   0  0  0  0  0  0  0  0  0  0  0  0
   46.0100   31.2540   45.2170 C   0  0  0  0  0  0  0  0  0  0  0  0
   45.7170   30.0050   44.6920 C   0  0  0  0  0  0  0  0  0  0  0  0
   46.0590   28.8190   45.2980 C   0  0  0  0  0  0  0  0  0  0  0  0
   46.7340   28.8290   46.5020 C   0  0  0  0  0  0  0  0  0  0  0  0
   47.0420   30.1010   47.0500 C   0  0  0  0  0  0  0  0  0  0  0  0
   47.7090   30.1200   48.2460 C   0  0  0  0  0  0  0  0  0  0  0  0
   48.0520   31.3220   48.8400 C   0  0  0  0  0  0  0  0  0  0  0  0
   47.7110   32.5190   48.2050 C   0  0  0  0  0  0  0  0  0  0  0  0
   47.0240   32.4650   46.9790 C   0  0  0  0  0  0  0  0  0  0  0  0
   46.6900   31.2510   46.4160 C   0  0  0  0  0  0  0  0  0  0  0  0
   45.2020   29.9000   43.7860 H   0  0  0  0  0  0  0  0  0  0  0  0
   45.8320   27.8490   44.8890 H   0  0  0  0  0  0  0  0  0  0  0  0
   47.0050   27.9030   46.9900 H   0  0  0  0  0  0  0  0  0  0  0  0
   47.9670   29.1590   48.7190 H   0  0  0  0  0  0  0  0  0  0  0  0
   48.5790   31.2130   49.7910 H   0  0  0  0  0  0  0  0  0  0  0  0
   48.0550   33.3450   48.8000 H   0  0  0  0  0  0  0  0  0  0  0  0
   46.9400   33.4710   46.7210 H   0  0  0  0  0  0  0  0  0  0  0  0
   45.2280   31.7110   42.4060 O   0  0  0  0  0  0  0  0  0  0  0  0
   46.4840   30.1870   40.6630 O   0  0  0  0  0  0  0  0  0  0  0  0
   46.4120   31.5820   41.1870 P   0  0  1  0  0  0  0  0  0  0  0  0
   46.0340   32.5880   39.8770 O   0  0  0  0  0  0  0  0  0  0  0  0
   46.5570   32.2680   39.1100 H   0  0  0  0  0  0  0  0  0  0  0  0
   47.8890   32.0610   41.8130 O   0  0  0  0  0  0  0  0  0  0  0  0
   48.4180   33.2940   41.8690 C   0  0  0  0  0  0  0  0  0  0  0  0
   49.3740   33.8540   42.7150 C   0  0  0  0  0  0  0  0  0  0  0  0
   49.7870   33.2080   43.4750 H   0  0  0  0  0  0  0  0  0  0  0  0
   49.7260   35.1680   42.5310 C   0  0  0  0  0  3  0  0  0  0  0  0
   49.1550   35.9090   41.5470 C   0  0  0  0  0  3  0  0  0  0  0  0
   47.9590   34.6870   40.7220 S   0  0  0  0  0  0  0  0  0  0  0  0
  1  2  2  0  0  0  0
  1  6  1  0  0  0  0
  2  3  1  0  0  0  0
  3  9  1  0  0  0  0
  3  4  2  0  0  0  0
  5  4  1  0  0  0  0
  5  8  1  0  0  0  0
  6  5  2  0  0  0  0
  7  1  1  0  0  0  0
  9 18  1  0  0  0  0
 10  9  2  0  0  0  0
 10 11  1  0  0  0  0
 11 12  2  0  0  0  0
 12 21  1  0  0  0  0
 12 13  1  0  0  0  0
 13 14  1  0  0  0  0
 14 22  1  0  0  0  0
 14 15  2  0  0  0  0
 15 23  1  0  0  0  0
 16 24  1  0  0  0  0
 16 15  1  0  0  0  0
 17 16  2  0  0  0  0
 18 17  1  0  0  0  0
 18 13  2  0  0  0  0
 19 10  1  0  0  0  0
 20 11  1  0  0  0  0
 25 17  1  0  0  0  0
 26  2  1  0  0  0  0
 28 27  2  6  0  0  0
 28 31  1  0  0  0  0
 28 26  1  0  0  0  0
 29 28  1  0  0  0  0
 30 29  1  0  0  0  0
 31 32  1  0  0  0  0
 32 33  2  0  0  0  0
 33 34  1  0  0  0  0
 35 33  1  0  0  0  0
 36 35  2  0  0  0  0
 37 36  1  0  0  0  0
 37 32  1  0  0  0  0
M  END
>  <minimizedAffinity>
-5.27992582

>  <minimizedRMSD>
2.76350284

$$$$
