
 OpenBabel03252501423D

 42 45  0  0  0  0  0  0  0  0999 V2000
   42.9610   32.2230   39.4230 Cl  0  0  0  0  0  0  0  0  0  0  0  0
   41.9080   33.5400   39.9350 C   0  0  0  0  0  0  0  0  0  0  0  0
   42.3930   34.7050   40.5240 C   0  0  0  0  0  0  0  0  0  0  0  0
   41.5360   35.6920   40.9020 C   0  0  0  0  0  0  0  0  0  0  0  0
   40.1740   35.6010   40.7290 C   0  0  0  0  0  0  0  0  0  0  0  0
   39.6520   34.4440   40.1380 C   0  0  0  0  0  0  0  0  0  0  0  0
   37.9290   34.2370   39.8750 Cl  0  0  0  0  0  0  0  0  0  0  0  0
   40.5440   33.4610   39.7650 C   0  0  0  0  0  0  0  0  0  0  0  0
   41.9410   36.5830   41.3570 H   0  0  0  0  0  0  0  0  0  0  0  0
   39.5140   36.3840   41.0300 H   0  0  0  0  0  0  0  0  0  0  0  0
   39.8580   31.3310   41.3080 F   0  0  0  0  0  0  0  0  0  0  0  0
   39.6900   31.1830   39.9500 C   0  0  0  0  0  0  0  0  0  0  0  0
   40.0280   32.2410   39.1450 C   0  0  0  0  0  0  0  0  0  0  0  0
   39.8460   32.0640   37.7640 C   0  0  0  0  0  0  0  0  0  0  0  0
   39.3450   30.8510   37.3070 C   0  0  0  0  0  0  0  0  0  0  0  0
   39.0200   29.8080   38.1920 C   0  0  0  0  0  0  0  0  0  0  0  0
   39.1920   29.9620   39.5560 C   0  0  0  0  0  0  0  0  0  0  0  0
   40.1070   32.8830   37.1350 H   0  0  0  0  0  0  0  0  0  0  0  0
   39.2040   30.7120   36.2450 H   0  0  0  0  0  0  0  0  0  0  0  0
   38.6310   28.8710   37.8100 H   0  0  0  0  0  0  0  0  0  0  0  0
   38.9540   29.1870   40.2620 H   0  0  0  0  0  0  0  0  0  0  0  0
   43.7860   34.7810   40.6950 O   0  0  0  0  0  0  0  0  0  0  0  0
   44.3320   34.2610   41.8670 C   0  0  0  0  0  0  0  0  0  0  0  0
   44.0630   33.1230   42.4050 O   0  0  0  0  0  0  0  0  0  0  0  0
   45.2950   35.0040   42.6140 N   0  0  0  0  0  0  0  0  0  0  0  0
   45.6500   35.9330   42.3210 H   0  0  0  0  0  0  0  0  0  0  0  0
   45.6610   34.2430   43.7920 C   0  0  0  0  0  0  0  0  0  0  0  0
   45.2110   34.4620   45.0560 C   0  0  0  0  0  0  0  0  0  0  0  0
   45.6600   33.6440   46.0590 C   0  0  0  0  0  0  0  0  0  0  0  0
   46.5260   32.6680   45.7200 N   0  0  0  0  0  0  0  0  0  0  0  0
   46.9590   32.4700   44.4560 C   0  0  0  0  0  0  0  0  0  0  0  0
   46.5240   33.2730   43.4470 N   0  0  0  0  0  0  0  0  0  0  0  0
   45.3080   33.8090   47.0630 H   0  0  0  0  0  0  0  0  0  0  0  0
   47.9200   31.3740   44.1480 C   0  0  0  0  0  0  0  0  0  0  0  0
   48.1530   30.2460   44.7900 C   0  0  0  0  0  0  0  0  0  0  0  0
   47.5840   30.0320   45.6900 H   0  0  0  0  0  0  0  0  0  0  0  0
   49.0840   29.3480   44.3550 C   0  0  0  0  0  0  0  0  0  0  0  0
   49.7710   29.7620   43.1400 C   0  0  0  0  0  0  0  0  0  0  0  0
   48.9740   31.4130   42.7750 S   0  0  0  0  0  0  0  0  0  0  0  0
   44.2960   35.5390   45.2420 N   0  0  0  0  0  0  0  0  0  0  0  0
   44.1730   36.1740   46.0450 H   0  0  0  0  0  0  0  0  0  0  0  0
   43.6070   35.7960   44.4990 H   0  0  0  0  0  0  0  0  0  0  0  0
  1  2  1  0  0  0  0
  2  3  1  0  0  0  0
  3 22  1  0  0  0  0
  3  4  2  0  0  0  0
  4  9  1  0  0  0  0
  5  4  1  0  0  0  0
  5 10  1  0  0  0  0
  6  5  2  0  0  0  0
  7  6  1  0  0  0  0
  8  2  2  0  0  0  0
  8  6  1  0  0  0  0
 12 11  1  0  0  0  0
 13  8  1  0  0  0  0
 13 12  2  0  0  0  0
 14 13  1  0  0  0  0
 15 14  2  0  0  0  0
 15 16  1  0  0  0  0
 16 17  2  0  0  0  0
 17 12  1  0  0  0  0
 17 21  1  0  0  0  0
 18 14  1  0  0  0  0
 19 15  1  0  0  0  0
 20 16  1  0  0  0  0
 22 23  1  0  0  0  0
 23 24  2  0  0  0  0
 23 25  1  0  0  0  0
 25 27  1  0  0  0  0
 26 25  1  0  0  0  0
 27 28  1  0  0  0  0
 28 40  1  0  0  0  0
 28 29  2  0  0  0  0
 29 33  1  0  0  0  0
 30 29  1  0  0  0  0
 31 30  2  0  0  0  0
 32 27  2  0  0  0  0
 32 31  1  0  0  0  0
 34 31  1  0  0  0  0
 34 35  2  0  0  0  0
 35 36  1  0  0  0  0
 37 35  1  0  0  0  0
 38 37  2  0  0  0  0
 39 38  1  0  0  0  0
 39 34  1  0  0  0  0
 40 41  1  0  0  0  0
 42 40  1  0  0  0  0
M  END
>  <minimizedAffinity>
-6.28621101

>  <minimizedRMSD>
0.447759718

$$$$
