
 OpenBabel03252507553D

 41 44  0  0  1  0  0  0  0  0999 V2000
   47.0610   34.8080   41.9590 C   0  0  2  0  0  0  0  0  0  0  0  0
   46.2960   34.2100   40.7770 C   0  0  0  0  0  0  0  0  0  0  0  0
   47.4950   33.9960   39.8310 C   0  0  0  0  0  0  0  0  0  0  0  0
   48.6270   33.6040   40.7280 C   0  0  1  0  0  0  0  0  0  0  0  0
   48.1140   33.7480   42.1300 C   0  0  0  0  0  0  0  0  0  0  0  0
   47.4800   35.7630   41.6290 H   0  0  0  0  0  0  0  0  0  0  0  0
   45.9020   33.2230   41.0420 H   0  0  0  0  0  0  0  0  0  0  0  0
   45.5770   34.9100   40.3440 H   0  0  0  0  0  0  0  0  0  0  0  0
   47.7440   34.9880   39.3850 H   0  0  0  0  0  0  0  0  0  0  0  0
   47.2540   33.2290   39.0750 H   0  0  0  0  0  0  0  0  0  0  0  0
   49.5190   34.2580   40.6130 H   0  0  0  0  0  0  0  0  0  0  0  0
   48.8850   34.1580   42.8170 H   0  0  0  0  0  0  0  0  0  0  0  0
   47.6440   32.8250   42.5170 H   0  0  0  0  0  0  0  0  0  0  0  0
   44.5430   36.0120   44.4880 C   0  0  0  0  0  0  0  0  0  0  0  0
   45.2830   35.9850   43.2960 C   0  0  0  0  0  0  0  0  0  0  0  0
   46.1930   34.9430   43.1590 C   0  0  0  0  0  0  0  0  0  0  0  0
   46.3470   33.9830   44.1720 N   0  0  0  0  0  0  0  0  0  0  0  0
   45.5980   34.0710   45.3000 C   0  0  0  0  0  0  0  0  0  0  0  0
   44.7020   35.0830   45.4520 N   0  0  0  0  0  0  0  0  0  0  0  0
   43.8250   36.8140   44.6220 H   0  0  0  0  0  0  0  0  0  0  0  0
   45.1880   36.7030   42.5060 H   0  0  0  0  0  0  0  0  0  0  0  0
   45.8080   33.2770   46.0010 H   0  0  0  0  0  0  0  0  0  0  0  0
   49.0860   32.1720   40.5650 C   0  0  2  0  0  0  0  0  0  0  0  0
   49.9840   31.6710   41.6010 C   0  0  0  0  0  0  0  0  0  0  0  0
   50.4670   31.8470   40.2010 C   0  0  1  0  0  0  0  0  0  0  0  0
   48.2970   31.4940   40.1970 H   0  0  0  0  0  0  0  0  0  0  0  0
   50.3030   32.3380   42.4040 H   0  0  0  0  0  0  0  0  0  0  0  0
   49.7900   30.6310   41.9890 H   0  0  0  0  0  0  0  0  0  0  0  0
   51.1390   32.6860   39.9700 H   0  0  0  0  0  0  0  0  0  0  0  0
   50.6780   30.6800   39.4290 O   0  0  0  0  0  0  0  0  0  0  0  0
   51.9250   29.9930   37.2480 O   0  0  0  0  0  0  0  0  0  0  0  0
   51.9930   30.9420   38.4210 P   0  0  1  0  0  0  0  0  0  0  0  0
   51.9320   32.5380   37.7880 O   0  0  0  0  0  0  0  0  0  0  0  0
   52.0330   33.1580   38.5730 H   0  0  0  0  0  0  0  0  0  0  0  0
   53.4790   30.7810   39.1430 O   0  0  0  0  0  0  0  0  0  0  0  0
   54.5810   30.4610   38.3550 C   0  0  0  0  0  0  0  0  0  0  0  0
   55.1390   30.9010   37.2100 C   0  0  0  0  0  0  0  0  0  0  0  0
   54.5830   31.7250   36.7840 H   0  0  0  0  0  0  0  0  0  0  0  0
   56.2590   30.3380   36.7050 C   0  0  0  0  0  3  0  0  0  0  0  0
   56.7870   29.2710   37.4620 C   0  0  0  0  0  3  0  0  0  0  0  0
   55.5800   29.1500   38.9080 S   0  0  0  0  0  0  0  0  0  0  0  0
  1  6  1  6  0  0  0
  1  5  1  0  0  0  0
  1 16  1  0  0  0  0
  2  7  1  0  0  0  0
  2  1  1  0  0  0  0
  3  4  1  0  0  0  0
  3  2  1  0  0  0  0
  4 11  1  6  0  0  0
  4  5  1  0  0  0  0
  5 13  1  0  0  0  0
  5 12  1  0  0  0  0
  8  2  1  0  0  0  0
  9  3  1  0  0  0  0
 10  3  1  0  0  0  0
 14 20  1  0  0  0  0
 14 19  1  0  0  0  0
 15 14  2  0  0  0  0
 16 15  1  0  0  0  0
 16 17  2  0  0  0  0
 17 18  1  0  0  0  0
 18 19  2  0  0  0  0
 18 22  1  0  0  0  0
 21 15  1  0  0  0  0
 23 26  1  6  0  0  0
 23  4  1  0  0  0  0
 23 24  1  0  0  0  0
 24 28  1  0  0  0  0
 24 27  1  0  0  0  0
 25 29  1  6  0  0  0
 25 23  1  0  0  0  0
 25 24  1  0  0  0  0
 30 25  1  0  0  0  0
 32 31  2  6  0  0  0
 32 35  1  0  0  0  0
 32 30  1  0  0  0  0
 33 32  1  0  0  0  0
 33 34  1  0  0  0  0
 36 41  1  0  0  0  0
 36 35  1  0  0  0  0
 37 36  2  0  0  0  0
 38 37  1  0  0  0  0
 39 37  1  0  0  0  0
 39 40  2  0  0  0  0
 40 41  1  0  0  0  0
M  END
>  <minimizedAffinity>
-5.40419149

>  <minimizedRMSD>
1.62428117

$$$$
