
 OpenBabel03252504513D

 31 33  0  0  0  0  0  0  0  0999 V2000
   36.9570   27.8310   41.4940 C   0  0  0  0  0  0  0  0  0  0  0  0
   37.4410   29.0070   42.0870 C   0  0  0  0  0  0  0  0  0  0  0  0
   37.1640   30.2020   41.4310 C   0  0  0  0  0  0  0  0  0  0  0  0
   36.4500   30.1500   40.2700 N   0  0  0  0  0  0  0  0  0  0  0  0
   36.0060   29.0150   39.7360 C   0  0  0  0  0  0  0  0  0  0  0  0
   36.2600   27.8370   40.3510 N   0  0  0  0  0  0  0  0  0  0  0  0
   37.1620   26.8760   41.9920 H   0  0  0  0  0  0  0  0  0  0  0  0
   37.5200   31.1170   41.8580 H   0  0  0  0  0  0  0  0  0  0  0  0
   37.6790   29.3240   37.2020 Cl  0  0  0  0  0  0  0  0  0  0  0  0
   35.9230   29.1650   37.2890 C   0  0  0  0  0  0  0  0  0  0  0  0
   35.2460   29.0280   38.4910 C   0  0  0  0  0  0  0  0  0  0  0  0
   33.8780   28.9060   38.5270 C   0  0  0  0  0  0  0  0  0  0  0  0
   33.1690   28.9200   37.3300 C   0  0  0  0  0  0  0  0  0  0  0  0
   33.8780   29.0570   36.1520 C   0  0  0  0  0  0  0  0  0  0  0  0
   32.9310   29.0680   34.6820 Cl  0  0  0  0  0  0  0  0  0  0  0  0
   35.2400   29.1820   36.0890 C   0  0  0  0  0  0  0  0  0  0  0  0
   33.4020   28.8020   39.5010 H   0  0  0  0  0  0  0  0  0  0  0  0
   32.0850   28.8230   37.3700 H   0  0  0  0  0  0  0  0  0  0  0  0
   35.7560   29.2880   35.1290 H   0  0  0  0  0  0  0  0  0  0  0  0
   38.1900   28.8990   43.3310 C   0  0  0  0  0  0  0  0  0  0  0  0
   37.6190   29.4400   44.1110 H   0  0  0  0  0  0  0  0  0  0  0  0
   39.1550   29.4010   43.2300 H   0  0  0  0  0  0  0  0  0  0  0  0
   38.3200   27.4410   43.6800 C   0  0  0  0  0  0  0  0  0  0  0  0
   38.0140   27.3410   44.7620 H   0  0  0  0  0  0  0  0  0  0  0  0
   37.5000   26.8790   43.1420 H   0  0  0  0  0  0  0  0  0  0  0  0
   39.6190   26.8670   43.5040 C   0  0  0  0  0  0  0  0  0  0  0  0
   40.9630   27.3540   43.6800 C   0  0  0  0  0  0  0  0  0  0  0  0
   40.9860   28.3740   44.0120 H   0  0  0  0  0  0  0  0  0  0  0  0
   41.9890   26.5110   43.4200 C   0  0  0  0  0  3  0  0  0  0  0  0
   41.7600   25.1630   42.9800 C   0  0  0  0  0  3  0  0  0  0  0  0
   39.8740   25.1170   42.9380 S   0  0  0  0  0  0  0  0  0  0  0  0
  1  7  1  0  0  0  0
  1  2  1  0  0  0  0
  2 20  1  0  0  0  0
  3  8  1  0  0  0  0
  3  2  2  0  0  0  0
  4  3  1  0  0  0  0
  5  4  2  0  0  0  0
  5  6  1  0  0  0  0
  6  1  2  0  0  0  0
  9 10  1  0  0  0  0
 10 11  1  0  0  0  0
 11 12  2  0  0  0  0
 11  5  1  0  0  0  0
 12 17  1  0  0  0  0
 13 18  1  0  0  0  0
 13 12  1  0  0  0  0
 14 13  2  0  0  0  0
 15 14  1  0  0  0  0
 16 14  1  0  0  0  0
 16 10  2  0  0  0  0
 19 16  1  0  0  0  0
 20 23  1  0  0  0  0
 20 21  1  0  0  0  0
 22 20  1  0  0  0  0
 23 24  1  0  0  0  0
 25 23  1  0  0  0  0
 26 23  1  0  0  0  0
 26 27  2  0  0  0  0
 27 28  1  0  0  0  0
 29 27  1  0  0  0  0
 30 29  2  0  0  0  0
 31 30  1  0  0  0  0
 31 26  1  0  0  0  0
M  END
>  <minimizedAffinity>
-5.04542923

$$$$

 OpenBabel03252504513D

 31 33  0  0  0  0  0  0  0  0999 V2000
   40.3650   26.9680   41.1230 C   0  0  0  0  0  0  0  0  0  0  0  0
   40.1530   26.5320   42.4410 C   0  0  0  0  0  0  0  0  0  0  0  0
   39.4440   27.3860   43.2780 C   0  0  0  0  0  0  0  0  0  0  0  0
   39.0070   28.5740   42.7700 N   0  0  0  0  0  0  0  0  0  0  0  0
   39.2260   28.9550   41.5140 C   0  0  0  0  0  0  0  0  0  0  0  0
   39.9130   28.1460   40.6750 N   0  0  0  0  0  0  0  0  0  0  0  0
   40.9210   26.3120   40.4430 H   0  0  0  0  0  0  0  0  0  0  0  0
   39.2660   27.0830   44.2890 H   0  0  0  0  0  0  0  0  0  0  0  0
   36.2390   29.0420   40.8990 Cl  0  0  0  0  0  0  0  0  0  0  0  0
   37.3870   30.3720   40.7250 C   0  0  0  0  0  0  0  0  0  0  0  0
   38.7320   30.2400   41.0310 C   0  0  0  0  0  0  0  0  0  0  0  0
   39.6020   31.2930   40.8860 C   0  0  0  0  0  0  0  0  0  0  0  0
   39.1130   32.5110   40.4240 C   0  0  0  0  0  0  0  0  0  0  0  0
   37.7660   32.6050   40.1290 C   0  0  0  0  0  0  0  0  0  0  0  0
   37.2130   34.1610   39.5530 Cl  0  0  0  0  0  0  0  0  0  0  0  0
   36.8790   31.5710   40.2640 C   0  0  0  0  0  0  0  0  0  0  0  0
   40.6470   31.1280   41.1420 H   0  0  0  0  0  0  0  0  0  0  0  0
   39.8110   33.3390   40.3120 H   0  0  0  0  0  0  0  0  0  0  0  0
   35.8200   31.6970   40.0180 H   0  0  0  0  0  0  0  0  0  0  0  0
   40.6830   25.2350   42.8350 C   0  0  0  0  0  0  0  0  0  0  0  0
   41.3390   25.3980   43.7140 H   0  0  0  0  0  0  0  0  0  0  0  0
   41.3080   24.8290   42.0370 H   0  0  0  0  0  0  0  0  0  0  0  0
   39.5270   24.3390   43.1900 C   0  0  0  0  0  0  0  0  0  0  0  0
   39.9680   23.3290   43.4370 H   0  0  0  0  0  0  0  0  0  0  0  0
   39.1190   24.6760   44.1880 H   0  0  0  0  0  0  0  0  0  0  0  0
   38.5240   24.1810   42.1840 C   0  0  0  0  0  0  0  0  0  0  0  0
   37.1170   24.4830   42.1140 C   0  0  0  0  0  0  0  0  0  0  0  0
   36.7490   24.9180   43.0220 H   0  0  0  0  0  0  0  0  0  0  0  0
   36.4570   24.1990   40.9670 C   0  0  0  0  0  3  0  0  0  0  0  0
   37.1270   23.6110   39.8410 C   0  0  0  0  0  3  0  0  0  0  0  0
   38.8840   23.4560   40.5130 S   0  0  0  0  0  0  0  0  0  0  0  0
  1  2  1  0  0  0  0
  2 20  1  0  0  0  0
  2  3  2  0  0  0  0
  3  8  1  0  0  0  0
  4  3  1  0  0  0  0
  5  4  2  0  0  0  0
  6  1  2  0  0  0  0
  6  5  1  0  0  0  0
  7  1  1  0  0  0  0
 10  9  1  0  0  0  0
 10 11  1  0  0  0  0
 11  5  1  0  0  0  0
 12 11  2  0  0  0  0
 12 17  1  0  0  0  0
 13 12  1  0  0  0  0
 14 16  1  0  0  0  0
 14 13  2  0  0  0  0
 15 14  1  0  0  0  0
 16 10  2  0  0  0  0
 18 13  1  0  0  0  0
 19 16  1  0  0  0  0
 20 23  1  0  0  0  0
 20 21  1  0  0  0  0
 22 20  1  0  0  0  0
 23 24  1  0  0  0  0
 23 25  1  0  0  0  0
 26 23  1  0  0  0  0
 27 26  2  0  0  0  0
 27 28  1  0  0  0  0
 29 27  1  0  0  0  0
 30 31  1  0  0  0  0
 30 29  2  0  0  0  0
 31 26  1  0  0  0  0
M  END
>  <minimizedAffinity>
-4.95334578

$$$$

 OpenBabel03252504513D

 31 33  0  0  0  0  0  0  0  0999 V2000
   37.3760   30.5970   38.6520 C   0  0  0  0  0  0  0  0  0  0  0  0
   37.4250   30.6450   40.0540 C   0  0  0  0  0  0  0  0  0  0  0  0
   38.6860   30.6390   40.6390 C   0  0  0  0  0  0  0  0  0  0  0  0
   39.7770   30.5880   39.8220 N   0  0  0  0  0  0  0  0  0  0  0  0
   39.6940   30.5440   38.4950 C   0  0  0  0  0  0  0  0  0  0  0  0
   38.4810   30.5480   37.8960 N   0  0  0  0  0  0  0  0  0  0  0  0
   36.3930   30.6010   38.1670 H   0  0  0  0  0  0  0  0  0  0  0  0
   38.7570   30.6740   41.7070 H   0  0  0  0  0  0  0  0  0  0  0  0
   41.1260   33.2140   38.1310 Cl  0  0  0  0  0  0  0  0  0  0  0  0
   41.6160   31.6580   37.4560 C   0  0  0  0  0  0  0  0  0  0  0  0
   40.9000   30.4920   37.6770 C   0  0  0  0  0  0  0  0  0  0  0  0
   41.3060   29.2950   37.1390 C   0  0  0  0  0  0  0  0  0  0  0  0
   42.4590   29.2630   36.3600 C   0  0  0  0  0  0  0  0  0  0  0  0
   43.1460   30.4450   36.1630 C   0  0  0  0  0  0  0  0  0  0  0  0
   44.5860   30.3410   35.1760 Cl  0  0  0  0  0  0  0  0  0  0  0  0
   42.7630   31.6500   36.6870 C   0  0  0  0  0  0  0  0  0  0  0  0
   40.7020   28.4130   37.3460 H   0  0  0  0  0  0  0  0  0  0  0  0
   42.7720   28.3090   35.9380 H   0  0  0  0  0  0  0  0  0  0  0  0
   43.3430   32.5600   36.5010 H   0  0  0  0  0  0  0  0  0  0  0  0
   36.1690   30.6950   40.7890 C   0  0  0  0  0  0  0  0  0  0  0  0
   35.5670   31.5210   40.3620 H   0  0  0  0  0  0  0  0  0  0  0  0
   36.3600   30.9430   41.8360 H   0  0  0  0  0  0  0  0  0  0  0  0
   35.4660   29.3760   40.6160 C   0  0  0  0  0  0  0  0  0  0  0  0
   34.4590   29.4810   41.1180 H   0  0  0  0  0  0  0  0  0  0  0  0
   35.1850   29.2710   39.5270 H   0  0  0  0  0  0  0  0  0  0  0  0
   36.1390   28.2310   41.1480 C   0  0  0  0  0  0  0  0  0  0  0  0
   36.5140   27.8150   42.4750 C   0  0  0  0  0  0  0  0  0  0  0  0
   36.2260   28.5280   43.2220 H   0  0  0  0  0  0  0  0  0  0  0  0
   37.1540   26.6310   42.6170 C   0  0  0  0  0  3  0  0  0  0  0  0
   37.4580   25.8010   41.4860 C   0  0  0  0  0  3  0  0  0  0  0  0
   36.7470   26.8390   40.0800 S   0  0  0  0  0  0  0  0  0  0  0  0
  1  2  1  0  0  0  0
  2  3  2  0  0  0  0
  2 20  1  0  0  0  0
  3  8  1  0  0  0  0
  4  3  1  0  0  0  0
  5  4  2  0  0  0  0
  6  5  1  0  0  0  0
  6  1  2  0  0  0  0
  7  1  1  0  0  0  0
 10 11  1  0  0  0  0
 10  9  1  0  0  0  0
 11  5  1  0  0  0  0
 12 17  1  0  0  0  0
 12 11  2  0  0  0  0
 13 12  1  0  0  0  0
 14 13  2  0  0  0  0
 14 16  1  0  0  0  0
 15 14  1  0  0  0  0
 16 10  2  0  0  0  0
 18 13  1  0  0  0  0
 19 16  1  0  0  0  0
 20 22  1  0  0  0  0
 21 20  1  0  0  0  0
 23 20  1  0  0  0  0
 23 24  1  0  0  0  0
 23 26  1  0  0  0  0
 25 23  1  0  0  0  0
 26 27  2  0  0  0  0
 27 29  1  0  0  0  0
 27 28  1  0  0  0  0
 30 29  2  0  0  0  0
 31 26  1  0  0  0  0
 31 30  1  0  0  0  0
M  END
>  <minimizedAffinity>
-4.93109322

$$$$

 OpenBabel03252504513D

 31 33  0  0  0  0  0  0  0  0999 V2000
   35.5230   28.8040   36.3560 C   0  0  0  0  0  0  0  0  0  0  0  0
   34.1330   29.0030   36.3310 C   0  0  0  0  0  0  0  0  0  0  0  0
   33.4670   28.9310   37.5500 C   0  0  0  0  0  0  0  0  0  0  0  0
   34.1980   28.6770   38.6720 N   0  0  0  0  0  0  0  0  0  0  0  0
   35.5160   28.4940   38.6590 C   0  0  0  0  0  0  0  0  0  0  0  0
   36.1930   28.5570   37.4900 N   0  0  0  0  0  0  0  0  0  0  0  0
   36.0710   28.8560   35.4090 H   0  0  0  0  0  0  0  0  0  0  0  0
   32.4060   29.0780   37.5640 H   0  0  0  0  0  0  0  0  0  0  0  0
   36.1750   30.9590   40.3320 Cl  0  0  0  0  0  0  0  0  0  0  0  0
   36.5840   29.2860   40.7200 C   0  0  0  0  0  0  0  0  0  0  0  0
   36.2410   28.2260   39.8960 C   0  0  0  0  0  0  0  0  0  0  0  0
   36.5720   26.9340   40.2250 C   0  0  0  0  0  0  0  0  0  0  0  0
   37.2640   26.6960   41.4080 C   0  0  0  0  0  0  0  0  0  0  0  0
   37.5880   27.7780   42.2040 C   0  0  0  0  0  0  0  0  0  0  0  0
   38.4570   27.4150   43.6770 Cl  0  0  0  0  0  0  0  0  0  0  0  0
   37.2700   29.0750   41.8990 C   0  0  0  0  0  0  0  0  0  0  0  0
   36.2760   26.1430   39.5370 H   0  0  0  0  0  0  0  0  0  0  0  0
   37.5220   25.6680   41.6590 H   0  0  0  0  0  0  0  0  0  0  0  0
   37.5500   29.8980   42.5640 H   0  0  0  0  0  0  0  0  0  0  0  0
   33.4940   29.2650   35.0500 C   0  0  0  0  0  0  0  0  0  0  0  0
   33.7330   28.4150   34.3800 H   0  0  0  0  0  0  0  0  0  0  0  0
   33.9200   30.1620   34.5970 H   0  0  0  0  0  0  0  0  0  0  0  0
   32.0090   29.3670   35.2740 C   0  0  0  0  0  0  0  0  0  0  0  0
   31.5720   28.3660   34.9900 H   0  0  0  0  0  0  0  0  0  0  0  0
   31.8260   29.4060   36.3880 H   0  0  0  0  0  0  0  0  0  0  0  0
   31.3350   30.3970   34.5450 C   0  0  0  0  0  0  0  0  0  0  0  0
   31.3040   31.8350   34.6370 C   0  0  0  0  0  0  0  0  0  0  0  0
   31.9220   32.2050   35.4310 H   0  0  0  0  0  0  0  0  0  0  0  0
   30.5390   32.5160   33.7530 C   0  0  0  0  0  3  0  0  0  0  0  0
   29.7720   31.8390   32.7450 C   0  0  0  0  0  3  0  0  0  0  0  0
   30.2030   30.0400   33.1170 S   0  0  0  0  0  0  0  0  0  0  0  0
  1  6  1  0  0  0  0
  2  1  2  0  0  0  0
  2  3  1  0  0  0  0
  3  8  1  0  0  0  0
  3  4  2  0  0  0  0
  5  4  1  0  0  0  0
  5 11  1  0  0  0  0
  6  5  2  0  0  0  0
  7  1  1  0  0  0  0
  9 10  1  0  0  0  0
 10 16  1  0  0  0  0
 11 12  1  0  0  0  0
 11 10  2  0  0  0  0
 12 13  2  0  0  0  0
 13 18  1  0  0  0  0
 13 14  1  0  0  0  0
 14 15  1  0  0  0  0
 16 14  2  0  0  0  0
 16 19  1  0  0  0  0
 17 12  1  0  0  0  0
 20 23  1  0  0  0  0
 20  2  1  0  0  0  0
 21 20  1  0  0  0  0
 22 20  1  0  0  0  0
 23 25  1  0  0  0  0
 24 23  1  0  0  0  0
 26 27  2  0  0  0  0
 26 23  1  0  0  0  0
 27 28  1  0  0  0  0
 29 27  1  0  0  0  0
 30 31  1  0  0  0  0
 30 29  2  0  0  0  0
 31 26  1  0  0  0  0
M  END
>  <minimizedAffinity>
-4.92588615

$$$$

 OpenBabel03252504513D

 31 33  0  0  0  0  0  0  0  0999 V2000
   39.7430   28.6810   41.6140 C   0  0  0  0  0  0  0  0  0  0  0  0
   39.0140   29.7150   42.2220 C   0  0  0  0  0  0  0  0  0  0  0  0
   37.6390   29.5350   42.3300 C   0  0  0  0  0  0  0  0  0  0  0  0
   37.1000   28.3810   41.8450 N   0  0  0  0  0  0  0  0  0  0  0  0
   37.8210   27.4200   41.2740 C   0  0  0  0  0  0  0  0  0  0  0  0
   39.1610   27.5660   41.1540 N   0  0  0  0  0  0  0  0  0  0  0  0
   40.8290   28.7990   41.5170 H   0  0  0  0  0  0  0  0  0  0  0  0
   37.0560   30.3060   42.7890 H   0  0  0  0  0  0  0  0  0  0  0  0
   36.7860   27.5890   38.4080 Cl  0  0  0  0  0  0  0  0  0  0  0  0
   36.6810   26.1930   39.4830 C   0  0  0  0  0  0  0  0  0  0  0  0
   37.1820   26.2080   40.7750 C   0  0  0  0  0  0  0  0  0  0  0  0
   37.0860   25.1050   41.5890 C   0  0  0  0  0  0  0  0  0  0  0  0
   36.4730   23.9570   41.0970 C   0  0  0  0  0  0  0  0  0  0  0  0
   35.9860   23.9790   39.8040 C   0  0  0  0  0  0  0  0  0  0  0  0
   35.2270   22.5070   39.2440 Cl  0  0  0  0  0  0  0  0  0  0  0  0
   36.0680   25.0650   38.9740 C   0  0  0  0  0  0  0  0  0  0  0  0
   37.4970   25.1780   42.5940 H   0  0  0  0  0  0  0  0  0  0  0  0
   36.4020   23.0890   41.7500 H   0  0  0  0  0  0  0  0  0  0  0  0
   35.6670   25.0310   37.9550 H   0  0  0  0  0  0  0  0  0  0  0  0
   39.7360   30.8890   42.6900 C   0  0  0  0  0  0  0  0  0  0  0  0
   40.6020   30.5320   43.2830 H   0  0  0  0  0  0  0  0  0  0  0  0
   39.1040   31.4730   43.3620 H   0  0  0  0  0  0  0  0  0  0  0  0
   40.1980   31.6710   41.4900 C   0  0  0  0  0  0  0  0  0  0  0  0
   40.7190   32.5910   41.8870 H   0  0  0  0  0  0  0  0  0  0  0  0
   41.0460   31.1010   41.0070 H   0  0  0  0  0  0  0  0  0  0  0  0
   39.1780   32.0690   40.5700 C   0  0  0  0  0  0  0  0  0  0  0  0
   38.1640   33.0930   40.5780 C   0  0  0  0  0  0  0  0  0  0  0  0
   38.1840   33.6780   41.4770 H   0  0  0  0  0  0  0  0  0  0  0  0
   37.3480   33.1940   39.5040 C   0  0  0  0  0  3  0  0  0  0  0  0
   37.4750   32.3110   38.3780 C   0  0  0  0  0  3  0  0  0  0  0  0
   38.9190   31.2310   38.9330 S   0  0  0  0  0  0  0  0  0  0  0  0
  1  2  1  0  0  0  0
  2  3  2  0  0  0  0
  2 20  1  0  0  0  0
  3  8  1  0  0  0  0
  4  3  1  0  0  0  0
  5  4  2  0  0  0  0
  6  5  1  0  0  0  0
  6  1  2  0  0  0  0
  7  1  1  0  0  0  0
  9 10  1  0  0  0  0
 10 11  1  0  0  0  0
 11  5  1  0  0  0  0
 11 12  2  0  0  0  0
 12 17  1  0  0  0  0
 13 12  1  0  0  0  0
 13 18  1  0  0  0  0
 14 13  2  0  0  0  0
 15 14  1  0  0  0  0
 16 10  2  0  0  0  0
 16 14  1  0  0  0  0
 19 16  1  0  0  0  0
 20 21  1  0  0  0  0
 20 22  1  0  0  0  0
 23 24  1  0  0  0  0
 23 20  1  0  0  0  0
 25 23  1  0  0  0  0
 26 27  2  0  0  0  0
 26 23  1  0  0  0  0
 27 28  1  0  0  0  0
 29 27  1  0  0  0  0
 30 31  1  0  0  0  0
 30 29  2  0  0  0  0
 31 26  1  0  0  0  0
M  END
>  <minimizedAffinity>
-4.92037058

$$$$

 OpenBabel03252504513D

 31 33  0  0  0  0  0  0  0  0999 V2000
   35.0660   29.0650   36.0280 C   0  0  0  0  0  0  0  0  0  0  0  0
   33.6660   28.9670   35.9840 C   0  0  0  0  0  0  0  0  0  0  0  0
   33.0040   28.8870   37.2040 C   0  0  0  0  0  0  0  0  0  0  0  0
   33.7490   28.9080   38.3460 N   0  0  0  0  0  0  0  0  0  0  0  0
   35.0760   29.0010   38.3510 C   0  0  0  0  0  0  0  0  0  0  0  0
   35.7490   29.0810   37.1800 N   0  0  0  0  0  0  0  0  0  0  0  0
   35.6110   29.1300   35.0790 H   0  0  0  0  0  0  0  0  0  0  0  0
   31.9360   28.8120   37.2040 H   0  0  0  0  0  0  0  0  0  0  0  0
   36.2600   26.3180   39.1940 Cl  0  0  0  0  0  0  0  0  0  0  0  0
   36.3870   27.8450   40.0700 C   0  0  0  0  0  0  0  0  0  0  0  0
   35.8150   29.0190   39.6080 C   0  0  0  0  0  0  0  0  0  0  0  0
   35.9310   30.1930   40.3120 C   0  0  0  0  0  0  0  0  0  0  0  0
   36.6400   30.1920   41.5100 C   0  0  0  0  0  0  0  0  0  0  0  0
   37.1970   29.0030   41.9380 C   0  0  0  0  0  0  0  0  0  0  0  0
   38.0740   29.0660   43.4500 Cl  0  0  0  0  0  0  0  0  0  0  0  0
   37.0940   27.8200   41.2560 C   0  0  0  0  0  0  0  0  0  0  0  0
   35.4590   31.0830   39.8990 H   0  0  0  0  0  0  0  0  0  0  0  0
   36.7260   31.1280   42.0600 H   0  0  0  0  0  0  0  0  0  0  0  0
   37.5550   26.9030   41.6390 H   0  0  0  0  0  0  0  0  0  0  0  0
   33.0130   28.9560   34.6830 C   0  0  0  0  0  0  0  0  0  0  0  0
   33.1760   27.9540   34.2380 H   0  0  0  0  0  0  0  0  0  0  0  0
   33.4880   29.6840   34.0210 H   0  0  0  0  0  0  0  0  0  0  0  0
   31.5450   29.2180   34.8870 C   0  0  0  0  0  0  0  0  0  0  0  0
   31.0010   28.2980   34.5230 H   0  0  0  0  0  0  0  0  0  0  0  0
   31.3390   29.1990   35.9980 H   0  0  0  0  0  0  0  0  0  0  0  0
   31.0160   30.3700   34.2260 C   0  0  0  0  0  0  0  0  0  0  0  0
   31.1890   31.7910   34.3930 C   0  0  0  0  0  0  0  0  0  0  0  0
   31.8610   32.0270   35.1940 H   0  0  0  0  0  0  0  0  0  0  0  0
   30.5180   32.6190   33.5600 C   0  0  0  0  0  3  0  0  0  0  0  0
   29.6520   32.1130   32.5320 C   0  0  0  0  0  3  0  0  0  0  0  0
   29.8290   30.2530   32.8020 S   0  0  0  0  0  0  0  0  0  0  0  0
  1  6  1  0  0  0  0
  2  1  2  0  0  0  0
  2  3  1  0  0  0  0
  3  8  1  0  0  0  0
  3  4  2  0  0  0  0
  4  5  1  0  0  0  0
  5 11  1  0  0  0  0
  6  5  2  0  0  0  0
  7  1  1  0  0  0  0
  9 10  1  0  0  0  0
 10 16  1  0  0  0  0
 11 10  2  0  0  0  0
 11 12  1  0  0  0  0
 12 13  2  0  0  0  0
 13 14  1  0  0  0  0
 13 18  1  0  0  0  0
 14 15  1  0  0  0  0
 16 19  1  0  0  0  0
 16 14  2  0  0  0  0
 17 12  1  0  0  0  0
 20 23  1  0  0  0  0
 20  2  1  0  0  0  0
 21 20  1  0  0  0  0
 22 20  1  0  0  0  0
 23 25  1  0  0  0  0
 24 23  1  0  0  0  0
 26 27  2  0  0  0  0
 26 23  1  0  0  0  0
 27 28  1  0  0  0  0
 29 27  1  0  0  0  0
 30 31  1  0  0  0  0
 30 29  2  0  0  0  0
 31 26  1  0  0  0  0
M  END
>  <minimizedAffinity>
-4.89490652

$$$$

 OpenBabel03252504513D

 31 33  0  0  0  0  0  0  0  0999 V2000
   37.8240   26.2420   40.8220 C   0  0  0  0  0  0  0  0  0  0  0  0
   37.1560   25.7990   41.9740 C   0  0  0  0  0  0  0  0  0  0  0  0
   36.8050   26.7670   42.9080 C   0  0  0  0  0  0  0  0  0  0  0  0
   37.1290   28.0660   42.6450 N   0  0  0  0  0  0  0  0  0  0  0  0
   37.7640   28.4510   41.5410 C   0  0  0  0  0  0  0  0  0  0  0  0
   38.1180   27.5320   40.6130 N   0  0  0  0  0  0  0  0  0  0  0  0
   38.1120   25.4980   40.0700 H   0  0  0  0  0  0  0  0  0  0  0  0
   36.2940   26.4610   43.7980 H   0  0  0  0  0  0  0  0  0  0  0  0
   35.5790   30.0650   40.1500 Cl  0  0  0  0  0  0  0  0  0  0  0  0
   37.1480   30.6670   40.6920 C   0  0  0  0  0  0  0  0  0  0  0  0
   38.0810   29.8570   41.3180 C   0  0  0  0  0  0  0  0  0  0  0  0
   39.2940   30.3540   41.7300 C   0  0  0  0  0  0  0  0  0  0  0  0
   39.5800   31.6980   41.5090 C   0  0  0  0  0  0  0  0  0  0  0  0
   38.6250   32.4750   40.8820 C   0  0  0  0  0  0  0  0  0  0  0  0
   39.0430   34.1540   40.6340 Cl  0  0  0  0  0  0  0  0  0  0  0  0
   37.4100   32.0040   40.4620 C   0  0  0  0  0  0  0  0  0  0  0  0
   39.9860   29.6690   42.2150 H   0  0  0  0  0  0  0  0  0  0  0  0
   40.5440   32.0820   41.8390 H   0  0  0  0  0  0  0  0  0  0  0  0
   36.6860   32.6610   39.9700 H   0  0  0  0  0  0  0  0  0  0  0  0
   36.8820   24.3760   42.1110 C   0  0  0  0  0  0  0  0  0  0  0  0
   35.7920   24.2320   41.9620 H   0  0  0  0  0  0  0  0  0  0  0  0
   37.1140   24.0470   43.1260 H   0  0  0  0  0  0  0  0  0  0  0  0
   37.6660   23.6380   41.0590 C   0  0  0  0  0  0  0  0  0  0  0  0
   38.4760   24.3420   40.7100 H   0  0  0  0  0  0  0  0  0  0  0  0
   38.2560   22.8230   41.5720 H   0  0  0  0  0  0  0  0  0  0  0  0
   36.9210   23.1800   39.9270 C   0  0  0  0  0  0  0  0  0  0  0  0
   35.5200   23.1550   39.5920 C   0  0  0  0  0  0  0  0  0  0  0  0
   34.9080   23.5690   40.3690 H   0  0  0  0  0  0  0  0  0  0  0  0
   35.1580   22.6400   38.3940 C   0  0  0  0  0  3  0  0  0  0  0  0
   36.1310   22.1280   37.4710 C   0  0  0  0  0  3  0  0  0  0  0  0
   37.7260   22.4220   38.4360 S   0  0  0  0  0  0  0  0  0  0  0  0
  1  2  1  0  0  0  0
  2 20  1  0  0  0  0
  2  3  2  0  0  0  0
  3  8  1  0  0  0  0
  4  3  1  0  0  0  0
  5  4  2  0  0  0  0
  6  1  2  0  0  0  0
  6  5  1  0  0  0  0
  7  1  1  0  0  0  0
  9 10  1  0  0  0  0
 10 11  1  0  0  0  0
 11  5  1  0  0  0  0
 11 12  2  0  0  0  0
 12 17  1  0  0  0  0
 13 12  1  0  0  0  0
 13 18  1  0  0  0  0
 14 13  2  0  0  0  0
 15 14  1  0  0  0  0
 16 10  2  0  0  0  0
 16 14  1  0  0  0  0
 19 16  1  0  0  0  0
 20 22  1  0  0  0  0
 21 20  1  0  0  0  0
 23 25  1  0  0  0  0
 23 20  1  0  0  0  0
 24 23  1  0  0  0  0
 26 23  1  0  0  0  0
 27 26  2  0  0  0  0
 27 28  1  0  0  0  0
 29 27  1  0  0  0  0
 30 29  2  0  0  0  0
 30 31  1  0  0  0  0
 31 26  1  0  0  0  0
M  END
>  <minimizedAffinity>
-4.86621189

$$$$

 OpenBabel03252504513D

 31 33  0  0  0  0  0  0  0  0999 V2000
   37.3900   29.3940   39.9720 C   0  0  0  0  0  0  0  0  0  0  0  0
   37.2790   29.1610   41.3510 C   0  0  0  0  0  0  0  0  0  0  0  0
   38.2240   29.7720   42.1700 C   0  0  0  0  0  0  0  0  0  0  0  0
   39.1820   30.5450   41.5840 N   0  0  0  0  0  0  0  0  0  0  0  0
   39.2580   30.7450   40.2710 C   0  0  0  0  0  0  0  0  0  0  0  0
   38.3530   30.1650   39.4490 N   0  0  0  0  0  0  0  0  0  0  0  0
   36.6580   28.9250   39.3060 H   0  0  0  0  0  0  0  0  0  0  0  0
   38.1660   29.6130   43.2270 H   0  0  0  0  0  0  0  0  0  0  0  0
   38.6070   33.7240   40.1550 Cl  0  0  0  0  0  0  0  0  0  0  0  0
   40.0990   32.9520   39.6140 C   0  0  0  0  0  0  0  0  0  0  0  0
   40.3070   31.5860   39.7070 C   0  0  0  0  0  0  0  0  0  0  0  0
   41.4800   31.0130   39.2780 C   0  0  0  0  0  0  0  0  0  0  0  0
   42.4710   31.8300   38.7420 C   0  0  0  0  0  0  0  0  0  0  0  0
   42.2280   33.1880   38.6660 C   0  0  0  0  0  0  0  0  0  0  0  0
   43.5110   34.1610   37.9830 Cl  0  0  0  0  0  0  0  0  0  0  0  0
   41.0680   33.7830   39.0850 C   0  0  0  0  0  0  0  0  0  0  0  0
   41.5850   29.9340   39.3760 H   0  0  0  0  0  0  0  0  0  0  0  0
   43.3970   31.3660   38.4040 H   0  0  0  0  0  0  0  0  0  0  0  0
   40.9240   34.8650   39.0040 H   0  0  0  0  0  0  0  0  0  0  0  0
   36.1990   28.3080   41.8250 C   0  0  0  0  0  0  0  0  0  0  0  0
   35.8630   27.6910   40.9670 H   0  0  0  0  0  0  0  0  0  0  0  0
   35.3490   28.9200   42.1350 H   0  0  0  0  0  0  0  0  0  0  0  0
   36.7320   27.4380   42.9310 C   0  0  0  0  0  0  0  0  0  0  0  0
   37.4520   28.0760   43.5230 H   0  0  0  0  0  0  0  0  0  0  0  0
   35.8960   27.2640   43.6720 H   0  0  0  0  0  0  0  0  0  0  0  0
   37.3950   26.2390   42.5220 C   0  0  0  0  0  0  0  0  0  0  0  0
   36.9440   24.9290   42.1250 C   0  0  0  0  0  0  0  0  0  0  0  0
   35.8750   24.8420   42.1490 H   0  0  0  0  0  0  0  0  0  0  0  0
   37.8750   24.0080   41.7840 C   0  0  0  0  0  3  0  0  0  0  0  0
   39.2780   24.3110   41.8130 C   0  0  0  0  0  3  0  0  0  0  0  0
   39.2420   26.1080   42.3900 S   0  0  0  0  0  0  0  0  0  0  0  0
  1  2  1  0  0  0  0
  2 20  1  0  0  0  0
  2  3  2  0  0  0  0
  3  8  1  0  0  0  0
  4  3  1  0  0  0  0
  5  4  2  0  0  0  0
  6  1  2  0  0  0  0
  6  5  1  0  0  0  0
  7  1  1  0  0  0  0
 10 11  1  0  0  0  0
 10  9  1  0  0  0  0
 11  5  1  0  0  0  0
 12 17  1  0  0  0  0
 12 11  2  0  0  0  0
 13 12  1  0  0  0  0
 14 13  2  0  0  0  0
 14 16  1  0  0  0  0
 15 14  1  0  0  0  0
 16 10  2  0  0  0  0
 18 13  1  0  0  0  0
 19 16  1  0  0  0  0
 20 22  1  0  0  0  0
 20 23  1  0  0  0  0
 21 20  1  0  0  0  0
 23 24  1  0  0  0  0
 23 25  1  0  0  0  0
 26 23  1  0  0  0  0
 27 28  1  0  0  0  0
 27 26  2  0  0  0  0
 29 30  2  0  0  0  0
 29 27  1  0  0  0  0
 30 31  1  0  0  0  0
 31 26  1  0  0  0  0
M  END
>  <minimizedAffinity>
-4.82721663

$$$$

 OpenBabel03252504513D

 31 33  0  0  0  0  0  0  0  0999 V2000
   38.0350   30.9180   38.9100 C   0  0  0  0  0  0  0  0  0  0  0  0
   37.3580   31.7750   39.7920 C   0  0  0  0  0  0  0  0  0  0  0  0
   36.5670   31.1770   40.7660 C   0  0  0  0  0  0  0  0  0  0  0  0
   36.5020   29.8150   40.7990 N   0  0  0  0  0  0  0  0  0  0  0  0
   37.1570   29.0320   39.9470 C   0  0  0  0  0  0  0  0  0  0  0  0
   37.9350   29.5840   38.9870 N   0  0  0  0  0  0  0  0  0  0  0  0
   38.6650   31.3650   38.1330 H   0  0  0  0  0  0  0  0  0  0  0  0
   36.0380   31.8040   41.4540 H   0  0  0  0  0  0  0  0  0  0  0  0
   38.5930   27.7680   42.3240 Cl  0  0  0  0  0  0  0  0  0  0  0  0
   37.6680   26.9200   41.0830 C   0  0  0  0  0  0  0  0  0  0  0  0
   37.0460   27.5810   40.0350 C   0  0  0  0  0  0  0  0  0  0  0  0
   36.3320   26.8930   39.0840 C   0  0  0  0  0  0  0  0  0  0  0  0
   36.2370   25.5090   39.1850 C   0  0  0  0  0  0  0  0  0  0  0  0
   36.8690   24.8850   40.2430 C   0  0  0  0  0  0  0  0  0  0  0  0
   36.7130   23.1450   40.3140 Cl  0  0  0  0  0  0  0  0  0  0  0  0
   37.5870   25.5460   41.2030 C   0  0  0  0  0  0  0  0  0  0  0  0
   35.8670   27.4670   38.2840 H   0  0  0  0  0  0  0  0  0  0  0  0
   35.6680   24.9740   38.4250 H   0  0  0  0  0  0  0  0  0  0  0  0
   38.0700   25.0050   42.0230 H   0  0  0  0  0  0  0  0  0  0  0  0
   37.5280   33.2120   39.6280 C   0  0  0  0  0  0  0  0  0  0  0  0
   36.5440   33.6860   39.8140 H   0  0  0  0  0  0  0  0  0  0  0  0
   37.8070   33.4390   38.5970 H   0  0  0  0  0  0  0  0  0  0  0  0
   38.5460   33.6860   40.6300 C   0  0  0  0  0  0  0  0  0  0  0  0
   38.3540   34.7870   40.7870 H   0  0  0  0  0  0  0  0  0  0  0  0
   38.2770   33.2460   41.6350 H   0  0  0  0  0  0  0  0  0  0  0  0
   39.9170   33.4960   40.2690 C   0  0  0  0  0  0  0  0  0  0  0  0
   40.8170   34.1590   39.3600 C   0  0  0  0  0  0  0  0  0  0  0  0
   40.3450   34.9690   38.8400 H   0  0  0  0  0  0  0  0  0  0  0  0
   42.0880   33.7050   39.2730 C   0  0  0  0  0  3  0  0  0  0  0  0
   42.5450   32.5930   40.0590 C   0  0  0  0  0  3  0  0  0  0  0  0
   40.9760   32.1660   41.0170 S   0  0  0  0  0  0  0  0  0  0  0  0
  1  6  2  0  0  0  0
  1  2  1  0  0  0  0
  2  3  2  0  0  0  0
  3  4  1  0  0  0  0
  3  8  1  0  0  0  0
  5 11  1  0  0  0  0
  5  4  2  0  0  0  0
  6  5  1  0  0  0  0
  7  1  1  0  0  0  0
 10 16  1  0  0  0  0
 10  9  1  0  0  0  0
 11 10  2  0  0  0  0
 12 13  2  0  0  0  0
 12 11  1  0  0  0  0
 13 14  1  0  0  0  0
 14 15  1  0  0  0  0
 14 16  2  0  0  0  0
 16 19  1  0  0  0  0
 17 12  1  0  0  0  0
 18 13  1  0  0  0  0
 20  2  1  0  0  0  0
 20 21  1  0  0  0  0
 20 23  1  0  0  0  0
 22 20  1  0  0  0  0
 23 24  1  0  0  0  0
 23 25  1  0  0  0  0
 26 23  1  0  0  0  0
 26 31  1  0  0  0  0
 27 26  2  0  0  0  0
 28 27  1  0  0  0  0
 29 27  1  0  0  0  0
 29 30  2  0  0  0  0
 30 31  1  0  0  0  0
M  END
>  <minimizedAffinity>
-4.77024603

$$$$
