
 OpenBabel03252509263D

 27 29  0  0  1  0  0  0  0  0999 V2000
   46.6630   35.0960   41.9230 C   0  0  1  0  0  0  0  0  0  0  0  0
   48.1730   35.4740   41.9620 C   0  0  0  0  0  0  0  0  0  0  0  0
   47.5540   34.1820   41.3360 C   0  0  2  0  0  0  0  0  0  0  0  0
   46.0590   35.8200   41.3390 H   0  0  0  0  0  0  0  0  0  0  0  0
   48.7210   35.3840   42.8920 H   0  0  0  0  0  0  0  0  0  0  0  0
   48.5010   36.2110   41.2120 H   0  0  0  0  0  0  0  0  0  0  0  0
   47.8190   33.2680   41.9530 H   0  0  0  0  0  0  0  0  0  0  0  0
   44.7060   35.2860   45.1200 C   0  0  0  0  0  0  0  0  0  0  0  0
   45.1680   35.6380   43.8140 C   0  0  0  0  0  0  0  0  0  0  0  0
   46.1460   34.8470   43.3120 C   0  0  0  0  0  0  0  0  0  0  0  0
   46.6560   33.7760   44.0230 N   0  0  0  0  0  0  0  0  0  0  0  0
   46.1870   33.4790   45.2610 C   0  0  0  0  0  0  0  0  0  0  0  0
   45.2110   34.2370   45.8080 N   0  0  0  0  0  0  0  0  0  0  0  0
   43.9200   35.9260   45.5170 H   0  0  0  0  0  0  0  0  0  0  0  0
   46.5790   32.6450   45.8260 H   0  0  0  0  0  0  0  0  0  0  0  0
   44.6550   36.7460   43.1020 N   0  0  0  0  0  0  0  0  0  0  0  0
   44.7350   37.7830   43.2800 H   0  0  0  0  0  0  0  0  0  0  0  0
   44.1520   36.2860   42.3170 H   0  0  0  0  0  0  0  0  0  0  0  0
   47.6390   34.0100   39.8360 C   0  0  0  0  0  0  0  0  0  0  0  0
   46.6310   33.6190   39.5230 H   0  0  0  0  0  0  0  0  0  0  0  0
   47.8890   34.9660   39.3310 H   0  0  0  0  0  0  0  0  0  0  0  0
   48.6080   32.9430   39.5270 C   0  0  0  0  0  0  0  0  0  0  0  0
   49.1490   32.4120   38.3930 C   0  0  0  0  0  0  0  0  0  0  0  0
   48.8360   32.8270   37.4460 H   0  0  0  0  0  0  0  0  0  0  0  0
   50.0530   31.3870   38.5290 C   0  0  0  0  0  3  0  0  0  0  0  0
   50.3640   30.9510   39.7890 C   0  0  0  0  0  3  0  0  0  0  0  0
   49.3040   32.0700   40.8600 S   0  0  0  0  0  0  0  0  0  0  0  0
  1  4  1  6  0  0  0
  1  2  1  0  0  0  0
  1 10  1  0  0  0  0
  2  5  1  0  0  0  0
  3  1  1  0  0  0  0
  3  7  1  1  0  0  0
  3  2  1  0  0  0  0
  6  2  1  0  0  0  0
  8 14  1  0  0  0  0
  8 13  1  0  0  0  0
  9  8  2  0  0  0  0
 10  9  1  0  0  0  0
 10 11  2  0  0  0  0
 11 12  1  0  0  0  0
 12 13  2  0  0  0  0
 12 15  1  0  0  0  0
 16 17  1  0  0  0  0
 16  9  1  0  0  0  0
 18 16  1  0  0  0  0
 19  3  1  0  0  0  0
 20 19  1  0  0  0  0
 21 19  1  0  0  0  0
 22 19  1  0  0  0  0
 22 27  1  0  0  0  0
 23 25  1  0  0  0  0
 23 22  2  0  0  0  0
 24 23  1  0  0  0  0
 25 26  2  0  0  0  0
 26 27  1  0  0  0  0
M  END
>  <minimizedAffinity>
-4.60867929

>  <minimizedRMSD>
0.386802465

$$$$
