
 OpenBabel03252500403D

 18 19  0  0  0  0  0  0  0  0999 V2000
   37.8810   29.3330   42.6750 C   0  0  0  0  0  0  0  0  0  0  0  0
   39.1150   30.0020   42.6680 C   0  0  0  0  0  0  0  0  0  0  0  0
   39.3010   31.0480   41.7510 C   0  0  0  0  0  0  0  0  0  0  0  0
   38.2650   31.3510   40.9220 N   0  0  0  0  0  0  0  0  0  0  0  0
   37.0820   30.6860   40.9520 C   0  0  0  0  0  0  0  0  0  0  0  0
   36.8970   29.6710   41.8400 N   0  0  0  0  0  0  0  0  0  0  0  0
   39.8910   29.7080   43.3540 H   0  0  0  0  0  0  0  0  0  0  0  0
   40.2380   31.5470   41.7530 H   0  0  0  0  0  0  0  0  0  0  0  0
   36.2830   30.9620   40.2710 H   0  0  0  0  0  0  0  0  0  0  0  0
   37.7180   28.2290   43.6590 C   0  0  0  0  0  0  0  0  0  0  0  0
   36.6110   28.0550   43.7910 H   0  0  0  0  0  0  0  0  0  0  0  0
   38.1250   28.5500   44.6470 H   0  0  0  0  0  0  0  0  0  0  0  0
   38.3180   26.9970   43.2790 C   0  0  0  0  0  0  0  0  0  0  0  0
   39.5770   26.4360   43.6790 C   0  0  0  0  0  0  0  0  0  0  0  0
   40.1740   27.0110   44.3650 H   0  0  0  0  0  0  0  0  0  0  0  0
   39.9450   25.2230   43.1750 C   0  0  0  0  0  3  0  0  0  0  0  0
   38.9820   24.5910   42.2410 C   0  0  0  0  0  3  0  0  0  0  0  0
   37.5820   25.8600   42.1800 S   0  0  0  0  0  0  0  0  0  0  0  0
  1 10  1  0  0  0  0
  2  1  1  0  0  0  0
  2  7  1  0  0  0  0
  3  8  1  0  0  0  0
  3  2  2  0  0  0  0
  4  5  2  0  0  0  0
  4  3  1  0  0  0  0
  5  6  1  0  0  0  0
  6  1  2  0  0  0  0
  9  5  1  0  0  0  0
 10 11  1  0  0  0  0
 10 12  1  0  0  0  0
 13 10  1  0  0  0  0
 13 14  2  0  0  0  0
 14 15  1  0  0  0  0
 16 14  1  0  0  0  0
 17 16  2  0  0  0  0
 18 17  1  0  0  0  0
 18 13  1  0  0  0  0
M  END
>  <minimizedAffinity>
-3.82704425

$$$$

 OpenBabel03252500403D

 18 19  0  0  0  0  0  0  0  0999 V2000
   36.2340   30.3610   39.9920 C   0  0  0  0  0  0  0  0  0  0  0  0
   36.5320   30.3610   38.6210 C   0  0  0  0  0  0  0  0  0  0  0  0
   37.2970   31.4180   38.1040 C   0  0  0  0  0  0  0  0  0  0  0  0
   37.7060   32.3830   38.9730 N   0  0  0  0  0  0  0  0  0  0  0  0
   37.4010   32.3570   40.2950 C   0  0  0  0  0  0  0  0  0  0  0  0
   36.6590   31.3330   40.8000 N   0  0  0  0  0  0  0  0  0  0  0  0
   36.1750   29.5620   37.9920 H   0  0  0  0  0  0  0  0  0  0  0  0
   37.5170   31.4090   37.0660 H   0  0  0  0  0  0  0  0  0  0  0  0
   37.7490   33.1500   40.9510 H   0  0  0  0  0  0  0  0  0  0  0  0
   35.4210   29.2270   40.5060 C   0  0  0  0  0  0  0  0  0  0  0  0
   34.8220   28.8210   39.6400 H   0  0  0  0  0  0  0  0  0  0  0  0
   34.6960   29.6040   41.2660 H   0  0  0  0  0  0  0  0  0  0  0  0
   36.1730   28.1570   41.0630 C   0  0  0  0  0  0  0  0  0  0  0  0
   36.5630   27.9300   42.4260 C   0  0  0  0  0  0  0  0  0  0  0  0
   36.2540   28.6620   43.1520 H   0  0  0  0  0  0  0  0  0  0  0  0
   37.2950   26.8180   42.7240 C   0  0  0  0  0  3  0  0  0  0  0  0
   37.6200   25.9320   41.5800 C   0  0  0  0  0  3  0  0  0  0  0  0
   36.8060   26.8270   40.1270 S   0  0  0  0  0  0  0  0  0  0  0  0
  1 10  1  0  0  0  0
  1  6  1  0  0  0  0
  2  1  2  0  0  0  0
  3  2  1  0  0  0  0
  3  4  2  0  0  0  0
  4  5  1  0  0  0  0
  5  6  2  0  0  0  0
  5  9  1  0  0  0  0
  7  2  1  0  0  0  0
  8  3  1  0  0  0  0
 10 13  1  0  0  0  0
 10 12  1  0  0  0  0
 11 10  1  0  0  0  0
 13 14  2  0  0  0  0
 14 16  1  0  0  0  0
 14 15  1  0  0  0  0
 17 16  2  0  0  0  0
 18 13  1  0  0  0  0
 18 17  1  0  0  0  0
M  END
>  <minimizedAffinity>
-3.81066155

$$$$

 OpenBabel03252500403D

 18 19  0  0  0  0  0  0  0  0999 V2000
   36.9240   29.6050   41.6980 C   0  0  0  0  0  0  0  0  0  0  0  0
   36.3530   28.3280   41.8030 C   0  0  0  0  0  0  0  0  0  0  0  0
   37.0380   27.3490   42.5420 C   0  0  0  0  0  0  0  0  0  0  0  0
   38.2200   27.7060   43.1150 N   0  0  0  0  0  0  0  0  0  0  0  0
   38.7470   28.9510   42.9960 C   0  0  0  0  0  0  0  0  0  0  0  0
   38.0870   29.9020   42.2800 N   0  0  0  0  0  0  0  0  0  0  0  0
   35.4120   28.1170   41.3220 H   0  0  0  0  0  0  0  0  0  0  0  0
   36.5980   26.3870   42.6150 H   0  0  0  0  0  0  0  0  0  0  0  0
   39.6940   29.1900   43.4710 H   0  0  0  0  0  0  0  0  0  0  0  0
   36.1730   30.6170   40.9070 C   0  0  0  0  0  0  0  0  0  0  0  0
   36.2490   31.6000   41.4570 H   0  0  0  0  0  0  0  0  0  0  0  0
   35.0930   30.3350   40.8760 H   0  0  0  0  0  0  0  0  0  0  0  0
   36.6480   30.8120   39.5820 C   0  0  0  0  0  0  0  0  0  0  0  0
   36.5470   29.9470   38.4410 C   0  0  0  0  0  0  0  0  0  0  0  0
   36.0430   29.0080   38.5820 H   0  0  0  0  0  0  0  0  0  0  0  0
   37.0880   30.3560   37.2570 C   0  0  0  0  0  3  0  0  0  0  0  0
   37.7420   31.6860   37.2690 C   0  0  0  0  0  3  0  0  0  0  0  0
   37.5030   32.2410   39.0600 S   0  0  0  0  0  0  0  0  0  0  0  0
  1  2  2  0  0  0  0
  1  6  1  0  0  0  0
  2  3  1  0  0  0  0
  3  8  1  0  0  0  0
  3  4  2  0  0  0  0
  5  4  1  0  0  0  0
  5  9  1  0  0  0  0
  6  5  2  0  0  0  0
  7  2  1  0  0  0  0
 10 11  1  0  0  0  0
 10  1  1  0  0  0  0
 12 10  1  0  0  0  0
 13 10  1  0  0  0  0
 14 15  1  0  0  0  0
 14 13  2  0  0  0  0
 16 17  2  0  0  0  0
 16 14  1  0  0  0  0
 17 18  1  0  0  0  0
 18 13  1  0  0  0  0
M  END
>  <minimizedAffinity>
-3.79544473

$$$$

 OpenBabel03252500403D

 18 19  0  0  0  0  0  0  0  0999 V2000
   36.7130   28.5580   42.0140 C   0  0  0  0  0  0  0  0  0  0  0  0
   35.7170   28.5410   41.0270 C   0  0  0  0  0  0  0  0  0  0  0  0
   35.6260   29.6340   40.1510 C   0  0  0  0  0  0  0  0  0  0  0  0
   36.5190   30.6490   40.3160 N   0  0  0  0  0  0  0  0  0  0  0  0
   37.4730   30.6370   41.2810 C   0  0  0  0  0  0  0  0  0  0  0  0
   37.5640   29.5780   42.1320 N   0  0  0  0  0  0  0  0  0  0  0  0
   35.0440   27.7030   40.9540 H   0  0  0  0  0  0  0  0  0  0  0  0
   34.8690   29.6120   39.4080 H   0  0  0  0  0  0  0  0  0  0  0  0
   38.1640   31.4690   41.3750 H   0  0  0  0  0  0  0  0  0  0  0  0
   36.7800   27.3840   42.9250 C   0  0  0  0  0  0  0  0  0  0  0  0
   35.7200   27.1060   43.1970 H   0  0  0  0  0  0  0  0  0  0  0  0
   37.3010   27.6750   43.8680 H   0  0  0  0  0  0  0  0  0  0  0  0
   37.4110   26.2350   42.3740 C   0  0  0  0  0  0  0  0  0  0  0  0
   36.8790   24.9190   42.1580 C   0  0  0  0  0  0  0  0  0  0  0  0
   35.8570   24.7500   42.4480 H   0  0  0  0  0  0  0  0  0  0  0  0
   37.6860   23.9670   41.6070 C   0  0  0  0  0  3  0  0  0  0  0  0
   39.0650   24.3990   41.2780 C   0  0  0  0  0  3  0  0  0  0  0  0
   39.0640   26.2110   41.8170 S   0  0  0  0  0  0  0  0  0  0  0  0
  1  6  1  0  0  0  0
  1 10  1  0  0  0  0
  2  1  2  0  0  0  0
  3  4  2  0  0  0  0
  3  2  1  0  0  0  0
  4  5  1  0  0  0  0
  5  9  1  0  0  0  0
  5  6  2  0  0  0  0
  7  2  1  0  0  0  0
  8  3  1  0  0  0  0
 10 11  1  0  0  0  0
 10 12  1  0  0  0  0
 13 10  1  0  0  0  0
 14 13  2  0  0  0  0
 14 15  1  0  0  0  0
 16 14  1  0  0  0  0
 17 16  2  0  0  0  0
 17 18  1  0  0  0  0
 18 13  1  0  0  0  0
M  END
>  <minimizedAffinity>
-3.77616429

$$$$

 OpenBabel03252500403D

 18 19  0  0  0  0  0  0  0  0999 V2000
   38.1590   27.0220   43.2330 C   0  0  0  0  0  0  0  0  0  0  0  0
   39.4280   26.6230   43.6790 C   0  0  0  0  0  0  0  0  0  0  0  0
   39.8940   25.3490   43.3160 C   0  0  0  0  0  0  0  0  0  0  0  0
   39.0780   24.5770   42.5470 N   0  0  0  0  0  0  0  0  0  0  0  0
   37.8550   24.9900   42.1310 C   0  0  0  0  0  0  0  0  0  0  0  0
   37.4000   26.2240   42.4810 N   0  0  0  0  0  0  0  0  0  0  0  0
   40.0200   27.2880   44.2860 H   0  0  0  0  0  0  0  0  0  0  0  0
   40.8550   25.0570   43.6590 H   0  0  0  0  0  0  0  0  0  0  0  0
   37.2380   24.3390   41.5180 H   0  0  0  0  0  0  0  0  0  0  0  0
   37.6970   28.3770   43.6370 C   0  0  0  0  0  0  0  0  0  0  0  0
   38.1660   28.6090   44.6380 H   0  0  0  0  0  0  0  0  0  0  0  0
   36.5910   28.3640   43.7820 H   0  0  0  0  0  0  0  0  0  0  0  0
   38.0420   29.4190   42.7340 C   0  0  0  0  0  0  0  0  0  0  0  0
   39.2450   30.1990   42.6600 C   0  0  0  0  0  0  0  0  0  0  0  0
   40.0130   29.9850   43.3810 H   0  0  0  0  0  0  0  0  0  0  0  0
   39.3470   31.1580   41.6940 C   0  0  0  0  0  3  0  0  0  0  0  0
   38.1760   31.2990   40.7960 C   0  0  0  0  0  3  0  0  0  0  0  0
   36.9930   29.9830   41.4590 S   0  0  0  0  0  0  0  0  0  0  0  0
  1 10  1  0  0  0  0
  1  2  1  0  0  0  0
  2  7  1  0  0  0  0
  3  8  1  0  0  0  0
  3  2  2  0  0  0  0
  4  3  1  0  0  0  0
  5  6  1  0  0  0  0
  5  4  2  0  0  0  0
  6  1  2  0  0  0  0
  9  5  1  0  0  0  0
 10 12  1  0  0  0  0
 10 11  1  0  0  0  0
 13 10  1  0  0  0  0
 14 13  2  0  0  0  0
 14 15  1  0  0  0  0
 16 14  1  0  0  0  0
 17 18  1  0  0  0  0
 17 16  2  0  0  0  0
 18 13  1  0  0  0  0
M  END
>  <minimizedAffinity>
-3.76630616

$$$$

 OpenBabel03252500403D

 18 19  0  0  0  0  0  0  0  0999 V2000
   36.6430   28.7220   41.9250 C   0  0  0  0  0  0  0  0  0  0  0  0
   35.7090   28.6350   40.8820 C   0  0  0  0  0  0  0  0  0  0  0  0
   35.6600   29.6770   39.9420 C   0  0  0  0  0  0  0  0  0  0  0  0
   36.5300   30.7120   40.1030 N   0  0  0  0  0  0  0  0  0  0  0  0
   37.4230   30.7670   41.1230 C   0  0  0  0  0  0  0  0  0  0  0  0
   37.4740   29.7590   42.0370 N   0  0  0  0  0  0  0  0  0  0  0  0
   35.0500   27.7850   40.8170 H   0  0  0  0  0  0  0  0  0  0  0  0
   34.9500   29.6030   39.1570 H   0  0  0  0  0  0  0  0  0  0  0  0
   38.0980   31.6130   41.2120 H   0  0  0  0  0  0  0  0  0  0  0  0
   36.6670   27.6010   42.9040 C   0  0  0  0  0  0  0  0  0  0  0  0
   35.7930   26.9270   42.6660 H   0  0  0  0  0  0  0  0  0  0  0  0
   36.5080   28.0040   43.9320 H   0  0  0  0  0  0  0  0  0  0  0  0
   37.8510   26.8150   42.8830 C   0  0  0  0  0  0  0  0  0  0  0  0
   39.0450   26.9460   43.6690 C   0  0  0  0  0  0  0  0  0  0  0  0
   39.0750   27.7480   44.3850 H   0  0  0  0  0  0  0  0  0  0  0  0
   40.0650   26.0620   43.4680 C   0  0  0  0  0  3  0  0  0  0  0  0
   39.8280   25.0270   42.4320 C   0  0  0  0  0  3  0  0  0  0  0  0
   38.0890   25.4490   41.8240 S   0  0  0  0  0  0  0  0  0  0  0  0
  1  6  1  0  0  0  0
  1 10  1  0  0  0  0
  2  1  2  0  0  0  0
  3  4  2  0  0  0  0
  3  2  1  0  0  0  0
  4  5  1  0  0  0  0
  5  9  1  0  0  0  0
  5  6  2  0  0  0  0
  7  2  1  0  0  0  0
  8  3  1  0  0  0  0
 10 12  1  0  0  0  0
 11 10  1  0  0  0  0
 13 10  1  0  0  0  0
 13 14  2  0  0  0  0
 14 15  1  0  0  0  0
 16 14  1  0  0  0  0
 17 16  2  0  0  0  0
 18 17  1  0  0  0  0
 18 13  1  0  0  0  0
M  END
>  <minimizedAffinity>
-3.75627828

$$$$

 OpenBabel03252500403D

 18 19  0  0  0  0  0  0  0  0999 V2000
   36.6570   30.6850   39.5530 C   0  0  0  0  0  0  0  0  0  0  0  0
   36.1160   29.7410   38.6670 C   0  0  0  0  0  0  0  0  0  0  0  0
   36.4770   29.8140   37.3120 C   0  0  0  0  0  0  0  0  0  0  0  0
   37.3360   30.8030   36.9420 N   0  0  0  0  0  0  0  0  0  0  0  0
   37.8430   31.7020   37.8220 C   0  0  0  0  0  0  0  0  0  0  0  0
   37.4960   31.6350   39.1370 N   0  0  0  0  0  0  0  0  0  0  0  0
   35.4410   28.9840   39.0310 H   0  0  0  0  0  0  0  0  0  0  0  0
   36.0620   29.0960   36.6500 H   0  0  0  0  0  0  0  0  0  0  0  0
   38.5260   32.4750   37.4810 H   0  0  0  0  0  0  0  0  0  0  0  0
   36.2540   30.5780   40.9810 C   0  0  0  0  0  0  0  0  0  0  0  0
   35.1400   30.3930   41.0040 H   0  0  0  0  0  0  0  0  0  0  0  0
   36.4410   31.5520   41.4930 H   0  0  0  0  0  0  0  0  0  0  0  0
   36.8910   29.5340   41.7060 C   0  0  0  0  0  0  0  0  0  0  0  0
   36.4280   28.2040   41.9830 C   0  0  0  0  0  0  0  0  0  0  0  0
   35.4610   27.9320   41.6000 H   0  0  0  0  0  0  0  0  0  0  0  0
   37.2270   27.3690   42.7100 C   0  0  0  0  0  3  0  0  0  0  0  0
   38.5250   27.9350   43.1490 C   0  0  0  0  0  3  0  0  0  0  0  0
   38.4650   29.6880   42.4420 S   0  0  0  0  0  0  0  0  0  0  0  0
  1 10  1  0  0  0  0
  2  7  1  0  0  0  0
  2  1  2  0  0  0  0
  3  2  1  0  0  0  0
  4  3  2  0  0  0  0
  4  5  1  0  0  0  0
  5  6  2  0  0  0  0
  6  1  1  0  0  0  0
  8  3  1  0  0  0  0
  9  5  1  0  0  0  0
 10 11  1  0  0  0  0
 10 12  1  0  0  0  0
 10 13  1  0  0  0  0
 13 14  2  0  0  0  0
 13 18  1  0  0  0  0
 14 16  1  0  0  0  0
 15 14  1  0  0  0  0
 16 17  2  0  0  0  0
 18 17  1  0  0  0  0
M  END
>  <minimizedAffinity>
-3.64695477

$$$$

 OpenBabel03252500403D

 18 19  0  0  0  0  0  0  0  0999 V2000
   37.4950   31.0850   40.9550 C   0  0  0  0  0  0  0  0  0  0  0  0
   36.9480   31.9540   39.9980 C   0  0  0  0  0  0  0  0  0  0  0  0
   37.7320   33.0270   39.5450 C   0  0  0  0  0  0  0  0  0  0  0  0
   38.9830   33.1570   40.0660 N   0  0  0  0  0  0  0  0  0  0  0  0
   39.4860   32.3000   40.9910 C   0  0  0  0  0  0  0  0  0  0  0  0
   38.7290   31.2580   41.4330 N   0  0  0  0  0  0  0  0  0  0  0  0
   35.9490   31.7900   39.6300 H   0  0  0  0  0  0  0  0  0  0  0  0
   37.3090   33.6790   38.8220 H   0  0  0  0  0  0  0  0  0  0  0  0
   40.4900   32.4430   41.3780 H   0  0  0  0  0  0  0  0  0  0  0  0
   36.6370   29.9600   41.4130 C   0  0  0  0  0  0  0  0  0  0  0  0
   36.0700   29.5800   40.5140 H   0  0  0  0  0  0  0  0  0  0  0  0
   35.8860   30.3410   42.1450 H   0  0  0  0  0  0  0  0  0  0  0  0
   37.3420   28.8670   41.9870 C   0  0  0  0  0  0  0  0  0  0  0  0
   37.5320   28.5300   43.3690 C   0  0  0  0  0  0  0  0  0  0  0  0
   37.0880   29.1840   44.0980 H   0  0  0  0  0  0  0  0  0  0  0  0
   38.2570   27.4160   43.6800 C   0  0  0  0  0  3  0  0  0  0  0  0
   38.7870   26.6470   42.5280 C   0  0  0  0  0  3  0  0  0  0  0  0
   38.1630   27.6450   41.0490 S   0  0  0  0  0  0  0  0  0  0  0  0
  1 10  1  0  0  0  0
  1  6  1  0  0  0  0
  2  1  2  0  0  0  0
  3  2  1  0  0  0  0
  3  4  2  0  0  0  0
  4  5  1  0  0  0  0
  5  9  1  0  0  0  0
  5  6  2  0  0  0  0
  7  2  1  0  0  0  0
  8  3  1  0  0  0  0
 10 13  1  0  0  0  0
 10 12  1  0  0  0  0
 11 10  1  0  0  0  0
 13 14  2  0  0  0  0
 14 16  1  0  0  0  0
 14 15  1  0  0  0  0
 17 16  2  0  0  0  0
 18 13  1  0  0  0  0
 18 17  1  0  0  0  0
M  END
>  <minimizedAffinity>
-3.61006236

$$$$

 OpenBabel03252500403D

 18 19  0  0  0  0  0  0  0  0999 V2000
   37.5350   25.8800   42.2550 C   0  0  0  0  0  0  0  0  0  0  0  0
   38.8920   26.0280   41.9330 C   0  0  0  0  0  0  0  0  0  0  0  0
   39.5420   24.9700   41.2760 C   0  0  0  0  0  0  0  0  0  0  0  0
   38.8070   23.8610   40.9900 N   0  0  0  0  0  0  0  0  0  0  0  0
   37.4940   23.7470   41.3140 C   0  0  0  0  0  0  0  0  0  0  0  0
   36.8610   24.7700   41.9510 N   0  0  0  0  0  0  0  0  0  0  0  0
   39.4120   26.9360   42.1900 H   0  0  0  0  0  0  0  0  0  0  0  0
   40.5680   25.0920   41.0370 H   0  0  0  0  0  0  0  0  0  0  0  0
   36.9470   22.8420   41.0660 H   0  0  0  0  0  0  0  0  0  0  0  0
   36.8790   27.0190   42.9510 C   0  0  0  0  0  0  0  0  0  0  0  0
   37.5070   27.2700   43.8540 H   0  0  0  0  0  0  0  0  0  0  0  0
   35.8760   26.7000   43.3200 H   0  0  0  0  0  0  0  0  0  0  0  0
   36.7390   28.1980   42.1670 C   0  0  0  0  0  0  0  0  0  0  0  0
   35.7940   28.4940   41.1290 C   0  0  0  0  0  0  0  0  0  0  0  0
   35.0750   27.7310   40.8880 H   0  0  0  0  0  0  0  0  0  0  0  0
   35.8570   29.7090   40.5110 C   0  0  0  0  0  3  0  0  0  0  0  0
   36.9220   30.6230   40.9880 C   0  0  0  0  0  3  0  0  0  0  0  0
   37.7640   29.5990   42.3360 S   0  0  0  0  0  0  0  0  0  0  0  0
  1 10  1  0  0  0  0
  2  7  1  0  0  0  0
  2  1  2  0  0  0  0
  3  2  1  0  0  0  0
  4  3  2  0  0  0  0
  4  5  1  0  0  0  0
  5  6  2  0  0  0  0
  6  1  1  0  0  0  0
  8  3  1  0  0  0  0
  9  5  1  0  0  0  0
 10 12  1  0  0  0  0
 10 11  1  0  0  0  0
 13 18  1  0  0  0  0
 13 10  1  0  0  0  0
 14 13  2  0  0  0  0
 15 14  1  0  0  0  0
 16 17  2  0  0  0  0
 16 14  1  0  0  0  0
 17 18  1  0  0  0  0
M  END
>  <minimizedAffinity>
-3.60859323

$$$$
