
 OpenBabel03242513053D

 32 35  0  0  0  0  0  0  0  0999 V2000
   36.8730   27.6760   39.5890 C   0  0  0  0  0  0  0  0  0  0  0  0
   36.9010   27.0540   40.8300 C   0  0  0  0  0  0  0  0  0  0  0  0
   37.2780   27.8580   41.9150 C   0  0  0  0  0  0  0  0  0  0  0  0
   37.5810   29.1600   41.6660 N   0  0  0  0  0  0  0  0  0  0  0  0
   37.5430   29.7250   40.4560 C   0  0  0  0  0  0  0  0  0  0  0  0
   37.1840   28.9760   39.4020 N   0  0  0  0  0  0  0  0  0  0  0  0
   36.6060   27.2080   38.6580 H   0  0  0  0  0  0  0  0  0  0  0  0
   36.9890   32.0150   39.7810 C   0  0  0  0  0  0  0  0  0  0  0  0
   37.8870   31.1190   40.3040 C   0  0  0  0  0  0  0  0  0  0  0  0
   39.1760   31.4960   40.7160 C   0  0  0  0  0  0  0  0  0  0  0  0
   39.5730   32.8290   40.5940 C   0  0  0  0  0  0  0  0  0  0  0  0
   40.7010   33.5390   40.8770 N   0  0  0  0  0  0  0  0  0  0  0  0
   40.4480   34.8550   40.5140 C   0  0  0  0  0  0  0  0  0  0  0  0
   39.1910   34.9110   40.0270 N   0  0  0  0  0  0  0  0  0  0  0  0
   38.6460   33.6880   40.0680 C   0  0  0  0  0  0  0  0  0  0  0  0
   37.3680   33.3490   39.6540 C   0  0  0  0  0  0  0  0  0  0  0  0
   36.0150   31.6780   39.4820 H   0  0  0  0  0  0  0  0  0  0  0  0
   39.8720   30.7960   41.1210 H   0  0  0  0  0  0  0  0  0  0  0  0
   41.5440   33.0780   41.2900 H   0  0  0  0  0  0  0  0  0  0  0  0
   41.2530   35.5610   40.6750 H   0  0  0  0  0  0  0  0  0  0  0  0
   36.6780   34.0740   39.2450 H   0  0  0  0  0  0  0  0  0  0  0  0
   37.3370   27.2680   43.2740 C   0  0  0  0  0  0  0  0  0  0  0  0
   37.5660   28.2760   44.2280 F   0  0  0  0  0  0  0  0  0  0  0  0
   36.1200   26.7180   43.6080 F   0  0  0  0  0  0  0  0  0  0  0  0
   38.3450   26.3510   43.3030 F   0  0  0  0  0  0  0  0  0  0  0  0
   36.5820   25.7510   40.9710 O   0  0  0  0  0  0  0  0  0  0  0  0
   37.1380   24.7220   40.3630 C   0  0  0  0  0  0  0  0  0  0  0  0
   37.8420   23.8630   41.1240 C   0  0  0  0  0  0  0  0  0  0  0  0
   38.0660   23.8300   42.2050 H   0  0  0  0  0  0  0  0  0  0  0  0
   38.4370   22.7800   40.5420 C   0  0  0  0  0  3  0  0  0  0  0  0
   38.3000   22.5950   39.1820 C   0  0  0  0  0  3  0  0  0  0  0  0
   37.2860   23.9980   38.6460 S   0  0  0  0  0  0  0  0  0  0  0  0
  1  2  1  0  0  0  0
  2 26  1  0  0  0  0
  2  3  2  0  0  0  0
  3 22  1  0  0  0  0
  4  3  1  0  0  0  0
  5  4  2  0  0  0  0
  6  1  2  0  0  0  0
  6  5  1  0  0  0  0
  7  1  1  0  0  0  0
  8  9  1  0  0  0  0
  9  5  1  0  0  0  0
  9 10  2  0  0  0  0
 10 18  1  0  0  0  0
 11 10  1  0  0  0  0
 11 12  1  0  0  0  0
 12 19  1  0  0  0  0
 13 20  1  0  0  0  0
 13 12  1  0  0  0  0
 14 15  1  0  0  0  0
 14 13  2  0  0  0  0
 15 11  2  0  0  0  0
 16  8  2  0  0  0  0
 16 15  1  0  0  0  0
 17  8  1  0  0  0  0
 21 16  1  0  0  0  0
 22 25  1  0  0  0  0
 22 24  1  0  0  0  0
 22 23  1  0  0  0  0
 27 26  1  0  0  0  0
 27 28  2  0  0  0  0
 28 29  1  0  0  0  0
 30 28  1  0  0  0  0
 31 30  2  0  0  0  0
 32 31  1  0  0  0  0
 32 27  1  0  0  0  0
M  END
>  <minimizedAffinity>
-6.23290968

$$$$

 OpenBabel03242513053D

 32 35  0  0  0  0  0  0  0  0999 V2000
   36.3770   28.4600   40.1520 C   0  0  0  0  0  0  0  0  0  0  0  0
   36.9580   28.9090   41.3310 C   0  0  0  0  0  0  0  0  0  0  0  0
   37.5470   27.9280   42.1420 C   0  0  0  0  0  0  0  0  0  0  0  0
   37.5020   26.6380   41.7140 N   0  0  0  0  0  0  0  0  0  0  0  0
   36.9340   26.2430   40.5720 C   0  0  0  0  0  0  0  0  0  0  0  0
   36.3640   27.1620   39.7790 N   0  0  0  0  0  0  0  0  0  0  0  0
   35.8860   29.0740   39.4200 H   0  0  0  0  0  0  0  0  0  0  0  0
   37.7620   23.9540   40.8570 C   0  0  0  0  0  0  0  0  0  0  0  0
   36.9410   24.8430   40.2140 C   0  0  0  0  0  0  0  0  0  0  0  0
   36.0700   24.4560   39.1810 C   0  0  0  0  0  0  0  0  0  0  0  0
   36.0280   23.1180   38.7850 C   0  0  0  0  0  0  0  0  0  0  0  0
   35.3380   22.3970   37.8570 N   0  0  0  0  0  0  0  0  0  0  0  0
   35.7660   21.0820   37.9710 C   0  0  0  0  0  0  0  0  0  0  0  0
   36.6940   21.0360   38.9500 N   0  0  0  0  0  0  0  0  0  0  0  0
   36.8650   22.2650   39.4540 C   0  0  0  0  0  0  0  0  0  0  0  0
   37.7340   22.6150   40.4750 C   0  0  0  0  0  0  0  0  0  0  0  0
   38.4100   24.2990   41.6410 H   0  0  0  0  0  0  0  0  0  0  0  0
   35.4330   25.1510   38.6820 H   0  0  0  0  0  0  0  0  0  0  0  0
   34.6370   22.8520   37.2290 H   0  0  0  0  0  0  0  0  0  0  0  0
   35.3100   20.3680   37.2960 H   0  0  0  0  0  0  0  0  0  0  0  0
   38.3720   21.8950   40.9680 H   0  0  0  0  0  0  0  0  0  0  0  0
   38.1850   28.3260   43.4200 C   0  0  0  0  0  0  0  0  0  0  0  0
   38.7920   27.2100   44.0240 F   0  0  0  0  0  0  0  0  0  0  0  0
   39.2080   29.2170   43.1850 F   0  0  0  0  0  0  0  0  0  0  0  0
   37.2250   28.8430   44.2380 F   0  0  0  0  0  0  0  0  0  0  0  0
   36.9480   30.2150   41.6660 O   0  0  0  0  0  0  0  0  0  0  0  0
   37.5980   31.1970   41.0740 C   0  0  0  0  0  0  0  0  0  0  0  0
   36.8840   32.0230   40.2870 C   0  0  0  0  0  0  0  0  0  0  0  0
   35.8140   32.0610   40.0150 H   0  0  0  0  0  0  0  0  0  0  0  0
   37.5120   33.0570   39.6520 C   0  0  0  0  0  3  0  0  0  0  0  0
   38.8680   33.2270   39.8340 C   0  0  0  0  0  3  0  0  0  0  0  0
   39.3340   31.8810   40.9540 S   0  0  0  0  0  0  0  0  0  0  0  0
  1  2  1  0  0  0  0
  2 26  1  0  0  0  0
  2  3  2  0  0  0  0
  3 22  1  0  0  0  0
  4  3  1  0  0  0  0
  5  4  2  0  0  0  0
  6  1  2  0  0  0  0
  6  5  1  0  0  0  0
  7  1  1  0  0  0  0
  8 17  1  0  0  0  0
  9  5  1  0  0  0  0
  9  8  2  0  0  0  0
 10  9  1  0  0  0  0
 11 10  2  0  0  0  0
 11 15  1  0  0  0  0
 12 13  1  0  0  0  0
 12 11  1  0  0  0  0
 13 14  2  0  0  0  0
 14 15  1  0  0  0  0
 15 16  2  0  0  0  0
 16  8  1  0  0  0  0
 16 21  1  0  0  0  0
 18 10  1  0  0  0  0
 19 12  1  0  0  0  0
 20 13  1  0  0  0  0
 22 23  1  0  0  0  0
 22 25  1  0  0  0  0
 24 22  1  0  0  0  0
 27 26  1  0  0  0  0
 28 27  2  0  0  0  0
 29 28  1  0  0  0  0
 30 31  2  0  0  0  0
 30 28  1  0  0  0  0
 31 32  1  0  0  0  0
 32 27  1  0  0  0  0
M  END
>  <minimizedAffinity>
-5.8143487

$$$$

 OpenBabel03242513053D

 32 35  0  0  0  0  0  0  0  0999 V2000
   37.5500   28.6390   39.2150 C   0  0  0  0  0  0  0  0  0  0  0  0
   37.3590   28.1360   40.4950 C   0  0  0  0  0  0  0  0  0  0  0  0
   37.9670   28.8520   41.5370 C   0  0  0  0  0  0  0  0  0  0  0  0
   38.6830   29.9620   41.2120 N   0  0  0  0  0  0  0  0  0  0  0  0
   38.8440   30.4160   39.9670 C   0  0  0  0  0  0  0  0  0  0  0  0
   38.2720   29.7490   38.9530 N   0  0  0  0  0  0  0  0  0  0  0  0
   37.1560   28.2160   38.3090 H   0  0  0  0  0  0  0  0  0  0  0  0
   39.6910   32.6060   40.6710 C   0  0  0  0  0  0  0  0  0  0  0  0
   39.6270   31.6080   39.7330 C   0  0  0  0  0  0  0  0  0  0  0  0
   40.3090   31.6800   38.5070 C   0  0  0  0  0  0  0  0  0  0  0  0
   41.0830   32.8050   38.2170 C   0  0  0  0  0  0  0  0  0  0  0  0
   41.8560   33.2140   37.1720 N   0  0  0  0  0  0  0  0  0  0  0  0
   42.3670   34.4590   37.5140 C   0  0  0  0  0  0  0  0  0  0  0  0
   41.8990   34.7710   38.7400 N   0  0  0  0  0  0  0  0  0  0  0  0
   41.1180   33.7770   39.1820 C   0  0  0  0  0  0  0  0  0  0  0  0
   40.4590   33.7350   40.4000 C   0  0  0  0  0  0  0  0  0  0  0  0
   39.1520   32.5030   41.5950 H   0  0  0  0  0  0  0  0  0  0  0  0
   40.2570   30.9020   37.7790 H   0  0  0  0  0  0  0  0  0  0  0  0
   41.9730   32.6210   36.3190 H   0  0  0  0  0  0  0  0  0  0  0  0
   43.0110   34.9300   36.7820 H   0  0  0  0  0  0  0  0  0  0  0  0
   40.5240   34.5360   41.1240 H   0  0  0  0  0  0  0  0  0  0  0  0
   37.8150   28.3770   42.9330 C   0  0  0  0  0  0  0  0  0  0  0  0
   36.4850   27.9830   43.1650 F   0  0  0  0  0  0  0  0  0  0  0  0
   38.5730   27.2460   43.1370 F   0  0  0  0  0  0  0  0  0  0  0  0
   38.1620   29.3920   43.7740 F   0  0  0  0  0  0  0  0  0  0  0  0
   36.6300   27.0220   40.7110 O   0  0  0  0  0  0  0  0  0  0  0  0
   36.9620   25.7800   40.4180 C   0  0  0  0  0  0  0  0  0  0  0  0
   37.0520   24.9090   41.4390 C   0  0  0  0  0  0  0  0  0  0  0  0
   36.9000   25.0120   42.5290 H   0  0  0  0  0  0  0  0  0  0  0  0
   37.3910   23.6090   41.1880 C   0  0  0  0  0  3  0  0  0  0  0  0
   37.6340   23.2250   39.8860 C   0  0  0  0  0  3  0  0  0  0  0  0
   37.3850   24.7390   38.9240 S   0  0  0  0  0  0  0  0  0  0  0  0
  1  2  1  0  0  0  0
  2 26  1  0  0  0  0
  2  3  2  0  0  0  0
  3 22  1  0  0  0  0
  4  3  1  0  0  0  0
  5  4  2  0  0  0  0
  6  1  2  0  0  0  0
  6  5  1  0  0  0  0
  7  1  1  0  0  0  0
  8 17  1  0  0  0  0
  9  5  1  0  0  0  0
  9  8  2  0  0  0  0
 10  9  1  0  0  0  0
 11 10  2  0  0  0  0
 11 15  1  0  0  0  0
 12 13  1  0  0  0  0
 12 11  1  0  0  0  0
 13 14  2  0  0  0  0
 14 15  1  0  0  0  0
 15 16  2  0  0  0  0
 16  8  1  0  0  0  0
 16 21  1  0  0  0  0
 18 10  1  0  0  0  0
 19 12  1  0  0  0  0
 20 13  1  0  0  0  0
 22 24  1  0  0  0  0
 22 23  1  0  0  0  0
 22 25  1  0  0  0  0
 27 26  1  0  0  0  0
 27 28  2  0  0  0  0
 28 29  1  0  0  0  0
 30 28  1  0  0  0  0
 31 30  2  0  0  0  0
 32 31  1  0  0  0  0
 32 27  1  0  0  0  0
M  END
>  <minimizedAffinity>
-5.80506897

$$$$

 OpenBabel03242513053D

 32 35  0  0  0  0  0  0  0  0999 V2000
   38.6380   27.0500   39.2140 C   0  0  0  0  0  0  0  0  0  0  0  0
   38.3830   26.3890   40.4090 C   0  0  0  0  0  0  0  0  0  0  0  0
   38.0380   27.1990   41.5010 C   0  0  0  0  0  0  0  0  0  0  0  0
   37.9840   28.5430   41.3030 N   0  0  0  0  0  0  0  0  0  0  0  0
   38.2360   29.1440   40.1380 C   0  0  0  0  0  0  0  0  0  0  0  0
   38.5670   28.3910   39.0780 N   0  0  0  0  0  0  0  0  0  0  0  0
   38.9120   26.5840   38.2860 H   0  0  0  0  0  0  0  0  0  0  0  0
   37.1500   31.1830   39.3180 C   0  0  0  0  0  0  0  0  0  0  0  0
   38.1500   30.5830   40.0390 C   0  0  0  0  0  0  0  0  0  0  0  0
   39.1390   31.3170   40.7150 C   0  0  0  0  0  0  0  0  0  0  0  0
   39.1150   32.7120   40.6590 C   0  0  0  0  0  0  0  0  0  0  0  0
   39.8770   33.7220   41.1680 N   0  0  0  0  0  0  0  0  0  0  0  0
   39.3070   34.9110   40.7350 C   0  0  0  0  0  0  0  0  0  0  0  0
   38.2300   34.6010   39.9850 N   0  0  0  0  0  0  0  0  0  0  0  0
   38.0990   33.2690   39.9280 C   0  0  0  0  0  0  0  0  0  0  0  0
   37.1100   32.5730   39.2520 C   0  0  0  0  0  0  0  0  0  0  0  0
   36.4170   30.5770   38.8190 H   0  0  0  0  0  0  0  0  0  0  0  0
   39.9160   30.8470   41.2750 H   0  0  0  0  0  0  0  0  0  0  0  0
   40.7130   33.5230   41.7630 H   0  0  0  0  0  0  0  0  0  0  0  0
   39.7980   35.8220   41.0550 H   0  0  0  0  0  0  0  0  0  0  0  0
   36.3310   33.0690   38.6890 H   0  0  0  0  0  0  0  0  0  0  0  0
   37.7550   26.5700   42.8140 C   0  0  0  0  0  0  0  0  0  0  0  0
   37.5270   27.5630   43.7840 F   0  0  0  0  0  0  0  0  0  0  0  0
   36.5860   25.8440   42.7520 F   0  0  0  0  0  0  0  0  0  0  0  0
   38.8240   25.8010   43.1640 F   0  0  0  0  0  0  0  0  0  0  0  0
   38.4660   25.0460   40.5010 O   0  0  0  0  0  0  0  0  0  0  0  0
   37.8040   24.1540   39.7910 C   0  0  0  0  0  0  0  0  0  0  0  0
   36.5250   23.9190   40.1340 C   0  0  0  0  0  0  0  0  0  0  0  0
   35.8710   24.3320   40.9230 H   0  0  0  0  0  0  0  0  0  0  0  0
   35.7960   23.0040   39.4280 C   0  0  0  0  0  3  0  0  0  0  0  0
   36.3950   22.3420   38.3770 C   0  0  0  0  0  3  0  0  0  0  0  0
   38.0790   23.0090   38.3390 S   0  0  0  0  0  0  0  0  0  0  0  0
  1  2  1  0  0  0  0
  2 26  1  0  0  0  0
  2  3  2  0  0  0  0
  3 22  1  0  0  0  0
  4  3  1  0  0  0  0
  5  4  2  0  0  0  0
  6  1  2  0  0  0  0
  6  5  1  0  0  0  0
  7  1  1  0  0  0  0
  8  9  1  0  0  0  0
  9  5  1  0  0  0  0
  9 10  2  0  0  0  0
 10 18  1  0  0  0  0
 11 10  1  0  0  0  0
 11 12  1  0  0  0  0
 12 19  1  0  0  0  0
 13 20  1  0  0  0  0
 13 12  1  0  0  0  0
 14 13  2  0  0  0  0
 15 14  1  0  0  0  0
 15 11  2  0  0  0  0
 16  8  2  0  0  0  0
 16 15  1  0  0  0  0
 17  8  1  0  0  0  0
 21 16  1  0  0  0  0
 22 25  1  0  0  0  0
 22 23  1  0  0  0  0
 24 22  1  0  0  0  0
 27 28  2  0  0  0  0
 27 26  1  0  0  0  0
 28 29  1  0  0  0  0
 30 28  1  0  0  0  0
 31 30  2  0  0  0  0
 32 31  1  0  0  0  0
 32 27  1  0  0  0  0
M  END
>  <minimizedAffinity>
-5.74973106

$$$$

 OpenBabel03242513053D

 32 35  0  0  0  0  0  0  0  0999 V2000
   38.5270   27.8920   41.2460 C   0  0  0  0  0  0  0  0  0  0  0  0
   38.2230   26.6260   41.7310 C   0  0  0  0  0  0  0  0  0  0  0  0
   37.3110   25.8780   40.9730 C   0  0  0  0  0  0  0  0  0  0  0  0
   36.8060   26.4440   39.8440 N   0  0  0  0  0  0  0  0  0  0  0  0
   37.1230   27.6660   39.4090 C   0  0  0  0  0  0  0  0  0  0  0  0
   37.9930   28.4020   40.1160 N   0  0  0  0  0  0  0  0  0  0  0  0
   39.2030   28.5930   41.7010 H   0  0  0  0  0  0  0  0  0  0  0  0
   35.2220   28.5980   38.1720 C   0  0  0  0  0  0  0  0  0  0  0  0
   36.5250   28.1720   38.1940 C   0  0  0  0  0  0  0  0  0  0  0  0
   37.3470   28.2000   37.0560 C   0  0  0  0  0  0  0  0  0  0  0  0
   36.8320   28.6760   35.8490 C   0  0  0  0  0  0  0  0  0  0  0  0
   37.3100   28.8470   34.5840 N   0  0  0  0  0  0  0  0  0  0  0  0
   36.2720   29.3770   33.8300 C   0  0  0  0  0  0  0  0  0  0  0  0
   35.2030   29.5120   34.6430 N   0  0  0  0  0  0  0  0  0  0  0  0
   35.5270   29.0910   35.8730 C   0  0  0  0  0  0  0  0  0  0  0  0
   34.6910   29.0760   36.9780 C   0  0  0  0  0  0  0  0  0  0  0  0
   34.6340   28.5570   39.0700 H   0  0  0  0  0  0  0  0  0  0  0  0
   38.3610   27.8670   37.0760 H   0  0  0  0  0  0  0  0  0  0  0  0
   38.2940   28.5940   34.3370 H   0  0  0  0  0  0  0  0  0  0  0  0
   36.4880   29.5750   32.7880 H   0  0  0  0  0  0  0  0  0  0  0  0
   33.6660   29.4180   36.9360 H   0  0  0  0  0  0  0  0  0  0  0  0
   36.9310   24.5180   41.4250 C   0  0  0  0  0  0  0  0  0  0  0  0
   36.3840   24.5760   42.7200 F   0  0  0  0  0  0  0  0  0  0  0  0
   35.9280   24.0130   40.6280 F   0  0  0  0  0  0  0  0  0  0  0  0
   38.0450   23.7320   41.4160 F   0  0  0  0  0  0  0  0  0  0  0  0
   38.7790   26.1560   42.8660 O   0  0  0  0  0  0  0  0  0  0  0  0
   40.0610   26.1090   43.1680 C   0  0  0  0  0  0  0  0  0  0  0  0
   40.7890   25.1210   42.6150 C   0  0  0  0  0  0  0  0  0  0  0  0
   40.5330   24.2960   41.9250 H   0  0  0  0  0  0  0  0  0  0  0  0
   42.1230   25.0300   42.8950 C   0  0  0  0  0  3  0  0  0  0  0  0
   42.6910   25.9580   43.7430 C   0  0  0  0  0  3  0  0  0  0  0  0
   41.3120   27.0410   44.1980 S   0  0  0  0  0  0  0  0  0  0  0  0
  1  7  1  0  0  0  0
  1  2  1  0  0  0  0
  2 26  1  0  0  0  0
  3 22  1  0  0  0  0
  3  2  2  0  0  0  0
  4  3  1  0  0  0  0
  5  4  2  0  0  0  0
  5  6  1  0  0  0  0
  6  1  2  0  0  0  0
  8  9  1  0  0  0  0
  8 17  1  0  0  0  0
  9  5  1  0  0  0  0
 10 18  1  0  0  0  0
 10  9  2  0  0  0  0
 11 15  2  0  0  0  0
 11 10  1  0  0  0  0
 12 11  1  0  0  0  0
 13 12  1  0  0  0  0
 13 14  2  0  0  0  0
 14 15  1  0  0  0  0
 15 16  1  0  0  0  0
 16  8  2  0  0  0  0
 19 12  1  0  0  0  0
 20 13  1  0  0  0  0
 21 16  1  0  0  0  0
 22 23  1  0  0  0  0
 24 22  1  0  0  0  0
 25 22  1  0  0  0  0
 26 27  1  0  0  0  0
 27 32  1  0  0  0  0
 28 30  1  0  0  0  0
 28 27  2  0  0  0  0
 29 28  1  0  0  0  0
 30 31  2  0  0  0  0
 31 32  1  0  0  0  0
M  END
>  <minimizedAffinity>
-5.59726524

$$$$

 OpenBabel03242513053D

 32 35  0  0  0  0  0  0  0  0999 V2000
   38.9200   26.8840   39.3940 C   0  0  0  0  0  0  0  0  0  0  0  0
   38.5530   26.3410   40.6190 C   0  0  0  0  0  0  0  0  0  0  0  0
   38.4960   27.2350   41.6980 C   0  0  0  0  0  0  0  0  0  0  0  0
   38.8010   28.5390   41.4600 N   0  0  0  0  0  0  0  0  0  0  0  0
   39.1500   29.0250   40.2660 C   0  0  0  0  0  0  0  0  0  0  0  0
   39.2110   28.1900   39.2180 N   0  0  0  0  0  0  0  0  0  0  0  0
   39.0120   26.3430   38.4700 H   0  0  0  0  0  0  0  0  0  0  0  0
   40.6610   30.8440   39.6190 C   0  0  0  0  0  0  0  0  0  0  0  0
   39.4550   30.4300   40.1250 C   0  0  0  0  0  0  0  0  0  0  0  0
   38.4580   31.3320   40.5320 C   0  0  0  0  0  0  0  0  0  0  0  0
   38.6890   32.7050   40.4240 C   0  0  0  0  0  0  0  0  0  0  0  0
   37.9850   33.8370   40.7070 N   0  0  0  0  0  0  0  0  0  0  0  0
   38.7950   34.9100   40.3590 C   0  0  0  0  0  0  0  0  0  0  0  0
   39.9540   34.4110   39.8810 N   0  0  0  0  0  0  0  0  0  0  0  0
   39.9060   33.0730   39.9140 C   0  0  0  0  0  0  0  0  0  0  0  0
   40.9090   32.2090   39.5030 C   0  0  0  0  0  0  0  0  0  0  0  0
   41.3910   30.1150   39.3210 H   0  0  0  0  0  0  0  0  0  0  0  0
   37.5210   31.0070   40.9260 H   0  0  0  0  0  0  0  0  0  0  0  0
   37.0210   33.7910   41.1080 H   0  0  0  0  0  0  0  0  0  0  0  0
   38.3800   35.8970   40.5220 H   0  0  0  0  0  0  0  0  0  0  0  0
   41.8520   32.5590   39.1070 H   0  0  0  0  0  0  0  0  0  0  0  0
   38.1170   26.7330   43.0410 C   0  0  0  0  0  0  0  0  0  0  0  0
   39.0240   25.7420   43.4580 F   0  0  0  0  0  0  0  0  0  0  0  0
   38.2220   27.7410   43.9730 F   0  0  0  0  0  0  0  0  0  0  0  0
   36.8560   26.2220   42.9700 F   0  0  0  0  0  0  0  0  0  0  0  0
   38.2710   25.0290   40.7500 O   0  0  0  0  0  0  0  0  0  0  0  0
   37.5030   24.2950   39.9700 C   0  0  0  0  0  0  0  0  0  0  0  0
   36.2390   24.0760   40.3790 C   0  0  0  0  0  0  0  0  0  0  0  0
   35.6750   24.3960   41.2740 H   0  0  0  0  0  0  0  0  0  0  0  0
   35.4020   23.3230   39.6060 C   0  0  0  0  0  3  0  0  0  0  0  0
   35.8780   22.8030   38.4210 C   0  0  0  0  0  3  0  0  0  0  0  0
   37.5950   23.3780   38.3440 S   0  0  0  0  0  0  0  0  0  0  0  0
  1  2  1  0  0  0  0
  2 26  1  0  0  0  0
  2  3  2  0  0  0  0
  3 22  1  0  0  0  0
  4  3  1  0  0  0  0
  5  4  2  0  0  0  0
  6  1  2  0  0  0  0
  6  5  1  0  0  0  0
  7  1  1  0  0  0  0
  8  9  1  0  0  0  0
  9  5  1  0  0  0  0
  9 10  2  0  0  0  0
 10 18  1  0  0  0  0
 11 10  1  0  0  0  0
 11 12  1  0  0  0  0
 12 19  1  0  0  0  0
 13 20  1  0  0  0  0
 13 12  1  0  0  0  0
 14 15  1  0  0  0  0
 14 13  2  0  0  0  0
 15 11  2  0  0  0  0
 16  8  2  0  0  0  0
 16 15  1  0  0  0  0
 17  8  1  0  0  0  0
 21 16  1  0  0  0  0
 22 23  1  0  0  0  0
 22 24  1  0  0  0  0
 25 22  1  0  0  0  0
 27 28  2  0  0  0  0
 27 26  1  0  0  0  0
 28 29  1  0  0  0  0
 30 28  1  0  0  0  0
 31 30  2  0  0  0  0
 32 31  1  0  0  0  0
 32 27  1  0  0  0  0
M  END
>  <minimizedAffinity>
-5.51946068

$$$$

 OpenBabel03242513053D

 32 35  0  0  0  0  0  0  0  0999 V2000
   36.8700   29.6230   37.0220 C   0  0  0  0  0  0  0  0  0  0  0  0
   36.1820   29.0410   38.0790 C   0  0  0  0  0  0  0  0  0  0  0  0
   36.5810   29.4320   39.3650 C   0  0  0  0  0  0  0  0  0  0  0  0
   37.5930   30.3340   39.4700 N   0  0  0  0  0  0  0  0  0  0  0  0
   38.2320   30.8740   38.4290 C   0  0  0  0  0  0  0  0  0  0  0  0
   37.8690   30.5160   37.1880 N   0  0  0  0  0  0  0  0  0  0  0  0
   36.6920   29.4370   35.9780 H   0  0  0  0  0  0  0  0  0  0  0  0
   39.4460   32.4420   39.8700 C   0  0  0  0  0  0  0  0  0  0  0  0
   39.2970   31.8230   38.6550 C   0  0  0  0  0  0  0  0  0  0  0  0
   40.1550   32.0720   37.5710 C   0  0  0  0  0  0  0  0  0  0  0  0
   41.2050   32.9810   37.7210 C   0  0  0  0  0  0  0  0  0  0  0  0
   42.2020   33.4600   36.9240 N   0  0  0  0  0  0  0  0  0  0  0  0
   42.9300   34.3590   37.6910 C   0  0  0  0  0  0  0  0  0  0  0  0
   42.3660   34.4060   38.9150 N   0  0  0  0  0  0  0  0  0  0  0  0
   41.3160   33.5740   38.9510 C   0  0  0  0  0  0  0  0  0  0  0  0
   40.4880   33.3500   40.0380 C   0  0  0  0  0  0  0  0  0  0  0  0
   38.7640   32.2170   40.6680 H   0  0  0  0  0  0  0  0  0  0  0  0
   40.0360   31.5900   36.6260 H   0  0  0  0  0  0  0  0  0  0  0  0
   42.3070   33.1390   35.9350 H   0  0  0  0  0  0  0  0  0  0  0  0
   43.7700   34.8370   37.2010 H   0  0  0  0  0  0  0  0  0  0  0  0
   40.6260   33.8500   40.9870 H   0  0  0  0  0  0  0  0  0  0  0  0
   35.8980   28.8530   40.5470 C   0  0  0  0  0  0  0  0  0  0  0  0
   36.3850   29.4490   41.7250 F   0  0  0  0  0  0  0  0  0  0  0  0
   34.5540   29.1500   40.5150 F   0  0  0  0  0  0  0  0  0  0  0  0
   36.1320   27.5100   40.5650 F   0  0  0  0  0  0  0  0  0  0  0  0
   35.1900   28.1520   37.8670 O   0  0  0  0  0  0  0  0  0  0  0  0
   34.1690   28.2750   37.0420 C   0  0  0  0  0  0  0  0  0  0  0  0
   33.1270   29.0190   37.4570 C   0  0  0  0  0  0  0  0  0  0  0  0
   32.9290   29.5800   38.3880 H   0  0  0  0  0  0  0  0  0  0  0  0
   32.0450   29.1780   36.6380 C   0  0  0  0  0  3  0  0  0  0  0  0
   32.0500   28.5680   35.4010 C   0  0  0  0  0  3  0  0  0  0  0  0
   33.6450   27.7110   35.3390 S   0  0  0  0  0  0  0  0  0  0  0  0
  1  6  2  0  0  0  0
  1  2  1  0  0  0  0
  2  3  2  0  0  0  0
  3  4  1  0  0  0  0
  3 22  1  0  0  0  0
  5  9  1  0  0  0  0
  5  4  2  0  0  0  0
  6  5  1  0  0  0  0
  7  1  1  0  0  0  0
  8 16  1  0  0  0  0
  8 17  1  0  0  0  0
  9  8  2  0  0  0  0
 10 11  2  0  0  0  0
 10  9  1  0  0  0  0
 11 15  1  0  0  0  0
 12 13  1  0  0  0  0
 12 11  1  0  0  0  0
 13 14  2  0  0  0  0
 14 15  1  0  0  0  0
 15 16  2  0  0  0  0
 16 21  1  0  0  0  0
 18 10  1  0  0  0  0
 19 12  1  0  0  0  0
 20 13  1  0  0  0  0
 22 25  1  0  0  0  0
 22 23  1  0  0  0  0
 24 22  1  0  0  0  0
 26  2  1  0  0  0  0
 27 28  2  0  0  0  0
 27 26  1  0  0  0  0
 28 29  1  0  0  0  0
 30 28  1  0  0  0  0
 31 30  2  0  0  0  0
 32 31  1  0  0  0  0
 32 27  1  0  0  0  0
M  END
>  <minimizedAffinity>
-5.47529602

$$$$

 OpenBabel03242513053D

 32 35  0  0  0  0  0  0  0  0999 V2000
   40.4000   26.4690   42.9420 C   0  0  0  0  0  0  0  0  0  0  0  0
   39.0370   26.6720   42.7670 C   0  0  0  0  0  0  0  0  0  0  0  0
   38.6220   28.0050   42.6390 C   0  0  0  0  0  0  0  0  0  0  0  0
   39.5740   28.9750   42.6970 N   0  0  0  0  0  0  0  0  0  0  0  0
   40.8780   28.7420   42.8670 C   0  0  0  0  0  0  0  0  0  0  0  0
   41.3000   27.4750   42.9910 N   0  0  0  0  0  0  0  0  0  0  0  0
   40.8840   25.5160   43.0550 H   0  0  0  0  0  0  0  0  0  0  0  0
   42.9840   29.7540   43.6080 C   0  0  0  0  0  0  0  0  0  0  0  0
   41.8040   29.8500   42.9160 C   0  0  0  0  0  0  0  0  0  0  0  0
   41.4280   31.0120   42.2220 C   0  0  0  0  0  0  0  0  0  0  0  0
   42.2770   32.1210   42.2290 C   0  0  0  0  0  0  0  0  0  0  0  0
   42.2510   33.3730   41.6920 N   0  0  0  0  0  0  0  0  0  0  0  0
   43.4270   34.0000   42.0790 C   0  0  0  0  0  0  0  0  0  0  0  0
   44.1280   33.1280   42.8320 N   0  0  0  0  0  0  0  0  0  0  0  0
   43.4440   31.9810   42.9330 C   0  0  0  0  0  0  0  0  0  0  0  0
   43.8430   30.8490   43.6260 C   0  0  0  0  0  0  0  0  0  0  0  0
   43.2260   28.8430   44.1220 H   0  0  0  0  0  0  0  0  0  0  0  0
   40.5090   31.0840   41.6850 H   0  0  0  0  0  0  0  0  0  0  0  0
   41.4450   33.6970   41.1100 H   0  0  0  0  0  0  0  0  0  0  0  0
   43.5650   35.0170   41.7320 H   0  0  0  0  0  0  0  0  0  0  0  0
   44.7790   30.7980   44.1650 H   0  0  0  0  0  0  0  0  0  0  0  0
   37.1820   28.3060   42.4540 C   0  0  0  0  0  0  0  0  0  0  0  0
   36.4250   27.6690   43.4540 F   0  0  0  0  0  0  0  0  0  0  0  0
   36.9510   29.6530   42.6210 F   0  0  0  0  0  0  0  0  0  0  0  0
   36.8040   27.8650   41.2210 F   0  0  0  0  0  0  0  0  0  0  0  0
   38.1730   25.6370   42.7240 O   0  0  0  0  0  0  0  0  0  0  0  0
   37.9680   24.8080   41.7200 C   0  0  0  0  0  0  0  0  0  0  0  0
   36.6950   24.4500   41.4670 C   0  0  0  0  0  0  0  0  0  0  0  0
   35.7330   24.7140   41.9420 H   0  0  0  0  0  0  0  0  0  0  0  0
   36.4300   23.5940   40.4360 C   0  0  0  0  0  3  0  0  0  0  0  0
   37.4790   23.1160   39.6800 C   0  0  0  0  0  3  0  0  0  0  0  0
   38.9430   23.8850   40.4200 S   0  0  0  0  0  0  0  0  0  0  0  0
  1  6  1  0  0  0  0
  1  7  1  0  0  0  0
  2  1  2  0  0  0  0
  3  4  2  0  0  0  0
  3  2  1  0  0  0  0
  4  5  1  0  0  0  0
  5  9  1  0  0  0  0
  5  6  2  0  0  0  0
  8 16  1  0  0  0  0
  8 17  1  0  0  0  0
  9  8  2  0  0  0  0
 10 11  2  0  0  0  0
 10  9  1  0  0  0  0
 11 15  1  0  0  0  0
 12 13  1  0  0  0  0
 12 11  1  0  0  0  0
 13 14  2  0  0  0  0
 14 15  1  0  0  0  0
 15 16  2  0  0  0  0
 16 21  1  0  0  0  0
 18 10  1  0  0  0  0
 19 12  1  0  0  0  0
 20 13  1  0  0  0  0
 22 24  1  0  0  0  0
 22  3  1  0  0  0  0
 22 23  1  0  0  0  0
 25 22  1  0  0  0  0
 26  2  1  0  0  0  0
 27 26  1  0  0  0  0
 28 27  2  0  0  0  0
 28 29  1  0  0  0  0
 30 28  1  0  0  0  0
 31 32  1  0  0  0  0
 31 30  2  0  0  0  0
 32 27  1  0  0  0  0
M  END
>  <minimizedAffinity>
-5.45501041

$$$$

 OpenBabel03242513053D

 32 35  0  0  0  0  0  0  0  0999 V2000
   37.8920   30.1730   40.5200 C   0  0  0  0  0  0  0  0  0  0  0  0
   37.9900   29.5530   41.7590 C   0  0  0  0  0  0  0  0  0  0  0  0
   37.1820   28.4220   41.9490 C   0  0  0  0  0  0  0  0  0  0  0  0
   36.3820   28.0330   40.9200 N   0  0  0  0  0  0  0  0  0  0  0  0
   36.3150   28.6550   39.7410 C   0  0  0  0  0  0  0  0  0  0  0  0
   37.0780   29.7390   39.5340 N   0  0  0  0  0  0  0  0  0  0  0  0
   38.4380   31.0450   40.2100 H   0  0  0  0  0  0  0  0  0  0  0  0
   35.7220   27.0110   38.0220 C   0  0  0  0  0  0  0  0  0  0  0  0
   35.4270   28.1560   38.7160 C   0  0  0  0  0  0  0  0  0  0  0  0
   34.2630   28.9050   38.4760 C   0  0  0  0  0  0  0  0  0  0  0  0
   33.3630   28.4790   37.4970 C   0  0  0  0  0  0  0  0  0  0  0  0
   32.1740   28.9280   37.0040 N   0  0  0  0  0  0  0  0  0  0  0  0
   31.7840   28.0310   36.0190 C   0  0  0  0  0  0  0  0  0  0  0  0
   32.7310   27.0730   35.9390 N   0  0  0  0  0  0  0  0  0  0  0  0
   33.6970   27.3310   36.8300 C   0  0  0  0  0  0  0  0  0  0  0  0
   34.8360   26.5700   37.0430 C   0  0  0  0  0  0  0  0  0  0  0  0
   36.6250   26.4730   38.2430 H   0  0  0  0  0  0  0  0  0  0  0  0
   34.0370   29.7970   39.0170 H   0  0  0  0  0  0  0  0  0  0  0  0
   31.7280   29.7990   37.3720 H   0  0  0  0  0  0  0  0  0  0  0  0
   30.8480   28.2450   35.5190 H   0  0  0  0  0  0  0  0  0  0  0  0
   35.0470   25.6700   36.4830 H   0  0  0  0  0  0  0  0  0  0  0  0
   37.2240   27.7060   43.2460 C   0  0  0  0  0  0  0  0  0  0  0  0
   36.2680   26.6740   43.2580 F   0  0  0  0  0  0  0  0  0  0  0  0
   38.4400   27.0800   43.4050 F   0  0  0  0  0  0  0  0  0  0  0  0
   36.9680   28.6010   44.2420 F   0  0  0  0  0  0  0  0  0  0  0  0
   38.8160   30.0210   42.7160 O   0  0  0  0  0  0  0  0  0  0  0  0
   40.1340   29.9840   42.7220 C   0  0  0  0  0  0  0  0  0  0  0  0
   40.7840   31.1620   42.7320 C   0  0  0  0  0  0  0  0  0  0  0  0
   40.4360   32.2110   42.7370 H   0  0  0  0  0  0  0  0  0  0  0  0
   42.1500   31.1770   42.7410 C   0  0  0  0  0  3  0  0  0  0  0  0
   42.8290   29.9770   42.7380 C   0  0  0  0  0  3  0  0  0  0  0  0
   41.5180   28.7270   42.7230 S   0  0  0  0  0  0  0  0  0  0  0  0
  1  2  1  0  0  0  0
  2  3  2  0  0  0  0
  2 26  1  0  0  0  0
  3 22  1  0  0  0  0
  4  3  1  0  0  0  0
  5  4  2  0  0  0  0
  6  5  1  0  0  0  0
  6  1  2  0  0  0  0
  7  1  1  0  0  0  0
  8 17  1  0  0  0  0
  8  9  1  0  0  0  0
  9  5  1  0  0  0  0
 10  9  2  0  0  0  0
 10 18  1  0  0  0  0
 11 10  1  0  0  0  0
 12 19  1  0  0  0  0
 12 11  1  0  0  0  0
 13 12  1  0  0  0  0
 14 13  2  0  0  0  0
 14 15  1  0  0  0  0
 15 16  1  0  0  0  0
 15 11  2  0  0  0  0
 16  8  2  0  0  0  0
 20 13  1  0  0  0  0
 21 16  1  0  0  0  0
 22 23  1  0  0  0  0
 22 24  1  0  0  0  0
 22 25  1  0  0  0  0
 26 27  1  0  0  0  0
 27 32  1  0  0  0  0
 27 28  2  0  0  0  0
 28 29  1  0  0  0  0
 28 30  1  0  0  0  0
 31 30  2  0  0  0  0
 32 31  1  0  0  0  0
M  END
>  <minimizedAffinity>
-5.41126156

$$$$
