
 OpenBabel03242517323D

 44 47  0  0  1  0  0  0  0  0999 V2000
   45.0200   34.7310   44.9580 C   0  0  0  0  0  0  0  0  0  0  0  0
   45.8860   34.5760   43.8390 C   0  0  0  0  0  0  0  0  0  0  0  0
   46.9250   33.6600   43.9350 C   0  0  0  0  0  0  0  0  0  0  0  0
   47.0470   32.9700   45.0940 N   0  0  0  0  0  0  0  0  0  0  0  0
   46.2430   33.1100   46.1410 C   0  0  0  0  0  0  0  0  0  0  0  0
   45.2550   33.9910   46.0300 N   0  0  0  0  0  0  0  0  0  0  0  0
   46.4480   32.3560   47.2880 N   0  0  0  0  0  0  0  0  0  0  0  0
   47.7060   32.4310   47.9970 C   0  0  0  0  0  0  0  0  0  0  0  0
   47.9460   31.2800   48.9230 C   0  0  0  0  0  0  0  0  0  0  0  0
   46.7940   30.7320   49.5590 N   0  0  0  0  0  0  0  0  0  0  0  0
   45.5840   31.4600   49.2580 C   0  0  0  0  0  0  0  0  0  0  0  0
   45.3690   31.4750   47.7800 C   0  0  2  0  0  0  0  0  0  0  0  0
   44.2260   35.4440   44.8600 H   0  0  0  0  0  0  0  0  0  0  0  0
   45.7600   35.1450   42.9250 H   0  0  0  0  0  0  0  0  0  0  0  0
   47.6050   33.5180   43.0960 H   0  0  0  0  0  0  0  0  0  0  0  0
   48.5290   32.5380   47.2910 H   0  0  0  0  0  0  0  0  0  0  0  0
   47.6670   33.3520   48.6310 H   0  0  0  0  0  0  0  0  0  0  0  0
   48.4040   30.4610   48.3020 H   0  0  0  0  0  0  0  0  0  0  0  0
   48.7580   31.5860   49.6210 H   0  0  0  0  0  0  0  0  0  0  0  0
   46.8910   30.6630   50.5880 H   0  0  0  0  0  0  0  0  0  0  0  0
   45.6990   32.5280   49.5930 H   0  0  0  0  0  0  0  0  0  0  0  0
   44.7750   31.0630   49.8720 H   0  0  0  0  0  0  0  0  0  0  0  0
   44.4190   31.9630   47.5410 H   0  0  0  0  0  0  0  0  0  0  0  0
   45.4670   30.1030   47.1610 C   0  0  0  0  0  0  0  0  0  0  0  0
   46.4910   29.7660   46.9720 H   0  0  0  0  0  0  0  0  0  0  0  0
   44.8920   30.0000   46.2320 H   0  0  0  0  0  0  0  0  0  0  0  0
   44.8380   29.1560   48.1530 C   0  0  0  0  0  0  0  0  0  0  0  0
   44.9970   27.8400   48.0080 C   0  0  0  0  0  0  0  0  0  0  0  0
   44.4270   26.8200   48.9230 C   0  0  0  0  0  0  0  0  0  0  0  0
   45.2000   26.3720   49.5850 H   0  0  0  0  0  0  0  0  0  0  0  0
   43.6870   27.2970   49.5860 H   0  0  0  0  0  0  0  0  0  0  0  0
   43.7310   25.7530   48.1030 C   0  0  2  0  0  0  0  0  0  0  0  0
   44.5210   25.0550   47.0400 C   0  0  0  0  0  0  0  0  0  0  0  0
   43.3890   26.0090   46.6970 C   0  0  1  0  0  0  0  0  0  0  0  0
   42.9800   25.1420   48.6680 H   0  0  0  0  0  0  0  0  0  0  0  0
   45.5700   25.3790   46.9470 H   0  0  0  0  0  0  0  0  0  0  0  0
   44.3180   23.9950   46.7900 H   0  0  0  0  0  0  0  0  0  0  0  0
   43.7610   26.9580   46.2630 H   0  0  0  0  0  0  0  0  0  0  0  0
   42.1550   25.5270   46.1380 C   0  0  0  0  0  0  0  0  0  0  0  0
   40.8830   25.2900   46.5320 C   0  0  0  0  0  0  0  0  0  0  0  0
   40.7300   25.5270   47.5720 H   0  0  0  0  0  0  0  0  0  0  0  0
   39.9450   24.8110   45.6830 C   0  0  0  0  0  0  0  0  0  0  0  0
   40.3570   24.5620   44.3400 C   0  0  0  0  0  0  0  0  0  0  0  0
   42.1880   25.0550   44.3410 S   0  0  0  0  0  0  0  0  0  0  0  0
  1  6  1  0  0  0  0
  2  3  1  0  0  0  0
  2  1  2  0  0  0  0
  3  4  2  0  0  0  0
  4  5  1  0  0  0  0
  5  7  1  0  0  0  0
  6  5  2  0  0  0  0
  7 12  1  0  0  0  0
  7  8  1  0  0  0  0
  8 17  1  0  0  0  0
  8  9  1  0  0  0  0
  9 10  1  0  0  0  0
  9 19  1  0  0  0  0
 10 20  1  0  0  0  0
 11 10  1  0  0  0  0
 11 21  1  0  0  0  0
 11 22  1  0  0  0  0
 12 23  1  6  0  0  0
 12 11  1  0  0  0  0
 13  1  1  0  0  0  0
 14  2  1  0  0  0  0
 15  3  1  0  0  0  0
 16  8  1  0  0  0  0
 18  9  1  0  0  0  0
 24 12  1  0  0  0  0
 24 27  1  0  0  0  0
 25 24  1  0  0  0  0
 26 24  1  0  0  0  0
 28 27  2  0  0  0  0
 28 29  1  0  0  0  0
 29 30  1  0  0  0  0
 29 31  1  0  0  0  0
 32 35  1  1  0  0  0
 32 29  1  0  0  0  0
 33 32  1  0  0  0  0
 34 38  1  6  0  0  0
 34 33  1  0  0  0  0
 34 32  1  0  0  0  0
 36 33  1  0  0  0  0
 37 33  1  0  0  0  0
 39 40  2  0  0  0  0
 39 34  1  0  0  0  0
 40 41  1  0  0  0  0
 42 40  1  0  0  0  0
 43 44  1  0  0  0  0
 43 42  2  0  0  0  0
 44 39  1  0  0  0  0
M  END
>  <minimizedAffinity>
-5.8573575

>  <minimizedRMSD>
0.705313981

$$$$
