
 OpenBabel03242522423D

 44 47  0  0  0  0  0  0  0  0999 V2000
   45.9310   31.5820   45.6780 C   0  0  0  0  0  0  0  0  0  0  0  0
   44.9450   31.9490   46.0200 H   0  0  0  0  0  0  0  0  0  0  0  0
   45.6470   30.5620   45.3330 H   0  0  0  0  0  0  0  0  0  0  0  0
   47.1830   32.4220   47.6520 C   0  0  0  0  0  0  0  0  0  0  0  0
   46.9020   31.3780   46.7460 C   0  0  0  0  0  0  0  0  0  0  0  0
   47.5770   30.1760   46.9350 C   0  0  0  0  0  0  0  0  0  0  0  0
   48.4490   30.0650   47.9540 N   0  0  0  0  0  0  0  0  0  0  0  0
   48.6830   31.0750   48.7850 C   0  0  0  0  0  0  0  0  0  0  0  0
   48.0600   32.2680   48.6530 N   0  0  0  0  0  0  0  0  0  0  0  0
   46.7810   33.4170   47.6820 H   0  0  0  0  0  0  0  0  0  0  0  0
   47.3740   29.3640   46.2480 H   0  0  0  0  0  0  0  0  0  0  0  0
   49.6570   30.8700   49.9200 C   0  0  0  0  0  0  0  0  0  0  0  0
   49.1500   31.2490   50.8320 H   0  0  0  0  0  0  0  0  0  0  0  0
   49.8010   29.7910   50.0730 H   0  0  0  0  0  0  0  0  0  0  0  0
   50.9070   31.5880   49.7490 C   0  0  0  0  0  0  0  0  0  0  0  0
   52.0540   31.0860   49.1500 C   0  0  0  0  0  0  0  0  0  0  0  0
   53.0230   32.0490   49.1720 C   0  0  0  0  0  0  0  0  0  0  0  0
   52.4400   33.1100   49.7830 N   0  0  0  0  0  0  0  0  0  0  0  0
   51.1800   32.8420   50.1300 N   0  0  0  0  0  0  0  0  0  0  0  0
   52.2200   30.1050   48.7190 H   0  0  0  0  0  0  0  0  0  0  0  0
   54.0340   32.1080   48.8340 H   0  0  0  0  0  0  0  0  0  0  0  0
   52.8360   34.0650   50.0050 H   0  0  0  0  0  0  0  0  0  0  0  0
   46.5740   32.4330   44.6220 C   0  0  0  0  0  0  0  0  0  0  0  0
   47.6600   32.5350   44.8530 H   0  0  0  0  0  0  0  0  0  0  0  0
   46.4130   31.8470   43.7010 H   0  0  0  0  0  0  0  0  0  0  0  0
   46.0730   34.2530   43.0650 C   0  0  0  0  0  0  0  0  0  0  0  0
   45.9450   33.7280   44.3480 C   0  0  0  0  0  0  0  0  0  0  0  0
   45.2710   34.3160   45.3540 C   0  0  0  0  0  0  0  0  0  0  0  0
   44.6590   35.5190   45.1190 C   0  0  0  0  0  0  0  0  0  0  0  0
   44.7090   36.1350   43.8950 C   0  0  0  0  0  0  0  0  0  0  0  0
   45.4200   35.4790   42.8950 C   0  0  0  0  0  0  0  0  0  0  0  0
   45.0890   34.0180   46.3450 H   0  0  0  0  0  0  0  0  0  0  0  0
   44.0810   36.1150   45.8340 H   0  0  0  0  0  0  0  0  0  0  0  0
   44.2610   37.0720   43.6120 H   0  0  0  0  0  0  0  0  0  0  0  0
   45.4930   35.9200   41.9070 H   0  0  0  0  0  0  0  0  0  0  0  0
   46.8930   33.5130   41.7510 S   0  0  0  0  0  0  0  0  0  0  0  0
   46.9280   34.5680   40.5640 O   0  0  0  0  0  0  0  0  0  0  0  0
   46.0540   32.4290   41.1730 O   0  0  0  0  0  0  0  0  0  0  0  0
   48.5070   33.1690   41.8000 C   0  0  0  0  0  0  0  0  0  0  0  0
   49.4320   34.1750   42.5220 C   0  0  0  0  0  0  0  0  0  0  0  0
   49.1100   35.0800   42.9970 H   0  0  0  0  0  0  0  0  0  0  0  0
   50.7350   33.8090   42.5060 C   0  0  0  0  0  0  0  0  0  0  0  0
   51.2110   32.6230   41.8910 C   0  0  0  0  0  0  0  0  0  0  0  0
   49.6380   31.8710   41.2190 S   0  0  0  0  0  0  0  0  0  0  0  0
  1  2  1  0  0  0  0
  1  5  1  0  0  0  0
  3  1  1  0  0  0  0
  4 10  1  0  0  0  0
  4  9  1  0  0  0  0
  5  6  1  0  0  0  0
  5  4  2  0  0  0  0
  6  7  2  0  0  0  0
  7  8  1  0  0  0  0
  8 12  1  0  0  0  0
  9  8  2  0  0  0  0
 11  6  1  0  0  0  0
 12 14  1  0  0  0  0
 12 13  1  0  0  0  0
 15 12  1  0  0  0  0
 15 19  2  0  0  0  0
 16 17  2  0  0  0  0
 16 15  1  0  0  0  0
 17 18  1  0  0  0  0
 18 22  1  0  0  0  0
 18 19  1  0  0  0  0
 20 16  1  0  0  0  0
 21 17  1  0  0  0  0
 23 24  1  0  0  0  0
 23  1  1  0  0  0  0
 25 23  1  0  0  0  0
 26 27  1  0  0  0  0
 27 23  1  0  0  0  0
 27 28  2  0  0  0  0
 28 32  1  0  0  0  0
 29 28  1  0  0  0  0
 29 33  1  0  0  0  0
 30 29  2  0  0  0  0
 31 26  2  0  0  0  0
 31 30  1  0  0  0  0
 34 30  1  0  0  0  0
 35 31  1  0  0  0  0
 36 39  1  0  0  0  0
 36 26  1  0  0  0  0
 37 36  2  0  0  0  0
 38 36  2  0  0  0  0
 39 40  2  0  0  0  0
 40 41  1  0  0  0  0
 42 40  1  0  0  0  0
 43 42  2  0  0  0  0
 44 39  1  0  0  0  0
 44 43  1  0  0  0  0
M  END
>  <minimizedAffinity>
-6.25830698

>  <minimizedRMSD>
0.795261085

$$$$
