
 OpenBabel03252509233D

 24 26  0  0  1  0  0  0  0  0999 V2000
   46.5980   34.8120   41.9810 C   0  0  1  0  0  0  0  0  0  0  0  0
   48.0660   35.3110   42.0090 C   0  0  0  0  0  0  0  0  0  0  0  0
   47.6040   33.8690   41.6430 C   0  0  2  0  0  0  0  0  0  0  0  0
   45.9640   35.3620   41.2630 H   0  0  0  0  0  0  0  0  0  0  0  0
   48.3290   35.9480   41.1490 H   0  0  0  0  0  0  0  0  0  0  0  0
   48.5590   35.4810   42.9610 H   0  0  0  0  0  0  0  0  0  0  0  0
   47.9270   33.1410   42.4250 H   0  0  0  0  0  0  0  0  0  0  0  0
   44.5510   35.5750   45.0290 C   0  0  0  0  0  0  0  0  0  0  0  0
   45.0830   35.7220   43.7050 C   0  0  0  0  0  0  0  0  0  0  0  0
   46.0270   34.7810   43.3860 C   0  0  0  0  0  0  0  0  0  0  0  0
   46.4160   33.7960   44.2780 N   0  0  0  0  0  0  0  0  0  0  0  0
   45.8800   33.7130   45.5020 C   0  0  0  0  0  0  0  0  0  0  0  0
   44.9360   34.6140   45.8810 N   0  0  0  0  0  0  0  0  0  0  0  0
   43.8100   36.2770   45.3370 H   0  0  0  0  0  0  0  0  0  0  0  0
   46.3220   32.8780   46.0260 H   0  0  0  0  0  0  0  0  0  0  0  0
   44.6800   36.7510   42.8200 N   0  0  0  0  0  0  0  0  0  0  0  0
   45.1600   37.6300   43.1520 H   0  0  0  0  0  0  0  0  0  0  0  0
   44.0390   36.6900   41.9940 H   0  0  0  0  0  0  0  0  0  0  0  0
   47.7540   33.4460   40.2560 C   0  0  0  0  0  0  0  0  0  0  0  0
   47.0960   33.7100   39.1070 C   0  0  0  0  0  0  0  0  0  0  0  0
   46.2580   34.3840   39.1890 H   0  0  0  0  0  0  0  0  0  0  0  0
   47.5100   33.1260   37.9340 C   0  0  0  0  0  3  0  0  0  0  0  0
   48.6280   32.2680   38.0180 C   0  0  0  0  0  3  0  0  0  0  0  0
   49.0720   32.3090   39.7910 S   0  0  0  0  0  0  0  0  0  0  0  0
  1  4  1  6  0  0  0
  1  2  1  0  0  0  0
  1 10  1  0  0  0  0
  2  6  1  0  0  0  0
  3  1  1  0  0  0  0
  3  2  1  0  0  0  0
  3  7  1  1  0  0  0
  5  2  1  0  0  0  0
  8 14  1  0  0  0  0
  8 13  1  0  0  0  0
  9  8  2  0  0  0  0
 10  9  1  0  0  0  0
 10 11  2  0  0  0  0
 11 12  1  0  0  0  0
 12 13  2  0  0  0  0
 12 15  1  0  0  0  0
 16 17  1  0  0  0  0
 16  9  1  0  0  0  0
 18 16  1  0  0  0  0
 19  3  1  0  0  0  0
 20 21  1  0  0  0  0
 20 19  2  0  0  0  0
 22 23  2  0  0  0  0
 22 20  1  0  0  0  0
 23 24  1  0  0  0  0
 24 19  1  0  0  0  0
M  END
>  <minimizedAffinity>
-4.60159349

>  <minimizedRMSD>
0.529887259

$$$$
