
 OpenBabel03252506093D

 27 29  0  0  0  0  0  0  0  0999 V2000
   45.2200   33.4690   41.1130 F   0  0  0  0  0  0  0  0  0  0  0  0
   46.4010   34.0850   40.9970 C   0  0  0  0  0  0  0  0  0  0  0  0
   46.8880   34.8050   42.0670 C   0  0  0  0  0  0  0  0  0  0  0  0
   48.0940   35.4670   42.0280 C   0  0  0  0  0  0  0  0  0  0  0  0
   48.8760   35.4250   40.8740 C   0  0  0  0  0  0  0  0  0  0  0  0
   48.3350   34.6890   39.8380 C   0  0  0  0  0  0  0  0  0  0  0  0
   47.1370   34.0130   39.8330 C   0  0  0  0  0  0  0  0  0  0  0  0
   48.4430   36.0230   42.8920 H   0  0  0  0  0  0  0  0  0  0  0  0
   49.8140   35.9280   40.8160 H   0  0  0  0  0  0  0  0  0  0  0  0
   48.9860   34.6840   38.9480 H   0  0  0  0  0  0  0  0  0  0  0  0
   45.4840   33.9980   45.3790 C   0  0  0  0  0  0  0  0  0  0  0  0
   44.6360   35.1020   45.6000 C   0  0  0  0  0  0  0  0  0  0  0  0
   44.5440   36.1150   44.6250 C   0  0  0  0  0  0  0  0  0  0  0  0
   45.3070   35.9510   43.5000 N   0  0  0  0  0  0  0  0  0  0  0  0
   46.1090   34.8860   43.3140 C   0  0  0  0  0  0  0  0  0  0  0  0
   46.1840   33.9430   44.2400 N   0  0  0  0  0  0  0  0  0  0  0  0
   44.0580   35.1760   46.5090 H   0  0  0  0  0  0  0  0  0  0  0  0
   43.9080   36.9770   44.7550 H   0  0  0  0  0  0  0  0  0  0  0  0
   45.5700   32.9890   46.3590 N   0  0  0  0  0  0  0  0  0  0  0  0
   46.1260   32.1320   46.1480 H   0  0  0  0  0  0  0  0  0  0  0  0
   45.0890   33.0980   47.2740 H   0  0  0  0  0  0  0  0  0  0  0  0
   46.7240   33.2980   38.6750 C   0  0  0  0  0  0  0  0  0  0  0  0
   45.7350   32.3480   38.5090 C   0  0  0  0  0  0  0  0  0  0  0  0
   45.1100   32.0190   39.3280 H   0  0  0  0  0  0  0  0  0  0  0  0
   45.5160   31.7950   37.3040 C   0  0  0  0  0  0  0  0  0  0  0  0
   46.3530   32.2450   36.2350 C   0  0  0  0  0  0  0  0  0  0  0  0
   47.4560   33.5070   37.1140 S   0  0  0  0  0  0  0  0  0  0  0  0
  2  1  1  0  0  0  0
  2  3  1  0  0  0  0
  3 15  1  0  0  0  0
  4  3  2  0  0  0  0
  4  8  1  0  0  0  0
  5  4  1  0  0  0  0
  6  5  2  0  0  0  0
  7  6  1  0  0  0  0
  7  2  2  0  0  0  0
  9  5  1  0  0  0  0
 10  6  1  0  0  0  0
 11 12  1  0  0  0  0
 11 19  1  0  0  0  0
 12 17  1  0  0  0  0
 13 18  1  0  0  0  0
 13 12  2  0  0  0  0
 14 13  1  0  0  0  0
 15 14  2  0  0  0  0
 15 16  1  0  0  0  0
 16 11  2  0  0  0  0
 19 21  1  0  0  0  0
 20 19  1  0  0  0  0
 22  7  1  0  0  0  0
 23 22  2  0  0  0  0
 23 24  1  0  0  0  0
 25 23  1  0  0  0  0
 26 27  1  0  0  0  0
 26 25  2  0  0  0  0
 27 22  1  0  0  0  0
M  END
>  <minimizedAffinity>
-5.93137217

>  <minimizedRMSD>
0.254800797

$$$$
