
 OpenBabel03252507043D

 44 47  0  0  0  0  0  0  0  0999 V2000
   41.7780   33.7690   41.3770 C   0  0  0  0  0  0  0  0  0  0  0  0
   41.3940   33.6820   42.4160 H   0  0  0  0  0  0  0  0  0  0  0  0
   42.0350   34.8790   41.2850 H   0  0  0  0  0  0  0  0  0  0  0  0
   40.9040   33.3520   40.4520 N   0  0  0  0  0  0  0  0  0  0  0  0
   40.1760   32.1200   40.4490 C   0  0  0  0  0  0  0  0  0  0  0  0
   38.8000   32.6630   40.8400 C   0  0  0  0  0  0  0  0  0  0  0  0
   38.2670   33.6350   39.9020 C   0  0  0  0  0  0  0  0  0  0  0  0
   39.1830   34.3940   39.0800 C   0  0  0  0  0  0  0  0  0  0  0  0
   40.6640   34.2980   39.3440 C   0  0  0  0  0  0  0  0  0  0  0  0
   40.5430   31.4910   41.2930 H   0  0  0  0  0  0  0  0  0  0  0  0
   40.1320   31.5420   39.5430 H   0  0  0  0  0  0  0  0  0  0  0  0
   38.9610   33.1520   41.8350 H   0  0  0  0  0  0  0  0  0  0  0  0
   38.1370   31.7960   41.0320 H   0  0  0  0  0  0  0  0  0  0  0  0
   37.5490   33.1160   39.2050 H   0  0  0  0  0  0  0  0  0  0  0  0
   37.6050   34.3640   40.4530 H   0  0  0  0  0  0  0  0  0  0  0  0
   38.9120   35.0440   38.3050 H   0  0  0  0  0  0  0  0  0  0  0  0
   41.8590   35.1960   38.4870 S   0  0  0  0  0  0  0  0  0  0  0  0
   41.3610   36.3170   37.3520 C   0  0  0  0  0  0  0  0  0  0  0  0
   41.1500   36.8120   36.0890 C   0  0  0  0  0  0  0  0  0  0  0  0
   41.4850   36.0810   35.3960 H   0  0  0  0  0  0  0  0  0  0  0  0
   40.6060   38.0230   35.8300 C   0  0  0  0  0  3  0  0  0  0  0  0
   40.2280   38.8340   37.0040 C   0  0  0  0  0  3  0  0  0  0  0  0
   40.7430   37.6650   38.4050 S   0  0  0  0  0  0  0  0  0  0  0  0
   43.0940   33.0850   41.3050 C   0  0  0  0  0  0  0  0  0  0  0  0
   43.3440   32.6950   40.2980 H   0  0  0  0  0  0  0  0  0  0  0  0
   43.0470   32.1930   41.9630 H   0  0  0  0  0  0  0  0  0  0  0  0
   44.1190   33.9980   41.8440 C   0  0  0  0  0  0  0  0  0  0  0  0
   43.7590   35.2180   42.3750 C   0  0  0  0  0  0  0  0  0  0  0  0
   44.7630   36.0420   42.8570 C   0  0  0  0  0  0  0  0  0  0  0  0
   46.0590   35.6030   42.7840 N   0  0  0  0  0  0  0  0  0  0  0  0
   46.3620   34.4190   42.2650 C   0  0  0  0  0  0  0  0  0  0  0  0
   45.3810   33.6400   41.8040 N   0  0  0  0  0  0  0  0  0  0  0  0
   42.8240   35.7240   42.5350 H   0  0  0  0  0  0  0  0  0  0  0  0
   44.6760   37.0280   43.3050 H   0  0  0  0  0  0  0  0  0  0  0  0
   47.7700   34.0190   42.2510 C   0  0  0  0  0  0  0  0  0  0  0  0
   48.1160   32.6880   42.0690 C   0  0  0  0  0  0  0  0  0  0  0  0
   49.4550   32.3240   42.0710 C   0  0  0  0  0  0  0  0  0  0  0  0
   50.3380   33.3690   42.2620 C   0  0  0  0  0  0  0  0  0  0  0  0
   50.0240   34.7020   42.4450 C   0  0  0  0  0  0  0  0  0  0  0  0
   48.6960   34.9730   42.4300 N   0  0  0  0  0  0  0  0  0  0  0  0
   47.3740   31.9130   41.9230 H   0  0  0  0  0  0  0  0  0  0  0  0
   49.8180   31.3150   41.9370 H   0  0  0  0  0  0  0  0  0  0  0  0
   51.3990   33.1230   42.2700 H   0  0  0  0  0  0  0  0  0  0  0  0
   50.7750   35.4430   42.5860 H   0  0  0  0  0  0  0  0  0  0  0  0
  1  2  1  0  0  0  0
  3  1  1  0  0  0  0
  4  1  1  0  0  0  0
  5  4  1  0  0  0  0
  5  6  1  0  0  0  0
  5 10  1  0  0  0  0
  6 13  1  0  0  0  0
  6 12  1  0  0  0  0
  7 15  1  0  0  0  0
  7  6  1  0  0  0  0
  8  9  2  0  0  0  0
  8  7  1  0  0  0  0
  9  4  1  0  0  0  0
 11  5  1  0  0  0  0
 14  7  1  0  0  0  0
 16  8  1  0  0  0  0
 17  9  1  0  0  0  0
 18 23  1  0  0  0  0
 18 17  1  0  0  0  0
 19 18  2  0  0  0  0
 20 19  1  0  0  0  0
 21 19  1  0  0  0  0
 21 22  2  0  0  0  0
 22 23  1  0  0  0  0
 24  1  1  0  0  0  0
 24 27  1  0  0  0  0
 24 26  1  0  0  0  0
 25 24  1  0  0  0  0
 27 28  1  0  0  0  0
 28 33  1  0  0  0  0
 28 29  2  0  0  0  0
 29 34  1  0  0  0  0
 30 29  1  0  0  0  0
 31 30  2  0  0  0  0
 32 27  2  0  0  0  0
 32 31  1  0  0  0  0
 35 31  1  0  0  0  0
 35 40  1  0  0  0  0
 36 37  1  0  0  0  0
 36 35  2  0  0  0  0
 37 38  2  0  0  0  0
 38 43  1  0  0  0  0
 38 39  1  0  0  0  0
 39 44  1  0  0  0  0
 40 39  2  0  0  0  0
 41 36  1  0  0  0  0
 42 37  1  0  0  0  0
M  END
>  <minimizedAffinity>
-3.16088223

>  <minimizedRMSD>
0.298682511

$$$$
