
 OpenBabel03252501353D

 22 23  0  0  0  0  0  0  0  0999 V2000
   45.6920   34.6310   44.3030 C   0  0  0  0  0  0  0  0  0  0  0  0
   45.2800   34.3810   45.5890 C   0  0  0  0  0  0  0  0  0  0  0  0
   45.9040   33.3070   46.2230 C   0  0  0  0  0  0  0  0  0  0  0  0
   46.8360   32.6210   45.5390 N   0  0  0  0  0  0  0  0  0  0  0  0
   47.2090   32.8980   44.2890 C   0  0  0  0  0  0  0  0  0  0  0  0
   46.6240   33.9360   43.6390 N   0  0  0  0  0  0  0  0  0  0  0  0
   45.5800   33.1080   47.2350 H   0  0  0  0  0  0  0  0  0  0  0  0
   47.9760   32.2510   43.8750 H   0  0  0  0  0  0  0  0  0  0  0  0
   44.2830   35.1290   42.4960 C   0  0  0  0  0  0  0  0  0  0  0  0
   44.1930   33.8640   42.6070 O   0  0  0  0  0  0  0  0  0  0  0  0
   45.1860   35.6890   43.4440 N   0  0  0  0  0  0  0  0  0  0  0  0
   45.3880   36.7010   43.4450 H   0  0  0  0  0  0  0  0  0  0  0  0
   43.6020   35.9310   41.5750 O   0  0  0  0  0  0  0  0  0  0  0  0
   42.3940   35.5190   41.0430 C   0  0  0  0  0  0  0  0  0  0  0  0
   41.1460   35.5380   41.4710 C   0  0  0  0  0  0  0  0  0  0  0  0
   40.9880   35.9690   42.4660 H   0  0  0  0  0  0  0  0  0  0  0  0
   40.1030   35.0680   40.7620 C   0  0  0  0  0  0  0  0  0  0  0  0
   40.5180   34.5330   39.4560 C   0  0  0  0  0  0  0  0  0  0  0  0
   42.3930   34.8100   39.4870 S   0  0  0  0  0  0  0  0  0  0  0  0
   44.2850   35.2170   46.1340 N   0  0  0  0  0  0  0  0  0  0  0  0
   43.2570   35.1340   45.9280 H   0  0  0  0  0  0  0  0  0  0  0  0
   44.7480   35.9050   46.7530 H   0  0  0  0  0  0  0  0  0  0  0  0
  1  2  1  0  0  0  0
  2 20  1  0  0  0  0
  2  3  2  0  0  0  0
  3  7  1  0  0  0  0
  4  3  1  0  0  0  0
  5  4  2  0  0  0  0
  6  5  1  0  0  0  0
  6  1  2  0  0  0  0
  8  5  1  0  0  0  0
  9 10  2  0  0  0  0
  9 11  1  0  0  0  0
 11 12  1  0  0  0  0
 11  1  1  0  0  0  0
 13  9  1  0  0  0  0
 14 15  2  0  0  0  0
 14 13  1  0  0  0  0
 15 16  1  0  0  0  0
 17 15  1  0  0  0  0
 18 19  1  0  0  0  0
 18 17  2  0  0  0  0
 19 14  1  0  0  0  0
 20 22  1  0  0  0  0
 21 20  1  0  0  0  0
M  END
>  <minimizedAffinity>
-5.08398867

>  <minimizedRMSD>
0.688607275

$$$$
