
 OpenBabel03252506333D

 30 32  0  0  1  0  0  0  0  0999 V2000
   44.4680   35.7400   45.0050 C   0  0  0  0  0  0  0  0  0  0  0  0
   45.1160   35.7060   43.7610 C   0  0  0  0  0  0  0  0  0  0  0  0
   46.0310   34.7230   43.5010 C   0  0  0  0  0  0  0  0  0  0  0  0
   46.2490   33.8280   44.4960 N   0  0  0  0  0  0  0  0  0  0  0  0
   45.6350   33.8600   45.6740 C   0  0  0  0  0  0  0  0  0  0  0  0
   44.7320   34.8150   45.9560 N   0  0  0  0  0  0  0  0  0  0  0  0
   45.9610   32.8580   46.6210 N   0  0  0  0  0  0  0  0  0  0  0  0
   45.1620   32.5700   47.8190 C   0  0  0  0  0  0  0  0  0  0  0  0
   46.2330   32.2490   48.8400 C   0  0  0  0  0  0  0  0  0  0  0  0
   47.5250   32.1060   48.0830 C   0  0  0  0  0  0  0  0  0  0  0  0
   47.0560   31.9330   46.6640 C   0  0  1  0  0  0  0  0  0  0  0  0
   43.7400   36.5040   45.2400 H   0  0  0  0  0  0  0  0  0  0  0  0
   46.5270   34.7000   42.5430 H   0  0  0  0  0  0  0  0  0  0  0  0
   44.6040   33.5090   48.0960 H   0  0  0  0  0  0  0  0  0  0  0  0
   44.4610   31.7330   47.6440 H   0  0  0  0  0  0  0  0  0  0  0  0
   46.2770   33.0040   49.6550 H   0  0  0  0  0  0  0  0  0  0  0  0
   45.9710   31.2610   49.2840 H   0  0  0  0  0  0  0  0  0  0  0  0
   48.0730   33.0700   48.1450 H   0  0  0  0  0  0  0  0  0  0  0  0
   48.1360   31.2460   48.4280 H   0  0  0  0  0  0  0  0  0  0  0  0
   47.8600   32.2140   45.9300 H   0  0  0  0  0  0  0  0  0  0  0  0
   44.7620   36.7350   42.8190 N   0  0  0  0  0  0  0  0  0  0  0  0
   44.5170   37.6830   43.1270 H   0  0  0  0  0  0  0  0  0  0  0  0
   44.7520   36.5200   41.7770 H   0  0  0  0  0  0  0  0  0  0  0  0
   46.5230   30.2160   46.4080 S   0  0  0  0  0  0  0  0  0  0  0  0
   45.8920   29.8660   44.8760 C   0  0  0  0  0  0  0  0  0  0  0  0
   45.1800   30.5170   43.8390 C   0  0  0  0  0  0  0  0  0  0  0  0
   44.9940   31.5320   44.1240 H   0  0  0  0  0  0  0  0  0  0  0  0
   44.8280   29.8770   42.6890 C   0  0  0  0  0  3  0  0  0  0  0  0
   45.2300   28.4400   42.5720 C   0  0  0  0  0  3  0  0  0  0  0  0
   46.1210   28.1240   44.1980 S   0  0  0  0  0  0  0  0  0  0  0  0
  1 12  1  0  0  0  0
  1  6  1  0  0  0  0
  2  1  2  0  0  0  0
  3  2  1  0  0  0  0
  3  4  2  0  0  0  0
  4  5  1  0  0  0  0
  5  6  2  0  0  0  0
  5  7  1  0  0  0  0
  7 11  1  0  0  0  0
  7  8  1  0  0  0  0
  8 14  1  0  0  0  0
  8  9  1  0  0  0  0
  9 17  1  0  0  0  0
  9 16  1  0  0  0  0
 10 18  1  0  0  0  0
 10 19  1  0  0  0  0
 10  9  1  0  0  0  0
 11 20  1  6  0  0  0
 11 10  1  0  0  0  0
 13  3  1  0  0  0  0
 15  8  1  0  0  0  0
 21 22  1  0  0  0  0
 21  2  1  0  0  0  0
 23 21  1  0  0  0  0
 24 11  1  0  0  0  0
 25 24  1  0  0  0  0
 26 27  1  0  0  0  0
 26 25  2  0  0  0  0
 28 26  1  0  0  0  0
 29 28  2  0  0  0  0
 29 30  1  0  0  0  0
 30 25  1  0  0  0  0
M  END
>  <minimizedAffinity>
-4.78369522

>  <minimizedRMSD>
0.122962222

$$$$
