
 OpenBabel03252507553D

 41 44  0  0  1  0  0  0  0  0999 V2000
   47.0550   34.7820   41.9170 C   0  0  2  0  0  0  0  0  0  0  0  0
   46.2590   34.2120   40.7420 C   0  0  0  0  0  0  0  0  0  0  0  0
   47.4270   34.0510   39.7480 C   0  0  0  0  0  0  0  0  0  0  0  0
   48.5950   33.6470   40.5910 C   0  0  1  0  0  0  0  0  0  0  0  0
   48.1300   33.7340   42.0140 C   0  0  0  0  0  0  0  0  0  0  0  0
   47.4480   35.7540   41.6060 H   0  0  0  0  0  0  0  0  0  0  0  0
   45.8900   33.2110   40.9850 H   0  0  0  0  0  0  0  0  0  0  0  0
   45.5140   34.9150   40.3590 H   0  0  0  0  0  0  0  0  0  0  0  0
   47.6440   35.0620   39.3280 H   0  0  0  0  0  0  0  0  0  0  0  0
   47.1710   33.3070   38.9740 H   0  0  0  0  0  0  0  0  0  0  0  0
   49.4730   34.3200   40.4680 H   0  0  0  0  0  0  0  0  0  0  0  0
   48.9180   34.1330   42.6880 H   0  0  0  0  0  0  0  0  0  0  0  0
   47.6880   32.7910   42.3840 H   0  0  0  0  0  0  0  0  0  0  0  0
   44.5750   35.8300   44.5500 C   0  0  0  0  0  0  0  0  0  0  0  0
   45.2690   35.8520   43.3310 C   0  0  0  0  0  0  0  0  0  0  0  0
   46.2280   34.8610   43.1500 C   0  0  0  0  0  0  0  0  0  0  0  0
   46.4710   33.9030   44.1470 N   0  0  0  0  0  0  0  0  0  0  0  0
   45.7630   33.9420   45.3040 C   0  0  0  0  0  0  0  0  0  0  0  0
   44.8200   34.9030   45.4990 N   0  0  0  0  0  0  0  0  0  0  0  0
   43.8210   36.5910   44.7200 H   0  0  0  0  0  0  0  0  0  0  0  0
   45.1060   36.5700   42.5520 H   0  0  0  0  0  0  0  0  0  0  0  0
   46.0420   33.1550   45.9880 H   0  0  0  0  0  0  0  0  0  0  0  0
   49.0710   32.2300   40.3620 C   0  0  2  0  0  0  0  0  0  0  0  0
   50.2610   31.8310   41.1070 C   0  0  0  0  0  0  0  0  0  0  0  0
   50.3010   31.9440   39.6210 C   0  0  1  0  0  0  0  0  0  0  0  0
   48.2500   31.4980   40.2740 H   0  0  0  0  0  0  0  0  0  0  0  0
   50.7600   32.5570   41.7500 H   0  0  0  0  0  0  0  0  0  0  0  0
   50.2510   30.8070   41.5810 H   0  0  0  0  0  0  0  0  0  0  0  0
   50.8260   32.7970   39.1660 H   0  0  0  0  0  0  0  0  0  0  0  0
   50.3460   30.7440   38.8730 O   0  0  0  0  0  0  0  0  0  0  0  0
   50.8140   30.8910   36.3150 O   0  0  0  0  0  0  0  0  0  0  0  0
   51.4950   30.9170   37.6630 P   0  0  1  0  0  0  0  0  0  0  0  0
   52.2710   32.4410   37.8110 O   0  0  0  0  0  0  0  0  0  0  0  0
   52.7650   32.4240   38.6870 H   0  0  0  0  0  0  0  0  0  0  0  0
   52.7000   29.7750   37.6660 O   0  0  0  0  0  0  0  0  0  0  0  0
   53.7180   29.8660   36.7220 C   0  0  0  0  0  0  0  0  0  0  0  0
   53.8870   29.5660   35.4190 C   0  0  0  0  0  0  0  0  0  0  0  0
   52.9930   29.1390   34.9870 H   0  0  0  0  0  0  0  0  0  0  0  0
   55.0600   29.7950   34.7860 C   0  0  0  0  0  3  0  0  0  0  0  0
   56.0730   30.3630   35.5850 C   0  0  0  0  0  3  0  0  0  0  0  0
   55.2280   30.5340   37.2650 S   0  0  0  0  0  0  0  0  0  0  0  0
  1  6  1  6  0  0  0
  1  5  1  0  0  0  0
  1 16  1  0  0  0  0
  2  7  1  0  0  0  0
  2  1  1  0  0  0  0
  3  4  1  0  0  0  0
  3  2  1  0  0  0  0
  4 11  1  6  0  0  0
  4  5  1  0  0  0  0
  5 13  1  0  0  0  0
  5 12  1  0  0  0  0
  8  2  1  0  0  0  0
  9  3  1  0  0  0  0
 10  3  1  0  0  0  0
 14 20  1  0  0  0  0
 14 19  1  0  0  0  0
 15 14  2  0  0  0  0
 16 15  1  0  0  0  0
 16 17  2  0  0  0  0
 17 18  1  0  0  0  0
 18 19  2  0  0  0  0
 18 22  1  0  0  0  0
 21 15  1  0  0  0  0
 23 26  1  6  0  0  0
 23  4  1  0  0  0  0
 23 24  1  0  0  0  0
 24 28  1  0  0  0  0
 24 27  1  0  0  0  0
 25 29  1  6  0  0  0
 25 23  1  0  0  0  0
 25 24  1  0  0  0  0
 30 25  1  0  0  0  0
 32 31  2  6  0  0  0
 32 35  1  0  0  0  0
 32 33  1  0  0  0  0
 32 30  1  0  0  0  0
 33 34  1  0  0  0  0
 36 41  1  0  0  0  0
 36 35  1  0  0  0  0
 37 36  2  0  0  0  0
 38 37  1  0  0  0  0
 39 37  1  0  0  0  0
 39 40  2  0  0  0  0
 40 41  1  0  0  0  0
M  END
>  <minimizedAffinity>
-5.28511429

>  <minimizedRMSD>
1.85926843

$$$$
