
 OpenBabel03252502423D

 21 22  0  0  0  0  0  0  0  0999 V2000
   45.6530   34.6200   41.4720 C   0  0  0  0  0  0  0  0  0  0  0  0
   44.8970   33.9890   41.0010 H   0  0  0  0  0  0  0  0  0  0  0  0
   45.5480   35.6300   41.0460 H   0  0  0  0  0  0  0  0  0  0  0  0
   44.5200   35.8450   44.8560 C   0  0  0  0  0  0  0  0  0  0  0  0
   44.7540   35.7800   43.4560 C   0  0  0  0  0  0  0  0  0  0  0  0
   45.4130   34.6790   42.9320 C   0  0  0  0  0  0  0  0  0  0  0  0
   45.8000   33.7140   43.8010 N   0  0  0  0  0  0  0  0  0  0  0  0
   45.5730   33.7880   45.1200 C   0  0  0  0  0  0  0  0  0  0  0  0
   44.9390   34.8440   45.6380 N   0  0  0  0  0  0  0  0  0  0  0  0
   44.0020   36.7240   45.2220 H   0  0  0  0  0  0  0  0  0  0  0  0
   44.4390   36.5610   42.7630 H   0  0  0  0  0  0  0  0  0  0  0  0
   45.9100   32.9800   45.7600 H   0  0  0  0  0  0  0  0  0  0  0  0
   47.0510   34.1040   41.2250 C   0  0  0  0  0  0  0  0  0  0  0  0
   47.0810   33.0460   41.6190 H   0  0  0  0  0  0  0  0  0  0  0  0
   47.8180   34.6570   41.7620 H   0  0  0  0  0  0  0  0  0  0  0  0
   47.3280   33.9980   39.7870 C   0  0  0  0  0  0  0  0  0  0  0  0
   48.3050   34.5880   39.0200 C   0  0  0  0  0  0  0  0  0  0  0  0
   49.0020   35.2420   39.5210 H   0  0  0  0  0  0  0  0  0  0  0  0
   48.3620   34.3380   37.6870 C   0  0  0  0  0  0  0  0  0  0  0  0
   47.3370   33.4290   37.1840 C   0  0  0  0  0  0  0  0  0  0  0  0
   46.3690   33.0160   38.7210 S   0  0  0  0  0  0  0  0  0  0  0  0
  1  6  1  0  0  0  0
  2  1  1  0  0  0  0
  3  1  1  0  0  0  0
  4 10  1  0  0  0  0
  4  9  1  0  0  0  0
  5  4  2  0  0  0  0
  6  5  1  0  0  0  0
  6  7  2  0  0  0  0
  7  8  1  0  0  0  0
  8  9  2  0  0  0  0
  8 12  1  0  0  0  0
 11  5  1  0  0  0  0
 13  1  1  0  0  0  0
 13 14  1  0  0  0  0
 13 15  1  0  0  0  0
 16 13  1  0  0  0  0
 17 18  1  0  0  0  0
 17 16  2  0  0  0  0
 19 17  1  0  0  0  0
 20 19  2  0  0  0  0
 20 21  1  0  0  0  0
 21 16  1  0  0  0  0
M  END
>  <minimizedAffinity>
-3.95542026

>  <minimizedRMSD>
1.76855862

$$$$
