
 OpenBabel03252508073D

 41 44  0  0  0  0  0  0  0  0999 V2000
   45.2180   35.8680   43.0040 C   0  0  0  0  0  0  0  0  0  0  0  0
   45.4870   34.5090   43.0400 C   0  0  0  0  0  0  0  0  0  0  0  0
   45.2970   33.7990   44.2000 C   0  0  0  0  0  0  0  0  0  0  0  0
   44.8330   34.4990   45.2950 N   0  0  0  0  0  0  0  0  0  0  0  0
   44.5740   35.8050   45.2600 C   0  0  0  0  0  0  0  0  0  0  0  0
   44.7700   36.4800   44.1090 N   0  0  0  0  0  0  0  0  0  0  0  0
   45.3700   36.4370   42.0790 H   0  0  0  0  0  0  0  0  0  0  0  0
   44.2130   36.3030   46.1460 H   0  0  0  0  0  0  0  0  0  0  0  0
   45.5250   32.4170   44.3930 C   0  0  0  0  0  0  0  0  0  0  0  0
   45.0760   31.4190   43.5260 C   0  0  0  0  0  0  0  0  0  0  0  0
   45.2390   30.0770   43.7470 C   0  0  0  0  0  0  0  0  0  0  0  0
   45.8810   29.6460   44.8820 C   0  0  0  0  0  0  0  0  0  0  0  0
   46.3510   30.6500   45.7830 C   0  0  0  0  0  0  0  0  0  0  0  0
   46.9910   30.2230   46.9180 C   0  0  0  0  0  0  0  0  0  0  0  0
   47.4710   31.1420   47.8270 C   0  0  0  0  0  0  0  0  0  0  0  0
   47.3000   32.5120   47.5800 C   0  0  0  0  0  0  0  0  0  0  0  0
   46.6360   32.8960   46.4020 C   0  0  0  0  0  0  0  0  0  0  0  0
   46.1640   31.9670   45.5160 C   0  0  0  0  0  0  0  0  0  0  0  0
   44.5640   31.7090   42.6200 H   0  0  0  0  0  0  0  0  0  0  0  0
   44.8590   29.3570   43.0200 H   0  0  0  0  0  0  0  0  0  0  0  0
   46.0150   28.6070   45.0690 H   0  0  0  0  0  0  0  0  0  0  0  0
   47.1140   29.1590   47.0890 H   0  0  0  0  0  0  0  0  0  0  0  0
   47.9670   30.7410   48.7070 H   0  0  0  0  0  0  0  0  0  0  0  0
   47.7080   33.1420   48.3430 H   0  0  0  0  0  0  0  0  0  0  0  0
   46.6260   33.9650   46.3830 H   0  0  0  0  0  0  0  0  0  0  0  0
   45.9380   33.9350   41.8820 O   0  0  0  0  0  0  0  0  0  0  0  0
   47.9590   32.3060   41.5410 O   0  0  0  0  0  0  0  0  0  0  0  0
   47.5730   33.7430   41.4820 P   0  0  1  0  0  0  0  0  0  0  0  0
   47.8680   34.2680   39.9000 O   0  0  0  0  0  0  0  0  0  0  0  0
   48.4420   33.3990   38.9280 C   0  0  0  0  0  0  0  0  0  0  0  0
   49.2040   32.2110   38.6910 C   0  0  0  0  0  0  0  0  0  0  0  0
   49.4260   31.8280   39.6670 H   0  0  0  0  0  0  0  0  0  0  0  0
   49.4000   31.9490   37.3660 C   0  0  0  0  0  3  0  0  0  0  0  0
   48.9300   32.7240   36.3660 C   0  0  0  0  0  3  0  0  0  0  0  0
   48.0640   34.0550   37.1910 S   0  0  0  0  0  0  0  0  0  0  0  0
   48.4890   34.6630   42.5400 O   0  0  0  0  0  0  0  0  0  0  0  0
   49.7000   35.2810   42.2670 C   0  0  0  0  0  0  0  0  0  0  0  0
   49.3890   36.3550   41.7180 O   0  0  0  0  0  0  0  0  0  0  0  0
   50.8020   34.4660   42.7110 N   0  0  0  0  0  0  0  0  0  0  0  0
   51.5250   33.9420   42.1650 H   0  0  0  0  0  0  0  0  0  0  0  0
   50.9180   34.3670   43.7440 H   0  0  0  0  0  0  0  0  0  0  0  0
  1  2  2  0  0  0  0
  1  6  1  0  0  0  0
  2  3  1  0  0  0  0
  3  9  1  0  0  0  0
  3  4  2  0  0  0  0
  5  4  1  0  0  0  0
  5  8  1  0  0  0  0
  6  5  2  0  0  0  0
  7  1  1  0  0  0  0
  9 18  1  0  0  0  0
 10 11  1  0  0  0  0
 10  9  2  0  0  0  0
 11 12  2  0  0  0  0
 12 21  1  0  0  0  0
 12 13  1  0  0  0  0
 13 14  1  0  0  0  0
 14 22  1  0  0  0  0
 14 15  2  0  0  0  0
 15 23  1  0  0  0  0
 16 15  1  0  0  0  0
 16 24  1  0  0  0  0
 17 16  2  0  0  0  0
 18 13  2  0  0  0  0
 18 17  1  0  0  0  0
 19 10  1  0  0  0  0
 20 11  1  0  0  0  0
 25 17  1  0  0  0  0
 26  2  1  0  0  0  0
 28 27  2  1  0  0  0
 28 26  1  0  0  0  0
 28 36  1  0  0  0  0
 29 28  1  0  0  0  0
 30 29  1  0  0  0  0
 31 30  2  0  0  0  0
 31 32  1  0  0  0  0
 33 31  1  0  0  0  0
 34 35  1  0  0  0  0
 34 33  2  0  0  0  0
 35 30  1  0  0  0  0
 37 36  1  0  0  0  0
 37 39  1  0  0  0  0
 38 37  2  0  0  0  0
 39 41  1  0  0  0  0
 40 39  1  0  0  0  0
M  END
>  <minimizedAffinity>
-6.06253624

>  <minimizedRMSD>
0.768579602

$$$$
