
 OpenBabel03252500263D

 34 36  0  0  1  0  0  0  0  0999 V2000
   38.3180   27.3870   43.3050 C   0  0  2  0  0  0  0  0  0  0  0  0
   38.4300   28.5970   42.4570 C   0  0  2  0  0  0  0  0  0  0  0  0
   39.7630   29.1420   42.8110 C   0  0  0  0  0  0  0  0  0  0  0  0
   40.5700   28.0700   43.1620 O   0  0  0  0  0  0  0  0  0  0  0  0
   39.7990   26.9600   43.2850 C   0  0  0  0  0  0  0  0  0  0  0  0
   38.0870   27.3640   44.3240 H   0  0  0  0  0  0  0  0  0  0  0  0
   38.3250   28.2280   41.4080 H   0  0  0  0  0  0  0  0  0  0  0  0
   39.8130   30.0230   43.4200 H   0  0  0  0  0  0  0  0  0  0  0  0
   40.2060   29.4750   41.8210 H   0  0  0  0  0  0  0  0  0  0  0  0
   39.8540   26.3170   42.3570 H   0  0  0  0  0  0  0  0  0  0  0  0
   40.0610   26.2960   44.1100 H   0  0  0  0  0  0  0  0  0  0  0  0
   37.4110   29.5090   42.6460 O   0  0  0  0  0  0  0  0  0  0  0  0
   35.6580   28.6110   40.9880 O   0  0  0  0  0  0  0  0  0  0  0  0
   36.6020   29.7630   41.2110 P   0  0  1  0  0  0  0  0  0  0  0  0
   35.6910   31.1880   41.3280 O   0  0  0  0  0  0  0  0  0  0  0  0
   35.0060   31.1710   40.6150 H   0  0  0  0  0  0  0  0  0  0  0  0
   37.6640   29.8370   39.8720 O   0  0  0  0  0  0  0  0  0  0  0  0
   39.6710   32.1490   38.0530 C   0  0  0  0  0  0  0  0  0  0  0  0
   40.0950   33.0880   39.0320 C   0  0  0  0  0  0  0  0  0  0  0  0
   39.6530   32.8790   40.3420 C   0  0  0  0  0  0  0  0  0  0  0  0
   38.8620   31.8130   40.5930 N   0  0  0  0  0  0  0  0  0  0  0  0
   38.4820   30.9440   39.6260 C   0  0  0  0  0  0  0  0  0  0  0  0
   38.8950   31.1240   38.3610 N   0  0  0  0  0  0  0  0  0  0  0  0
   40.7270   33.9240   38.7950 H   0  0  0  0  0  0  0  0  0  0  0  0
   39.9470   33.5630   41.1240 H   0  0  0  0  0  0  0  0  0  0  0  0
   40.1100   32.3640   36.7600 O   0  0  0  0  0  0  0  0  0  0  0  0
   39.3950   32.6850   36.1000 H   0  0  0  0  0  0  0  0  0  0  0  0
   37.4840   26.4290   42.7470 O   0  0  0  0  0  0  0  0  0  0  0  0
   37.5930   25.4530   41.9780 C   0  0  0  0  0  0  0  0  0  0  0  0
   37.5610   23.9750   41.9610 C   0  0  0  0  0  0  0  0  0  0  0  0
   37.3810   23.6630   42.9690 H   0  0  0  0  0  0  0  0  0  0  0  0
   37.7480   23.3170   40.7790 C   0  0  0  0  0  3  0  0  0  0  0  0
   37.9710   24.0590   39.5740 C   0  0  0  0  0  3  0  0  0  0  0  0
   37.9150   25.8140   40.1440 S   0  0  0  0  0  0  0  0  0  0  0  0
  1  6  1  1  0  0  0
  2  7  1  6  0  0  0
  2 12  1  0  0  0  0
  2  3  1  0  0  0  0
  2  1  1  0  0  0  0
  3  4  1  0  0  0  0
  3  8  1  0  0  0  0
  4  5  1  0  0  0  0
  5  1  1  0  0  0  0
  5 11  1  0  0  0  0
  9  3  1  0  0  0  0
 10  5  1  0  0  0  0
 14 13  2  6  0  0  0
 14 15  1  0  0  0  0
 14 12  1  0  0  0  0
 16 15  1  0  0  0  0
 17 14  1  0  0  0  0
 18 23  2  0  0  0  0
 18 19  1  0  0  0  0
 19 20  2  0  0  0  0
 20 21  1  0  0  0  0
 20 25  1  0  0  0  0
 22 17  1  0  0  0  0
 22 21  2  0  0  0  0
 23 22  1  0  0  0  0
 24 19  1  0  0  0  0
 26 18  1  0  0  0  0
 27 26  1  0  0  0  0
 28  1  1  0  0  0  0
 29 28  1  0  0  0  0
 30 29  2  0  0  0  0
 30 31  1  0  0  0  0
 32 30  1  0  0  0  0
 33 34  1  0  0  0  0
 33 32  2  0  0  0  0
 34 29  1  0  0  0  0
M  END
>  <minimizedAffinity>
-5.74012423

$$$$

 OpenBabel03252500263D

 34 36  0  0  1  0  0  0  0  0999 V2000
   37.5170   26.5920   42.2810 C   0  0  2  0  0  0  0  0  0  0  0  0
   37.2580   28.0100   41.9340 C   0  0  2  0  0  0  0  0  0  0  0  0
   37.8200   28.7530   43.0870 C   0  0  0  0  0  0  0  0  0  0  0  0
   38.8770   28.0080   43.5870 O   0  0  0  0  0  0  0  0  0  0  0  0
   38.8640   26.7810   43.0070 C   0  0  0  0  0  0  0  0  0  0  0  0
   36.9710   26.0110   42.9580 H   0  0  0  0  0  0  0  0  0  0  0  0
   37.7780   28.1690   40.9590 H   0  0  0  0  0  0  0  0  0  0  0  0
   37.1440   29.1950   43.7920 H   0  0  0  0  0  0  0  0  0  0  0  0
   38.3420   29.6460   42.6210 H   0  0  0  0  0  0  0  0  0  0  0  0
   39.6070   26.7190   42.1590 H   0  0  0  0  0  0  0  0  0  0  0  0
   39.1100   25.9480   43.6670 H   0  0  0  0  0  0  0  0  0  0  0  0
   35.9260   28.2960   41.7090 O   0  0  0  0  0  0  0  0  0  0  0  0
   34.5310   29.2410   39.7630 O   0  0  0  0  0  0  0  0  0  0  0  0
   35.7880   29.4890   40.5530 P   0  0  1  0  0  0  0  0  0  0  0  0
   35.6510   30.9950   41.3190 O   0  0  0  0  0  0  0  0  0  0  0  0
   35.2800   31.6370   40.6640 H   0  0  0  0  0  0  0  0  0  0  0  0
   37.1030   29.4880   39.4600 O   0  0  0  0  0  0  0  0  0  0  0  0
   39.2430   31.9140   37.9700 C   0  0  0  0  0  0  0  0  0  0  0  0
   39.7660   32.6410   39.0730 C   0  0  0  0  0  0  0  0  0  0  0  0
   39.3410   32.2500   40.3470 C   0  0  0  0  0  0  0  0  0  0  0  0
   38.4740   31.2200   40.4490 N   0  0  0  0  0  0  0  0  0  0  0  0
   38.0010   30.5550   39.3680 C   0  0  0  0  0  0  0  0  0  0  0  0
   38.3950   30.9130   38.1350 N   0  0  0  0  0  0  0  0  0  0  0  0
   40.4560   33.4560   38.9520 H   0  0  0  0  0  0  0  0  0  0  0  0
   39.7100   32.7710   41.2190 H   0  0  0  0  0  0  0  0  0  0  0  0
   39.6650   32.3080   36.7140 O   0  0  0  0  0  0  0  0  0  0  0  0
   38.9610   32.7880   36.1430 H   0  0  0  0  0  0  0  0  0  0  0  0
   37.6300   25.7870   41.1570 O   0  0  0  0  0  0  0  0  0  0  0  0
   36.8700   25.1270   40.4200 C   0  0  0  0  0  0  0  0  0  0  0  0
   36.1500   23.8380   40.3480 C   0  0  0  0  0  0  0  0  0  0  0  0
   36.3770   23.3110   41.2520 H   0  0  0  0  0  0  0  0  0  0  0  0
   35.3880   23.5600   39.2500 C   0  0  0  0  0  3  0  0  0  0  0  0
   35.2940   24.5120   38.1840 C   0  0  0  0  0  3  0  0  0  0  0  0
   36.3560   25.9050   38.7690 S   0  0  0  0  0  0  0  0  0  0  0  0
  1  6  1  1  0  0  0
  1  5  1  0  0  0  0
  2  7  1  6  0  0  0
  2  1  1  0  0  0  0
  2  3  1  0  0  0  0
  3  4  1  0  0  0  0
  3  8  1  0  0  0  0
  5  4  1  0  0  0  0
  5 11  1  0  0  0  0
  9  3  1  0  0  0  0
 10  5  1  0  0  0  0
 12  2  1  0  0  0  0
 14 13  2  6  0  0  0
 14 15  1  0  0  0  0
 14 12  1  0  0  0  0
 16 15  1  0  0  0  0
 17 14  1  0  0  0  0
 18 23  2  0  0  0  0
 18 19  1  0  0  0  0
 19 20  2  0  0  0  0
 20 21  1  0  0  0  0
 20 25  1  0  0  0  0
 22 17  1  0  0  0  0
 22 21  2  0  0  0  0
 23 22  1  0  0  0  0
 24 19  1  0  0  0  0
 26 18  1  0  0  0  0
 27 26  1  0  0  0  0
 28  1  1  0  0  0  0
 29 28  1  0  0  0  0
 30 29  2  0  0  0  0
 30 31  1  0  0  0  0
 32 30  1  0  0  0  0
 33 34  1  0  0  0  0
 33 32  2  0  0  0  0
 34 29  1  0  0  0  0
M  END
>  <minimizedAffinity>
-5.73805428

$$$$

 OpenBabel03252500263D

 34 36  0  0  1  0  0  0  0  0999 V2000
   40.3370   28.7470   41.9150 C   0  0  2  0  0  0  0  0  0  0  0  0
   39.5160   28.0470   42.9320 C   0  0  2  0  0  0  0  0  0  0  0  0
   40.5080   27.2300   43.6710 C   0  0  0  0  0  0  0  0  0  0  0  0
   41.7160   27.9100   43.6350 O   0  0  0  0  0  0  0  0  0  0  0  0
   41.6170   28.9370   42.7530 C   0  0  0  0  0  0  0  0  0  0  0  0
   40.7030   28.3380   41.0260 H   0  0  0  0  0  0  0  0  0  0  0  0
   39.0280   28.8600   43.5210 H   0  0  0  0  0  0  0  0  0  0  0  0
   40.5290   26.1710   43.5040 H   0  0  0  0  0  0  0  0  0  0  0  0
   40.2000   27.3240   44.7580 H   0  0  0  0  0  0  0  0  0  0  0  0
   41.4190   29.9160   43.2810 H   0  0  0  0  0  0  0  0  0  0  0  0
   42.5020   29.1150   42.1400 H   0  0  0  0  0  0  0  0  0  0  0  0
   38.4900   27.2920   42.3990 O   0  0  0  0  0  0  0  0  0  0  0  0
   36.2230   27.1110   43.6040 O   0  0  0  0  0  0  0  0  0  0  0  0
   37.0250   28.0210   42.7120 P   0  0  1  0  0  0  0  0  0  0  0  0
   37.2910   29.4790   43.5340 O   0  0  0  0  0  0  0  0  0  0  0  0
   36.4420   29.7440   43.9670 H   0  0  0  0  0  0  0  0  0  0  0  0
   36.1170   28.2910   41.2880 O   0  0  0  0  0  0  0  0  0  0  0  0
   36.7430   31.5510   39.9970 C   0  0  0  0  0  0  0  0  0  0  0  0
   37.0890   31.3270   38.6370 C   0  0  0  0  0  0  0  0  0  0  0  0
   37.0940   29.9990   38.1970 C   0  0  0  0  0  0  0  0  0  0  0  0
   36.7740   29.0270   39.0770 N   0  0  0  0  0  0  0  0  0  0  0  0
   36.4500   29.2880   40.3660 C   0  0  0  0  0  0  0  0  0  0  0  0
   36.4390   30.5550   40.8120 N   0  0  0  0  0  0  0  0  0  0  0  0
   37.3370   32.1270   37.9650 H   0  0  0  0  0  0  0  0  0  0  0  0
   37.3490   29.7750   37.1710 H   0  0  0  0  0  0  0  0  0  0  0  0
   36.7420   32.8650   40.4260 O   0  0  0  0  0  0  0  0  0  0  0  0
   37.5090   33.1230   41.0550 H   0  0  0  0  0  0  0  0  0  0  0  0
   39.7760   29.9550   41.5270 O   0  0  0  0  0  0  0  0  0  0  0  0
   40.1310   30.9710   40.8960 C   0  0  0  0  0  0  0  0  0  0  0  0
   40.2300   32.4410   41.0190 C   0  0  0  0  0  0  0  0  0  0  0  0
   39.8650   32.6910   41.9940 H   0  0  0  0  0  0  0  0  0  0  0  0
   40.7230   33.1660   39.9720 C   0  0  0  0  0  3  0  0  0  0  0  0
   41.1360   32.5020   38.7720 C   0  0  0  0  0  3  0  0  0  0  0  0
   40.8080   30.7220   39.1420 S   0  0  0  0  0  0  0  0  0  0  0  0
  1  6  1  6  0  0  0
  1  5  1  0  0  0  0
  1  2  1  0  0  0  0
  2  7  1  1  0  0  0
  2  3  1  0  0  0  0
  3  9  1  0  0  0  0
  4  3  1  0  0  0  0
  5 10  1  0  0  0  0
  5  4  1  0  0  0  0
  8  3  1  0  0  0  0
 11  5  1  0  0  0  0
 12 14  1  0  0  0  0
 12  2  1  0  0  0  0
 14 15  1  0  0  0  0
 14 13  2  1  0  0  0
 15 16  1  0  0  0  0
 17 14  1  0  0  0  0
 18 26  1  0  0  0  0
 18 23  1  0  0  0  0
 19 18  2  0  0  0  0
 20 19  1  0  0  0  0
 20 21  2  0  0  0  0
 21 22  1  0  0  0  0
 22 23  2  0  0  0  0
 22 17  1  0  0  0  0
 24 19  1  0  0  0  0
 25 20  1  0  0  0  0
 26 27  1  0  0  0  0
 28  1  1  0  0  0  0
 29 30  2  0  0  0  0
 29 28  1  0  0  0  0
 30 31  1  0  0  0  0
 32 30  1  0  0  0  0
 33 34  1  0  0  0  0
 33 32  2  0  0  0  0
 34 29  1  0  0  0  0
M  END
>  <minimizedAffinity>
-5.14997149

$$$$

 OpenBabel03252500263D

 34 36  0  0  1  0  0  0  0  0999 V2000
   38.5820   29.0820   37.9110 C   0  0  2  0  0  0  0  0  0  0  0  0
   37.5970   29.4290   38.9630 C   0  0  2  0  0  0  0  0  0  0  0  0
   36.5400   28.4030   38.7940 C   0  0  0  0  0  0  0  0  0  0  0  0
   37.1480   27.2540   38.3120 O   0  0  0  0  0  0  0  0  0  0  0  0
   38.4220   27.5500   37.9500 C   0  0  0  0  0  0  0  0  0  0  0  0
   38.4990   29.2960   36.8910 H   0  0  0  0  0  0  0  0  0  0  0  0
   38.1670   29.3790   39.9220 H   0  0  0  0  0  0  0  0  0  0  0  0
   35.6070   28.6950   38.3530 H   0  0  0  0  0  0  0  0  0  0  0  0
   36.2560   28.1110   39.8530 H   0  0  0  0  0  0  0  0  0  0  0  0
   39.1580   27.2490   38.7520 H   0  0  0  0  0  0  0  0  0  0  0  0
   38.7750   27.0630   37.0390 H   0  0  0  0  0  0  0  0  0  0  0  0
   37.1120   30.7180   38.8730 O   0  0  0  0  0  0  0  0  0  0  0  0
   37.2220   32.9310   40.1840 O   0  0  0  0  0  0  0  0  0  0  0  0
   37.1310   31.4400   40.3750 P   0  0  1  0  0  0  0  0  0  0  0  0
   35.6820   31.0890   41.1820 O   0  0  0  0  0  0  0  0  0  0  0  0
   35.5760   31.7430   41.9160 H   0  0  0  0  0  0  0  0  0  0  0  0
   38.4750   30.9500   41.3130 O   0  0  0  0  0  0  0  0  0  0  0  0
   37.2530   28.1750   43.1820 C   0  0  0  0  0  0  0  0  0  0  0  0
   38.4090   27.3920   43.4410 C   0  0  0  0  0  0  0  0  0  0  0  0
   39.6230   27.8720   42.9380 C   0  0  0  0  0  0  0  0  0  0  0  0
   39.6210   29.0330   42.2480 N   0  0  0  0  0  0  0  0  0  0  0  0
   38.4910   29.7470   42.0250 C   0  0  0  0  0  0  0  0  0  0  0  0
   37.3150   29.3060   42.4980 N   0  0  0  0  0  0  0  0  0  0  0  0
   38.3720   26.4730   43.9950 H   0  0  0  0  0  0  0  0  0  0  0  0
   40.5330   27.3150   43.1070 H   0  0  0  0  0  0  0  0  0  0  0  0
   36.0560   27.6940   43.6800 O   0  0  0  0  0  0  0  0  0  0  0  0
   35.4040   27.3260   42.9790 H   0  0  0  0  0  0  0  0  0  0  0  0
   39.8670   29.4880   38.2390 O   0  0  0  0  0  0  0  0  0  0  0  0
   40.5960   30.4800   38.0360 C   0  0  0  0  0  0  0  0  0  0  0  0
   40.7250   31.9160   38.3630 C   0  0  0  0  0  0  0  0  0  0  0  0
   39.8930   32.1620   38.9900 H   0  0  0  0  0  0  0  0  0  0  0  0
   41.7800   32.6230   37.8610 C   0  0  0  0  0  3  0  0  0  0  0  0
   42.7460   31.9710   37.0280 C   0  0  0  0  0  3  0  0  0  0  0  0
   42.1260   30.2340   36.9430 S   0  0  0  0  0  0  0  0  0  0  0  0
  1  6  1  6  0  0  0
  1  5  1  0  0  0  0
  1 28  1  0  0  0  0
  1  2  1  0  0  0  0
  2  7  1  1  0  0  0
  3  2  1  0  0  0  0
  3  9  1  0  0  0  0
  4  3  1  0  0  0  0
  5  4  1  0  0  0  0
  5 10  1  0  0  0  0
  8  3  1  0  0  0  0
 11  5  1  0  0  0  0
 12  2  1  0  0  0  0
 12 14  1  0  0  0  0
 14 13  2  6  0  0  0
 14 15  1  0  0  0  0
 14 17  1  0  0  0  0
 15 16  1  0  0  0  0
 17 22  1  0  0  0  0
 18 19  1  0  0  0  0
 18 26  1  0  0  0  0
 19 24  1  0  0  0  0
 20 25  1  0  0  0  0
 20 19  2  0  0  0  0
 21 20  1  0  0  0  0
 22 21  2  0  0  0  0
 22 23  1  0  0  0  0
 23 18  2  0  0  0  0
 27 26  1  0  0  0  0
 29 28  1  0  0  0  0
 29 30  2  0  0  0  0
 30 31  1  0  0  0  0
 32 30  1  0  0  0  0
 33 32  2  0  0  0  0
 34 33  1  0  0  0  0
 34 29  1  0  0  0  0
M  END
>  <minimizedAffinity>
-5.08680534

$$$$

 OpenBabel03252500263D

 34 36  0  0  1  0  0  0  0  0999 V2000
   40.7550   28.3850   39.2300 C   0  0  2  0  0  0  0  0  0  0  0  0
   40.3940   29.4620   38.2780 C   0  0  2  0  0  0  0  0  0  0  0  0
   41.3520   29.2690   37.1620 C   0  0  0  0  0  0  0  0  0  0  0  0
   41.6500   27.9160   37.0990 O   0  0  0  0  0  0  0  0  0  0  0  0
   41.1570   27.3050   38.2060 C   0  0  0  0  0  0  0  0  0  0  0  0
   41.5670   28.3890   39.8890 H   0  0  0  0  0  0  0  0  0  0  0  0
   39.3210   29.2800   38.0270 H   0  0  0  0  0  0  0  0  0  0  0  0
   42.1630   29.9620   37.0560 H   0  0  0  0  0  0  0  0  0  0  0  0
   40.7340   29.4330   36.2260 H   0  0  0  0  0  0  0  0  0  0  0  0
   40.1710   26.7970   37.9900 H   0  0  0  0  0  0  0  0  0  0  0  0
   41.7920   26.5290   38.6350 H   0  0  0  0  0  0  0  0  0  0  0  0
   40.4510   30.7310   38.8200 O   0  0  0  0  0  0  0  0  0  0  0  0
   38.9860   32.8420   38.9710 O   0  0  0  0  0  0  0  0  0  0  0  0
   39.3820   31.7360   38.0290 P   0  0  1  0  0  0  0  0  0  0  0  0
   40.1530   32.4250   36.6860 O   0  0  0  0  0  0  0  0  0  0  0  0
   39.6320   33.2190   36.4100 H   0  0  0  0  0  0  0  0  0  0  0  0
   37.9570   30.9190   37.5510 O   0  0  0  0  0  0  0  0  0  0  0  0
   35.9900   30.3310   40.4600 C   0  0  0  0  0  0  0  0  0  0  0  0
   35.5470   28.9890   40.3170 C   0  0  0  0  0  0  0  0  0  0  0  0
   35.9630   28.3050   39.1690 C   0  0  0  0  0  0  0  0  0  0  0  0
   36.7480   28.9540   38.2820 N   0  0  0  0  0  0  0  0  0  0  0  0
   37.1450   30.2360   38.4610 C   0  0  0  0  0  0  0  0  0  0  0  0
   36.7590   30.9120   39.5550 N   0  0  0  0  0  0  0  0  0  0  0  0
   34.9230   28.5050   41.0450 H   0  0  0  0  0  0  0  0  0  0  0  0
   35.6550   27.2820   39.0120 H   0  0  0  0  0  0  0  0  0  0  0  0
   35.5730   31.0010   41.5960 O   0  0  0  0  0  0  0  0  0  0  0  0
   34.8700   31.7310   41.4430 H   0  0  0  0  0  0  0  0  0  0  0  0
   39.6810   27.9960   40.0160 O   0  0  0  0  0  0  0  0  0  0  0  0
   39.1830   28.3180   41.1130 C   0  0  0  0  0  0  0  0  0  0  0  0
   39.0560   29.4590   42.0450 C   0  0  0  0  0  0  0  0  0  0  0  0
   39.5840   30.2770   41.5970 H   0  0  0  0  0  0  0  0  0  0  0  0
   38.3560   29.2990   43.2060 C   0  0  0  0  0  3  0  0  0  0  0  0
   37.7550   28.0350   43.5100 C   0  0  0  0  0  3  0  0  0  0  0  0
   38.2060   26.9930   42.0550 S   0  0  0  0  0  0  0  0  0  0  0  0
  1  6  1  1  0  0  0
  1 28  1  0  0  0  0
  2  7  1  6  0  0  0
  2 12  1  0  0  0  0
  2  1  1  0  0  0  0
  3  2  1  0  0  0  0
  4  3  1  0  0  0  0
  4  5  1  0  0  0  0
  5 11  1  0  0  0  0
  5  1  1  0  0  0  0
  8  3  1  0  0  0  0
  9  3  1  0  0  0  0
 10  5  1  0  0  0  0
 14 12  1  0  0  0  0
 14 13  2  1  0  0  0
 15 14  1  0  0  0  0
 16 15  1  0  0  0  0
 17 14  1  0  0  0  0
 17 22  1  0  0  0  0
 18 26  1  0  0  0  0
 19 18  1  0  0  0  0
 19 24  1  0  0  0  0
 20 19  2  0  0  0  0
 21 22  2  0  0  0  0
 21 20  1  0  0  0  0
 22 23  1  0  0  0  0
 23 18  2  0  0  0  0
 25 20  1  0  0  0  0
 27 26  1  0  0  0  0
 28 29  1  0  0  0  0
 29 30  2  0  0  0  0
 29 34  1  0  0  0  0
 30 32  1  0  0  0  0
 31 30  1  0  0  0  0
 32 33  2  0  0  0  0
 34 33  1  0  0  0  0
M  END
>  <minimizedAffinity>
-5.0697546

$$$$

 OpenBabel03252500263D

 34 36  0  0  1  0  0  0  0  0999 V2000
   38.0590   29.1210   37.9350 C   0  0  2  0  0  0  0  0  0  0  0  0
   38.1220   28.6300   39.3320 C   0  0  2  0  0  0  0  0  0  0  0  0
   38.7650   27.3000   39.2000 C   0  0  0  0  0  0  0  0  0  0  0  0
   39.6130   27.3550   38.1040 O   0  0  0  0  0  0  0  0  0  0  0  0
   39.3740   28.5020   37.4200 C   0  0  0  0  0  0  0  0  0  0  0  0
   37.3680   28.8280   37.2070 H   0  0  0  0  0  0  0  0  0  0  0  0
   38.7170   29.3980   39.8830 H   0  0  0  0  0  0  0  0  0  0  0  0
   38.1590   26.4230   39.3170 H   0  0  0  0  0  0  0  0  0  0  0  0
   39.4870   27.2450   40.0730 H   0  0  0  0  0  0  0  0  0  0  0  0
   40.1340   29.2990   37.6760 H   0  0  0  0  0  0  0  0  0  0  0  0
   39.4050   28.4150   36.3330 H   0  0  0  0  0  0  0  0  0  0  0  0
   36.8950   28.5720   39.9610 O   0  0  0  0  0  0  0  0  0  0  0  0
   38.3560   29.8850   41.6250 O   0  0  0  0  0  0  0  0  0  0  0  0
   37.0060   29.2310   41.4880 P   0  0  1  0  0  0  0  0  0  0  0  0
   35.8120   30.4200   41.6710 O   0  0  0  0  0  0  0  0  0  0  0  0
   36.0680   30.9930   42.4360 H   0  0  0  0  0  0  0  0  0  0  0  0
   36.8710   28.0480   42.7160 O   0  0  0  0  0  0  0  0  0  0  0  0
   38.3290   24.8130   42.4050 C   0  0  0  0  0  0  0  0  0  0  0  0
   39.5620   24.9180   43.1020 C   0  0  0  0  0  0  0  0  0  0  0  0
   39.8580   26.1580   43.6800 C   0  0  0  0  0  0  0  0  0  0  0  0
   38.9670   27.1630   43.5410 N   0  0  0  0  0  0  0  0  0  0  0  0
   37.8020   27.0160   42.8660 C   0  0  0  0  0  0  0  0  0  0  0  0
   37.4960   25.8360   42.3040 N   0  0  0  0  0  0  0  0  0  0  0  0
   40.2470   24.0950   43.1920 H   0  0  0  0  0  0  0  0  0  0  0  0
   40.7840   26.2900   44.2210 H   0  0  0  0  0  0  0  0  0  0  0  0
   38.0440   23.5870   41.8350 O   0  0  0  0  0  0  0  0  0  0  0  0
   38.1000   23.5530   40.8120 H   0  0  0  0  0  0  0  0  0  0  0  0
   38.0620   30.5050   37.8630 O   0  0  0  0  0  0  0  0  0  0  0  0
   38.5180   31.4580   38.5280 C   0  0  0  0  0  0  0  0  0  0  0  0
   39.7910   32.0490   38.9930 C   0  0  0  0  0  0  0  0  0  0  0  0
   40.5730   31.4240   38.6140 H   0  0  0  0  0  0  0  0  0  0  0  0
   39.7620   33.1830   39.7530 C   0  0  0  0  0  3  0  0  0  0  0  0
   38.5070   33.7860   40.0910 C   0  0  0  0  0  3  0  0  0  0  0  0
   37.2740   32.6770   39.2790 S   0  0  0  0  0  0  0  0  0  0  0  0
  1  6  1  6  0  0  0
  1  2  1  0  0  0  0
  2  7  1  1  0  0  0
  2 12  1  0  0  0  0
  3  8  1  0  0  0  0
  3  2  1  0  0  0  0
  3  9  1  0  0  0  0
  4  3  1  0  0  0  0
  5 10  1  0  0  0  0
  5  1  1  0  0  0  0
  5  4  1  0  0  0  0
 11  5  1  0  0  0  0
 12 14  1  0  0  0  0
 14 13  2  1  0  0  0
 14 15  1  0  0  0  0
 14 17  1  0  0  0  0
 15 16  1  0  0  0  0
 17 22  1  0  0  0  0
 18 19  1  0  0  0  0
 19 24  1  0  0  0  0
 19 20  2  0  0  0  0
 20 25  1  0  0  0  0
 21 20  1  0  0  0  0
 22 21  2  0  0  0  0
 23 18  2  0  0  0  0
 23 22  1  0  0  0  0
 26 18  1  0  0  0  0
 27 26  1  0  0  0  0
 28  1  1  0  0  0  0
 28 29  1  0  0  0  0
 29 30  2  0  0  0  0
 29 34  1  0  0  0  0
 30 32  1  0  0  0  0
 31 30  1  0  0  0  0
 32 33  2  0  0  0  0
 34 33  1  0  0  0  0
M  END
>  <minimizedAffinity>
-5.00436592

$$$$

 OpenBabel03252500263D

 34 36  0  0  1  0  0  0  0  0999 V2000
   36.2670   28.3200   41.3340 C   0  0  2  0  0  0  0  0  0  0  0  0
   37.1090   29.5340   41.2090 C   0  0  2  0  0  0  0  0  0  0  0  0
   37.7940   29.6130   42.5210 C   0  0  0  0  0  0  0  0  0  0  0  0
   37.9450   28.3170   42.9910 O   0  0  0  0  0  0  0  0  0  0  0  0
   37.2150   27.4800   42.2130 C   0  0  0  0  0  0  0  0  0  0  0  0
   35.3570   28.2480   41.8450 H   0  0  0  0  0  0  0  0  0  0  0  0
   37.7710   29.3380   40.3320 H   0  0  0  0  0  0  0  0  0  0  0  0
   37.4790   30.3620   43.2210 H   0  0  0  0  0  0  0  0  0  0  0  0
   38.8580   29.9140   42.2680 H   0  0  0  0  0  0  0  0  0  0  0  0
   37.8620   26.9620   41.4450 H   0  0  0  0  0  0  0  0  0  0  0  0
   36.7010   26.6760   42.7430 H   0  0  0  0  0  0  0  0  0  0  0  0
   36.3990   30.6780   40.9040 O   0  0  0  0  0  0  0  0  0  0  0  0
   36.9410   31.4780   38.5180 O   0  0  0  0  0  0  0  0  0  0  0  0
   37.3270   31.6880   39.9580 P   0  0  1  0  0  0  0  0  0  0  0  0
   36.9990   33.2990   40.3720 O   0  0  0  0  0  0  0  0  0  0  0  0
   37.3130   33.8740   39.6300 H   0  0  0  0  0  0  0  0  0  0  0  0
   38.9990   31.3590   40.1050 O   0  0  0  0  0  0  0  0  0  0  0  0
   41.3020   31.4130   37.3890 C   0  0  0  0  0  0  0  0  0  0  0  0
   41.8010   32.7430   37.3810 C   0  0  0  0  0  0  0  0  0  0  0  0
   41.3020   33.6110   38.3580 C   0  0  0  0  0  0  0  0  0  0  0  0
   40.3900   33.1390   39.2340 N   0  0  0  0  0  0  0  0  0  0  0  0
   39.9430   31.8610   39.2040 C   0  0  0  0  0  0  0  0  0  0  0  0
   40.4080   31.0090   38.2750 N   0  0  0  0  0  0  0  0  0  0  0  0
   42.5290   33.0830   36.6670 H   0  0  0  0  0  0  0  0  0  0  0  0
   41.6490   34.6330   38.3960 H   0  0  0  0  0  0  0  0  0  0  0  0
   41.7980   30.5620   36.4190 O   0  0  0  0  0  0  0  0  0  0  0  0
   41.1420   30.3160   35.6710 H   0  0  0  0  0  0  0  0  0  0  0  0
   36.0150   27.7250   40.1080 O   0  0  0  0  0  0  0  0  0  0  0  0
   36.0750   28.0440   38.9030 C   0  0  0  0  0  0  0  0  0  0  0  0
   36.9960   28.0580   37.7470 C   0  0  0  0  0  0  0  0  0  0  0  0
   37.9230   27.6480   38.0910 H   0  0  0  0  0  0  0  0  0  0  0  0
   36.5560   28.5440   36.5480 C   0  0  0  0  0  3  0  0  0  0  0  0
   35.2150   29.0320   36.4230 C   0  0  0  0  0  3  0  0  0  0  0  0
   34.5190   28.7910   38.1160 S   0  0  0  0  0  0  0  0  0  0  0  0
  1  6  1  1  0  0  0
  1  5  1  0  0  0  0
  2  7  1  6  0  0  0
  2  1  1  0  0  0  0
  2  3  1  0  0  0  0
  3  4  1  0  0  0  0
  3  8  1  0  0  0  0
  5 11  1  0  0  0  0
  5  4  1  0  0  0  0
  9  3  1  0  0  0  0
 10  5  1  0  0  0  0
 12  2  1  0  0  0  0
 14 13  2  6  0  0  0
 14 17  1  0  0  0  0
 14 15  1  0  0  0  0
 14 12  1  0  0  0  0
 16 15  1  0  0  0  0
 18 23  1  0  0  0  0
 19 18  2  0  0  0  0
 19 20  1  0  0  0  0
 20 25  1  0  0  0  0
 20 21  2  0  0  0  0
 22 21  1  0  0  0  0
 22 17  1  0  0  0  0
 23 22  2  0  0  0  0
 24 19  1  0  0  0  0
 26 18  1  0  0  0  0
 27 26  1  0  0  0  0
 28  1  1  0  0  0  0
 29 28  1  0  0  0  0
 30 31  1  0  0  0  0
 30 29  2  0  0  0  0
 32 30  1  0  0  0  0
 33 32  2  0  0  0  0
 33 34  1  0  0  0  0
 34 29  1  0  0  0  0
M  END
>  <minimizedAffinity>
-4.9515028

$$$$

 OpenBabel03252500263D

 34 36  0  0  1  0  0  0  0  0999 V2000
   36.4110   30.3450   38.4740 C   0  0  2  0  0  0  0  0  0  0  0  0
   36.7050   29.3660   39.5480 C   0  0  2  0  0  0  0  0  0  0  0  0
   35.9100   28.1780   39.1560 C   0  0  0  0  0  0  0  0  0  0  0  0
   35.8260   28.1710   37.7720 O   0  0  0  0  0  0  0  0  0  0  0  0
   36.2870   29.3560   37.2980 C   0  0  0  0  0  0  0  0  0  0  0  0
   35.5440   30.9210   38.3820 H   0  0  0  0  0  0  0  0  0  0  0  0
   37.8130   29.2320   39.5240 H   0  0  0  0  0  0  0  0  0  0  0  0
   35.0200   27.9500   39.7090 H   0  0  0  0  0  0  0  0  0  0  0  0
   36.5910   27.2960   39.3700 H   0  0  0  0  0  0  0  0  0  0  0  0
   37.3550   29.2690   36.9400 H   0  0  0  0  0  0  0  0  0  0  0  0
   35.7330   29.7700   36.4530 H   0  0  0  0  0  0  0  0  0  0  0  0
   36.4020   29.8190   40.8170 O   0  0  0  0  0  0  0  0  0  0  0  0
   38.4270   30.8090   42.0590 O   0  0  0  0  0  0  0  0  0  0  0  0
   37.6760   29.5210   41.8470 P   0  0  1  0  0  0  0  0  0  0  0  0
   37.0750   28.9990   43.3430 O   0  0  0  0  0  0  0  0  0  0  0  0
   37.7910   29.1120   44.0160 H   0  0  0  0  0  0  0  0  0  0  0  0
   38.7730   28.3750   41.2070 O   0  0  0  0  0  0  0  0  0  0  0  0
   37.6380   25.1340   42.1520 C   0  0  0  0  0  0  0  0  0  0  0  0
   38.8190   24.4530   42.5500 C   0  0  0  0  0  0  0  0  0  0  0  0
   40.0180   25.1700   42.4740 C   0  0  0  0  0  0  0  0  0  0  0  0
   39.9790   26.4460   42.0340 N   0  0  0  0  0  0  0  0  0  0  0  0
   38.8270   27.0550   41.6640 C   0  0  0  0  0  0  0  0  0  0  0  0
   37.6640   26.3870   41.7290 N   0  0  0  0  0  0  0  0  0  0  0  0
   38.8110   23.4360   42.8960 H   0  0  0  0  0  0  0  0  0  0  0  0
   40.9450   24.6980   42.7650 H   0  0  0  0  0  0  0  0  0  0  0  0
   36.4570   24.4190   42.2270 O   0  0  0  0  0  0  0  0  0  0  0  0
   36.0520   24.1420   41.3270 H   0  0  0  0  0  0  0  0  0  0  0  0
   37.4430   31.2530   38.2940 O   0  0  0  0  0  0  0  0  0  0  0  0
   37.9600   32.1940   38.9310 C   0  0  0  0  0  0  0  0  0  0  0  0
   37.6120   33.4030   39.7070 C   0  0  0  0  0  0  0  0  0  0  0  0
   36.5440   33.4710   39.7040 H   0  0  0  0  0  0  0  0  0  0  0  0
   38.6130   34.1610   40.2460 C   0  0  0  0  0  3  0  0  0  0  0  0
   39.9800   33.7790   40.0570 C   0  0  0  0  0  3  0  0  0  0  0  0
   39.8520   32.2400   39.0460 S   0  0  0  0  0  0  0  0  0  0  0  0
  1  6  1  1  0  0  0
  1  2  1  0  0  0  0
  2  7  1  6  0  0  0
  2 12  1  0  0  0  0
  3  9  1  0  0  0  0
  3  2  1  0  0  0  0
  3  8  1  0  0  0  0
  4  3  1  0  0  0  0
  5  4  1  0  0  0  0
  5  1  1  0  0  0  0
 10  5  1  0  0  0  0
 11  5  1  0  0  0  0
 12 14  1  0  0  0  0
 14 13  2  1  0  0  0
 14 15  1  0  0  0  0
 15 16  1  0  0  0  0
 17 22  1  0  0  0  0
 17 14  1  0  0  0  0
 18 26  1  0  0  0  0
 18 19  1  0  0  0  0
 19 24  1  0  0  0  0
 20 19  2  0  0  0  0
 20 25  1  0  0  0  0
 21 20  1  0  0  0  0
 22 23  1  0  0  0  0
 22 21  2  0  0  0  0
 23 18  2  0  0  0  0
 27 26  1  0  0  0  0
 28  1  1  0  0  0  0
 28 29  1  0  0  0  0
 29 34  1  0  0  0  0
 29 30  2  0  0  0  0
 30 32  1  0  0  0  0
 31 30  1  0  0  0  0
 33 32  2  0  0  0  0
 34 33  1  0  0  0  0
M  END
>  <minimizedAffinity>
-4.93270159

$$$$

 OpenBabel03252500263D

 34 36  0  0  1  0  0  0  0  0999 V2000
   36.6410   31.0470   40.2570 C   0  0  2  0  0  0  0  0  0  0  0  0
   36.6220   29.5650   40.2680 C   0  0  2  0  0  0  0  0  0  0  0  0
   36.0010   29.2200   38.9670 C   0  0  0  0  0  0  0  0  0  0  0  0
   36.3310   30.2240   38.0690 O   0  0  0  0  0  0  0  0  0  0  0  0
   36.8880   31.2570   38.7500 C   0  0  0  0  0  0  0  0  0  0  0  0
   35.8280   31.6770   40.4460 H   0  0  0  0  0  0  0  0  0  0  0  0
   37.6910   29.2620   40.3860 H   0  0  0  0  0  0  0  0  0  0  0  0
   34.9920   28.8580   38.9590 H   0  0  0  0  0  0  0  0  0  0  0  0
   36.6050   28.3380   38.5880 H   0  0  0  0  0  0  0  0  0  0  0  0
   38.0160   31.2330   38.6830 H   0  0  0  0  0  0  0  0  0  0  0  0
   36.6010   32.2530   38.4080 H   0  0  0  0  0  0  0  0  0  0  0  0
   35.9500   29.0210   41.3440 O   0  0  0  0  0  0  0  0  0  0  0  0
   36.1980   27.3830   43.3150 O   0  0  0  0  0  0  0  0  0  0  0  0
   36.8620   27.8070   42.0310 P   0  0  1  0  0  0  0  0  0  0  0  0
   36.9000   26.4760   40.9820 O   0  0  0  0  0  0  0  0  0  0  0  0
   37.1750   25.6830   41.5060 H   0  0  0  0  0  0  0  0  0  0  0  0
   38.4490   28.3220   42.4070 O   0  0  0  0  0  0  0  0  0  0  0  0
   40.0440   25.2260   43.1500 C   0  0  0  0  0  0  0  0  0  0  0  0
   41.4130   25.5690   43.3120 C   0  0  0  0  0  0  0  0  0  0  0  0
   41.7500   26.9170   43.1520 C   0  0  0  0  0  0  0  0  0  0  0  0
   40.7680   27.7960   42.8580 N   0  0  0  0  0  0  0  0  0  0  0  0
   39.4740   27.4230   42.7120 C   0  0  0  0  0  0  0  0  0  0  0  0
   39.1270   26.1340   42.8610 N   0  0  0  0  0  0  0  0  0  0  0  0
   42.1670   24.8410   43.5470 H   0  0  0  0  0  0  0  0  0  0  0  0
   42.7770   27.2310   43.2650 H   0  0  0  0  0  0  0  0  0  0  0  0
   39.7190   23.8910   43.3060 O   0  0  0  0  0  0  0  0  0  0  0  0
   39.4720   23.3930   42.4450 H   0  0  0  0  0  0  0  0  0  0  0  0
   37.6620   31.5660   41.0380 O   0  0  0  0  0  0  0  0  0  0  0  0
   38.7070   32.2260   40.8630 C   0  0  0  0  0  0  0  0  0  0  0  0
   39.1850   33.6010   40.6030 C   0  0  0  0  0  0  0  0  0  0  0  0
   38.3140   34.2210   40.5520 H   0  0  0  0  0  0  0  0  0  0  0  0
   40.5260   33.8300   40.4830 C   0  0  0  0  0  3  0  0  0  0  0  0
   41.4510   32.7440   40.6100 C   0  0  0  0  0  3  0  0  0  0  0  0
   40.3550   31.2900   40.9210 S   0  0  0  0  0  0  0  0  0  0  0  0
  1  2  1  0  0  0  0
  1  6  1  1  0  0  0
  1 28  1  0  0  0  0
  2  7  1  1  0  0  0
  2 12  1  0  0  0  0
  3  2  1  0  0  0  0
  4  5  1  0  0  0  0
  4  3  1  0  0  0  0
  5  1  1  0  0  0  0
  8  3  1  0  0  0  0
  9  3  1  0  0  0  0
 10  5  1  0  0  0  0
 11  5  1  0  0  0  0
 12 14  1  0  0  0  0
 14 17  1  0  0  0  0
 14 13  2  1  0  0  0
 15 16  1  0  0  0  0
 15 14  1  0  0  0  0
 17 22  1  0  0  0  0
 18 26  1  0  0  0  0
 18 19  1  0  0  0  0
 19 24  1  0  0  0  0
 20 25  1  0  0  0  0
 20 19  2  0  0  0  0
 21 20  1  0  0  0  0
 22 21  2  0  0  0  0
 22 23  1  0  0  0  0
 23 18  2  0  0  0  0
 27 26  1  0  0  0  0
 29 34  1  0  0  0  0
 29 28  1  0  0  0  0
 30 29  2  0  0  0  0
 31 30  1  0  0  0  0
 32 30  1  0  0  0  0
 32 33  2  0  0  0  0
 33 34  1  0  0  0  0
M  END
>  <minimizedAffinity>
-4.92062235

$$$$
