
 OpenBabel03252508463D

 42 44  0  0  0  0  0  0  0  0999 V2000
   42.9920   32.4310   41.7010 C   0  0  0  0  0  0  0  0  0  0  0  0
   42.0630   32.8840   41.3100 H   0  0  0  0  0  0  0  0  0  0  0  0
   43.5390   32.0200   40.8030 H   0  0  0  0  0  0  0  0  0  0  0  0
   43.6800   34.8290   41.9220 C   0  0  0  0  0  0  0  0  0  0  0  0
   43.8850   33.5000   42.2380 C   0  0  0  0  0  0  0  0  0  0  0  0
   44.9400   33.1730   43.0650 C   0  0  0  0  0  0  0  0  0  0  0  0
   45.7550   34.1600   43.5540 C   0  0  0  0  0  0  0  0  0  0  0  0
   45.5700   35.4910   43.2530 C   0  0  0  0  0  0  0  0  0  0  0  0
   44.4990   35.7690   42.4200 C   0  0  0  0  0  0  0  0  0  0  0  0
   45.1500   32.1500   43.3470 H   0  0  0  0  0  0  0  0  0  0  0  0
   46.5860   33.9100   44.2050 H   0  0  0  0  0  0  0  0  0  0  0  0
   46.1600   36.3090   43.5950 H   0  0  0  0  0  0  0  0  0  0  0  0
   44.2760   36.7860   42.1290 H   0  0  0  0  0  0  0  0  0  0  0  0
   40.2640   35.7320   40.5590 C   0  0  0  0  0  0  0  0  0  0  0  0
   41.2860   35.4870   41.4910 C   0  0  0  0  0  0  0  0  0  0  0  0
   42.5450   35.1090   41.0410 C   0  0  0  0  0  0  0  0  0  0  0  0
   42.7200   34.9950   39.6960 N   0  0  0  0  0  0  0  0  0  0  0  0
   41.7270   35.2340   38.8110 C   0  0  0  0  0  0  0  0  0  0  0  0
   40.5010   35.6020   39.2520 N   0  0  0  0  0  0  0  0  0  0  0  0
   39.3040   36.0220   40.9240 H   0  0  0  0  0  0  0  0  0  0  0  0
   41.1450   35.5780   42.5580 H   0  0  0  0  0  0  0  0  0  0  0  0
   42.0050   35.1050   37.7790 H   0  0  0  0  0  0  0  0  0  0  0  0
   42.6870   31.3800   42.6150 N   0  0  0  0  0  0  0  0  0  0  0  0
   43.0680   31.4930   43.5720 H   0  0  0  0  0  0  0  0  0  0  0  0
   41.0190   31.0390   42.6890 S   0  0  0  0  0  0  0  0  0  0  0  0
   40.1960   32.2160   42.2180 O   0  0  0  0  0  0  0  0  0  0  0  0
   39.8820   32.8770   42.9080 H   0  0  0  0  0  0  0  0  0  0  0  0
   40.6020   30.6600   44.0700 O   0  0  0  0  0  0  0  0  0  0  0  0
   39.7600   30.9030   44.5260 H   0  0  0  0  0  0  0  0  0  0  0  0
   40.7080   29.7510   41.6550 O   0  0  0  0  0  0  0  0  0  0  0  0
   40.2420   28.6900   42.4110 C   0  0  0  0  0  0  0  0  0  0  0  0
   39.4340   28.2150   41.8500 H   0  0  0  0  0  0  0  0  0  0  0  0
   39.8790   28.9510   43.4140 H   0  0  0  0  0  0  0  0  0  0  0  0
   41.3570   27.6800   42.6340 C   0  0  0  0  0  0  0  0  0  0  0  0
   42.3460   28.1810   42.6970 H   0  0  0  0  0  0  0  0  0  0  0  0
   41.3260   26.9280   41.8140 H   0  0  0  0  0  0  0  0  0  0  0  0
   41.0950   26.8850   43.8760 C   0  0  0  0  0  0  0  0  0  0  0  0
   41.0680   27.3630   45.2200 C   0  0  0  0  0  0  0  0  0  0  0  0
   41.2590   28.4060   45.3830 H   0  0  0  0  0  0  0  0  0  0  0  0
   40.8010   26.4410   46.1780 C   0  0  0  0  0  3  0  0  0  0  0  0
   40.5630   25.0800   45.8530 C   0  0  0  0  0  3  0  0  0  0  0  0
   40.7300   25.0870   43.9980 S   0  0  0  0  0  0  0  0  0  0  0  0
  1  5  1  0  0  0  0
  1 23  1  0  0  0  0
  2  1  1  0  0  0  0
  3  1  1  0  0  0  0
  4  5  2  0  0  0  0
  4  9  1  0  0  0  0
  5  6  1  0  0  0  0
  6 10  1  0  0  0  0
  6  7  2  0  0  0  0
  7 11  1  0  0  0  0
  8  7  1  0  0  0  0
  8 12  1  0  0  0  0
  9  8  2  0  0  0  0
 13  9  1  0  0  0  0
 14 20  1  0  0  0  0
 14 15  1  0  0  0  0
 15 21  1  0  0  0  0
 16 15  2  0  0  0  0
 16  4  1  0  0  0  0
 17 16  1  0  0  0  0
 18 19  1  0  0  0  0
 18 17  2  0  0  0  0
 19 14  2  0  0  0  0
 22 18  1  0  0  0  0
 23 25  1  0  0  0  0
 23 24  1  0  0  0  0
 25 28  1  0  0  0  0
 26 25  1  0  0  0  0
 26 27  1  0  0  0  0
 28 29  1  0  0  0  0
 30 31  1  0  0  0  0
 30 25  1  0  0  0  0
 31 34  1  0  0  0  0
 31 33  1  0  0  0  0
 32 31  1  0  0  0  0
 34 35  1  0  0  0  0
 34 37  1  0  0  0  0
 36 34  1  0  0  0  0
 37 42  1  0  0  0  0
 37 38  2  0  0  0  0
 38 39  1  0  0  0  0
 38 40  1  0  0  0  0
 41 40  2  0  0  0  0
 42 41  1  0  0  0  0
M  END
>  <minimizedAffinity>
-5.19826078

>  <minimizedRMSD>
1.57805037

$$$$
