
 OpenBabel03252508463D

 42 44  0  0  0  0  0  0  0  0999 V2000
   42.9780   32.3600   41.7530 C   0  0  0  0  0  0  0  0  0  0  0  0
   42.0360   32.8010   41.3780 H   0  0  0  0  0  0  0  0  0  0  0  0
   43.5100   31.9490   40.8450 H   0  0  0  0  0  0  0  0  0  0  0  0
   43.6560   34.7640   41.9290 C   0  0  0  0  0  0  0  0  0  0  0  0
   43.8700   33.4400   42.2640 C   0  0  0  0  0  0  0  0  0  0  0  0
   44.9350   33.1310   43.0870 C   0  0  0  0  0  0  0  0  0  0  0  0
   45.7500   34.1300   43.5520 C   0  0  0  0  0  0  0  0  0  0  0  0
   45.5560   35.4550   43.2320 C   0  0  0  0  0  0  0  0  0  0  0  0
   44.4760   35.7140   42.4050 C   0  0  0  0  0  0  0  0  0  0  0  0
   45.1520   32.1140   43.3820 H   0  0  0  0  0  0  0  0  0  0  0  0
   46.5880   33.8930   44.1990 H   0  0  0  0  0  0  0  0  0  0  0  0
   46.1450   36.2810   43.5560 H   0  0  0  0  0  0  0  0  0  0  0  0
   44.2460   36.7270   42.1010 H   0  0  0  0  0  0  0  0  0  0  0  0
   40.2070   35.5640   40.5860 C   0  0  0  0  0  0  0  0  0  0  0  0
   41.2370   35.3300   41.5130 C   0  0  0  0  0  0  0  0  0  0  0  0
   42.5120   35.0250   41.0550 C   0  0  0  0  0  0  0  0  0  0  0  0
   42.6960   34.9670   39.7070 N   0  0  0  0  0  0  0  0  0  0  0  0
   41.6950   35.1930   38.8270 C   0  0  0  0  0  0  0  0  0  0  0  0
   40.4530   35.4920   39.2770 N   0  0  0  0  0  0  0  0  0  0  0  0
   39.2350   35.7980   40.9580 H   0  0  0  0  0  0  0  0  0  0  0  0
   41.0900   35.3770   42.5820 H   0  0  0  0  0  0  0  0  0  0  0  0
   41.9810   35.1140   37.7930 H   0  0  0  0  0  0  0  0  0  0  0  0
   42.7030   31.3110   42.6780 N   0  0  0  0  0  0  0  0  0  0  0  0
   43.0520   31.4610   43.6420 H   0  0  0  0  0  0  0  0  0  0  0  0
   41.0530   30.8850   42.7160 S   0  0  0  0  0  0  0  0  0  0  0  0
   40.1760   32.0470   42.3080 O   0  0  0  0  0  0  0  0  0  0  0  0
   39.8260   32.6500   43.0320 H   0  0  0  0  0  0  0  0  0  0  0  0
   40.6460   30.4050   44.0670 O   0  0  0  0  0  0  0  0  0  0  0  0
   39.7900   30.5790   44.5290 H   0  0  0  0  0  0  0  0  0  0  0  0
   40.8130   29.6470   41.6040 O   0  0  0  0  0  0  0  0  0  0  0  0
   40.2860   28.5570   42.2750 C   0  0  0  0  0  0  0  0  0  0  0  0
   39.4590   28.1700   41.6770 H   0  0  0  0  0  0  0  0  0  0  0  0
   39.9300   28.7600   43.2940 H   0  0  0  0  0  0  0  0  0  0  0  0
   41.3460   27.4770   42.4250 C   0  0  0  0  0  0  0  0  0  0  0  0
   42.3660   27.9160   42.4530 H   0  0  0  0  0  0  0  0  0  0  0  0
   41.2320   26.7480   41.5910 H   0  0  0  0  0  0  0  0  0  0  0  0
   41.0910   26.6690   43.6610 C   0  0  0  0  0  0  0  0  0  0  0  0
   40.6690   25.3090   43.7340 C   0  0  0  0  0  0  0  0  0  0  0  0
   40.5080   24.7860   42.8120 H   0  0  0  0  0  0  0  0  0  0  0  0
   40.5100   24.7970   44.9790 C   0  0  0  0  0  3  0  0  0  0  0  0
   40.7510   25.5800   46.1400 C   0  0  0  0  0  3  0  0  0  0  0  0
   41.2590   27.2150   45.4090 S   0  0  0  0  0  0  0  0  0  0  0  0
  1  5  1  0  0  0  0
  1 23  1  0  0  0  0
  2  1  1  0  0  0  0
  3  1  1  0  0  0  0
  4  5  2  0  0  0  0
  4  9  1  0  0  0  0
  5  6  1  0  0  0  0
  6 10  1  0  0  0  0
  6  7  2  0  0  0  0
  7 11  1  0  0  0  0
  8  7  1  0  0  0  0
  8 12  1  0  0  0  0
  9  8  2  0  0  0  0
 13  9  1  0  0  0  0
 14 20  1  0  0  0  0
 14 15  1  0  0  0  0
 15 21  1  0  0  0  0
 16 15  2  0  0  0  0
 16  4  1  0  0  0  0
 17 16  1  0  0  0  0
 18 19  1  0  0  0  0
 18 17  2  0  0  0  0
 19 14  2  0  0  0  0
 22 18  1  0  0  0  0
 23 25  1  0  0  0  0
 23 24  1  0  0  0  0
 25 28  1  0  0  0  0
 26 25  1  0  0  0  0
 26 27  1  0  0  0  0
 28 29  1  0  0  0  0
 30 31  1  0  0  0  0
 30 25  1  0  0  0  0
 31 34  1  0  0  0  0
 31 33  1  0  0  0  0
 32 31  1  0  0  0  0
 34 35  1  0  0  0  0
 34 37  1  0  0  0  0
 36 34  1  0  0  0  0
 37 38  2  0  0  0  0
 37 42  1  0  0  0  0
 38 40  1  0  0  0  0
 39 38  1  0  0  0  0
 40 41  2  0  0  0  0
 42 41  1  0  0  0  0
M  END
>  <minimizedAffinity>
-5.02959251

>  <minimizedRMSD>
1.48101437

$$$$
