
 OpenBabel03252508463D

 42 44  0  0  0  0  0  0  0  0999 V2000
   43.0350   32.5350   41.6460 C   0  0  0  0  0  0  0  0  0  0  0  0
   42.1180   32.9710   41.2070 H   0  0  0  0  0  0  0  0  0  0  0  0
   43.6180   32.1050   40.7800 H   0  0  0  0  0  0  0  0  0  0  0  0
   43.6580   34.9490   41.8830 C   0  0  0  0  0  0  0  0  0  0  0  0
   43.8990   33.6230   42.1890 C   0  0  0  0  0  0  0  0  0  0  0  0
   44.9630   33.3190   43.0140 C   0  0  0  0  0  0  0  0  0  0  0  0
   45.7520   34.3250   43.5090 C   0  0  0  0  0  0  0  0  0  0  0  0
   45.5310   35.6520   43.2170 C   0  0  0  0  0  0  0  0  0  0  0  0
   44.4520   35.9060   42.3860 C   0  0  0  0  0  0  0  0  0  0  0  0
   45.2000   32.3010   43.2880 H   0  0  0  0  0  0  0  0  0  0  0  0
   46.5890   34.0920   44.1570 H   0  0  0  0  0  0  0  0  0  0  0  0
   46.0990   36.4830   43.5640 H   0  0  0  0  0  0  0  0  0  0  0  0
   44.2020   36.9200   42.1030 H   0  0  0  0  0  0  0  0  0  0  0  0
   40.2270   35.8010   40.5250 C   0  0  0  0  0  0  0  0  0  0  0  0
   41.2570   35.5800   41.4560 C   0  0  0  0  0  0  0  0  0  0  0  0
   42.5150   35.2040   41.0040 C   0  0  0  0  0  0  0  0  0  0  0  0
   42.6830   35.0670   39.6600 N   0  0  0  0  0  0  0  0  0  0  0  0
   41.6820   35.2830   38.7780 C   0  0  0  0  0  0  0  0  0  0  0  0
   40.4560   35.6500   39.2200 N   0  0  0  0  0  0  0  0  0  0  0  0
   39.2670   36.0900   40.8920 H   0  0  0  0  0  0  0  0  0  0  0  0
   41.1220   35.6900   42.5220 H   0  0  0  0  0  0  0  0  0  0  0  0
   41.9550   35.1380   37.7470 H   0  0  0  0  0  0  0  0  0  0  0  0
   42.7010   31.5050   42.5730 N   0  0  0  0  0  0  0  0  0  0  0  0
   43.0290   31.6530   43.5450 H   0  0  0  0  0  0  0  0  0  0  0  0
   41.0370   31.1350   42.5710 S   0  0  0  0  0  0  0  0  0  0  0  0
   40.1960   32.3830   42.4360 O   0  0  0  0  0  0  0  0  0  0  0  0
   39.8850   32.8340   43.2790 H   0  0  0  0  0  0  0  0  0  0  0  0
   40.6420   30.3990   43.8070 O   0  0  0  0  0  0  0  0  0  0  0  0
   39.8040   30.5020   44.3200 H   0  0  0  0  0  0  0  0  0  0  0  0
   40.7260   30.1600   41.2370 O   0  0  0  0  0  0  0  0  0  0  0  0
   39.8980   29.1270   41.6370 C   0  0  0  0  0  0  0  0  0  0  0  0
   39.0250   29.1300   40.9800 H   0  0  0  0  0  0  0  0  0  0  0  0
   39.5620   29.1710   42.6820 H   0  0  0  0  0  0  0  0  0  0  0  0
   40.6220   27.7970   41.5010 C   0  0  0  0  0  0  0  0  0  0  0  0
   41.4380   27.7050   42.2490 H   0  0  0  0  0  0  0  0  0  0  0  0
   41.0040   27.7050   40.4600 H   0  0  0  0  0  0  0  0  0  0  0  0
   39.6530   26.6630   41.6420 C   0  0  0  0  0  0  0  0  0  0  0  0
   38.3400   26.5740   41.0940 C   0  0  0  0  0  0  0  0  0  0  0  0
   37.9830   27.4040   40.5140 H   0  0  0  0  0  0  0  0  0  0  0  0
   37.6550   25.4340   41.3610 C   0  0  0  0  0  3  0  0  0  0  0  0
   38.2220   24.3930   42.1430 C   0  0  0  0  0  3  0  0  0  0  0  0
   39.9020   25.0840   42.5520 S   0  0  0  0  0  0  0  0  0  0  0  0
  1  5  1  0  0  0  0
  1 23  1  0  0  0  0
  2  1  1  0  0  0  0
  3  1  1  0  0  0  0
  4  5  2  0  0  0  0
  4  9  1  0  0  0  0
  5  6  1  0  0  0  0
  6 10  1  0  0  0  0
  6  7  2  0  0  0  0
  7 11  1  0  0  0  0
  8  7  1  0  0  0  0
  8 12  1  0  0  0  0
  9  8  2  0  0  0  0
 13  9  1  0  0  0  0
 14 20  1  0  0  0  0
 14 15  1  0  0  0  0
 15 21  1  0  0  0  0
 16 15  2  0  0  0  0
 16  4  1  0  0  0  0
 17 16  1  0  0  0  0
 18 19  1  0  0  0  0
 18 17  2  0  0  0  0
 19 14  2  0  0  0  0
 22 18  1  0  0  0  0
 23 24  1  0  0  0  0
 25 23  1  0  0  0  0
 25 28  1  0  0  0  0
 26 25  1  0  0  0  0
 26 27  1  0  0  0  0
 28 29  1  0  0  0  0
 30 31  1  0  0  0  0
 30 25  1  0  0  0  0
 31 33  1  0  0  0  0
 32 31  1  0  0  0  0
 34 31  1  0  0  0  0
 34 37  1  0  0  0  0
 34 35  1  0  0  0  0
 36 34  1  0  0  0  0
 37 42  1  0  0  0  0
 38 40  1  0  0  0  0
 38 37  2  0  0  0  0
 39 38  1  0  0  0  0
 40 41  2  0  0  0  0
 41 42  1  0  0  0  0
M  END
>  <minimizedAffinity>
-4.9821763

>  <minimizedRMSD>
0.478376448

$$$$
