
 OpenBabel03252506343D

 30 32  0  0  1  0  0  0  0  0999 V2000
   44.4720   35.7400   45.0070 C   0  0  0  0  0  0  0  0  0  0  0  0
   45.1140   35.7050   43.7600 C   0  0  0  0  0  0  0  0  0  0  0  0
   46.0230   34.7180   43.4940 C   0  0  0  0  0  0  0  0  0  0  0  0
   46.2420   33.8200   44.4860 N   0  0  0  0  0  0  0  0  0  0  0  0
   45.6330   33.8530   45.6670 C   0  0  0  0  0  0  0  0  0  0  0  0
   44.7360   34.8130   45.9560 N   0  0  0  0  0  0  0  0  0  0  0  0
   45.9580   32.8470   46.6100 N   0  0  0  0  0  0  0  0  0  0  0  0
   45.1630   32.5620   47.8120 C   0  0  0  0  0  0  0  0  0  0  0  0
   46.2370   32.2330   48.8280 C   0  0  0  0  0  0  0  0  0  0  0  0
   47.5250   32.0850   48.0650 C   0  0  0  0  0  0  0  0  0  0  0  0
   47.0480   31.9170   46.6470 C   0  0  1  0  0  0  0  0  0  0  0  0
   43.7500   36.5080   45.2470 H   0  0  0  0  0  0  0  0  0  0  0  0
   46.5150   34.6940   42.5340 H   0  0  0  0  0  0  0  0  0  0  0  0
   44.6110   33.5030   48.0930 H   0  0  0  0  0  0  0  0  0  0  0  0
   44.4570   31.7290   47.6380 H   0  0  0  0  0  0  0  0  0  0  0  0
   46.2890   32.9860   49.6440 H   0  0  0  0  0  0  0  0  0  0  0  0
   45.9730   31.2450   49.2710 H   0  0  0  0  0  0  0  0  0  0  0  0
   48.0780   33.0460   48.1250 H   0  0  0  0  0  0  0  0  0  0  0  0
   48.1330   31.2210   48.4050 H   0  0  0  0  0  0  0  0  0  0  0  0
   47.8510   32.1950   45.9100 H   0  0  0  0  0  0  0  0  0  0  0  0
   44.7620   36.7380   42.8210 N   0  0  0  0  0  0  0  0  0  0  0  0
   44.5230   37.6870   43.1320 H   0  0  0  0  0  0  0  0  0  0  0  0
   44.7460   36.5240   41.7790 H   0  0  0  0  0  0  0  0  0  0  0  0
   46.5050   30.2030   46.3900 S   0  0  0  0  0  0  0  0  0  0  0  0
   46.4740   29.6780   44.7800 C   0  0  0  0  0  0  0  0  0  0  0  0
   47.1970   28.8110   43.9240 C   0  0  0  0  0  0  0  0  0  0  0  0
   47.9980   28.3620   44.4730 H   0  0  0  0  0  0  0  0  0  0  0  0
   46.8560   28.6350   42.6170 C   0  0  0  0  0  3  0  0  0  0  0  0
   45.6710   29.4060   42.1230 C   0  0  0  0  0  3  0  0  0  0  0  0
   45.1300   30.3600   43.6510 S   0  0  0  0  0  0  0  0  0  0  0  0
  1 12  1  0  0  0  0
  1  6  1  0  0  0  0
  2  1  2  0  0  0  0
  3  2  1  0  0  0  0
  3  4  2  0  0  0  0
  4  5  1  0  0  0  0
  5  6  2  0  0  0  0
  5  7  1  0  0  0  0
  7 11  1  0  0  0  0
  7  8  1  0  0  0  0
  8 14  1  0  0  0  0
  8  9  1  0  0  0  0
  9 17  1  0  0  0  0
  9 16  1  0  0  0  0
 10 18  1  0  0  0  0
 10 19  1  0  0  0  0
 10  9  1  0  0  0  0
 11 20  1  6  0  0  0
 11 10  1  0  0  0  0
 13  3  1  0  0  0  0
 15  8  1  0  0  0  0
 21 22  1  0  0  0  0
 21  2  1  0  0  0  0
 23 21  1  0  0  0  0
 24 11  1  0  0  0  0
 25 24  1  0  0  0  0
 26 27  1  0  0  0  0
 26 25  2  0  0  0  0
 28 26  1  0  0  0  0
 29 28  2  0  0  0  0
 29 30  1  0  0  0  0
 30 25  1  0  0  0  0
M  END
>  <minimizedAffinity>
-4.71558428

>  <minimizedRMSD>
0.672079921

$$$$
