
 OpenBabel03252509263D

 27 29  0  0  1  0  0  0  0  0999 V2000
   46.7620   35.1180   41.8920 C   0  0  1  0  0  0  0  0  0  0  0  0
   48.2850   35.4390   41.9250 C   0  0  0  0  0  0  0  0  0  0  0  0
   47.6090   34.2110   41.2330 C   0  0  2  0  0  0  0  0  0  0  0  0
   46.1750   35.8970   41.3650 H   0  0  0  0  0  0  0  0  0  0  0  0
   48.8460   35.2720   42.8370 H   0  0  0  0  0  0  0  0  0  0  0  0
   48.6270   36.2090   41.2150 H   0  0  0  0  0  0  0  0  0  0  0  0
   47.8510   33.2510   41.7880 H   0  0  0  0  0  0  0  0  0  0  0  0
   44.8040   35.1140   45.0930 C   0  0  0  0  0  0  0  0  0  0  0  0
   45.2460   35.5280   43.7990 C   0  0  0  0  0  0  0  0  0  0  0  0
   46.2600   34.8010   43.2730 C   0  0  0  0  0  0  0  0  0  0  0  0
   46.8240   33.7370   43.9510 N   0  0  0  0  0  0  0  0  0  0  0  0
   46.3730   33.3790   45.1790 C   0  0  0  0  0  0  0  0  0  0  0  0
   45.3610   34.0720   45.7500 N   0  0  0  0  0  0  0  0  0  0  0  0
   43.9880   35.7030   45.5090 H   0  0  0  0  0  0  0  0  0  0  0  0
   46.8060   32.5490   45.7190 H   0  0  0  0  0  0  0  0  0  0  0  0
   44.6770   36.6310   43.1200 N   0  0  0  0  0  0  0  0  0  0  0  0
   44.7060   37.6640   43.3300 H   0  0  0  0  0  0  0  0  0  0  0  0
   44.1970   36.1700   42.3220 H   0  0  0  0  0  0  0  0  0  0  0  0
   47.6630   34.1290   39.7240 C   0  0  0  0  0  0  0  0  0  0  0  0
   46.6460   33.7630   39.4090 H   0  0  0  0  0  0  0  0  0  0  0  0
   47.9080   35.1120   39.2720 H   0  0  0  0  0  0  0  0  0  0  0  0
   48.6180   33.0770   39.3320 C   0  0  0  0  0  0  0  0  0  0  0  0
   49.3760   32.1490   39.9860 C   0  0  0  0  0  0  0  0  0  0  0  0
   49.3100   32.1180   41.0640 H   0  0  0  0  0  0  0  0  0  0  0  0
   50.1690   31.3190   39.2340 C   0  0  0  0  0  3  0  0  0  0  0  0
   50.1620   31.4630   37.8720 C   0  0  0  0  0  3  0  0  0  0  0  0
   48.9450   32.8720   37.6370 S   0  0  0  0  0  0  0  0  0  0  0  0
  1  4  1  6  0  0  0
  1  2  1  0  0  0  0
  1 10  1  0  0  0  0
  2  5  1  0  0  0  0
  3  7  1  1  0  0  0
  3  1  1  0  0  0  0
  3  2  1  0  0  0  0
  6  2  1  0  0  0  0
  8 14  1  0  0  0  0
  8 13  1  0  0  0  0
  9  8  2  0  0  0  0
 10  9  1  0  0  0  0
 10 11  2  0  0  0  0
 11 12  1  0  0  0  0
 12 15  1  0  0  0  0
 12 13  2  0  0  0  0
 16 17  1  0  0  0  0
 16  9  1  0  0  0  0
 18 16  1  0  0  0  0
 19  3  1  0  0  0  0
 20 19  1  0  0  0  0
 21 19  1  0  0  0  0
 22 19  1  0  0  0  0
 22 23  2  0  0  0  0
 23 24  1  0  0  0  0
 25 23  1  0  0  0  0
 26 25  2  0  0  0  0
 27 26  1  0  0  0  0
 27 22  1  0  0  0  0
M  END
>  <minimizedAffinity>
-4.67575502

>  <minimizedRMSD>
0.816027462

$$$$
