
 OpenBabel03252506423D

 37 40  0  0  1  0  0  0  0  0999 V2000
   49.2990   33.2120   41.5120 N   0  0  1  0  0  0  0  0  0  0  0  0
   50.6580   33.1920   42.0630 C   0  0  0  0  0  0  0  0  0  0  0  0
   51.3570   31.8950   41.7930 C   0  0  0  0  0  0  0  0  0  0  0  0
   50.6980   30.8420   42.6630 C   0  0  0  0  0  0  0  0  0  0  0  0
   49.2210   31.0450   42.7100 C   0  0  0  0  0  0  0  0  0  0  0  0
   48.7600   31.8760   41.5200 C   0  0  2  0  0  0  0  0  0  0  0  0
   50.5970   33.2980   43.1810 H   0  0  0  0  0  0  0  0  0  0  0  0
   51.2210   34.0820   41.7110 H   0  0  0  0  0  0  0  0  0  0  0  0
   51.4230   31.6390   40.7370 H   0  0  0  0  0  0  0  0  0  0  0  0
   52.4000   32.0230   42.1510 H   0  0  0  0  0  0  0  0  0  0  0  0
   51.0790   30.9780   43.7130 H   0  0  0  0  0  0  0  0  0  0  0  0
   51.0260   29.8470   42.3470 H   0  0  0  0  0  0  0  0  0  0  0  0
   48.9130   31.6260   43.6010 H   0  0  0  0  0  0  0  0  0  0  0  0
   48.6560   30.0850   42.6270 H   0  0  0  0  0  0  0  0  0  0  0  0
   47.6680   32.0010   41.6920 H   0  0  0  0  0  0  0  0  0  0  0  0
   47.1500   34.5330   42.0370 C   0  0  1  0  0  0  0  0  0  0  0  0
   48.2550   35.4480   41.7110 C   0  0  0  0  0  0  0  0  0  0  0  0
   48.5630   34.1300   42.3160 C   0  0  2  0  0  0  0  0  0  0  0  0
   46.6740   34.0280   41.1740 H   0  0  0  0  0  0  0  0  0  0  0  0
   48.3590   36.3670   42.3370 H   0  0  0  0  0  0  0  0  0  0  0  0
   48.5120   35.6530   40.6360 H   0  0  0  0  0  0  0  0  0  0  0  0
   48.8580   34.1770   43.4050 H   0  0  0  0  0  0  0  0  0  0  0  0
   45.4860   36.0250   43.1910 C   0  0  0  0  0  0  0  0  0  0  0  0
   46.2520   34.8420   43.1810 C   0  0  0  0  0  0  0  0  0  0  0  0
   46.1300   33.9690   44.2750 C   0  0  0  0  0  0  0  0  0  0  0  0
   45.2850   34.3120   45.2820 N   0  0  0  0  0  0  0  0  0  0  0  0
   44.5610   35.4610   45.2570 C   0  0  0  0  0  0  0  0  0  0  0  0
   44.6580   36.3300   44.2080 N   0  0  0  0  0  0  0  0  0  0  0  0
   45.6240   36.6520   42.3220 H   0  0  0  0  0  0  0  0  0  0  0  0
   46.7070   33.0490   44.2980 H   0  0  0  0  0  0  0  0  0  0  0  0
   43.8890   35.7350   46.0550 H   0  0  0  0  0  0  0  0  0  0  0  0
   48.9340   31.1490   40.2560 C   0  0  0  0  0  0  0  0  0  0  0  0
   48.9010   29.8640   39.9510 C   0  0  0  0  0  0  0  0  0  0  0  0
   48.7130   29.1480   40.7370 H   0  0  0  0  0  0  0  0  0  0  0  0
   49.1010   29.4680   38.6580 C   0  0  0  0  0  3  0  0  0  0  0  0
   49.3350   30.4420   37.7090 C   0  0  0  0  0  3  0  0  0  0  0  0
   49.2760   32.0790   38.6690 S   0  0  0  0  0  0  0  0  0  0  0  0
  1  6  1  0  0  0  0
  1  2  1  1  0  0  0
  1 18  1  0  0  0  0
  2  7  1  0  0  0  0
  3  2  1  0  0  0  0
  3 10  1  0  0  0  0
  3  4  1  0  0  0  0
  4  5  1  0  0  0  0
  4 11  1  0  0  0  0
  5 13  1  0  0  0  0
  6 15  1  1  0  0  0
  6  5  1  0  0  0  0
  8  2  1  0  0  0  0
  9  3  1  0  0  0  0
 12  4  1  0  0  0  0
 14  5  1  0  0  0  0
 16 19  1  6  0  0  0
 16 18  1  0  0  0  0
 16 24  1  0  0  0  0
 17 16  1  0  0  0  0
 17 18  1  0  0  0  0
 17 20  1  0  0  0  0
 18 22  1  1  0  0  0
 21 17  1  0  0  0  0
 23 28  1  0  0  0  0
 24 23  2  0  0  0  0
 24 25  1  0  0  0  0
 25 30  1  0  0  0  0
 25 26  2  0  0  0  0
 27 26  1  0  0  0  0
 27 31  1  0  0  0  0
 28 27  2  0  0  0  0
 29 23  1  0  0  0  0
 32  6  1  0  0  0  0
 33 32  2  0  0  0  0
 33 34  1  0  0  0  0
 35 33  1  0  0  0  0
 36 35  2  0  0  0  0
 36 37  1  0  0  0  0
 37 32  1  0  0  0  0
M  END
>  <minimizedAffinity>
-4.6789341

>  <minimizedRMSD>
0.539944887

$$$$
