
 OpenBabel03252506593D

 21 22  0  0  0  0  0  0  0  0999 V2000
   48.1020   35.3530   41.7870 C   0  0  0  0  0  0  0  0  0  0  0  0
   48.1910   36.3360   42.3370 H   0  0  0  0  0  0  0  0  0  0  0  0
   48.2240   35.5460   40.7140 H   0  0  0  0  0  0  0  0  0  0  0  0
   46.7680   34.8520   42.1180 C   0  0  0  0  0  0  0  0  0  0  0  0
   46.3240   34.6590   43.4220 C   0  0  0  0  0  0  0  0  0  0  0  0
   45.0290   34.1880   43.6270 C   0  0  0  0  0  0  0  0  0  0  0  0
   44.2630   33.9410   42.5400 N   0  0  0  0  0  0  0  0  0  0  0  0
   44.7100   34.1340   41.2880 C   0  0  0  0  0  0  0  0  0  0  0  0
   45.9430   34.5820   41.0990 N   0  0  0  0  0  0  0  0  0  0  0  0
   47.0070   34.8830   44.2430 H   0  0  0  0  0  0  0  0  0  0  0  0
   44.6880   34.0380   44.6480 H   0  0  0  0  0  0  0  0  0  0  0  0
   44.0780   33.9280   40.4280 H   0  0  0  0  0  0  0  0  0  0  0  0
   49.1230   34.3950   42.3280 C   0  0  0  0  0  0  0  0  0  0  0  0
   50.0470   35.0100   42.5440 H   0  0  0  0  0  0  0  0  0  0  0  0
   48.8140   34.0660   43.3590 H   0  0  0  0  0  0  0  0  0  0  0  0
   49.4920   33.3180   41.4740 C   0  0  0  0  0  0  0  0  0  0  0  0
   48.9630   32.6880   40.2750 C   0  0  0  0  0  0  0  0  0  0  0  0
   48.0610   33.1860   39.9910 H   0  0  0  0  0  0  0  0  0  0  0  0
   49.6520   31.6430   39.7490 C   0  0  0  0  0  0  0  0  0  0  0  0
   50.8970   31.1930   40.4070 C   0  0  0  0  0  0  0  0  0  0  0  0
   51.0670   32.3200   41.8280 S   0  0  0  0  0  0  0  0  0  0  0  0
  1  4  1  0  0  0  0
  1 13  1  0  0  0  0
  1  2  1  0  0  0  0
  3  1  1  0  0  0  0
  4  5  1  0  0  0  0
  5  6  2  0  0  0  0
  5 10  1  0  0  0  0
  6 11  1  0  0  0  0
  7  6  1  0  0  0  0
  8  7  2  0  0  0  0
  9  8  1  0  0  0  0
  9  4  2  0  0  0  0
 12  8  1  0  0  0  0
 13 14  1  0  0  0  0
 13 15  1  0  0  0  0
 16 21  1  0  0  0  0
 16 13  1  0  0  0  0
 17 16  2  0  0  0  0
 18 17  1  0  0  0  0
 19 17  1  0  0  0  0
 19 20  2  0  0  0  0
 20 21  1  0  0  0  0
M  END
>  <minimizedAffinity>
-3.25267148

>  <minimizedRMSD>
4.35595894

$$$$
