
 OpenBabel03252502103D

 45 49  0  0  0  0  0  0  0  0999 V2000
   36.8210   31.7420   40.6390 C   0  0  0  0  0  0  0  0  0  0  0  0
   37.9990   32.3580   40.2050 C   0  0  0  0  0  0  0  0  0  0  0  0
   38.6710   31.7560   39.1810 C   0  0  0  0  0  0  0  0  0  0  0  0
   38.1940   30.6320   38.6360 N   0  0  0  0  0  0  0  0  0  0  0  0
   37.0760   30.0330   39.0300 C   0  0  0  0  0  0  0  0  0  0  0  0
   36.4010   30.6140   40.0460 N   0  0  0  0  0  0  0  0  0  0  0  0
   39.8470   32.2950   38.7160 N   0  0  0  0  0  0  0  0  0  0  0  0
   40.7380   31.6320   37.7210 C   0  0  0  0  0  0  0  0  0  0  0  0
   41.7210   32.6890   37.2900 C   0  0  0  0  0  0  0  0  0  0  0  0
   41.8030   33.5680   38.4950 C   0  0  0  0  0  0  0  0  0  0  0  0
   40.4330   33.5440   39.0820 C   0  0  0  0  0  0  0  0  0  0  0  0
   36.2540   32.1850   41.4570 H   0  0  0  0  0  0  0  0  0  0  0  0
   41.1970   30.7370   38.1600 H   0  0  0  0  0  0  0  0  0  0  0  0
   40.0570   31.4110   36.8670 H   0  0  0  0  0  0  0  0  0  0  0  0
   42.6750   32.2310   36.9910 H   0  0  0  0  0  0  0  0  0  0  0  0
   41.2810   33.2860   36.4560 H   0  0  0  0  0  0  0  0  0  0  0  0
   42.5600   33.1120   39.1670 H   0  0  0  0  0  0  0  0  0  0  0  0
   42.0870   34.6090   38.2510 H   0  0  0  0  0  0  0  0  0  0  0  0
   39.8460   34.3820   38.6760 H   0  0  0  0  0  0  0  0  0  0  0  0
   40.6360   33.6430   40.1910 H   0  0  0  0  0  0  0  0  0  0  0  0
   36.3610   28.8270   38.5380 C   0  0  0  0  0  0  0  0  0  0  0  0
   35.4110   28.8680   37.5980 N   0  0  0  0  0  0  0  0  0  0  0  0
   34.7540   27.8140   37.1340 C   0  0  0  0  0  0  0  0  0  0  0  0
   35.0340   26.5780   37.6190 N   0  0  0  0  0  0  0  0  0  0  0  0
   35.9720   26.4120   38.5680 C   0  0  0  0  0  0  0  0  0  0  0  0
   36.2380   25.1540   39.0430 C   0  0  0  0  0  0  0  0  0  0  0  0
   37.1960   24.9670   40.0150 C   0  0  0  0  0  0  0  0  0  0  0  0
   37.8780   26.0830   40.4950 C   0  0  0  0  0  0  0  0  0  0  0  0
   37.5560   27.3210   39.9670 C   0  0  0  0  0  0  0  0  0  0  0  0
   36.6140   27.5450   39.0050 C   0  0  0  0  0  0  0  0  0  0  0  0
   34.0170   28.0150   36.3760 H   0  0  0  0  0  0  0  0  0  0  0  0
   35.6660   24.3370   38.6210 H   0  0  0  0  0  0  0  0  0  0  0  0
   37.3180   23.9510   40.3090 H   0  0  0  0  0  0  0  0  0  0  0  0
   38.8610   25.8330   41.5020 C   0  0  0  0  0  0  0  0  0  0  0  0
   38.8450   25.8570   42.8450 C   0  0  0  0  0  0  0  0  0  0  0  0
   38.0060   26.0920   43.4780 H   0  0  0  0  0  0  0  0  0  0  0  0
   39.9760   25.5630   43.5510 C   0  0  0  0  0  3  0  0  0  0  0  0
   41.1350   25.2390   42.8220 C   0  0  0  0  0  3  0  0  0  0  0  0
   40.5440   25.3730   41.0820 S   0  0  0  0  0  0  0  0  0  0  0  0
   38.3270   28.3560   40.5550 N   0  0  0  0  0  0  0  0  0  0  0  0
   37.6970   28.6090   41.3740 H   0  0  0  0  0  0  0  0  0  0  0  0
   39.1520   28.3850   39.9170 H   0  0  0  0  0  0  0  0  0  0  0  0
   38.3560   33.5380   40.7950 N   0  0  0  0  0  0  0  0  0  0  0  0
   38.8080   33.5340   41.7440 H   0  0  0  0  0  0  0  0  0  0  0  0
   38.2690   34.5290   40.4790 H   0  0  0  0  0  0  0  0  0  0  0  0
  1 12  1  0  0  0  0
  2  1  1  0  0  0  0
  2 43  1  0  0  0  0
  3  2  2  0  0  0  0
  4  5  2  0  0  0  0
  4  3  1  0  0  0  0
  5  6  1  0  0  0  0
  6  1  2  0  0  0  0
  7 11  1  0  0  0  0
  7  3  1  0  0  0  0
  8 13  1  0  0  0  0
  8  7  1  0  0  0  0
  9  8  1  0  0  0  0
  9 10  1  0  0  0  0
 10 11  1  0  0  0  0
 10 17  1  0  0  0  0
 11 20  1  0  0  0  0
 14  8  1  0  0  0  0
 15  9  1  0  0  0  0
 16  9  1  0  0  0  0
 18 10  1  0  0  0  0
 19 11  1  0  0  0  0
 21 30  1  0  0  0  0
 21  5  1  0  0  0  0
 22 21  2  0  0  0  0
 23 22  1  0  0  0  0
 23 24  2  0  0  0  0
 24 25  1  0  0  0  0
 25 30  2  0  0  0  0
 25 26  1  0  0  0  0
 26 27  2  0  0  0  0
 27 33  1  0  0  0  0
 27 28  1  0  0  0  0
 28 34  1  0  0  0  0
 29 28  2  0  0  0  0
 29 40  1  0  0  0  0
 30 29  1  0  0  0  0
 31 23  1  0  0  0  0
 32 26  1  0  0  0  0
 34 35  2  0  0  0  0
 35 36  1  0  0  0  0
 35 37  1  0  0  0  0
 38 37  2  0  0  0  0
 39 34  1  0  0  0  0
 39 38  1  0  0  0  0
 40 41  1  0  0  0  0
 42 40  1  0  0  0  0
 43 44  1  0  0  0  0
 45 43  1  0  0  0  0
M  END
>  <minimizedAffinity>
-6.24958754

$$$$

 OpenBabel03252502103D

 45 49  0  0  0  0  0  0  0  0999 V2000
   37.7640   27.2940   36.5690 C   0  0  0  0  0  0  0  0  0  0  0  0
   36.6040   27.8310   36.0020 C   0  0  0  0  0  0  0  0  0  0  0  0
   35.5800   28.1290   36.8540 C   0  0  0  0  0  0  0  0  0  0  0  0
   35.7150   27.9100   38.1660 N   0  0  0  0  0  0  0  0  0  0  0  0
   36.8080   27.4060   38.7250 C   0  0  0  0  0  0  0  0  0  0  0  0
   37.8300   27.1010   37.8950 N   0  0  0  0  0  0  0  0  0  0  0  0
   34.4020   28.6410   36.3630 N   0  0  0  0  0  0  0  0  0  0  0  0
   33.1720   28.8450   37.1810 C   0  0  0  0  0  0  0  0  0  0  0  0
   32.2550   29.6870   36.3320 C   0  0  0  0  0  0  0  0  0  0  0  0
   32.6600   29.3090   34.9450 C   0  0  0  0  0  0  0  0  0  0  0  0
   34.1270   29.0580   35.0260 C   0  0  0  0  0  0  0  0  0  0  0  0
   38.6060   27.0380   35.9270 H   0  0  0  0  0  0  0  0  0  0  0  0
   32.7510   27.8760   37.4810 H   0  0  0  0  0  0  0  0  0  0  0  0
   33.5270   29.4600   38.0390 H   0  0  0  0  0  0  0  0  0  0  0  0
   31.2040   29.4790   36.5750 H   0  0  0  0  0  0  0  0  0  0  0  0
   32.4990   30.7650   36.4820 H   0  0  0  0  0  0  0  0  0  0  0  0
   32.0880   28.3940   34.6870 H   0  0  0  0  0  0  0  0  0  0  0  0
   32.4580   30.1060   34.2050 H   0  0  0  0  0  0  0  0  0  0  0  0
   34.6710   29.9850   34.7900 H   0  0  0  0  0  0  0  0  0  0  0  0
   34.2840   28.2440   34.2560 H   0  0  0  0  0  0  0  0  0  0  0  0
   37.1730   27.1310   40.1390 C   0  0  0  0  0  0  0  0  0  0  0  0
   36.9740   25.9500   40.7340 N   0  0  0  0  0  0  0  0  0  0  0  0
   37.2890   25.6700   41.9910 C   0  0  0  0  0  0  0  0  0  0  0  0
   37.8590   26.6210   42.7720 N   0  0  0  0  0  0  0  0  0  0  0  0
   38.1090   27.8480   42.2830 C   0  0  0  0  0  0  0  0  0  0  0  0
   38.6860   28.7940   43.0910 C   0  0  0  0  0  0  0  0  0  0  0  0
   38.9480   30.0560   42.6050 C   0  0  0  0  0  0  0  0  0  0  0  0
   38.6110   30.3380   41.2830 C   0  0  0  0  0  0  0  0  0  0  0  0
   38.0320   29.3340   40.5280 C   0  0  0  0  0  0  0  0  0  0  0  0
   37.7580   28.0730   40.9740 C   0  0  0  0  0  0  0  0  0  0  0  0
   37.0630   24.6700   42.3200 H   0  0  0  0  0  0  0  0  0  0  0  0
   38.9180   28.4980   44.1070 H   0  0  0  0  0  0  0  0  0  0  0  0
   39.3950   30.7070   43.3180 H   0  0  0  0  0  0  0  0  0  0  0  0
   38.9040   31.6620   40.8300 C   0  0  0  0  0  0  0  0  0  0  0  0
   38.1690   32.7740   40.6650 C   0  0  0  0  0  0  0  0  0  0  0  0
   37.1170   32.8890   40.8620 H   0  0  0  0  0  0  0  0  0  0  0  0
   38.7490   33.9190   40.2010 C   0  0  0  0  0  3  0  0  0  0  0  0
   40.1260   33.8820   39.9100 C   0  0  0  0  0  3  0  0  0  0  0  0
   40.5590   32.1400   40.3260 S   0  0  0  0  0  0  0  0  0  0  0  0
   37.7430   29.7710   39.2100 N   0  0  0  0  0  0  0  0  0  0  0  0
   36.7590   30.1460   39.3550 H   0  0  0  0  0  0  0  0  0  0  0  0
   38.6280   29.5270   38.7140 H   0  0  0  0  0  0  0  0  0  0  0  0
   36.6030   28.0690   34.6560 N   0  0  0  0  0  0  0  0  0  0  0  0
   36.4630   27.2740   33.9830 H   0  0  0  0  0  0  0  0  0  0  0  0
   36.7240   28.9470   34.1040 H   0  0  0  0  0  0  0  0  0  0  0  0
  1  6  1  0  0  0  0
  2  1  2  0  0  0  0
  2  3  1  0  0  0  0
  3  4  2  0  0  0  0
  4  5  1  0  0  0  0
  5 21  1  0  0  0  0
  6  5  2  0  0  0  0
  7  3  1  0  0  0  0
  7  8  1  0  0  0  0
  8 13  1  0  0  0  0
  8 14  1  0  0  0  0
  9 16  1  0  0  0  0
  9 15  1  0  0  0  0
  9  8  1  0  0  0  0
 10 11  1  0  0  0  0
 10  9  1  0  0  0  0
 11  7  1  0  0  0  0
 12  1  1  0  0  0  0
 17 10  1  0  0  0  0
 18 10  1  0  0  0  0
 19 11  1  0  0  0  0
 20 11  1  0  0  0  0
 21 22  2  0  0  0  0
 21 30  1  0  0  0  0
 22 23  1  0  0  0  0
 23 31  1  0  0  0  0
 23 24  2  0  0  0  0
 25 24  1  0  0  0  0
 25 26  1  0  0  0  0
 26 32  1  0  0  0  0
 27 26  2  0  0  0  0
 27 33  1  0  0  0  0
 28 27  1  0  0  0  0
 29 30  1  0  0  0  0
 29 28  2  0  0  0  0
 30 25  2  0  0  0  0
 34 28  1  0  0  0  0
 35 34  2  0  0  0  0
 35 36  1  0  0  0  0
 37 35  1  0  0  0  0
 38 37  2  0  0  0  0
 38 39  1  0  0  0  0
 39 34  1  0  0  0  0
 40 41  1  0  0  0  0
 40 29  1  0  0  0  0
 42 40  1  0  0  0  0
 43  2  1  0  0  0  0
 44 43  1  0  0  0  0
 45 43  1  0  0  0  0
M  END
>  <minimizedAffinity>
-6.22970581

$$$$

 OpenBabel03252502103D

 45 49  0  0  0  0  0  0  0  0999 V2000
   36.1880   30.7830   41.0620 C   0  0  0  0  0  0  0  0  0  0  0  0
   37.2350   31.5440   40.5290 C   0  0  0  0  0  0  0  0  0  0  0  0
   38.3620   30.8700   40.1570 C   0  0  0  0  0  0  0  0  0  0  0  0
   38.4280   29.5420   40.3030 N   0  0  0  0  0  0  0  0  0  0  0  0
   37.4450   28.8010   40.8020 C   0  0  0  0  0  0  0  0  0  0  0  0
   36.3240   29.4540   41.1800 N   0  0  0  0  0  0  0  0  0  0  0  0
   39.4370   31.5560   39.6450 N   0  0  0  0  0  0  0  0  0  0  0  0
   40.7670   30.9410   39.3630 C   0  0  0  0  0  0  0  0  0  0  0  0
   41.5210   31.9600   38.5480 C   0  0  0  0  0  0  0  0  0  0  0  0
   40.9300   33.2500   39.0150 C   0  0  0  0  0  0  0  0  0  0  0  0
   39.5000   32.9390   39.2980 C   0  0  0  0  0  0  0  0  0  0  0  0
   35.2710   31.2800   41.3760 H   0  0  0  0  0  0  0  0  0  0  0  0
   41.2590   30.6560   40.3020 H   0  0  0  0  0  0  0  0  0  0  0  0
   40.5200   30.0740   38.7080 H   0  0  0  0  0  0  0  0  0  0  0  0
   42.6020   31.8640   38.7150 H   0  0  0  0  0  0  0  0  0  0  0  0
   41.2650   31.8330   37.4690 H   0  0  0  0  0  0  0  0  0  0  0  0
   41.4890   33.5400   39.9290 H   0  0  0  0  0  0  0  0  0  0  0  0
   40.9950   34.0530   38.2570 H   0  0  0  0  0  0  0  0  0  0  0  0
   38.8970   33.1410   38.4010 H   0  0  0  0  0  0  0  0  0  0  0  0
   39.2600   33.6340   40.1590 H   0  0  0  0  0  0  0  0  0  0  0  0
   37.3010   27.3360   41.0040 C   0  0  0  0  0  0  0  0  0  0  0  0
   37.6920   26.7050   42.1160 N   0  0  0  0  0  0  0  0  0  0  0  0
   37.5760   25.4020   42.3310 C   0  0  0  0  0  0  0  0  0  0  0  0
   37.0250   24.6080   41.3790 N   0  0  0  0  0  0  0  0  0  0  0  0
   36.5940   25.1300   40.2180 C   0  0  0  0  0  0  0  0  0  0  0  0
   36.0410   24.3080   39.2700 C   0  0  0  0  0  0  0  0  0  0  0  0
   35.5950   24.8280   38.0750 C   0  0  0  0  0  0  0  0  0  0  0  0
   35.7230   26.1980   37.8610 C   0  0  0  0  0  0  0  0  0  0  0  0
   36.2910   26.9650   38.8630 C   0  0  0  0  0  0  0  0  0  0  0  0
   36.7430   26.4860   40.0590 C   0  0  0  0  0  0  0  0  0  0  0  0
   37.9400   25.0490   43.2800 H   0  0  0  0  0  0  0  0  0  0  0  0
   35.9760   23.2540   39.5110 H   0  0  0  0  0  0  0  0  0  0  0  0
   35.1850   24.1000   37.4160 H   0  0  0  0  0  0  0  0  0  0  0  0
   35.2440   26.6850   36.6050 C   0  0  0  0  0  0  0  0  0  0  0  0
   35.7990   26.8290   35.3900 C   0  0  0  0  0  0  0  0  0  0  0  0
   36.8070   26.5800   35.1050 H   0  0  0  0  0  0  0  0  0  0  0  0
   35.0660   27.3380   34.3560 C   0  0  0  0  0  3  0  0  0  0  0  0
   33.7310   27.6980   34.6180 C   0  0  0  0  0  3  0  0  0  0  0  0
   33.5630   27.2790   36.4040 S   0  0  0  0  0  0  0  0  0  0  0  0
   36.3580   28.3340   38.5000 N   0  0  0  0  0  0  0  0  0  0  0  0
   37.3110   28.3510   38.0300 H   0  0  0  0  0  0  0  0  0  0  0  0
   35.4420   28.6870   38.8560 H   0  0  0  0  0  0  0  0  0  0  0  0
   37.0310   32.8860   40.3690 N   0  0  0  0  0  0  0  0  0  0  0  0
   37.0980   33.5290   41.1980 H   0  0  0  0  0  0  0  0  0  0  0  0
   36.8010   33.4600   39.5280 H   0  0  0  0  0  0  0  0  0  0  0  0
  1  6  1  0  0  0  0
  1 12  1  0  0  0  0
  2  1  2  0  0  0  0
  3  4  2  0  0  0  0
  3  2  1  0  0  0  0
  4  5  1  0  0  0  0
  5 21  1  0  0  0  0
  5  6  2  0  0  0  0
  7  3  1  0  0  0  0
  8  7  1  0  0  0  0
  8 13  1  0  0  0  0
  9 15  1  0  0  0  0
  9 10  1  0  0  0  0
  9  8  1  0  0  0  0
 10 11  1  0  0  0  0
 10 17  1  0  0  0  0
 11  7  1  0  0  0  0
 11 20  1  0  0  0  0
 14  8  1  0  0  0  0
 16  9  1  0  0  0  0
 18 10  1  0  0  0  0
 19 11  1  0  0  0  0
 21 22  1  0  0  0  0
 22 23  2  0  0  0  0
 23 31  1  0  0  0  0
 24 23  1  0  0  0  0
 25 24  2  0  0  0  0
 26 32  1  0  0  0  0
 26 25  1  0  0  0  0
 27 26  2  0  0  0  0
 28 27  1  0  0  0  0
 28 29  2  0  0  0  0
 29 30  1  0  0  0  0
 30 25  1  0  0  0  0
 30 21  2  0  0  0  0
 33 27  1  0  0  0  0
 34 28  1  0  0  0  0
 35 34  2  0  0  0  0
 36 35  1  0  0  0  0
 37 38  2  0  0  0  0
 37 35  1  0  0  0  0
 38 39  1  0  0  0  0
 39 34  1  0  0  0  0
 40 42  1  0  0  0  0
 40 29  1  0  0  0  0
 41 40  1  0  0  0  0
 43  2  1  0  0  0  0
 43 44  1  0  0  0  0
 45 43  1  0  0  0  0
M  END
>  <minimizedAffinity>
-6.19589233

$$$$

 OpenBabel03252502103D

 45 49  0  0  0  0  0  0  0  0999 V2000
   37.8620   31.4030   38.5810 C   0  0  0  0  0  0  0  0  0  0  0  0
   39.1350   31.5340   38.0170 C   0  0  0  0  0  0  0  0  0  0  0  0
   40.1510   30.8480   38.6180 C   0  0  0  0  0  0  0  0  0  0  0  0
   39.9050   30.0910   39.6920 N   0  0  0  0  0  0  0  0  0  0  0  0
   38.7040   29.9500   40.2400 C   0  0  0  0  0  0  0  0  0  0  0  0
   37.6880   30.6260   39.6600 N   0  0  0  0  0  0  0  0  0  0  0  0
   41.4320   30.9460   38.1280 N   0  0  0  0  0  0  0  0  0  0  0  0
   42.6330   30.3740   38.8030 C   0  0  0  0  0  0  0  0  0  0  0  0
   43.7430   30.4510   37.7880 C   0  0  0  0  0  0  0  0  0  0  0  0
   43.3460   31.6300   36.9610 C   0  0  0  0  0  0  0  0  0  0  0  0
   41.8560   31.5930   36.9290 C   0  0  0  0  0  0  0  0  0  0  0  0
   37.0210   31.9360   38.1380 H   0  0  0  0  0  0  0  0  0  0  0  0
   42.8340   30.9120   39.7390 H   0  0  0  0  0  0  0  0  0  0  0  0
   42.3630   29.3030   38.9530 H   0  0  0  0  0  0  0  0  0  0  0  0
   44.7170   30.5500   38.2880 H   0  0  0  0  0  0  0  0  0  0  0  0
   43.7130   29.5460   37.1360 H   0  0  0  0  0  0  0  0  0  0  0  0
   43.7360   32.5280   37.4840 H   0  0  0  0  0  0  0  0  0  0  0  0
   43.7430   31.5860   35.9290 H   0  0  0  0  0  0  0  0  0  0  0  0
   41.5230   31.0290   36.0450 H   0  0  0  0  0  0  0  0  0  0  0  0
   41.5810   32.6900   36.8830 H   0  0  0  0  0  0  0  0  0  0  0  0
   38.2170   29.1370   41.3850 C   0  0  0  0  0  0  0  0  0  0  0  0
   38.1250   29.6060   42.6340 N   0  0  0  0  0  0  0  0  0  0  0  0
   37.6940   28.9110   43.6770 C   0  0  0  0  0  0  0  0  0  0  0  0
   37.3030   27.6230   43.5140 N   0  0  0  0  0  0  0  0  0  0  0  0
   37.3490   27.0410   42.3030 C   0  0  0  0  0  0  0  0  0  0  0  0
   36.9490   25.7380   42.1620 C   0  0  0  0  0  0  0  0  0  0  0  0
   36.9910   25.1280   40.9270 C   0  0  0  0  0  0  0  0  0  0  0  0
   37.4480   25.8690   39.8390 C   0  0  0  0  0  0  0  0  0  0  0  0
   37.8340   27.1790   40.0570 C   0  0  0  0  0  0  0  0  0  0  0  0
   37.8070   27.8160   41.2650 C   0  0  0  0  0  0  0  0  0  0  0  0
   37.6810   29.4350   44.6170 H   0  0  0  0  0  0  0  0  0  0  0  0
   36.6070   25.2290   43.0540 H   0  0  0  0  0  0  0  0  0  0  0  0
   36.6590   24.1170   40.9350 H   0  0  0  0  0  0  0  0  0  0  0  0
   37.4710   25.1880   38.5820 C   0  0  0  0  0  0  0  0  0  0  0  0
   38.3810   24.4260   37.9520 C   0  0  0  0  0  0  0  0  0  0  0  0
   39.3590   24.1570   38.3110 H   0  0  0  0  0  0  0  0  0  0  0  0
   38.1040   23.9010   36.7230 C   0  0  0  0  0  3  0  0  0  0  0  0
   36.8480   24.1890   36.1570 C   0  0  0  0  0  3  0  0  0  0  0  0
   36.0750   25.2440   37.4560 S   0  0  0  0  0  0  0  0  0  0  0  0
   38.2780   27.7990   38.8620 N   0  0  0  0  0  0  0  0  0  0  0  0
   39.3120   27.5520   38.9020 H   0  0  0  0  0  0  0  0  0  0  0  0
   37.3880   28.2050   38.4980 H   0  0  0  0  0  0  0  0  0  0  0  0
   39.2560   32.2860   36.8820 N   0  0  0  0  0  0  0  0  0  0  0  0
   39.2690   33.3350   36.9470 H   0  0  0  0  0  0  0  0  0  0  0  0
   39.3430   32.0200   35.8760 H   0  0  0  0  0  0  0  0  0  0  0  0
  1  6  1  0  0  0  0
  2  1  2  0  0  0  0
  2  3  1  0  0  0  0
  3  4  2  0  0  0  0
  4  5  1  0  0  0  0
  5 21  1  0  0  0  0
  6  5  2  0  0  0  0
  7  3  1  0  0  0  0
  7  8  1  0  0  0  0
  8 14  1  0  0  0  0
  8 13  1  0  0  0  0
  9 15  1  0  0  0  0
  9  8  1  0  0  0  0
 10 17  1  0  0  0  0
 10  9  1  0  0  0  0
 11 10  1  0  0  0  0
 11  7  1  0  0  0  0
 12  1  1  0  0  0  0
 16  9  1  0  0  0  0
 18 10  1  0  0  0  0
 19 11  1  0  0  0  0
 20 11  1  0  0  0  0
 21 22  1  0  0  0  0
 22 23  2  0  0  0  0
 23 31  1  0  0  0  0
 24 23  1  0  0  0  0
 25 24  2  0  0  0  0
 26 25  1  0  0  0  0
 26 32  1  0  0  0  0
 27 33  1  0  0  0  0
 27 26  2  0  0  0  0
 28 29  2  0  0  0  0
 28 27  1  0  0  0  0
 29 30  1  0  0  0  0
 30 21  2  0  0  0  0
 30 25  1  0  0  0  0
 34 28  1  0  0  0  0
 35 36  1  0  0  0  0
 35 34  2  0  0  0  0
 37 35  1  0  0  0  0
 38 37  2  0  0  0  0
 38 39  1  0  0  0  0
 39 34  1  0  0  0  0
 40 41  1  0  0  0  0
 40 29  1  0  0  0  0
 42 40  1  0  0  0  0
 43 44  1  0  0  0  0
 43  2  1  0  0  0  0
 45 43  1  0  0  0  0
M  END
>  <minimizedAffinity>
-6.00128508

$$$$

 OpenBabel03252502103D

 45 49  0  0  0  0  0  0  0  0999 V2000
   37.7430   28.8320   35.8880 C   0  0  0  0  0  0  0  0  0  0  0  0
   36.4180   28.5830   35.5130 C   0  0  0  0  0  0  0  0  0  0  0  0
   35.4430   29.0210   36.3620 C   0  0  0  0  0  0  0  0  0  0  0  0
   35.7730   29.6610   37.4880 N   0  0  0  0  0  0  0  0  0  0  0  0
   37.0230   29.9120   37.8600 C   0  0  0  0  0  0  0  0  0  0  0  0
   38.0010   29.4810   37.0330 N   0  0  0  0  0  0  0  0  0  0  0  0
   34.1200   28.7920   36.0670 N   0  0  0  0  0  0  0  0  0  0  0  0
   32.9920   29.0810   36.9990 C   0  0  0  0  0  0  0  0  0  0  0  0
   31.7400   28.9670   36.1690 C   0  0  0  0  0  0  0  0  0  0  0  0
   32.1360   27.9800   35.1190 C   0  0  0  0  0  0  0  0  0  0  0  0
   33.5800   28.2480   34.8630 C   0  0  0  0  0  0  0  0  0  0  0  0
   38.5540   28.4970   35.2430 H   0  0  0  0  0  0  0  0  0  0  0  0
   33.0280   28.4020   37.8610 H   0  0  0  0  0  0  0  0  0  0  0  0
   33.1430   30.1520   37.2680 H   0  0  0  0  0  0  0  0  0  0  0  0
   30.8900   28.6560   36.7910 H   0  0  0  0  0  0  0  0  0  0  0  0
   31.5380   29.9430   35.6660 H   0  0  0  0  0  0  0  0  0  0  0  0
   31.9630   26.9730   35.5520 H   0  0  0  0  0  0  0  0  0  0  0  0
   31.5620   28.0960   34.1800 H   0  0  0  0  0  0  0  0  0  0  0  0
   33.6770   28.9670   34.0360 H   0  0  0  0  0  0  0  0  0  0  0  0
   33.9820   27.2220   34.6080 H   0  0  0  0  0  0  0  0  0  0  0  0
   37.5930   30.6350   39.0260 C   0  0  0  0  0  0  0  0  0  0  0  0
   37.8110   31.9550   39.0380 N   0  0  0  0  0  0  0  0  0  0  0  0
   38.3160   32.6320   40.0600 C   0  0  0  0  0  0  0  0  0  0  0  0
   38.6510   31.9800   41.2010 N   0  0  0  0  0  0  0  0  0  0  0  0
   38.4760   30.6510   41.3070 C   0  0  0  0  0  0  0  0  0  0  0  0
   38.8230   30.0140   42.4710 C   0  0  0  0  0  0  0  0  0  0  0  0
   38.6500   28.6530   42.5940 C   0  0  0  0  0  0  0  0  0  0  0  0
   38.1200   27.9530   41.5130 C   0  0  0  0  0  0  0  0  0  0  0  0
   37.7940   28.6630   40.3720 C   0  0  0  0  0  0  0  0  0  0  0  0
   37.9500   30.0100   40.2120 C   0  0  0  0  0  0  0  0  0  0  0  0
   38.4300   33.6920   39.9110 H   0  0  0  0  0  0  0  0  0  0  0  0
   39.2280   30.6270   43.2660 H   0  0  0  0  0  0  0  0  0  0  0  0
   38.9530   28.2650   43.5380 H   0  0  0  0  0  0  0  0  0  0  0  0
   37.9620   26.5430   41.6950 C   0  0  0  0  0  0  0  0  0  0  0  0
   36.9490   25.7660   42.1120 C   0  0  0  0  0  0  0  0  0  0  0  0
   35.9700   26.0900   42.4200 H   0  0  0  0  0  0  0  0  0  0  0  0
   37.1060   24.4110   42.1800 C   0  0  0  0  0  3  0  0  0  0  0  0
   38.3520   23.8780   41.7990 C   0  0  0  0  0  3  0  0  0  0  0  0
   39.2940   25.3940   41.3400 S   0  0  0  0  0  0  0  0  0  0  0  0
   37.2730   27.8170   39.3600 N   0  0  0  0  0  0  0  0  0  0  0  0
   38.1740   27.5510   38.8630 H   0  0  0  0  0  0  0  0  0  0  0  0
   36.2510   27.8440   39.5750 H   0  0  0  0  0  0  0  0  0  0  0  0
   36.1990   27.9750   34.3090 N   0  0  0  0  0  0  0  0  0  0  0  0
   36.3330   26.9360   34.2140 H   0  0  0  0  0  0  0  0  0  0  0  0
   35.9030   28.3520   33.3820 H   0  0  0  0  0  0  0  0  0  0  0  0
  1  6  1  0  0  0  0
  2  1  2  0  0  0  0
  2  3  1  0  0  0  0
  3  4  2  0  0  0  0
  4  5  1  0  0  0  0
  5 21  1  0  0  0  0
  6  5  2  0  0  0  0
  7  3  1  0  0  0  0
  7  8  1  0  0  0  0
  8 14  1  0  0  0  0
  8 13  1  0  0  0  0
  9 15  1  0  0  0  0
  9  8  1  0  0  0  0
 10 17  1  0  0  0  0
 10  9  1  0  0  0  0
 11 10  1  0  0  0  0
 11  7  1  0  0  0  0
 12  1  1  0  0  0  0
 16  9  1  0  0  0  0
 18 10  1  0  0  0  0
 19 11  1  0  0  0  0
 20 11  1  0  0  0  0
 21 22  2  0  0  0  0
 21 30  1  0  0  0  0
 22 23  1  0  0  0  0
 23 24  2  0  0  0  0
 24 25  1  0  0  0  0
 25 26  1  0  0  0  0
 26 27  2  0  0  0  0
 26 32  1  0  0  0  0
 27 33  1  0  0  0  0
 28 34  1  0  0  0  0
 28 27  1  0  0  0  0
 29 28  2  0  0  0  0
 30 29  1  0  0  0  0
 30 25  2  0  0  0  0
 31 23  1  0  0  0  0
 34 35  2  0  0  0  0
 35 37  1  0  0  0  0
 35 36  1  0  0  0  0
 38 37  2  0  0  0  0
 39 34  1  0  0  0  0
 39 38  1  0  0  0  0
 40 42  1  0  0  0  0
 40 29  1  0  0  0  0
 41 40  1  0  0  0  0
 43  2  1  0  0  0  0
 44 43  1  0  0  0  0
 45 43  1  0  0  0  0
M  END
>  <minimizedAffinity>
-5.94398785

$$$$

 OpenBabel03252502103D

 45 49  0  0  0  0  0  0  0  0999 V2000
   38.2990   30.7720   38.2190 C   0  0  0  0  0  0  0  0  0  0  0  0
   39.3930   31.6120   37.9810 C   0  0  0  0  0  0  0  0  0  0  0  0
   40.3320   31.6980   38.9680 C   0  0  0  0  0  0  0  0  0  0  0  0
   40.1860   30.9930   40.0950 N   0  0  0  0  0  0  0  0  0  0  0  0
   39.1590   30.1880   40.3380 C   0  0  0  0  0  0  0  0  0  0  0  0
   38.2170   30.0950   39.3730 N   0  0  0  0  0  0  0  0  0  0  0  0
   41.4230   32.5190   38.8100 N   0  0  0  0  0  0  0  0  0  0  0  0
   42.4160   32.8090   39.8860 C   0  0  0  0  0  0  0  0  0  0  0  0
   43.5710   33.4890   39.1980 C   0  0  0  0  0  0  0  0  0  0  0  0
   42.9110   34.1570   38.0370 C   0  0  0  0  0  0  0  0  0  0  0  0
   41.8080   33.2360   37.6380 C   0  0  0  0  0  0  0  0  0  0  0  0
   37.5220   30.6760   37.4610 H   0  0  0  0  0  0  0  0  0  0  0  0
   41.9480   33.4030   40.6820 H   0  0  0  0  0  0  0  0  0  0  0  0
   42.7440   31.7980   40.2170 H   0  0  0  0  0  0  0  0  0  0  0  0
   44.0840   34.1720   39.8890 H   0  0  0  0  0  0  0  0  0  0  0  0
   44.2710   32.7160   38.7990 H   0  0  0  0  0  0  0  0  0  0  0  0
   42.5330   35.1330   38.4070 H   0  0  0  0  0  0  0  0  0  0  0  0
   43.5960   34.3120   37.1820 H   0  0  0  0  0  0  0  0  0  0  0  0
   42.1720   32.5440   36.8630 H   0  0  0  0  0  0  0  0  0  0  0  0
   41.0140   33.9470   37.2590 H   0  0  0  0  0  0  0  0  0  0  0  0
   38.8360   29.2980   41.4840 C   0  0  0  0  0  0  0  0  0  0  0  0
   38.0510   29.6660   42.5020 N   0  0  0  0  0  0  0  0  0  0  0  0
   37.7400   28.8990   43.5380 C   0  0  0  0  0  0  0  0  0  0  0  0
   38.2300   27.6370   43.6130 N   0  0  0  0  0  0  0  0  0  0  0  0
   39.0300   27.1540   42.6470 C   0  0  0  0  0  0  0  0  0  0  0  0
   39.5140   25.8760   42.7450 C   0  0  0  0  0  0  0  0  0  0  0  0
   40.3360   25.3670   41.7630 C   0  0  0  0  0  0  0  0  0  0  0  0
   40.6570   26.1830   40.6810 C   0  0  0  0  0  0  0  0  0  0  0  0
   40.1310   27.4630   40.6500 C   0  0  0  0  0  0  0  0  0  0  0  0
   39.3140   28.0010   41.6030 C   0  0  0  0  0  0  0  0  0  0  0  0
   37.0950   29.3450   44.2750 H   0  0  0  0  0  0  0  0  0  0  0  0
   39.2200   25.3030   43.6160 H   0  0  0  0  0  0  0  0  0  0  0  0
   40.6520   24.3670   41.9420 H   0  0  0  0  0  0  0  0  0  0  0  0
   41.5120   25.6070   39.6910 C   0  0  0  0  0  0  0  0  0  0  0  0
   42.8450   25.5150   39.5520 C   0  0  0  0  0  0  0  0  0  0  0  0
   43.5940   25.8960   40.2250 H   0  0  0  0  0  0  0  0  0  0  0  0
   43.3810   24.8850   38.4650 C   0  0  0  0  0  3  0  0  0  0  0  0
   42.4890   24.3470   37.5180 C   0  0  0  0  0  3  0  0  0  0  0  0
   40.8510   24.7790   38.2430 S   0  0  0  0  0  0  0  0  0  0  0  0
   40.5480   28.1720   39.4950 N   0  0  0  0  0  0  0  0  0  0  0  0
   41.4410   28.6140   39.8660 H   0  0  0  0  0  0  0  0  0  0  0  0
   39.7910   27.9280   38.8190 H   0  0  0  0  0  0  0  0  0  0  0  0
   39.4670   32.2340   36.7670 N   0  0  0  0  0  0  0  0  0  0  0  0
   38.8800   33.0850   36.5760 H   0  0  0  0  0  0  0  0  0  0  0  0
   40.0290   32.0280   35.9110 H   0  0  0  0  0  0  0  0  0  0  0  0
  1  6  1  0  0  0  0
  2  1  2  0  0  0  0
  2  3  1  0  0  0  0
  3  4  2  0  0  0  0
  4  5  1  0  0  0  0
  5 21  1  0  0  0  0
  6  5  2  0  0  0  0
  7  3  1  0  0  0  0
  7  8  1  0  0  0  0
  8 14  1  0  0  0  0
  8 13  1  0  0  0  0
  9  8  1  0  0  0  0
  9 15  1  0  0  0  0
 10 17  1  0  0  0  0
 10  9  1  0  0  0  0
 11 10  1  0  0  0  0
 11  7  1  0  0  0  0
 12  1  1  0  0  0  0
 16  9  1  0  0  0  0
 18 10  1  0  0  0  0
 19 11  1  0  0  0  0
 20 11  1  0  0  0  0
 21 30  2  0  0  0  0
 21 22  1  0  0  0  0
 22 23  2  0  0  0  0
 23 24  1  0  0  0  0
 23 31  1  0  0  0  0
 25 26  1  0  0  0  0
 25 24  2  0  0  0  0
 26 32  1  0  0  0  0
 27 33  1  0  0  0  0
 27 26  2  0  0  0  0
 28 27  1  0  0  0  0
 29 28  2  0  0  0  0
 29 30  1  0  0  0  0
 30 25  1  0  0  0  0
 34 28  1  0  0  0  0
 35 34  2  0  0  0  0
 35 36  1  0  0  0  0
 37 35  1  0  0  0  0
 38 39  1  0  0  0  0
 38 37  2  0  0  0  0
 39 34  1  0  0  0  0
 40 41  1  0  0  0  0
 40 29  1  0  0  0  0
 42 40  1  0  0  0  0
 43  2  1  0  0  0  0
 44 43  1  0  0  0  0
 45 43  1  0  0  0  0
M  END
>  <minimizedAffinity>
-5.79300213

$$$$

 OpenBabel03252502103D

 45 49  0  0  0  0  0  0  0  0999 V2000
   34.3400   28.9110   40.0020 C   0  0  0  0  0  0  0  0  0  0  0  0
   34.3480   28.9640   38.6040 C   0  0  0  0  0  0  0  0  0  0  0  0
   35.5630   29.1120   37.9980 C   0  0  0  0  0  0  0  0  0  0  0  0
   36.6740   29.1940   38.7360 N   0  0  0  0  0  0  0  0  0  0  0  0
   36.6890   29.1410   40.0630 C   0  0  0  0  0  0  0  0  0  0  0  0
   35.4940   29.0000   40.6790 N   0  0  0  0  0  0  0  0  0  0  0  0
   35.6440   29.1910   36.6280 N   0  0  0  0  0  0  0  0  0  0  0  0
   36.8930   29.5150   35.8800 C   0  0  0  0  0  0  0  0  0  0  0  0
   36.5950   29.1980   34.4370 C   0  0  0  0  0  0  0  0  0  0  0  0
   35.1200   29.4170   34.3540 C   0  0  0  0  0  0  0  0  0  0  0  0
   34.5930   28.9940   35.6830 C   0  0  0  0  0  0  0  0  0  0  0  0
   33.3930   28.7980   40.5280 H   0  0  0  0  0  0  0  0  0  0  0  0
   37.1860   30.5570   36.0650 H   0  0  0  0  0  0  0  0  0  0  0  0
   37.6280   28.7700   36.2630 H   0  0  0  0  0  0  0  0  0  0  0  0
   37.1910   29.8370   33.7710 H   0  0  0  0  0  0  0  0  0  0  0  0
   36.7950   28.1170   34.2470 H   0  0  0  0  0  0  0  0  0  0  0  0
   34.9720   30.5010   34.1660 H   0  0  0  0  0  0  0  0  0  0  0  0
   34.6400   28.8220   33.5550 H   0  0  0  0  0  0  0  0  0  0  0  0
   34.3030   27.9330   35.6410 H   0  0  0  0  0  0  0  0  0  0  0  0
   33.7110   29.6870   35.8340 H   0  0  0  0  0  0  0  0  0  0  0  0
   37.7970   29.1680   41.0530 C   0  0  0  0  0  0  0  0  0  0  0  0
   38.2090   30.2820   41.6660 N   0  0  0  0  0  0  0  0  0  0  0  0
   39.1910   30.3430   42.5550 C   0  0  0  0  0  0  0  0  0  0  0  0
   39.8570   29.2130   42.9000 N   0  0  0  0  0  0  0  0  0  0  0  0
   39.5320   28.0310   42.3500 C   0  0  0  0  0  0  0  0  0  0  0  0
   40.2200   26.9020   42.7150 C   0  0  0  0  0  0  0  0  0  0  0  0
   39.8990   25.6830   42.1590 C   0  0  0  0  0  0  0  0  0  0  0  0
   38.8660   25.6340   41.2260 C   0  0  0  0  0  0  0  0  0  0  0  0
   38.2160   26.8130   40.9080 C   0  0  0  0  0  0  0  0  0  0  0  0
   38.5060   28.0380   41.4370 C   0  0  0  0  0  0  0  0  0  0  0  0
   39.4010   31.3190   42.9570 H   0  0  0  0  0  0  0  0  0  0  0  0
   41.0100   27.0220   43.4460 H   0  0  0  0  0  0  0  0  0  0  0  0
   40.4970   24.8780   42.5140 H   0  0  0  0  0  0  0  0  0  0  0  0
   38.5730   24.3440   40.6810 C   0  0  0  0  0  0  0  0  0  0  0  0
   37.7650   23.3380   41.0530 C   0  0  0  0  0  0  0  0  0  0  0  0
   37.1230   23.3090   41.9160 H   0  0  0  0  0  0  0  0  0  0  0  0
   37.6990   22.1980   40.3050 C   0  0  0  0  0  3  0  0  0  0  0  0
   38.5000   22.1280   39.1490 C   0  0  0  0  0  3  0  0  0  0  0  0
   39.3540   23.7610   39.1750 S   0  0  0  0  0  0  0  0  0  0  0  0
   37.1970   26.6050   39.9450 N   0  0  0  0  0  0  0  0  0  0  0  0
   37.7580   26.7450   39.0520 H   0  0  0  0  0  0  0  0  0  0  0  0
   36.3730   26.4080   40.5560 H   0  0  0  0  0  0  0  0  0  0  0  0
   33.1570   28.8070   37.9520 N   0  0  0  0  0  0  0  0  0  0  0  0
   32.4820   29.6100   37.8950 H   0  0  0  0  0  0  0  0  0  0  0  0
   32.7360   27.9900   37.4580 H   0  0  0  0  0  0  0  0  0  0  0  0
  1 12  1  0  0  0  0
  1  6  1  0  0  0  0
  2  1  2  0  0  0  0
  3  2  1  0  0  0  0
  3  4  2  0  0  0  0
  4  5  1  0  0  0  0
  5  6  2  0  0  0  0
  5 21  1  0  0  0  0
  7  3  1  0  0  0  0
  8 13  1  0  0  0  0
  8 14  1  0  0  0  0
  8  7  1  0  0  0  0
  9  8  1  0  0  0  0
 10  9  1  0  0  0  0
 10 11  1  0  0  0  0
 11 20  1  0  0  0  0
 11  7  1  0  0  0  0
 15  9  1  0  0  0  0
 16  9  1  0  0  0  0
 17 10  1  0  0  0  0
 18 10  1  0  0  0  0
 19 11  1  0  0  0  0
 21 30  2  0  0  0  0
 21 22  1  0  0  0  0
 22 23  2  0  0  0  0
 23 24  1  0  0  0  0
 23 31  1  0  0  0  0
 25 26  1  0  0  0  0
 25 24  2  0  0  0  0
 26 32  1  0  0  0  0
 27 33  1  0  0  0  0
 27 26  2  0  0  0  0
 28 27  1  0  0  0  0
 29 28  2  0  0  0  0
 29 30  1  0  0  0  0
 30 25  1  0  0  0  0
 34 35  2  0  0  0  0
 34 28  1  0  0  0  0
 35 36  1  0  0  0  0
 37 35  1  0  0  0  0
 38 39  1  0  0  0  0
 38 37  2  0  0  0  0
 39 34  1  0  0  0  0
 40 42  1  0  0  0  0
 40 29  1  0  0  0  0
 41 40  1  0  0  0  0
 43  2  1  0  0  0  0
 44 43  1  0  0  0  0
 45 43  1  0  0  0  0
M  END
>  <minimizedAffinity>
-5.76482105

$$$$

 OpenBabel03252502103D

 45 49  0  0  0  0  0  0  0  0999 V2000
   37.3300   24.2800   41.7780 C   0  0  0  0  0  0  0  0  0  0  0  0
   37.9690   23.5470   40.7710 C   0  0  0  0  0  0  0  0  0  0  0  0
   38.8270   24.2300   39.9590 C   0  0  0  0  0  0  0  0  0  0  0  0
   39.0300   25.5380   40.1470 N   0  0  0  0  0  0  0  0  0  0  0  0
   38.4380   26.2510   41.0980 C   0  0  0  0  0  0  0  0  0  0  0  0
   37.5810   25.5900   41.9090 N   0  0  0  0  0  0  0  0  0  0  0  0
   39.4740   23.5770   38.9370 N   0  0  0  0  0  0  0  0  0  0  0  0
   40.3000   24.2580   37.8980 C   0  0  0  0  0  0  0  0  0  0  0  0
   41.0430   23.1580   37.1860 C   0  0  0  0  0  0  0  0  0  0  0  0
   40.1210   21.9930   37.3340 C   0  0  0  0  0  0  0  0  0  0  0  0
   39.4820   22.1750   38.6690 C   0  0  0  0  0  0  0  0  0  0  0  0
   36.6330   23.7770   42.4470 H   0  0  0  0  0  0  0  0  0  0  0  0
   39.6610   24.8700   37.2470 H   0  0  0  0  0  0  0  0  0  0  0  0
   41.0300   24.8530   38.4930 H   0  0  0  0  0  0  0  0  0  0  0  0
   41.2550   23.4450   36.1460 H   0  0  0  0  0  0  0  0  0  0  0  0
   41.9840   22.9270   37.7410 H   0  0  0  0  0  0  0  0  0  0  0  0
   39.3890   22.0620   36.5030 H   0  0  0  0  0  0  0  0  0  0  0  0
   40.6460   21.0200   37.3010 H   0  0  0  0  0  0  0  0  0  0  0  0
   40.0680   21.6390   39.4310 H   0  0  0  0  0  0  0  0  0  0  0  0
   38.4510   21.7370   38.5140 H   0  0  0  0  0  0  0  0  0  0  0  0
   38.5560   27.6770   41.4990 C   0  0  0  0  0  0  0  0  0  0  0  0
   39.3940   28.1060   42.4490 N   0  0  0  0  0  0  0  0  0  0  0  0
   39.5280   29.3690   42.8310 C   0  0  0  0  0  0  0  0  0  0  0  0
   38.7790   30.3340   42.2410 N   0  0  0  0  0  0  0  0  0  0  0  0
   37.9020   30.0230   41.2710 C   0  0  0  0  0  0  0  0  0  0  0  0
   37.1560   31.0150   40.6890 C   0  0  0  0  0  0  0  0  0  0  0  0
   36.2520   30.7130   39.6950 C   0  0  0  0  0  0  0  0  0  0  0  0
   36.1210   29.3820   39.3040 C   0  0  0  0  0  0  0  0  0  0  0  0
   36.9070   28.4350   39.9360 C   0  0  0  0  0  0  0  0  0  0  0  0
   37.8120   28.6970   40.9240 C   0  0  0  0  0  0  0  0  0  0  0  0
   40.2470   29.5500   43.6110 H   0  0  0  0  0  0  0  0  0  0  0  0
   37.3150   32.0250   41.0480 H   0  0  0  0  0  0  0  0  0  0  0  0
   35.7300   31.5590   39.3170 H   0  0  0  0  0  0  0  0  0  0  0  0
   35.1690   29.1230   38.2690 C   0  0  0  0  0  0  0  0  0  0  0  0
   33.8510   28.8670   38.2590 C   0  0  0  0  0  0  0  0  0  0  0  0
   33.1980   28.8020   39.1120 H   0  0  0  0  0  0  0  0  0  0  0  0
   33.2010   28.6560   37.0760 C   0  0  0  0  0  3  0  0  0  0  0  0
   33.9610   28.7180   35.8930 C   0  0  0  0  0  3  0  0  0  0  0  0
   35.6460   29.0910   36.5390 S   0  0  0  0  0  0  0  0  0  0  0  0
   36.6590   27.1320   39.4360 N   0  0  0  0  0  0  0  0  0  0  0  0
   35.8770   26.8310   40.0920 H   0  0  0  0  0  0  0  0  0  0  0  0
   37.3510   27.0740   38.6580 H   0  0  0  0  0  0  0  0  0  0  0  0
   37.7320   22.2020   40.7140 N   0  0  0  0  0  0  0  0  0  0  0  0
   36.8380   21.8450   40.2900 H   0  0  0  0  0  0  0  0  0  0  0  0
   38.2950   21.3810   41.0280 H   0  0  0  0  0  0  0  0  0  0  0  0
  1  6  1  0  0  0  0
  1 12  1  0  0  0  0
  2  1  2  0  0  0  0
  3  4  2  0  0  0  0
  3  2  1  0  0  0  0
  4  5  1  0  0  0  0
  5 21  1  0  0  0  0
  5  6  2  0  0  0  0
  7  3  1  0  0  0  0
  8 14  1  0  0  0  0
  8  7  1  0  0  0  0
  9 10  1  0  0  0  0
  9 16  1  0  0  0  0
  9  8  1  0  0  0  0
 10 11  1  0  0  0  0
 11  7  1  0  0  0  0
 11 19  1  0  0  0  0
 13  8  1  0  0  0  0
 15  9  1  0  0  0  0
 17 10  1  0  0  0  0
 18 10  1  0  0  0  0
 20 11  1  0  0  0  0
 21 22  1  0  0  0  0
 22 23  2  0  0  0  0
 23 31  1  0  0  0  0
 24 23  1  0  0  0  0
 25 24  2  0  0  0  0
 26 32  1  0  0  0  0
 26 25  1  0  0  0  0
 27 26  2  0  0  0  0
 28 27  1  0  0  0  0
 28 29  2  0  0  0  0
 29 30  1  0  0  0  0
 30 25  1  0  0  0  0
 30 21  2  0  0  0  0
 33 27  1  0  0  0  0
 34 28  1  0  0  0  0
 35 34  2  0  0  0  0
 35 36  1  0  0  0  0
 37 35  1  0  0  0  0
 38 39  1  0  0  0  0
 38 37  2  0  0  0  0
 39 34  1  0  0  0  0
 40 29  1  0  0  0  0
 40 41  1  0  0  0  0
 42 40  1  0  0  0  0
 43  2  1  0  0  0  0
 43 45  1  0  0  0  0
 44 43  1  0  0  0  0
M  END
>  <minimizedAffinity>
-5.76180601

$$$$

 OpenBabel03252502103D

 45 49  0  0  0  0  0  0  0  0999 V2000
   37.7970   29.5560   36.9100 C   0  0  0  0  0  0  0  0  0  0  0  0
   36.5780   29.5840   36.2240 C   0  0  0  0  0  0  0  0  0  0  0  0
   35.4510   29.3480   36.9570 C   0  0  0  0  0  0  0  0  0  0  0  0
   35.5430   29.1100   38.2690 N   0  0  0  0  0  0  0  0  0  0  0  0
   36.6880   29.0830   38.9400 C   0  0  0  0  0  0  0  0  0  0  0  0
   37.8150   29.3100   38.2280 N   0  0  0  0  0  0  0  0  0  0  0  0
   34.2210   29.3410   36.3450 N   0  0  0  0  0  0  0  0  0  0  0  0
   32.9520   28.9340   37.0170 C   0  0  0  0  0  0  0  0  0  0  0  0
   31.8460   29.3630   36.0890 C   0  0  0  0  0  0  0  0  0  0  0  0
   32.5040   29.3020   34.7490 C   0  0  0  0  0  0  0  0  0  0  0  0
   33.9190   29.6990   34.9960 C   0  0  0  0  0  0  0  0  0  0  0  0
   38.7230   29.7350   36.3650 H   0  0  0  0  0  0  0  0  0  0  0  0
   32.9680   27.8590   37.2380 H   0  0  0  0  0  0  0  0  0  0  0  0
   32.9210   29.5760   37.9270 H   0  0  0  0  0  0  0  0  0  0  0  0
   30.9720   28.7070   36.2000 H   0  0  0  0  0  0  0  0  0  0  0  0
   31.5810   30.4280   36.2950 H   0  0  0  0  0  0  0  0  0  0  0  0
   32.4140   28.2510   34.4010 H   0  0  0  0  0  0  0  0  0  0  0  0
   32.0460   29.9880   34.0120 H   0  0  0  0  0  0  0  0  0  0  0  0
   34.0260   30.7840   34.8510 H   0  0  0  0  0  0  0  0  0  0  0  0
   34.4860   29.0920   34.2280 H   0  0  0  0  0  0  0  0  0  0  0  0
   37.0000   28.8860   40.3790 C   0  0  0  0  0  0  0  0  0  0  0  0
   37.2430   29.8940   41.2240 N   0  0  0  0  0  0  0  0  0  0  0  0
   37.5220   29.7560   42.5130 C   0  0  0  0  0  0  0  0  0  0  0  0
   37.5760   28.5170   43.0620 N   0  0  0  0  0  0  0  0  0  0  0  0
   37.3490   27.4250   42.3110 C   0  0  0  0  0  0  0  0  0  0  0  0
   37.4090   26.1830   42.8870 C   0  0  0  0  0  0  0  0  0  0  0  0
   37.1800   25.0550   42.1310 C   0  0  0  0  0  0  0  0  0  0  0  0
   36.8890   25.2130   40.7780 C   0  0  0  0  0  0  0  0  0  0  0  0
   36.8450   26.4980   40.2660 C   0  0  0  0  0  0  0  0  0  0  0  0
   37.0660   27.6390   40.9840 C   0  0  0  0  0  0  0  0  0  0  0  0
   37.6920   30.6690   43.0570 H   0  0  0  0  0  0  0  0  0  0  0  0
   37.6410   26.1420   43.9440 H   0  0  0  0  0  0  0  0  0  0  0  0
   37.2530   24.1460   42.6810 H   0  0  0  0  0  0  0  0  0  0  0  0
   36.6600   24.0110   40.0400 C   0  0  0  0  0  0  0  0  0  0  0  0
   35.5660   23.2810   39.7660 C   0  0  0  0  0  0  0  0  0  0  0  0
   34.5570   23.4840   40.0810 H   0  0  0  0  0  0  0  0  0  0  0  0
   35.6680   22.1470   39.0110 C   0  0  0  0  0  3  0  0  0  0  0  0
   36.9460   21.7870   38.5440 C   0  0  0  0  0  3  0  0  0  0  0  0
   37.9990   23.1350   39.2270 S   0  0  0  0  0  0  0  0  0  0  0  0
   36.5430   26.4990   38.8810 N   0  0  0  0  0  0  0  0  0  0  0  0
   37.5270   26.4380   38.4810 H   0  0  0  0  0  0  0  0  0  0  0  0
   35.5010   26.5530   38.8970 H   0  0  0  0  0  0  0  0  0  0  0  0
   36.6010   29.9000   34.8950 N   0  0  0  0  0  0  0  0  0  0  0  0
   36.8860   29.1740   34.1880 H   0  0  0  0  0  0  0  0  0  0  0  0
   36.3800   30.7830   34.3840 H   0  0  0  0  0  0  0  0  0  0  0  0
  1  6  1  0  0  0  0
  2  1  2  0  0  0  0
  2  3  1  0  0  0  0
  3  4  2  0  0  0  0
  4  5  1  0  0  0  0
  5 21  1  0  0  0  0
  6  5  2  0  0  0  0
  7  3  1  0  0  0  0
  7  8  1  0  0  0  0
  8 13  1  0  0  0  0
  8 14  1  0  0  0  0
  9 15  1  0  0  0  0
  9 16  1  0  0  0  0
  9  8  1  0  0  0  0
 10 11  1  0  0  0  0
 10  9  1  0  0  0  0
 11  7  1  0  0  0  0
 12  1  1  0  0  0  0
 17 10  1  0  0  0  0
 18 10  1  0  0  0  0
 19 11  1  0  0  0  0
 20 11  1  0  0  0  0
 21 30  2  0  0  0  0
 21 22  1  0  0  0  0
 22 23  2  0  0  0  0
 23 31  1  0  0  0  0
 23 24  1  0  0  0  0
 25 26  1  0  0  0  0
 25 24  2  0  0  0  0
 26 32  1  0  0  0  0
 27 33  1  0  0  0  0
 27 26  2  0  0  0  0
 28 27  1  0  0  0  0
 29 28  2  0  0  0  0
 29 30  1  0  0  0  0
 30 25  1  0  0  0  0
 34 28  1  0  0  0  0
 35 34  2  0  0  0  0
 35 36  1  0  0  0  0
 37 35  1  0  0  0  0
 38 37  2  0  0  0  0
 38 39  1  0  0  0  0
 39 34  1  0  0  0  0
 40 42  1  0  0  0  0
 40 29  1  0  0  0  0
 41 40  1  0  0  0  0
 43  2  1  0  0  0  0
 44 43  1  0  0  0  0
 45 43  1  0  0  0  0
M  END
>  <minimizedAffinity>
-5.75577116

$$$$
