
 OpenBabel03242514113D

 43 46  0  0  1  0  0  0  0  0999 V2000
   39.5680   32.3330   40.7250 C   0  0  0  0  0  0  0  0  0  0  0  0
   38.5800   33.2850   40.5820 C   0  0  0  0  0  0  0  0  0  0  0  0
   38.8280   34.6390   40.4150 C   0  0  0  0  0  0  0  0  0  0  0  0
   40.1890   34.9740   40.4040 C   0  0  0  0  0  0  0  0  0  0  0  0
   41.1960   34.0080   40.5510 C   0  0  0  0  0  0  0  0  0  0  0  0
   40.8780   32.7080   40.7080 N   0  0  0  0  0  0  0  0  0  0  0  0
   37.5550   32.9220   40.6040 H   0  0  0  0  0  0  0  0  0  0  0  0
   38.0310   35.3440   40.3070 H   0  0  0  0  0  0  0  0  0  0  0  0
   40.3210   36.0390   40.2750 H   0  0  0  0  0  0  0  0  0  0  0  0
   42.5920   34.4260   40.5100 C   0  0  1  0  0  0  0  0  0  0  0  0
   43.2180   34.3980   41.9670 C   0  0  0  0  0  0  0  0  0  0  0  0
   44.4840   35.2860   41.7750 C   0  0  0  0  0  0  0  0  0  0  0  0
   45.4420   34.3690   41.0020 C   0  0  0  0  0  0  0  0  0  0  0  0
   44.9010   34.0350   39.6670 C   0  0  0  0  0  0  0  0  0  0  0  0
   43.4460   33.7720   39.5670 C   0  0  2  0  0  0  0  0  0  0  0  0
   42.5660   35.5460   40.3450 H   0  0  0  0  0  0  0  0  0  0  0  0
   43.4990   33.3600   42.1670 H   0  0  0  0  0  0  0  0  0  0  0  0
   42.5140   34.8580   42.6580 H   0  0  0  0  0  0  0  0  0  0  0  0
   44.2160   36.1670   41.1900 H   0  0  0  0  0  0  0  0  0  0  0  0
   44.9420   35.4790   42.7470 H   0  0  0  0  0  0  0  0  0  0  0  0
   46.3820   34.9550   40.9140 H   0  0  0  0  0  0  0  0  0  0  0  0
   45.6600   33.5230   41.6580 H   0  0  0  0  0  0  0  0  0  0  0  0
   45.2080   34.8880   38.9900 H   0  0  0  0  0  0  0  0  0  0  0  0
   45.4830   33.1800   39.2600 H   0  0  0  0  0  0  0  0  0  0  0  0
   43.3320   32.6470   39.6520 H   0  0  0  0  0  0  0  0  0  0  0  0
   42.9370   34.3310   37.9100 S   0  0  0  0  0  0  0  0  0  0  0  0
   43.1170   33.2710   37.0220 H   0  0  0  0  0  0  0  0  0  0  0  0
   39.2420   28.7200   40.2760 C   0  0  0  0  0  0  0  0  0  0  0  0
   38.4620   28.3280   41.3600 C   0  0  0  0  0  0  0  0  0  0  0  0
   38.0640   29.3150   42.2230 C   0  0  0  0  0  0  0  0  0  0  0  0
   38.4440   30.6070   41.9830 N   0  0  0  0  0  0  0  0  0  0  0  0
   39.2200   30.9350   40.8890 C   0  0  0  0  0  0  0  0  0  0  0  0
   39.5980   30.0140   40.0730 N   0  0  0  0  0  0  0  0  0  0  0  0
   37.2810   29.0990   43.3540 N   0  0  0  0  0  0  0  0  0  0  0  0
   39.6100   28.0210   39.5340 H   0  0  0  0  0  0  0  0  0  0  0  0
   36.3220   29.2520   43.0030 H   0  0  0  0  0  0  0  0  0  0  0  0
   37.9570   28.8640   44.1240 H   0  0  0  0  0  0  0  0  0  0  0  0
   38.0910   26.9770   41.5710 C   0  0  0  0  0  0  0  0  0  0  0  0
   37.0170   26.2030   41.2490 C   0  0  0  0  0  0  0  0  0  0  0  0
   36.1730   26.5880   40.6980 H   0  0  0  0  0  0  0  0  0  0  0  0
   36.9780   24.8950   41.6180 C   0  0  0  0  0  3  0  0  0  0  0  0
   38.1280   24.4000   42.3590 C   0  0  0  0  0  3  0  0  0  0  0  0
   39.2330   25.9140   42.4780 S   0  0  0  0  0  0  0  0  0  0  0  0
  1 32  1  0  0  0  0
  2  7  1  0  0  0  0
  2  1  2  0  0  0  0
  3  2  1  0  0  0  0
  4  3  2  0  0  0  0
  4  5  1  0  0  0  0
  5  6  2  0  0  0  0
  6  1  1  0  0  0  0
  8  3  1  0  0  0  0
  9  4  1  0  0  0  0
 10 16  1  6  0  0  0
 10  5  1  0  0  0  0
 10 11  1  0  0  0  0
 11 17  1  0  0  0  0
 11 18  1  0  0  0  0
 12 11  1  0  0  0  0
 12 20  1  0  0  0  0
 13 22  1  0  0  0  0
 13 12  1  0  0  0  0
 14 13  1  0  0  0  0
 15 25  1  1  0  0  0
 15 14  1  0  0  0  0
 15 10  1  0  0  0  0
 19 12  1  0  0  0  0
 21 13  1  0  0  0  0
 23 14  1  0  0  0  0
 24 14  1  0  0  0  0
 26 15  1  0  0  0  0
 27 26  1  0  0  0  0
 28 29  1  0  0  0  0
 29 38  1  0  0  0  0
 29 30  2  0  0  0  0
 30 34  1  0  0  0  0
 31 30  1  0  0  0  0
 32 31  2  0  0  0  0
 33 28  2  0  0  0  0
 33 32  1  0  0  0  0
 34 37  1  0  0  0  0
 35 28  1  0  0  0  0
 36 34  1  0  0  0  0
 38 43  1  0  0  0  0
 39 38  2  0  0  0  0
 39 41  1  0  0  0  0
 40 39  1  0  0  0  0
 41 42  2  0  0  0  0
 42 43  1  0  0  0  0
M  END
>  <minimizedAffinity>
-6.47649336

$$$$

 OpenBabel03242514113D

 43 46  0  0  1  0  0  0  0  0999 V2000
   38.6660   28.9100   41.7650 C   0  0  0  0  0  0  0  0  0  0  0  0
   38.0820   29.3110   42.9490 C   0  0  0  0  0  0  0  0  0  0  0  0
   37.3210   28.4790   43.7560 C   0  0  0  0  0  0  0  0  0  0  0  0
   37.1880   27.1720   43.2690 C   0  0  0  0  0  0  0  0  0  0  0  0
   37.7810   26.7620   42.0640 C   0  0  0  0  0  0  0  0  0  0  0  0
   38.5080   27.6270   41.3310 N   0  0  0  0  0  0  0  0  0  0  0  0
   38.2460   30.3450   43.2390 H   0  0  0  0  0  0  0  0  0  0  0  0
   36.8860   28.8320   44.6670 H   0  0  0  0  0  0  0  0  0  0  0  0
   36.5850   26.5730   43.9350 H   0  0  0  0  0  0  0  0  0  0  0  0
   37.6160   25.3810   41.6270 C   0  0  1  0  0  0  0  0  0  0  0  0
   36.6080   25.3070   40.4060 C   0  0  0  0  0  0  0  0  0  0  0  0
   36.2280   23.7950   40.4120 C   0  0  0  0  0  0  0  0  0  0  0  0
   37.4760   23.1170   39.8310 C   0  0  0  0  0  0  0  0  0  0  0  0
   38.6470   23.3070   40.7160 C   0  0  0  0  0  0  0  0  0  0  0  0
   38.8050   24.6300   41.3620 C   0  0  2  0  0  0  0  0  0  0  0  0
   36.9780   24.8880   42.4210 H   0  0  0  0  0  0  0  0  0  0  0  0
   37.1810   25.5590   39.5090 H   0  0  0  0  0  0  0  0  0  0  0  0
   35.7440   25.9320   40.6280 H   0  0  0  0  0  0  0  0  0  0  0  0
   36.0430   23.4790   41.4400 H   0  0  0  0  0  0  0  0  0  0  0  0
   35.4130   23.6230   39.7060 H   0  0  0  0  0  0  0  0  0  0  0  0
   37.2040   22.0430   39.7590 H   0  0  0  0  0  0  0  0  0  0  0  0
   37.5810   23.4840   38.8080 H   0  0  0  0  0  0  0  0  0  0  0  0
   38.5850   22.4820   41.4860 H   0  0  0  0  0  0  0  0  0  0  0  0
   39.5610   23.0380   40.1420 H   0  0  0  0  0  0  0  0  0  0  0  0
   39.4970   25.2210   40.6860 H   0  0  0  0  0  0  0  0  0  0  0  0
   39.6090   24.3230   42.9670 S   0  0  0  0  0  0  0  0  0  0  0  0
   40.9890   24.3350   42.7680 H   0  0  0  0  0  0  0  0  0  0  0  0
   40.2770   30.7050   39.0190 C   0  0  0  0  0  0  0  0  0  0  0  0
   41.0010   31.7030   39.6640 C   0  0  0  0  0  0  0  0  0  0  0  0
   40.9200   31.7380   41.0310 C   0  0  0  0  0  0  0  0  0  0  0  0
   40.1500   30.8120   41.6800 N   0  0  0  0  0  0  0  0  0  0  0  0
   39.4530   29.8440   40.9830 C   0  0  0  0  0  0  0  0  0  0  0  0
   39.5240   29.8040   39.6980 N   0  0  0  0  0  0  0  0  0  0  0  0
   41.5810   32.6650   41.8330 N   0  0  0  0  0  0  0  0  0  0  0  0
   40.2710   30.5880   37.9410 H   0  0  0  0  0  0  0  0  0  0  0  0
   42.4630   32.1830   42.0660 H   0  0  0  0  0  0  0  0  0  0  0  0
   40.9350   33.4940   41.8940 H   0  0  0  0  0  0  0  0  0  0  0  0
   41.7870   32.6430   38.9530 C   0  0  0  0  0  0  0  0  0  0  0  0
   41.5740   33.8740   38.4090 C   0  0  0  0  0  0  0  0  0  0  0  0
   40.6180   34.3700   38.4620 H   0  0  0  0  0  0  0  0  0  0  0  0
   42.5820   34.5270   37.7710 C   0  0  0  0  0  3  0  0  0  0  0  0
   43.8610   33.8380   37.7140 C   0  0  0  0  0  3  0  0  0  0  0  0
   43.5120   32.2300   38.6190 S   0  0  0  0  0  0  0  0  0  0  0  0
  1  2  1  0  0  0  0
  2  7  1  0  0  0  0
  2  3  2  0  0  0  0
  3  8  1  0  0  0  0
  4  3  1  0  0  0  0
  4  9  1  0  0  0  0
  5  4  2  0  0  0  0
  6  1  2  0  0  0  0
  6  5  1  0  0  0  0
 10  5  1  0  0  0  0
 10 16  1  1  0  0  0
 11 12  1  0  0  0  0
 11 18  1  0  0  0  0
 11 10  1  0  0  0  0
 12 19  1  0  0  0  0
 13 12  1  0  0  0  0
 13 14  1  0  0  0  0
 14 15  1  0  0  0  0
 14 23  1  0  0  0  0
 15 25  1  6  0  0  0
 15 10  1  0  0  0  0
 15 26  1  0  0  0  0
 17 11  1  0  0  0  0
 20 12  1  0  0  0  0
 21 13  1  0  0  0  0
 22 13  1  0  0  0  0
 24 14  1  0  0  0  0
 27 26  1  0  0  0  0
 28 29  2  0  0  0  0
 28 33  1  0  0  0  0
 29 30  1  0  0  0  0
 30 31  2  0  0  0  0
 30 34  1  0  0  0  0
 32 31  1  0  0  0  0
 32  1  1  0  0  0  0
 33 32  2  0  0  0  0
 34 37  1  0  0  0  0
 34 36  1  0  0  0  0
 35 28  1  0  0  0  0
 38 29  1  0  0  0  0
 39 40  1  0  0  0  0
 39 38  2  0  0  0  0
 41 39  1  0  0  0  0
 42 41  2  0  0  0  0
 42 43  1  0  0  0  0
 43 38  1  0  0  0  0
M  END
>  <minimizedAffinity>
-6.13101721

$$$$

 OpenBabel03242514113D

 43 46  0  0  1  0  0  0  0  0999 V2000
   39.0410   33.0380   39.4880 C   0  0  0  0  0  0  0  0  0  0  0  0
   38.5550   34.1740   40.1020 C   0  0  0  0  0  0  0  0  0  0  0  0
   39.3580   35.1970   40.5830 C   0  0  0  0  0  0  0  0  0  0  0  0
   40.7300   34.9850   40.3950 C   0  0  0  0  0  0  0  0  0  0  0  0
   41.2270   33.8300   39.7710 C   0  0  0  0  0  0  0  0  0  0  0  0
   40.3850   32.8760   39.3280 N   0  0  0  0  0  0  0  0  0  0  0  0
   37.4750   34.2430   40.2000 H   0  0  0  0  0  0  0  0  0  0  0  0
   38.9390   36.0610   41.0530 H   0  0  0  0  0  0  0  0  0  0  0  0
   41.3040   35.8100   40.7910 H   0  0  0  0  0  0  0  0  0  0  0  0
   42.6660   33.6850   39.5920 C   0  0  1  0  0  0  0  0  0  0  0  0
   43.1120   34.3010   38.2000 C   0  0  0  0  0  0  0  0  0  0  0  0
   44.5150   33.6480   38.0090 C   0  0  0  0  0  0  0  0  0  0  0  0
   45.4000   34.4220   38.9950 C   0  0  0  0  0  0  0  0  0  0  0  0
   44.9670   34.1970   40.3920 C   0  0  0  0  0  0  0  0  0  0  0  0
   43.5100   34.1410   40.6530 C   0  0  2  0  0  0  0  0  0  0  0  0
   42.8330   32.5880   39.3670 H   0  0  0  0  0  0  0  0  0  0  0  0
   43.2050   35.3810   38.3500 H   0  0  0  0  0  0  0  0  0  0  0  0
   42.4150   33.9700   37.4330 H   0  0  0  0  0  0  0  0  0  0  0  0
   44.4530   32.5900   38.2730 H   0  0  0  0  0  0  0  0  0  0  0  0
   44.8840   33.8700   37.0060 H   0  0  0  0  0  0  0  0  0  0  0  0
   46.4230   34.0230   38.8270 H   0  0  0  0  0  0  0  0  0  0  0  0
   45.4090   35.4600   38.6550 H   0  0  0  0  0  0  0  0  0  0  0  0
   45.4770   33.2420   40.7190 H   0  0  0  0  0  0  0  0  0  0  0  0
   45.4530   34.9640   41.0330 H   0  0  0  0  0  0  0  0  0  0  0  0
   43.2140   35.1910   40.9630 H   0  0  0  0  0  0  0  0  0  0  0  0
   43.2840   32.9890   42.0460 S   0  0  0  0  0  0  0  0  0  0  0  0
   43.3960   33.7150   43.2310 H   0  0  0  0  0  0  0  0  0  0  0  0
   37.2600   30.6210   37.4040 C   0  0  0  0  0  0  0  0  0  0  0  0
   36.3200   30.0740   38.2730 C   0  0  0  0  0  0  0  0  0  0  0  0
   36.3190   30.5490   39.5580 C   0  0  0  0  0  0  0  0  0  0  0  0
   37.2190   31.5140   39.9160 N   0  0  0  0  0  0  0  0  0  0  0  0
   38.1300   32.0180   39.0070 C   0  0  0  0  0  0  0  0  0  0  0  0
   38.1380   31.5780   37.7980 N   0  0  0  0  0  0  0  0  0  0  0  0
   35.4460   30.1150   40.5530 N   0  0  0  0  0  0  0  0  0  0  0  0
   37.3480   30.3180   36.3660 H   0  0  0  0  0  0  0  0  0  0  0  0
   34.6650   30.7850   40.4830 H   0  0  0  0  0  0  0  0  0  0  0  0
   35.9120   29.2790   40.9900 H   0  0  0  0  0  0  0  0  0  0  0  0
   35.4050   29.0750   37.8600 C   0  0  0  0  0  0  0  0  0  0  0  0
   34.1410   29.0660   37.3500 C   0  0  0  0  0  0  0  0  0  0  0  0
   33.5870   29.9730   37.1660 H   0  0  0  0  0  0  0  0  0  0  0  0
   33.5290   27.8890   37.0520 C   0  0  0  0  0  3  0  0  0  0  0  0
   34.2970   26.6810   37.3090 C   0  0  0  0  0  3  0  0  0  0  0  0
   35.9140   27.3490   37.9900 S   0  0  0  0  0  0  0  0  0  0  0  0
  1  2  1  0  0  0  0
  2  7  1  0  0  0  0
  2  3  2  0  0  0  0
  3  8  1  0  0  0  0
  4  3  1  0  0  0  0
  4  9  1  0  0  0  0
  5  4  2  0  0  0  0
  6  1  2  0  0  0  0
  6  5  1  0  0  0  0
 10 16  1  6  0  0  0
 10  5  1  0  0  0  0
 10 15  1  0  0  0  0
 11 17  1  0  0  0  0
 11 10  1  0  0  0  0
 12 11  1  0  0  0  0
 12 19  1  0  0  0  0
 12 13  1  0  0  0  0
 13 14  1  0  0  0  0
 14 15  1  0  0  0  0
 14 23  1  0  0  0  0
 14 24  1  0  0  0  0
 15 25  1  1  0  0  0
 15 26  1  0  0  0  0
 18 11  1  0  0  0  0
 20 12  1  0  0  0  0
 21 13  1  0  0  0  0
 22 13  1  0  0  0  0
 26 27  1  0  0  0  0
 28 33  2  0  0  0  0
 28 29  1  0  0  0  0
 29 30  2  0  0  0  0
 30 31  1  0  0  0  0
 30 34  1  0  0  0  0
 32  1  1  0  0  0  0
 32 31  2  0  0  0  0
 33 32  1  0  0  0  0
 34 37  1  0  0  0  0
 35 28  1  0  0  0  0
 36 34  1  0  0  0  0
 38 43  1  0  0  0  0
 38 29  1  0  0  0  0
 39 38  2  0  0  0  0
 40 39  1  0  0  0  0
 41 42  2  0  0  0  0
 41 39  1  0  0  0  0
 42 43  1  0  0  0  0
M  END
>  <minimizedAffinity>
-6.09093428

$$$$

 OpenBabel03242514113D

 43 46  0  0  1  0  0  0  0  0999 V2000
   37.1400   26.5270   40.6670 C   0  0  0  0  0  0  0  0  0  0  0  0
   37.2030   25.9160   41.9020 C   0  0  0  0  0  0  0  0  0  0  0  0
   36.9370   24.5710   42.1140 C   0  0  0  0  0  0  0  0  0  0  0  0
   36.5930   23.8660   40.9540 C   0  0  0  0  0  0  0  0  0  0  0  0
   36.5280   24.4860   39.6960 C   0  0  0  0  0  0  0  0  0  0  0  0
   36.8010   25.7990   39.5660 N   0  0  0  0  0  0  0  0  0  0  0  0
   37.4790   26.5510   42.7400 H   0  0  0  0  0  0  0  0  0  0  0  0
   36.9970   24.1380   43.0900 H   0  0  0  0  0  0  0  0  0  0  0  0
   36.3950   22.8280   41.1800 H   0  0  0  0  0  0  0  0  0  0  0  0
   36.1820   23.6850   38.5280 C   0  0  1  0  0  0  0  0  0  0  0  0
   34.6630   23.9130   38.1360 C   0  0  0  0  0  0  0  0  0  0  0  0
   34.3920   22.6780   37.2230 C   0  0  0  0  0  0  0  0  0  0  0  0
   35.1130   23.0410   35.9180 C   0  0  0  0  0  0  0  0  0  0  0  0
   36.5730   23.1540   36.1280 C   0  0  0  0  0  0  0  0  0  0  0  0
   37.0330   23.7920   37.3830 C   0  0  2  0  0  0  0  0  0  0  0  0
   36.1160   22.6190   38.9020 H   0  0  0  0  0  0  0  0  0  0  0  0
   34.6230   24.8390   37.5550 H   0  0  0  0  0  0  0  0  0  0  0  0
   34.0590   23.8750   39.0400 H   0  0  0  0  0  0  0  0  0  0  0  0
   34.8280   21.7910   37.6870 H   0  0  0  0  0  0  0  0  0  0  0  0
   33.3260   22.6230   36.9950 H   0  0  0  0  0  0  0  0  0  0  0  0
   34.8750   22.2070   35.2250 H   0  0  0  0  0  0  0  0  0  0  0  0
   34.6130   23.9290   35.5240 H   0  0  0  0  0  0  0  0  0  0  0  0
   36.9780   22.1030   36.0320 H   0  0  0  0  0  0  0  0  0  0  0  0
   37.0110   23.6660   35.2430 H   0  0  0  0  0  0  0  0  0  0  0  0
   37.2080   24.8830   37.1270 H   0  0  0  0  0  0  0  0  0  0  0  0
   38.6110   22.9900   37.8160 S   0  0  0  0  0  0  0  0  0  0  0  0
   39.6370   23.6800   37.1730 H   0  0  0  0  0  0  0  0  0  0  0  0
   38.7570   29.7170   39.9110 C   0  0  0  0  0  0  0  0  0  0  0  0
   37.8380   30.6610   40.3600 C   0  0  0  0  0  0  0  0  0  0  0  0
   36.6810   30.1800   40.9150 C   0  0  0  0  0  0  0  0  0  0  0  0
   36.4910   28.8280   40.9980 N   0  0  0  0  0  0  0  0  0  0  0  0
   37.4400   27.9400   40.5330 C   0  0  0  0  0  0  0  0  0  0  0  0
   38.5300   28.3830   40.0100 N   0  0  0  0  0  0  0  0  0  0  0  0
   35.6600   30.9820   41.4170 N   0  0  0  0  0  0  0  0  0  0  0  0
   39.7030   29.9890   39.4560 H   0  0  0  0  0  0  0  0  0  0  0  0
   35.9040   31.0690   42.4160 H   0  0  0  0  0  0  0  0  0  0  0  0
   35.0370   31.1910   40.5950 H   0  0  0  0  0  0  0  0  0  0  0  0
   38.0770   32.0530   40.2550 C   0  0  0  0  0  0  0  0  0  0  0  0
   37.4400   33.1070   39.6710 C   0  0  0  0  0  0  0  0  0  0  0  0
   36.5170   32.9910   39.1240 H   0  0  0  0  0  0  0  0  0  0  0  0
   37.9580   34.3600   39.7650 C   0  0  0  0  0  3  0  0  0  0  0  0
   39.2010   34.4900   40.5080 C   0  0  0  0  0  3  0  0  0  0  0  0
   39.5540   32.7250   41.0450 S   0  0  0  0  0  0  0  0  0  0  0  0
  1  2  1  0  0  0  0
  2  3  2  0  0  0  0
  2  7  1  0  0  0  0
  3  8  1  0  0  0  0
  4  9  1  0  0  0  0
  4  3  1  0  0  0  0
  5  4  2  0  0  0  0
  6  5  1  0  0  0  0
  6  1  2  0  0  0  0
 10 16  1  1  0  0  0
 10  5  1  0  0  0  0
 11 10  1  0  0  0  0
 11 18  1  0  0  0  0
 12 19  1  0  0  0  0
 12 11  1  0  0  0  0
 13 14  1  0  0  0  0
 13 12  1  0  0  0  0
 14 15  1  0  0  0  0
 15 25  1  6  0  0  0
 15 26  1  0  0  0  0
 15 10  1  0  0  0  0
 17 11  1  0  0  0  0
 20 12  1  0  0  0  0
 21 13  1  0  0  0  0
 22 13  1  0  0  0  0
 23 14  1  0  0  0  0
 24 14  1  0  0  0  0
 27 26  1  0  0  0  0
 28 33  2  0  0  0  0
 28 29  1  0  0  0  0
 29 30  2  0  0  0  0
 30 31  1  0  0  0  0
 30 34  1  0  0  0  0
 32  1  1  0  0  0  0
 32 31  2  0  0  0  0
 33 32  1  0  0  0  0
 34 36  1  0  0  0  0
 35 28  1  0  0  0  0
 37 34  1  0  0  0  0
 38 29  1  0  0  0  0
 38 43  1  0  0  0  0
 39 41  1  0  0  0  0
 39 38  2  0  0  0  0
 40 39  1  0  0  0  0
 41 42  2  0  0  0  0
 42 43  1  0  0  0  0
M  END
>  <minimizedAffinity>
-5.94819975

$$$$

 OpenBabel03242514113D

 43 46  0  0  1  0  0  0  0  0999 V2000
   38.3810   30.7420   40.8540 C   0  0  0  0  0  0  0  0  0  0  0  0
   37.1350   31.3220   40.7390 C   0  0  0  0  0  0  0  0  0  0  0  0
   35.9520   30.6030   40.6510 C   0  0  0  0  0  0  0  0  0  0  0  0
   36.1230   29.2130   40.6890 C   0  0  0  0  0  0  0  0  0  0  0  0
   37.3900   28.6200   40.8050 C   0  0  0  0  0  0  0  0  0  0  0  0
   38.4970   29.3840   40.8860 N   0  0  0  0  0  0  0  0  0  0  0  0
   37.1100   32.4080   40.7190 H   0  0  0  0  0  0  0  0  0  0  0  0
   35.0060   31.0940   40.5620 H   0  0  0  0  0  0  0  0  0  0  0  0
   35.1710   28.7070   40.6130 H   0  0  0  0  0  0  0  0  0  0  0  0
   37.4910   27.1670   40.8570 C   0  0  1  0  0  0  0  0  0  0  0  0
   37.0750   26.6380   42.2930 C   0  0  0  0  0  0  0  0  0  0  0  0
   37.6810   25.2020   42.2790 C   0  0  0  0  0  0  0  0  0  0  0  0
   36.7220   24.4250   41.3670 C   0  0  0  0  0  0  0  0  0  0  0  0
   36.7510   24.9560   39.9870 C   0  0  0  0  0  0  0  0  0  0  0  0
   36.8360   26.4250   39.8240 C   0  0  2  0  0  0  0  0  0  0  0  0
   38.6000   26.9430   40.8950 H   0  0  0  0  0  0  0  0  0  0  0  0
   35.9820   26.5970   42.3080 H   0  0  0  0  0  0  0  0  0  0  0  0
   37.5530   27.2610   43.0470 H   0  0  0  0  0  0  0  0  0  0  0  0
   38.6870   25.2440   41.8580 H   0  0  0  0  0  0  0  0  0  0  0  0
   37.5980   24.7640   43.2760 H   0  0  0  0  0  0  0  0  0  0  0  0
   37.0930   23.3780   41.3970 H   0  0  0  0  0  0  0  0  0  0  0  0
   35.7500   24.4280   41.8640 H   0  0  0  0  0  0  0  0  0  0  0  0
   37.6180   24.4380   39.4780 H   0  0  0  0  0  0  0  0  0  0  0  0
   35.8710   24.5500   39.4410 H   0  0  0  0  0  0  0  0  0  0  0  0
   35.7670   26.7830   39.7040 H   0  0  0  0  0  0  0  0  0  0  0  0
   37.7700   26.7170   38.2870 S   0  0  0  0  0  0  0  0  0  0  0  0
   36.8650   26.7230   37.2260 H   0  0  0  0  0  0  0  0  0  0  0  0
   40.8550   33.3960   40.4120 C   0  0  0  0  0  0  0  0  0  0  0  0
   41.8960   33.0120   41.2520 C   0  0  0  0  0  0  0  0  0  0  0  0
   41.7260   31.8470   41.9530 C   0  0  0  0  0  0  0  0  0  0  0  0
   40.5680   31.1360   41.7970 N   0  0  0  0  0  0  0  0  0  0  0  0
   39.5690   31.5690   40.9470 C   0  0  0  0  0  0  0  0  0  0  0  0
   39.7210   32.6620   40.2850 N   0  0  0  0  0  0  0  0  0  0  0  0
   42.6660   31.3170   42.8330 N   0  0  0  0  0  0  0  0  0  0  0  0
   40.8860   34.2990   39.8130 H   0  0  0  0  0  0  0  0  0  0  0  0
   43.2100   30.6780   42.2320 H   0  0  0  0  0  0  0  0  0  0  0  0
   42.4640   31.7650   43.7630 H   0  0  0  0  0  0  0  0  0  0  0  0
   43.0800   33.7800   41.3840 C   0  0  0  0  0  0  0  0  0  0  0  0
   43.5280   34.7330   42.2480 C   0  0  0  0  0  0  0  0  0  0  0  0
   42.9370   35.0800   43.0810 H   0  0  0  0  0  0  0  0  0  0  0  0
   44.7600   35.2850   42.0830 C   0  0  0  0  0  3  0  0  0  0  0  0
   45.5370   34.8000   40.9530 C   0  0  0  0  0  3  0  0  0  0  0  0
   44.3950   33.5290   40.1730 S   0  0  0  0  0  0  0  0  0  0  0  0
  1  6  1  0  0  0  0
  1 32  1  0  0  0  0
  2  1  2  0  0  0  0
  3  4  2  0  0  0  0
  3  2  1  0  0  0  0
  4  5  1  0  0  0  0
  5 10  1  0  0  0  0
  5  6  2  0  0  0  0
  7  2  1  0  0  0  0
  8  3  1  0  0  0  0
  9  4  1  0  0  0  0
 10 16  1  6  0  0  0
 10 11  1  0  0  0  0
 11 17  1  0  0  0  0
 11 18  1  0  0  0  0
 12 11  1  0  0  0  0
 12 20  1  0  0  0  0
 13 21  1  0  0  0  0
 13 22  1  0  0  0  0
 13 12  1  0  0  0  0
 14 13  1  0  0  0  0
 15 25  1  6  0  0  0
 15 14  1  0  0  0  0
 15 10  1  0  0  0  0
 19 12  1  0  0  0  0
 23 14  1  0  0  0  0
 24 14  1  0  0  0  0
 26 15  1  0  0  0  0
 27 26  1  0  0  0  0
 28 29  1  0  0  0  0
 29 38  1  0  0  0  0
 29 30  2  0  0  0  0
 30 34  1  0  0  0  0
 31 30  1  0  0  0  0
 32 31  2  0  0  0  0
 33 28  2  0  0  0  0
 33 32  1  0  0  0  0
 34 37  1  0  0  0  0
 35 28  1  0  0  0  0
 36 34  1  0  0  0  0
 38 39  2  0  0  0  0
 39 40  1  0  0  0  0
 41 39  1  0  0  0  0
 42 41  2  0  0  0  0
 43 42  1  0  0  0  0
 43 38  1  0  0  0  0
M  END
>  <minimizedAffinity>
-5.86001205

$$$$

 OpenBabel03242514113D

 43 46  0  0  1  0  0  0  0  0999 V2000
   37.9500   28.3000   41.4710 C   0  0  0  0  0  0  0  0  0  0  0  0
   37.3420   28.2810   42.7100 C   0  0  0  0  0  0  0  0  0  0  0  0
   36.7420   27.1580   43.2600 C   0  0  0  0  0  0  0  0  0  0  0  0
   36.8010   26.0200   42.4450 C   0  0  0  0  0  0  0  0  0  0  0  0
   37.4180   26.0370   41.1840 C   0  0  0  0  0  0  0  0  0  0  0  0
   37.9820   27.1670   40.7140 N   0  0  0  0  0  0  0  0  0  0  0  0
   37.3500   29.2160   43.2640 H   0  0  0  0  0  0  0  0  0  0  0  0
   36.2820   27.1880   44.2250 H   0  0  0  0  0  0  0  0  0  0  0  0
   36.3170   25.1810   42.9230 H   0  0  0  0  0  0  0  0  0  0  0  0
   37.4590   24.8100   40.3990 C   0  0  1  0  0  0  0  0  0  0  0  0
   38.0900   23.6310   41.2520 C   0  0  0  0  0  0  0  0  0  0  0  0
   38.4610   22.6080   40.1350 C   0  0  0  0  0  0  0  0  0  0  0  0
   37.1030   22.0160   39.7360 C   0  0  0  0  0  0  0  0  0  0  0  0
   36.2230   23.0490   39.1470 C   0  0  0  0  0  0  0  0  0  0  0  0
   36.2460   24.3960   39.7630 C   0  0  2  0  0  0  0  0  0  0  0  0
   38.2940   24.9600   39.6500 H   0  0  0  0  0  0  0  0  0  0  0  0
   37.2900   23.2390   41.8860 H   0  0  0  0  0  0  0  0  0  0  0  0
   38.9790   24.0030   41.7570 H   0  0  0  0  0  0  0  0  0  0  0  0
   38.9250   23.1420   39.3030 H   0  0  0  0  0  0  0  0  0  0  0  0
   39.0480   21.7960   40.5690 H   0  0  0  0  0  0  0  0  0  0  0  0
   37.3480   21.2310   38.9890 H   0  0  0  0  0  0  0  0  0  0  0  0
   36.7170   21.5010   40.6180 H   0  0  0  0  0  0  0  0  0  0  0  0
   36.4980   23.0970   38.0510 H   0  0  0  0  0  0  0  0  0  0  0  0
   35.1870   22.6470   39.1200 H   0  0  0  0  0  0  0  0  0  0  0  0
   35.3920   24.4070   40.5090 H   0  0  0  0  0  0  0  0  0  0  0  0
   35.9190   25.5800   38.4180 S   0  0  0  0  0  0  0  0  0  0  0  0
   34.5380   25.7340   38.3040 H   0  0  0  0  0  0  0  0  0  0  0  0
   38.9140   31.1490   39.3950 C   0  0  0  0  0  0  0  0  0  0  0  0
   39.8160   31.8440   40.1960 C   0  0  0  0  0  0  0  0  0  0  0  0
   40.0740   31.3170   41.4340 C   0  0  0  0  0  0  0  0  0  0  0  0
   39.4480   30.1620   41.8130 N   0  0  0  0  0  0  0  0  0  0  0  0
   38.5600   29.5170   40.9730 C   0  0  0  0  0  0  0  0  0  0  0  0
   38.3120   30.0060   39.8080 N   0  0  0  0  0  0  0  0  0  0  0  0
   40.9500   31.8800   42.3580 N   0  0  0  0  0  0  0  0  0  0  0  0
   38.6380   31.4780   38.3990 H   0  0  0  0  0  0  0  0  0  0  0  0
   41.8410   31.4000   42.1540 H   0  0  0  0  0  0  0  0  0  0  0  0
   40.3750   32.5710   42.9050 H   0  0  0  0  0  0  0  0  0  0  0  0
   40.4430   33.0380   39.7630 C   0  0  0  0  0  0  0  0  0  0  0  0
   40.2450   34.3700   39.9710 C   0  0  0  0  0  0  0  0  0  0  0  0
   39.4520   34.7440   40.6000 H   0  0  0  0  0  0  0  0  0  0  0  0
   41.0600   35.2860   39.3820 C   0  0  0  0  0  3  0  0  0  0  0  0
   42.1210   34.7560   38.5400 C   0  0  0  0  0  3  0  0  0  0  0  0
   41.8640   32.9000   38.6590 S   0  0  0  0  0  0  0  0  0  0  0  0
  1  2  1  0  0  0  0
  2  3  2  0  0  0  0
  2  7  1  0  0  0  0
  3  8  1  0  0  0  0
  4  9  1  0  0  0  0
  4  3  1  0  0  0  0
  5  4  2  0  0  0  0
  6  5  1  0  0  0  0
  6  1  2  0  0  0  0
 10 16  1  6  0  0  0
 10  5  1  0  0  0  0
 10 11  1  0  0  0  0
 11 18  1  0  0  0  0
 11 17  1  0  0  0  0
 12 20  1  0  0  0  0
 12 11  1  0  0  0  0
 13 12  1  0  0  0  0
 13 22  1  0  0  0  0
 14 13  1  0  0  0  0
 14 15  1  0  0  0  0
 15 10  1  0  0  0  0
 15 25  1  1  0  0  0
 19 12  1  0  0  0  0
 21 13  1  0  0  0  0
 23 14  1  0  0  0  0
 24 14  1  0  0  0  0
 26 15  1  0  0  0  0
 27 26  1  0  0  0  0
 28 33  2  0  0  0  0
 28 29  1  0  0  0  0
 29 30  2  0  0  0  0
 30 31  1  0  0  0  0
 30 34  1  0  0  0  0
 32  1  1  0  0  0  0
 32 31  2  0  0  0  0
 33 32  1  0  0  0  0
 34 37  1  0  0  0  0
 35 28  1  0  0  0  0
 36 34  1  0  0  0  0
 38 39  2  0  0  0  0
 38 29  1  0  0  0  0
 39 40  1  0  0  0  0
 41 39  1  0  0  0  0
 42 43  1  0  0  0  0
 42 41  2  0  0  0  0
 43 38  1  0  0  0  0
M  END
>  <minimizedAffinity>
-5.85036659

$$$$

 OpenBabel03242514113D

 43 46  0  0  1  0  0  0  0  0999 V2000
   38.9310   28.5970   42.4060 C   0  0  0  0  0  0  0  0  0  0  0  0
   38.0220   28.7540   43.4320 C   0  0  0  0  0  0  0  0  0  0  0  0
   36.9950   27.8600   43.6990 C   0  0  0  0  0  0  0  0  0  0  0  0
   36.9500   26.7630   42.8290 C   0  0  0  0  0  0  0  0  0  0  0  0
   37.8730   26.6030   41.7840 C   0  0  0  0  0  0  0  0  0  0  0  0
   38.8470   27.5130   41.5850 N   0  0  0  0  0  0  0  0  0  0  0  0
   38.1430   29.6390   44.0520 H   0  0  0  0  0  0  0  0  0  0  0  0
   36.3120   28.0210   44.5060 H   0  0  0  0  0  0  0  0  0  0  0  0
   36.1310   26.1060   43.0820 H   0  0  0  0  0  0  0  0  0  0  0  0
   37.7780   25.4260   40.9280 C   0  0  1  0  0  0  0  0  0  0  0  0
   38.1010   24.1150   41.7590 C   0  0  0  0  0  0  0  0  0  0  0  0
   38.3990   23.0940   40.6190 C   0  0  0  0  0  0  0  0  0  0  0  0
   37.0060   22.7770   40.0580 C   0  0  0  0  0  0  0  0  0  0  0  0
   36.3860   23.9790   39.4580 C   0  0  0  0  0  0  0  0  0  0  0  0
   36.5830   25.2690   40.1580 C   0  0  2  0  0  0  0  0  0  0  0  0
   38.6990   25.4560   40.2710 H   0  0  0  0  0  0  0  0  0  0  0  0
   37.1840   23.8450   42.2900 H   0  0  0  0  0  0  0  0  0  0  0  0
   38.9850   24.2950   42.3670 H   0  0  0  0  0  0  0  0  0  0  0  0
   39.0320   23.5720   39.8690 H   0  0  0  0  0  0  0  0  0  0  0  0
   38.7860   22.1700   41.0520 H   0  0  0  0  0  0  0  0  0  0  0  0
   37.1840   21.9960   39.2890 H   0  0  0  0  0  0  0  0  0  0  0  0
   36.4470   22.3000   40.8660 H   0  0  0  0  0  0  0  0  0  0  0  0
   36.7770   24.0260   38.3980 H   0  0  0  0  0  0  0  0  0  0  0  0
   35.3040   23.7730   39.3100 H   0  0  0  0  0  0  0  0  0  0  0  0
   35.6720   25.4000   40.8200 H   0  0  0  0  0  0  0  0  0  0  0  0
   36.6090   26.5540   38.8670 S   0  0  0  0  0  0  0  0  0  0  0  0
   35.2960   26.9610   38.6350 H   0  0  0  0  0  0  0  0  0  0  0  0
   42.1660   30.2850   42.1880 C   0  0  0  0  0  0  0  0  0  0  0  0
   41.8340   31.5670   41.7580 C   0  0  0  0  0  0  0  0  0  0  0  0
   40.5040   31.8240   41.5530 C   0  0  0  0  0  0  0  0  0  0  0  0
   39.5890   30.8320   41.7750 N   0  0  0  0  0  0  0  0  0  0  0  0
   39.9800   29.5780   42.2010 C   0  0  0  0  0  0  0  0  0  0  0  0
   41.2270   29.3280   42.3970 N   0  0  0  0  0  0  0  0  0  0  0  0
   39.9990   33.0500   41.1270 N   0  0  0  0  0  0  0  0  0  0  0  0
   43.1870   29.9760   42.3810 H   0  0  0  0  0  0  0  0  0  0  0  0
   39.7820   33.5310   42.0140 H   0  0  0  0  0  0  0  0  0  0  0  0
   40.0320   33.0180   40.0760 H   0  0  0  0  0  0  0  0  0  0  0  0
   42.8150   32.5660   41.5410 C   0  0  0  0  0  0  0  0  0  0  0  0
   43.3950   33.5390   42.2970 C   0  0  0  0  0  0  0  0  0  0  0  0
   43.1350   33.6960   43.3330 H   0  0  0  0  0  0  0  0  0  0  0  0
   44.3390   34.3570   41.7590 C   0  0  0  0  0  3  0  0  0  0  0  0
   44.6710   34.1240   40.3620 C   0  0  0  0  0  3  0  0  0  0  0  0
   43.5580   32.6850   39.9000 S   0  0  0  0  0  0  0  0  0  0  0  0
  1  2  1  0  0  0  0
  2  3  2  0  0  0  0
  2  7  1  0  0  0  0
  3  8  1  0  0  0  0
  4  9  1  0  0  0  0
  4  3  1  0  0  0  0
  5  4  2  0  0  0  0
  6  5  1  0  0  0  0
  6  1  2  0  0  0  0
 10 16  1  6  0  0  0
 10 11  1  0  0  0  0
 10  5  1  0  0  0  0
 11 17  1  0  0  0  0
 11 18  1  0  0  0  0
 12 20  1  0  0  0  0
 12 11  1  0  0  0  0
 13 12  1  0  0  0  0
 13 22  1  0  0  0  0
 14 13  1  0  0  0  0
 14 15  1  0  0  0  0
 15 25  1  1  0  0  0
 15 10  1  0  0  0  0
 19 12  1  0  0  0  0
 21 13  1  0  0  0  0
 23 14  1  0  0  0  0
 24 14  1  0  0  0  0
 26 15  1  0  0  0  0
 27 26  1  0  0  0  0
 28 35  1  0  0  0  0
 28 33  1  0  0  0  0
 29 28  2  0  0  0  0
 30 29  1  0  0  0  0
 30 31  2  0  0  0  0
 31 32  1  0  0  0  0
 32 33  2  0  0  0  0
 32  1  1  0  0  0  0
 34 30  1  0  0  0  0
 34 36  1  0  0  0  0
 37 34  1  0  0  0  0
 38 29  1  0  0  0  0
 38 39  2  0  0  0  0
 39 40  1  0  0  0  0
 41 39  1  0  0  0  0
 42 41  2  0  0  0  0
 43 42  1  0  0  0  0
 43 38  1  0  0  0  0
M  END
>  <minimizedAffinity>
-5.78867769

$$$$

 OpenBabel03242514113D

 43 46  0  0  1  0  0  0  0  0999 V2000
   39.6010   27.4550   42.1140 C   0  0  0  0  0  0  0  0  0  0  0  0
   39.9040   27.1210   43.4180 C   0  0  0  0  0  0  0  0  0  0  0  0
   39.9620   25.8180   43.8890 C   0  0  0  0  0  0  0  0  0  0  0  0
   39.6830   24.8450   42.9190 C   0  0  0  0  0  0  0  0  0  0  0  0
   39.3740   25.1830   41.5930 C   0  0  0  0  0  0  0  0  0  0  0  0
   39.3370   26.4740   41.2060 N   0  0  0  0  0  0  0  0  0  0  0  0
   40.1050   27.9490   44.0930 H   0  0  0  0  0  0  0  0  0  0  0  0
   40.2010   25.6040   44.9090 H   0  0  0  0  0  0  0  0  0  0  0  0
   39.7400   23.8530   43.3430 H   0  0  0  0  0  0  0  0  0  0  0  0
   39.1140   24.1180   40.6320 C   0  0  1  0  0  0  0  0  0  0  0  0
   37.6660   23.5130   40.8600 C   0  0  0  0  0  0  0  0  0  0  0  0
   37.7760   22.1570   40.0980 C   0  0  0  0  0  0  0  0  0  0  0  0
   37.7120   22.5780   38.6230 C   0  0  0  0  0  0  0  0  0  0  0  0
   38.8770   23.4140   38.2570 C   0  0  0  0  0  0  0  0  0  0  0  0
   39.3400   24.4100   39.2500 C   0  0  2  0  0  0  0  0  0  0  0  0
   39.7360   23.2390   40.9810 H   0  0  0  0  0  0  0  0  0  0  0  0
   36.9620   24.1840   40.3590 H   0  0  0  0  0  0  0  0  0  0  0  0
   37.5180   23.3550   41.9270 H   0  0  0  0  0  0  0  0  0  0  0  0
   38.7310   21.6890   40.3390 H   0  0  0  0  0  0  0  0  0  0  0  0
   36.8860   21.5570   40.2970 H   0  0  0  0  0  0  0  0  0  0  0  0
   37.7170   21.6220   38.0580 H   0  0  0  0  0  0  0  0  0  0  0  0
   36.7290   23.0280   38.4710 H   0  0  0  0  0  0  0  0  0  0  0  0
   39.7020   22.6890   37.9910 H   0  0  0  0  0  0  0  0  0  0  0  0
   38.6580   23.9030   37.2820 H   0  0  0  0  0  0  0  0  0  0  0  0
   38.8310   25.3840   38.9680 H   0  0  0  0  0  0  0  0  0  0  0  0
   41.1420   24.5570   39.0250 S   0  0  0  0  0  0  0  0  0  0  0  0
   41.3780   25.5260   38.0500 H   0  0  0  0  0  0  0  0  0  0  0  0
   38.8310   30.5950   40.4090 C   0  0  0  0  0  0  0  0  0  0  0  0
   39.6380   31.5230   41.0590 C   0  0  0  0  0  0  0  0  0  0  0  0
   40.4310   31.0500   42.0710 C   0  0  0  0  0  0  0  0  0  0  0  0
   40.3920   29.7190   42.3850 N   0  0  0  0  0  0  0  0  0  0  0  0
   39.5680   28.8450   41.7030 C   0  0  0  0  0  0  0  0  0  0  0  0
   38.8200   29.2820   40.7510 N   0  0  0  0  0  0  0  0  0  0  0  0
   41.2990   31.8390   42.8220 N   0  0  0  0  0  0  0  0  0  0  0  0
   38.1660   30.8630   39.5960 H   0  0  0  0  0  0  0  0  0  0  0  0
   42.1910   31.7530   42.3100 H   0  0  0  0  0  0  0  0  0  0  0  0
   40.7210   32.2170   43.6150 H   0  0  0  0  0  0  0  0  0  0  0  0
   39.6490   32.8940   40.7010 C   0  0  0  0  0  0  0  0  0  0  0  0
   38.7820   33.9380   40.8280 C   0  0  0  0  0  0  0  0  0  0  0  0
   37.8170   33.8320   41.2980 H   0  0  0  0  0  0  0  0  0  0  0  0
   39.1160   35.1700   40.3580 C   0  0  0  0  0  3  0  0  0  0  0  0
   40.4230   35.2860   39.7300 C   0  0  0  0  0  3  0  0  0  0  0  0
   41.1100   33.5440   39.8650 S   0  0  0  0  0  0  0  0  0  0  0  0
  1  2  1  0  0  0  0
  2  3  2  0  0  0  0
  2  7  1  0  0  0  0
  3  8  1  0  0  0  0
  4  9  1  0  0  0  0
  4  3  1  0  0  0  0
  5  4  2  0  0  0  0
  6  5  1  0  0  0  0
  6  1  2  0  0  0  0
 10 11  1  0  0  0  0
 10 16  1  1  0  0  0
 10  5  1  0  0  0  0
 11 18  1  0  0  0  0
 12 20  1  0  0  0  0
 12 19  1  0  0  0  0
 12 11  1  0  0  0  0
 13 12  1  0  0  0  0
 14 13  1  0  0  0  0
 14 15  1  0  0  0  0
 15 25  1  6  0  0  0
 15 10  1  0  0  0  0
 17 11  1  0  0  0  0
 21 13  1  0  0  0  0
 22 13  1  0  0  0  0
 23 14  1  0  0  0  0
 24 14  1  0  0  0  0
 26 15  1  0  0  0  0
 27 26  1  0  0  0  0
 28 33  2  0  0  0  0
 28 29  1  0  0  0  0
 29 30  2  0  0  0  0
 30 31  1  0  0  0  0
 30 34  1  0  0  0  0
 32  1  1  0  0  0  0
 32 31  2  0  0  0  0
 33 32  1  0  0  0  0
 34 37  1  0  0  0  0
 35 28  1  0  0  0  0
 36 34  1  0  0  0  0
 38 39  2  0  0  0  0
 38 29  1  0  0  0  0
 39 40  1  0  0  0  0
 41 39  1  0  0  0  0
 42 43  1  0  0  0  0
 42 41  2  0  0  0  0
 43 38  1  0  0  0  0
M  END
>  <minimizedAffinity>
-5.78685427

$$$$

 OpenBabel03242514113D

 43 46  0  0  1  0  0  0  0  0999 V2000
   38.2440   30.7370   40.5430 C   0  0  0  0  0  0  0  0  0  0  0  0
   37.1060   31.2870   39.9900 C   0  0  0  0  0  0  0  0  0  0  0  0
   35.9160   30.5950   39.8240 C   0  0  0  0  0  0  0  0  0  0  0  0
   35.9590   29.2660   40.2680 C   0  0  0  0  0  0  0  0  0  0  0  0
   37.1160   28.7050   40.8290 C   0  0  0  0  0  0  0  0  0  0  0  0
   38.2380   29.4400   40.9600 N   0  0  0  0  0  0  0  0  0  0  0  0
   37.1760   32.3250   39.6770 H   0  0  0  0  0  0  0  0  0  0  0  0
   35.0560   31.0600   39.3900 H   0  0  0  0  0  0  0  0  0  0  0  0
   35.0080   28.7780   40.1100 H   0  0  0  0  0  0  0  0  0  0  0  0
   37.0830   27.3220   41.2880 C   0  0  1  0  0  0  0  0  0  0  0  0
   37.3090   26.3330   40.0700 C   0  0  0  0  0  0  0  0  0  0  0  0
   36.7850   24.9890   40.6630 C   0  0  0  0  0  0  0  0  0  0  0  0
   37.9070   24.5690   41.6220 C   0  0  0  0  0  0  0  0  0  0  0  0
   38.0550   25.5400   42.7280 C   0  0  0  0  0  0  0  0  0  0  0  0
   37.9200   26.9770   42.3960 C   0  0  2  0  0  0  0  0  0  0  0  0
   35.9940   27.1020   41.5020 H   0  0  0  0  0  0  0  0  0  0  0  0
   38.3880   26.2860   39.8990 H   0  0  0  0  0  0  0  0  0  0  0  0
   36.6930   26.6610   39.2340 H   0  0  0  0  0  0  0  0  0  0  0  0
   35.8520   25.1760   41.1970 H   0  0  0  0  0  0  0  0  0  0  0  0
   36.7420   24.2370   39.8730 H   0  0  0  0  0  0  0  0  0  0  0  0
   37.5900   23.5760   42.0060 H   0  0  0  0  0  0  0  0  0  0  0  0
   38.7940   24.3990   41.0080 H   0  0  0  0  0  0  0  0  0  0  0  0
   37.3000   25.2300   43.5110 H   0  0  0  0  0  0  0  0  0  0  0  0
   39.0250   25.3430   43.2340 H   0  0  0  0  0  0  0  0  0  0  0  0
   38.9760   27.3520   42.2190 H   0  0  0  0  0  0  0  0  0  0  0  0
   37.2090   27.7790   43.8690 S   0  0  0  0  0  0  0  0  0  0  0  0
   38.2590   28.1450   44.7110 H   0  0  0  0  0  0  0  0  0  0  0  0
   40.9260   33.1700   40.0390 C   0  0  0  0  0  0  0  0  0  0  0  0
   41.7700   32.9510   41.1230 C   0  0  0  0  0  0  0  0  0  0  0  0
   41.4000   31.9700   42.0050 C   0  0  0  0  0  0  0  0  0  0  0  0
   40.2460   31.2710   41.7820 N   0  0  0  0  0  0  0  0  0  0  0  0
   39.4470   31.5350   40.6870 C   0  0  0  0  0  0  0  0  0  0  0  0
   39.7880   32.4550   39.8530 N   0  0  0  0  0  0  0  0  0  0  0  0
   42.1290   31.6190   43.1380 N   0  0  0  0  0  0  0  0  0  0  0  0
   41.1240   33.9210   39.2820 H   0  0  0  0  0  0  0  0  0  0  0  0
   42.7300   30.8520   42.7980 H   0  0  0  0  0  0  0  0  0  0  0  0
   41.7930   32.2620   43.8990 H   0  0  0  0  0  0  0  0  0  0  0  0
   42.9580   33.6990   41.3150 C   0  0  0  0  0  0  0  0  0  0  0  0
   43.2990   34.8190   42.0120 C   0  0  0  0  0  0  0  0  0  0  0  0
   42.5840   35.3690   42.6040 H   0  0  0  0  0  0  0  0  0  0  0  0
   44.5750   35.2860   41.9810 C   0  0  0  0  0  3  0  0  0  0  0  0
   45.5190   34.5270   41.1750 C   0  0  0  0  0  3  0  0  0  0  0  0
   44.4610   33.1350   40.4900 S   0  0  0  0  0  0  0  0  0  0  0  0
  1 32  1  0  0  0  0
  1  6  1  0  0  0  0
  2  1  2  0  0  0  0
  3  2  1  0  0  0  0
  3  4  2  0  0  0  0
  4  5  1  0  0  0  0
  5  6  2  0  0  0  0
  5 10  1  0  0  0  0
  7  2  1  0  0  0  0
  8  3  1  0  0  0  0
  9  4  1  0  0  0  0
 10 16  1  1  0  0  0
 10 15  1  0  0  0  0
 11 12  1  0  0  0  0
 11 10  1  0  0  0  0
 12 19  1  0  0  0  0
 12 13  1  0  0  0  0
 13 21  1  0  0  0  0
 13 14  1  0  0  0  0
 14 24  1  0  0  0  0
 14 23  1  0  0  0  0
 15 25  1  6  0  0  0
 15 14  1  0  0  0  0
 15 26  1  0  0  0  0
 17 11  1  0  0  0  0
 18 11  1  0  0  0  0
 20 12  1  0  0  0  0
 22 13  1  0  0  0  0
 26 27  1  0  0  0  0
 28 29  1  0  0  0  0
 29 38  1  0  0  0  0
 29 30  2  0  0  0  0
 30 34  1  0  0  0  0
 31 30  1  0  0  0  0
 32 31  2  0  0  0  0
 33 28  2  0  0  0  0
 33 32  1  0  0  0  0
 34 37  1  0  0  0  0
 35 28  1  0  0  0  0
 36 34  1  0  0  0  0
 38 39  2  0  0  0  0
 39 40  1  0  0  0  0
 41 39  1  0  0  0  0
 42 41  2  0  0  0  0
 43 42  1  0  0  0  0
 43 38  1  0  0  0  0
M  END
>  <minimizedAffinity>
-5.78343391

$$$$
