
 OpenBabel03242520033D

 22 24  0  0  0  0  0  0  0  0999 V2000
   37.8180   27.9810   41.7870 C   0  0  0  0  0  0  0  0  0  0  0  0
   36.4550   28.1520   41.5190 C   0  0  0  0  0  0  0  0  0  0  0  0
   36.2610   29.4230   41.0810 C   0  0  0  0  0  0  0  0  0  0  0  0
   37.4640   30.0180   41.0790 N   0  0  0  0  0  0  0  0  0  0  0  0
   38.3900   29.1360   41.5070 N   0  0  0  0  0  0  0  0  0  0  0  0
   35.6830   27.3830   41.6450 H   0  0  0  0  0  0  0  0  0  0  0  0
   35.3450   29.9130   40.7790 H   0  0  0  0  0  0  0  0  0  0  0  0
   38.5110   24.4000   42.2360 C   0  0  0  0  0  0  0  0  0  0  0  0
   39.5450   24.4160   43.1880 C   0  0  0  0  0  0  0  0  0  0  0  0
   40.0070   25.6700   43.6780 C   0  0  0  0  0  0  0  0  0  0  0  0
   39.4060   26.7870   43.1850 N   0  0  0  0  0  0  0  0  0  0  0  0
   38.4230   26.7500   42.2780 C   0  0  0  0  0  0  0  0  0  0  0  0
   37.9810   25.5610   41.8100 N   0  0  0  0  0  0  0  0  0  0  0  0
   38.1750   23.4500   41.8760 H   0  0  0  0  0  0  0  0  0  0  0  0
   39.9830   23.4750   43.5410 H   0  0  0  0  0  0  0  0  0  0  0  0
   40.7940   25.6940   44.4040 H   0  0  0  0  0  0  0  0  0  0  0  0
   37.7880   31.3510   40.7020 C   0  0  0  0  0  0  0  0  0  0  0  0
   36.9450   32.1630   39.8690 C   0  0  0  0  0  0  0  0  0  0  0  0
   36.0120   31.7850   39.4890 H   0  0  0  0  0  0  0  0  0  0  0  0
   37.3780   33.4260   39.5850 C   0  0  0  0  0  3  0  0  0  0  0  0
   38.6080   33.8990   40.0960 C   0  0  0  0  0  3  0  0  0  0  0  0
   39.2220   32.4410   41.0690 S   0  0  0  0  0  0  0  0  0  0  0  0
  1 12  1  0  0  0  0
  2  6  1  0  0  0  0
  2  1  1  0  0  0  0
  3  2  2  0  0  0  0
  4  3  1  0  0  0  0
  4  5  1  0  0  0  0
  5  1  2  0  0  0  0
  7  3  1  0  0  0  0
  8  9  1  0  0  0  0
  9 15  1  0  0  0  0
  9 10  2  0  0  0  0
 10 16  1  0  0  0  0
 11 10  1  0  0  0  0
 12 11  2  0  0  0  0
 13  8  2  0  0  0  0
 13 12  1  0  0  0  0
 14  8  1  0  0  0  0
 17 22  1  0  0  0  0
 17  4  1  0  0  0  0
 18 17  2  0  0  0  0
 19 18  1  0  0  0  0
 20 18  1  0  0  0  0
 20 21  2  0  0  0  0
 21 22  1  0  0  0  0
M  END
>  <minimizedAffinity>
-4.73310518

$$$$

 OpenBabel03242520033D

 22 24  0  0  0  0  0  0  0  0999 V2000
   37.5980   30.0200   41.1480 C   0  0  0  0  0  0  0  0  0  0  0  0
   36.3410   29.4050   41.1710 C   0  0  0  0  0  0  0  0  0  0  0  0
   36.4970   28.1280   41.6080 C   0  0  0  0  0  0  0  0  0  0  0  0
   37.8070   27.9600   41.8470 N   0  0  0  0  0  0  0  0  0  0  0  0
   38.4560   29.1080   41.5640 N   0  0  0  0  0  0  0  0  0  0  0  0
   35.3960   29.8830   40.8840 H   0  0  0  0  0  0  0  0  0  0  0  0
   35.7520   27.3570   41.7550 H   0  0  0  0  0  0  0  0  0  0  0  0
   37.1550   33.2790   39.5090 C   0  0  0  0  0  0  0  0  0  0  0  0
   38.2910   33.9840   39.9410 C   0  0  0  0  0  0  0  0  0  0  0  0
   39.2160   33.3320   40.8050 C   0  0  0  0  0  0  0  0  0  0  0  0
   38.9340   32.0490   41.1580 N   0  0  0  0  0  0  0  0  0  0  0  0
   37.8460   31.3950   40.7350 C   0  0  0  0  0  0  0  0  0  0  0  0
   36.9650   32.0100   39.9150 N   0  0  0  0  0  0  0  0  0  0  0  0
   36.4690   33.7820   38.8600 H   0  0  0  0  0  0  0  0  0  0  0  0
   38.4540   35.0180   39.6150 H   0  0  0  0  0  0  0  0  0  0  0  0
   40.0850   33.8600   41.1400 H   0  0  0  0  0  0  0  0  0  0  0  0
   38.4750   26.7960   42.3190 C   0  0  0  0  0  0  0  0  0  0  0  0
   39.5100   26.8270   43.3140 C   0  0  0  0  0  0  0  0  0  0  0  0
   39.8280   27.7570   43.7530 H   0  0  0  0  0  0  0  0  0  0  0  0
   40.0660   25.6340   43.6760 C   0  0  0  0  0  3  0  0  0  0  0  0
   39.6300   24.4270   43.0850 C   0  0  0  0  0  3  0  0  0  0  0  0
   38.3160   25.0100   41.9090 S   0  0  0  0  0  0  0  0  0  0  0  0
  1  2  1  0  0  0  0
  1  5  2  0  0  0  0
  2  3  2  0  0  0  0
  3  7  1  0  0  0  0
  3  4  1  0  0  0  0
  4 17  1  0  0  0  0
  5  4  1  0  0  0  0
  6  2  1  0  0  0  0
  8 13  2  0  0  0  0
  8  9  1  0  0  0  0
  9 10  2  0  0  0  0
 10 16  1  0  0  0  0
 10 11  1  0  0  0  0
 12  1  1  0  0  0  0
 12 11  2  0  0  0  0
 13 12  1  0  0  0  0
 14  8  1  0  0  0  0
 15  9  1  0  0  0  0
 17 18  2  0  0  0  0
 18 20  1  0  0  0  0
 18 19  1  0  0  0  0
 21 20  2  0  0  0  0
 22 17  1  0  0  0  0
 22 21  1  0  0  0  0
M  END
>  <minimizedAffinity>
-4.67320681

$$$$

 OpenBabel03242520033D

 22 24  0  0  0  0  0  0  0  0999 V2000
   38.1030   30.1600   41.4530 C   0  0  0  0  0  0  0  0  0  0  0  0
   38.5280   29.7630   42.7270 C   0  0  0  0  0  0  0  0  0  0  0  0
   38.3010   28.4300   42.8580 C   0  0  0  0  0  0  0  0  0  0  0  0
   37.7540   28.0170   41.7040 N   0  0  0  0  0  0  0  0  0  0  0  0
   37.6410   29.0700   40.8700 N   0  0  0  0  0  0  0  0  0  0  0  0
   38.9680   30.4250   43.4830 H   0  0  0  0  0  0  0  0  0  0  0  0
   38.5000   27.7790   43.6990 H   0  0  0  0  0  0  0  0  0  0  0  0
   39.3430   33.5590   40.8140 C   0  0  0  0  0  0  0  0  0  0  0  0
   38.3470   34.0830   39.9720 C   0  0  0  0  0  0  0  0  0  0  0  0
   37.2410   33.2590   39.6210 C   0  0  0  0  0  0  0  0  0  0  0  0
   37.2210   31.9990   40.1330 N   0  0  0  0  0  0  0  0  0  0  0  0
   38.1800   31.5190   40.9350 C   0  0  0  0  0  0  0  0  0  0  0  0
   39.2320   32.2990   41.2710 N   0  0  0  0  0  0  0  0  0  0  0  0
   40.1680   34.1910   41.0690 H   0  0  0  0  0  0  0  0  0  0  0  0
   38.4290   35.1100   39.5960 H   0  0  0  0  0  0  0  0  0  0  0  0
   36.4770   33.6480   38.9800 H   0  0  0  0  0  0  0  0  0  0  0  0
   37.3360   26.7050   41.3470 C   0  0  0  0  0  0  0  0  0  0  0  0
   37.2400   25.6230   42.2870 C   0  0  0  0  0  0  0  0  0  0  0  0
   37.4850   25.7670   43.3250 H   0  0  0  0  0  0  0  0  0  0  0  0
   36.8250   24.4130   41.8080 C   0  0  0  0  0  3  0  0  0  0  0  0
   36.5090   24.2500   40.4400 C   0  0  0  0  0  3  0  0  0  0  0  0
   36.8190   25.9480   39.7530 S   0  0  0  0  0  0  0  0  0  0  0  0
  1  2  1  0  0  0  0
  2  3  2  0  0  0  0
  2  6  1  0  0  0  0
  3  7  1  0  0  0  0
  4  3  1  0  0  0  0
  5  1  2  0  0  0  0
  5  4  1  0  0  0  0
  8 14  1  0  0  0  0
  8 13  1  0  0  0  0
  9  8  2  0  0  0  0
 10  9  1  0  0  0  0
 10 11  2  0  0  0  0
 11 12  1  0  0  0  0
 12 13  2  0  0  0  0
 12  1  1  0  0  0  0
 15  9  1  0  0  0  0
 16 10  1  0  0  0  0
 17  4  1  0  0  0  0
 17 18  2  0  0  0  0
 18 19  1  0  0  0  0
 20 18  1  0  0  0  0
 21 20  2  0  0  0  0
 22 21  1  0  0  0  0
 22 17  1  0  0  0  0
M  END
>  <minimizedAffinity>
-4.6378231

$$$$

 OpenBabel03242520033D

 22 24  0  0  0  0  0  0  0  0999 V2000
   37.7230   27.9130   41.5990 C   0  0  0  0  0  0  0  0  0  0  0  0
   38.3120   28.3440   42.7940 C   0  0  0  0  0  0  0  0  0  0  0  0
   38.5330   29.6810   42.7040 C   0  0  0  0  0  0  0  0  0  0  0  0
   38.0960   30.0640   41.4940 N   0  0  0  0  0  0  0  0  0  0  0  0
   37.6130   28.9880   40.8410 N   0  0  0  0  0  0  0  0  0  0  0  0
   38.5490   27.7010   43.6500 H   0  0  0  0  0  0  0  0  0  0  0  0
   38.9690   30.3550   43.4300 H   0  0  0  0  0  0  0  0  0  0  0  0
   36.4700   24.9780   39.7770 C   0  0  0  0  0  0  0  0  0  0  0  0
   36.5970   23.9590   40.7360 C   0  0  0  0  0  0  0  0  0  0  0  0
   37.1190   24.2850   42.0200 C   0  0  0  0  0  0  0  0  0  0  0  0
   37.4640   25.5830   42.2360 N   0  0  0  0  0  0  0  0  0  0  0  0
   37.3360   26.5400   41.3080 C   0  0  0  0  0  0  0  0  0  0  0  0
   36.8410   26.2340   40.0880 N   0  0  0  0  0  0  0  0  0  0  0  0
   36.0770   24.7180   38.8170 H   0  0  0  0  0  0  0  0  0  0  0  0
   36.2980   22.9330   40.4910 H   0  0  0  0  0  0  0  0  0  0  0  0
   37.2190   23.5170   42.7580 H   0  0  0  0  0  0  0  0  0  0  0  0
   38.1080   31.3680   40.9250 C   0  0  0  0  0  0  0  0  0  0  0  0
   37.0660   31.8670   40.0700 C   0  0  0  0  0  0  0  0  0  0  0  0
   36.2140   31.2570   39.8220 H   0  0  0  0  0  0  0  0  0  0  0  0
   37.2050   33.1380   39.5930 C   0  0  0  0  0  3  0  0  0  0  0  0
   38.3330   33.9180   39.9350 C   0  0  0  0  0  3  0  0  0  0  0  0
   39.2960   32.7680   41.0300 S   0  0  0  0  0  0  0  0  0  0  0  0
  1  2  1  0  0  0  0
  2  6  1  0  0  0  0
  3  2  2  0  0  0  0
  3  7  1  0  0  0  0
  4  3  1  0  0  0  0
  5  4  1  0  0  0  0
  5  1  2  0  0  0  0
  8 13  2  0  0  0  0
  8  9  1  0  0  0  0
  9 10  2  0  0  0  0
 10 11  1  0  0  0  0
 10 16  1  0  0  0  0
 12  1  1  0  0  0  0
 12 11  2  0  0  0  0
 13 12  1  0  0  0  0
 14  8  1  0  0  0  0
 15  9  1  0  0  0  0
 17 22  1  0  0  0  0
 17  4  1  0  0  0  0
 18 17  2  0  0  0  0
 19 18  1  0  0  0  0
 20 21  2  0  0  0  0
 20 18  1  0  0  0  0
 21 22  1  0  0  0  0
M  END
>  <minimizedAffinity>
-4.5086298

$$$$

 OpenBabel03242520033D

 22 24  0  0  0  0  0  0  0  0999 V2000
   37.6260   29.2960   41.5480 C   0  0  0  0  0  0  0  0  0  0  0  0
   37.3760   28.8940   42.8650 C   0  0  0  0  0  0  0  0  0  0  0  0
   37.1980   27.5480   42.8750 C   0  0  0  0  0  0  0  0  0  0  0  0
   37.3330   27.1310   41.6070 N   0  0  0  0  0  0  0  0  0  0  0  0
   37.5900   28.1960   40.8200 N   0  0  0  0  0  0  0  0  0  0  0  0
   37.3340   29.5630   43.7340 H   0  0  0  0  0  0  0  0  0  0  0  0
   36.9880   26.8900   43.7080 H   0  0  0  0  0  0  0  0  0  0  0  0
   37.1070   32.5890   40.0010 C   0  0  0  0  0  0  0  0  0  0  0  0
   38.3010   33.2570   40.3210 C   0  0  0  0  0  0  0  0  0  0  0  0
   39.2920   32.5690   41.0760 C   0  0  0  0  0  0  0  0  0  0  0  0
   39.0130   31.2890   41.4420 N   0  0  0  0  0  0  0  0  0  0  0  0
   37.8680   30.6700   41.1270 C   0  0  0  0  0  0  0  0  0  0  0  0
   36.9250   31.3200   40.4100 N   0  0  0  0  0  0  0  0  0  0  0  0
   36.3710   33.1190   39.4330 H   0  0  0  0  0  0  0  0  0  0  0  0
   38.4580   34.2910   39.9920 H   0  0  0  0  0  0  0  0  0  0  0  0
   40.2060   33.0690   41.3260 H   0  0  0  0  0  0  0  0  0  0  0  0
   37.2360   25.8060   41.0990 C   0  0  0  0  0  0  0  0  0  0  0  0
   37.7540   24.6560   41.7870 C   0  0  0  0  0  0  0  0  0  0  0  0
   38.2490   24.7560   42.7380 H   0  0  0  0  0  0  0  0  0  0  0  0
   37.5920   23.4420   41.1840 C   0  0  0  0  0  3  0  0  0  0  0  0
   36.9390   23.3380   39.9360 C   0  0  0  0  0  3  0  0  0  0  0  0
   36.5070   25.1060   39.5630 S   0  0  0  0  0  0  0  0  0  0  0  0
  1  2  1  0  0  0  0
  2  3  2  0  0  0  0
  2  6  1  0  0  0  0
  3  7  1  0  0  0  0
  4  3  1  0  0  0  0
  5  1  2  0  0  0  0
  5  4  1  0  0  0  0
  8  9  2  0  0  0  0
  8 13  1  0  0  0  0
  9 10  1  0  0  0  0
 10 16  1  0  0  0  0
 10 11  2  0  0  0  0
 12 11  1  0  0  0  0
 12  1  1  0  0  0  0
 13 12  2  0  0  0  0
 14  8  1  0  0  0  0
 15  9  1  0  0  0  0
 17  4  1  0  0  0  0
 17 18  2  0  0  0  0
 18 19  1  0  0  0  0
 20 18  1  0  0  0  0
 21 20  2  0  0  0  0
 22 21  1  0  0  0  0
 22 17  1  0  0  0  0
M  END
>  <minimizedAffinity>
-4.22534561

$$$$

 OpenBabel03242520033D

 22 24  0  0  0  0  0  0  0  0999 V2000
   39.4680   31.7310   39.5140 C   0  0  0  0  0  0  0  0  0  0  0  0
   38.2360   32.3900   39.6020 C   0  0  0  0  0  0  0  0  0  0  0  0
   37.4140   31.6580   40.3980 C   0  0  0  0  0  0  0  0  0  0  0  0
   38.1140   30.5820   40.7880 N   0  0  0  0  0  0  0  0  0  0  0  0
   39.3480   30.6400   40.2470 N   0  0  0  0  0  0  0  0  0  0  0  0
   37.9880   33.3380   39.1070 H   0  0  0  0  0  0  0  0  0  0  0  0
   36.3920   31.8530   40.6930 H   0  0  0  0  0  0  0  0  0  0  0  0
   42.2430   31.7810   37.1060 C   0  0  0  0  0  0  0  0  0  0  0  0
   42.7730   33.0690   37.2940 C   0  0  0  0  0  0  0  0  0  0  0  0
   42.1700   33.9270   38.2560 C   0  0  0  0  0  0  0  0  0  0  0  0
   41.1030   33.4340   38.9420 N   0  0  0  0  0  0  0  0  0  0  0  0
   40.6130   32.2030   38.7480 C   0  0  0  0  0  0  0  0  0  0  0  0
   41.1840   31.3860   37.8350 N   0  0  0  0  0  0  0  0  0  0  0  0
   42.7070   31.1480   36.3790 H   0  0  0  0  0  0  0  0  0  0  0  0
   43.6370   33.3990   36.7040 H   0  0  0  0  0  0  0  0  0  0  0  0
   42.5660   34.9100   38.4080 H   0  0  0  0  0  0  0  0  0  0  0  0
   37.6940   29.5150   41.6310 C   0  0  0  0  0  0  0  0  0  0  0  0
   38.1500   29.3490   42.9830 C   0  0  0  0  0  0  0  0  0  0  0  0
   38.8450   30.0440   43.4230 H   0  0  0  0  0  0  0  0  0  0  0  0
   37.6660   28.2800   43.6800 C   0  0  0  0  0  3  0  0  0  0  0  0
   36.7540   27.3820   43.0800 C   0  0  0  0  0  3  0  0  0  0  0  0
   36.5510   28.0970   41.3780 S   0  0  0  0  0  0  0  0  0  0  0  0
  1  2  1  0  0  0  0
  1  5  2  0  0  0  0
  2  3  2  0  0  0  0
  3  7  1  0  0  0  0
  3  4  1  0  0  0  0
  4 17  1  0  0  0  0
  5  4  1  0  0  0  0
  6  2  1  0  0  0  0
  8  9  2  0  0  0  0
  8 13  1  0  0  0  0
  9 10  1  0  0  0  0
 10 16  1  0  0  0  0
 10 11  2  0  0  0  0
 12 11  1  0  0  0  0
 12  1  1  0  0  0  0
 13 12  2  0  0  0  0
 14  8  1  0  0  0  0
 15  9  1  0  0  0  0
 17 18  2  0  0  0  0
 18 19  1  0  0  0  0
 18 20  1  0  0  0  0
 21 20  2  0  0  0  0
 22 17  1  0  0  0  0
 22 21  1  0  0  0  0
M  END
>  <minimizedAffinity>
-4.17908907

$$$$

 OpenBabel03242520033D

 22 24  0  0  0  0  0  0  0  0999 V2000
   38.4720   31.9970   40.2780 C   0  0  0  0  0  0  0  0  0  0  0  0
   38.1480   33.3510   40.4260 C   0  0  0  0  0  0  0  0  0  0  0  0
   39.2210   34.0920   40.0450 C   0  0  0  0  0  0  0  0  0  0  0  0
   40.1760   33.2260   39.6750 N   0  0  0  0  0  0  0  0  0  0  0  0
   39.7100   31.9690   39.8220 N   0  0  0  0  0  0  0  0  0  0  0  0
   37.1870   33.7360   40.7880 H   0  0  0  0  0  0  0  0  0  0  0  0
   39.3390   35.1680   40.0230 H   0  0  0  0  0  0  0  0  0  0  0  0
   37.1490   28.9450   41.8390 C   0  0  0  0  0  0  0  0  0  0  0  0
   35.9170   28.7880   41.1820 C   0  0  0  0  0  0  0  0  0  0  0  0
   35.5380   29.7410   40.1950 C   0  0  0  0  0  0  0  0  0  0  0  0
   36.4100   30.7560   39.9480 N   0  0  0  0  0  0  0  0  0  0  0  0
   37.5800   30.8880   40.5860 C   0  0  0  0  0  0  0  0  0  0  0  0
   37.9420   29.9850   41.5240 N   0  0  0  0  0  0  0  0  0  0  0  0
   37.4190   28.2210   42.5790 H   0  0  0  0  0  0  0  0  0  0  0  0
   35.2630   27.9440   41.4330 H   0  0  0  0  0  0  0  0  0  0  0  0
   34.6010   29.6310   39.6880 H   0  0  0  0  0  0  0  0  0  0  0  0
   41.4860   33.5090   39.1970 C   0  0  0  0  0  0  0  0  0  0  0  0
   41.7870   33.7490   37.8130 C   0  0  0  0  0  0  0  0  0  0  0  0
   41.0140   33.7240   37.0650 H   0  0  0  0  0  0  0  0  0  0  0  0
   43.0890   34.0090   37.4930 C   0  0  0  0  0  3  0  0  0  0  0  0
   44.0860   34.0370   38.4940 C   0  0  0  0  0  3  0  0  0  0  0  0
   43.1160   33.6640   40.0330 S   0  0  0  0  0  0  0  0  0  0  0  0
  1  2  1  0  0  0  0
  1 12  1  0  0  0  0
  2  6  1  0  0  0  0
  3  2  2  0  0  0  0
  4  5  1  0  0  0  0
  4  3  1  0  0  0  0
  5  1  2  0  0  0  0
  7  3  1  0  0  0  0
  8 14  1  0  0  0  0
  9 15  1  0  0  0  0
  9  8  2  0  0  0  0
 10  9  1  0  0  0  0
 11 10  2  0  0  0  0
 11 12  1  0  0  0  0
 12 13  2  0  0  0  0
 13  8  1  0  0  0  0
 16 10  1  0  0  0  0
 17  4  1  0  0  0  0
 17 22  1  0  0  0  0
 18 17  2  0  0  0  0
 19 18  1  0  0  0  0
 20 18  1  0  0  0  0
 20 21  2  0  0  0  0
 21 22  1  0  0  0  0
M  END
>  <minimizedAffinity>
-4.09708643

$$$$

 OpenBabel03242520033D

 22 24  0  0  0  0  0  0  0  0999 V2000
   37.5110   29.8730   41.0700 C   0  0  0  0  0  0  0  0  0  0  0  0
   37.2630   29.4350   42.3760 C   0  0  0  0  0  0  0  0  0  0  0  0
   36.9990   28.1040   42.3390 C   0  0  0  0  0  0  0  0  0  0  0  0
   37.0800   27.7310   41.0520 N   0  0  0  0  0  0  0  0  0  0  0  0
   37.3890   28.8080   40.3020 N   0  0  0  0  0  0  0  0  0  0  0  0
   37.2820   30.0700   43.2710 H   0  0  0  0  0  0  0  0  0  0  0  0
   36.7640   27.4270   43.1500 H   0  0  0  0  0  0  0  0  0  0  0  0
   39.3370   33.0500   40.7870 C   0  0  0  0  0  0  0  0  0  0  0  0
   38.4600   33.8260   40.0090 C   0  0  0  0  0  0  0  0  0  0  0  0
   37.2320   33.2500   39.5780 C   0  0  0  0  0  0  0  0  0  0  0  0
   36.9840   31.9660   39.9550 N   0  0  0  0  0  0  0  0  0  0  0  0
   37.8330   31.2440   40.6970 C   0  0  0  0  0  0  0  0  0  0  0  0
   39.0000   31.7880   41.1090 N   0  0  0  0  0  0  0  0  0  0  0  0
   40.2560   33.4960   41.1030 H   0  0  0  0  0  0  0  0  0  0  0  0
   38.7270   34.8550   39.7430 H   0  0  0  0  0  0  0  0  0  0  0  0
   36.5570   33.8320   38.9850 H   0  0  0  0  0  0  0  0  0  0  0  0
   36.8870   26.4360   40.4960 C   0  0  0  0  0  0  0  0  0  0  0  0
   36.4780   26.2120   39.1370 C   0  0  0  0  0  0  0  0  0  0  0  0
   36.2970   27.0380   38.4700 H   0  0  0  0  0  0  0  0  0  0  0  0
   36.3290   24.9170   38.7330 C   0  0  0  0  0  3  0  0  0  0  0  0
   36.5720   23.8510   39.6290 C   0  0  0  0  0  3  0  0  0  0  0  0
   37.0550   24.7400   41.1860 S   0  0  0  0  0  0  0  0  0  0  0  0
  1  2  1  0  0  0  0
  2  6  1  0  0  0  0
  3  2  2  0  0  0  0
  3  7  1  0  0  0  0
  4  3  1  0  0  0  0
  5  4  1  0  0  0  0
  5  1  2  0  0  0  0
  8 14  1  0  0  0  0
  8 13  1  0  0  0  0
  9  8  2  0  0  0  0
 10 11  2  0  0  0  0
 10  9  1  0  0  0  0
 11 12  1  0  0  0  0
 12  1  1  0  0  0  0
 12 13  2  0  0  0  0
 15  9  1  0  0  0  0
 16 10  1  0  0  0  0
 17  4  1  0  0  0  0
 17 22  1  0  0  0  0
 18 17  2  0  0  0  0
 19 18  1  0  0  0  0
 20 18  1  0  0  0  0
 20 21  2  0  0  0  0
 21 22  1  0  0  0  0
M  END
>  <minimizedAffinity>
-4.0791111

$$$$

 OpenBabel03242520033D

 22 24  0  0  0  0  0  0  0  0999 V2000
   38.9920   27.2480   42.6760 C   0  0  0  0  0  0  0  0  0  0  0  0
   37.9660   27.4000   43.6170 C   0  0  0  0  0  0  0  0  0  0  0  0
   36.8170   27.6920   42.9530 C   0  0  0  0  0  0  0  0  0  0  0  0
   37.1230   27.7190   41.6470 N   0  0  0  0  0  0  0  0  0  0  0  0
   38.4360   27.4510   41.4970 N   0  0  0  0  0  0  0  0  0  0  0  0
   38.0820   27.2980   44.7030 H   0  0  0  0  0  0  0  0  0  0  0  0
   35.8250   27.8740   43.3460 H   0  0  0  0  0  0  0  0  0  0  0  0
   42.5010   27.6750   43.6790 C   0  0  0  0  0  0  0  0  0  0  0  0
   42.9910   26.3600   43.6070 C   0  0  0  0  0  0  0  0  0  0  0  0
   42.1050   25.3180   43.2110 C   0  0  0  0  0  0  0  0  0  0  0  0
   40.8240   25.6710   42.9230 N   0  0  0  0  0  0  0  0  0  0  0  0
   40.3760   26.9310   42.9980 C   0  0  0  0  0  0  0  0  0  0  0  0
   41.2140   27.9230   43.3730 N   0  0  0  0  0  0  0  0  0  0  0  0
   43.1780   28.4480   43.9780 H   0  0  0  0  0  0  0  0  0  0  0  0
   44.0380   26.1490   43.8540 H   0  0  0  0  0  0  0  0  0  0  0  0
   42.4680   24.3120   43.1530 H   0  0  0  0  0  0  0  0  0  0  0  0
   36.2610   27.9810   40.5450 C   0  0  0  0  0  0  0  0  0  0  0  0
   35.2410   28.9920   40.5630 C   0  0  0  0  0  0  0  0  0  0  0  0
   35.0860   29.6080   41.4320 H   0  0  0  0  0  0  0  0  0  0  0  0
   34.4840   29.1370   39.4350 C   0  0  0  0  0  3  0  0  0  0  0  0
   34.7080   28.3160   38.3070 C   0  0  0  0  0  3  0  0  0  0  0  0
   36.1110   27.2370   38.8700 S   0  0  0  0  0  0  0  0  0  0  0  0
  1 12  1  0  0  0  0
  1  2  1  0  0  0  0
  2  6  1  0  0  0  0
  3  7  1  0  0  0  0
  3  2  2  0  0  0  0
  4  3  1  0  0  0  0
  5  4  1  0  0  0  0
  5  1  2  0  0  0  0
  8 14  1  0  0  0  0
  9  8  1  0  0  0  0
  9 15  1  0  0  0  0
 10  9  2  0  0  0  0
 11 12  2  0  0  0  0
 11 10  1  0  0  0  0
 12 13  1  0  0  0  0
 13  8  2  0  0  0  0
 16 10  1  0  0  0  0
 17 18  2  0  0  0  0
 17  4  1  0  0  0  0
 18 19  1  0  0  0  0
 20 18  1  0  0  0  0
 21 22  1  0  0  0  0
 21 20  2  0  0  0  0
 22 17  1  0  0  0  0
M  END
>  <minimizedAffinity>
-4.04258871

$$$$
