
 OpenBabel03252502073D

 45 49  0  0  0  0  0  0  0  0999 V2000
   47.4990   32.0500   47.9000 C   0  0  0  0  0  0  0  0  0  0  0  0
   46.9990   30.7430   47.8990 C   0  0  0  0  0  0  0  0  0  0  0  0
   46.0130   30.4590   46.9990 C   0  0  0  0  0  0  0  0  0  0  0  0
   45.5710   31.4090   46.1670 N   0  0  0  0  0  0  0  0  0  0  0  0
   46.0350   32.6530   46.1490 C   0  0  0  0  0  0  0  0  0  0  0  0
   47.0090   32.9520   47.0370 N   0  0  0  0  0  0  0  0  0  0  0  0
   45.4610   29.2010   46.9550 N   0  0  0  0  0  0  0  0  0  0  0  0
   44.2740   28.8340   46.1300 C   0  0  0  0  0  0  0  0  0  0  0  0
   44.2130   27.3290   46.1550 C   0  0  0  0  0  0  0  0  0  0  0  0
   44.8400   27.0000   47.4690 C   0  0  0  0  0  0  0  0  0  0  0  0
   45.8900   28.0400   47.6660 C   0  0  0  0  0  0  0  0  0  0  0  0
   48.2840   32.3230   48.6040 H   0  0  0  0  0  0  0  0  0  0  0  0
   43.3750   29.3320   46.5160 H   0  0  0  0  0  0  0  0  0  0  0  0
   44.5590   29.1620   45.1040 H   0  0  0  0  0  0  0  0  0  0  0  0
   43.1760   26.9830   46.0420 H   0  0  0  0  0  0  0  0  0  0  0  0
   44.8660   26.9190   45.3480 H   0  0  0  0  0  0  0  0  0  0  0  0
   44.0330   27.0640   48.2290 H   0  0  0  0  0  0  0  0  0  0  0  0
   45.3020   25.9950   47.4870 H   0  0  0  0  0  0  0  0  0  0  0  0
   46.8480   27.6740   47.2680 H   0  0  0  0  0  0  0  0  0  0  0  0
   45.9000   28.1740   48.7900 H   0  0  0  0  0  0  0  0  0  0  0  0
   45.7190   33.8250   45.2920 C   0  0  0  0  0  0  0  0  0  0  0  0
   44.7970   34.7410   45.6080 N   0  0  0  0  0  0  0  0  0  0  0  0
   44.4920   35.7980   44.8690 C   0  0  0  0  0  0  0  0  0  0  0  0
   45.1380   36.0110   43.6960 N   0  0  0  0  0  0  0  0  0  0  0  0
   46.0870   35.1580   43.2730 C   0  0  0  0  0  0  0  0  0  0  0  0
   46.7270   35.3930   42.0840 C   0  0  0  0  0  0  0  0  0  0  0  0
   47.7010   34.5280   41.6370 C   0  0  0  0  0  0  0  0  0  0  0  0
   48.0120   33.4200   42.4210 C   0  0  0  0  0  0  0  0  0  0  0  0
   47.3250   33.2480   43.6100 C   0  0  0  0  0  0  0  0  0  0  0  0
   46.3550   34.0820   44.0850 C   0  0  0  0  0  0  0  0  0  0  0  0
   43.7240   36.4410   45.2640 H   0  0  0  0  0  0  0  0  0  0  0  0
   46.4300   36.2750   41.5310 H   0  0  0  0  0  0  0  0  0  0  0  0
   48.1290   34.8070   40.7030 H   0  0  0  0  0  0  0  0  0  0  0  0
   49.0300   32.5540   41.9110 C   0  0  0  0  0  0  0  0  0  0  0  0
   49.0140   31.4240   41.1850 C   0  0  0  0  0  0  0  0  0  0  0  0
   48.1460   30.9070   40.8140 H   0  0  0  0  0  0  0  0  0  0  0  0
   50.1840   30.8110   40.8430 C   0  0  0  0  0  0  0  0  0  0  0  0
   51.3840   31.4050   41.2770 C   0  0  0  0  0  0  0  0  0  0  0  0
   50.7710   32.8800   42.1960 S   0  0  0  0  0  0  0  0  0  0  0  0
   47.7460   32.0780   44.2920 N   0  0  0  0  0  0  0  0  0  0  0  0
   47.0730   31.3700   43.8720 H   0  0  0  0  0  0  0  0  0  0  0  0
   48.5200   32.4530   44.8840 H   0  0  0  0  0  0  0  0  0  0  0  0
   47.5710   29.8410   48.7510 N   0  0  0  0  0  0  0  0  0  0  0  0
   47.3140   29.8480   49.7710 H   0  0  0  0  0  0  0  0  0  0  0  0
   48.2690   29.0810   48.5960 H   0  0  0  0  0  0  0  0  0  0  0  0
  1 12  1  0  0  0  0
  2  1  1  0  0  0  0
  2 43  1  0  0  0  0
  3  2  2  0  0  0  0
  4  3  1  0  0  0  0
  5  4  2  0  0  0  0
  5  6  1  0  0  0  0
  6  1  2  0  0  0  0
  7  3  1  0  0  0  0
  7 11  1  0  0  0  0
  8  9  1  0  0  0  0
  8 13  1  0  0  0  0
  8  7  1  0  0  0  0
  9 10  1  0  0  0  0
 10 18  1  0  0  0  0
 10 11  1  0  0  0  0
 10 17  1  0  0  0  0
 11 20  1  0  0  0  0
 14  8  1  0  0  0  0
 15  9  1  0  0  0  0
 16  9  1  0  0  0  0
 19 11  1  0  0  0  0
 21 22  1  0  0  0  0
 21  5  1  0  0  0  0
 23 31  1  0  0  0  0
 23 22  2  0  0  0  0
 24 23  1  0  0  0  0
 25 24  2  0  0  0  0
 25 30  1  0  0  0  0
 26 25  1  0  0  0  0
 27 26  2  0  0  0  0
 27 28  1  0  0  0  0
 28 29  2  0  0  0  0
 29 30  1  0  0  0  0
 29 40  1  0  0  0  0
 30 21  2  0  0  0  0
 32 26  1  0  0  0  0
 33 27  1  0  0  0  0
 34 39  1  0  0  0  0
 34 28  1  0  0  0  0
 35 34  2  0  0  0  0
 36 35  1  0  0  0  0
 37 35  1  0  0  0  0
 37 38  2  0  0  0  0
 38 39  1  0  0  0  0
 40 42  1  0  0  0  0
 41 40  1  0  0  0  0
 43 44  1  0  0  0  0
 45 43  1  0  0  0  0
M  END
>  <minimizedAffinity>
-6.8908124

>  <minimizedRMSD>
0.340580702

$$$$
