
 OpenBabel03252508173D

 44 48  0  0  1  0  0  0  0  0999 V2000
   47.2960   31.1420   46.9390 C   0  0  0  0  0  0  0  0  0  0  0  0
   48.2840   30.7930   46.6860 H   0  0  0  0  0  0  0  0  0  0  0  0
   46.5210   30.3370   46.8070 H   0  0  0  0  0  0  0  0  0  0  0  0
   47.0880   31.7450   48.2870 C   0  0  1  0  0  0  0  0  0  0  0  0
   46.3830   30.8670   49.2630 C   0  0  0  0  0  0  0  0  0  0  0  0
   47.7940   31.1970   49.4630 C   0  0  1  0  0  0  0  0  0  0  0  0
   46.5830   32.7570   48.2880 H   0  0  0  0  0  0  0  0  0  0  0  0
   45.6580   31.2290   49.9900 H   0  0  0  0  0  0  0  0  0  0  0  0
   46.1960   29.7980   48.9820 H   0  0  0  0  0  0  0  0  0  0  0  0
   48.0300   31.9500   50.2430 H   0  0  0  0  0  0  0  0  0  0  0  0
   48.8720   30.1880   49.2250 C   0  0  2  0  0  0  0  0  0  0  0  0
   49.7730   29.9210   50.4530 C   0  0  0  0  0  0  0  0  0  0  0  0
   50.3200   30.6630   49.3040 C   0  0  1  0  0  0  0  0  0  0  0  0
   48.6440   29.2380   48.7300 H   0  0  0  0  0  0  0  0  0  0  0  0
   49.5290   30.4500   51.3760 H   0  0  0  0  0  0  0  0  0  0  0  0
   50.2030   28.9300   50.6190 H   0  0  0  0  0  0  0  0  0  0  0  0
   50.4800   31.7450   49.5000 H   0  0  0  0  0  0  0  0  0  0  0  0
   51.1310   30.1010   48.2690 C   0  0  0  0  0  0  0  0  0  0  0  0
   52.4110   30.1990   47.9640 C   0  0  0  0  0  0  0  0  0  0  0  0
   53.1460   30.7640   48.5220 H   0  0  0  0  0  0  0  0  0  0  0  0
   52.9950   29.5810   46.8960 C   0  0  0  0  0  0  0  0  0  0  0  0
   52.1300   28.7960   46.0970 C   0  0  0  0  0  0  0  0  0  0  0  0
   50.4140   28.9730   46.9400 S   0  0  0  0  0  0  0  0  0  0  0  0
   46.1800   33.0770   46.1820 C   0  0  0  0  0  0  0  0  0  0  0  0
   46.9670   32.1410   45.8520 C   0  0  0  0  0  0  0  0  0  0  0  0
   44.5360   35.8490   44.3930 C   0  0  0  0  0  0  0  0  0  0  0  0
   45.1590   35.8340   43.1510 C   0  0  0  0  0  0  0  0  0  0  0  0
   46.1110   34.8810   42.9660 C   0  0  0  0  0  0  0  0  0  0  0  0
   46.4120   34.0070   43.9680 N   0  0  0  0  0  0  0  0  0  0  0  0
   45.7870   34.0510   45.1600 C   0  0  0  0  0  0  0  0  0  0  0  0
   44.8600   34.9770   45.3430 N   0  0  0  0  0  0  0  0  0  0  0  0
   43.7690   36.5700   44.6300 H   0  0  0  0  0  0  0  0  0  0  0  0
   44.9020   36.5370   42.3780 H   0  0  0  0  0  0  0  0  0  0  0  0
   46.8480   34.7430   41.7140 C   0  0  0  0  0  0  0  0  0  0  0  0
   48.0610   35.3450   41.4590 C   0  0  0  0  0  0  0  0  0  0  0  0
   48.7430   35.1980   40.2660 C   0  0  0  0  0  0  0  0  0  0  0  0
   48.2180   34.4250   39.2630 C   0  0  0  0  0  0  0  0  0  0  0  0
   47.0130   33.8060   39.4690 C   0  0  0  0  0  0  0  0  0  0  0  0
   46.3590   33.9750   40.6780 C   0  0  0  0  0  0  0  0  0  0  0  0
   48.4880   35.9620   42.2480 H   0  0  0  0  0  0  0  0  0  0  0  0
   49.6780   35.7070   40.1690 H   0  0  0  0  0  0  0  0  0  0  0  0
   48.7230   34.2880   38.3200 H   0  0  0  0  0  0  0  0  0  0  0  0
   46.5550   33.1860   38.7110 H   0  0  0  0  0  0  0  0  0  0  0  0
   45.4060   33.4700   40.8060 H   0  0  0  0  0  0  0  0  0  0  0  0
  1  4  1  0  0  0  0
  2  1  1  0  0  0  0
  3  1  1  0  0  0  0
  4  7  1  1  0  0  0
  4  5  1  0  0  0  0
  4  6  1  0  0  0  0
  5  6  1  0  0  0  0
  5  8  1  0  0  0  0
  6 10  1  1  0  0  0
  9  5  1  0  0  0  0
 11 14  1  6  0  0  0
 11 13  1  0  0  0  0
 11  6  1  0  0  0  0
 11 12  1  0  0  0  0
 12 16  1  0  0  0  0
 12 15  1  0  0  0  0
 13 17  1  1  0  0  0
 13 12  1  0  0  0  0
 18 13  1  0  0  0  0
 19 18  2  0  0  0  0
 19 20  1  0  0  0  0
 21 19  1  0  0  0  0
 22 21  2  0  0  0  0
 22 23  1  0  0  0  0
 23 18  1  0  0  0  0
 25 24  2  0  0  0  0
 25  1  1  0  0  0  0
 26 32  1  0  0  0  0
 26 31  1  0  0  0  0
 27 26  2  0  0  0  0
 28 27  1  0  0  0  0
 28 29  2  0  0  0  0
 29 30  1  0  0  0  0
 30 31  2  0  0  0  0
 30 24  1  0  0  0  0
 33 27  1  0  0  0  0
 34 28  1  0  0  0  0
 35 34  1  0  0  0  0
 35 40  1  0  0  0  0
 36 35  2  0  0  0  0
 37 38  2  0  0  0  0
 37 36  1  0  0  0  0
 38 39  1  0  0  0  0
 39 44  1  0  0  0  0
 39 34  2  0  0  0  0
 41 36  1  0  0  0  0
 42 37  1  0  0  0  0
 43 38  1  0  0  0  0
M  END
>  <minimizedAffinity>
-6.16477442

>  <minimizedRMSD>
1.09093726

$$$$
