
 OpenBabel03252504173D

 35 37  0  0  0  0  0  0  0  0999 V2000
   47.5780   29.9960   44.9200 F   0  0  0  0  0  0  0  0  0  0  0  0
   47.4880   30.7540   46.0570 C   0  0  0  0  0  0  0  0  0  0  0  0
   46.9500   32.0250   45.9920 C   0  0  0  0  0  0  0  0  0  0  0  0
   46.8950   32.7270   47.1900 C   0  0  0  0  0  0  0  0  0  0  0  0
   47.3540   32.1760   48.3560 C   0  0  0  0  0  0  0  0  0  0  0  0
   47.8860   30.8930   48.3620 C   0  0  0  0  0  0  0  0  0  0  0  0
   47.9630   30.1500   47.1900 C   0  0  0  0  0  0  0  0  0  0  0  0
   46.4810   33.7350   47.2110 H   0  0  0  0  0  0  0  0  0  0  0  0
   47.3360   32.6810   49.3270 H   0  0  0  0  0  0  0  0  0  0  0  0
   48.2590   30.4260   49.2700 H   0  0  0  0  0  0  0  0  0  0  0  0
   46.7980   34.1430   43.0260 C   0  0  0  0  0  0  0  0  0  0  0  0
   45.6390   33.7120   42.3740 C   0  0  0  0  0  0  0  0  0  0  0  0
   44.9010   32.6700   42.9760 C   0  0  0  0  0  0  0  0  0  0  0  0
   45.3350   32.1370   44.1410 N   0  0  0  0  0  0  0  0  0  0  0  0
   46.4670   32.5880   44.7390 C   0  0  0  0  0  0  0  0  0  0  0  0
   47.1770   33.5740   44.1810 N   0  0  0  0  0  0  0  0  0  0  0  0
   44.0160   32.3400   42.4800 H   0  0  0  0  0  0  0  0  0  0  0  0
   45.2310   34.3420   41.1090 C   0  0  0  0  0  0  0  0  0  0  0  0
   44.9510   35.6840   41.3190 F   0  0  0  0  0  0  0  0  0  0  0  0
   46.3140   34.2890   40.2380 F   0  0  0  0  0  0  0  0  0  0  0  0
   44.1570   33.7790   40.5050 F   0  0  0  0  0  0  0  0  0  0  0  0
   47.4930   35.1340   42.4480 O   0  0  0  0  0  0  0  0  0  0  0  0
   48.8190   35.0500   41.9360 C   0  0  0  0  0  0  0  0  0  0  0  0
   49.6780   35.2970   42.9910 F   0  0  0  0  0  0  0  0  0  0  0  0
   49.0190   33.8340   41.3540 F   0  0  0  0  0  0  0  0  0  0  0  0
   49.0250   36.1050   41.0690 F   0  0  0  0  0  0  0  0  0  0  0  0
   48.5350   28.7710   47.1830 C   0  0  0  0  0  0  0  0  0  0  0  0
   48.5580   28.4820   46.0900 H   0  0  0  0  0  0  0  0  0  0  0  0
   47.8720   28.0180   47.6460 H   0  0  0  0  0  0  0  0  0  0  0  0
   49.8840   28.7990   47.7190 C   0  0  0  0  0  0  0  0  0  0  0  0
   51.1290   29.3160   47.2960 C   0  0  0  0  0  0  0  0  0  0  0  0
   51.0780   29.8090   46.3440 H   0  0  0  0  0  0  0  0  0  0  0  0
   52.1990   29.1270   48.1260 C   0  0  0  0  0  0  0  0  0  0  0  0
   52.0180   28.4460   49.3300 C   0  0  0  0  0  0  0  0  0  0  0  0
   50.2640   28.0050   49.3850 S   0  0  0  0  0  0  0  0  0  0  0  0
  1  2  1  0  0  0  0
  2  7  1  0  0  0  0
  3  2  2  0  0  0  0
  3  4  1  0  0  0  0
  4  8  1  0  0  0  0
  4  5  2  0  0  0  0
  5  6  1  0  0  0  0
  5  9  1  0  0  0  0
  6 10  1  0  0  0  0
  7  6  2  0  0  0  0
 11 16  1  0  0  0  0
 12 13  1  0  0  0  0
 12 11  2  0  0  0  0
 13 14  2  0  0  0  0
 14 15  1  0  0  0  0
 15  3  1  0  0  0  0
 16 15  2  0  0  0  0
 17 13  1  0  0  0  0
 18 19  1  0  0  0  0
 18 12  1  0  0  0  0
 20 18  1  0  0  0  0
 21 18  1  0  0  0  0
 22 11  1  0  0  0  0
 23 22  1  0  0  0  0
 23 24  1  0  0  0  0
 25 23  1  0  0  0  0
 26 23  1  0  0  0  0
 27  7  1  0  0  0  0
 27 29  1  0  0  0  0
 27 30  1  0  0  0  0
 28 27  1  0  0  0  0
 30 35  1  0  0  0  0
 31 30  2  0  0  0  0
 31 33  1  0  0  0  0
 32 31  1  0  0  0  0
 33 34  2  0  0  0  0
 34 35  1  0  0  0  0
M  END
>  <minimizedAffinity>
-5.57321548

>  <minimizedRMSD>
1.10087311

$$$$
