
 OpenBabel03242520433D

 36 39  0  0  1  0  0  0  0  0999 V2000
   38.6050   28.2200   36.6730 C   0  0  0  0  0  0  0  0  0  0  0  0
   37.4170   28.1660   35.9010 C   0  0  0  0  0  0  0  0  0  0  0  0
   36.5710   29.3160   35.8980 C   0  0  0  0  0  0  0  0  0  0  0  0
   36.9450   30.4070   36.6350 N   0  0  0  0  0  0  0  0  0  0  0  0
   38.0860   30.3990   37.3490 C   0  0  0  0  0  0  0  0  0  0  0  0
   38.9010   29.3150   37.3630 N   0  0  0  0  0  0  0  0  0  0  0  0
   38.3820   31.5620   38.0730 N   0  0  0  0  0  0  0  0  0  0  0  0
   37.4930   32.0450   39.0780 C   0  0  2  0  0  0  0  0  0  0  0  0
   37.8010   33.4130   39.5810 C   0  0  0  0  0  0  0  0  0  0  0  0
   39.1540   33.8210   39.5570 N   0  0  0  0  0  0  0  0  0  0  0  0
   40.0660   32.8180   39.1360 C   0  0  0  0  0  0  0  0  0  0  0  0
   39.6090   32.2870   37.7990 C   0  0  0  0  0  0  0  0  0  0  0  0
   39.2000   27.3230   36.6340 H   0  0  0  0  0  0  0  0  0  0  0  0
   37.0930   27.3220   35.3080 H   0  0  0  0  0  0  0  0  0  0  0  0
   35.6590   29.3340   35.3330 H   0  0  0  0  0  0  0  0  0  0  0  0
   36.4920   32.1670   38.5580 H   0  0  0  0  0  0  0  0  0  0  0  0
   37.2050   34.2040   39.0820 H   0  0  0  0  0  0  0  0  0  0  0  0
   37.4650   33.4460   40.6580 H   0  0  0  0  0  0  0  0  0  0  0  0
   39.4630   34.4090   40.3530 H   0  0  0  0  0  0  0  0  0  0  0  0
   40.3100   32.0410   39.8620 H   0  0  0  0  0  0  0  0  0  0  0  0
   41.0480   33.3420   38.9290 H   0  0  0  0  0  0  0  0  0  0  0  0
   39.4310   33.1720   37.1500 H   0  0  0  0  0  0  0  0  0  0  0  0
   40.3360   31.5740   37.3540 H   0  0  0  0  0  0  0  0  0  0  0  0
   37.2960   31.0590   40.1700 C   0  0  0  0  0  0  0  0  0  0  0  0
   36.1990   30.7140   40.9280 C   0  0  0  0  0  0  0  0  0  0  0  0
   36.5070   29.7390   41.8050 N   0  0  0  0  0  0  0  0  0  0  0  0
   37.7810   29.4740   41.6000 C   0  0  0  0  0  0  0  0  0  0  0  0
   38.2640   30.2490   40.6330 N   0  0  0  0  0  0  0  0  0  0  0  0
   35.2270   31.1720   40.8280 H   0  0  0  0  0  0  0  0  0  0  0  0
   35.8510   29.3060   42.4890 H   0  0  0  0  0  0  0  0  0  0  0  0
   38.4780   28.4550   42.3760 C   0  0  0  0  0  0  0  0  0  0  0  0
   38.1000   27.3690   43.0560 C   0  0  0  0  0  0  0  0  0  0  0  0
   37.0420   27.1600   43.0590 H   0  0  0  0  0  0  0  0  0  0  0  0
   39.0740   26.6350   43.6780 C   0  0  0  0  0  3  0  0  0  0  0  0
   40.3870   27.0250   43.5870 C   0  0  0  0  0  3  0  0  0  0  0  0
   40.3470   28.5510   42.5560 S   0  0  0  0  0  0  0  0  0  0  0  0
  1  6  1  0  0  0  0
  2  1  2  0  0  0  0
  3  2  1  0  0  0  0
  3  4  2  0  0  0  0
  4  5  1  0  0  0  0
  5  6  2  0  0  0  0
  5  7  1  0  0  0  0
  7  8  1  0  0  0  0
  8 16  1  6  0  0  0
  8  9  1  0  0  0  0
  8 24  1  0  0  0  0
  9 18  1  0  0  0  0
 10  9  1  0  0  0  0
 10 19  1  0  0  0  0
 11 10  1  0  0  0  0
 11 20  1  0  0  0  0
 12  7  1  0  0  0  0
 12 11  1  0  0  0  0
 13  1  1  0  0  0  0
 14  2  1  0  0  0  0
 15  3  1  0  0  0  0
 17  9  1  0  0  0  0
 21 11  1  0  0  0  0
 22 12  1  0  0  0  0
 23 12  1  0  0  0  0
 24 28  1  0  0  0  0
 24 25  2  0  0  0  0
 25 26  1  0  0  0  0
 26 30  1  0  0  0  0
 27 26  1  0  0  0  0
 27 31  1  0  0  0  0
 28 27  2  0  0  0  0
 29 25  1  0  0  0  0
 31 36  1  0  0  0  0
 31 32  2  0  0  0  0
 32 33  1  0  0  0  0
 32 34  1  0  0  0  0
 35 34  2  0  0  0  0
 36 35  1  0  0  0  0
M  END
>  <minimizedAffinity>
-5.70712471

$$$$

 OpenBabel03242520433D

 36 39  0  0  1  0  0  0  0  0999 V2000
   42.3350   27.0520   41.5850 C   0  0  0  0  0  0  0  0  0  0  0  0
   42.8870   26.6190   42.8170 C   0  0  0  0  0  0  0  0  0  0  0  0
   42.1140   25.7240   43.6150 C   0  0  0  0  0  0  0  0  0  0  0  0
   40.8860   25.3290   43.1570 N   0  0  0  0  0  0  0  0  0  0  0  0
   40.4150   25.7750   41.9780 C   0  0  0  0  0  0  0  0  0  0  0  0
   41.1350   26.6250   41.2060 N   0  0  0  0  0  0  0  0  0  0  0  0
   39.1470   25.3150   41.5950 N   0  0  0  0  0  0  0  0  0  0  0  0
   38.0010   25.5700   42.4050 C   0  0  2  0  0  0  0  0  0  0  0  0
   36.7790   24.8130   42.0140 C   0  0  0  0  0  0  0  0  0  0  0  0
   36.6380   24.4720   40.6500 N   0  0  0  0  0  0  0  0  0  0  0  0
   37.6540   24.9880   39.8040 C   0  0  0  0  0  0  0  0  0  0  0  0
   38.9940   24.5720   40.3580 C   0  0  0  0  0  0  0  0  0  0  0  0
   42.9650   27.7260   41.0280 H   0  0  0  0  0  0  0  0  0  0  0  0
   43.8520   26.9100   43.2080 H   0  0  0  0  0  0  0  0  0  0  0  0
   42.4790   25.3620   44.5570 H   0  0  0  0  0  0  0  0  0  0  0  0
   38.2600   25.1550   43.4280 H   0  0  0  0  0  0  0  0  0  0  0  0
   36.6330   23.8870   42.6070 H   0  0  0  0  0  0  0  0  0  0  0  0
   35.8950   25.4610   42.2860 H   0  0  0  0  0  0  0  0  0  0  0  0
   35.6720   24.5070   40.2730 H   0  0  0  0  0  0  0  0  0  0  0  0
   37.5890   26.0470   39.5490 H   0  0  0  0  0  0  0  0  0  0  0  0
   37.5570   24.4440   38.8160 H   0  0  0  0  0  0  0  0  0  0  0  0
   38.9370   23.4760   40.5390 H   0  0  0  0  0  0  0  0  0  0  0  0
   39.8360   24.8470   39.6870 H   0  0  0  0  0  0  0  0  0  0  0  0
   37.7500   27.0230   42.5760 C   0  0  0  0  0  0  0  0  0  0  0  0
   37.4300   27.7900   43.6750 C   0  0  0  0  0  0  0  0  0  0  0  0
   37.3110   29.0880   43.3360 N   0  0  0  0  0  0  0  0  0  0  0  0
   37.5540   29.1370   42.0430 C   0  0  0  0  0  0  0  0  0  0  0  0
   37.8170   27.9190   41.5770 N   0  0  0  0  0  0  0  0  0  0  0  0
   37.2910   27.3940   44.6690 H   0  0  0  0  0  0  0  0  0  0  0  0
   37.0750   29.8680   43.9860 H   0  0  0  0  0  0  0  0  0  0  0  0
   37.5180   30.3970   41.3110 C   0  0  0  0  0  0  0  0  0  0  0  0
   36.5900   31.0460   40.6020 C   0  0  0  0  0  0  0  0  0  0  0  0
   35.6300   30.5600   40.5270 H   0  0  0  0  0  0  0  0  0  0  0  0
   36.9380   32.2470   40.0430 C   0  0  0  0  0  3  0  0  0  0  0  0
   38.2050   32.7430   40.2250 C   0  0  0  0  0  3  0  0  0  0  0  0
   39.0550   31.4780   41.2580 S   0  0  0  0  0  0  0  0  0  0  0  0
  1  2  1  0  0  0  0
  2 14  1  0  0  0  0
  2  3  2  0  0  0  0
  3 15  1  0  0  0  0
  4  3  1  0  0  0  0
  5  4  2  0  0  0  0
  6  1  2  0  0  0  0
  6  5  1  0  0  0  0
  7  5  1  0  0  0  0
  7  8  1  0  0  0  0
  8 24  1  0  0  0  0
  8 16  1  1  0  0  0
  9 18  1  0  0  0  0
  9  8  1  0  0  0  0
  9 17  1  0  0  0  0
 10  9  1  0  0  0  0
 11 12  1  0  0  0  0
 11 10  1  0  0  0  0
 12 22  1  0  0  0  0
 12  7  1  0  0  0  0
 13  1  1  0  0  0  0
 19 10  1  0  0  0  0
 20 11  1  0  0  0  0
 21 11  1  0  0  0  0
 23 12  1  0  0  0  0
 24 25  2  0  0  0  0
 25 29  1  0  0  0  0
 26 25  1  0  0  0  0
 26 30  1  0  0  0  0
 27 26  1  0  0  0  0
 28 27  2  0  0  0  0
 28 24  1  0  0  0  0
 31 27  1  0  0  0  0
 32 31  2  0  0  0  0
 33 32  1  0  0  0  0
 34 35  2  0  0  0  0
 34 32  1  0  0  0  0
 35 36  1  0  0  0  0
 36 31  1  0  0  0  0
M  END
>  <minimizedAffinity>
-5.53078079

$$$$

 OpenBabel03242520433D

 36 39  0  0  1  0  0  0  0  0999 V2000
   42.4360   29.7410   39.3600 C   0  0  0  0  0  0  0  0  0  0  0  0
   42.3880   29.1090   38.0920 C   0  0  0  0  0  0  0  0  0  0  0  0
   41.2650   29.3790   37.2550 C   0  0  0  0  0  0  0  0  0  0  0  0
   40.2940   30.2280   37.7130 N   0  0  0  0  0  0  0  0  0  0  0  0
   40.3950   30.7980   38.9280 C   0  0  0  0  0  0  0  0  0  0  0  0
   41.4550   30.5540   39.7370 N   0  0  0  0  0  0  0  0  0  0  0  0
   39.3490   31.6520   39.3090 N   0  0  0  0  0  0  0  0  0  0  0  0
   38.0080   31.1730   39.3970 C   0  0  2  0  0  0  0  0  0  0  0  0
   36.9760   32.2340   39.5600 C   0  0  0  0  0  0  0  0  0  0  0  0
   37.3650   33.4180   40.2250 N   0  0  0  0  0  0  0  0  0  0  0  0
   38.6870   33.3990   40.7410 C   0  0  0  0  0  0  0  0  0  0  0  0
   39.6320   33.0400   39.6210 C   0  0  0  0  0  0  0  0  0  0  0  0
   43.3080   29.4980   39.9450 H   0  0  0  0  0  0  0  0  0  0  0  0
   43.1380   28.4350   37.7000 H   0  0  0  0  0  0  0  0  0  0  0  0
   41.1740   28.9300   36.2840 H   0  0  0  0  0  0  0  0  0  0  0  0
   37.7830   30.7300   38.3770 H   0  0  0  0  0  0  0  0  0  0  0  0
   36.5010   32.5300   38.6020 H   0  0  0  0  0  0  0  0  0  0  0  0
   36.1350   31.7780   40.1600 H   0  0  0  0  0  0  0  0  0  0  0  0
   36.6460   33.8510   40.8350 H   0  0  0  0  0  0  0  0  0  0  0  0
   38.8480   32.8270   41.6570 H   0  0  0  0  0  0  0  0  0  0  0  0
   38.9410   34.4680   41.0150 H   0  0  0  0  0  0  0  0  0  0  0  0
   39.3860   33.7130   38.7700 H   0  0  0  0  0  0  0  0  0  0  0  0
   40.6980   33.1130   39.9240 H   0  0  0  0  0  0  0  0  0  0  0  0
   37.8710   30.0760   40.3870 C   0  0  0  0  0  0  0  0  0  0  0  0
   37.9890   30.0390   41.7590 C   0  0  0  0  0  0  0  0  0  0  0  0
   37.7620   28.7960   42.2270 N   0  0  0  0  0  0  0  0  0  0  0  0
   37.5040   28.0630   41.1650 C   0  0  0  0  0  0  0  0  0  0  0  0
   37.5650   28.8070   40.0640 N   0  0  0  0  0  0  0  0  0  0  0  0
   38.2350   30.8950   42.3680 H   0  0  0  0  0  0  0  0  0  0  0  0
   37.7910   28.5080   43.2290 H   0  0  0  0  0  0  0  0  0  0  0  0
   37.2040   26.6410   41.2790 C   0  0  0  0  0  0  0  0  0  0  0  0
   37.1560   25.7680   42.2900 C   0  0  0  0  0  0  0  0  0  0  0  0
   37.3870   26.1660   43.2660 H   0  0  0  0  0  0  0  0  0  0  0  0
   36.8260   24.4720   41.9980 C   0  0  0  0  0  3  0  0  0  0  0  0
   36.5560   24.1110   40.7020 C   0  0  0  0  0  3  0  0  0  0  0  0
   36.7610   25.6640   39.7350 S   0  0  0  0  0  0  0  0  0  0  0  0
  1  6  1  0  0  0  0
  1 13  1  0  0  0  0
  2  1  2  0  0  0  0
  3  4  2  0  0  0  0
  3  2  1  0  0  0  0
  4  5  1  0  0  0  0
  5  7  1  0  0  0  0
  5  6  2  0  0  0  0
  7  8  1  0  0  0  0
  7 12  1  0  0  0  0
  8 16  1  6  0  0  0
  8  9  1  0  0  0  0
  8 24  1  0  0  0  0
  9 18  1  0  0  0  0
  9 10  1  0  0  0  0
 10 11  1  0  0  0  0
 10 19  1  0  0  0  0
 11 21  1  0  0  0  0
 11 20  1  0  0  0  0
 12 23  1  0  0  0  0
 12 11  1  0  0  0  0
 14  2  1  0  0  0  0
 15  3  1  0  0  0  0
 17  9  1  0  0  0  0
 22 12  1  0  0  0  0
 24 25  2  0  0  0  0
 25 26  1  0  0  0  0
 25 29  1  0  0  0  0
 26 30  1  0  0  0  0
 27 31  1  0  0  0  0
 27 26  1  0  0  0  0
 28 24  1  0  0  0  0
 28 27  2  0  0  0  0
 31 32  2  0  0  0  0
 32 33  1  0  0  0  0
 34 32  1  0  0  0  0
 35 34  2  0  0  0  0
 36 35  1  0  0  0  0
 36 31  1  0  0  0  0
M  END
>  <minimizedAffinity>
-5.3947711

$$$$

 OpenBabel03242520433D

 36 39  0  0  1  0  0  0  0  0999 V2000
   38.5700   27.2790   41.0670 C   0  0  0  0  0  0  0  0  0  0  0  0
   37.7780   27.1040   42.2290 C   0  0  0  0  0  0  0  0  0  0  0  0
   36.8890   28.1580   42.5960 C   0  0  0  0  0  0  0  0  0  0  0  0
   36.8440   29.2800   41.8130 N   0  0  0  0  0  0  0  0  0  0  0  0
   37.6230   29.3900   40.7200 C   0  0  0  0  0  0  0  0  0  0  0  0
   38.4720   28.3980   40.3570 N   0  0  0  0  0  0  0  0  0  0  0  0
   37.5070   30.5780   39.9850 N   0  0  0  0  0  0  0  0  0  0  0  0
   37.7860   31.8410   40.5850 C   0  0  2  0  0  0  0  0  0  0  0  0
   37.3790   33.0220   39.7740 C   0  0  0  0  0  0  0  0  0  0  0  0
   37.3830   32.8740   38.3690 N   0  0  0  0  0  0  0  0  0  0  0  0
   37.8740   31.6240   37.9080 C   0  0  0  0  0  0  0  0  0  0  0  0
   37.1000   30.5250   38.5930 C   0  0  0  0  0  0  0  0  0  0  0  0
   39.2210   26.4490   40.8430 H   0  0  0  0  0  0  0  0  0  0  0  0
   37.7880   26.2310   42.8680 H   0  0  0  0  0  0  0  0  0  0  0  0
   36.2640   28.0820   43.4650 H   0  0  0  0  0  0  0  0  0  0  0  0
   37.1130   31.8930   41.4970 H   0  0  0  0  0  0  0  0  0  0  0  0
   36.3890   33.4280   40.0640 H   0  0  0  0  0  0  0  0  0  0  0  0
   38.1050   33.8510   40.0210 H   0  0  0  0  0  0  0  0  0  0  0  0
   37.6830   33.7060   37.8280 H   0  0  0  0  0  0  0  0  0  0  0  0
   38.9560   31.4840   37.9290 H   0  0  0  0  0  0  0  0  0  0  0  0
   37.5920   31.5510   36.8140 H   0  0  0  0  0  0  0  0  0  0  0  0
   36.0220   30.7700   38.4680 H   0  0  0  0  0  0  0  0  0  0  0  0
   37.3550   29.5170   38.2000 H   0  0  0  0  0  0  0  0  0  0  0  0
   39.1850   31.9290   41.0740 C   0  0  0  0  0  0  0  0  0  0  0  0
   39.8230   31.3990   42.1740 C   0  0  0  0  0  0  0  0  0  0  0  0
   41.1230   31.7510   42.1910 N   0  0  0  0  0  0  0  0  0  0  0  0
   41.3000   32.4900   41.1160 C   0  0  0  0  0  0  0  0  0  0  0  0
   40.1600   32.6060   40.4420 N   0  0  0  0  0  0  0  0  0  0  0  0
   39.3370   30.7890   42.9190 H   0  0  0  0  0  0  0  0  0  0  0  0
   41.8190   31.4770   42.9180 H   0  0  0  0  0  0  0  0  0  0  0  0
   42.6040   33.0590   40.7930 C   0  0  0  0  0  0  0  0  0  0  0  0
   43.2680   33.3050   39.6600 C   0  0  0  0  0  0  0  0  0  0  0  0
   42.7590   33.0340   38.7490 H   0  0  0  0  0  0  0  0  0  0  0  0
   44.5130   33.8670   39.7600 C   0  0  0  0  0  3  0  0  0  0  0  0
   45.0340   34.1580   40.9950 C   0  0  0  0  0  3  0  0  0  0  0  0
   43.7310   33.6300   42.1850 S   0  0  0  0  0  0  0  0  0  0  0  0
  1  2  1  0  0  0  0
  2  3  2  0  0  0  0
  2 14  1  0  0  0  0
  3 15  1  0  0  0  0
  4  3  1  0  0  0  0
  5  4  2  0  0  0  0
  6  5  1  0  0  0  0
  6  1  2  0  0  0  0
  7  8  1  0  0  0  0
  7  5  1  0  0  0  0
  8 24  1  0  0  0  0
  8 16  1  1  0  0  0
  9 18  1  0  0  0  0
  9 17  1  0  0  0  0
  9  8  1  0  0  0  0
 10  9  1  0  0  0  0
 11 20  1  0  0  0  0
 11 10  1  0  0  0  0
 11 12  1  0  0  0  0
 12  7  1  0  0  0  0
 13  1  1  0  0  0  0
 19 10  1  0  0  0  0
 21 11  1  0  0  0  0
 22 12  1  0  0  0  0
 23 12  1  0  0  0  0
 24 25  2  0  0  0  0
 25 26  1  0  0  0  0
 25 29  1  0  0  0  0
 26 30  1  0  0  0  0
 27 26  1  0  0  0  0
 28 24  1  0  0  0  0
 28 27  2  0  0  0  0
 31 27  1  0  0  0  0
 31 36  1  0  0  0  0
 32 34  1  0  0  0  0
 32 31  2  0  0  0  0
 33 32  1  0  0  0  0
 34 35  2  0  0  0  0
 35 36  1  0  0  0  0
M  END
>  <minimizedAffinity>
-5.34946537

$$$$

 OpenBabel03242520433D

 36 39  0  0  1  0  0  0  0  0999 V2000
   36.7110   27.1560   37.3900 C   0  0  0  0  0  0  0  0  0  0  0  0
   35.3100   27.1100   37.1790 C   0  0  0  0  0  0  0  0  0  0  0  0
   34.5770   28.3280   37.3030 C   0  0  0  0  0  0  0  0  0  0  0  0
   35.2570   29.4740   37.6170 N   0  0  0  0  0  0  0  0  0  0  0  0
   36.5890   29.4550   37.8070 C   0  0  0  0  0  0  0  0  0  0  0  0
   37.3010   28.3070   37.6930 N   0  0  0  0  0  0  0  0  0  0  0  0
   37.1950   30.6780   38.1270 N   0  0  0  0  0  0  0  0  0  0  0  0
   36.8130   31.4000   39.2970 C   0  0  2  0  0  0  0  0  0  0  0  0
   37.3470   32.7880   39.3760 C   0  0  0  0  0  0  0  0  0  0  0  0
   38.5830   33.0430   38.7420 N   0  0  0  0  0  0  0  0  0  0  0  0
   39.2080   31.8970   38.1830 C   0  0  0  0  0  0  0  0  0  0  0  0
   38.2260   31.2190   37.2610 C   0  0  0  0  0  0  0  0  0  0  0  0
   37.2080   26.2060   37.2820 H   0  0  0  0  0  0  0  0  0  0  0  0
   34.7430   26.2240   36.9290 H   0  0  0  0  0  0  0  0  0  0  0  0
   33.5150   28.3560   37.1540 H   0  0  0  0  0  0  0  0  0  0  0  0
   35.6920   31.5450   39.2050 H   0  0  0  0  0  0  0  0  0  0  0  0
   36.6250   33.5520   39.0200 H   0  0  0  0  0  0  0  0  0  0  0  0
   37.4830   33.0210   40.4720 H   0  0  0  0  0  0  0  0  0  0  0  0
   39.2110   33.7100   39.2270 H   0  0  0  0  0  0  0  0  0  0  0  0
   39.7020   31.2190   38.8810 H   0  0  0  0  0  0  0  0  0  0  0  0
   40.0360   32.2770   37.5110 H   0  0  0  0  0  0  0  0  0  0  0  0
   37.8260   32.0080   36.5860 H   0  0  0  0  0  0  0  0  0  0  0  0
   38.6810   30.3740   36.7020 H   0  0  0  0  0  0  0  0  0  0  0  0
   37.0490   30.6180   40.5360 C   0  0  0  0  0  0  0  0  0  0  0  0
   36.3080   30.4470   41.6850 C   0  0  0  0  0  0  0  0  0  0  0  0
   36.9360   29.6220   42.5440 N   0  0  0  0  0  0  0  0  0  0  0  0
   38.0560   29.2780   41.9430 C   0  0  0  0  0  0  0  0  0  0  0  0
   38.1380   29.8600   40.7510 N   0  0  0  0  0  0  0  0  0  0  0  0
   35.3540   30.9190   41.8660 H   0  0  0  0  0  0  0  0  0  0  0  0
   36.5830   29.3340   43.4820 H   0  0  0  0  0  0  0  0  0  0  0  0
   39.0120   28.3770   42.5770 C   0  0  0  0  0  0  0  0  0  0  0  0
   38.9220   27.1960   43.1970 C   0  0  0  0  0  0  0  0  0  0  0  0
   37.9320   26.7760   43.2680 H   0  0  0  0  0  0  0  0  0  0  0  0
   40.0770   26.6400   43.6790 C   0  0  0  0  0  3  0  0  0  0  0  0
   41.2720   27.2950   43.5140 C   0  0  0  0  0  3  0  0  0  0  0  0
   40.8330   28.8410   42.6140 S   0  0  0  0  0  0  0  0  0  0  0  0
  1  6  1  0  0  0  0
  2  3  1  0  0  0  0
  2  1  2  0  0  0  0
  3  4  2  0  0  0  0
  4  5  1  0  0  0  0
  5  7  1  0  0  0  0
  6  5  2  0  0  0  0
  7  8  1  0  0  0  0
  8 16  1  6  0  0  0
  8  9  1  0  0  0  0
  8 24  1  0  0  0  0
  9 18  1  0  0  0  0
 10 19  1  0  0  0  0
 10  9  1  0  0  0  0
 11 10  1  0  0  0  0
 11 20  1  0  0  0  0
 12  7  1  0  0  0  0
 12 11  1  0  0  0  0
 13  1  1  0  0  0  0
 14  2  1  0  0  0  0
 15  3  1  0  0  0  0
 17  9  1  0  0  0  0
 21 11  1  0  0  0  0
 22 12  1  0  0  0  0
 23 12  1  0  0  0  0
 24 28  1  0  0  0  0
 24 25  2  0  0  0  0
 25 29  1  0  0  0  0
 25 26  1  0  0  0  0
 26 30  1  0  0  0  0
 27 26  1  0  0  0  0
 27 31  1  0  0  0  0
 28 27  2  0  0  0  0
 31 36  1  0  0  0  0
 31 32  2  0  0  0  0
 32 33  1  0  0  0  0
 32 34  1  0  0  0  0
 35 34  2  0  0  0  0
 36 35  1  0  0  0  0
M  END
>  <minimizedAffinity>
-5.34421206

$$$$

 OpenBabel03242520433D

 36 39  0  0  1  0  0  0  0  0999 V2000
   38.7700   25.2530   40.2550 C   0  0  0  0  0  0  0  0  0  0  0  0
   39.8820   25.1700   41.1300 C   0  0  0  0  0  0  0  0  0  0  0  0
   40.1340   26.2780   41.9940 C   0  0  0  0  0  0  0  0  0  0  0  0
   39.2970   27.3590   41.9370 N   0  0  0  0  0  0  0  0  0  0  0  0
   38.2560   27.3800   41.0830 C   0  0  0  0  0  0  0  0  0  0  0  0
   38.0010   26.3370   40.2550 N   0  0  0  0  0  0  0  0  0  0  0  0
   37.4570   28.5320   41.0960 N   0  0  0  0  0  0  0  0  0  0  0  0
   38.0130   29.8120   40.8020 C   0  0  2  0  0  0  0  0  0  0  0  0
   37.1190   30.9650   41.1010 C   0  0  0  0  0  0  0  0  0  0  0  0
   35.7260   30.7440   41.0090 N   0  0  0  0  0  0  0  0  0  0  0  0
   35.3620   29.4530   40.5450 C   0  0  0  0  0  0  0  0  0  0  0  0
   36.0450   28.4240   41.4110 C   0  0  0  0  0  0  0  0  0  0  0  0
   38.6320   24.3870   39.6290 H   0  0  0  0  0  0  0  0  0  0  0  0
   40.5620   24.3320   41.2020 H   0  0  0  0  0  0  0  0  0  0  0  0
   40.9610   26.2730   42.6780 H   0  0  0  0  0  0  0  0  0  0  0  0
   38.8720   29.9390   41.5320 H   0  0  0  0  0  0  0  0  0  0  0  0
   37.3200   31.4260   42.0900 H   0  0  0  0  0  0  0  0  0  0  0  0
   37.3750   31.7750   40.3570 H   0  0  0  0  0  0  0  0  0  0  0  0
   35.1670   31.5350   40.6380 H   0  0  0  0  0  0  0  0  0  0  0  0
   35.4650   29.2710   39.4740 H   0  0  0  0  0  0  0  0  0  0  0  0
   34.2560   29.3360   40.7560 H   0  0  0  0  0  0  0  0  0  0  0  0
   35.8330   28.7050   42.4660 H   0  0  0  0  0  0  0  0  0  0  0  0
   35.7190   27.3870   41.1760 H   0  0  0  0  0  0  0  0  0  0  0  0
   38.5920   29.8680   39.4360 C   0  0  0  0  0  0  0  0  0  0  0  0
   38.0220   29.9440   38.1850 C   0  0  0  0  0  0  0  0  0  0  0  0
   38.9680   29.9840   37.2270 N   0  0  0  0  0  0  0  0  0  0  0  0
   40.1170   29.9350   37.8680 C   0  0  0  0  0  0  0  0  0  0  0  0
   39.9120   29.8660   39.1800 N   0  0  0  0  0  0  0  0  0  0  0  0
   36.9580   29.9640   38.0050 H   0  0  0  0  0  0  0  0  0  0  0  0
   38.7940   30.0420   36.2010 H   0  0  0  0  0  0  0  0  0  0  0  0
   41.3870   29.9590   37.1510 C   0  0  0  0  0  0  0  0  0  0  0  0
   42.0890   29.0630   36.4510 C   0  0  0  0  0  0  0  0  0  0  0  0
   41.6520   28.0800   36.3740 H   0  0  0  0  0  0  0  0  0  0  0  0
   43.2780   29.4680   35.9080 C   0  0  0  0  0  3  0  0  0  0  0  0
   43.7090   30.7580   36.0910 C   0  0  0  0  0  3  0  0  0  0  0  0
   42.3910   31.5480   37.1060 S   0  0  0  0  0  0  0  0  0  0  0  0
  1  2  1  0  0  0  0
  2 14  1  0  0  0  0
  2  3  2  0  0  0  0
  3 15  1  0  0  0  0
  4  3  1  0  0  0  0
  5  7  1  0  0  0  0
  5  4  2  0  0  0  0
  6  1  2  0  0  0  0
  6  5  1  0  0  0  0
  7 12  1  0  0  0  0
  8  7  1  0  0  0  0
  8  9  1  0  0  0  0
  8 16  1  1  0  0  0
  9 17  1  0  0  0  0
 10  9  1  0  0  0  0
 11 21  1  0  0  0  0
 11 10  1  0  0  0  0
 11 12  1  0  0  0  0
 12 22  1  0  0  0  0
 13  1  1  0  0  0  0
 18  9  1  0  0  0  0
 19 10  1  0  0  0  0
 20 11  1  0  0  0  0
 23 12  1  0  0  0  0
 24  8  1  0  0  0  0
 25 24  2  0  0  0  0
 26 27  1  0  0  0  0
 26 25  1  0  0  0  0
 27 28  2  0  0  0  0
 28 24  1  0  0  0  0
 29 25  1  0  0  0  0
 30 26  1  0  0  0  0
 31 27  1  0  0  0  0
 32 31  2  0  0  0  0
 33 32  1  0  0  0  0
 34 35  2  0  0  0  0
 34 32  1  0  0  0  0
 35 36  1  0  0  0  0
 36 31  1  0  0  0  0
M  END
>  <minimizedAffinity>
-5.30727196

$$$$

 OpenBabel03242520433D

 36 39  0  0  1  0  0  0  0  0999 V2000
   37.1320   27.1450   41.4340 C   0  0  0  0  0  0  0  0  0  0  0  0
   37.3180   26.8990   42.8180 C   0  0  0  0  0  0  0  0  0  0  0  0
   37.6360   28.0100   43.6550 C   0  0  0  0  0  0  0  0  0  0  0  0
   37.7450   29.2500   43.0870 N   0  0  0  0  0  0  0  0  0  0  0  0
   37.5570   29.4220   41.7650 C   0  0  0  0  0  0  0  0  0  0  0  0
   37.2550   28.3780   40.9550 N   0  0  0  0  0  0  0  0  0  0  0  0
   37.6920   30.7290   41.2770 N   0  0  0  0  0  0  0  0  0  0  0  0
   38.9190   31.4420   41.4230 C   0  0  2  0  0  0  0  0  0  0  0  0
   38.8410   32.8920   41.0920 C   0  0  0  0  0  0  0  0  0  0  0  0
   37.8880   33.2860   40.1270 N   0  0  0  0  0  0  0  0  0  0  0  0
   37.1830   32.2130   39.5210 C   0  0  0  0  0  0  0  0  0  0  0  0
   36.5720   31.3670   40.6110 C   0  0  0  0  0  0  0  0  0  0  0  0
   36.8950   26.2680   40.8550 H   0  0  0  0  0  0  0  0  0  0  0  0
   37.2380   25.9340   43.2990 H   0  0  0  0  0  0  0  0  0  0  0  0
   37.7880   27.8860   44.7100 H   0  0  0  0  0  0  0  0  0  0  0  0
   39.1410   31.4290   42.5350 H   0  0  0  0  0  0  0  0  0  0  0  0
   38.6970   33.5340   41.9850 H   0  0  0  0  0  0  0  0  0  0  0  0
   39.8560   33.1890   40.6950 H   0  0  0  0  0  0  0  0  0  0  0  0
   38.1780   34.0530   39.4920 H   0  0  0  0  0  0  0  0  0  0  0  0
   37.7190   31.6390   38.7630 H   0  0  0  0  0  0  0  0  0  0  0  0
   36.3060   32.6730   38.9730 H   0  0  0  0  0  0  0  0  0  0  0  0
   36.0310   32.0640   41.2890 H   0  0  0  0  0  0  0  0  0  0  0  0
   35.9110   30.5690   40.2100 H   0  0  0  0  0  0  0  0  0  0  0  0
   40.0480   30.7550   40.7470 C   0  0  0  0  0  0  0  0  0  0  0  0
   40.9800   29.8400   41.1870 C   0  0  0  0  0  0  0  0  0  0  0  0
   41.8150   29.4880   40.1900 N   0  0  0  0  0  0  0  0  0  0  0  0
   41.4120   30.1700   39.1390 C   0  0  0  0  0  0  0  0  0  0  0  0
   40.3650   30.9260   39.4520 N   0  0  0  0  0  0  0  0  0  0  0  0
   41.0290   29.4660   42.1970 H   0  0  0  0  0  0  0  0  0  0  0  0
   42.6050   28.8120   40.2680 H   0  0  0  0  0  0  0  0  0  0  0  0
   42.0860   30.0460   37.8510 C   0  0  0  0  0  0  0  0  0  0  0  0
   42.0190   29.1820   36.8340 C   0  0  0  0  0  0  0  0  0  0  0  0
   41.3170   28.3710   36.9510 H   0  0  0  0  0  0  0  0  0  0  0  0
   42.8360   29.4010   35.7570 C   0  0  0  0  0  3  0  0  0  0  0  0
   43.6820   30.4800   35.7490 C   0  0  0  0  0  3  0  0  0  0  0  0
   43.3760   31.3220   37.3590 S   0  0  0  0  0  0  0  0  0  0  0  0
  1  2  1  0  0  0  0
  2 14  1  0  0  0  0
  2  3  2  0  0  0  0
  3 15  1  0  0  0  0
  4  3  1  0  0  0  0
  5  4  2  0  0  0  0
  6  1  2  0  0  0  0
  6  5  1  0  0  0  0
  7  8  1  0  0  0  0
  7  5  1  0  0  0  0
  8 16  1  1  0  0  0
  9  8  1  0  0  0  0
  9 17  1  0  0  0  0
 10  9  1  0  0  0  0
 11 10  1  0  0  0  0
 11 12  1  0  0  0  0
 12  7  1  0  0  0  0
 12 22  1  0  0  0  0
 13  1  1  0  0  0  0
 18  9  1  0  0  0  0
 19 10  1  0  0  0  0
 20 11  1  0  0  0  0
 21 11  1  0  0  0  0
 23 12  1  0  0  0  0
 24 25  2  0  0  0  0
 24  8  1  0  0  0  0
 25 29  1  0  0  0  0
 26 30  1  0  0  0  0
 26 25  1  0  0  0  0
 27 28  2  0  0  0  0
 27 26  1  0  0  0  0
 28 24  1  0  0  0  0
 31 27  1  0  0  0  0
 32 33  1  0  0  0  0
 32 31  2  0  0  0  0
 34 32  1  0  0  0  0
 35 34  2  0  0  0  0
 35 36  1  0  0  0  0
 36 31  1  0  0  0  0
M  END
>  <minimizedAffinity>
-5.27221298

$$$$

 OpenBabel03242520433D

 36 39  0  0  1  0  0  0  0  0999 V2000
   37.6490   27.7340   38.3250 C   0  0  0  0  0  0  0  0  0  0  0  0
   38.4040   26.8100   39.0890 C   0  0  0  0  0  0  0  0  0  0  0  0
   39.1240   27.3070   40.2160 C   0  0  0  0  0  0  0  0  0  0  0  0
   39.0510   28.6440   40.5030 N   0  0  0  0  0  0  0  0  0  0  0  0
   38.3170   29.4740   39.7390 C   0  0  0  0  0  0  0  0  0  0  0  0
   37.6270   29.0190   38.6640 N   0  0  0  0  0  0  0  0  0  0  0  0
   38.3070   30.8260   40.1110 N   0  0  0  0  0  0  0  0  0  0  0  0
   39.5170   31.5800   40.1630 C   0  0  2  0  0  0  0  0  0  0  0  0
   39.3940   32.9140   40.8140 C   0  0  0  0  0  0  0  0  0  0  0  0
   38.1420   33.5620   40.7290 N   0  0  0  0  0  0  0  0  0  0  0  0
   37.1770   32.8840   39.9380 C   0  0  0  0  0  0  0  0  0  0  0  0
   37.0510   31.4700   40.4480 C   0  0  0  0  0  0  0  0  0  0  0  0
   37.1290   27.2990   37.4870 H   0  0  0  0  0  0  0  0  0  0  0  0
   38.4820   25.7500   38.8920 H   0  0  0  0  0  0  0  0  0  0  0  0
   39.7120   26.6560   40.8330 H   0  0  0  0  0  0  0  0  0  0  0  0
   40.2000   31.0010   40.8590 H   0  0  0  0  0  0  0  0  0  0  0  0
   39.6930   32.9050   41.8820 H   0  0  0  0  0  0  0  0  0  0  0  0
   40.1500   33.5880   40.3170 H   0  0  0  0  0  0  0  0  0  0  0  0
   38.1730   34.5940   40.6200 H   0  0  0  0  0  0  0  0  0  0  0  0
   37.2930   32.9560   38.8550 H   0  0  0  0  0  0  0  0  0  0  0  0
   36.1800   33.3710   40.1580 H   0  0  0  0  0  0  0  0  0  0  0  0
   36.9050   31.5400   41.5480 H   0  0  0  0  0  0  0  0  0  0  0  0
   36.2340   30.9080   39.9460 H   0  0  0  0  0  0  0  0  0  0  0  0
   40.1930   31.6410   38.8430 C   0  0  0  0  0  0  0  0  0  0  0  0
   39.7880   32.1000   37.6090 C   0  0  0  0  0  0  0  0  0  0  0  0
   40.7680   31.9570   36.6970 N   0  0  0  0  0  0  0  0  0  0  0  0
   41.7760   31.4170   37.3490 C   0  0  0  0  0  0  0  0  0  0  0  0
   41.4510   31.2230   38.6240 N   0  0  0  0  0  0  0  0  0  0  0  0
   38.8110   32.5140   37.4080 H   0  0  0  0  0  0  0  0  0  0  0  0
   40.7100   32.2280   35.6920 H   0  0  0  0  0  0  0  0  0  0  0  0
   43.0350   31.1100   36.6800 C   0  0  0  0  0  0  0  0  0  0  0  0
   43.4030   30.2720   35.7060 C   0  0  0  0  0  0  0  0  0  0  0  0
   42.6170   29.6610   35.2900 H   0  0  0  0  0  0  0  0  0  0  0  0
   44.7200   30.2650   35.3340 C   0  0  0  0  0  3  0  0  0  0  0  0
   45.6110   31.1030   35.9570 C   0  0  0  0  0  3  0  0  0  0  0  0
   44.5980   32.0200   37.1930 S   0  0  0  0  0  0  0  0  0  0  0  0
  1  6  2  0  0  0  0
  1  2  1  0  0  0  0
  2  3  2  0  0  0  0
  3  4  1  0  0  0  0
  3 15  1  0  0  0  0
  5  7  1  0  0  0  0
  5  4  2  0  0  0  0
  6  5  1  0  0  0  0
  7  8  1  0  0  0  0
  7 12  1  0  0  0  0
  8  9  1  0  0  0  0
  8 16  1  1  0  0  0
  9 17  1  0  0  0  0
 10  9  1  0  0  0  0
 11 21  1  0  0  0  0
 11 12  1  0  0  0  0
 11 10  1  0  0  0  0
 12 22  1  0  0  0  0
 13  1  1  0  0  0  0
 14  2  1  0  0  0  0
 18  9  1  0  0  0  0
 19 10  1  0  0  0  0
 20 11  1  0  0  0  0
 23 12  1  0  0  0  0
 24  8  1  0  0  0  0
 25 24  2  0  0  0  0
 26 27  1  0  0  0  0
 26 25  1  0  0  0  0
 27 28  2  0  0  0  0
 28 24  1  0  0  0  0
 29 25  1  0  0  0  0
 30 26  1  0  0  0  0
 31 36  1  0  0  0  0
 31 27  1  0  0  0  0
 32 31  2  0  0  0  0
 33 32  1  0  0  0  0
 34 32  1  0  0  0  0
 34 35  2  0  0  0  0
 35 36  1  0  0  0  0
M  END
>  <minimizedAffinity>
-5.23956108

$$$$

 OpenBabel03242520433D

 36 39  0  0  1  0  0  0  0  0999 V2000
   39.1980   28.1310   36.5810 C   0  0  0  0  0  0  0  0  0  0  0  0
   37.9880   27.9320   35.8700 C   0  0  0  0  0  0  0  0  0  0  0  0
   36.9270   28.8620   36.0870 C   0  0  0  0  0  0  0  0  0  0  0  0
   37.1280   29.8940   36.9640 N   0  0  0  0  0  0  0  0  0  0  0  0
   38.3000   30.0300   37.6110 C   0  0  0  0  0  0  0  0  0  0  0  0
   39.3190   29.1560   37.4170 N   0  0  0  0  0  0  0  0  0  0  0  0
   38.4090   31.1160   38.4910 N   0  0  0  0  0  0  0  0  0  0  0  0
   37.5240   31.2510   39.6010 C   0  0  2  0  0  0  0  0  0  0  0  0
   37.5850   32.5680   40.2930 C   0  0  0  0  0  0  0  0  0  0  0  0
   38.8190   33.2560   40.2650 N   0  0  0  0  0  0  0  0  0  0  0  0
   39.8810   32.5420   39.6500 C   0  0  0  0  0  0  0  0  0  0  0  0
   39.4350   32.1190   38.2720 C   0  0  0  0  0  0  0  0  0  0  0  0
   39.9600   27.3970   36.3750 H   0  0  0  0  0  0  0  0  0  0  0  0
   37.7970   27.1300   35.1700 H   0  0  0  0  0  0  0  0  0  0  0  0
   35.9880   28.7640   35.5770 H   0  0  0  0  0  0  0  0  0  0  0  0
   36.4810   31.2270   39.1560 H   0  0  0  0  0  0  0  0  0  0  0  0
   36.8010   33.2750   39.9520 H   0  0  0  0  0  0  0  0  0  0  0  0
   37.3380   32.3770   41.3780 H   0  0  0  0  0  0  0  0  0  0  0  0
   39.0640   33.7790   41.1270 H   0  0  0  0  0  0  0  0  0  0  0  0
   40.3360   31.7410   40.2350 H   0  0  0  0  0  0  0  0  0  0  0  0
   40.7140   33.2890   39.4790 H   0  0  0  0  0  0  0  0  0  0  0  0
   39.0270   33.0270   37.7770 H   0  0  0  0  0  0  0  0  0  0  0  0
   40.2540   31.6480   37.6870 H   0  0  0  0  0  0  0  0  0  0  0  0
   37.6230   30.1020   40.5350 C   0  0  0  0  0  0  0  0  0  0  0  0
   38.0680   29.9930   41.8350 C   0  0  0  0  0  0  0  0  0  0  0  0
   37.9520   28.7260   42.2780 N   0  0  0  0  0  0  0  0  0  0  0  0
   37.4410   28.0490   41.2720 C   0  0  0  0  0  0  0  0  0  0  0  0
   37.2400   28.8500   40.2300 N   0  0  0  0  0  0  0  0  0  0  0  0
   38.4590   30.8170   42.4110 H   0  0  0  0  0  0  0  0  0  0  0  0
   38.2210   28.3860   43.2260 H   0  0  0  0  0  0  0  0  0  0  0  0
   37.1680   26.6200   41.3800 C   0  0  0  0  0  0  0  0  0  0  0  0
   37.1350   25.7430   42.3870 C   0  0  0  0  0  0  0  0  0  0  0  0
   37.3550   26.1410   43.3650 H   0  0  0  0  0  0  0  0  0  0  0  0
   36.8310   24.4410   42.0890 C   0  0  0  0  0  3  0  0  0  0  0  0
   36.5730   24.0800   40.7910 C   0  0  0  0  0  3  0  0  0  0  0  0
   36.7510   25.6410   39.8300 S   0  0  0  0  0  0  0  0  0  0  0  0
  1  6  1  0  0  0  0
  2  3  1  0  0  0  0
  2  1  2  0  0  0  0
  3  4  2  0  0  0  0
  4  5  1  0  0  0  0
  5  7  1  0  0  0  0
  6  5  2  0  0  0  0
  7  8  1  0  0  0  0
  8 16  1  6  0  0  0
  8  9  1  0  0  0  0
  8 24  1  0  0  0  0
  9 18  1  0  0  0  0
 10  9  1  0  0  0  0
 10 19  1  0  0  0  0
 11 20  1  0  0  0  0
 11 10  1  0  0  0  0
 12  7  1  0  0  0  0
 12 11  1  0  0  0  0
 13  1  1  0  0  0  0
 14  2  1  0  0  0  0
 15  3  1  0  0  0  0
 17  9  1  0  0  0  0
 21 11  1  0  0  0  0
 22 12  1  0  0  0  0
 23 12  1  0  0  0  0
 24 25  2  0  0  0  0
 25 26  1  0  0  0  0
 25 29  1  0  0  0  0
 26 30  1  0  0  0  0
 27 31  1  0  0  0  0
 27 26  1  0  0  0  0
 28 24  1  0  0  0  0
 28 27  2  0  0  0  0
 31 32  2  0  0  0  0
 32 33  1  0  0  0  0
 34 32  1  0  0  0  0
 35 34  2  0  0  0  0
 36 35  1  0  0  0  0
 36 31  1  0  0  0  0
M  END
>  <minimizedAffinity>
-5.21152592

$$$$
