
 OpenBabel03242511473D

 41 43  0  0  0  0  0  0  0  0999 V2000
   45.9000   32.3310   44.5370 C   0  0  0  0  0  0  0  0  0  0  0  0
   45.1150   31.5530   44.6300 H   0  0  0  0  0  0  0  0  0  0  0  0
   46.5280   32.0070   43.6820 H   0  0  0  0  0  0  0  0  0  0  0  0
   44.6520   35.7640   44.7560 C   0  0  0  0  0  0  0  0  0  0  0  0
   44.1200   35.9820   43.4650 C   0  0  0  0  0  0  0  0  0  0  0  0
   44.2160   34.9390   42.5770 C   0  0  0  0  0  0  0  0  0  0  0  0
   44.7920   33.7780   42.9500 N   0  0  0  0  0  0  0  0  0  0  0  0
   45.2830   33.6290   44.2030 C   0  0  0  0  0  0  0  0  0  0  0  0
   45.2220   34.5870   45.0920 N   0  0  0  0  0  0  0  0  0  0  0  0
   44.5930   36.5690   45.4850 H   0  0  0  0  0  0  0  0  0  0  0  0
   43.6850   36.9540   43.2920 H   0  0  0  0  0  0  0  0  0  0  0  0
   43.6540   35.1770   41.2210 C   0  0  0  0  0  0  0  0  0  0  0  0
   44.2270   35.9450   40.6930 H   0  0  0  0  0  0  0  0  0  0  0  0
   43.7200   34.2560   40.5970 H   0  0  0  0  0  0  0  0  0  0  0  0
   42.1900   35.5670   41.2800 C   0  0  0  0  0  0  0  0  0  0  0  0
   41.6910   35.0890   42.1490 H   0  0  0  0  0  0  0  0  0  0  0  0
   42.0710   36.6680   41.3200 H   0  0  0  0  0  0  0  0  0  0  0  0
   41.5440   35.0340   40.0610 C   0  0  0  0  0  0  0  0  0  0  0  0
   40.9030   35.5960   39.0370 C   0  0  0  0  0  0  0  0  0  0  0  0
   40.8190   36.6770   39.0760 H   0  0  0  0  0  0  0  0  0  0  0  0
   40.3890   34.8630   38.0130 C   0  0  0  0  0  0  0  0  0  0  0  0
   40.5830   33.4590   38.1160 C   0  0  0  0  0  0  0  0  0  0  0  0
   41.5270   33.3110   39.7400 S   0  0  0  0  0  0  0  0  0  0  0  0
   46.7110   32.4890   45.7990 C   0  0  0  0  0  0  0  0  0  0  0  0
   47.7480   32.1520   45.6060 H   0  0  0  0  0  0  0  0  0  0  0  0
   46.8090   33.5750   46.0730 H   0  0  0  0  0  0  0  0  0  0  0  0
   46.1340   31.7760   46.9190 C   0  0  0  0  0  0  0  0  0  0  0  0
   45.3840   32.2820   47.9520 C   0  0  0  0  0  0  0  0  0  0  0  0
   44.8830   31.5190   48.9630 C   0  0  0  0  0  0  0  0  0  0  0  0
   45.1460   30.1620   48.9460 C   0  0  0  0  0  0  0  0  0  0  0  0
   45.8960   29.6500   47.9150 C   0  0  0  0  0  0  0  0  0  0  0  0
   46.3920   30.4420   46.9030 C   0  0  0  0  0  0  0  0  0  0  0  0
   45.2020   33.3530   47.9250 H   0  0  0  0  0  0  0  0  0  0  0  0
   44.3050   32.0010   49.7320 H   0  0  0  0  0  0  0  0  0  0  0  0
   44.7150   29.6120   49.7830 H   0  0  0  0  0  0  0  0  0  0  0  0
   46.0070   28.5680   48.0540 H   0  0  0  0  0  0  0  0  0  0  0  0
   48.4960   29.3540   46.3910 C   0  0  0  0  0  0  0  0  0  0  0  0
   49.3080   29.6880   47.3450 O   0  0  0  0  0  0  0  0  0  0  0  0
   47.1260   29.5940   46.0060 N   0  0  0  0  0  0  0  0  0  0  0  0
   49.1970   28.7340   45.8360 H   0  0  0  0  0  0  0  0  0  0  0  0
   46.9060   29.1060   45.1350 H   0  0  0  0  0  0  0  0  0  0  0  0
  1  2  1  0  0  0  0
  1 24  1  0  0  0  0
  3  1  1  0  0  0  0
  4  9  1  0  0  0  0
  4 10  1  0  0  0  0
  5  4  2  0  0  0  0
  6  7  2  0  0  0  0
  6  5  1  0  0  0  0
  7  8  1  0  0  0  0
  8  1  1  0  0  0  0
  8  9  2  0  0  0  0
 11  5  1  0  0  0  0
 12 15  1  0  0  0  0
 12  6  1  0  0  0  0
 13 12  1  0  0  0  0
 14 12  1  0  0  0  0
 15 17  1  0  0  0  0
 15 16  1  0  0  0  0
 18 15  1  0  0  0  0
 19 20  1  0  0  0  0
 19 18  2  0  0  0  0
 21 22  2  0  0  0  0
 21 19  1  0  0  0  0
 22 23  1  0  0  0  0
 23 18  1  0  0  0  0
 24 26  1  0  0  0  0
 24 27  1  0  0  0  0
 25 24  1  0  0  0  0
 27 28  1  0  0  0  0
 28 29  2  0  0  0  0
 29 34  1  0  0  0  0
 30 29  1  0  0  0  0
 30 35  1  0  0  0  0
 31 36  1  0  0  0  0
 31 30  2  0  0  0  0
 32 27  2  0  0  0  0
 32 31  1  0  0  0  0
 33 28  1  0  0  0  0
 37 38  2  0  0  0  0
 39 37  1  0  0  0  0
 39 32  1  0  0  0  0
 40 37  1  0  0  0  0
 41 39  1  0  0  0  0
M  END
>  <minimizedAffinity>
-5.61366749

>  <minimizedRMSD>
0.802728593

$$$$
