
 OpenBabel03242523533D

 42 45  0  0  1  0  0  0  0  0999 V2000
   42.7960   34.4500   38.8170 C   0  0  1  0  0  0  0  0  0  0  0  0
   42.9600   35.1860   40.1370 C   0  0  1  0  0  0  0  0  0  0  0  0
   41.6810   35.4850   40.6400 O   0  0  0  0  0  0  0  0  0  0  0  0
   40.7660   35.7970   39.6320 C   0  0  0  0  0  0  0  0  0  0  0  0
   40.4170   34.5820   38.7920 C   0  0  2  0  0  0  0  0  0  0  0  0
   41.6000   33.5690   38.9780 C   0  0  1  0  0  0  0  0  0  0  0  0
   43.7230   33.8740   38.5710 H   0  0  0  0  0  0  0  0  0  0  0  0
   43.5850   36.0870   40.0570 H   0  0  0  0  0  0  0  0  0  0  0  0
   39.8500   36.1190   40.1400 H   0  0  0  0  0  0  0  0  0  0  0  0
   41.1060   36.6480   39.0110 H   0  0  0  0  0  0  0  0  0  0  0  0
   39.4720   34.1160   39.1080 H   0  0  0  0  0  0  0  0  0  0  0  0
   41.3790   33.3580   40.0770 H   0  0  0  0  0  0  0  0  0  0  0  0
   42.6090   35.3510   37.7590 O   0  0  0  0  0  0  0  0  0  0  0  0
   43.4350   35.7990   37.5200 H   0  0  0  0  0  0  0  0  0  0  0  0
   40.4430   34.9250   37.4470 O   0  0  0  0  0  0  0  0  0  0  0  0
   39.5290   35.1460   37.1050 H   0  0  0  0  0  0  0  0  0  0  0  0
   43.4640   34.2310   41.0350 O   0  0  0  0  0  0  0  0  0  0  0  0
   44.5860   34.3680   41.7520 C   0  0  0  0  0  0  0  0  0  0  0  0
   45.8370   34.4600   41.1240 C   0  0  0  0  0  0  0  0  0  0  0  0
   46.9660   34.6020   41.9150 C   0  0  0  0  0  0  0  0  0  0  0  0
   46.8260   34.6480   43.2910 N   0  0  0  0  0  0  0  0  0  0  0  0
   45.6020   34.5560   43.8600 C   0  0  0  0  0  0  0  0  0  0  0  0
   44.4890   34.4160   43.0940 N   0  0  0  0  0  0  0  0  0  0  0  0
   45.9530   34.4250   40.0550 H   0  0  0  0  0  0  0  0  0  0  0  0
   45.5690   34.5990   44.9410 H   0  0  0  0  0  0  0  0  0  0  0  0
   48.3340   34.6910   41.3220 C   0  0  0  0  0  0  0  0  0  0  0  0
   49.0730   36.0180   41.5010 C   0  0  0  0  0  0  0  0  0  0  0  0
   49.5010   34.6860   42.1470 C   0  0  0  0  0  0  0  0  0  0  0  0
   48.3760   34.3100   40.2630 H   0  0  0  0  0  0  0  0  0  0  0  0
   48.6460   36.7480   42.1890 H   0  0  0  0  0  0  0  0  0  0  0  0
   49.7460   36.3430   40.6850 H   0  0  0  0  0  0  0  0  0  0  0  0
   50.4450   34.2180   41.8010 H   0  0  0  0  0  0  0  0  0  0  0  0
   49.3730   34.6140   43.2540 H   0  0  0  0  0  0  0  0  0  0  0  0
   41.4310   32.5800   38.0790 O   0  0  0  0  0  0  0  0  0  0  0  0
   40.6750   31.4850   38.1260 C   0  0  0  0  0  0  0  0  0  0  0  0
   39.6500   31.2800   37.3160 O   0  0  0  0  0  0  0  0  0  0  0  0
   40.7040   30.1820   39.0300 C   0  0  0  0  0  0  0  0  0  0  0  0
   39.8020   29.3300   39.3680 C   0  0  0  0  0  0  0  0  0  0  0  0
   38.8190   29.5210   38.9520 H   0  0  0  0  0  0  0  0  0  0  0  0
   40.1200   28.2900   40.1830 C   0  0  0  0  0  3  0  0  0  0  0  0
   41.4500   28.2240   40.6100 C   0  0  0  0  0  3  0  0  0  0  0  0
   42.2010   29.7710   39.7470 S   0  0  0  0  0  0  0  0  0  0  0  0
  1  7  1  6  0  0  0
  1  6  1  0  0  0  0
  1  2  1  0  0  0  0
  2  8  1  6  0  0  0
  2  3  1  0  0  0  0
  2 17  1  0  0  0  0
  4  9  1  0  0  0  0
  4  3  1  0  0  0  0
  5  6  1  0  0  0  0
  5 11  1  1  0  0  0
  5  4  1  0  0  0  0
  6 12  1  1  0  0  0
 10  4  1  0  0  0  0
 13  1  1  0  0  0  0
 14 13  1  0  0  0  0
 15  5  1  0  0  0  0
 16 15  1  0  0  0  0
 17 18  1  0  0  0  0
 18 23  1  0  0  0  0
 19 18  2  0  0  0  0
 19 20  1  0  0  0  0
 20 21  2  0  0  0  0
 21 22  1  0  0  0  0
 22 25  1  0  0  0  0
 23 22  2  0  0  0  0
 24 19  1  0  0  0  0
 26 27  1  0  0  0  0
 26 20  1  0  0  0  0
 26 28  1  0  0  0  0
 27 28  1  0  0  0  0
 27 30  1  0  0  0  0
 28 33  1  0  0  0  0
 29 26  1  0  0  0  0
 31 27  1  0  0  0  0
 32 28  1  0  0  0  0
 34 35  1  0  0  0  0
 34  6  1  0  0  0  0
 35 37  1  0  0  0  0
 36 35  2  0  0  0  0
 37 38  2  0  0  0  0
 37 42  1  0  0  0  0
 38 40  1  0  0  0  0
 39 38  1  0  0  0  0
 40 41  2  0  0  0  0
 42 41  1  0  0  0  0
M  END
>  <minimizedAffinity>
-5.69867325

>  <minimizedRMSD>
0.687173486

$$$$
