
 OpenBabel03252504533D

 18 19  0  0  0  0  0  0  0  0999 V2000
   44.4600   35.8750   44.7070 C   0  0  0  0  0  0  0  0  0  0  0  0
   44.3540   35.5530   43.3430 C   0  0  0  0  0  0  0  0  0  0  0  0
   44.7950   34.2920   42.9620 C   0  0  0  0  0  0  0  0  0  0  0  0
   45.3010   33.4430   43.9180 N   0  0  0  0  0  0  0  0  0  0  0  0
   45.3790   33.8100   45.2150 C   0  0  0  0  0  0  0  0  0  0  0  0
   44.9600   35.0200   45.6050 N   0  0  0  0  0  0  0  0  0  0  0  0
   44.1060   36.8710   44.9740 H   0  0  0  0  0  0  0  0  0  0  0  0
   43.9560   36.2320   42.6260 H   0  0  0  0  0  0  0  0  0  0  0  0
   45.7780   33.1390   45.9640 H   0  0  0  0  0  0  0  0  0  0  0  0
   44.6850   33.9530   41.5400 C   0  0  0  0  0  0  0  0  0  0  0  0
   44.3580   32.9000   41.3910 H   0  0  0  0  0  0  0  0  0  0  0  0
   43.9730   34.6360   41.0410 H   0  0  0  0  0  0  0  0  0  0  0  0
   46.0150   34.0790   40.8980 C   0  0  0  0  0  0  0  0  0  0  0  0
   47.1120   34.7890   41.2730 C   0  0  0  0  0  0  0  0  0  0  0  0
   47.0540   35.3740   42.1800 H   0  0  0  0  0  0  0  0  0  0  0  0
   48.2270   34.7170   40.4720 C   0  0  0  0  0  3  0  0  0  0  0  0
   48.1950   33.9520   39.3510 C   0  0  0  0  0  3  0  0  0  0  0  0
   46.4830   33.2570   39.3820 S   0  0  0  0  0  0  0  0  0  0  0  0
  1  7  1  0  0  0  0
  1  6  1  0  0  0  0
  2  1  2  0  0  0  0
  3  2  1  0  0  0  0
  3  4  2  0  0  0  0
  4  5  1  0  0  0  0
  5  6  2  0  0  0  0
  5  9  1  0  0  0  0
  8  2  1  0  0  0  0
 10  3  1  0  0  0  0
 11 10  1  0  0  0  0
 12 10  1  0  0  0  0
 13 14  2  0  0  0  0
 13 10  1  0  0  0  0
 14 15  1  0  0  0  0
 16 14  1  0  0  0  0
 17 18  1  0  0  0  0
 17 16  2  0  0  0  0
 18 13  1  0  0  0  0
M  END
>  <minimizedAffinity>
-3.77620816

>  <minimizedRMSD>
2.5518024

$$$$
