
 OpenBabel03252508463D

 42 44  0  0  0  0  0  0  0  0999 V2000
   42.9760   32.4430   41.6790 C   0  0  0  0  0  0  0  0  0  0  0  0
   42.0380   32.8840   41.2930 H   0  0  0  0  0  0  0  0  0  0  0  0
   43.5200   32.0350   40.7780 H   0  0  0  0  0  0  0  0  0  0  0  0
   43.6340   34.8500   41.8890 C   0  0  0  0  0  0  0  0  0  0  0  0
   43.8600   33.5240   42.2050 C   0  0  0  0  0  0  0  0  0  0  0  0
   44.9280   33.2130   43.0220 C   0  0  0  0  0  0  0  0  0  0  0  0
   45.7340   34.2120   43.5010 C   0  0  0  0  0  0  0  0  0  0  0  0
   45.5290   35.5400   43.1990 C   0  0  0  0  0  0  0  0  0  0  0  0
   44.4460   35.8010   42.3770 C   0  0  0  0  0  0  0  0  0  0  0  0
   45.1530   32.1940   43.3040 H   0  0  0  0  0  0  0  0  0  0  0  0
   46.5750   33.9740   44.1440 H   0  0  0  0  0  0  0  0  0  0  0  0
   46.1110   36.3660   43.5340 H   0  0  0  0  0  0  0  0  0  0  0  0
   44.2070   36.8160   42.0860 H   0  0  0  0  0  0  0  0  0  0  0  0
   40.1870   35.6820   40.5580 C   0  0  0  0  0  0  0  0  0  0  0  0
   41.2210   35.4490   41.4820 C   0  0  0  0  0  0  0  0  0  0  0  0
   42.4870   35.1130   41.0180 C   0  0  0  0  0  0  0  0  0  0  0  0
   42.6580   35.0270   39.6710 N   0  0  0  0  0  0  0  0  0  0  0  0
   41.6530   35.2530   38.7950 C   0  0  0  0  0  0  0  0  0  0  0  0
   40.4200   35.5810   39.2490 N   0  0  0  0  0  0  0  0  0  0  0  0
   39.2220   35.9390   40.9340 H   0  0  0  0  0  0  0  0  0  0  0  0
   41.0840   35.5190   42.5510 H   0  0  0  0  0  0  0  0  0  0  0  0
   41.9290   35.1490   37.7600 H   0  0  0  0  0  0  0  0  0  0  0  0
   42.6910   31.3920   42.5990 N   0  0  0  0  0  0  0  0  0  0  0  0
   43.0550   31.5260   43.5590 H   0  0  0  0  0  0  0  0  0  0  0  0
   41.0330   31.0010   42.6540 S   0  0  0  0  0  0  0  0  0  0  0  0
   40.1720   32.2260   42.4470 O   0  0  0  0  0  0  0  0  0  0  0  0
   39.8690   32.7320   43.2610 H   0  0  0  0  0  0  0  0  0  0  0  0
   40.6700   30.3500   43.9460 O   0  0  0  0  0  0  0  0  0  0  0  0
   39.8400   30.4780   44.4660 H   0  0  0  0  0  0  0  0  0  0  0  0
   40.7110   29.9310   41.3980 O   0  0  0  0  0  0  0  0  0  0  0  0
   39.4350   29.4250   41.5740 C   0  0  0  0  0  0  0  0  0  0  0  0
   38.8670   29.6420   40.6670 H   0  0  0  0  0  0  0  0  0  0  0  0
   38.8900   29.8170   42.4430 H   0  0  0  0  0  0  0  0  0  0  0  0
   39.4960   27.9200   41.7790 C   0  0  0  0  0  0  0  0  0  0  0  0
   39.6350   27.6650   42.8510 H   0  0  0  0  0  0  0  0  0  0  0  0
   40.3140   27.5070   41.1460 H   0  0  0  0  0  0  0  0  0  0  0  0
   38.2530   27.2740   41.2460 C   0  0  0  0  0  0  0  0  0  0  0  0
   37.1380   27.9180   40.6350 C   0  0  0  0  0  0  0  0  0  0  0  0
   37.1700   28.9860   40.5360 H   0  0  0  0  0  0  0  0  0  0  0  0
   36.1280   27.1100   40.2270 C   0  0  0  0  0  3  0  0  0  0  0  0
   36.1870   25.7020   40.4050 C   0  0  0  0  0  3  0  0  0  0  0  0
   37.8390   25.4830   41.2340 S   0  0  0  0  0  0  0  0  0  0  0  0
  1  5  1  0  0  0  0
  1 23  1  0  0  0  0
  2  1  1  0  0  0  0
  3  1  1  0  0  0  0
  4  5  2  0  0  0  0
  4  9  1  0  0  0  0
  5  6  1  0  0  0  0
  6 10  1  0  0  0  0
  6  7  2  0  0  0  0
  7 11  1  0  0  0  0
  8  7  1  0  0  0  0
  8 12  1  0  0  0  0
  9  8  2  0  0  0  0
 13  9  1  0  0  0  0
 14 20  1  0  0  0  0
 14 15  1  0  0  0  0
 15 21  1  0  0  0  0
 16 15  2  0  0  0  0
 16  4  1  0  0  0  0
 17 16  1  0  0  0  0
 18 19  1  0  0  0  0
 18 17  2  0  0  0  0
 19 14  2  0  0  0  0
 22 18  1  0  0  0  0
 23 25  1  0  0  0  0
 23 24  1  0  0  0  0
 25 28  1  0  0  0  0
 26 25  1  0  0  0  0
 26 27  1  0  0  0  0
 28 29  1  0  0  0  0
 30 31  1  0  0  0  0
 30 25  1  0  0  0  0
 31 34  1  0  0  0  0
 31 33  1  0  0  0  0
 32 31  1  0  0  0  0
 34 35  1  0  0  0  0
 36 34  1  0  0  0  0
 37 34  1  0  0  0  0
 38 37  2  0  0  0  0
 39 38  1  0  0  0  0
 40 41  2  0  0  0  0
 40 38  1  0  0  0  0
 41 42  1  0  0  0  0
 42 37  1  0  0  0  0
M  END
>  <minimizedAffinity>
-5.10040522

>  <minimizedRMSD>
1.50823689

$$$$
