
 OpenBabel03252508483D

 42 44  0  0  0  0  0  0  0  0999 V2000
   36.8630   27.4000   41.5640 C   0  0  0  0  0  0  0  0  0  0  0  0
   37.1110   27.4660   40.4890 H   0  0  0  0  0  0  0  0  0  0  0  0
   35.9980   26.6780   41.6390 H   0  0  0  0  0  0  0  0  0  0  0  0
   38.4040   25.4660   41.9610 C   0  0  0  0  0  0  0  0  0  0  0  0
   37.9800   26.7370   42.2980 C   0  0  0  0  0  0  0  0  0  0  0  0
   38.6140   27.3910   43.3360 C   0  0  0  0  0  0  0  0  0  0  0  0
   39.6390   26.7750   44.0050 C   0  0  0  0  0  0  0  0  0  0  0  0
   40.0780   25.5090   43.6870 C   0  0  0  0  0  0  0  0  0  0  0  0
   39.4120   24.8960   42.6390 C   0  0  0  0  0  0  0  0  0  0  0  0
   38.3260   28.3860   43.6450 H   0  0  0  0  0  0  0  0  0  0  0  0
   40.1410   27.2830   44.8210 H   0  0  0  0  0  0  0  0  0  0  0  0
   40.8650   24.9710   44.1590 H   0  0  0  0  0  0  0  0  0  0  0  0
   39.6880   23.9000   42.3180 H   0  0  0  0  0  0  0  0  0  0  0  0
   35.9320   23.5020   39.8690 C   0  0  0  0  0  0  0  0  0  0  0  0
   36.5370   24.0710   41.0030 C   0  0  0  0  0  0  0  0  0  0  0  0
   37.6920   24.8290   40.8520 C   0  0  0  0  0  0  0  0  0  0  0  0
   38.1820   24.9790   39.5910 N   0  0  0  0  0  0  0  0  0  0  0  0
   37.5880   24.4250   38.5100 C   0  0  0  0  0  0  0  0  0  0  0  0
   36.4620   23.6880   38.6600 N   0  0  0  0  0  0  0  0  0  0  0  0
   35.0450   22.9240   40.0060 H   0  0  0  0  0  0  0  0  0  0  0  0
   36.1470   23.9510   42.0030 H   0  0  0  0  0  0  0  0  0  0  0  0
   38.0830   24.6250   37.5750 H   0  0  0  0  0  0  0  0  0  0  0  0
   36.4810   28.6780   42.0660 N   0  0  0  0  0  0  0  0  0  0  0  0
   37.2050   29.1790   42.6130 H   0  0  0  0  0  0  0  0  0  0  0  0
   35.8580   29.7000   40.8520 S   0  0  0  0  0  0  0  0  0  0  0  0
   35.7010   31.1170   41.3540 O   0  0  0  0  0  0  0  0  0  0  0  0
   34.8130   31.3820   41.7460 H   0  0  0  0  0  0  0  0  0  0  0  0
   34.5480   29.2030   40.3430 O   0  0  0  0  0  0  0  0  0  0  0  0
   33.7630   29.7470   40.0860 H   0  0  0  0  0  0  0  0  0  0  0  0
   36.9600   29.7260   39.5830 O   0  0  0  0  0  0  0  0  0  0  0  0
   36.4290   30.4970   38.5630 C   0  0  0  0  0  0  0  0  0  0  0  0
   35.7710   31.2390   39.0200 H   0  0  0  0  0  0  0  0  0  0  0  0
   35.8710   29.9440   37.7960 H   0  0  0  0  0  0  0  0  0  0  0  0
   37.5450   31.2100   37.8160 C   0  0  0  0  0  0  0  0  0  0  0  0
   37.1760   31.6520   36.8670 H   0  0  0  0  0  0  0  0  0  0  0  0
   38.3740   30.4890   37.6410 H   0  0  0  0  0  0  0  0  0  0  0  0
   38.1540   32.2700   38.6830 C   0  0  0  0  0  0  0  0  0  0  0  0
   37.4700   33.2610   39.4470 C   0  0  0  0  0  0  0  0  0  0  0  0
   36.3980   33.2700   39.4090 H   0  0  0  0  0  0  0  0  0  0  0  0
   38.2490   34.1120   40.1600 C   0  0  0  0  0  3  0  0  0  0  0  0
   39.6660   34.0130   40.1420 C   0  0  0  0  0  3  0  0  0  0  0  0
   39.9410   32.5690   38.9990 S   0  0  0  0  0  0  0  0  0  0  0  0
  1  3  1  0  0  0  0
  1 23  1  0  0  0  0
  1  5  1  0  0  0  0
  2  1  1  0  0  0  0
  4  5  2  0  0  0  0
  4  9  1  0  0  0  0
  5  6  1  0  0  0  0
  6 10  1  0  0  0  0
  6  7  2  0  0  0  0
  7 11  1  0  0  0  0
  8  7  1  0  0  0  0
  8 12  1  0  0  0  0
  9  8  2  0  0  0  0
 13  9  1  0  0  0  0
 14 20  1  0  0  0  0
 14 15  1  0  0  0  0
 15 21  1  0  0  0  0
 16 15  2  0  0  0  0
 16  4  1  0  0  0  0
 17 16  1  0  0  0  0
 18 19  1  0  0  0  0
 18 17  2  0  0  0  0
 19 14  2  0  0  0  0
 22 18  1  0  0  0  0
 23 24  1  0  0  0  0
 25 26  1  0  0  0  0
 25 23  1  0  0  0  0
 26 27  1  0  0  0  0
 28 25  1  0  0  0  0
 29 28  1  0  0  0  0
 30 25  1  0  0  0  0
 31 32  1  0  0  0  0
 31 30  1  0  0  0  0
 33 31  1  0  0  0  0
 34 31  1  0  0  0  0
 34 37  1  0  0  0  0
 35 34  1  0  0  0  0
 36 34  1  0  0  0  0
 37 42  1  0  0  0  0
 37 38  2  0  0  0  0
 38 40  1  0  0  0  0
 39 38  1  0  0  0  0
 41 40  2  0  0  0  0
 42 41  1  0  0  0  0
M  END
>  <minimizedAffinity>
-6.21977806

$$$$

 OpenBabel03252508483D

 42 44  0  0  0  0  0  0  0  0999 V2000
   36.2500   30.5680   40.8430 C   0  0  0  0  0  0  0  0  0  0  0  0
   37.0860   31.2100   41.1770 H   0  0  0  0  0  0  0  0  0  0  0  0
   35.3160   31.1910   40.9570 H   0  0  0  0  0  0  0  0  0  0  0  0
   37.2350   31.0480   38.5910 C   0  0  0  0  0  0  0  0  0  0  0  0
   36.3660   30.3150   39.3770 C   0  0  0  0  0  0  0  0  0  0  0  0
   35.5990   29.3370   38.7770 C   0  0  0  0  0  0  0  0  0  0  0  0
   35.7110   29.1110   37.4300 C   0  0  0  0  0  0  0  0  0  0  0  0
   36.5690   29.8290   36.6270 C   0  0  0  0  0  0  0  0  0  0  0  0
   37.3170   30.7980   37.2740 C   0  0  0  0  0  0  0  0  0  0  0  0
   34.9020   28.7320   39.3410 H   0  0  0  0  0  0  0  0  0  0  0  0
   35.1110   28.3440   36.9540 H   0  0  0  0  0  0  0  0  0  0  0  0
   36.7100   29.7090   35.5790 H   0  0  0  0  0  0  0  0  0  0  0  0
   38.0190   31.4110   36.7240 H   0  0  0  0  0  0  0  0  0  0  0  0
   38.4020   34.2630   40.2170 C   0  0  0  0  0  0  0  0  0  0  0  0
   37.5670   33.3580   39.5400 C   0  0  0  0  0  0  0  0  0  0  0  0
   38.0190   32.0700   39.2860 C   0  0  0  0  0  0  0  0  0  0  0  0
   39.2710   31.7500   39.7150 N   0  0  0  0  0  0  0  0  0  0  0  0
   40.0630   32.6320   40.3650 C   0  0  0  0  0  0  0  0  0  0  0  0
   39.6200   33.8870   40.6110 N   0  0  0  0  0  0  0  0  0  0  0  0
   38.0360   35.2480   40.4030 H   0  0  0  0  0  0  0  0  0  0  0  0
   36.5730   33.6130   39.2010 H   0  0  0  0  0  0  0  0  0  0  0  0
   41.0280   32.2450   40.6450 H   0  0  0  0  0  0  0  0  0  0  0  0
   36.1660   29.4000   41.6550 N   0  0  0  0  0  0  0  0  0  0  0  0
   35.8950   28.5290   41.1610 H   0  0  0  0  0  0  0  0  0  0  0  0
   37.5780   29.1340   42.5710 S   0  0  0  0  0  0  0  0  0  0  0  0
   37.2760   29.1140   44.0520 O   0  0  0  0  0  0  0  0  0  0  0  0
   37.3550   29.9780   44.5610 H   0  0  0  0  0  0  0  0  0  0  0  0
   38.6130   30.1700   42.2880 O   0  0  0  0  0  0  0  0  0  0  0  0
   39.2310   30.5880   42.9360 H   0  0  0  0  0  0  0  0  0  0  0  0
   38.1900   27.6260   42.1530 O   0  0  0  0  0  0  0  0  0  0  0  0
   39.0180   27.7830   41.0550 C   0  0  0  0  0  0  0  0  0  0  0  0
   39.9530   27.2600   41.2690 H   0  0  0  0  0  0  0  0  0  0  0  0
   39.2410   28.8220   40.7790 H   0  0  0  0  0  0  0  0  0  0  0  0
   38.3710   27.1670   39.8240 C   0  0  0  0  0  0  0  0  0  0  0  0
   39.0600   27.1930   38.9530 H   0  0  0  0  0  0  0  0  0  0  0  0
   37.4190   27.7050   39.6150 H   0  0  0  0  0  0  0  0  0  0  0  0
   37.9460   25.7590   40.1120 C   0  0  0  0  0  0  0  0  0  0  0  0
   36.6280   25.2220   40.0370 C   0  0  0  0  0  0  0  0  0  0  0  0
   35.8340   25.8830   39.7480 H   0  0  0  0  0  0  0  0  0  0  0  0
   36.4980   23.9070   40.3450 C   0  0  0  0  0  3  0  0  0  0  0  0
   37.6190   23.1180   40.7170 C   0  0  0  0  0  3  0  0  0  0  0  0
   39.0110   24.3520   40.6290 S   0  0  0  0  0  0  0  0  0  0  0  0
  1  3  1  0  0  0  0
  1  2  1  0  0  0  0
  1 23  1  0  0  0  0
  4 16  1  0  0  0  0
  4  5  1  0  0  0  0
  5  1  1  0  0  0  0
  6 10  1  0  0  0  0
  6  5  2  0  0  0  0
  7  6  1  0  0  0  0
  8  9  1  0  0  0  0
  8  7  2  0  0  0  0
  9  4  2  0  0  0  0
 11  7  1  0  0  0  0
 12  8  1  0  0  0  0
 13  9  1  0  0  0  0
 14 20  1  0  0  0  0
 14 19  1  0  0  0  0
 15 14  2  0  0  0  0
 16 15  1  0  0  0  0
 16 17  2  0  0  0  0
 17 18  1  0  0  0  0
 18 19  2  0  0  0  0
 18 22  1  0  0  0  0
 21 15  1  0  0  0  0
 23 25  1  0  0  0  0
 24 23  1  0  0  0  0
 25 26  1  0  0  0  0
 26 27  1  0  0  0  0
 28 25  1  0  0  0  0
 28 29  1  0  0  0  0
 30 25  1  0  0  0  0
 31 32  1  0  0  0  0
 31 30  1  0  0  0  0
 33 31  1  0  0  0  0
 34 37  1  0  0  0  0
 34 31  1  0  0  0  0
 35 34  1  0  0  0  0
 36 34  1  0  0  0  0
 37 42  1  0  0  0  0
 38 37  2  0  0  0  0
 38 40  1  0  0  0  0
 39 38  1  0  0  0  0
 40 41  2  0  0  0  0
 42 41  1  0  0  0  0
M  END
>  <minimizedAffinity>
-5.71746826

$$$$

 OpenBabel03252508483D

 42 44  0  0  0  0  0  0  0  0999 V2000
   35.9760   30.5410   40.4190 C   0  0  0  0  0  0  0  0  0  0  0  0
   36.8980   30.9380   40.8820 H   0  0  0  0  0  0  0  0  0  0  0  0
   35.2250   31.3830   40.4510 H   0  0  0  0  0  0  0  0  0  0  0  0
   37.1780   30.9870   38.2680 C   0  0  0  0  0  0  0  0  0  0  0  0
   36.2110   30.2910   38.9670 C   0  0  0  0  0  0  0  0  0  0  0  0
   35.4560   29.3510   38.2930 C   0  0  0  0  0  0  0  0  0  0  0  0
   35.6780   29.1280   36.9590 C   0  0  0  0  0  0  0  0  0  0  0  0
   36.6360   29.8100   36.2420 C   0  0  0  0  0  0  0  0  0  0  0  0
   37.3660   30.7410   36.9620 C   0  0  0  0  0  0  0  0  0  0  0  0
   34.6860   28.7760   38.7870 H   0  0  0  0  0  0  0  0  0  0  0  0
   35.0890   28.3910   36.4240 H   0  0  0  0  0  0  0  0  0  0  0  0
   36.8640   29.6890   35.2090 H   0  0  0  0  0  0  0  0  0  0  0  0
   38.1400   31.3240   36.4820 H   0  0  0  0  0  0  0  0  0  0  0  0
   39.8740   32.7610   40.2490 C   0  0  0  0  0  0  0  0  0  0  0  0
   39.2280   31.7500   39.5170 C   0  0  0  0  0  0  0  0  0  0  0  0
   37.9420   31.9680   39.0400 C   0  0  0  0  0  0  0  0  0  0  0  0
   37.3690   33.1720   39.3140 N   0  0  0  0  0  0  0  0  0  0  0  0
   38.0030   34.1340   40.0200 C   0  0  0  0  0  0  0  0  0  0  0  0
   39.2560   33.9190   40.4840 N   0  0  0  0  0  0  0  0  0  0  0  0
   40.8630   32.5740   40.6060 H   0  0  0  0  0  0  0  0  0  0  0  0
   39.6860   30.7950   39.2990 H   0  0  0  0  0  0  0  0  0  0  0  0
   37.4310   35.0350   40.1630 H   0  0  0  0  0  0  0  0  0  0  0  0
   35.4910   29.4210   41.1570 N   0  0  0  0  0  0  0  0  0  0  0  0
   34.8240   28.8080   40.6540 H   0  0  0  0  0  0  0  0  0  0  0  0
   36.7470   28.4860   41.8290 S   0  0  0  0  0  0  0  0  0  0  0  0
   36.8570   27.1410   41.1480 O   0  0  0  0  0  0  0  0  0  0  0  0
   36.3470   26.3700   41.5440 H   0  0  0  0  0  0  0  0  0  0  0  0
   36.5520   28.2870   43.2950 O   0  0  0  0  0  0  0  0  0  0  0  0
   36.7430   27.4700   43.8160 H   0  0  0  0  0  0  0  0  0  0  0  0
   38.1930   29.3050   41.5800 O   0  0  0  0  0  0  0  0  0  0  0  0
   38.7930   29.5110   42.8100 C   0  0  0  0  0  0  0  0  0  0  0  0
   38.2090   28.9690   43.5570 H   0  0  0  0  0  0  0  0  0  0  0  0
   38.8860   30.5610   43.1190 H   0  0  0  0  0  0  0  0  0  0  0  0
   40.2130   28.9670   42.7940 C   0  0  0  0  0  0  0  0  0  0  0  0
   40.7990   29.3450   43.6580 H   0  0  0  0  0  0  0  0  0  0  0  0
   40.6860   29.2360   41.8230 H   0  0  0  0  0  0  0  0  0  0  0  0
   40.1930   27.4680   42.7930 C   0  0  0  0  0  0  0  0  0  0  0  0
   39.8900   26.6070   43.8880 C   0  0  0  0  0  0  0  0  0  0  0  0
   39.6500   27.0620   44.8310 H   0  0  0  0  0  0  0  0  0  0  0  0
   39.9350   25.2750   43.6340 C   0  0  0  0  0  3  0  0  0  0  0  0
   40.2640   24.7770   42.3460 C   0  0  0  0  0  3  0  0  0  0  0  0
   40.5440   26.3440   41.3810 S   0  0  0  0  0  0  0  0  0  0  0  0
  1  3  1  0  0  0  0
  1  2  1  0  0  0  0
  1 23  1  0  0  0  0
  4  5  1  0  0  0  0
  4 16  1  0  0  0  0
  5  1  1  0  0  0  0
  6 10  1  0  0  0  0
  6  5  2  0  0  0  0
  7  6  1  0  0  0  0
  8  7  2  0  0  0  0
  8  9  1  0  0  0  0
  9  4  2  0  0  0  0
 11  7  1  0  0  0  0
 12  8  1  0  0  0  0
 13  9  1  0  0  0  0
 14 19  1  0  0  0  0
 14 20  1  0  0  0  0
 15 14  2  0  0  0  0
 16 17  2  0  0  0  0
 16 15  1  0  0  0  0
 17 18  1  0  0  0  0
 18 22  1  0  0  0  0
 18 19  2  0  0  0  0
 21 15  1  0  0  0  0
 23 25  1  0  0  0  0
 24 23  1  0  0  0  0
 25 28  1  0  0  0  0
 26 27  1  0  0  0  0
 26 25  1  0  0  0  0
 28 29  1  0  0  0  0
 30 25  1  0  0  0  0
 30 31  1  0  0  0  0
 31 33  1  0  0  0  0
 31 32  1  0  0  0  0
 34 31  1  0  0  0  0
 34 35  1  0  0  0  0
 36 34  1  0  0  0  0
 37 34  1  0  0  0  0
 37 38  2  0  0  0  0
 38 39  1  0  0  0  0
 40 38  1  0  0  0  0
 41 40  2  0  0  0  0
 42 41  1  0  0  0  0
 42 37  1  0  0  0  0
M  END
>  <minimizedAffinity>
-5.65150404

$$$$

 OpenBabel03252508483D

 42 44  0  0  0  0  0  0  0  0999 V2000
   38.7890   29.7790   42.4610 C   0  0  0  0  0  0  0  0  0  0  0  0
   39.2600   30.7100   42.8260 H   0  0  0  0  0  0  0  0  0  0  0  0
   38.9430   29.7730   41.3420 H   0  0  0  0  0  0  0  0  0  0  0  0
   40.9330   28.5520   42.8730 C   0  0  0  0  0  0  0  0  0  0  0  0
   39.5550   28.6000   42.9610 C   0  0  0  0  0  0  0  0  0  0  0  0
   38.8910   27.5270   43.5220 C   0  0  0  0  0  0  0  0  0  0  0  0
   39.6020   26.4480   43.9780 C   0  0  0  0  0  0  0  0  0  0  0  0
   40.9750   26.3790   43.9020 C   0  0  0  0  0  0  0  0  0  0  0  0
   41.5950   27.4780   43.3310 C   0  0  0  0  0  0  0  0  0  0  0  0
   37.8140   27.5080   43.6160 H   0  0  0  0  0  0  0  0  0  0  0  0
   39.0860   25.6030   44.4200 H   0  0  0  0  0  0  0  0  0  0  0  0
   41.5910   25.5770   44.2350 H   0  0  0  0  0  0  0  0  0  0  0  0
   42.6710   27.5120   43.2300 H   0  0  0  0  0  0  0  0  0  0  0  0
   42.4370   31.9740   42.2650 C   0  0  0  0  0  0  0  0  0  0  0  0
   41.8110   30.9120   42.9410 C   0  0  0  0  0  0  0  0  0  0  0  0
   41.5760   29.7200   42.2690 C   0  0  0  0  0  0  0  0  0  0  0  0
   41.9720   29.6450   40.9680 N   0  0  0  0  0  0  0  0  0  0  0  0
   42.5720   30.6750   40.3320 C   0  0  0  0  0  0  0  0  0  0  0  0
   42.8010   31.8370   40.9890 N   0  0  0  0  0  0  0  0  0  0  0  0
   42.6100   32.8820   42.7990 H   0  0  0  0  0  0  0  0  0  0  0  0
   41.4990   30.9730   43.9730 H   0  0  0  0  0  0  0  0  0  0  0  0
   42.8310   30.4780   39.3060 H   0  0  0  0  0  0  0  0  0  0  0  0
   37.3970   29.7720   42.7660 N   0  0  0  0  0  0  0  0  0  0  0  0
   37.0850   30.4850   43.4500 H   0  0  0  0  0  0  0  0  0  0  0  0
   36.4190   29.8360   41.3720 S   0  0  0  0  0  0  0  0  0  0  0  0
   35.6050   31.1080   41.3290 O   0  0  0  0  0  0  0  0  0  0  0  0
   34.6810   31.0900   41.7260 H   0  0  0  0  0  0  0  0  0  0  0  0
   35.5080   28.6580   41.2920 O   0  0  0  0  0  0  0  0  0  0  0  0
   34.5720   28.6490   40.9760 H   0  0  0  0  0  0  0  0  0  0  0  0
   37.4320   29.8310   40.0300 O   0  0  0  0  0  0  0  0  0  0  0  0
   36.7240   30.3290   38.9500 C   0  0  0  0  0  0  0  0  0  0  0  0
   35.9480   30.9900   39.3420 H   0  0  0  0  0  0  0  0  0  0  0  0
   36.2610   29.5730   38.3020 H   0  0  0  0  0  0  0  0  0  0  0  0
   37.6500   31.1260   38.0450 C   0  0  0  0  0  0  0  0  0  0  0  0
   37.1140   31.4940   37.1450 H   0  0  0  0  0  0  0  0  0  0  0  0
   38.5210   30.4880   37.7750 H   0  0  0  0  0  0  0  0  0  0  0  0
   38.2510   32.2730   38.8000 C   0  0  0  0  0  0  0  0  0  0  0  0
   39.6330   32.5120   39.0530 C   0  0  0  0  0  0  0  0  0  0  0  0
   40.3420   31.8010   38.6720 H   0  0  0  0  0  0  0  0  0  0  0  0
   39.9290   33.6300   39.7620 C   0  0  0  0  0  3  0  0  0  0  0  0
   38.9110   34.5080   40.2200 C   0  0  0  0  0  3  0  0  0  0  0  0
   37.3680   33.6780   39.5910 S   0  0  0  0  0  0  0  0  0  0  0  0
  1 23  1  0  0  0  0
  1  2  1  0  0  0  0
  1  5  1  0  0  0  0
  3  1  1  0  0  0  0
  4  5  2  0  0  0  0
  4  9  1  0  0  0  0
  5  6  1  0  0  0  0
  6 10  1  0  0  0  0
  6  7  2  0  0  0  0
  7 11  1  0  0  0  0
  8  7  1  0  0  0  0
  8 12  1  0  0  0  0
  9  8  2  0  0  0  0
 13  9  1  0  0  0  0
 14 20  1  0  0  0  0
 14 15  1  0  0  0  0
 15 21  1  0  0  0  0
 16  4  1  0  0  0  0
 16 15  2  0  0  0  0
 17 16  1  0  0  0  0
 18 17  2  0  0  0  0
 18 19  1  0  0  0  0
 19 14  2  0  0  0  0
 22 18  1  0  0  0  0
 23 24  1  0  0  0  0
 25 23  1  0  0  0  0
 26 25  1  0  0  0  0
 26 27  1  0  0  0  0
 28 25  1  0  0  0  0
 29 28  1  0  0  0  0
 30 25  1  0  0  0  0
 31 32  1  0  0  0  0
 31 30  1  0  0  0  0
 33 31  1  0  0  0  0
 34 37  1  0  0  0  0
 34 31  1  0  0  0  0
 35 34  1  0  0  0  0
 36 34  1  0  0  0  0
 37 38  2  0  0  0  0
 37 42  1  0  0  0  0
 38 40  1  0  0  0  0
 39 38  1  0  0  0  0
 40 41  2  0  0  0  0
 42 41  1  0  0  0  0
M  END
>  <minimizedAffinity>
-5.62803507

$$$$

 OpenBabel03252508483D

 42 44  0  0  0  0  0  0  0  0999 V2000
   39.1710   30.4130   40.7950 C   0  0  0  0  0  0  0  0  0  0  0  0
   38.5060   29.7230   40.2420 H   0  0  0  0  0  0  0  0  0  0  0  0
   40.1980   30.2800   40.3450 H   0  0  0  0  0  0  0  0  0  0  0  0
   37.6020   32.1290   39.8650 C   0  0  0  0  0  0  0  0  0  0  0  0
   38.7970   31.8240   40.4890 C   0  0  0  0  0  0  0  0  0  0  0  0
   39.6480   32.8570   40.8260 C   0  0  0  0  0  0  0  0  0  0  0  0
   39.2970   34.1510   40.5410 C   0  0  0  0  0  0  0  0  0  0  0  0
   38.1130   34.4790   39.9210 C   0  0  0  0  0  0  0  0  0  0  0  0
   37.2930   33.4090   39.6020 C   0  0  0  0  0  0  0  0  0  0  0  0
   40.5960   32.6800   41.3160 H   0  0  0  0  0  0  0  0  0  0  0  0
   39.9620   34.9670   40.8040 H   0  0  0  0  0  0  0  0  0  0  0  0
   37.7750   35.4570   39.6700 H   0  0  0  0  0  0  0  0  0  0  0  0
   36.3420   33.5700   39.1130 H   0  0  0  0  0  0  0  0  0  0  0  0
   35.8850   29.2590   38.0890 C   0  0  0  0  0  0  0  0  0  0  0  0
   36.7500   30.3460   38.3030 C   0  0  0  0  0  0  0  0  0  0  0  0
   36.7450   30.9900   39.5340 C   0  0  0  0  0  0  0  0  0  0  0  0
   35.8860   30.5230   40.4810 N   0  0  0  0  0  0  0  0  0  0  0  0
   35.0600   29.4770   40.2600 C   0  0  0  0  0  0  0  0  0  0  0  0
   35.0660   28.8510   39.0600 N   0  0  0  0  0  0  0  0  0  0  0  0
   35.9030   28.7770   37.1370 H   0  0  0  0  0  0  0  0  0  0  0  0
   37.4310   30.7140   37.5500 H   0  0  0  0  0  0  0  0  0  0  0  0
   34.4350   29.2150   41.0960 H   0  0  0  0  0  0  0  0  0  0  0  0
   39.1930   30.0780   42.1810 N   0  0  0  0  0  0  0  0  0  0  0  0
   39.0360   30.8660   42.8350 H   0  0  0  0  0  0  0  0  0  0  0  0
   38.1460   28.7880   42.5610 S   0  0  0  0  0  0  0  0  0  0  0  0
   37.7270   28.0360   41.3190 O   0  0  0  0  0  0  0  0  0  0  0  0
   36.8780   28.3200   40.8610 H   0  0  0  0  0  0  0  0  0  0  0  0
   36.9340   29.2670   43.2860 O   0  0  0  0  0  0  0  0  0  0  0  0
   36.0090   28.9370   43.1830 H   0  0  0  0  0  0  0  0  0  0  0  0
   38.9830   27.7170   43.5500 O   0  0  0  0  0  0  0  0  0  0  0  0
   39.7470   26.8890   42.7460 C   0  0  0  0  0  0  0  0  0  0  0  0
   40.7970   27.1130   42.9450 H   0  0  0  0  0  0  0  0  0  0  0  0
   39.5580   26.9770   41.6670 H   0  0  0  0  0  0  0  0  0  0  0  0
   39.4710   25.4330   43.0880 C   0  0  0  0  0  0  0  0  0  0  0  0
   39.0250   25.3360   44.1010 H   0  0  0  0  0  0  0  0  0  0  0  0
   40.4200   24.8600   42.9970 H   0  0  0  0  0  0  0  0  0  0  0  0
   38.5680   24.8220   42.0600 C   0  0  0  0  0  0  0  0  0  0  0  0
   37.1570   24.6380   42.1470 C   0  0  0  0  0  0  0  0  0  0  0  0
   36.6650   24.9630   43.0440 H   0  0  0  0  0  0  0  0  0  0  0  0
   36.5600   24.0600   41.0750 C   0  0  0  0  0  3  0  0  0  0  0  0
   37.3070   23.6660   39.9330 C   0  0  0  0  0  3  0  0  0  0  0  0
   39.0390   24.1560   40.4120 S   0  0  0  0  0  0  0  0  0  0  0  0
  1 23  1  0  0  0  0
  2  1  1  0  0  0  0
  3  1  1  0  0  0  0
  4  5  1  0  0  0  0
  5  1  1  0  0  0  0
  5  6  2  0  0  0  0
  6 10  1  0  0  0  0
  7 11  1  0  0  0  0
  7  6  1  0  0  0  0
  8  7  2  0  0  0  0
  9  4  2  0  0  0  0
  9  8  1  0  0  0  0
 12  8  1  0  0  0  0
 13  9  1  0  0  0  0
 14 15  2  0  0  0  0
 14 19  1  0  0  0  0
 15 16  1  0  0  0  0
 16  4  1  0  0  0  0
 16 17  2  0  0  0  0
 18 17  1  0  0  0  0
 18 22  1  0  0  0  0
 19 18  2  0  0  0  0
 20 14  1  0  0  0  0
 21 15  1  0  0  0  0
 23 25  1  0  0  0  0
 23 24  1  0  0  0  0
 25 28  1  0  0  0  0
 25 30  1  0  0  0  0
 26 25  1  0  0  0  0
 27 26  1  0  0  0  0
 29 28  1  0  0  0  0
 31 32  1  0  0  0  0
 31 34  1  0  0  0  0
 31 30  1  0  0  0  0
 33 31  1  0  0  0  0
 34 35  1  0  0  0  0
 36 34  1  0  0  0  0
 37 38  2  0  0  0  0
 37 34  1  0  0  0  0
 38 39  1  0  0  0  0
 40 38  1  0  0  0  0
 41 42  1  0  0  0  0
 41 40  2  0  0  0  0
 42 37  1  0  0  0  0
M  END
>  <minimizedAffinity>
-5.60390425

$$$$

 OpenBabel03252508483D

 42 44  0  0  0  0  0  0  0  0999 V2000
   35.4070   29.7010   40.3980 C   0  0  0  0  0  0  0  0  0  0  0  0
   35.5530   29.8420   39.3110 H   0  0  0  0  0  0  0  0  0  0  0  0
   34.3030   29.5170   40.5410 H   0  0  0  0  0  0  0  0  0  0  0  0
   36.4400   27.4710   39.9170 C   0  0  0  0  0  0  0  0  0  0  0  0
   36.0670   28.4360   40.8340 C   0  0  0  0  0  0  0  0  0  0  0  0
   36.3160   28.2070   42.1720 C   0  0  0  0  0  0  0  0  0  0  0  0
   36.9230   27.0430   42.5630 C   0  0  0  0  0  0  0  0  0  0  0  0
   37.3030   26.0670   41.6690 C   0  0  0  0  0  0  0  0  0  0  0  0
   37.0320   26.3430   40.3390 C   0  0  0  0  0  0  0  0  0  0  0  0
   36.0470   28.9260   42.9340 H   0  0  0  0  0  0  0  0  0  0  0  0
   37.1220   26.8570   43.6130 H   0  0  0  0  0  0  0  0  0  0  0  0
   37.7770   25.1420   41.8990 H   0  0  0  0  0  0  0  0  0  0  0  0
   37.2960   25.6350   39.5650 H   0  0  0  0  0  0  0  0  0  0  0  0
   34.7730   27.7990   36.5330 C   0  0  0  0  0  0  0  0  0  0  0  0
   34.9500   27.4630   37.8860 C   0  0  0  0  0  0  0  0  0  0  0  0
   36.1480   27.7750   38.5150 C   0  0  0  0  0  0  0  0  0  0  0  0
   37.1020   28.3990   37.7720 N   0  0  0  0  0  0  0  0  0  0  0  0
   36.9170   28.7160   36.4710 C   0  0  0  0  0  0  0  0  0  0  0  0
   35.7480   28.4120   35.8600 N   0  0  0  0  0  0  0  0  0  0  0  0
   33.8450   27.5520   36.0680 H   0  0  0  0  0  0  0  0  0  0  0  0
   34.1920   26.9680   38.4750 H   0  0  0  0  0  0  0  0  0  0  0  0
   37.7540   29.2070   36.0060 H   0  0  0  0  0  0  0  0  0  0  0  0
   35.8070   30.8700   41.1100 N   0  0  0  0  0  0  0  0  0  0  0  0
   36.0000   30.7370   42.1190 H   0  0  0  0  0  0  0  0  0  0  0  0
   37.1150   31.6740   40.3690 S   0  0  0  0  0  0  0  0  0  0  0  0
   36.9270   33.1730   40.3980 O   0  0  0  0  0  0  0  0  0  0  0  0
   36.4790   33.6070   39.6090 H   0  0  0  0  0  0  0  0  0  0  0  0
   37.3020   31.2230   38.9600 O   0  0  0  0  0  0  0  0  0  0  0  0
   37.5570   31.7800   38.1840 H   0  0  0  0  0  0  0  0  0  0  0  0
   38.5050   31.3150   41.2430 O   0  0  0  0  0  0  0  0  0  0  0  0
   39.3400   32.4170   41.2030 C   0  0  0  0  0  0  0  0  0  0  0  0
   39.2960   32.9000   42.1810 H   0  0  0  0  0  0  0  0  0  0  0  0
   39.1060   33.1560   40.4250 H   0  0  0  0  0  0  0  0  0  0  0  0
   40.7690   31.9770   40.9260 C   0  0  0  0  0  0  0  0  0  0  0  0
   40.8470   30.8700   40.8790 H   0  0  0  0  0  0  0  0  0  0  0  0
   41.4320   32.4060   41.7100 H   0  0  0  0  0  0  0  0  0  0  0  0
   41.2610   32.5890   39.6490 C   0  0  0  0  0  0  0  0  0  0  0  0
   41.0010   32.1440   38.3200 C   0  0  0  0  0  0  0  0  0  0  0  0
   40.3890   31.2710   38.1960 H   0  0  0  0  0  0  0  0  0  0  0  0
   41.5600   32.8740   37.3230 C   0  0  0  0  0  3  0  0  0  0  0  0
   42.3560   34.0170   37.5980 C   0  0  0  0  0  3  0  0  0  0  0  0
   42.3210   34.0790   39.4580 S   0  0  0  0  0  0  0  0  0  0  0  0
  1  3  1  0  0  0  0
  1  5  1  0  0  0  0
  1 23  1  0  0  0  0
  2  1  1  0  0  0  0
  4  9  2  0  0  0  0
  4  5  1  0  0  0  0
  5  6  2  0  0  0  0
  6  7  1  0  0  0  0
  6 10  1  0  0  0  0
  7 11  1  0  0  0  0
  8 12  1  0  0  0  0
  8  7  2  0  0  0  0
  9  8  1  0  0  0  0
 13  9  1  0  0  0  0
 14 15  1  0  0  0  0
 15 21  1  0  0  0  0
 15 16  2  0  0  0  0
 16  4  1  0  0  0  0
 17 16  1  0  0  0  0
 18 17  2  0  0  0  0
 19 18  1  0  0  0  0
 19 14  2  0  0  0  0
 20 14  1  0  0  0  0
 22 18  1  0  0  0  0
 23 24  1  0  0  0  0
 25 26  1  0  0  0  0
 25 23  1  0  0  0  0
 25 30  1  0  0  0  0
 27 26  1  0  0  0  0
 28 25  1  0  0  0  0
 29 28  1  0  0  0  0
 31 30  1  0  0  0  0
 31 32  1  0  0  0  0
 33 31  1  0  0  0  0
 34 31  1  0  0  0  0
 34 36  1  0  0  0  0
 35 34  1  0  0  0  0
 37 34  1  0  0  0  0
 38 37  2  0  0  0  0
 39 38  1  0  0  0  0
 40 41  2  0  0  0  0
 40 38  1  0  0  0  0
 41 42  1  0  0  0  0
 42 37  1  0  0  0  0
M  END
>  <minimizedAffinity>
-5.55912924

$$$$

 OpenBabel03252508483D

 42 44  0  0  0  0  0  0  0  0999 V2000
   36.7940   27.5050   41.8330 C   0  0  0  0  0  0  0  0  0  0  0  0
   36.9340   27.5870   40.7390 H   0  0  0  0  0  0  0  0  0  0  0  0
   35.9070   26.8230   41.9820 H   0  0  0  0  0  0  0  0  0  0  0  0
   38.3210   25.5240   41.9710 C   0  0  0  0  0  0  0  0  0  0  0  0
   37.9470   26.7720   42.4330 C   0  0  0  0  0  0  0  0  0  0  0  0
   38.6650   27.3340   43.4690 C   0  0  0  0  0  0  0  0  0  0  0  0
   39.7220   26.6540   44.0150 C   0  0  0  0  0  0  0  0  0  0  0  0
   40.1120   25.4100   43.5710 C   0  0  0  0  0  0  0  0  0  0  0  0
   39.3620   24.8890   42.5300 C   0  0  0  0  0  0  0  0  0  0  0  0
   38.4190   28.3070   43.8720 H   0  0  0  0  0  0  0  0  0  0  0  0
   40.2900   27.0900   44.8290 H   0  0  0  0  0  0  0  0  0  0  0  0
   40.9200   24.8260   43.9440 H   0  0  0  0  0  0  0  0  0  0  0  0
   39.5960   23.9170   42.1160 H   0  0  0  0  0  0  0  0  0  0  0  0
   35.7760   23.6200   39.9110 C   0  0  0  0  0  0  0  0  0  0  0  0
   36.4830   24.0760   41.0380 C   0  0  0  0  0  0  0  0  0  0  0  0
   37.5200   24.9840   40.8710 C   0  0  0  0  0  0  0  0  0  0  0  0
   37.8000   25.3880   39.6010 N   0  0  0  0  0  0  0  0  0  0  0  0
   37.1120   24.9400   38.5280 C   0  0  0  0  0  0  0  0  0  0  0  0
   36.1010   24.0550   38.6930 N   0  0  0  0  0  0  0  0  0  0  0  0
   34.9820   22.9220   40.0600 H   0  0  0  0  0  0  0  0  0  0  0  0
   36.2590   23.7540   42.0440 H   0  0  0  0  0  0  0  0  0  0  0  0
   37.4400   25.3430   37.5850 H   0  0  0  0  0  0  0  0  0  0  0  0
   36.5300   28.7860   42.3980 N   0  0  0  0  0  0  0  0  0  0  0  0
   37.0340   29.0010   43.2780 H   0  0  0  0  0  0  0  0  0  0  0  0
   36.7460   30.0540   41.2790 S   0  0  0  0  0  0  0  0  0  0  0  0
   38.0770   30.7420   41.4780 O   0  0  0  0  0  0  0  0  0  0  0  0
   38.1070   31.5450   42.0820 H   0  0  0  0  0  0  0  0  0  0  0  0
   35.6470   31.0580   41.3760 O   0  0  0  0  0  0  0  0  0  0  0  0
   35.7270   32.0390   41.2920 H   0  0  0  0  0  0  0  0  0  0  0  0
   36.7390   29.3880   39.7360 O   0  0  0  0  0  0  0  0  0  0  0  0
   36.2710   30.3450   38.8520 C   0  0  0  0  0  0  0  0  0  0  0  0
   35.9350   31.2010   39.4410 H   0  0  0  0  0  0  0  0  0  0  0  0
   35.4560   30.0190   38.1930 H   0  0  0  0  0  0  0  0  0  0  0  0
   37.3920   30.7860   37.9230 C   0  0  0  0  0  0  0  0  0  0  0  0
   38.0610   31.5200   38.4210 H   0  0  0  0  0  0  0  0  0  0  0  0
   36.9410   31.2010   36.9940 H   0  0  0  0  0  0  0  0  0  0  0  0
   38.1760   29.5970   37.4570 C   0  0  0  0  0  0  0  0  0  0  0  0
   39.5520   29.3180   37.7040 C   0  0  0  0  0  0  0  0  0  0  0  0
   40.1100   30.0270   38.2840 H   0  0  0  0  0  0  0  0  0  0  0  0
   40.0340   28.1650   37.1750 C   0  0  0  0  0  3  0  0  0  0  0  0
   39.2060   27.2930   36.4200 C   0  0  0  0  0  3  0  0  0  0  0  0
   37.5710   28.1810   36.4520 S   0  0  0  0  0  0  0  0  0  0  0  0
  1  3  1  0  0  0  0
  1 23  1  0  0  0  0
  1  5  1  0  0  0  0
  2  1  1  0  0  0  0
  4  5  2  0  0  0  0
  4  9  1  0  0  0  0
  5  6  1  0  0  0  0
  6 10  1  0  0  0  0
  6  7  2  0  0  0  0
  7 11  1  0  0  0  0
  8 12  1  0  0  0  0
  8  7  1  0  0  0  0
  9  8  2  0  0  0  0
 13  9  1  0  0  0  0
 14 20  1  0  0  0  0
 14 15  1  0  0  0  0
 15 21  1  0  0  0  0
 16 15  2  0  0  0  0
 16  4  1  0  0  0  0
 17 16  1  0  0  0  0
 18 19  1  0  0  0  0
 18 17  2  0  0  0  0
 19 14  2  0  0  0  0
 22 18  1  0  0  0  0
 23 24  1  0  0  0  0
 25 28  1  0  0  0  0
 25 26  1  0  0  0  0
 25 23  1  0  0  0  0
 26 27  1  0  0  0  0
 29 28  1  0  0  0  0
 30 25  1  0  0  0  0
 31 32  1  0  0  0  0
 31 30  1  0  0  0  0
 33 31  1  0  0  0  0
 34 35  1  0  0  0  0
 34 31  1  0  0  0  0
 36 34  1  0  0  0  0
 37 38  2  0  0  0  0
 37 34  1  0  0  0  0
 38 39  1  0  0  0  0
 40 38  1  0  0  0  0
 41 42  1  0  0  0  0
 41 40  2  0  0  0  0
 42 37  1  0  0  0  0
M  END
>  <minimizedAffinity>
-5.51864624

$$$$

 OpenBabel03252508483D

 42 44  0  0  0  0  0  0  0  0999 V2000
   37.7600   30.3770   40.4010 C   0  0  0  0  0  0  0  0  0  0  0  0
   38.8380   30.4280   40.1610 H   0  0  0  0  0  0  0  0  0  0  0  0
   37.2690   29.8730   39.5180 H   0  0  0  0  0  0  0  0  0  0  0  0
   36.6130   28.4250   41.4720 C   0  0  0  0  0  0  0  0  0  0  0  0
   37.5440   29.4430   41.5450 C   0  0  0  0  0  0  0  0  0  0  0  0
   38.2780   29.5850   42.7060 C   0  0  0  0  0  0  0  0  0  0  0  0
   38.0730   28.7240   43.7510 C   0  0  0  0  0  0  0  0  0  0  0  0
   37.1520   27.7020   43.7010 C   0  0  0  0  0  0  0  0  0  0  0  0
   36.4410   27.6010   42.5170 C   0  0  0  0  0  0  0  0  0  0  0  0
   39.0200   30.3630   42.8210 H   0  0  0  0  0  0  0  0  0  0  0  0
   38.6470   28.8300   44.6660 H   0  0  0  0  0  0  0  0  0  0  0  0
   36.9400   26.9970   44.4710 H   0  0  0  0  0  0  0  0  0  0  0  0
   35.6960   26.8280   42.3870 H   0  0  0  0  0  0  0  0  0  0  0  0
   35.3940   27.4250   38.0290 C   0  0  0  0  0  0  0  0  0  0  0  0
   36.1750   27.4350   39.1970 C   0  0  0  0  0  0  0  0  0  0  0  0
   35.8690   28.3280   40.2150 C   0  0  0  0  0  0  0  0  0  0  0  0
   34.8100   29.1610   40.0200 N   0  0  0  0  0  0  0  0  0  0  0  0
   34.0680   29.1390   38.8900 C   0  0  0  0  0  0  0  0  0  0  0  0
   34.3680   28.2670   37.8990 N   0  0  0  0  0  0  0  0  0  0  0  0
   35.6450   26.7300   37.2580 H   0  0  0  0  0  0  0  0  0  0  0  0
   37.0150   26.7730   39.3510 H   0  0  0  0  0  0  0  0  0  0  0  0
   33.2620   29.8520   38.8690 H   0  0  0  0  0  0  0  0  0  0  0  0
   37.2270   31.6870   40.5790 N   0  0  0  0  0  0  0  0  0  0  0  0
   36.7850   31.8700   41.4980 H   0  0  0  0  0  0  0  0  0  0  0  0
   38.3590   32.9100   40.2230 S   0  0  0  0  0  0  0  0  0  0  0  0
   38.6080   33.7950   41.4220 O   0  0  0  0  0  0  0  0  0  0  0  0
   38.0500   34.6250   41.5190 H   0  0  0  0  0  0  0  0  0  0  0  0
   37.9130   33.7460   39.0710 O   0  0  0  0  0  0  0  0  0  0  0  0
   38.0220   34.7220   38.9660 H   0  0  0  0  0  0  0  0  0  0  0  0
   39.8130   32.1670   39.8220 O   0  0  0  0  0  0  0  0  0  0  0  0
   40.3240   32.7910   38.6980 C   0  0  0  0  0  0  0  0  0  0  0  0
   41.3110   33.1820   38.9570 H   0  0  0  0  0  0  0  0  0  0  0  0
   39.7100   33.6060   38.2920 H   0  0  0  0  0  0  0  0  0  0  0  0
   40.4650   31.7870   37.5650 C   0  0  0  0  0  0  0  0  0  0  0  0
   39.8850   32.1040   36.6720 H   0  0  0  0  0  0  0  0  0  0  0  0
   40.1440   30.7870   37.9330 H   0  0  0  0  0  0  0  0  0  0  0  0
   41.9100   31.6050   37.2110 C   0  0  0  0  0  0  0  0  0  0  0  0
   42.4840   30.5590   36.4300 C   0  0  0  0  0  0  0  0  0  0  0  0
   41.8260   29.8040   36.0450 H   0  0  0  0  0  0  0  0  0  0  0  0
   43.8270   30.6170   36.2450 C   0  0  0  0  0  3  0  0  0  0  0  0
   44.6070   31.6640   36.8010 C   0  0  0  0  0  3  0  0  0  0  0  0
   43.3220   32.6830   37.6820 S   0  0  0  0  0  0  0  0  0  0  0  0
  1 23  1  0  0  0  0
  1  5  1  0  0  0  0
  2  1  1  0  0  0  0
  3  1  1  0  0  0  0
  4  5  2  0  0  0  0
  4  9  1  0  0  0  0
  5  6  1  0  0  0  0
  6 10  1  0  0  0  0
  6  7  2  0  0  0  0
  7 11  1  0  0  0  0
  8  7  1  0  0  0  0
  8 12  1  0  0  0  0
  9  8  2  0  0  0  0
 13  9  1  0  0  0  0
 14 15  1  0  0  0  0
 15 21  1  0  0  0  0
 15 16  2  0  0  0  0
 16  4  1  0  0  0  0
 17 16  1  0  0  0  0
 18 17  2  0  0  0  0
 19 14  2  0  0  0  0
 19 18  1  0  0  0  0
 20 14  1  0  0  0  0
 22 18  1  0  0  0  0
 23 24  1  0  0  0  0
 25 23  1  0  0  0  0
 25 26  1  0  0  0  0
 26 27  1  0  0  0  0
 28 25  1  0  0  0  0
 29 28  1  0  0  0  0
 30 25  1  0  0  0  0
 31 32  1  0  0  0  0
 31 30  1  0  0  0  0
 33 31  1  0  0  0  0
 34 36  1  0  0  0  0
 34 31  1  0  0  0  0
 35 34  1  0  0  0  0
 37 34  1  0  0  0  0
 37 42  1  0  0  0  0
 38 37  2  0  0  0  0
 39 38  1  0  0  0  0
 40 38  1  0  0  0  0
 40 41  2  0  0  0  0
 41 42  1  0  0  0  0
M  END
>  <minimizedAffinity>
-5.50273418

$$$$

 OpenBabel03252508483D

 42 44  0  0  0  0  0  0  0  0999 V2000
   37.2230   27.1530   42.8990 C   0  0  0  0  0  0  0  0  0  0  0  0
   36.9180   26.9120   43.9340 H   0  0  0  0  0  0  0  0  0  0  0  0
   38.1960   27.7190   42.9850 H   0  0  0  0  0  0  0  0  0  0  0  0
   38.8840   25.5800   41.8800 C   0  0  0  0  0  0  0  0  0  0  0  0
   37.5710   25.8970   42.1730 C   0  0  0  0  0  0  0  0  0  0  0  0
   36.5770   25.0240   41.7780 C   0  0  0  0  0  0  0  0  0  0  0  0
   36.9060   23.8730   41.1110 C   0  0  0  0  0  0  0  0  0  0  0  0
   38.2070   23.5370   40.8090 C   0  0  0  0  0  0  0  0  0  0  0  0
   39.1670   24.4430   41.2260 C   0  0  0  0  0  0  0  0  0  0  0  0
   35.5330   25.2190   41.9790 H   0  0  0  0  0  0  0  0  0  0  0  0
   36.1300   23.1830   40.7990 H   0  0  0  0  0  0  0  0  0  0  0  0
   38.5360   22.6630   40.2970 H   0  0  0  0  0  0  0  0  0  0  0  0
   40.2160   24.2630   41.0320 H   0  0  0  0  0  0  0  0  0  0  0  0
   41.3000   28.4890   42.0850 C   0  0  0  0  0  0  0  0  0  0  0  0
   40.3290   27.6190   41.5600 C   0  0  0  0  0  0  0  0  0  0  0  0
   39.8890   26.5470   42.3260 C   0  0  0  0  0  0  0  0  0  0  0  0
   40.4340   26.3960   43.5640 N   0  0  0  0  0  0  0  0  0  0  0  0
   41.3680   27.2410   44.0550 C   0  0  0  0  0  0  0  0  0  0  0  0
   41.7950   28.2860   43.3070 N   0  0  0  0  0  0  0  0  0  0  0  0
   41.6250   29.3080   41.4820 H   0  0  0  0  0  0  0  0  0  0  0  0
   39.8980   27.7410   40.5780 H   0  0  0  0  0  0  0  0  0  0  0  0
   41.7110   27.0020   45.0470 H   0  0  0  0  0  0  0  0  0  0  0  0
   36.2360   27.9650   42.2670 N   0  0  0  0  0  0  0  0  0  0  0  0
   35.3720   28.1290   42.8150 H   0  0  0  0  0  0  0  0  0  0  0  0
   36.8650   29.4500   41.7140 S   0  0  0  0  0  0  0  0  0  0  0  0
   37.9550   29.9600   42.6280 O   0  0  0  0  0  0  0  0  0  0  0  0
   37.6920   30.5830   43.3720 H   0  0  0  0  0  0  0  0  0  0  0  0
   35.7950   30.4810   41.5900 O   0  0  0  0  0  0  0  0  0  0  0  0
   35.8670   31.4430   41.8040 H   0  0  0  0  0  0  0  0  0  0  0  0
   37.5470   29.1910   40.1990 O   0  0  0  0  0  0  0  0  0  0  0  0
   36.6990   29.7240   39.2450 C   0  0  0  0  0  0  0  0  0  0  0  0
   35.9560   30.3320   39.7660 H   0  0  0  0  0  0  0  0  0  0  0  0
   36.1840   28.9910   38.6100 H   0  0  0  0  0  0  0  0  0  0  0  0
   37.4840   30.6070   38.2870 C   0  0  0  0  0  0  0  0  0  0  0  0
   36.8730   30.8830   37.4020 H   0  0  0  0  0  0  0  0  0  0  0  0
   38.4170   30.0740   37.9960 H   0  0  0  0  0  0  0  0  0  0  0  0
   37.9660   31.8380   38.9940 C   0  0  0  0  0  0  0  0  0  0  0  0
   37.2160   33.0130   39.2920 C   0  0  0  0  0  0  0  0  0  0  0  0
   36.1890   33.0430   38.9810 H   0  0  0  0  0  0  0  0  0  0  0  0
   37.8790   33.9970   39.9490 C   0  0  0  0  0  3  0  0  0  0  0  0
   39.2430   33.8540   40.3170 C   0  0  0  0  0  3  0  0  0  0  0  0
   39.6450   32.1550   39.6710 S   0  0  0  0  0  0  0  0  0  0  0  0
  1  3  1  0  0  0  0
  1  2  1  0  0  0  0
  4  5  1  0  0  0  0
  4 16  1  0  0  0  0
  5  1  1  0  0  0  0
  6 10  1  0  0  0  0
  6  5  2  0  0  0  0
  7  6  1  0  0  0  0
  8  7  2  0  0  0  0
  8  9  1  0  0  0  0
  9  4  2  0  0  0  0
 11  7  1  0  0  0  0
 12  8  1  0  0  0  0
 13  9  1  0  0  0  0
 14 19  1  0  0  0  0
 15 14  2  0  0  0  0
 15 16  1  0  0  0  0
 16 17  2  0  0  0  0
 17 18  1  0  0  0  0
 18 22  1  0  0  0  0
 19 18  2  0  0  0  0
 20 14  1  0  0  0  0
 21 15  1  0  0  0  0
 23 24  1  0  0  0  0
 23  1  1  0  0  0  0
 25 23  1  0  0  0  0
 25 26  1  0  0  0  0
 26 27  1  0  0  0  0
 28 25  1  0  0  0  0
 28 29  1  0  0  0  0
 30 25  1  0  0  0  0
 31 32  1  0  0  0  0
 31 30  1  0  0  0  0
 33 31  1  0  0  0  0
 34 37  1  0  0  0  0
 34 31  1  0  0  0  0
 35 34  1  0  0  0  0
 36 34  1  0  0  0  0
 37 38  2  0  0  0  0
 37 42  1  0  0  0  0
 38 40  1  0  0  0  0
 39 38  1  0  0  0  0
 40 41  2  0  0  0  0
 42 41  1  0  0  0  0
M  END
>  <minimizedAffinity>
-5.44731808

$$$$
