
 OpenBabel03252508463D

 42 44  0  0  0  0  0  0  0  0999 V2000
   42.9820   32.4670   41.6660 C   0  0  0  0  0  0  0  0  0  0  0  0
   42.0410   32.8990   41.2780 H   0  0  0  0  0  0  0  0  0  0  0  0
   43.5320   32.0620   40.7680 H   0  0  0  0  0  0  0  0  0  0  0  0
   43.6160   34.8810   41.8740 C   0  0  0  0  0  0  0  0  0  0  0  0
   43.8550   33.5580   42.1920 C   0  0  0  0  0  0  0  0  0  0  0  0
   44.9250   33.2580   43.0100 C   0  0  0  0  0  0  0  0  0  0  0  0
   45.7220   34.2650   43.4880 C   0  0  0  0  0  0  0  0  0  0  0  0
   45.5040   35.5900   43.1850 C   0  0  0  0  0  0  0  0  0  0  0  0
   44.4190   35.8400   42.3610 C   0  0  0  0  0  0  0  0  0  0  0  0
   45.1600   32.2410   43.2920 H   0  0  0  0  0  0  0  0  0  0  0  0
   46.5640   34.0350   44.1310 H   0  0  0  0  0  0  0  0  0  0  0  0
   46.0780   36.4220   43.5190 H   0  0  0  0  0  0  0  0  0  0  0  0
   44.1700   36.8520   42.0700 H   0  0  0  0  0  0  0  0  0  0  0  0
   40.1620   35.6770   40.5410 C   0  0  0  0  0  0  0  0  0  0  0  0
   41.1980   35.4550   41.4650 C   0  0  0  0  0  0  0  0  0  0  0  0
   42.4670   35.1320   41.0030 C   0  0  0  0  0  0  0  0  0  0  0  0
   42.6390   35.0460   39.6550 N   0  0  0  0  0  0  0  0  0  0  0  0
   41.6330   35.2620   38.7790 C   0  0  0  0  0  0  0  0  0  0  0  0
   40.3970   35.5770   39.2320 N   0  0  0  0  0  0  0  0  0  0  0  0
   39.1940   35.9250   40.9160 H   0  0  0  0  0  0  0  0  0  0  0  0
   41.0590   35.5250   42.5340 H   0  0  0  0  0  0  0  0  0  0  0  0
   41.9110   35.1600   37.7440 H   0  0  0  0  0  0  0  0  0  0  0  0
   42.7040   31.4160   42.5880 N   0  0  0  0  0  0  0  0  0  0  0  0
   43.0700   31.5520   43.5480 H   0  0  0  0  0  0  0  0  0  0  0  0
   41.0480   31.0180   42.6480 S   0  0  0  0  0  0  0  0  0  0  0  0
   40.1800   32.2430   42.4710 O   0  0  0  0  0  0  0  0  0  0  0  0
   39.8820   32.7330   43.2970 H   0  0  0  0  0  0  0  0  0  0  0  0
   40.6970   30.3410   43.9310 O   0  0  0  0  0  0  0  0  0  0  0  0
   39.8700   30.4570   44.4590 H   0  0  0  0  0  0  0  0  0  0  0  0
   40.7210   29.9700   41.3750 O   0  0  0  0  0  0  0  0  0  0  0  0
   39.3520   29.9480   41.1710 C   0  0  0  0  0  0  0  0  0  0  0  0
   39.1790   29.9790   40.0940 H   0  0  0  0  0  0  0  0  0  0  0  0
   38.7920   30.7620   41.6500 H   0  0  0  0  0  0  0  0  0  0  0  0
   38.7630   28.6650   41.7370 C   0  0  0  0  0  0  0  0  0  0  0  0
   38.4750   28.7900   42.8020 H   0  0  0  0  0  0  0  0  0  0  0  0
   39.5020   27.8440   41.6010 H   0  0  0  0  0  0  0  0  0  0  0  0
   37.5800   28.2360   40.9230 C   0  0  0  0  0  0  0  0  0  0  0  0
   36.7040   29.0680   40.1660 C   0  0  0  0  0  0  0  0  0  0  0  0
   36.8910   30.1250   40.1680 H   0  0  0  0  0  0  0  0  0  0  0  0
   35.6990   28.4390   39.5060 C   0  0  0  0  0  3  0  0  0  0  0  0
   35.5400   27.0290   39.5700 C   0  0  0  0  0  3  0  0  0  0  0  0
   36.9490   26.5270   40.6780 S   0  0  0  0  0  0  0  0  0  0  0  0
  1  5  1  0  0  0  0
  1 23  1  0  0  0  0
  2  1  1  0  0  0  0
  3  1  1  0  0  0  0
  4  5  2  0  0  0  0
  4  9  1  0  0  0  0
  5  6  1  0  0  0  0
  6 10  1  0  0  0  0
  6  7  2  0  0  0  0
  7 11  1  0  0  0  0
  8  7  1  0  0  0  0
  8 12  1  0  0  0  0
  9  8  2  0  0  0  0
 13  9  1  0  0  0  0
 14 20  1  0  0  0  0
 14 15  1  0  0  0  0
 15 21  1  0  0  0  0
 16 15  2  0  0  0  0
 16  4  1  0  0  0  0
 17 16  1  0  0  0  0
 18 19  1  0  0  0  0
 18 17  2  0  0  0  0
 19 14  2  0  0  0  0
 22 18  1  0  0  0  0
 23 25  1  0  0  0  0
 23 24  1  0  0  0  0
 25 28  1  0  0  0  0
 26 25  1  0  0  0  0
 26 27  1  0  0  0  0
 28 29  1  0  0  0  0
 30 25  1  0  0  0  0
 31 30  1  0  0  0  0
 31 33  1  0  0  0  0
 31 34  1  0  0  0  0
 32 31  1  0  0  0  0
 34 35  1  0  0  0  0
 36 34  1  0  0  0  0
 37 34  1  0  0  0  0
 38 39  1  0  0  0  0
 38 37  2  0  0  0  0
 40 41  2  0  0  0  0
 40 38  1  0  0  0  0
 41 42  1  0  0  0  0
 42 37  1  0  0  0  0
M  END
>  <minimizedAffinity>
-5.31622744

>  <minimizedRMSD>
2.12000728

$$$$
