
 OpenBabel03252504533D

 18 19  0  0  0  0  0  0  0  0999 V2000
   44.6060   35.5570   45.1960 C   0  0  0  0  0  0  0  0  0  0  0  0
   44.4470   35.5410   43.7990 C   0  0  0  0  0  0  0  0  0  0  0  0
   44.8640   34.3940   43.1350 C   0  0  0  0  0  0  0  0  0  0  0  0
   45.4000   33.3580   43.8630 N   0  0  0  0  0  0  0  0  0  0  0  0
   45.5290   33.4320   45.2050 C   0  0  0  0  0  0  0  0  0  0  0  0
   45.1330   34.5270   45.8650 N   0  0  0  0  0  0  0  0  0  0  0  0
   44.2700   36.4700   45.6870 H   0  0  0  0  0  0  0  0  0  0  0  0
   44.0270   36.3600   43.2640 H   0  0  0  0  0  0  0  0  0  0  0  0
   45.9510   32.6140   45.7730 H   0  0  0  0  0  0  0  0  0  0  0  0
   44.6980   34.3740   41.6790 C   0  0  0  0  0  0  0  0  0  0  0  0
   44.1320   33.4790   41.3410 H   0  0  0  0  0  0  0  0  0  0  0  0
   44.1770   35.2900   41.3430 H   0  0  0  0  0  0  0  0  0  0  0  0
   46.0290   34.3040   41.0310 C   0  0  0  0  0  0  0  0  0  0  0  0
   47.1940   34.9320   41.3400 C   0  0  0  0  0  0  0  0  0  0  0  0
   47.2030   35.6010   42.1880 H   0  0  0  0  0  0  0  0  0  0  0  0
   48.2900   34.6730   40.5520 C   0  0  0  0  0  3  0  0  0  0  0  0
   48.1730   33.8120   39.5070 C   0  0  0  0  0  3  0  0  0  0  0  0
   46.4000   33.3000   39.6000 S   0  0  0  0  0  0  0  0  0  0  0  0
  1  7  1  0  0  0  0
  1  6  1  0  0  0  0
  2  1  2  0  0  0  0
  3  2  1  0  0  0  0
  3  4  2  0  0  0  0
  4  5  1  0  0  0  0
  5  9  1  0  0  0  0
  5  6  2  0  0  0  0
  8  2  1  0  0  0  0
 10  3  1  0  0  0  0
 11 10  1  0  0  0  0
 12 10  1  0  0  0  0
 13 14  2  0  0  0  0
 13 10  1  0  0  0  0
 14 15  1  0  0  0  0
 16 14  1  0  0  0  0
 17 18  1  0  0  0  0
 17 16  2  0  0  0  0
 18 13  1  0  0  0  0
M  END
>  <minimizedAffinity>
-3.75403476

>  <minimizedRMSD>
2.52901292

$$$$
