
 OpenBabel03242523533D

 42 45  0  0  1  0  0  0  0  0999 V2000
   42.8110   34.5000   38.7610 C   0  0  1  0  0  0  0  0  0  0  0  0
   42.9580   35.1850   40.1110 C   0  0  1  0  0  0  0  0  0  0  0  0
   41.6730   35.4330   40.6260 O   0  0  0  0  0  0  0  0  0  0  0  0
   40.7500   35.7640   39.6320 C   0  0  0  0  0  0  0  0  0  0  0  0
   40.4290   34.5760   38.7420 C   0  0  2  0  0  0  0  0  0  0  0  0
   41.6370   33.5850   38.8860 C   0  0  1  0  0  0  0  0  0  0  0  0
   43.7520   33.9580   38.4910 H   0  0  0  0  0  0  0  0  0  0  0  0
   43.5620   36.1040   40.0670 H   0  0  0  0  0  0  0  0  0  0  0  0
   39.8270   36.0420   40.1520 H   0  0  0  0  0  0  0  0  0  0  0  0
   41.0690   36.6480   39.0460 H   0  0  0  0  0  0  0  0  0  0  0  0
   39.4960   34.0750   39.0390 H   0  0  0  0  0  0  0  0  0  0  0  0
   41.4230   33.3240   39.9760 H   0  0  0  0  0  0  0  0  0  0  0  0
   42.6010   35.4400   37.7410 O   0  0  0  0  0  0  0  0  0  0  0  0
   43.4160   35.9170   37.5210 H   0  0  0  0  0  0  0  0  0  0  0  0
   40.4460   34.9740   37.4130 O   0  0  0  0  0  0  0  0  0  0  0  0
   39.5260   35.1870   37.0800 H   0  0  0  0  0  0  0  0  0  0  0  0
   43.4870   34.2070   40.9680 O   0  0  0  0  0  0  0  0  0  0  0  0
   44.5970   34.3470   41.7030 C   0  0  0  0  0  0  0  0  0  0  0  0
   45.8580   34.4420   41.0960 C   0  0  0  0  0  0  0  0  0  0  0  0
   46.9730   34.5880   41.9050 C   0  0  0  0  0  0  0  0  0  0  0  0
   46.8110   34.6360   43.2790 N   0  0  0  0  0  0  0  0  0  0  0  0
   45.5780   34.5410   43.8270 C   0  0  0  0  0  0  0  0  0  0  0  0
   44.4780   34.3970   43.0430 N   0  0  0  0  0  0  0  0  0  0  0  0
   45.9920   34.4060   40.0290 H   0  0  0  0  0  0  0  0  0  0  0  0
   45.5270   34.5860   44.9080 H   0  0  0  0  0  0  0  0  0  0  0  0
   48.3510   34.6800   41.3340 C   0  0  0  0  0  0  0  0  0  0  0  0
   49.0740   36.0160   41.5030 C   0  0  0  0  0  0  0  0  0  0  0  0
   49.5030   34.7000   42.1790 C   0  0  0  0  0  0  0  0  0  0  0  0
   48.4150   34.2810   40.2830 H   0  0  0  0  0  0  0  0  0  0  0  0
   48.6290   36.7540   42.1710 H   0  0  0  0  0  0  0  0  0  0  0  0
   49.7590   36.3330   40.6940 H   0  0  0  0  0  0  0  0  0  0  0  0
   50.4570   34.2350   41.8580 H   0  0  0  0  0  0  0  0  0  0  0  0
   49.3560   34.6450   43.2850 H   0  0  0  0  0  0  0  0  0  0  0  0
   41.4900   32.6300   37.9470 O   0  0  0  0  0  0  0  0  0  0  0  0
   40.7980   31.4940   37.9670 C   0  0  0  0  0  0  0  0  0  0  0  0
   39.5960   31.3710   37.4310 O   0  0  0  0  0  0  0  0  0  0  0  0
   41.0990   30.0470   38.5470 C   0  0  0  0  0  0  0  0  0  0  0  0
   41.4470   28.9390   37.9970 C   0  0  0  0  0  0  0  0  0  0  0  0
   41.5710   28.9860   36.9210 H   0  0  0  0  0  0  0  0  0  0  0  0
   41.6300   27.8290   38.7590 C   0  0  0  0  0  3  0  0  0  0  0  0
   41.4190   27.9820   40.1340 C   0  0  0  0  0  3  0  0  0  0  0  0
   40.9370   29.8420   40.2370 S   0  0  0  0  0  0  0  0  0  0  0  0
  1  7  1  6  0  0  0
  1  6  1  0  0  0  0
  1  2  1  0  0  0  0
  2  8  1  6  0  0  0
  2  3  1  0  0  0  0
  2 17  1  0  0  0  0
  4  9  1  0  0  0  0
  4  3  1  0  0  0  0
  5  6  1  0  0  0  0
  5 11  1  1  0  0  0
  5  4  1  0  0  0  0
  6 12  1  1  0  0  0
 10  4  1  0  0  0  0
 13  1  1  0  0  0  0
 14 13  1  0  0  0  0
 15  5  1  0  0  0  0
 16 15  1  0  0  0  0
 17 18  1  0  0  0  0
 18 23  1  0  0  0  0
 19 18  2  0  0  0  0
 19 20  1  0  0  0  0
 20 21  2  0  0  0  0
 21 22  1  0  0  0  0
 22 25  1  0  0  0  0
 23 22  2  0  0  0  0
 24 19  1  0  0  0  0
 26 27  1  0  0  0  0
 26 20  1  0  0  0  0
 26 28  1  0  0  0  0
 27 30  1  0  0  0  0
 27 28  1  0  0  0  0
 28 33  1  0  0  0  0
 29 26  1  0  0  0  0
 31 27  1  0  0  0  0
 32 28  1  0  0  0  0
 34 35  1  0  0  0  0
 34  6  1  0  0  0  0
 35 37  1  0  0  0  0
 36 35  2  0  0  0  0
 37 42  1  0  0  0  0
 38 37  2  0  0  0  0
 38 40  1  0  0  0  0
 39 38  1  0  0  0  0
 40 41  2  0  0  0  0
 41 42  1  0  0  0  0
M  END
>  <minimizedAffinity>
-5.63427973

>  <minimizedRMSD>
0.243246496

$$$$
