
 OpenBabel03252507553D

 41 44  0  0  1  0  0  0  0  0999 V2000
   47.0590   34.7830   41.9130 C   0  0  2  0  0  0  0  0  0  0  0  0
   46.2630   34.2150   40.7370 C   0  0  0  0  0  0  0  0  0  0  0  0
   47.4310   34.0570   39.7420 C   0  0  0  0  0  0  0  0  0  0  0  0
   48.6000   33.6510   40.5840 C   0  0  1  0  0  0  0  0  0  0  0  0
   48.1350   33.7350   42.0080 C   0  0  0  0  0  0  0  0  0  0  0  0
   47.4510   35.7560   41.6050 H   0  0  0  0  0  0  0  0  0  0  0  0
   45.8950   33.2130   40.9780 H   0  0  0  0  0  0  0  0  0  0  0  0
   45.5180   34.9180   40.3550 H   0  0  0  0  0  0  0  0  0  0  0  0
   47.6480   35.0690   39.3250 H   0  0  0  0  0  0  0  0  0  0  0  0
   47.1750   33.3140   38.9670 H   0  0  0  0  0  0  0  0  0  0  0  0
   49.4770   34.3250   40.4630 H   0  0  0  0  0  0  0  0  0  0  0  0
   48.9230   34.1330   42.6820 H   0  0  0  0  0  0  0  0  0  0  0  0
   47.6930   32.7910   42.3760 H   0  0  0  0  0  0  0  0  0  0  0  0
   44.5780   35.8220   44.5480 C   0  0  0  0  0  0  0  0  0  0  0  0
   45.2710   35.8470   43.3290 C   0  0  0  0  0  0  0  0  0  0  0  0
   46.2330   34.8580   43.1470 C   0  0  0  0  0  0  0  0  0  0  0  0
   46.4780   33.9000   44.1420 N   0  0  0  0  0  0  0  0  0  0  0  0
   45.7700   33.9360   45.2990 C   0  0  0  0  0  0  0  0  0  0  0  0
   44.8250   34.8950   45.4960 N   0  0  0  0  0  0  0  0  0  0  0  0
   43.8220   36.5820   44.7190 H   0  0  0  0  0  0  0  0  0  0  0  0
   45.1070   36.5660   42.5510 H   0  0  0  0  0  0  0  0  0  0  0  0
   46.0500   33.1490   45.9820 H   0  0  0  0  0  0  0  0  0  0  0  0
   49.0760   32.2350   40.3530 C   0  0  2  0  0  0  0  0  0  0  0  0
   50.2620   31.8330   41.1020 C   0  0  0  0  0  0  0  0  0  0  0  0
   50.3100   31.9520   39.6160 C   0  0  1  0  0  0  0  0  0  0  0  0
   48.2550   31.5030   40.2570 H   0  0  0  0  0  0  0  0  0  0  0  0
   50.7590   32.5560   41.7510 H   0  0  0  0  0  0  0  0  0  0  0  0
   50.2490   30.8070   41.5720 H   0  0  0  0  0  0  0  0  0  0  0  0
   50.8370   32.8060   39.1670 H   0  0  0  0  0  0  0  0  0  0  0  0
   50.3590   30.7540   38.8640 O   0  0  0  0  0  0  0  0  0  0  0  0
   50.8470   30.9110   36.3100 O   0  0  0  0  0  0  0  0  0  0  0  0
   51.5170   30.9290   37.6640 P   0  0  1  0  0  0  0  0  0  0  0  0
   52.2970   32.4510   37.8250 O   0  0  0  0  0  0  0  0  0  0  0  0
   52.7840   32.4290   38.7050 H   0  0  0  0  0  0  0  0  0  0  0  0
   52.7190   29.7840   37.6720 O   0  0  0  0  0  0  0  0  0  0  0  0
   53.8910   30.0310   36.9620 C   0  0  0  0  0  0  0  0  0  0  0  0
   55.0710   30.6440   37.1840 C   0  0  0  0  0  0  0  0  0  0  0  0
   55.1250   31.0580   38.1820 H   0  0  0  0  0  0  0  0  0  0  0  0
   56.0290   30.7010   36.2340 C   0  0  0  0  0  3  0  0  0  0  0  0
   55.7020   30.0770   35.0130 C   0  0  0  0  0  3  0  0  0  0  0  0
   53.9600   29.4250   35.3350 S   0  0  0  0  0  0  0  0  0  0  0  0
  1  6  1  6  0  0  0
  1  5  1  0  0  0  0
  1 16  1  0  0  0  0
  2  7  1  0  0  0  0
  2  1  1  0  0  0  0
  3  4  1  0  0  0  0
  3  2  1  0  0  0  0
  4 11  1  6  0  0  0
  4  5  1  0  0  0  0
  5 13  1  0  0  0  0
  5 12  1  0  0  0  0
  8  2  1  0  0  0  0
  9  3  1  0  0  0  0
 10  3  1  0  0  0  0
 14 20  1  0  0  0  0
 14 19  1  0  0  0  0
 15 14  2  0  0  0  0
 16 15  1  0  0  0  0
 16 17  2  0  0  0  0
 17 18  1  0  0  0  0
 18 19  2  0  0  0  0
 18 22  1  0  0  0  0
 21 15  1  0  0  0  0
 23 26  1  6  0  0  0
 23  4  1  0  0  0  0
 23 24  1  0  0  0  0
 24 28  1  0  0  0  0
 24 27  1  0  0  0  0
 25 29  1  6  0  0  0
 25 23  1  0  0  0  0
 25 24  1  0  0  0  0
 30 25  1  0  0  0  0
 32 31  2  6  0  0  0
 32 35  1  0  0  0  0
 32 33  1  0  0  0  0
 32 30  1  0  0  0  0
 33 34  1  0  0  0  0
 36 37  2  0  0  0  0
 36 35  1  0  0  0  0
 37 38  1  0  0  0  0
 39 37  1  0  0  0  0
 40 41  1  0  0  0  0
 40 39  2  0  0  0  0
 41 36  1  0  0  0  0
M  END
>  <minimizedAffinity>
-5.48619461

>  <minimizedRMSD>
1.68448329

$$$$
