
 OpenBabel03252505513D

 22 23  0  0  0  0  0  0  0  0999 V2000
   44.6900   35.1590   45.1150 C   0  0  0  0  0  0  0  0  0  0  0  0
   45.4070   34.9230   43.9440 C   0  0  0  0  0  0  0  0  0  0  0  0
   46.3780   33.9020   43.9630 C   0  0  0  0  0  0  0  0  0  0  0  0
   46.5670   33.2040   45.1070 N   0  0  0  0  0  0  0  0  0  0  0  0
   45.8550   33.4630   46.2120 C   0  0  0  0  0  0  0  0  0  0  0  0
   44.9170   34.4310   46.2380 N   0  0  0  0  0  0  0  0  0  0  0  0
   43.9430   35.9380   45.1160 H   0  0  0  0  0  0  0  0  0  0  0  0
   46.9070   33.7500   43.0510 H   0  0  0  0  0  0  0  0  0  0  0  0
   45.0890   35.7730   42.7490 C   0  0  0  0  0  0  0  0  0  0  0  0
   45.3810   37.0530   43.1170 F   0  0  0  0  0  0  0  0  0  0  0  0
   43.7190   35.6380   42.5360 F   0  0  0  0  0  0  0  0  0  0  0  0
   45.7980   35.2930   41.6820 F   0  0  0  0  0  0  0  0  0  0  0  0
   46.0170   32.7730   47.3980 O   0  0  0  0  0  0  0  0  0  0  0  0
   47.1720   32.0070   47.6740 C   0  0  0  0  0  0  0  0  0  0  0  0
   47.9450   32.1340   46.8700 H   0  0  0  0  0  0  0  0  0  0  0  0
   47.5960   32.1980   48.6740 H   0  0  0  0  0  0  0  0  0  0  0  0
   46.7580   30.5810   47.5940 C   0  0  0  0  0  0  0  0  0  0  0  0
   47.4510   29.4850   47.2700 C   0  0  0  0  0  0  0  0  0  0  0  0
   48.4960   29.6050   47.0150 H   0  0  0  0  0  0  0  0  0  0  0  0
   46.8690   28.2460   47.2580 C   0  0  0  0  0  3  0  0  0  0  0  0
   45.4640   28.2620   47.6250 C   0  0  0  0  0  3  0  0  0  0  0  0
   45.1460   30.0840   47.9470 S   0  0  0  0  0  0  0  0  0  0  0  0
  1  7  1  0  0  0  0
  1  6  1  0  0  0  0
  2  3  1  0  0  0  0
  2  1  2  0  0  0  0
  3  4  2  0  0  0  0
  4  5  1  0  0  0  0
  5  6  2  0  0  0  0
  5 13  1  0  0  0  0
  8  3  1  0  0  0  0
  9 10  1  0  0  0  0
  9  2  1  0  0  0  0
 11  9  1  0  0  0  0
 12  9  1  0  0  0  0
 13 14  1  0  0  0  0
 14 16  1  0  0  0  0
 15 14  1  0  0  0  0
 17 14  1  0  0  0  0
 17 22  1  0  0  0  0
 18 17  2  0  0  0  0
 19 18  1  0  0  0  0
 20 18  1  0  0  0  0
 20 21  2  0  0  0  0
 21 22  1  0  0  0  0
M  END
>  <minimizedAffinity>
-4.50458717

>  <minimizedRMSD>
2.4064765

$$$$
