
 OpenBabel03242514103D

 43 46  0  0  1  0  0  0  0  0999 V2000
   47.5090   33.7210   42.2480 C   0  0  0  0  0  0  0  0  0  0  0  0
   48.2560   34.8770   42.1530 C   0  0  0  0  0  0  0  0  0  0  0  0
   48.6410   35.4530   40.9530 C   0  0  0  0  0  0  0  0  0  0  0  0
   48.2040   34.7570   39.8170 C   0  0  0  0  0  0  0  0  0  0  0  0
   47.4450   33.5800   39.9110 C   0  0  0  0  0  0  0  0  0  0  0  0
   47.1070   33.0780   41.1150 N   0  0  0  0  0  0  0  0  0  0  0  0
   48.5450   35.3410   43.0930 H   0  0  0  0  0  0  0  0  0  0  0  0
   49.2210   36.3510   40.9250 H   0  0  0  0  0  0  0  0  0  0  0  0
   48.5350   35.2490   38.9150 H   0  0  0  0  0  0  0  0  0  0  0  0
   47.0080   32.9190   38.6870 C   0  0  1  0  0  0  0  0  0  0  0  0
   45.4670   33.1940   38.4340 C   0  0  0  0  0  0  0  0  0  0  0  0
   45.1200   32.0710   37.4090 C   0  0  0  0  0  0  0  0  0  0  0  0
   45.7490   32.5800   36.1050 C   0  0  0  0  0  0  0  0  0  0  0  0
   47.2210   32.6660   36.2210 C   0  0  0  0  0  0  0  0  0  0  0  0
   47.7760   33.1550   37.5040 C   0  0  2  0  0  0  0  0  0  0  0  0
   46.9580   31.8180   38.9420 H   0  0  0  0  0  0  0  0  0  0  0  0
   45.3960   34.1800   37.9670 H   0  0  0  0  0  0  0  0  0  0  0  0
   44.9290   33.0530   39.3690 H   0  0  0  0  0  0  0  0  0  0  0  0
   45.5780   31.1360   37.7350 H   0  0  0  0  0  0  0  0  0  0  0  0
   44.0390   32.0450   37.2530 H   0  0  0  0  0  0  0  0  0  0  0  0
   45.4540   31.8310   35.3400 H   0  0  0  0  0  0  0  0  0  0  0  0
   45.2310   33.5080   35.8510 H   0  0  0  0  0  0  0  0  0  0  0  0
   47.6080   31.6310   35.9770 H   0  0  0  0  0  0  0  0  0  0  0  0
   47.6010   33.2740   35.3710 H   0  0  0  0  0  0  0  0  0  0  0  0
   47.9440   34.2670   37.3610 H   0  0  0  0  0  0  0  0  0  0  0  0
   49.3720   32.3050   37.7280 S   0  0  0  0  0  0  0  0  0  0  0  0
   50.3580   33.0620   37.0950 H   0  0  0  0  0  0  0  0  0  0  0  0
   47.2280   31.6300   45.2330 C   0  0  0  0  0  0  0  0  0  0  0  0
   46.3360   32.3330   46.0380 C   0  0  0  0  0  0  0  0  0  0  0  0
   45.8500   33.5120   45.5370 C   0  0  0  0  0  0  0  0  0  0  0  0
   46.2550   33.9300   44.3000 N   0  0  0  0  0  0  0  0  0  0  0  0
   47.1440   33.1880   43.5470 C   0  0  0  0  0  0  0  0  0  0  0  0
   47.6050   32.0790   44.0100 N   0  0  0  0  0  0  0  0  0  0  0  0
   44.9490   34.3360   46.2070 N   0  0  0  0  0  0  0  0  0  0  0  0
   47.6720   30.6870   45.5330 H   0  0  0  0  0  0  0  0  0  0  0  0
   44.0340   34.0070   45.8620 H   0  0  0  0  0  0  0  0  0  0  0  0
   45.5400   34.9720   46.8020 H   0  0  0  0  0  0  0  0  0  0  0  0
   45.9430   31.8620   47.3150 C   0  0  0  0  0  0  0  0  0  0  0  0
   45.9420   32.3690   48.5800 C   0  0  0  0  0  0  0  0  0  0  0  0
   46.3030   33.3610   48.8030 H   0  0  0  0  0  0  0  0  0  0  0  0
   45.4780   31.6250   49.6190 C   0  0  0  0  0  0  0  0  0  0  0  0
   44.9980   30.2910   49.2910 C   0  0  0  0  0  0  0  0  0  0  0  0
   45.2580   30.1960   47.4340 S   0  0  0  0  0  0  0  0  0  0  0  0
  1 32  1  0  0  0  0
  2  1  1  0  0  0  0
  2  7  1  0  0  0  0
  3  2  2  0  0  0  0
  4  5  2  0  0  0  0
  4  3  1  0  0  0  0
  5  6  1  0  0  0  0
  6  1  2  0  0  0  0
  8  3  1  0  0  0  0
  9  4  1  0  0  0  0
 10 16  1  1  0  0  0
 10  5  1  0  0  0  0
 11 10  1  0  0  0  0
 11 18  1  0  0  0  0
 12 19  1  0  0  0  0
 12 11  1  0  0  0  0
 13 14  1  0  0  0  0
 13 12  1  0  0  0  0
 14 15  1  0  0  0  0
 15 25  1  6  0  0  0
 15 26  1  0  0  0  0
 15 10  1  0  0  0  0
 17 11  1  0  0  0  0
 20 12  1  0  0  0  0
 21 13  1  0  0  0  0
 22 13  1  0  0  0  0
 23 14  1  0  0  0  0
 24 14  1  0  0  0  0
 27 26  1  0  0  0  0
 28 35  1  0  0  0  0
 28 29  1  0  0  0  0
 29 38  1  0  0  0  0
 30 29  2  0  0  0  0
 30 34  1  0  0  0  0
 31 30  1  0  0  0  0
 32 33  1  0  0  0  0
 32 31  2  0  0  0  0
 33 28  2  0  0  0  0
 34 37  1  0  0  0  0
 36 34  1  0  0  0  0
 38 43  1  0  0  0  0
 38 39  2  0  0  0  0
 39 40  1  0  0  0  0
 39 41  1  0  0  0  0
 42 41  2  0  0  0  0
 43 42  1  0  0  0  0
M  END
>  <minimizedAffinity>
-6.49959517

>  <minimizedRMSD>
0.977515459

$$$$
