
 OpenBabel03252508163D

 34 37  0  0  1  0  0  0  0  0999 V2000
   39.2040   26.8240   43.5700 C   0  0  0  0  0  0  0  0  0  0  0  0
   39.8910   27.0520   44.4210 H   0  0  0  0  0  0  0  0  0  0  0  0
   38.1910   26.5260   43.8950 H   0  0  0  0  0  0  0  0  0  0  0  0
   39.8330   25.7530   42.7110 C   0  0  1  0  0  0  0  0  0  0  0  0
   39.7800   24.3650   43.2420 C   0  0  0  0  0  0  0  0  0  0  0  0
   38.9660   24.7190   42.0940 C   0  0  1  0  0  0  0  0  0  0  0  0
   40.6930   26.0560   42.0890 H   0  0  0  0  0  0  0  0  0  0  0  0
   39.2470   24.2060   44.2100 H   0  0  0  0  0  0  0  0  0  0  0  0
   40.6680   23.6950   43.1400 H   0  0  0  0  0  0  0  0  0  0  0  0
   39.3160   24.2550   41.1190 H   0  0  0  0  0  0  0  0  0  0  0  0
   37.5020   24.9420   42.1120 C   0  0  0  0  0  0  0  0  0  0  0  0
   36.6960   24.0880   41.1030 C   0  0  0  0  0  0  0  0  0  0  0  0
   36.9090   25.5200   40.8130 C   0  0  0  0  0  0  0  0  0  0  0  0
   36.9770   25.2010   43.0520 H   0  0  0  0  0  0  0  0  0  0  0  0
   35.6880   23.7590   41.4280 H   0  0  0  0  0  0  0  0  0  0  0  0
   37.2510   23.2810   40.5890 H   0  0  0  0  0  0  0  0  0  0  0  0
   37.6260   25.7230   39.9790 H   0  0  0  0  0  0  0  0  0  0  0  0
   36.0610   26.2090   40.9540 H   0  0  0  0  0  0  0  0  0  0  0  0
   37.9160   28.6030   42.6740 C   0  0  0  0  0  3  0  0  0  0  0  0
   39.0910   28.1170   42.7840 C   0  0  0  0  0  3  0  0  0  0  0  0
   36.4080   31.3040   40.6860 C   0  0  0  0  0  0  0  0  0  0  0  0
   37.4730   32.1550   40.4350 C   0  0  0  0  0  0  0  0  0  0  0  0
   38.6710   31.7890   40.9650 C   0  0  0  0  0  0  0  0  0  0  0  0
   38.7800   30.6480   41.6930 N   0  0  0  0  0  0  0  0  0  0  0  0
   37.7350   29.8370   41.9220 C   0  0  0  0  0  0  0  0  0  0  0  0
   36.5640   30.1970   41.4030 N   0  0  0  0  0  0  0  0  0  0  0  0
   35.4640   31.6140   40.2550 H   0  0  0  0  0  0  0  0  0  0  0  0
   37.5050   33.0640   39.8850 H   0  0  0  0  0  0  0  0  0  0  0  0
   39.9460   32.5330   40.8350 C   0  0  0  0  0  0  0  0  0  0  0  0
   41.2000   32.0840   41.2800 C   0  0  0  0  0  0  0  0  0  0  0  0
   41.2930   31.1240   41.7630 H   0  0  0  0  0  0  0  0  0  0  0  0
   42.2600   32.9100   41.0730 C   0  0  0  0  0  3  0  0  0  0  0  0
   42.1370   34.1450   40.4520 C   0  0  0  0  0  3  0  0  0  0  0  0
   40.2450   34.1380   40.1110 S   0  0  0  0  0  0  0  0  0  0  0  0
  1  3  1  0  0  0  0
  1  2  1  0  0  0  0
  4  7  1  6  0  0  0
  4  5  1  0  0  0  0
  4  1  1  0  0  0  0
  5  8  1  0  0  0  0
  6 10  1  6  0  0  0
  6 11  1  0  0  0  0
  6  4  1  0  0  0  0
  6  5  1  0  0  0  0
  9  5  1  0  0  0  0
 11 14  1  0  0  0  0
 12 15  1  0  0  0  0
 12 11  1  0  0  0  0
 13 18  1  0  0  0  0
 13 12  1  0  0  0  0
 13 11  1  0  0  0  0
 16 12  1  0  0  0  0
 17 13  1  0  0  0  0
 19 20  2  0  0  0  0
 20  1  1  0  0  0  0
 21 26  1  0  0  0  0
 22 21  2  0  0  0  0
 22 23  1  0  0  0  0
 23 24  2  0  0  0  0
 24 25  1  0  0  0  0
 25 19  1  0  0  0  0
 26 25  2  0  0  0  0
 27 21  1  0  0  0  0
 28 22  1  0  0  0  0
 29 23  1  0  0  0  0
 29 30  2  0  0  0  0
 30 31  1  0  0  0  0
 32 30  1  0  0  0  0
 33 32  2  0  0  0  0
 34 33  1  0  0  0  0
 34 29  1  0  0  0  0
M  END
>  <minimizedAffinity>
-5.27981663

$$$$

 OpenBabel03252508163D

 34 37  0  0  1  0  0  0  0  0999 V2000
   33.0200   28.8140   37.5320 C   0  0  0  0  0  0  0  0  0  0  0  0
   32.7340   27.7360   37.5850 H   0  0  0  0  0  0  0  0  0  0  0  0
   32.2790   29.4860   38.0010 H   0  0  0  0  0  0  0  0  0  0  0  0
   33.2470   29.1860   36.0860 C   0  0  1  0  0  0  0  0  0  0  0  0
   32.4380   28.4500   35.0800 C   0  0  0  0  0  0  0  0  0  0  0  0
   32.1580   29.8510   35.3310 C   0  0  1  0  0  0  0  0  0  0  0  0
   34.2620   29.5240   35.8140 H   0  0  0  0  0  0  0  0  0  0  0  0
   31.6940   27.7090   35.4620 H   0  0  0  0  0  0  0  0  0  0  0  0
   32.9080   28.1130   34.1240 H   0  0  0  0  0  0  0  0  0  0  0  0
   32.4550   30.5410   34.4800 H   0  0  0  0  0  0  0  0  0  0  0  0
   31.0030   30.3760   36.0960 C   0  0  0  0  0  0  0  0  0  0  0  0
   29.8240   30.8910   35.2360 C   0  0  0  0  0  0  0  0  0  0  0  0
   30.7070   31.8740   35.8960 C   0  0  0  0  0  0  0  0  0  0  0  0
   30.7310   29.9460   37.0800 H   0  0  0  0  0  0  0  0  0  0  0  0
   28.8070   30.7350   35.6470 H   0  0  0  0  0  0  0  0  0  0  0  0
   29.8730   30.6700   34.1530 H   0  0  0  0  0  0  0  0  0  0  0  0
   31.3820   32.4320   35.2000 H   0  0  0  0  0  0  0  0  0  0  0  0
   30.3260   32.3970   36.7870 H   0  0  0  0  0  0  0  0  0  0  0  0
   34.2120   29.2320   39.5390 C   0  0  0  0  0  3  0  0  0  0  0  0
   34.3210   28.9260   38.3060 C   0  0  0  0  0  3  0  0  0  0  0  0
   36.8850   28.5970   41.9840 C   0  0  0  0  0  0  0  0  0  0  0  0
   37.6940   29.7190   41.8790 C   0  0  0  0  0  0  0  0  0  0  0  0
   37.3110   30.6510   40.9660 C   0  0  0  0  0  0  0  0  0  0  0  0
   36.1930   30.4600   40.2170 N   0  0  0  0  0  0  0  0  0  0  0  0
   35.4240   29.3680   40.3370 C   0  0  0  0  0  0  0  0  0  0  0  0
   35.8010   28.4560   41.2300 N   0  0  0  0  0  0  0  0  0  0  0  0
   37.2100   27.8680   42.7160 H   0  0  0  0  0  0  0  0  0  0  0  0
   38.5820   29.9720   42.4060 H   0  0  0  0  0  0  0  0  0  0  0  0
   38.0090   31.9250   40.6730 C   0  0  0  0  0  0  0  0  0  0  0  0
   37.4290   33.0520   40.0680 C   0  0  0  0  0  0  0  0  0  0  0  0
   36.3920   33.0380   39.7760 H   0  0  0  0  0  0  0  0  0  0  0  0
   38.2330   34.1320   39.8800 C   0  0  0  0  0  3  0  0  0  0  0  0
   39.5690   34.1470   40.2570 C   0  0  0  0  0  3  0  0  0  0  0  0
   39.7090   32.3750   40.9870 S   0  0  0  0  0  0  0  0  0  0  0  0
  1  2  1  0  0  0  0
  1  3  1  0  0  0  0
  1 20  1  0  0  0  0
  4  7  1  6  0  0  0
  4  1  1  0  0  0  0
  5  6  1  0  0  0  0
  5  8  1  0  0  0  0
  5  4  1  0  0  0  0
  6 10  1  6  0  0  0
  6  4  1  0  0  0  0
  6 11  1  0  0  0  0
  9  5  1  0  0  0  0
 11 14  1  0  0  0  0
 12 15  1  0  0  0  0
 12 13  1  0  0  0  0
 12 11  1  0  0  0  0
 13 11  1  0  0  0  0
 13 18  1  0  0  0  0
 16 12  1  0  0  0  0
 17 13  1  0  0  0  0
 19 25  1  0  0  0  0
 20 19  2  0  0  0  0
 21 27  1  0  0  0  0
 22 21  1  0  0  0  0
 22 28  1  0  0  0  0
 23 22  2  0  0  0  0
 24 25  2  0  0  0  0
 24 23  1  0  0  0  0
 25 26  1  0  0  0  0
 26 21  2  0  0  0  0
 29 23  1  0  0  0  0
 29 34  1  0  0  0  0
 30 29  2  0  0  0  0
 31 30  1  0  0  0  0
 32 30  1  0  0  0  0
 32 33  2  0  0  0  0
 33 34  1  0  0  0  0
M  END
>  <minimizedAffinity>
-4.92075396

$$$$

 OpenBabel03252508163D

 34 37  0  0  1  0  0  0  0  0999 V2000
   36.5640   28.5480   41.3120 C   0  0  0  0  0  0  0  0  0  0  0  0
   35.4800   28.6010   41.5780 H   0  0  0  0  0  0  0  0  0  0  0  0
   36.7750   27.8580   40.4760 H   0  0  0  0  0  0  0  0  0  0  0  0
   37.3470   28.1610   42.5430 C   0  0  1  0  0  0  0  0  0  0  0  0
   36.5680   27.5670   43.6620 C   0  0  0  0  0  0  0  0  0  0  0  0
   37.4720   26.7260   42.9000 C   0  0  1  0  0  0  0  0  0  0  0  0
   38.2410   28.7670   42.7750 H   0  0  0  0  0  0  0  0  0  0  0  0
   35.4740   27.4110   43.4990 H   0  0  0  0  0  0  0  0  0  0  0  0
   36.7960   27.8580   44.7160 H   0  0  0  0  0  0  0  0  0  0  0  0
   38.3990   26.4070   43.4720 H   0  0  0  0  0  0  0  0  0  0  0  0
   37.0690   25.7230   41.8870 C   0  0  0  0  0  0  0  0  0  0  0  0
   37.6480   24.3030   42.1030 C   0  0  0  0  0  0  0  0  0  0  0  0
   38.2160   25.1510   41.0350 C   0  0  0  0  0  0  0  0  0  0  0  0
   36.0720   25.7700   41.4060 H   0  0  0  0  0  0  0  0  0  0  0  0
   36.9960   23.4540   41.8130 H   0  0  0  0  0  0  0  0  0  0  0  0
   38.1620   24.1240   43.0650 H   0  0  0  0  0  0  0  0  0  0  0  0
   39.2430   25.5380   41.2480 H   0  0  0  0  0  0  0  0  0  0  0  0
   37.9510   24.9170   39.9920 H   0  0  0  0  0  0  0  0  0  0  0  0
   38.1360   30.3160   41.1470 C   0  0  0  0  0  3  0  0  0  0  0  0
   36.9440   29.9520   40.8780 C   0  0  0  0  0  3  0  0  0  0  0  0
   38.0910   33.8320   40.0710 C   0  0  0  0  0  0  0  0  0  0  0  0
   39.4350   34.1600   39.9780 C   0  0  0  0  0  0  0  0  0  0  0  0
   40.3170   33.1750   40.3010 C   0  0  0  0  0  0  0  0  0  0  0  0
   39.8680   31.9530   40.6870 N   0  0  0  0  0  0  0  0  0  0  0  0
   38.5620   31.6560   40.7680 C   0  0  0  0  0  0  0  0  0  0  0  0
   37.7010   32.6210   40.4530 N   0  0  0  0  0  0  0  0  0  0  0  0
   37.4080   34.6310   39.8110 H   0  0  0  0  0  0  0  0  0  0  0  0
   39.8970   35.0740   39.6910 H   0  0  0  0  0  0  0  0  0  0  0  0
   41.7940   33.2860   40.2800 C   0  0  0  0  0  0  0  0  0  0  0  0
   42.5740   33.9560   41.2360 C   0  0  0  0  0  0  0  0  0  0  0  0
   42.1050   34.4470   42.0730 H   0  0  0  0  0  0  0  0  0  0  0  0
   43.9210   33.9490   41.0460 C   0  0  0  0  0  3  0  0  0  0  0  0
   44.5230   33.3170   39.9670 C   0  0  0  0  0  3  0  0  0  0  0  0
   42.9560   32.6310   39.0920 S   0  0  0  0  0  0  0  0  0  0  0  0
  1  2  1  0  0  0  0
  1  4  1  0  0  0  0
  3  1  1  0  0  0  0
  4  7  1  1  0  0  0
  4  6  1  0  0  0  0
  4  5  1  0  0  0  0
  5  9  1  0  0  0  0
  6 10  1  1  0  0  0
  6  5  1  0  0  0  0
  8  5  1  0  0  0  0
 11 12  1  0  0  0  0
 11  6  1  0  0  0  0
 12 16  1  0  0  0  0
 13 17  1  0  0  0  0
 13 11  1  0  0  0  0
 13 12  1  0  0  0  0
 14 11  1  0  0  0  0
 15 12  1  0  0  0  0
 18 13  1  0  0  0  0
 20 19  2  0  0  0  0
 20  1  1  0  0  0  0
 21 26  1  0  0  0  0
 22 21  2  0  0  0  0
 22 23  1  0  0  0  0
 23 24  2  0  0  0  0
 24 25  1  0  0  0  0
 25 19  1  0  0  0  0
 26 25  2  0  0  0  0
 27 21  1  0  0  0  0
 28 22  1  0  0  0  0
 29 23  1  0  0  0  0
 29 30  2  0  0  0  0
 30 31  1  0  0  0  0
 32 30  1  0  0  0  0
 33 32  2  0  0  0  0
 34 33  1  0  0  0  0
 34 29  1  0  0  0  0
M  END
>  <minimizedAffinity>
-4.8664608

$$$$

 OpenBabel03252508163D

 34 37  0  0  1  0  0  0  0  0999 V2000
   38.6210   27.1830   43.6610 C   0  0  0  0  0  0  0  0  0  0  0  0
   39.1560   27.7160   44.4840 H   0  0  0  0  0  0  0  0  0  0  0  0
   37.8180   26.5160   44.0210 H   0  0  0  0  0  0  0  0  0  0  0  0
   39.6310   26.4190   42.8390 C   0  0  1  0  0  0  0  0  0  0  0  0
   40.1350   25.1500   43.4270 C   0  0  0  0  0  0  0  0  0  0  0  0
   39.2550   25.1000   42.2750 C   0  0  1  0  0  0  0  0  0  0  0  0
   40.3020   27.0150   42.1960 H   0  0  0  0  0  0  0  0  0  0  0  0
   39.7050   24.8310   44.4070 H   0  0  0  0  0  0  0  0  0  0  0  0
   41.2180   24.8880   43.3430 H   0  0  0  0  0  0  0  0  0  0  0  0
   39.7670   24.7740   41.3160 H   0  0  0  0  0  0  0  0  0  0  0  0
   37.8240   24.7180   42.3000 C   0  0  0  0  0  0  0  0  0  0  0  0
   37.3970   23.7000   41.2140 C   0  0  0  0  0  0  0  0  0  0  0  0
   37.0150   25.1170   41.0520 C   0  0  0  0  0  0  0  0  0  0  0  0
   37.2650   24.6680   43.2550 H   0  0  0  0  0  0  0  0  0  0  0  0
   36.6130   22.9710   41.5010 H   0  0  0  0  0  0  0  0  0  0  0  0
   38.2130   23.2270   40.6370 H   0  0  0  0  0  0  0  0  0  0  0  0
   37.5690   25.6570   40.2440 H   0  0  0  0  0  0  0  0  0  0  0  0
   35.9670   25.3970   41.2450 H   0  0  0  0  0  0  0  0  0  0  0  0
   38.6660   28.6660   41.8100 C   0  0  0  0  0  3  0  0  0  0  0  0
   37.9880   28.2750   42.8170 C   0  0  0  0  0  3  0  0  0  0  0  0
   37.7130   31.9720   40.5100 C   0  0  0  0  0  0  0  0  0  0  0  0
   36.9970   31.6740   39.3600 C   0  0  0  0  0  0  0  0  0  0  0  0
   36.8740   30.3540   39.0550 C   0  0  0  0  0  0  0  0  0  0  0  0
   37.4340   29.4090   39.8550 N   0  0  0  0  0  0  0  0  0  0  0  0
   38.1220   29.7200   40.9650 C   0  0  0  0  0  0  0  0  0  0  0  0
   38.2410   31.0120   41.2610 N   0  0  0  0  0  0  0  0  0  0  0  0
   37.7990   33.0270   40.7330 H   0  0  0  0  0  0  0  0  0  0  0  0
   36.5200   32.3220   38.6660 H   0  0  0  0  0  0  0  0  0  0  0  0
   36.1610   29.7910   37.8850 C   0  0  0  0  0  0  0  0  0  0  0  0
   34.8890   29.1970   37.9140 C   0  0  0  0  0  0  0  0  0  0  0  0
   34.3460   29.1220   38.8430 H   0  0  0  0  0  0  0  0  0  0  0  0
   34.3970   28.7360   36.7330 C   0  0  0  0  0  3  0  0  0  0  0  0
   35.0980   28.8350   35.5390 C   0  0  0  0  0  3  0  0  0  0  0  0
   36.6860   29.7080   36.1790 S   0  0  0  0  0  0  0  0  0  0  0  0
  1  3  1  0  0  0  0
  1  2  1  0  0  0  0
  4  7  1  6  0  0  0
  4  5  1  0  0  0  0
  4  1  1  0  0  0  0
  5  8  1  0  0  0  0
  6 10  1  6  0  0  0
  6 11  1  0  0  0  0
  6  4  1  0  0  0  0
  6  5  1  0  0  0  0
  9  5  1  0  0  0  0
 11 14  1  0  0  0  0
 12 15  1  0  0  0  0
 12 11  1  0  0  0  0
 13 12  1  0  0  0  0
 13 18  1  0  0  0  0
 13 11  1  0  0  0  0
 16 12  1  0  0  0  0
 17 13  1  0  0  0  0
 19 20  2  0  0  0  0
 20  1  1  0  0  0  0
 21 27  1  0  0  0  0
 21 26  1  0  0  0  0
 22 21  2  0  0  0  0
 23 22  1  0  0  0  0
 23 24  2  0  0  0  0
 24 25  1  0  0  0  0
 25 26  2  0  0  0  0
 25 19  1  0  0  0  0
 28 22  1  0  0  0  0
 29 30  2  0  0  0  0
 29 23  1  0  0  0  0
 30 31  1  0  0  0  0
 32 30  1  0  0  0  0
 33 34  1  0  0  0  0
 33 32  2  0  0  0  0
 34 29  1  0  0  0  0
M  END
>  <minimizedAffinity>
-4.81848383

$$$$

 OpenBabel03252508163D

 34 37  0  0  1  0  0  0  0  0999 V2000
   36.3320   29.9840   37.9080 C   0  0  0  0  0  0  0  0  0  0  0  0
   35.8550   29.5700   36.9870 H   0  0  0  0  0  0  0  0  0  0  0  0
   35.6970   30.7150   38.4390 H   0  0  0  0  0  0  0  0  0  0  0  0
   37.6620   30.5940   37.5350 C   0  0  1  0  0  0  0  0  0  0  0  0
   37.6150   31.7820   36.6430 C   0  0  0  0  0  0  0  0  0  0  0  0
   38.0000   31.9500   38.0310 C   0  0  1  0  0  0  0  0  0  0  0  0
   38.5230   29.9060   37.4660 H   0  0  0  0  0  0  0  0  0  0  0  0
   36.6080   32.1640   36.3480 H   0  0  0  0  0  0  0  0  0  0  0  0
   38.3590   31.8890   35.8170 H   0  0  0  0  0  0  0  0  0  0  0  0
   39.0990   32.1950   38.1800 H   0  0  0  0  0  0  0  0  0  0  0  0
   37.1510   32.5290   39.0980 C   0  0  0  0  0  0  0  0  0  0  0  0
   37.7520   33.7600   39.8200 C   0  0  0  0  0  0  0  0  0  0  0  0
   37.7400   32.4590   40.5190 C   0  0  0  0  0  0  0  0  0  0  0  0
   36.0460   32.5070   39.0200 H   0  0  0  0  0  0  0  0  0  0  0  0
   37.0360   34.5410   40.1450 H   0  0  0  0  0  0  0  0  0  0  0  0
   38.6660   34.1940   39.3720 H   0  0  0  0  0  0  0  0  0  0  0  0
   38.7450   31.9800   40.6240 H   0  0  0  0  0  0  0  0  0  0  0  0
   37.0020   32.3090   41.3230 H   0  0  0  0  0  0  0  0  0  0  0  0
   36.3730   29.0020   40.0670 C   0  0  0  0  0  3  0  0  0  0  0  0
   36.5490   28.7910   38.8210 C   0  0  0  0  0  3  0  0  0  0  0  0
   36.8950   27.0850   43.1620 C   0  0  0  0  0  0  0  0  0  0  0  0
   37.0420   25.7800   42.7140 C   0  0  0  0  0  0  0  0  0  0  0  0
   36.9430   25.5930   41.3700 C   0  0  0  0  0  0  0  0  0  0  0  0
   36.7140   26.6470   40.5450 N   0  0  0  0  0  0  0  0  0  0  0  0
   36.5770   27.9020   41.0000 C   0  0  0  0  0  0  0  0  0  0  0  0
   36.6730   28.0840   42.3150 N   0  0  0  0  0  0  0  0  0  0  0  0
   36.9770   27.2110   44.2340 H   0  0  0  0  0  0  0  0  0  0  0  0
   37.2230   24.8870   43.2620 H   0  0  0  0  0  0  0  0  0  0  0  0
   37.0630   24.2980   40.6590 C   0  0  0  0  0  0  0  0  0  0  0  0
   38.1270   23.3920   40.7900 C   0  0  0  0  0  0  0  0  0  0  0  0
   38.9490   23.6120   41.4520 H   0  0  0  0  0  0  0  0  0  0  0  0
   38.0600   22.2520   40.0520 C   0  0  0  0  0  3  0  0  0  0  0  0
   37.0000   21.9720   39.2000 C   0  0  0  0  0  3  0  0  0  0  0  0
   35.9430   23.5510   39.4840 S   0  0  0  0  0  0  0  0  0  0  0  0
  1  3  1  0  0  0  0
  1 20  1  0  0  0  0
  2  1  1  0  0  0  0
  4  7  1  6  0  0  0
  4  1  1  0  0  0  0
  4  6  1  0  0  0  0
  5  4  1  0  0  0  0
  5  6  1  0  0  0  0
  6 10  1  1  0  0  0
  6 11  1  0  0  0  0
  8  5  1  0  0  0  0
  9  5  1  0  0  0  0
 11 12  1  0  0  0  0
 11 13  1  0  0  0  0
 12 15  1  0  0  0  0
 12 13  1  0  0  0  0
 13 17  1  0  0  0  0
 13 18  1  0  0  0  0
 14 11  1  0  0  0  0
 16 12  1  0  0  0  0
 19 25  1  0  0  0  0
 20 19  2  0  0  0  0
 21 27  1  0  0  0  0
 22 21  1  0  0  0  0
 22 28  1  0  0  0  0
 23 22  2  0  0  0  0
 24 25  2  0  0  0  0
 24 23  1  0  0  0  0
 25 26  1  0  0  0  0
 26 21  2  0  0  0  0
 29 30  2  0  0  0  0
 29 23  1  0  0  0  0
 30 31  1  0  0  0  0
 32 30  1  0  0  0  0
 33 34  1  0  0  0  0
 33 32  2  0  0  0  0
 34 29  1  0  0  0  0
M  END
>  <minimizedAffinity>
-4.68710089

$$$$

 OpenBabel03252508163D

 34 37  0  0  1  0  0  0  0  0999 V2000
   34.0180   29.1720   39.2990 C   0  0  0  0  0  0  0  0  0  0  0  0
   33.3650   28.3430   39.6660 H   0  0  0  0  0  0  0  0  0  0  0  0
   33.5470   30.1680   39.3830 H   0  0  0  0  0  0  0  0  0  0  0  0
   34.4170   28.8810   37.8730 C   0  0  1  0  0  0  0  0  0  0  0  0
   33.9490   27.5880   37.3070 C   0  0  0  0  0  0  0  0  0  0  0  0
   33.3680   28.8270   36.8250 C   0  0  1  0  0  0  0  0  0  0  0  0
   35.3810   29.2970   37.5310 H   0  0  0  0  0  0  0  0  0  0  0  0
   33.3050   26.9460   37.9560 H   0  0  0  0  0  0  0  0  0  0  0  0
   34.6330   26.9790   36.6670 H   0  0  0  0  0  0  0  0  0  0  0  0
   33.6720   29.0980   35.7650 H   0  0  0  0  0  0  0  0  0  0  0  0
   32.0200   29.3380   37.1660 C   0  0  0  0  0  0  0  0  0  0  0  0
   30.9310   29.0820   36.0970 C   0  0  0  0  0  0  0  0  0  0  0  0
   31.4820   30.4440   36.2410 C   0  0  0  0  0  0  0  0  0  0  0  0
   31.6700   29.3580   38.2170 H   0  0  0  0  0  0  0  0  0  0  0  0
   29.9070   28.8840   36.4710 H   0  0  0  0  0  0  0  0  0  0  0  0
   31.2080   28.4060   35.2660 H   0  0  0  0  0  0  0  0  0  0  0  0
   32.1480   30.7670   35.4020 H   0  0  0  0  0  0  0  0  0  0  0  0
   30.8600   31.2050   36.7380 H   0  0  0  0  0  0  0  0  0  0  0  0
   36.1140   30.0540   39.9730 C   0  0  0  0  0  3  0  0  0  0  0  0
   35.2430   29.1480   40.1950 C   0  0  0  0  0  3  0  0  0  0  0  0
   39.1260   31.2160   41.7330 C   0  0  0  0  0  0  0  0  0  0  0  0
   39.6490   30.0550   42.2830 C   0  0  0  0  0  0  0  0  0  0  0  0
   38.9490   28.9120   42.0480 C   0  0  0  0  0  0  0  0  0  0  0  0
   37.8070   28.9460   41.3130 N   0  0  0  0  0  0  0  0  0  0  0  0
   37.3200   30.0810   40.7890 C   0  0  0  0  0  0  0  0  0  0  0  0
   38.0060   31.1980   41.0200 N   0  0  0  0  0  0  0  0  0  0  0  0
   39.6990   32.1130   41.9330 H   0  0  0  0  0  0  0  0  0  0  0  0
   40.5240   29.9110   42.8680 H   0  0  0  0  0  0  0  0  0  0  0  0
   39.3040   27.5570   42.5290 C   0  0  0  0  0  0  0  0  0  0  0  0
   40.4080   27.2430   43.3380 C   0  0  0  0  0  0  0  0  0  0  0  0
   41.0820   28.0200   43.6620 H   0  0  0  0  0  0  0  0  0  0  0  0
   40.5720   25.9360   43.6770 C   0  0  0  0  0  3  0  0  0  0  0  0
   39.7030   24.9390   43.2580 C   0  0  0  0  0  3  0  0  0  0  0  0
   38.4740   26.0030   42.2340 S   0  0  0  0  0  0  0  0  0  0  0  0
  1  3  1  0  0  0  0
  1  2  1  0  0  0  0
  1 20  1  0  0  0  0
  4  7  1  6  0  0  0
  4  1  1  0  0  0  0
  5  4  1  0  0  0  0
  5  8  1  0  0  0  0
  6 10  1  6  0  0  0
  6 11  1  0  0  0  0
  6  5  1  0  0  0  0
  6  4  1  0  0  0  0
  9  5  1  0  0  0  0
 11 14  1  0  0  0  0
 12 13  1  0  0  0  0
 12 15  1  0  0  0  0
 12 11  1  0  0  0  0
 13 18  1  0  0  0  0
 13 11  1  0  0  0  0
 16 12  1  0  0  0  0
 17 13  1  0  0  0  0
 19 20  2  0  0  0  0
 19 25  1  0  0  0  0
 21 27  1  0  0  0  0
 21 22  1  0  0  0  0
 22 28  1  0  0  0  0
 23 22  2  0  0  0  0
 23 29  1  0  0  0  0
 24 23  1  0  0  0  0
 25 26  1  0  0  0  0
 25 24  2  0  0  0  0
 26 21  2  0  0  0  0
 29 30  2  0  0  0  0
 30 31  1  0  0  0  0
 30 32  1  0  0  0  0
 33 32  2  0  0  0  0
 34 29  1  0  0  0  0
 34 33  1  0  0  0  0
M  END
>  <minimizedAffinity>
-4.66507101

$$$$

 OpenBabel03252508163D

 34 37  0  0  1  0  0  0  0  0999 V2000
   36.6790   31.2120   40.8280 C   0  0  0  0  0  0  0  0  0  0  0  0
   35.5640   31.1860   40.7680 H   0  0  0  0  0  0  0  0  0  0  0  0
   37.0570   31.8320   41.6610 H   0  0  0  0  0  0  0  0  0  0  0  0
   37.2260   31.6930   39.5050 C   0  0  1  0  0  0  0  0  0  0  0  0
   37.0950   33.1480   39.2260 C   0  0  0  0  0  0  0  0  0  0  0  0
   38.4070   32.5900   39.4940 C   0  0  1  0  0  0  0  0  0  0  0  0
   37.1870   30.9810   38.6630 H   0  0  0  0  0  0  0  0  0  0  0  0
   36.6440   33.7850   40.0250 H   0  0  0  0  0  0  0  0  0  0  0  0
   36.8090   33.4960   38.2050 H   0  0  0  0  0  0  0  0  0  0  0  0
   39.0860   32.5510   38.5850 H   0  0  0  0  0  0  0  0  0  0  0  0
   39.1700   32.7470   40.7540 C   0  0  0  0  0  0  0  0  0  0  0  0
   40.5950   33.3290   40.5900 C   0  0  0  0  0  0  0  0  0  0  0  0
   40.4420   31.8860   40.8640 C   0  0  0  0  0  0  0  0  0  0  0  0
   38.6550   32.9920   41.7040 H   0  0  0  0  0  0  0  0  0  0  0  0
   40.9580   33.9860   41.4060 H   0  0  0  0  0  0  0  0  0  0  0  0
   40.8510   33.7270   39.5900 H   0  0  0  0  0  0  0  0  0  0  0  0
   40.6770   31.2210   39.9960 H   0  0  0  0  0  0  0  0  0  0  0  0
   40.6730   31.5240   41.8780 H   0  0  0  0  0  0  0  0  0  0  0  0
   37.7910   29.5690   42.1280 C   0  0  0  0  0  3  0  0  0  0  0  0
   37.1060   29.7760   41.0720 C   0  0  0  0  0  3  0  0  0  0  0  0
   39.5610   26.7090   43.6140 C   0  0  0  0  0  0  0  0  0  0  0  0
   39.1210   25.6290   42.8630 C   0  0  0  0  0  0  0  0  0  0  0  0
   38.2210   25.9080   41.8810 C   0  0  0  0  0  0  0  0  0  0  0  0
   37.8010   27.1840   41.6780 N   0  0  0  0  0  0  0  0  0  0  0  0
   38.2420   28.2140   42.4160 C   0  0  0  0  0  0  0  0  0  0  0  0
   39.1220   27.9390   43.3760 N   0  0  0  0  0  0  0  0  0  0  0  0
   40.2750   26.4630   44.3900 H   0  0  0  0  0  0  0  0  0  0  0  0
   39.3780   24.6000   42.9320 H   0  0  0  0  0  0  0  0  0  0  0  0
   37.6090   24.9280   40.9540 C   0  0  0  0  0  0  0  0  0  0  0  0
   36.5760   25.2030   40.0440 C   0  0  0  0  0  0  0  0  0  0  0  0
   36.1610   26.1960   39.9770 H   0  0  0  0  0  0  0  0  0  0  0  0
   36.1420   24.1700   39.2740 C   0  0  0  0  0  3  0  0  0  0  0  0
   36.6780   22.8920   39.3630 C   0  0  0  0  0  3  0  0  0  0  0  0
   37.9870   23.1960   40.7360 S   0  0  0  0  0  0  0  0  0  0  0  0
  1 20  1  0  0  0  0
  1  3  1  0  0  0  0
  2  1  1  0  0  0  0
  4  7  1  6  0  0  0
  4  1  1  0  0  0  0
  5  6  1  0  0  0  0
  5  4  1  0  0  0  0
  5  8  1  0  0  0  0
  6 10  1  6  0  0  0
  6  4  1  0  0  0  0
  6 11  1  0  0  0  0
  9  5  1  0  0  0  0
 11 13  1  0  0  0  0
 11 14  1  0  0  0  0
 12 11  1  0  0  0  0
 12 13  1  0  0  0  0
 12 15  1  0  0  0  0
 13 18  1  0  0  0  0
 16 12  1  0  0  0  0
 17 13  1  0  0  0  0
 19 25  1  0  0  0  0
 20 19  2  0  0  0  0
 21 27  1  0  0  0  0
 22 28  1  0  0  0  0
 22 21  2  0  0  0  0
 23 22  1  0  0  0  0
 24 23  2  0  0  0  0
 24 25  1  0  0  0  0
 25 26  2  0  0  0  0
 26 21  1  0  0  0  0
 29 23  1  0  0  0  0
 30 29  2  0  0  0  0
 31 30  1  0  0  0  0
 32 33  2  0  0  0  0
 32 30  1  0  0  0  0
 33 34  1  0  0  0  0
 34 29  1  0  0  0  0
M  END
>  <minimizedAffinity>
-4.65722084

$$$$

 OpenBabel03252508163D

 34 37  0  0  1  0  0  0  0  0999 V2000
   33.5220   27.9350   36.9810 C   0  0  0  0  0  0  0  0  0  0  0  0
   33.8960   27.1740   36.2550 H   0  0  0  0  0  0  0  0  0  0  0  0
   32.5570   27.6610   37.4430 H   0  0  0  0  0  0  0  0  0  0  0  0
   33.4250   29.2690   36.2800 C   0  0  1  0  0  0  0  0  0  0  0  0
   32.6720   29.2880   34.9980 C   0  0  0  0  0  0  0  0  0  0  0  0
   32.1030   29.9320   36.1660 C   0  0  1  0  0  0  0  0  0  0  0  0
   34.2730   29.9640   36.4130 H   0  0  0  0  0  0  0  0  0  0  0  0
   32.1990   28.3320   34.6660 H   0  0  0  0  0  0  0  0  0  0  0  0
   33.0560   29.8840   34.1340 H   0  0  0  0  0  0  0  0  0  0  0  0
   32.0880   31.0660   36.1070 H   0  0  0  0  0  0  0  0  0  0  0  0
   30.9890   29.4020   36.9860 C   0  0  0  0  0  0  0  0  0  0  0  0
   29.8330   30.3990   37.2460 C   0  0  0  0  0  0  0  0  0  0  0  0
   30.7790   30.1030   38.3410 C   0  0  0  0  0  0  0  0  0  0  0  0
   30.7020   28.3340   36.9330 H   0  0  0  0  0  0  0  0  0  0  0  0
   28.8130   29.9690   37.2990 H   0  0  0  0  0  0  0  0  0  0  0  0
   29.8590   31.3410   36.6680 H   0  0  0  0  0  0  0  0  0  0  0  0
   31.4780   30.9400   38.5890 H   0  0  0  0  0  0  0  0  0  0  0  0
   30.4370   29.4470   39.1570 H   0  0  0  0  0  0  0  0  0  0  0  0
   34.4550   28.9650   38.9030 C   0  0  0  0  0  3  0  0  0  0  0  0
   34.5710   28.0010   38.0750 C   0  0  0  0  0  3  0  0  0  0  0  0
   36.6930   30.3870   41.4510 C   0  0  0  0  0  0  0  0  0  0  0  0
   37.3670   29.2800   41.9450 C   0  0  0  0  0  0  0  0  0  0  0  0
   37.0260   28.0800   41.4040 C   0  0  0  0  0  0  0  0  0  0  0  0
   36.0750   28.0080   40.4360 N   0  0  0  0  0  0  0  0  0  0  0  0
   35.4370   29.0930   39.9720 C   0  0  0  0  0  0  0  0  0  0  0  0
   35.7710   30.2670   40.5030 N   0  0  0  0  0  0  0  0  0  0  0  0
   36.9790   31.3310   41.8960 H   0  0  0  0  0  0  0  0  0  0  0  0
   38.1210   29.2180   42.6920 H   0  0  0  0  0  0  0  0  0  0  0  0
   37.6020   26.7640   41.7660 C   0  0  0  0  0  0  0  0  0  0  0  0
   36.9500   25.5270   41.6430 C   0  0  0  0  0  0  0  0  0  0  0  0
   35.9440   25.4790   41.2570 H   0  0  0  0  0  0  0  0  0  0  0  0
   37.6430   24.4230   42.0310 C   0  0  0  0  0  3  0  0  0  0  0  0
   38.9370   24.4870   42.5280 C   0  0  0  0  0  3  0  0  0  0  0  0
   39.2160   26.3860   42.4340 S   0  0  0  0  0  0  0  0  0  0  0  0
  1  3  1  0  0  0  0
  1 20  1  0  0  0  0
  2  1  1  0  0  0  0
  4  7  1  1  0  0  0
  4  1  1  0  0  0  0
  5  6  1  0  0  0  0
  5  4  1  0  0  0  0
  6 10  1  6  0  0  0
  6  4  1  0  0  0  0
  6 11  1  0  0  0  0
  8  5  1  0  0  0  0
  9  5  1  0  0  0  0
 11 12  1  0  0  0  0
 11 13  1  0  0  0  0
 12 15  1  0  0  0  0
 12 13  1  0  0  0  0
 13 17  1  0  0  0  0
 13 18  1  0  0  0  0
 14 11  1  0  0  0  0
 16 12  1  0  0  0  0
 19 25  1  0  0  0  0
 20 19  2  0  0  0  0
 21 27  1  0  0  0  0
 21 22  1  0  0  0  0
 22 28  1  0  0  0  0
 23 29  1  0  0  0  0
 23 22  2  0  0  0  0
 24 23  1  0  0  0  0
 25 24  2  0  0  0  0
 25 26  1  0  0  0  0
 26 21  2  0  0  0  0
 29 34  1  0  0  0  0
 30 29  2  0  0  0  0
 30 32  1  0  0  0  0
 31 30  1  0  0  0  0
 32 33  2  0  0  0  0
 34 33  1  0  0  0  0
M  END
>  <minimizedAffinity>
-4.63635683

$$$$

 OpenBabel03252508163D

 34 37  0  0  1  0  0  0  0  0999 V2000
   37.2210   28.2490   41.2210 C   0  0  0  0  0  0  0  0  0  0  0  0
   36.1860   28.4550   40.8550 H   0  0  0  0  0  0  0  0  0  0  0  0
   37.5910   27.2460   40.9430 H   0  0  0  0  0  0  0  0  0  0  0  0
   37.2530   28.4410   42.7190 C   0  0  1  0  0  0  0  0  0  0  0  0
   36.5630   27.4050   43.5320 C   0  0  0  0  0  0  0  0  0  0  0  0
   38.0110   27.4780   43.5550 C   0  0  1  0  0  0  0  0  0  0  0  0
   37.2780   29.4810   43.0870 H   0  0  0  0  0  0  0  0  0  0  0  0
   36.1080   26.5420   42.9860 H   0  0  0  0  0  0  0  0  0  0  0  0
   35.9520   27.7060   44.4170 H   0  0  0  0  0  0  0  0  0  0  0  0
   38.4390   27.8580   44.5350 H   0  0  0  0  0  0  0  0  0  0  0  0
   38.9330   26.5420   42.8700 C   0  0  0  0  0  0  0  0  0  0  0  0
   40.1940   26.1520   43.6800 C   0  0  0  0  0  0  0  0  0  0  0  0
   40.3320   27.1050   42.5600 C   0  0  0  0  0  0  0  0  0  0  0  0
   38.5470   25.7690   42.1770 H   0  0  0  0  0  0  0  0  0  0  0  0
   40.5700   25.1190   43.5430 H   0  0  0  0  0  0  0  0  0  0  0  0
   40.2120   26.4650   44.7400 H   0  0  0  0  0  0  0  0  0  0  0  0
   40.5300   28.1610   42.8700 H   0  0  0  0  0  0  0  0  0  0  0  0
   40.7830   26.7420   41.6230 H   0  0  0  0  0  0  0  0  0  0  0  0
   38.1310   30.4360   41.0980 C   0  0  0  0  0  3  0  0  0  0  0  0
   38.1020   29.2850   40.5480 C   0  0  0  0  0  3  0  0  0  0  0  0
   39.5040   33.7260   40.1970 C   0  0  0  0  0  0  0  0  0  0  0  0
   40.4800   33.4240   39.2590 C   0  0  0  0  0  0  0  0  0  0  0  0
   40.6510   32.1050   38.9740 C   0  0  0  0  0  0  0  0  0  0  0  0
   39.8890   31.1660   39.5930 N   0  0  0  0  0  0  0  0  0  0  0  0
   38.9480   31.4800   40.4960 C   0  0  0  0  0  0  0  0  0  0  0  0
   38.7830   32.7710   40.7740 N   0  0  0  0  0  0  0  0  0  0  0  0
   39.3860   34.7810   40.4090 H   0  0  0  0  0  0  0  0  0  0  0  0
   41.1290   34.0690   38.7180 H   0  0  0  0  0  0  0  0  0  0  0  0
   41.6260   31.5390   38.0140 C   0  0  0  0  0  0  0  0  0  0  0  0
   42.7560   32.2050   37.5130 C   0  0  0  0  0  0  0  0  0  0  0  0
   42.9740   33.2140   37.8230 H   0  0  0  0  0  0  0  0  0  0  0  0
   43.5370   31.5190   36.6350 C   0  0  0  0  0  3  0  0  0  0  0  0
   43.2530   30.2200   36.2360 C   0  0  0  0  0  3  0  0  0  0  0  0
   41.6480   29.9240   37.2510 S   0  0  0  0  0  0  0  0  0  0  0  0
  1  4  1  0  0  0  0
  2  1  1  0  0  0  0
  3  1  1  0  0  0  0
  4  7  1  1  0  0  0
  4  5  1  0  0  0  0
  4  6  1  0  0  0  0
  5  6  1  0  0  0  0
  5  9  1  0  0  0  0
  6 10  1  1  0  0  0
  8  5  1  0  0  0  0
 11  6  1  0  0  0  0
 11 12  1  0  0  0  0
 12 16  1  0  0  0  0
 13 11  1  0  0  0  0
 13 17  1  0  0  0  0
 13 12  1  0  0  0  0
 14 11  1  0  0  0  0
 15 12  1  0  0  0  0
 18 13  1  0  0  0  0
 20 19  2  0  0  0  0
 20  1  1  0  0  0  0
 21 27  1  0  0  0  0
 21 26  1  0  0  0  0
 22 21  2  0  0  0  0
 23 22  1  0  0  0  0
 23 24  2  0  0  0  0
 24 25  1  0  0  0  0
 25 26  2  0  0  0  0
 25 19  1  0  0  0  0
 28 22  1  0  0  0  0
 29 23  1  0  0  0  0
 30 31  1  0  0  0  0
 30 29  2  0  0  0  0
 32 30  1  0  0  0  0
 33 32  2  0  0  0  0
 33 34  1  0  0  0  0
 34 29  1  0  0  0  0
M  END
>  <minimizedAffinity>
-4.58240414

$$$$
