
 OpenBabel03252509213D

 22 24  0  0  0  0  0  0  0  0999 V2000
   40.5780   30.6340   41.9460 C   0  0  0  0  0  0  0  0  0  0  0  0
   39.2110   30.6960   41.5980 C   0  0  0  0  0  0  0  0  0  0  0  0
   38.8310   31.8350   40.9400 C   0  0  0  0  0  0  0  0  0  0  0  0
   39.7850   32.8010   40.6780 N   0  0  0  0  0  0  0  0  0  0  0  0
   41.0690   32.7050   41.0240 C   0  0  0  0  0  0  0  0  0  0  0  0
   41.4430   31.5940   41.6670 N   0  0  0  0  0  0  0  0  0  0  0  0
   40.9730   29.7910   42.4600 H   0  0  0  0  0  0  0  0  0  0  0  0
   41.6040   33.5850   40.7070 H   0  0  0  0  0  0  0  0  0  0  0  0
   37.4260   31.9970   40.4030 C   0  0  0  0  0  0  0  0  0  0  0  0
   37.3200   33.2750   39.5610 C   0  0  0  0  0  0  0  0  0  0  0  0
   37.2090   31.8330   38.9790 C   0  0  0  0  0  0  0  0  0  0  0  0
   36.6740   32.0830   41.2170 H   0  0  0  0  0  0  0  0  0  0  0  0
   36.3900   33.8470   39.5430 H   0  0  0  0  0  0  0  0  0  0  0  0
   38.2360   33.8040   39.2520 H   0  0  0  0  0  0  0  0  0  0  0  0
   38.0630   31.4850   38.3760 H   0  0  0  0  0  0  0  0  0  0  0  0
   36.1830   31.5370   38.6710 H   0  0  0  0  0  0  0  0  0  0  0  0
   38.3080   29.6510   41.9340 C   0  0  0  0  0  0  0  0  0  0  0  0
   38.1540   29.2770   43.2790 C   0  0  0  0  0  0  0  0  0  0  0  0
   38.6090   29.6440   44.1880 H   0  0  0  0  0  0  0  0  0  0  0  0
   37.3270   28.2990   43.6790 C   0  0  0  0  0  3  0  0  0  0  0  0
   36.5770   27.6190   42.6700 C   0  0  0  0  0  3  0  0  0  0  0  0
   37.1900   28.5310   41.1410 S   0  0  0  0  0  0  0  0  0  0  0  0
  1  7  1  0  0  0  0
  2 17  1  0  0  0  0
  2  1  2  0  0  0  0
  3  2  1  0  0  0  0
  4  3  2  0  0  0  0
  4  5  1  0  0  0  0
  5  6  2  0  0  0  0
  6  1  1  0  0  0  0
  8  5  1  0  0  0  0
  9  3  1  0  0  0  0
  9 12  1  0  0  0  0
 10  9  1  0  0  0  0
 11 10  1  0  0  0  0
 11  9  1  0  0  0  0
 13 10  1  0  0  0  0
 14 10  1  0  0  0  0
 15 11  1  0  0  0  0
 16 11  1  0  0  0  0
 17 18  2  0  0  0  0
 18 20  1  0  0  0  0
 18 19  1  0  0  0  0
 21 20  2  0  0  0  0
 22 17  1  0  0  0  0
 22 21  1  0  0  0  0
M  END
>  <minimizedAffinity>
-4.14879751

$$$$

 OpenBabel03252509213D

 22 24  0  0  0  0  0  0  0  0999 V2000
   37.2650   28.8790   38.7930 C   0  0  0  0  0  0  0  0  0  0  0  0
   37.4150   29.5020   40.0510 C   0  0  0  0  0  0  0  0  0  0  0  0
   37.1050   28.7160   41.1280 C   0  0  0  0  0  0  0  0  0  0  0  0
   36.6830   27.4180   40.9050 N   0  0  0  0  0  0  0  0  0  0  0  0
   36.5540   26.8650   39.6980 C   0  0  0  0  0  0  0  0  0  0  0  0
   36.8570   27.6310   38.6450 N   0  0  0  0  0  0  0  0  0  0  0  0
   37.4800   29.4050   37.8930 H   0  0  0  0  0  0  0  0  0  0  0  0
   36.2120   25.8480   39.7930 H   0  0  0  0  0  0  0  0  0  0  0  0
   37.3240   29.2050   42.5430 C   0  0  0  0  0  0  0  0  0  0  0  0
   37.1830   28.0450   43.5370 C   0  0  0  0  0  0  0  0  0  0  0  0
   38.5230   28.7840   43.2410 C   0  0  0  0  0  0  0  0  0  0  0  0
   36.5800   29.9770   42.8390 H   0  0  0  0  0  0  0  0  0  0  0  0
   36.7760   28.2210   44.5350 H   0  0  0  0  0  0  0  0  0  0  0  0
   37.1630   27.0080   43.1670 H   0  0  0  0  0  0  0  0  0  0  0  0
   39.2720   28.2210   42.6600 H   0  0  0  0  0  0  0  0  0  0  0  0
   38.8740   29.4510   44.0580 H   0  0  0  0  0  0  0  0  0  0  0  0
   37.8380   30.8540   40.1680 C   0  0  0  0  0  0  0  0  0  0  0  0
   37.0290   31.8780   39.6510 C   0  0  0  0  0  0  0  0  0  0  0  0
   36.0740   31.8590   39.1450 H   0  0  0  0  0  0  0  0  0  0  0  0
   37.3570   33.1780   39.7160 C   0  0  0  0  0  3  0  0  0  0  0  0
   38.5960   33.5120   40.3460 C   0  0  0  0  0  3  0  0  0  0  0  0
   39.1980   31.7880   40.8100 S   0  0  0  0  0  0  0  0  0  0  0  0
  1  2  1  0  0  0  0
  2 17  1  0  0  0  0
  2  3  2  0  0  0  0
  3  9  1  0  0  0  0
  4  3  1  0  0  0  0
  5  8  1  0  0  0  0
  5  4  2  0  0  0  0
  6  1  2  0  0  0  0
  6  5  1  0  0  0  0
  7  1  1  0  0  0  0
  9 12  1  0  0  0  0
  9 11  1  0  0  0  0
  9 10  1  0  0  0  0
 10 13  1  0  0  0  0
 11 10  1  0  0  0  0
 11 16  1  0  0  0  0
 14 10  1  0  0  0  0
 15 11  1  0  0  0  0
 17 22  1  0  0  0  0
 18 20  1  0  0  0  0
 18 17  2  0  0  0  0
 19 18  1  0  0  0  0
 20 21  2  0  0  0  0
 21 22  1  0  0  0  0
M  END
>  <minimizedAffinity>
-4.04470205

$$$$

 OpenBabel03252509213D

 22 24  0  0  0  0  0  0  0  0999 V2000
   38.6780   31.7160   41.2010 C   0  0  0  0  0  0  0  0  0  0  0  0
   38.0260   30.4950   40.9230 C   0  0  0  0  0  0  0  0  0  0  0  0
   37.1260   30.5400   39.8920 C   0  0  0  0  0  0  0  0  0  0  0  0
   36.9340   31.7370   39.2280 N   0  0  0  0  0  0  0  0  0  0  0  0
   37.5720   32.8720   39.5210 C   0  0  0  0  0  0  0  0  0  0  0  0
   38.4510   32.8310   40.5280 N   0  0  0  0  0  0  0  0  0  0  0  0
   39.3960   31.7870   41.9830 H   0  0  0  0  0  0  0  0  0  0  0  0
   37.2470   33.6590   38.8600 H   0  0  0  0  0  0  0  0  0  0  0  0
   36.4330   29.2870   39.4030 C   0  0  0  0  0  0  0  0  0  0  0  0
   34.9850   29.2470   39.9080 C   0  0  0  0  0  0  0  0  0  0  0  0
   35.3840   29.4210   38.4110 C   0  0  0  0  0  0  0  0  0  0  0  0
   36.9290   28.3630   39.7720 H   0  0  0  0  0  0  0  0  0  0  0  0
   34.5100   28.2910   40.1450 H   0  0  0  0  0  0  0  0  0  0  0  0
   34.5340   30.1490   40.3500 H   0  0  0  0  0  0  0  0  0  0  0  0
   35.2250   30.4220   37.9780 H   0  0  0  0  0  0  0  0  0  0  0  0
   35.1950   28.5290   37.7750 H   0  0  0  0  0  0  0  0  0  0  0  0
   38.2830   29.3220   41.6830 C   0  0  0  0  0  0  0  0  0  0  0  0
   37.6030   29.1210   42.8950 C   0  0  0  0  0  0  0  0  0  0  0  0
   36.8630   29.7130   43.4150 H   0  0  0  0  0  0  0  0  0  0  0  0
   37.7910   28.0450   43.6740 C   0  0  0  0  0  3  0  0  0  0  0  0
   38.7360   27.0690   43.2280 C   0  0  0  0  0  3  0  0  0  0  0  0
   39.2910   27.8680   41.6160 S   0  0  0  0  0  0  0  0  0  0  0  0
  1  7  1  0  0  0  0
  2  1  1  0  0  0  0
  2 17  1  0  0  0  0
  3  2  2  0  0  0  0
  4  5  2  0  0  0  0
  4  3  1  0  0  0  0
  5  6  1  0  0  0  0
  6  1  2  0  0  0  0
  8  5  1  0  0  0  0
  9 12  1  0  0  0  0
  9  3  1  0  0  0  0
  9 10  1  0  0  0  0
 10 13  1  0  0  0  0
 10 14  1  0  0  0  0
 11  9  1  0  0  0  0
 11 10  1  0  0  0  0
 15 11  1  0  0  0  0
 16 11  1  0  0  0  0
 17 18  2  0  0  0  0
 18 19  1  0  0  0  0
 18 20  1  0  0  0  0
 21 20  2  0  0  0  0
 22 17  1  0  0  0  0
 22 21  1  0  0  0  0
M  END
>  <minimizedAffinity>
-4.02672005

$$$$

 OpenBabel03252509213D

 22 24  0  0  0  0  0  0  0  0999 V2000
   35.9440   27.3720   38.9420 C   0  0  0  0  0  0  0  0  0  0  0  0
   36.6400   26.8970   40.0750 C   0  0  0  0  0  0  0  0  0  0  0  0
   36.6150   27.7300   41.1620 C   0  0  0  0  0  0  0  0  0  0  0  0
   35.9350   28.9300   41.0650 N   0  0  0  0  0  0  0  0  0  0  0  0
   35.2890   29.3430   39.9740 C   0  0  0  0  0  0  0  0  0  0  0  0
   35.3110   28.5320   38.9110 N   0  0  0  0  0  0  0  0  0  0  0  0
   35.9040   26.7990   38.0460 H   0  0  0  0  0  0  0  0  0  0  0  0
   34.8410   30.3070   40.1520 H   0  0  0  0  0  0  0  0  0  0  0  0
   37.2170   27.3090   42.4840 C   0  0  0  0  0  0  0  0  0  0  0  0
   37.4520   28.5340   43.3780 C   0  0  0  0  0  0  0  0  0  0  0  0
   36.4030   27.4200   43.6790 C   0  0  0  0  0  0  0  0  0  0  0  0
   38.2010   26.8090   42.3560 H   0  0  0  0  0  0  0  0  0  0  0  0
   38.3000   28.5590   44.0660 H   0  0  0  0  0  0  0  0  0  0  0  0
   36.9990   29.5010   43.1090 H   0  0  0  0  0  0  0  0  0  0  0  0
   35.3450   27.6990   43.5440 H   0  0  0  0  0  0  0  0  0  0  0  0
   36.6740   26.7450   44.5210 H   0  0  0  0  0  0  0  0  0  0  0  0
   37.3250   25.6520   40.0620 C   0  0  0  0  0  0  0  0  0  0  0  0
   36.6130   24.4690   40.3190 C   0  0  0  0  0  0  0  0  0  0  0  0
   35.5710   24.2860   40.5390 H   0  0  0  0  0  0  0  0  0  0  0  0
   37.1860   23.2550   40.3300 C   0  0  0  0  0  3  0  0  0  0  0  0
   38.5890   23.1880   40.0660 C   0  0  0  0  0  3  0  0  0  0  0  0
   38.9580   25.0170   39.8110 S   0  0  0  0  0  0  0  0  0  0  0  0
  1  2  1  0  0  0  0
  2  3  2  0  0  0  0
  3  9  1  0  0  0  0
  4  3  1  0  0  0  0
  5  8  1  0  0  0  0
  5  4  2  0  0  0  0
  6  1  2  0  0  0  0
  6  5  1  0  0  0  0
  7  1  1  0  0  0  0
  9 10  1  0  0  0  0
  9 11  1  0  0  0  0
 10 11  1  0  0  0  0
 10 13  1  0  0  0  0
 11 16  1  0  0  0  0
 12  9  1  0  0  0  0
 14 10  1  0  0  0  0
 15 11  1  0  0  0  0
 17  2  1  0  0  0  0
 17 18  2  0  0  0  0
 18 20  1  0  0  0  0
 18 19  1  0  0  0  0
 21 20  2  0  0  0  0
 22 17  1  0  0  0  0
 22 21  1  0  0  0  0
M  END
>  <minimizedAffinity>
-4.02439928

$$$$

 OpenBabel03252509213D

 22 24  0  0  0  0  0  0  0  0999 V2000
   37.3220   33.0740   39.6210 C   0  0  0  0  0  0  0  0  0  0  0  0
   37.7090   31.7750   40.0140 C   0  0  0  0  0  0  0  0  0  0  0  0
   38.8630   31.7110   40.7490 C   0  0  0  0  0  0  0  0  0  0  0  0
   39.5350   32.8850   41.0370 N   0  0  0  0  0  0  0  0  0  0  0  0
   39.1350   34.0960   40.6460 C   0  0  0  0  0  0  0  0  0  0  0  0
   38.0090   34.1610   39.9280 N   0  0  0  0  0  0  0  0  0  0  0  0
   36.4410   33.2320   39.0460 H   0  0  0  0  0  0  0  0  0  0  0  0
   39.8270   34.8440   40.9960 H   0  0  0  0  0  0  0  0  0  0  0  0
   39.3440   30.4030   41.3380 C   0  0  0  0  0  0  0  0  0  0  0  0
   40.2870   30.6650   42.5200 C   0  0  0  0  0  0  0  0  0  0  0  0
   38.8720   30.0250   42.6560 C   0  0  0  0  0  0  0  0  0  0  0  0
   39.9110   29.7950   40.6010 H   0  0  0  0  0  0  0  0  0  0  0  0
   41.1170   29.9840   42.7240 H   0  0  0  0  0  0  0  0  0  0  0  0
   40.3550   31.6760   42.9520 H   0  0  0  0  0  0  0  0  0  0  0  0
   38.0940   30.6590   43.1130 H   0  0  0  0  0  0  0  0  0  0  0  0
   38.8760   28.9370   42.8850 H   0  0  0  0  0  0  0  0  0  0  0  0
   36.9540   30.6280   39.6460 C   0  0  0  0  0  0  0  0  0  0  0  0
   35.8440   30.2550   40.4210 C   0  0  0  0  0  0  0  0  0  0  0  0
   35.4030   30.6890   41.3070 H   0  0  0  0  0  0  0  0  0  0  0  0
   35.0820   29.1850   40.1460 C   0  0  0  0  0  3  0  0  0  0  0  0
   35.4370   28.4020   39.0040 C   0  0  0  0  0  3  0  0  0  0  0  0
   36.9420   29.3650   38.4070 S   0  0  0  0  0  0  0  0  0  0  0  0
  1  6  2  0  0  0  0
  1  2  1  0  0  0  0
  2  3  2  0  0  0  0
  3  4  1  0  0  0  0
  3  9  1  0  0  0  0
  5  8  1  0  0  0  0
  5  4  2  0  0  0  0
  6  5  1  0  0  0  0
  7  1  1  0  0  0  0
  9 10  1  0  0  0  0
  9 11  1  0  0  0  0
 10 11  1  0  0  0  0
 10 13  1  0  0  0  0
 10 14  1  0  0  0  0
 11 16  1  0  0  0  0
 11 15  1  0  0  0  0
 12  9  1  0  0  0  0
 17  2  1  0  0  0  0
 17 18  2  0  0  0  0
 18 19  1  0  0  0  0
 20 18  1  0  0  0  0
 21 20  2  0  0  0  0
 22 21  1  0  0  0  0
 22 17  1  0  0  0  0
M  END
>  <minimizedAffinity>
-3.99962378

$$$$

 OpenBabel03252509213D

 22 24  0  0  0  0  0  0  0  0999 V2000
   37.4670   28.6030   38.5730 C   0  0  0  0  0  0  0  0  0  0  0  0
   37.4390   29.5550   39.6150 C   0  0  0  0  0  0  0  0  0  0  0  0
   37.3480   30.8590   39.2070 C   0  0  0  0  0  0  0  0  0  0  0  0
   37.2930   31.1300   37.8520 N   0  0  0  0  0  0  0  0  0  0  0  0
   37.3220   30.2000   36.8970 C   0  0  0  0  0  0  0  0  0  0  0  0
   37.4110   28.9260   37.2920 N   0  0  0  0  0  0  0  0  0  0  0  0
   37.5380   27.5630   38.7840 H   0  0  0  0  0  0  0  0  0  0  0  0
   37.2650   30.6660   35.9260 H   0  0  0  0  0  0  0  0  0  0  0  0
   37.1930   31.9830   40.2080 C   0  0  0  0  0  0  0  0  0  0  0  0
   38.5290   32.7100   40.4050 C   0  0  0  0  0  0  0  0  0  0  0  0
   37.2780   33.3490   39.7300 C   0  0  0  0  0  0  0  0  0  0  0  0
   36.8760   31.6130   41.2070 H   0  0  0  0  0  0  0  0  0  0  0  0
   38.7880   33.1330   41.3790 H   0  0  0  0  0  0  0  0  0  0  0  0
   39.3600   32.5270   39.7050 H   0  0  0  0  0  0  0  0  0  0  0  0
   37.3360   33.4990   38.6390 H   0  0  0  0  0  0  0  0  0  0  0  0
   36.7610   34.1170   40.3460 H   0  0  0  0  0  0  0  0  0  0  0  0
   37.5220   29.1690   40.9800 C   0  0  0  0  0  0  0  0  0  0  0  0
   36.5570   28.2970   41.5110 C   0  0  0  0  0  0  0  0  0  0  0  0
   35.6970   27.8160   41.0680 H   0  0  0  0  0  0  0  0  0  0  0  0
   36.5600   27.8890   42.7890 C   0  0  0  0  0  3  0  0  0  0  0  0
   37.6050   28.3770   43.6320 C   0  0  0  0  0  3  0  0  0  0  0  0
   38.5400   29.4520   42.4000 S   0  0  0  0  0  0  0  0  0  0  0  0
  1  7  1  0  0  0  0
  1  2  1  0  0  0  0
  2 17  1  0  0  0  0
  3  2  2  0  0  0  0
  3  9  1  0  0  0  0
  4  3  1  0  0  0  0
  5  6  1  0  0  0  0
  5  4  2  0  0  0  0
  6  1  2  0  0  0  0
  8  5  1  0  0  0  0
  9 10  1  0  0  0  0
  9 12  1  0  0  0  0
 10 13  1  0  0  0  0
 11  9  1  0  0  0  0
 11 16  1  0  0  0  0
 11 10  1  0  0  0  0
 14 10  1  0  0  0  0
 15 11  1  0  0  0  0
 17 18  2  0  0  0  0
 17 22  1  0  0  0  0
 18 20  1  0  0  0  0
 19 18  1  0  0  0  0
 20 21  2  0  0  0  0
 22 21  1  0  0  0  0
M  END
>  <minimizedAffinity>
-3.9383812

$$$$

 OpenBabel03252509213D

 22 24  0  0  0  0  0  0  0  0999 V2000
   36.7360   26.2870   40.1070 C   0  0  0  0  0  0  0  0  0  0  0  0
   37.3760   27.1690   41.0040 C   0  0  0  0  0  0  0  0  0  0  0  0
   37.9640   26.5690   42.0860 C   0  0  0  0  0  0  0  0  0  0  0  0
   37.8850   25.1940   42.2090 N   0  0  0  0  0  0  0  0  0  0  0  0
   37.2690   24.3940   41.3380 C   0  0  0  0  0  0  0  0  0  0  0  0
   36.6940   24.9770   40.2800 N   0  0  0  0  0  0  0  0  0  0  0  0
   36.2480   26.6530   39.2350 H   0  0  0  0  0  0  0  0  0  0  0  0
   37.3480   23.3680   41.6580 H   0  0  0  0  0  0  0  0  0  0  0  0
   38.7850   27.3680   43.0740 C   0  0  0  0  0  0  0  0  0  0  0  0
   39.8910   26.4950   43.6800 C   0  0  0  0  0  0  0  0  0  0  0  0
   40.1530   27.7000   42.7260 C   0  0  0  0  0  0  0  0  0  0  0  0
   38.1710   27.7460   43.9210 H   0  0  0  0  0  0  0  0  0  0  0  0
   40.2140   26.6520   44.7120 H   0  0  0  0  0  0  0  0  0  0  0  0
   40.1250   25.5180   43.2280 H   0  0  0  0  0  0  0  0  0  0  0  0
   40.4880   27.4490   41.7060 H   0  0  0  0  0  0  0  0  0  0  0  0
   40.5810   28.5980   43.2220 H   0  0  0  0  0  0  0  0  0  0  0  0
   37.3820   28.5740   40.7930 C   0  0  0  0  0  0  0  0  0  0  0  0
   36.2780   29.3380   41.2030 C   0  0  0  0  0  0  0  0  0  0  0  0
   35.3500   29.0670   41.6870 H   0  0  0  0  0  0  0  0  0  0  0  0
   36.2020   30.6680   41.0360 C   0  0  0  0  0  3  0  0  0  0  0  0
   37.3100   31.3150   40.4080 C   0  0  0  0  0  3  0  0  0  0  0  0
   38.4240   29.8280   40.1030 S   0  0  0  0  0  0  0  0  0  0  0  0
  1  6  2  0  0  0  0
  1  2  1  0  0  0  0
  2  3  2  0  0  0  0
  3  4  1  0  0  0  0
  3  9  1  0  0  0  0
  5  8  1  0  0  0  0
  5  4  2  0  0  0  0
  6  5  1  0  0  0  0
  7  1  1  0  0  0  0
  9 10  1  0  0  0  0
  9 12  1  0  0  0  0
 10 13  1  0  0  0  0
 11  9  1  0  0  0  0
 11 16  1  0  0  0  0
 11 10  1  0  0  0  0
 14 10  1  0  0  0  0
 15 11  1  0  0  0  0
 17  2  1  0  0  0  0
 17 18  2  0  0  0  0
 18 19  1  0  0  0  0
 20 18  1  0  0  0  0
 21 20  2  0  0  0  0
 22 21  1  0  0  0  0
 22 17  1  0  0  0  0
M  END
>  <minimizedAffinity>
-3.8920033

$$$$

 OpenBabel03252509213D

 22 24  0  0  0  0  0  0  0  0999 V2000
   36.5960   25.4590   39.7790 C   0  0  0  0  0  0  0  0  0  0  0  0
   36.9430   26.7350   40.2740 C   0  0  0  0  0  0  0  0  0  0  0  0
   37.2820   26.7690   41.6010 C   0  0  0  0  0  0  0  0  0  0  0  0
   37.2580   25.5910   42.3240 N   0  0  0  0  0  0  0  0  0  0  0  0
   36.9240   24.4030   41.8180 C   0  0  0  0  0  0  0  0  0  0  0  0
   36.5920   24.3670   40.5230 N   0  0  0  0  0  0  0  0  0  0  0  0
   36.3160   25.3260   38.7610 H   0  0  0  0  0  0  0  0  0  0  0  0
   36.9840   23.6460   42.5820 H   0  0  0  0  0  0  0  0  0  0  0  0
   37.7860   28.0400   42.2470 C   0  0  0  0  0  0  0  0  0  0  0  0
   37.2490   28.1610   43.6790 C   0  0  0  0  0  0  0  0  0  0  0  0
   38.7500   27.9320   43.3250 C   0  0  0  0  0  0  0  0  0  0  0  0
   37.4530   28.9490   41.7000 H   0  0  0  0  0  0  0  0  0  0  0  0
   37.0250   29.1430   44.1030 H   0  0  0  0  0  0  0  0  0  0  0  0
   36.7740   27.2910   44.1590 H   0  0  0  0  0  0  0  0  0  0  0  0
   39.1530   26.9290   43.5410 H   0  0  0  0  0  0  0  0  0  0  0  0
   39.4040   28.8160   43.4880 H   0  0  0  0  0  0  0  0  0  0  0  0
   36.9150   27.8890   39.4460 C   0  0  0  0  0  0  0  0  0  0  0  0
   35.6900   28.5200   39.1810 C   0  0  0  0  0  0  0  0  0  0  0  0
   34.6800   28.3010   39.4990 H   0  0  0  0  0  0  0  0  0  0  0  0
   35.5770   29.6100   38.4070 C   0  0  0  0  0  3  0  0  0  0  0  0
   36.7760   30.1370   37.8340 C   0  0  0  0  0  3  0  0  0  0  0  0
   38.0290   28.9130   38.5260 S   0  0  0  0  0  0  0  0  0  0  0  0
  1  2  2  0  0  0  0
  1  6  1  0  0  0  0
  2  3  1  0  0  0  0
  3  9  1  0  0  0  0
  3  4  2  0  0  0  0
  5  4  1  0  0  0  0
  5  8  1  0  0  0  0
  6  5  2  0  0  0  0
  7  1  1  0  0  0  0
  9 11  1  0  0  0  0
  9 10  1  0  0  0  0
 10 13  1  0  0  0  0
 10 14  1  0  0  0  0
 11 16  1  0  0  0  0
 11 15  1  0  0  0  0
 11 10  1  0  0  0  0
 12  9  1  0  0  0  0
 17  2  1  0  0  0  0
 18 17  2  0  0  0  0
 18 19  1  0  0  0  0
 20 18  1  0  0  0  0
 21 20  2  0  0  0  0
 21 22  1  0  0  0  0
 22 17  1  0  0  0  0
M  END
>  <minimizedAffinity>
-3.89181376

$$$$

 OpenBabel03252509213D

 22 24  0  0  0  0  0  0  0  0999 V2000
   38.7170   29.3050   42.7000 C   0  0  0  0  0  0  0  0  0  0  0  0
   38.0360   29.8750   41.6030 C   0  0  0  0  0  0  0  0  0  0  0  0
   36.8070   29.3320   41.3380 C   0  0  0  0  0  0  0  0  0  0  0  0
   36.3480   28.3020   42.1380 N   0  0  0  0  0  0  0  0  0  0  0  0
   37.0240   27.7900   43.1670 C   0  0  0  0  0  0  0  0  0  0  0  0
   38.2240   28.3190   43.4290 N   0  0  0  0  0  0  0  0  0  0  0  0
   39.6790   29.6560   42.9880 H   0  0  0  0  0  0  0  0  0  0  0  0
   36.4530   27.0010   43.6280 H   0  0  0  0  0  0  0  0  0  0  0  0
   35.9090   29.9120   40.2670 C   0  0  0  0  0  0  0  0  0  0  0  0
   35.9750   29.0570   38.9950 C   0  0  0  0  0  0  0  0  0  0  0  0
   34.7110   29.1820   39.9000 C   0  0  0  0  0  0  0  0  0  0  0  0
   36.2120   30.9430   39.9790 H   0  0  0  0  0  0  0  0  0  0  0  0
   35.8790   29.5240   38.0120 H   0  0  0  0  0  0  0  0  0  0  0  0
   36.4420   28.0610   39.0290 H   0  0  0  0  0  0  0  0  0  0  0  0
   34.4570   28.2960   40.5040 H   0  0  0  0  0  0  0  0  0  0  0  0
   33.8860   29.7840   39.4620 H   0  0  0  0  0  0  0  0  0  0  0  0
   38.6090   30.9220   40.8310 C   0  0  0  0  0  0  0  0  0  0  0  0
   39.5140   30.6070   39.8050 C   0  0  0  0  0  0  0  0  0  0  0  0
   39.8980   29.6640   39.4440 H   0  0  0  0  0  0  0  0  0  0  0  0
   40.1020   31.5350   39.0340 C   0  0  0  0  0  3  0  0  0  0  0  0
   39.7770   32.9030   39.2890 C   0  0  0  0  0  3  0  0  0  0  0  0
   38.5680   32.6880   40.7180 S   0  0  0  0  0  0  0  0  0  0  0  0
  1  7  1  0  0  0  0
  1  6  1  0  0  0  0
  2  1  2  0  0  0  0
  3  2  1  0  0  0  0
  3  4  2  0  0  0  0
  4  5  1  0  0  0  0
  5  6  2  0  0  0  0
  5  8  1  0  0  0  0
  9  3  1  0  0  0  0
 10 14  1  0  0  0  0
 10 11  1  0  0  0  0
 10  9  1  0  0  0  0
 11  9  1  0  0  0  0
 11 15  1  0  0  0  0
 12  9  1  0  0  0  0
 13 10  1  0  0  0  0
 16 11  1  0  0  0  0
 17  2  1  0  0  0  0
 18 17  2  0  0  0  0
 19 18  1  0  0  0  0
 20 21  2  0  0  0  0
 20 18  1  0  0  0  0
 21 22  1  0  0  0  0
 22 17  1  0  0  0  0
M  END
>  <minimizedAffinity>
-3.88328099

$$$$
