
 OpenBabel03252505133D

 41 44  0  0  1  0  0  0  0  0999 V2000
   36.0800   30.8970   40.5050 C   0  0  0  0  0  0  0  0  0  0  0  0
   36.9600   31.9740   40.3260 C   0  0  0  0  0  0  0  0  0  0  0  0
   38.3090   31.7990   40.7770 C   0  0  0  0  0  0  0  0  0  0  0  0
   38.6570   30.6160   41.3470 N   0  0  0  0  0  0  0  0  0  0  0  0
   37.7760   29.6090   41.4980 C   0  0  0  0  0  0  0  0  0  0  0  0
   36.4730   29.7510   41.0730 N   0  0  0  0  0  0  0  0  0  0  0  0
   35.0840   31.1040   40.1370 H   0  0  0  0  0  0  0  0  0  0  0  0
   36.6900   32.8990   39.8800 H   0  0  0  0  0  0  0  0  0  0  0  0
   38.2050   28.3400   42.1250 C   0  0  2  0  0  0  0  0  0  0  0  0
   38.3770   27.3720   40.9730 C   0  0  0  0  0  0  0  0  0  0  0  0
   37.3230   26.3530   40.8380 C   0  0  0  0  0  0  0  0  0  0  0  0
   37.2700   25.6350   42.1860 C   0  0  0  0  0  0  0  0  0  0  0  0
   36.8010   26.5220   43.2610 C   0  0  0  0  0  0  0  0  0  0  0  0
   37.3210   27.9080   43.1710 C   0  0  0  0  0  0  0  0  0  0  0  0
   39.2160   28.5560   42.5630 H   0  0  0  0  0  0  0  0  0  0  0  0
   39.3430   26.8390   41.1290 H   0  0  0  0  0  0  0  0  0  0  0  0
   38.4960   27.8770   39.9910 H   0  0  0  0  0  0  0  0  0  0  0  0
   37.6560   25.6140   40.0880 H   0  0  0  0  0  0  0  0  0  0  0  0
   36.3370   26.7750   40.6410 H   0  0  0  0  0  0  0  0  0  0  0  0
   36.4920   24.8670   42.0730 H   0  0  0  0  0  0  0  0  0  0  0  0
   38.2530   25.1780   42.3670 H   0  0  0  0  0  0  0  0  0  0  0  0
   36.1690   26.4160   44.1050 H   0  0  0  0  0  0  0  0  0  0  0  0
   36.9470   28.8870   44.1530 N   0  0  0  0  0  0  0  0  0  0  0  0
   35.9090   29.0570   44.0570 H   0  0  0  0  0  0  0  0  0  0  0  0
   37.5980   29.3330   44.8300 H   0  0  0  0  0  0  0  0  0  0  0  0
   39.2530   32.8890   40.6000 C   0  0  0  0  0  0  0  0  0  0  0  0
   38.7820   34.0740   40.1220 C   0  0  0  0  0  0  0  0  0  0  0  0
   39.7360   35.0980   39.9690 C   0  0  0  0  0  0  0  0  0  0  0  0
   41.0410   34.7880   40.3240 C   0  0  0  0  0  0  0  0  0  0  0  0
   41.5070   33.6070   40.8000 C   0  0  0  0  0  0  0  0  0  0  0  0
   40.5490   32.6400   40.9320 N   0  0  0  0  0  0  0  0  0  0  0  0
   37.7450   34.2320   39.8710 H   0  0  0  0  0  0  0  0  0  0  0  0
   39.3850   36.0350   39.5960 H   0  0  0  0  0  0  0  0  0  0  0  0
   41.6680   35.6480   40.1640 H   0  0  0  0  0  0  0  0  0  0  0  0
   42.8150   33.3700   41.1320 O   0  0  0  0  0  0  0  0  0  0  0  0
   43.4840   34.2120   41.9790 C   0  0  0  0  0  0  0  0  0  0  0  0
   44.0970   35.0630   42.7610 C   0  0  0  0  0  0  0  0  0  0  0  0
   43.6830   35.9790   42.3470 H   0  0  0  0  0  0  0  0  0  0  0  0
   44.9500   34.7610   43.7350 C   0  0  0  0  0  3  0  0  0  0  0  0
   45.2080   33.4240   43.9350 C   0  0  0  0  0  3  0  0  0  0  0  0
   44.1000   32.6330   42.5780 S   0  0  0  0  0  0  0  0  0  0  0  0
  1  6  1  0  0  0  0
  2  1  2  0  0  0  0
  2  3  1  0  0  0  0
  3  4  2  0  0  0  0
  4  5  1  0  0  0  0
  5  9  1  0  0  0  0
  6  5  2  0  0  0  0
  7  1  1  0  0  0  0
  8  2  1  0  0  0  0
  9 15  1  1  0  0  0
  9 14  1  0  0  0  0
 10 16  1  0  0  0  0
 10  9  1  0  0  0  0
 11 10  1  0  0  0  0
 11 12  1  0  0  0  0
 12 21  1  0  0  0  0
 12 13  1  0  0  0  0
 13 22  1  0  0  0  0
 14 13  2  0  0  0  0
 14 23  1  0  0  0  0
 17 10  1  0  0  0  0
 18 11  1  0  0  0  0
 19 11  1  0  0  0  0
 20 12  1  0  0  0  0
 23 25  1  0  0  0  0
 24 23  1  0  0  0  0
 26  3  1  0  0  0  0
 26 31  1  0  0  0  0
 27 26  2  0  0  0  0
 28 27  1  0  0  0  0
 28 29  2  0  0  0  0
 29 30  1  0  0  0  0
 30 31  2  0  0  0  0
 30 35  1  0  0  0  0
 32 27  1  0  0  0  0
 33 28  1  0  0  0  0
 34 29  1  0  0  0  0
 35 36  1  0  0  0  0
 36 41  1  0  0  0  0
 36 37  2  0  0  0  0
 37 39  1  0  0  0  0
 38 37  1  0  0  0  0
 39 40  2  0  0  0  0
 41 40  1  0  0  0  0
M  END
>  <minimizedAffinity>
-6.60576296

$$$$

 OpenBabel03252505133D

 41 44  0  0  1  0  0  0  0  0999 V2000
   40.0080   35.0960   39.9330 C   0  0  0  0  0  0  0  0  0  0  0  0
   39.0120   34.1790   40.3010 C   0  0  0  0  0  0  0  0  0  0  0  0
   39.3360   32.7860   40.2000 C   0  0  0  0  0  0  0  0  0  0  0  0
   40.5720   32.4350   39.7600 N   0  0  0  0  0  0  0  0  0  0  0  0
   41.4960   33.3520   39.4170 C   0  0  0  0  0  0  0  0  0  0  0  0
   41.2110   34.6980   39.5050 N   0  0  0  0  0  0  0  0  0  0  0  0
   39.6890   36.1250   40.0390 H   0  0  0  0  0  0  0  0  0  0  0  0
   38.0470   34.4510   40.6460 H   0  0  0  0  0  0  0  0  0  0  0  0
   42.8280   32.9190   38.9430 C   0  0  2  0  0  0  0  0  0  0  0  0
   43.6050   32.5910   40.2010 C   0  0  0  0  0  0  0  0  0  0  0  0
   44.6310   33.5740   40.5880 C   0  0  0  0  0  0  0  0  0  0  0  0
   45.5450   33.7140   39.3710 C   0  0  0  0  0  0  0  0  0  0  0  0
   44.8480   34.3260   38.2300 C   0  0  0  0  0  0  0  0  0  0  0  0
   43.4450   33.8720   38.0640 C   0  0  0  0  0  0  0  0  0  0  0  0
   42.6430   31.9650   38.3800 H   0  0  0  0  0  0  0  0  0  0  0  0
   44.1190   31.6180   40.0290 H   0  0  0  0  0  0  0  0  0  0  0  0
   42.9540   32.4080   41.0820 H   0  0  0  0  0  0  0  0  0  0  0  0
   45.2360   33.1350   41.4000 H   0  0  0  0  0  0  0  0  0  0  0  0
   44.2210   34.5580   40.8180 H   0  0  0  0  0  0  0  0  0  0  0  0
   46.3150   34.4380   39.6710 H   0  0  0  0  0  0  0  0  0  0  0  0
   45.9860   32.7300   39.1620 H   0  0  0  0  0  0  0  0  0  0  0  0
   45.1020   35.0270   37.4770 H   0  0  0  0  0  0  0  0  0  0  0  0
   42.6390   34.3860   36.9920 N   0  0  0  0  0  0  0  0  0  0  0  0
   42.4960   35.4180   37.1640 H   0  0  0  0  0  0  0  0  0  0  0  0
   42.2760   33.8240   36.1960 H   0  0  0  0  0  0  0  0  0  0  0  0
   38.3350   31.8060   40.5820 C   0  0  0  0  0  0  0  0  0  0  0  0
   37.0770   31.9450   40.0780 C   0  0  0  0  0  0  0  0  0  0  0  0
   36.1440   30.9690   40.4760 C   0  0  0  0  0  0  0  0  0  0  0  0
   36.6080   29.9790   41.3310 C   0  0  0  0  0  0  0  0  0  0  0  0
   37.8610   29.8430   41.8310 C   0  0  0  0  0  0  0  0  0  0  0  0
   38.7350   30.8110   41.4210 N   0  0  0  0  0  0  0  0  0  0  0  0
   36.7990   32.7470   39.4140 H   0  0  0  0  0  0  0  0  0  0  0  0
   35.1520   31.0610   40.0900 H   0  0  0  0  0  0  0  0  0  0  0  0
   35.8060   29.2980   41.5580 H   0  0  0  0  0  0  0  0  0  0  0  0
   38.2520   28.8360   42.6740 O   0  0  0  0  0  0  0  0  0  0  0  0
   37.6170   27.6230   42.6530 C   0  0  0  0  0  0  0  0  0  0  0  0
   36.9640   26.4890   42.6590 C   0  0  0  0  0  0  0  0  0  0  0  0
   36.0490   26.8420   43.1300 H   0  0  0  0  0  0  0  0  0  0  0  0
   37.4070   25.3250   42.1940 C   0  0  0  0  0  3  0  0  0  0  0  0
   38.6730   25.3190   41.6570 C   0  0  0  0  0  3  0  0  0  0  0  0
   39.1750   27.1600   41.8830 S   0  0  0  0  0  0  0  0  0  0  0  0
  1  7  1  0  0  0  0
  1  2  1  0  0  0  0
  2  8  1  0  0  0  0
  3  2  2  0  0  0  0
  3 26  1  0  0  0  0
  4  3  1  0  0  0  0
  5  6  1  0  0  0  0
  5  4  2  0  0  0  0
  6  1  2  0  0  0  0
  9 15  1  6  0  0  0
  9  5  1  0  0  0  0
  9 10  1  0  0  0  0
 10 11  1  0  0  0  0
 10 17  1  0  0  0  0
 11 19  1  0  0  0  0
 11 18  1  0  0  0  0
 12 20  1  0  0  0  0
 12 11  1  0  0  0  0
 13 12  1  0  0  0  0
 14 13  2  0  0  0  0
 14  9  1  0  0  0  0
 16 10  1  0  0  0  0
 21 12  1  0  0  0  0
 22 13  1  0  0  0  0
 23 24  1  0  0  0  0
 23 14  1  0  0  0  0
 25 23  1  0  0  0  0
 26 31  1  0  0  0  0
 27 28  1  0  0  0  0
 27 26  2  0  0  0  0
 28 29  2  0  0  0  0
 29 34  1  0  0  0  0
 29 30  1  0  0  0  0
 30 35  1  0  0  0  0
 31 30  2  0  0  0  0
 32 27  1  0  0  0  0
 33 28  1  0  0  0  0
 36 37  2  0  0  0  0
 36 35  1  0  0  0  0
 37 38  1  0  0  0  0
 39 37  1  0  0  0  0
 40 41  1  0  0  0  0
 40 39  2  0  0  0  0
 41 36  1  0  0  0  0
M  END
>  <minimizedAffinity>
-6.41205645

$$$$

 OpenBabel03252505133D

 41 44  0  0  1  0  0  0  0  0999 V2000
   37.4020   32.6100   39.8840 C   0  0  0  0  0  0  0  0  0  0  0  0
   37.0150   31.4500   40.5720 C   0  0  0  0  0  0  0  0  0  0  0  0
   38.0110   30.4360   40.7590 C   0  0  0  0  0  0  0  0  0  0  0  0
   39.2590   30.6510   40.2680 N   0  0  0  0  0  0  0  0  0  0  0  0
   39.5850   31.7810   39.6130 C   0  0  0  0  0  0  0  0  0  0  0  0
   38.6460   32.7720   39.4190 N   0  0  0  0  0  0  0  0  0  0  0  0
   36.5980   33.3270   39.7860 H   0  0  0  0  0  0  0  0  0  0  0  0
   36.0410   31.2810   40.9580 H   0  0  0  0  0  0  0  0  0  0  0  0
   40.9580   31.9670   39.0960 C   0  0  2  0  0  0  0  0  0  0  0  0
   41.7410   32.5400   40.2600 C   0  0  0  0  0  0  0  0  0  0  0  0
   42.0630   33.9730   40.1640 C   0  0  0  0  0  0  0  0  0  0  0  0
   42.8030   34.1410   38.8370 C   0  0  0  0  0  0  0  0  0  0  0  0
   41.9300   33.8720   37.6850 C   0  0  0  0  0  0  0  0  0  0  0  0
   40.9990   32.7350   37.8830 C   0  0  0  0  0  0  0  0  0  0  0  0
   41.3360   30.9300   38.8880 H   0  0  0  0  0  0  0  0  0  0  0  0
   42.7040   31.9820   40.3180 H   0  0  0  0  0  0  0  0  0  0  0  0
   41.2580   32.3600   41.2430 H   0  0  0  0  0  0  0  0  0  0  0  0
   42.7770   34.2180   40.9680 H   0  0  0  0  0  0  0  0  0  0  0  0
   41.1790   34.6130   40.1400 H   0  0  0  0  0  0  0  0  0  0  0  0
   43.0520   35.2100   38.7790 H   0  0  0  0  0  0  0  0  0  0  0  0
   43.7120   33.5250   38.8750 H   0  0  0  0  0  0  0  0  0  0  0  0
   41.7970   34.2970   36.7240 H   0  0  0  0  0  0  0  0  0  0  0  0
   40.0840   32.3570   36.8420 N   0  0  0  0  0  0  0  0  0  0  0  0
   39.4030   33.1520   36.7100 H   0  0  0  0  0  0  0  0  0  0  0  0
   40.1110   31.4560   36.3230 H   0  0  0  0  0  0  0  0  0  0  0  0
   37.6510   29.2250   41.4750 C   0  0  0  0  0  0  0  0  0  0  0  0
   37.6560   29.2580   42.8360 C   0  0  0  0  0  0  0  0  0  0  0  0
   37.2990   28.0600   43.4820 C   0  0  0  0  0  0  0  0  0  0  0  0
   36.9820   26.9850   42.6640 C   0  0  0  0  0  0  0  0  0  0  0  0
   36.9770   26.9540   41.3090 C   0  0  0  0  0  0  0  0  0  0  0  0
   37.3300   28.1370   40.7220 N   0  0  0  0  0  0  0  0  0  0  0  0
   37.9150   30.1420   43.3970 H   0  0  0  0  0  0  0  0  0  0  0  0
   37.2970   28.0680   44.5500 H   0  0  0  0  0  0  0  0  0  0  0  0
   36.7260   26.1350   43.2740 H   0  0  0  0  0  0  0  0  0  0  0  0
   36.6500   25.8530   40.5620 O   0  0  0  0  0  0  0  0  0  0  0  0
   37.1840   24.6280   40.8560 C   0  0  0  0  0  0  0  0  0  0  0  0
   37.6820   23.4650   41.1930 C   0  0  0  0  0  0  0  0  0  0  0  0
   37.4870   23.5190   42.2620 H   0  0  0  0  0  0  0  0  0  0  0  0
   38.2320   22.5770   40.3710 C   0  0  0  0  0  3  0  0  0  0  0  0
   38.2800   22.9190   39.0390 C   0  0  0  0  0  3  0  0  0  0  0  0
   37.4520   24.6530   39.0780 S   0  0  0  0  0  0  0  0  0  0  0  0
  1  2  1  0  0  0  0
  2  3  2  0  0  0  0
  2  8  1  0  0  0  0
  3 26  1  0  0  0  0
  4  3  1  0  0  0  0
  5  4  2  0  0  0  0
  6  5  1  0  0  0  0
  6  1  2  0  0  0  0
  7  1  1  0  0  0  0
  9 15  1  6  0  0  0
  9  5  1  0  0  0  0
  9 10  1  0  0  0  0
 10 16  1  0  0  0  0
 10 17  1  0  0  0  0
 11 10  1  0  0  0  0
 11 18  1  0  0  0  0
 12 21  1  0  0  0  0
 12 11  1  0  0  0  0
 13 14  2  0  0  0  0
 13 12  1  0  0  0  0
 14  9  1  0  0  0  0
 19 11  1  0  0  0  0
 20 12  1  0  0  0  0
 22 13  1  0  0  0  0
 23 14  1  0  0  0  0
 24 23  1  0  0  0  0
 25 23  1  0  0  0  0
 26 27  1  0  0  0  0
 27 32  1  0  0  0  0
 27 28  2  0  0  0  0
 28 33  1  0  0  0  0
 29 34  1  0  0  0  0
 29 28  1  0  0  0  0
 30 29  2  0  0  0  0
 31 30  1  0  0  0  0
 31 26  2  0  0  0  0
 35 36  1  0  0  0  0
 35 30  1  0  0  0  0
 36 37  2  0  0  0  0
 37 38  1  0  0  0  0
 39 37  1  0  0  0  0
 40 41  1  0  0  0  0
 40 39  2  0  0  0  0
 41 36  1  0  0  0  0
M  END
>  <minimizedAffinity>
-6.40007591

$$$$

 OpenBabel03252505133D

 41 44  0  0  1  0  0  0  0  0999 V2000
   37.6350   32.8460   39.9590 C   0  0  0  0  0  0  0  0  0  0  0  0
   37.2350   31.7060   40.6710 C   0  0  0  0  0  0  0  0  0  0  0  0
   38.2040   30.6620   40.8340 C   0  0  0  0  0  0  0  0  0  0  0  0
   39.4410   30.8310   40.2970 N   0  0  0  0  0  0  0  0  0  0  0  0
   39.7790   31.9450   39.6200 C   0  0  0  0  0  0  0  0  0  0  0  0
   38.8670   32.9640   39.4500 N   0  0  0  0  0  0  0  0  0  0  0  0
   36.8520   33.5880   39.8820 H   0  0  0  0  0  0  0  0  0  0  0  0
   36.2710   31.5720   41.0920 H   0  0  0  0  0  0  0  0  0  0  0  0
   41.1390   32.0810   39.0540 C   0  0  2  0  0  0  0  0  0  0  0  0
   41.9660   32.6970   40.1640 C   0  0  0  0  0  0  0  0  0  0  0  0
   42.3070   34.1180   39.9880 C   0  0  0  0  0  0  0  0  0  0  0  0
   43.0090   34.2080   38.6330 C   0  0  0  0  0  0  0  0  0  0  0  0
   42.0970   33.8980   37.5220 C   0  0  0  0  0  0  0  0  0  0  0  0
   41.1540   32.7880   37.8040 C   0  0  0  0  0  0  0  0  0  0  0  0
   41.4930   31.0290   38.8860 H   0  0  0  0  0  0  0  0  0  0  0  0
   42.9210   32.1260   40.2210 H   0  0  0  0  0  0  0  0  0  0  0  0
   41.5100   32.5730   41.1690 H   0  0  0  0  0  0  0  0  0  0  0  0
   43.0500   34.3890   40.7580 H   0  0  0  0  0  0  0  0  0  0  0  0
   41.4340   34.7710   39.9590 H   0  0  0  0  0  0  0  0  0  0  0  0
   43.2730   35.2680   38.5150 H   0  0  0  0  0  0  0  0  0  0  0  0
   43.9080   33.5780   38.6740 H   0  0  0  0  0  0  0  0  0  0  0  0
   41.9410   34.2780   36.5450 H   0  0  0  0  0  0  0  0  0  0  0  0
   40.2020   32.3750   36.8110 N   0  0  0  0  0  0  0  0  0  0  0  0
   39.5300   33.1750   36.6600 H   0  0  0  0  0  0  0  0  0  0  0  0
   40.1990   31.4500   36.3360 H   0  0  0  0  0  0  0  0  0  0  0  0
   37.8300   29.4690   41.5730 C   0  0  0  0  0  0  0  0  0  0  0  0
   36.5600   28.9980   41.4310 C   0  0  0  0  0  0  0  0  0  0  0  0
   36.2480   27.8400   42.1670 C   0  0  0  0  0  0  0  0  0  0  0  0
   37.2640   27.3090   42.9490 C   0  0  0  0  0  0  0  0  0  0  0  0
   38.5280   27.7790   43.0880 C   0  0  0  0  0  0  0  0  0  0  0  0
   38.7890   28.9050   42.3580 N   0  0  0  0  0  0  0  0  0  0  0  0
   35.8290   29.4730   40.7970 H   0  0  0  0  0  0  0  0  0  0  0  0
   35.2570   27.4550   42.0680 H   0  0  0  0  0  0  0  0  0  0  0  0
   36.9030   26.4310   43.4560 H   0  0  0  0  0  0  0  0  0  0  0  0
   39.4850   27.2020   43.8810 O   0  0  0  0  0  0  0  0  0  0  0  0
   40.2590   26.1780   43.4060 C   0  0  0  0  0  0  0  0  0  0  0  0
   40.9510   25.1730   42.9330 C   0  0  0  0  0  0  0  0  0  0  0  0
   40.1230   24.5920   42.5330 H   0  0  0  0  0  0  0  0  0  0  0  0
   42.2710   25.0300   42.9920 C   0  0  0  0  0  3  0  0  0  0  0  0
   42.9720   26.0400   43.6100 C   0  0  0  0  0  3  0  0  0  0  0  0
   41.5430   27.2250   44.1050 S   0  0  0  0  0  0  0  0  0  0  0  0
  1  2  1  0  0  0  0
  2  3  2  0  0  0  0
  2  8  1  0  0  0  0
  3 26  1  0  0  0  0
  4  3  1  0  0  0  0
  5  4  2  0  0  0  0
  6  5  1  0  0  0  0
  6  1  2  0  0  0  0
  7  1  1  0  0  0  0
  9 15  1  6  0  0  0
  9  5  1  0  0  0  0
  9 10  1  0  0  0  0
 10 16  1  0  0  0  0
 10 17  1  0  0  0  0
 11 10  1  0  0  0  0
 11 18  1  0  0  0  0
 12 21  1  0  0  0  0
 12 11  1  0  0  0  0
 13 14  2  0  0  0  0
 13 12  1  0  0  0  0
 14  9  1  0  0  0  0
 19 11  1  0  0  0  0
 20 12  1  0  0  0  0
 22 13  1  0  0  0  0
 23 14  1  0  0  0  0
 24 23  1  0  0  0  0
 25 23  1  0  0  0  0
 26 31  1  0  0  0  0
 27 26  2  0  0  0  0
 27 28  1  0  0  0  0
 28 29  2  0  0  0  0
 29 30  1  0  0  0  0
 29 34  1  0  0  0  0
 30 35  1  0  0  0  0
 31 30  2  0  0  0  0
 32 27  1  0  0  0  0
 33 28  1  0  0  0  0
 36 35  1  0  0  0  0
 36 41  1  0  0  0  0
 37 39  1  0  0  0  0
 37 36  2  0  0  0  0
 38 37  1  0  0  0  0
 39 40  2  0  0  0  0
 40 41  1  0  0  0  0
M  END
>  <minimizedAffinity>
-6.33396101

$$$$

 OpenBabel03252505133D

 41 44  0  0  1  0  0  0  0  0999 V2000
   36.6080   30.1730   38.5820 C   0  0  0  0  0  0  0  0  0  0  0  0
   37.2560   31.4160   38.6430 C   0  0  0  0  0  0  0  0  0  0  0  0
   38.2820   31.5720   39.6320 C   0  0  0  0  0  0  0  0  0  0  0  0
   38.5660   30.5220   40.4460 N   0  0  0  0  0  0  0  0  0  0  0  0
   37.9160   29.3470   40.3520 C   0  0  0  0  0  0  0  0  0  0  0  0
   36.9260   29.1700   39.4090 N   0  0  0  0  0  0  0  0  0  0  0  0
   35.8510   30.1330   37.8110 H   0  0  0  0  0  0  0  0  0  0  0  0
   37.0360   32.2360   38.0060 H   0  0  0  0  0  0  0  0  0  0  0  0
   38.2630   28.2350   41.2620 C   0  0  2  0  0  0  0  0  0  0  0  0
   38.1640   26.9850   40.4110 C   0  0  0  0  0  0  0  0  0  0  0  0
   36.9850   26.1400   40.6590 C   0  0  0  0  0  0  0  0  0  0  0  0
   37.0180   25.8150   42.1520 C   0  0  0  0  0  0  0  0  0  0  0  0
   36.8050   27.0120   42.9790 C   0  0  0  0  0  0  0  0  0  0  0  0
   37.4750   28.2310   42.4630 C   0  0  0  0  0  0  0  0  0  0  0  0
   39.3410   28.4000   41.5300 H   0  0  0  0  0  0  0  0  0  0  0  0
   39.0690   26.3700   40.6200 H   0  0  0  0  0  0  0  0  0  0  0  0
   38.2160   27.1930   39.3220 H   0  0  0  0  0  0  0  0  0  0  0  0
   37.1250   25.1900   40.1160 H   0  0  0  0  0  0  0  0  0  0  0  0
   36.0410   26.6430   40.4440 H   0  0  0  0  0  0  0  0  0  0  0  0
   36.1440   25.1730   42.3270 H   0  0  0  0  0  0  0  0  0  0  0  0
   37.9520   25.2760   42.3620 H   0  0  0  0  0  0  0  0  0  0  0  0
   36.2790   27.2280   43.8730 H   0  0  0  0  0  0  0  0  0  0  0  0
   37.3540   29.4770   43.1670 N   0  0  0  0  0  0  0  0  0  0  0  0
   36.3410   29.7730   43.1220 H   0  0  0  0  0  0  0  0  0  0  0  0
   38.1370   29.9790   43.6320 H   0  0  0  0  0  0  0  0  0  0  0  0
   38.9830   32.8410   39.7190 C   0  0  0  0  0  0  0  0  0  0  0  0
   38.3360   33.8920   40.2950 C   0  0  0  0  0  0  0  0  0  0  0  0
   39.0580   35.0990   40.3570 C   0  0  0  0  0  0  0  0  0  0  0  0
   40.3410   35.0820   39.8280 C   0  0  0  0  0  0  0  0  0  0  0  0
   40.9830   34.0340   39.2550 C   0  0  0  0  0  0  0  0  0  0  0  0
   40.2460   32.8830   39.2150 N   0  0  0  0  0  0  0  0  0  0  0  0
   37.3340   33.8190   40.6850 H   0  0  0  0  0  0  0  0  0  0  0  0
   38.5680   35.9340   40.8060 H   0  0  0  0  0  0  0  0  0  0  0  0
   40.7850   36.0570   39.9370 H   0  0  0  0  0  0  0  0  0  0  0  0
   42.2560   34.0880   38.7520 O   0  0  0  0  0  0  0  0  0  0  0  0
   42.7430   33.0710   37.9770 C   0  0  0  0  0  0  0  0  0  0  0  0
   43.1550   32.0780   37.2300 C   0  0  0  0  0  0  0  0  0  0  0  0
   42.1900   31.6080   37.0550 H   0  0  0  0  0  0  0  0  0  0  0  0
   44.4110   31.8350   36.8690 C   0  0  0  0  0  3  0  0  0  0  0  0
   45.3650   32.7140   37.3270 C   0  0  0  0  0  3  0  0  0  0  0  0
   44.2780   33.9360   38.3360 S   0  0  0  0  0  0  0  0  0  0  0  0
  1  2  2  0  0  0  0
  1  6  1  0  0  0  0
  2  3  1  0  0  0  0
  3 26  1  0  0  0  0
  3  4  2  0  0  0  0
  5  4  1  0  0  0  0
  5  9  1  0  0  0  0
  6  5  2  0  0  0  0
  7  1  1  0  0  0  0
  8  2  1  0  0  0  0
  9 15  1  1  0  0  0
  9 14  1  0  0  0  0
 10 16  1  0  0  0  0
 10 11  1  0  0  0  0
 10  9  1  0  0  0  0
 11 12  1  0  0  0  0
 12 20  1  0  0  0  0
 12 21  1  0  0  0  0
 12 13  1  0  0  0  0
 13 22  1  0  0  0  0
 14 13  2  0  0  0  0
 14 23  1  0  0  0  0
 17 10  1  0  0  0  0
 18 11  1  0  0  0  0
 19 11  1  0  0  0  0
 23 25  1  0  0  0  0
 24 23  1  0  0  0  0
 26 27  1  0  0  0  0
 27 28  2  0  0  0  0
 27 32  1  0  0  0  0
 28 33  1  0  0  0  0
 29 34  1  0  0  0  0
 29 28  1  0  0  0  0
 30 29  2  0  0  0  0
 31 30  1  0  0  0  0
 31 26  2  0  0  0  0
 35 30  1  0  0  0  0
 36 41  1  0  0  0  0
 36 35  1  0  0  0  0
 37 36  2  0  0  0  0
 38 37  1  0  0  0  0
 39 37  1  0  0  0  0
 39 40  2  0  0  0  0
 40 41  1  0  0  0  0
M  END
>  <minimizedAffinity>
-6.31479025

$$$$

 OpenBabel03252505133D

 41 44  0  0  1  0  0  0  0  0999 V2000
   36.1140   24.8530   39.0430 C   0  0  0  0  0  0  0  0  0  0  0  0
   36.2710   26.0660   38.3560 C   0  0  0  0  0  0  0  0  0  0  0  0
   36.8850   27.1480   39.0680 C   0  0  0  0  0  0  0  0  0  0  0  0
   37.2770   26.9420   40.3530 N   0  0  0  0  0  0  0  0  0  0  0  0
   37.1050   25.7590   40.9720 C   0  0  0  0  0  0  0  0  0  0  0  0
   36.5170   24.7030   40.3100 N   0  0  0  0  0  0  0  0  0  0  0  0
   35.6470   24.0870   38.4390 H   0  0  0  0  0  0  0  0  0  0  0  0
   35.9670   26.2280   37.3520 H   0  0  0  0  0  0  0  0  0  0  0  0
   37.5480   25.5860   42.3720 C   0  0  2  0  0  0  0  0  0  0  0  0
   37.6600   26.9920   42.9250 C   0  0  0  0  0  0  0  0  0  0  0  0
   39.0320   27.4990   43.0950 C   0  0  0  0  0  0  0  0  0  0  0  0
   39.7420   26.4770   43.9810 C   0  0  0  0  0  0  0  0  0  0  0  0
   39.9000   25.1810   43.3050 C   0  0  0  0  0  0  0  0  0  0  0  0
   38.7290   24.7780   42.4880 C   0  0  0  0  0  0  0  0  0  0  0  0
   36.6950   25.0680   42.8880 H   0  0  0  0  0  0  0  0  0  0  0  0
   37.1740   26.9940   43.9270 H   0  0  0  0  0  0  0  0  0  0  0  0
   37.0860   27.7400   42.3380 H   0  0  0  0  0  0  0  0  0  0  0  0
   38.9790   28.4430   43.6640 H   0  0  0  0  0  0  0  0  0  0  0  0
   39.5830   27.5740   42.1560 H   0  0  0  0  0  0  0  0  0  0  0  0
   40.7600   26.8690   44.1140 H   0  0  0  0  0  0  0  0  0  0  0  0
   39.2080   26.4290   44.9400 H   0  0  0  0  0  0  0  0  0  0  0  0
   40.6590   24.4440   43.2530 H   0  0  0  0  0  0  0  0  0  0  0  0
   38.7410   23.5350   41.7680 N   0  0  0  0  0  0  0  0  0  0  0  0
   39.4880   23.6020   41.0250 H   0  0  0  0  0  0  0  0  0  0  0  0
   38.1170   22.7260   41.9640 H   0  0  0  0  0  0  0  0  0  0  0  0
   37.0740   28.4170   38.3870 C   0  0  0  0  0  0  0  0  0  0  0  0
   36.4060   28.6220   37.2180 C   0  0  0  0  0  0  0  0  0  0  0  0
   36.6220   29.8680   36.5990 C   0  0  0  0  0  0  0  0  0  0  0  0
   37.4840   30.7420   37.2450 C   0  0  0  0  0  0  0  0  0  0  0  0
   38.1470   30.5350   38.4090 C   0  0  0  0  0  0  0  0  0  0  0  0
   37.9110   29.3130   38.9770 N   0  0  0  0  0  0  0  0  0  0  0  0
   35.7500   27.8860   36.7830 H   0  0  0  0  0  0  0  0  0  0  0  0
   36.1060   30.0480   35.6810 H   0  0  0  0  0  0  0  0  0  0  0  0
   37.5620   31.6520   36.6760 H   0  0  0  0  0  0  0  0  0  0  0  0
   38.9860   31.4460   38.9940 O   0  0  0  0  0  0  0  0  0  0  0  0
   38.4990   32.6280   39.4850 C   0  0  0  0  0  0  0  0  0  0  0  0
   37.9800   33.7340   39.9530 C   0  0  0  0  0  0  0  0  0  0  0  0
   36.9420   33.4120   39.9910 H   0  0  0  0  0  0  0  0  0  0  0  0
   38.6410   34.8480   40.2520 C   0  0  0  0  0  3  0  0  0  0  0  0
   40.0020   34.8290   40.0460 C   0  0  0  0  0  3  0  0  0  0  0  0
   40.2450   33.0440   39.3770 S   0  0  0  0  0  0  0  0  0  0  0  0
  1  6  1  0  0  0  0
  2  1  2  0  0  0  0
  2  3  1  0  0  0  0
  3  4  2  0  0  0  0
  4  5  1  0  0  0  0
  5  9  1  0  0  0  0
  6  5  2  0  0  0  0
  7  1  1  0  0  0  0
  8  2  1  0  0  0  0
  9 14  1  0  0  0  0
  9 15  1  1  0  0  0
  9 10  1  0  0  0  0
 10 11  1  0  0  0  0
 10 16  1  0  0  0  0
 11 18  1  0  0  0  0
 11 12  1  0  0  0  0
 12 20  1  0  0  0  0
 12 21  1  0  0  0  0
 13 12  1  0  0  0  0
 14 13  2  0  0  0  0
 17 10  1  0  0  0  0
 19 11  1  0  0  0  0
 22 13  1  0  0  0  0
 23 25  1  0  0  0  0
 23 14  1  0  0  0  0
 24 23  1  0  0  0  0
 26 31  1  0  0  0  0
 26  3  1  0  0  0  0
 27 26  2  0  0  0  0
 28 27  1  0  0  0  0
 28 29  2  0  0  0  0
 29 30  1  0  0  0  0
 30 31  2  0  0  0  0
 30 35  1  0  0  0  0
 32 27  1  0  0  0  0
 33 28  1  0  0  0  0
 34 29  1  0  0  0  0
 35 36  1  0  0  0  0
 36 37  2  0  0  0  0
 37 38  1  0  0  0  0
 37 39  1  0  0  0  0
 40 39  2  0  0  0  0
 41 36  1  0  0  0  0
 41 40  1  0  0  0  0
M  END
>  <minimizedAffinity>
-6.29443312

$$$$

 OpenBabel03252505133D

 41 44  0  0  1  0  0  0  0  0999 V2000
   36.3560   29.1710   37.7110 C   0  0  0  0  0  0  0  0  0  0  0  0
   36.4140   28.4960   38.9390 C   0  0  0  0  0  0  0  0  0  0  0  0
   37.1270   29.1370   40.0050 C   0  0  0  0  0  0  0  0  0  0  0  0
   37.6990   30.3470   39.7710 N   0  0  0  0  0  0  0  0  0  0  0  0
   37.6170   30.9570   38.5730 C   0  0  0  0  0  0  0  0  0  0  0  0
   36.9370   30.3620   37.5310 N   0  0  0  0  0  0  0  0  0  0  0  0
   35.7990   28.6260   36.9600 H   0  0  0  0  0  0  0  0  0  0  0  0
   35.9670   27.5520   39.1240 H   0  0  0  0  0  0  0  0  0  0  0  0
   38.2580   32.2740   38.3680 C   0  0  2  0  0  0  0  0  0  0  0  0
   39.6330   31.9600   37.8150 C   0  0  0  0  0  0  0  0  0  0  0  0
   40.7510   32.1370   38.7560 C   0  0  0  0  0  0  0  0  0  0  0  0
   40.6480   33.5790   39.2500 C   0  0  0  0  0  0  0  0  0  0  0  0
   39.4380   33.7980   40.0570 C   0  0  0  0  0  0  0  0  0  0  0  0
   38.2360   33.0940   39.5470 C   0  0  0  0  0  0  0  0  0  0  0  0
   37.6540   32.7710   37.5630 H   0  0  0  0  0  0  0  0  0  0  0  0
   39.8070   32.6430   36.9530 H   0  0  0  0  0  0  0  0  0  0  0  0
   39.7060   30.9410   37.3800 H   0  0  0  0  0  0  0  0  0  0  0  0
   41.6930   32.0540   38.1870 H   0  0  0  0  0  0  0  0  0  0  0  0
   40.6930   31.4780   39.6240 H   0  0  0  0  0  0  0  0  0  0  0  0
   41.4930   33.7080   39.9410 H   0  0  0  0  0  0  0  0  0  0  0  0
   40.7430   34.2440   38.3810 H   0  0  0  0  0  0  0  0  0  0  0  0
   39.2040   34.3450   40.9330 H   0  0  0  0  0  0  0  0  0  0  0  0
   36.9800   33.2130   40.2340 N   0  0  0  0  0  0  0  0  0  0  0  0
   37.0890   32.7610   41.1820 H   0  0  0  0  0  0  0  0  0  0  0  0
   36.1300   33.6710   39.8490 H   0  0  0  0  0  0  0  0  0  0  0  0
   37.2020   28.4740   41.2950 C   0  0  0  0  0  0  0  0  0  0  0  0
   37.4140   29.2430   42.3990 C   0  0  0  0  0  0  0  0  0  0  0  0
   37.4780   28.5530   43.6250 C   0  0  0  0  0  0  0  0  0  0  0  0
   37.3160   27.1760   43.5710 C   0  0  0  0  0  0  0  0  0  0  0  0
   37.1040   26.4140   42.4700 C   0  0  0  0  0  0  0  0  0  0  0  0
   37.0510   27.1220   41.3020 N   0  0  0  0  0  0  0  0  0  0  0  0
   37.5270   30.3140   42.3520 H   0  0  0  0  0  0  0  0  0  0  0  0
   37.6430   29.1400   44.5020 H   0  0  0  0  0  0  0  0  0  0  0  0
   37.3830   26.7700   44.5660 H   0  0  0  0  0  0  0  0  0  0  0  0
   36.9520   25.0520   42.4910 O   0  0  0  0  0  0  0  0  0  0  0  0
   36.6470   24.3670   41.3460 C   0  0  0  0  0  0  0  0  0  0  0  0
   36.3020   23.7370   40.2520 C   0  0  0  0  0  0  0  0  0  0  0  0
   35.2870   24.1200   40.1680 H   0  0  0  0  0  0  0  0  0  0  0  0
   37.0640   22.9030   39.5520 C   0  0  0  0  0  3  0  0  0  0  0  0
   38.3370   22.6860   40.0270 C   0  0  0  0  0  3  0  0  0  0  0  0
   38.3370   23.8040   41.5910 S   0  0  0  0  0  0  0  0  0  0  0  0
  1  2  1  0  0  0  0
  2  8  1  0  0  0  0
  2  3  2  0  0  0  0
  3 26  1  0  0  0  0
  4  3  1  0  0  0  0
  5  4  2  0  0  0  0
  6  1  2  0  0  0  0
  6  5  1  0  0  0  0
  7  1  1  0  0  0  0
  9 15  1  6  0  0  0
  9  5  1  0  0  0  0
  9 14  1  0  0  0  0
 10  9  1  0  0  0  0
 10 11  1  0  0  0  0
 11 12  1  0  0  0  0
 11 19  1  0  0  0  0
 12 20  1  0  0  0  0
 12 13  1  0  0  0  0
 13 22  1  0  0  0  0
 14 13  2  0  0  0  0
 14 23  1  0  0  0  0
 16 10  1  0  0  0  0
 17 10  1  0  0  0  0
 18 11  1  0  0  0  0
 21 12  1  0  0  0  0
 23 24  1  0  0  0  0
 25 23  1  0  0  0  0
 26 31  2  0  0  0  0
 26 27  1  0  0  0  0
 27 28  2  0  0  0  0
 28 33  1  0  0  0  0
 29 28  1  0  0  0  0
 29 34  1  0  0  0  0
 30 35  1  0  0  0  0
 30 29  2  0  0  0  0
 31 30  1  0  0  0  0
 32 27  1  0  0  0  0
 36 41  1  0  0  0  0
 36 35  1  0  0  0  0
 37 36  2  0  0  0  0
 38 37  1  0  0  0  0
 39 40  2  0  0  0  0
 39 37  1  0  0  0  0
 40 41  1  0  0  0  0
M  END
>  <minimizedAffinity>
-6.17983246

$$$$

 OpenBabel03252505133D

 41 44  0  0  1  0  0  0  0  0999 V2000
   35.2550   27.8900   37.4790 C   0  0  0  0  0  0  0  0  0  0  0  0
   35.7250   26.9240   38.3820 C   0  0  0  0  0  0  0  0  0  0  0  0
   36.5150   27.3870   39.4840 C   0  0  0  0  0  0  0  0  0  0  0  0
   36.7640   28.7180   39.5930 N   0  0  0  0  0  0  0  0  0  0  0  0
   36.2910   29.6090   38.7010 C   0  0  0  0  0  0  0  0  0  0  0  0
   35.5280   29.1910   37.6320 N   0  0  0  0  0  0  0  0  0  0  0  0
   34.6650   27.4640   36.6790 H   0  0  0  0  0  0  0  0  0  0  0  0
   35.5310   25.8840   38.2980 H   0  0  0  0  0  0  0  0  0  0  0  0
   36.5900   31.0480   38.8650 C   0  0  2  0  0  0  0  0  0  0  0  0
   37.7620   31.3130   37.9430 C   0  0  0  0  0  0  0  0  0  0  0  0
   39.0630   31.4940   38.6070 C   0  0  0  0  0  0  0  0  0  0  0  0
   38.8580   32.6270   39.6120 C   0  0  0  0  0  0  0  0  0  0  0  0
   37.9350   32.2420   40.6900 C   0  0  0  0  0  0  0  0  0  0  0  0
   36.7820   31.4260   40.2370 C   0  0  0  0  0  0  0  0  0  0  0  0
   35.6890   31.5820   38.4590 H   0  0  0  0  0  0  0  0  0  0  0  0
   37.5370   32.2490   37.3820 H   0  0  0  0  0  0  0  0  0  0  0  0
   37.8820   30.5410   37.1540 H   0  0  0  0  0  0  0  0  0  0  0  0
   39.7850   31.8550   37.8530 H   0  0  0  0  0  0  0  0  0  0  0  0
   39.3940   30.6110   39.1550 H   0  0  0  0  0  0  0  0  0  0  0  0
   39.8360   32.7650   40.0930 H   0  0  0  0  0  0  0  0  0  0  0  0
   38.5610   33.5260   39.0550 H   0  0  0  0  0  0  0  0  0  0  0  0
   37.8850   32.4060   41.7350 H   0  0  0  0  0  0  0  0  0  0  0  0
   35.7980   30.9750   41.1810 N   0  0  0  0  0  0  0  0  0  0  0  0
   36.2710   30.3020   41.8410 H   0  0  0  0  0  0  0  0  0  0  0  0
   34.8020   31.2760   41.1940 H   0  0  0  0  0  0  0  0  0  0  0  0
   37.0120   26.4180   40.4450 C   0  0  0  0  0  0  0  0  0  0  0  0
   36.6340   25.1180   40.2980 C   0  0  0  0  0  0  0  0  0  0  0  0
   37.1430   24.2190   41.2540 C   0  0  0  0  0  0  0  0  0  0  0  0
   37.9690   24.7540   42.2320 C   0  0  0  0  0  0  0  0  0  0  0  0
   38.3440   26.0490   42.3760 C   0  0  0  0  0  0  0  0  0  0  0  0
   37.8270   26.8880   41.4280 N   0  0  0  0  0  0  0  0  0  0  0  0
   35.9870   24.7840   39.5040 H   0  0  0  0  0  0  0  0  0  0  0  0
   36.8580   23.1940   41.1540 H   0  0  0  0  0  0  0  0  0  0  0  0
   38.2910   23.9690   42.8960 H   0  0  0  0  0  0  0  0  0  0  0  0
   39.1670   26.5100   43.3690 O   0  0  0  0  0  0  0  0  0  0  0  0
   40.0280   27.5480   43.1360 C   0  0  0  0  0  0  0  0  0  0  0  0
   40.8080   28.5690   42.8870 C   0  0  0  0  0  0  0  0  0  0  0  0
   40.0770   29.2010   42.3880 H   0  0  0  0  0  0  0  0  0  0  0  0
   42.0940   28.6720   43.2070 C   0  0  0  0  0  3  0  0  0  0  0  0
   42.6530   27.5980   43.8610 C   0  0  0  0  0  3  0  0  0  0  0  0
   41.1440   26.4150   43.9760 S   0  0  0  0  0  0  0  0  0  0  0  0
  1  6  2  0  0  0  0
  1  2  1  0  0  0  0
  2  3  2  0  0  0  0
  3  4  1  0  0  0  0
  3 26  1  0  0  0  0
  5  9  1  0  0  0  0
  5  4  2  0  0  0  0
  6  5  1  0  0  0  0
  7  1  1  0  0  0  0
  8  2  1  0  0  0  0
  9 15  1  6  0  0  0
  9 14  1  0  0  0  0
 10 11  1  0  0  0  0
 10  9  1  0  0  0  0
 11 19  1  0  0  0  0
 11 12  1  0  0  0  0
 12 20  1  0  0  0  0
 12 13  1  0  0  0  0
 13 22  1  0  0  0  0
 14 13  2  0  0  0  0
 14 23  1  0  0  0  0
 16 10  1  0  0  0  0
 17 10  1  0  0  0  0
 18 11  1  0  0  0  0
 21 12  1  0  0  0  0
 23 25  1  0  0  0  0
 23 24  1  0  0  0  0
 26 31  1  0  0  0  0
 27 26  2  0  0  0  0
 27 28  1  0  0  0  0
 28 29  2  0  0  0  0
 29 30  1  0  0  0  0
 29 34  1  0  0  0  0
 30 35  1  0  0  0  0
 31 30  2  0  0  0  0
 32 27  1  0  0  0  0
 33 28  1  0  0  0  0
 36 35  1  0  0  0  0
 36 41  1  0  0  0  0
 37 36  2  0  0  0  0
 37 39  1  0  0  0  0
 38 37  1  0  0  0  0
 39 40  2  0  0  0  0
 40 41  1  0  0  0  0
M  END
>  <minimizedAffinity>
-6.17012548

$$$$

 OpenBabel03252505133D

 41 44  0  0  1  0  0  0  0  0999 V2000
   36.3070   29.7400   38.2160 C   0  0  0  0  0  0  0  0  0  0  0  0
   36.9360   30.9800   38.4010 C   0  0  0  0  0  0  0  0  0  0  0  0
   37.8250   31.1030   39.5190 C   0  0  0  0  0  0  0  0  0  0  0  0
   38.0060   30.0270   40.3290 N   0  0  0  0  0  0  0  0  0  0  0  0
   37.3780   28.8560   40.1120 C   0  0  0  0  0  0  0  0  0  0  0  0
   36.5190   28.7110   39.0430 N   0  0  0  0  0  0  0  0  0  0  0  0
   35.6570   29.7250   37.3520 H   0  0  0  0  0  0  0  0  0  0  0  0
   36.7970   31.8210   37.7690 H   0  0  0  0  0  0  0  0  0  0  0  0
   37.6090   27.7140   41.0230 C   0  0  2  0  0  0  0  0  0  0  0  0
   36.6780   27.9520   42.1940 C   0  0  0  0  0  0  0  0  0  0  0  0
   37.3250   28.4090   43.4350 C   0  0  0  0  0  0  0  0  0  0  0  0
   38.3910   27.3620   43.7540 C   0  0  0  0  0  0  0  0  0  0  0  0
   39.4660   27.3500   42.7510 C   0  0  0  0  0  0  0  0  0  0  0  0
   38.9950   27.5380   41.3570 C   0  0  0  0  0  0  0  0  0  0  0  0
   37.2500   26.8120   40.4590 H   0  0  0  0  0  0  0  0  0  0  0  0
   36.1710   26.9860   42.4150 H   0  0  0  0  0  0  0  0  0  0  0  0
   35.8490   28.6520   41.9590 H   0  0  0  0  0  0  0  0  0  0  0  0
   36.5760   28.3690   44.2450 H   0  0  0  0  0  0  0  0  0  0  0  0
   37.8210   29.3760   43.3320 H   0  0  0  0  0  0  0  0  0  0  0  0
   38.8590   27.7020   44.6880 H   0  0  0  0  0  0  0  0  0  0  0  0
   37.8860   26.3960   43.8930 H   0  0  0  0  0  0  0  0  0  0  0  0
   40.5190   27.2390   42.7750 H   0  0  0  0  0  0  0  0  0  0  0  0
   39.9340   27.5510   40.2700 N   0  0  0  0  0  0  0  0  0  0  0  0
   40.5490   28.4010   40.3890 H   0  0  0  0  0  0  0  0  0  0  0  0
   39.9820   26.8380   39.5150 H   0  0  0  0  0  0  0  0  0  0  0  0
   38.5030   32.3690   39.7380 C   0  0  0  0  0  0  0  0  0  0  0  0
   37.7400   33.4840   39.9080 C   0  0  0  0  0  0  0  0  0  0  0  0
   38.4440   34.6850   40.1180 C   0  0  0  0  0  0  0  0  0  0  0  0
   39.8290   34.5980   40.1300 C   0  0  0  0  0  0  0  0  0  0  0  0
   40.5860   33.4860   39.9610 C   0  0  0  0  0  0  0  0  0  0  0  0
   39.8630   32.3430   39.7580 N   0  0  0  0  0  0  0  0  0  0  0  0
   36.6620   33.4630   39.8860 H   0  0  0  0  0  0  0  0  0  0  0  0
   37.8620   35.5700   40.2540 H   0  0  0  0  0  0  0  0  0  0  0  0
   40.2470   35.5750   40.3000 H   0  0  0  0  0  0  0  0  0  0  0  0
   41.9560   33.4720   39.9850 O   0  0  0  0  0  0  0  0  0  0  0  0
   42.6440   34.1940   40.9230 C   0  0  0  0  0  0  0  0  0  0  0  0
   43.2510   34.8970   41.8450 C   0  0  0  0  0  0  0  0  0  0  0  0
   42.3720   35.2010   42.4090 H   0  0  0  0  0  0  0  0  0  0  0  0
   44.5610   35.0990   41.9450 C   0  0  0  0  0  3  0  0  0  0  0  0
   45.3490   34.5090   40.9830 C   0  0  0  0  0  3  0  0  0  0  0  0
   44.0190   33.6290   39.9110 S   0  0  0  0  0  0  0  0  0  0  0  0
  1  2  2  0  0  0  0
  1  6  1  0  0  0  0
  2  3  1  0  0  0  0
  3 26  1  0  0  0  0
  3  4  2  0  0  0  0
  5  4  1  0  0  0  0
  5  9  1  0  0  0  0
  6  5  2  0  0  0  0
  7  1  1  0  0  0  0
  8  2  1  0  0  0  0
  9 15  1  6  0  0  0
  9 14  1  0  0  0  0
  9 10  1  0  0  0  0
 10 16  1  0  0  0  0
 10 11  1  0  0  0  0
 11 12  1  0  0  0  0
 11 18  1  0  0  0  0
 12 21  1  0  0  0  0
 12 20  1  0  0  0  0
 13 22  1  0  0  0  0
 13 12  1  0  0  0  0
 14 13  2  0  0  0  0
 17 10  1  0  0  0  0
 19 11  1  0  0  0  0
 23 24  1  0  0  0  0
 23 14  1  0  0  0  0
 25 23  1  0  0  0  0
 26 31  2  0  0  0  0
 26 27  1  0  0  0  0
 27 28  2  0  0  0  0
 28 29  1  0  0  0  0
 28 33  1  0  0  0  0
 29 34  1  0  0  0  0
 30 35  1  0  0  0  0
 30 29  2  0  0  0  0
 31 30  1  0  0  0  0
 32 27  1  0  0  0  0
 35 36  1  0  0  0  0
 36 37  2  0  0  0  0
 37 39  1  0  0  0  0
 37 38  1  0  0  0  0
 40 39  2  0  0  0  0
 41 36  1  0  0  0  0
 41 40  1  0  0  0  0
M  END
>  <minimizedAffinity>
-6.16935253

$$$$
