
 OpenBabel03242513283D

 27 29  0  0  0  0  0  0  0  0999 V2000
   38.0650   27.5760   41.2080 C   0  0  0  0  0  0  0  0  0  0  0  0
   37.3370   26.5420   41.7670 C   0  0  0  0  0  0  0  0  0  0  0  0
   36.8090   26.7520   43.0010 C   0  0  0  0  0  0  0  0  0  0  0  0
   36.9810   27.9420   43.6800 C   0  0  0  0  0  0  0  0  0  0  0  0
   37.7040   28.9600   43.1170 C   0  0  0  0  0  0  0  0  0  0  0  0
   38.2690   28.7910   41.8480 C   0  0  0  0  0  0  0  0  0  0  0  0
   36.2310   25.9680   43.4770 H   0  0  0  0  0  0  0  0  0  0  0  0
   36.5270   28.0370   44.6670 H   0  0  0  0  0  0  0  0  0  0  0  0
   37.8470   29.9000   43.6420 H   0  0  0  0  0  0  0  0  0  0  0  0
   37.5890   22.9590   40.6300 C   0  0  0  0  0  0  0  0  0  0  0  0
   37.7520   24.1220   41.3900 C   0  0  0  0  0  0  0  0  0  0  0  0
   37.1910   25.3230   41.0080 C   0  0  0  0  0  0  0  0  0  0  0  0
   36.4810   25.2730   39.8480 N   0  0  0  0  0  0  0  0  0  0  0  0
   36.3150   24.1640   39.1060 C   0  0  0  0  0  0  0  0  0  0  0  0
   36.8740   23.0040   39.5010 N   0  0  0  0  0  0  0  0  0  0  0  0
   38.0370   22.0120   40.9380 H   0  0  0  0  0  0  0  0  0  0  0  0
   38.3380   24.0650   42.3060 H   0  0  0  0  0  0  0  0  0  0  0  0
   35.7140   24.3160   38.2070 H   0  0  0  0  0  0  0  0  0  0  0  0
   38.6280   27.4140   39.9470 O   0  0  0  0  0  0  0  0  0  0  0  0
   38.1380   27.0580   39.1520 H   0  0  0  0  0  0  0  0  0  0  0  0
   39.0070   29.7730   41.2230 O   0  0  0  0  0  0  0  0  0  0  0  0
   38.5180   30.9310   40.7320 C   0  0  0  0  0  0  0  0  0  0  0  0
   37.3420   31.1560   40.0210 C   0  0  0  0  0  0  0  0  0  0  0  0
   36.6920   30.3260   39.8020 H   0  0  0  0  0  0  0  0  0  0  0  0
   37.0800   32.4410   39.6340 C   0  0  0  0  0  3  0  0  0  0  0  0
   38.0320   33.4660   39.9880 C   0  0  0  0  0  3  0  0  0  0  0  0
   39.3210   32.5370   40.8940 S   0  0  0  0  0  0  0  0  0  0  0  0
  1  2  2  0  0  0  0
  1  6  1  0  0  0  0
  2  3  1  0  0  0  0
  3  7  1  0  0  0  0
  3  4  2  0  0  0  0
  4  8  1  0  0  0  0
  5  9  1  0  0  0  0
  5  4  1  0  0  0  0
  6  5  2  0  0  0  0
 10 16  1  0  0  0  0
 10 11  1  0  0  0  0
 11 17  1  0  0  0  0
 12 11  2  0  0  0  0
 12  2  1  0  0  0  0
 13 12  1  0  0  0  0
 14 15  1  0  0  0  0
 14 13  2  0  0  0  0
 15 10  2  0  0  0  0
 18 14  1  0  0  0  0
 19  1  1  0  0  0  0
 20 19  1  0  0  0  0
 21  6  1  0  0  0  0
 22 27  1  0  0  0  0
 22 21  1  0  0  0  0
 23 22  2  0  0  0  0
 24 23  1  0  0  0  0
 25 26  2  0  0  0  0
 25 23  1  0  0  0  0
 26 27  1  0  0  0  0
M  END
>  <minimizedAffinity>
-5.0069356

$$$$

 OpenBabel03242513283D

 27 29  0  0  0  0  0  0  0  0999 V2000
   37.0830   27.2570   41.0500 C   0  0  0  0  0  0  0  0  0  0  0  0
   37.8500   26.2840   41.6640 C   0  0  0  0  0  0  0  0  0  0  0  0
   38.3210   26.5580   42.9090 C   0  0  0  0  0  0  0  0  0  0  0  0
   38.0520   27.7530   43.5470 C   0  0  0  0  0  0  0  0  0  0  0  0
   37.2920   28.7100   42.9300 C   0  0  0  0  0  0  0  0  0  0  0  0
   36.7840   28.4740   41.6480 C   0  0  0  0  0  0  0  0  0  0  0  0
   38.9270   25.8230   43.4270 H   0  0  0  0  0  0  0  0  0  0  0  0
   38.4650   27.9020   44.5460 H   0  0  0  0  0  0  0  0  0  0  0  0
   37.0750   29.6540   43.4220 H   0  0  0  0  0  0  0  0  0  0  0  0
   37.7980   22.6740   40.5860 C   0  0  0  0  0  0  0  0  0  0  0  0
   37.5400   23.8460   41.3060 C   0  0  0  0  0  0  0  0  0  0  0  0
   38.0950   25.0560   40.9470 C   0  0  0  0  0  0  0  0  0  0  0  0
   38.9010   25.0060   39.8510 N   0  0  0  0  0  0  0  0  0  0  0  0
   39.1590   23.8880   39.1490 C   0  0  0  0  0  0  0  0  0  0  0  0
   38.6050   22.7200   39.5210 N   0  0  0  0  0  0  0  0  0  0  0  0
   37.3550   21.7200   40.8770 H   0  0  0  0  0  0  0  0  0  0  0  0
   36.8790   23.7880   42.1700 H   0  0  0  0  0  0  0  0  0  0  0  0
   39.8300   24.0420   38.3000 H   0  0  0  0  0  0  0  0  0  0  0  0
   36.5770   27.0280   39.7770 O   0  0  0  0  0  0  0  0  0  0  0  0
   36.1030   26.1920   39.4990 H   0  0  0  0  0  0  0  0  0  0  0  0
   36.0130   29.3930   40.9690 O   0  0  0  0  0  0  0  0  0  0  0  0
   36.4820   30.4240   40.2350 C   0  0  0  0  0  0  0  0  0  0  0  0
   36.8890   31.6870   40.6570 C   0  0  0  0  0  0  0  0  0  0  0  0
   36.8460   31.9320   41.7040 H   0  0  0  0  0  0  0  0  0  0  0  0
   37.3260   32.5560   39.6950 C   0  0  0  0  0  3  0  0  0  0  0  0
   37.3350   32.1080   38.3250 C   0  0  0  0  0  3  0  0  0  0  0  0
   36.6970   30.3970   38.4450 S   0  0  0  0  0  0  0  0  0  0  0  0
  1  6  2  0  0  0  0
  1  2  1  0  0  0  0
  2  3  2  0  0  0  0
  3  7  1  0  0  0  0
  3  4  1  0  0  0  0
  4  8  1  0  0  0  0
  5  9  1  0  0  0  0
  5  4  2  0  0  0  0
  6  5  1  0  0  0  0
 10 16  1  0  0  0  0
 10 11  1  0  0  0  0
 11 17  1  0  0  0  0
 12 11  2  0  0  0  0
 12  2  1  0  0  0  0
 13 12  1  0  0  0  0
 14 15  1  0  0  0  0
 14 13  2  0  0  0  0
 15 10  2  0  0  0  0
 18 14  1  0  0  0  0
 19  1  1  0  0  0  0
 20 19  1  0  0  0  0
 21  6  1  0  0  0  0
 22 23  2  0  0  0  0
 22 21  1  0  0  0  0
 23 24  1  0  0  0  0
 25 23  1  0  0  0  0
 26 27  1  0  0  0  0
 26 25  2  0  0  0  0
 27 22  1  0  0  0  0
M  END
>  <minimizedAffinity>
-4.9579587

$$$$

 OpenBabel03242513283D

 27 29  0  0  0  0  0  0  0  0999 V2000
   37.3370   28.4890   41.0180 C   0  0  0  0  0  0  0  0  0  0  0  0
   37.7440   29.4890   41.8810 C   0  0  0  0  0  0  0  0  0  0  0  0
   37.8080   29.1800   43.2020 C   0  0  0  0  0  0  0  0  0  0  0  0
   37.4850   27.9250   43.6780 C   0  0  0  0  0  0  0  0  0  0  0  0
   37.0830   26.9410   42.8140 C   0  0  0  0  0  0  0  0  0  0  0  0
   37.0000   27.2110   41.4440 C   0  0  0  0  0  0  0  0  0  0  0  0
   38.1220   29.9350   43.9150 H   0  0  0  0  0  0  0  0  0  0  0  0
   37.5600   27.7510   44.7530 H   0  0  0  0  0  0  0  0  0  0  0  0
   36.8260   25.9500   43.1770 H   0  0  0  0  0  0  0  0  0  0  0  0
   39.5840   32.6310   40.9120 C   0  0  0  0  0  0  0  0  0  0  0  0
   39.3030   31.3780   41.4670 C   0  0  0  0  0  0  0  0  0  0  0  0
   38.0690   30.7800   41.3240 C   0  0  0  0  0  0  0  0  0  0  0  0
   37.1670   31.5070   40.6070 N   0  0  0  0  0  0  0  0  0  0  0  0
   37.4220   32.7130   40.0680 C   0  0  0  0  0  0  0  0  0  0  0  0
   38.6360   33.2740   40.2230 N   0  0  0  0  0  0  0  0  0  0  0  0
   40.5640   33.0980   41.0310 H   0  0  0  0  0  0  0  0  0  0  0  0
   40.0890   30.8700   42.0250 H   0  0  0  0  0  0  0  0  0  0  0  0
   36.5760   33.1450   39.5270 H   0  0  0  0  0  0  0  0  0  0  0  0
   37.2530   28.7520   39.6550 O   0  0  0  0  0  0  0  0  0  0  0  0
   37.9700   29.2000   39.1220 H   0  0  0  0  0  0  0  0  0  0  0  0
   36.6040   26.2690   40.5200 O   0  0  0  0  0  0  0  0  0  0  0  0
   37.2020   25.0780   40.3060 C   0  0  0  0  0  0  0  0  0  0  0  0
   36.7610   23.8020   40.6440 C   0  0  0  0  0  0  0  0  0  0  0  0
   35.8160   23.6870   41.1490 H   0  0  0  0  0  0  0  0  0  0  0  0
   37.5700   22.7500   40.3090 C   0  0  0  0  0  3  0  0  0  0  0  0
   38.8120   23.0360   39.6350 C   0  0  0  0  0  3  0  0  0  0  0  0
   38.7950   24.8590   39.4900 S   0  0  0  0  0  0  0  0  0  0  0  0
  1  6  2  0  0  0  0
  1  2  1  0  0  0  0
  2  3  2  0  0  0  0
  3  4  1  0  0  0  0
  3  7  1  0  0  0  0
  4  8  1  0  0  0  0
  5  9  1  0  0  0  0
  5  4  2  0  0  0  0
  6  5  1  0  0  0  0
 10 16  1  0  0  0  0
 10 11  1  0  0  0  0
 11 17  1  0  0  0  0
 12 11  2  0  0  0  0
 12  2  1  0  0  0  0
 13 12  1  0  0  0  0
 14 15  1  0  0  0  0
 14 13  2  0  0  0  0
 15 10  2  0  0  0  0
 18 14  1  0  0  0  0
 19  1  1  0  0  0  0
 20 19  1  0  0  0  0
 21  6  1  0  0  0  0
 22 21  1  0  0  0  0
 22 23  2  0  0  0  0
 23 24  1  0  0  0  0
 25 23  1  0  0  0  0
 26 25  2  0  0  0  0
 27 26  1  0  0  0  0
 27 22  1  0  0  0  0
M  END
>  <minimizedAffinity>
-4.95579052

$$$$

 OpenBabel03242513283D

 27 29  0  0  0  0  0  0  0  0999 V2000
   33.8700   29.1580   38.2140 C   0  0  0  0  0  0  0  0  0  0  0  0
   35.2490   29.2440   38.2610 C   0  0  0  0  0  0  0  0  0  0  0  0
   35.9140   29.1980   37.0770 C   0  0  0  0  0  0  0  0  0  0  0  0
   35.2560   29.0710   35.8710 C   0  0  0  0  0  0  0  0  0  0  0  0
   33.8900   28.9860   35.8340 C   0  0  0  0  0  0  0  0  0  0  0  0
   33.1590   29.0290   37.0270 C   0  0  0  0  0  0  0  0  0  0  0  0
   36.9970   29.2620   37.0680 H   0  0  0  0  0  0  0  0  0  0  0  0
   35.8590   29.0400   34.9610 H   0  0  0  0  0  0  0  0  0  0  0  0
   33.3610   28.8860   34.8910 H   0  0  0  0  0  0  0  0  0  0  0  0
   37.0820   30.6330   41.2450 C   0  0  0  0  0  0  0  0  0  0  0  0
   36.4810   30.5400   39.9850 C   0  0  0  0  0  0  0  0  0  0  0  0
   35.8790   29.3770   39.5520 C   0  0  0  0  0  0  0  0  0  0  0  0
   35.9240   28.3500   40.4450 N   0  0  0  0  0  0  0  0  0  0  0  0
   36.4990   28.4240   41.6590 C   0  0  0  0  0  0  0  0  0  0  0  0
   37.0790   29.5710   42.0570 N   0  0  0  0  0  0  0  0  0  0  0  0
   37.5580   31.5570   41.5800 H   0  0  0  0  0  0  0  0  0  0  0  0
   36.4940   31.4160   39.3390 H   0  0  0  0  0  0  0  0  0  0  0  0
   36.4370   27.4980   42.2360 H   0  0  0  0  0  0  0  0  0  0  0  0
   33.1390   29.2010   39.3950 O   0  0  0  0  0  0  0  0  0  0  0  0
   33.2750   29.8780   40.1180 H   0  0  0  0  0  0  0  0  0  0  0  0
   31.7840   28.9500   37.0640 O   0  0  0  0  0  0  0  0  0  0  0  0
   30.9410   29.9920   37.2170 C   0  0  0  0  0  0  0  0  0  0  0  0
   30.8230   31.1460   36.4470 C   0  0  0  0  0  0  0  0  0  0  0  0
   31.4700   31.2800   35.5970 H   0  0  0  0  0  0  0  0  0  0  0  0
   29.8760   32.0570   36.8250 C   0  0  0  0  0  3  0  0  0  0  0  0
   29.0700   31.7600   37.9850 C   0  0  0  0  0  3  0  0  0  0  0  0
   29.7080   30.1330   38.5260 S   0  0  0  0  0  0  0  0  0  0  0  0
  1  2  1  0  0  0  0
  1 19  1  0  0  0  0
  2 12  1  0  0  0  0
  3  2  2  0  0  0  0
  4  3  1  0  0  0  0
  5  4  2  0  0  0  0
  5  6  1  0  0  0  0
  6 21  1  0  0  0  0
  6  1  2  0  0  0  0
  7  3  1  0  0  0  0
  8  4  1  0  0  0  0
  9  5  1  0  0  0  0
 10 16  1  0  0  0  0
 10 15  1  0  0  0  0
 11 10  2  0  0  0  0
 12 11  1  0  0  0  0
 12 13  2  0  0  0  0
 13 14  1  0  0  0  0
 14 15  2  0  0  0  0
 14 18  1  0  0  0  0
 17 11  1  0  0  0  0
 19 20  1  0  0  0  0
 21 22  1  0  0  0  0
 22 27  1  0  0  0  0
 23 25  1  0  0  0  0
 23 22  2  0  0  0  0
 24 23  1  0  0  0  0
 25 26  2  0  0  0  0
 26 27  1  0  0  0  0
M  END
>  <minimizedAffinity>
-4.8371501

$$$$

 OpenBabel03242513283D

 27 29  0  0  0  0  0  0  0  0999 V2000
   36.1880   28.8800   39.7200 C   0  0  0  0  0  0  0  0  0  0  0  0
   36.2440   29.8850   38.7720 C   0  0  0  0  0  0  0  0  0  0  0  0
   36.5900   31.1260   39.2030 C   0  0  0  0  0  0  0  0  0  0  0  0
   36.8760   31.3890   40.5280 C   0  0  0  0  0  0  0  0  0  0  0  0
   36.8180   30.3870   41.4590 C   0  0  0  0  0  0  0  0  0  0  0  0
   36.4660   29.0910   41.0640 C   0  0  0  0  0  0  0  0  0  0  0  0
   36.6460   31.9440   38.4930 H   0  0  0  0  0  0  0  0  0  0  0  0
   37.1460   32.4110   40.7990 H   0  0  0  0  0  0  0  0  0  0  0  0
   37.0410   30.5820   42.5040 H   0  0  0  0  0  0  0  0  0  0  0  0
   36.5100   29.3220   35.0560 C   0  0  0  0  0  0  0  0  0  0  0  0
   36.8440   29.6590   36.3720 C   0  0  0  0  0  0  0  0  0  0  0  0
   35.9350   29.5480   37.4030 C   0  0  0  0  0  0  0  0  0  0  0  0
   34.7080   29.0920   37.0290 N   0  0  0  0  0  0  0  0  0  0  0  0
   34.3710   28.7640   35.7690 C   0  0  0  0  0  0  0  0  0  0  0  0
   35.2780   28.8820   34.7810 N   0  0  0  0  0  0  0  0  0  0  0  0
   37.2350   29.4130   34.2450 H   0  0  0  0  0  0  0  0  0  0  0  0
   37.8530   30.0160   36.5760 H   0  0  0  0  0  0  0  0  0  0  0  0
   33.3410   28.4170   35.6600 H   0  0  0  0  0  0  0  0  0  0  0  0
   35.8400   27.5920   39.3330 O   0  0  0  0  0  0  0  0  0  0  0  0
   36.2370   27.1100   38.5520 H   0  0  0  0  0  0  0  0  0  0  0  0
   36.3880   28.0360   41.9480 O   0  0  0  0  0  0  0  0  0  0  0  0
   37.4340   27.3210   42.4120 C   0  0  0  0  0  0  0  0  0  0  0  0
   38.3600   27.6580   43.3960 C   0  0  0  0  0  0  0  0  0  0  0  0
   38.2790   28.6110   43.8910 H   0  0  0  0  0  0  0  0  0  0  0  0
   39.3350   26.7410   43.6790 C   0  0  0  0  0  3  0  0  0  0  0  0
   39.3360   25.5000   42.9440 C   0  0  0  0  0  3  0  0  0  0  0  0
   37.8960   25.6780   41.8300 S   0  0  0  0  0  0  0  0  0  0  0  0
  1  6  1  0  0  0  0
  2  3  1  0  0  0  0
  2  1  2  0  0  0  0
  3  4  2  0  0  0  0
  4  8  1  0  0  0  0
  4  5  1  0  0  0  0
  5  9  1  0  0  0  0
  6  5  2  0  0  0  0
  6 21  1  0  0  0  0
  7  3  1  0  0  0  0
 10 11  1  0  0  0  0
 11 17  1  0  0  0  0
 11 12  2  0  0  0  0
 12  2  1  0  0  0  0
 13 12  1  0  0  0  0
 14 13  2  0  0  0  0
 15 10  2  0  0  0  0
 15 14  1  0  0  0  0
 16 10  1  0  0  0  0
 18 14  1  0  0  0  0
 19  1  1  0  0  0  0
 20 19  1  0  0  0  0
 21 22  1  0  0  0  0
 22 23  2  0  0  0  0
 23 25  1  0  0  0  0
 23 24  1  0  0  0  0
 26 25  2  0  0  0  0
 27 22  1  0  0  0  0
 27 26  1  0  0  0  0
M  END
>  <minimizedAffinity>
-4.81821918

$$$$

 OpenBabel03242513283D

 27 29  0  0  0  0  0  0  0  0999 V2000
   37.7200   28.8740   41.2150 C   0  0  0  0  0  0  0  0  0  0  0  0
   36.7090   28.0240   40.8060 C   0  0  0  0  0  0  0  0  0  0  0  0
   35.5590   28.5950   40.3640 C   0  0  0  0  0  0  0  0  0  0  0  0
   35.3910   29.9650   40.3170 C   0  0  0  0  0  0  0  0  0  0  0  0
   36.3990   30.7990   40.7240 C   0  0  0  0  0  0  0  0  0  0  0  0
   37.6030   30.2580   41.1880 C   0  0  0  0  0  0  0  0  0  0  0  0
   34.7400   27.9650   40.0340 H   0  0  0  0  0  0  0  0  0  0  0  0
   34.4390   30.3500   39.9500 H   0  0  0  0  0  0  0  0  0  0  0  0
   36.2780   31.8770   40.6920 H   0  0  0  0  0  0  0  0  0  0  0  0
   37.1430   24.3960   39.8830 C   0  0  0  0  0  0  0  0  0  0  0  0
   36.9080   25.7720   39.7770 C   0  0  0  0  0  0  0  0  0  0  0  0
   36.9450   26.6020   40.8780 C   0  0  0  0  0  0  0  0  0  0  0  0
   37.2230   25.9720   42.0530 N   0  0  0  0  0  0  0  0  0  0  0  0
   37.4510   24.6520   42.1710 C   0  0  0  0  0  0  0  0  0  0  0  0
   37.4090   23.8640   41.0810 N   0  0  0  0  0  0  0  0  0  0  0  0
   37.1110   23.7460   39.0070 H   0  0  0  0  0  0  0  0  0  0  0  0
   36.6940   26.1870   38.7940 H   0  0  0  0  0  0  0  0  0  0  0  0
   37.6570   24.3270   43.1940 H   0  0  0  0  0  0  0  0  0  0  0  0
   38.9180   28.3430   41.6760 O   0  0  0  0  0  0  0  0  0  0  0  0
   39.4340   27.6250   41.2100 H   0  0  0  0  0  0  0  0  0  0  0  0
   38.6570   31.0370   41.6120 O   0  0  0  0  0  0  0  0  0  0  0  0
   39.2590   32.0050   40.8900 C   0  0  0  0  0  0  0  0  0  0  0  0
   38.9630   33.3640   40.8260 C   0  0  0  0  0  0  0  0  0  0  0  0
   38.1500   33.7550   41.4140 H   0  0  0  0  0  0  0  0  0  0  0  0
   39.7370   34.1360   40.0030 C   0  0  0  0  0  3  0  0  0  0  0  0
   40.7970   33.4930   39.2660 C   0  0  0  0  0  3  0  0  0  0  0  0
   40.6580   31.7430   39.7830 S   0  0  0  0  0  0  0  0  0  0  0  0
  1 19  1  0  0  0  0
  2 12  1  0  0  0  0
  2  1  2  0  0  0  0
  3  2  1  0  0  0  0
  4  3  2  0  0  0  0
  4  5  1  0  0  0  0
  5  6  2  0  0  0  0
  6  1  1  0  0  0  0
  6 21  1  0  0  0  0
  7  3  1  0  0  0  0
  8  4  1  0  0  0  0
  9  5  1  0  0  0  0
 10 15  1  0  0  0  0
 11 10  2  0  0  0  0
 11 12  1  0  0  0  0
 12 13  2  0  0  0  0
 13 14  1  0  0  0  0
 14 18  1  0  0  0  0
 15 14  2  0  0  0  0
 16 10  1  0  0  0  0
 17 11  1  0  0  0  0
 20 19  1  0  0  0  0
 22 21  1  0  0  0  0
 23 22  2  0  0  0  0
 23 24  1  0  0  0  0
 25 23  1  0  0  0  0
 26 27  1  0  0  0  0
 26 25  2  0  0  0  0
 27 22  1  0  0  0  0
M  END
>  <minimizedAffinity>
-4.76801825

$$$$

 OpenBabel03242513283D

 27 29  0  0  0  0  0  0  0  0999 V2000
   38.0250   30.4650   39.6820 C   0  0  0  0  0  0  0  0  0  0  0  0
   37.2360   31.1140   38.7500 C   0  0  0  0  0  0  0  0  0  0  0  0
   37.0910   32.4580   38.8880 C   0  0  0  0  0  0  0  0  0  0  0  0
   37.7000   33.1600   39.9100 C   0  0  0  0  0  0  0  0  0  0  0  0
   38.4790   32.5070   40.8280 C   0  0  0  0  0  0  0  0  0  0  0  0
   38.6590   31.1230   40.7280 C   0  0  0  0  0  0  0  0  0  0  0  0
   36.4800   33.0070   38.1800 H   0  0  0  0  0  0  0  0  0  0  0  0
   37.5370   34.2380   39.9560 H   0  0  0  0  0  0  0  0  0  0  0  0
   38.9630   33.0490   41.6350 H   0  0  0  0  0  0  0  0  0  0  0  0
   36.3800   29.6360   35.3920 C   0  0  0  0  0  0  0  0  0  0  0  0
   36.9910   30.4170   36.3790 C   0  0  0  0  0  0  0  0  0  0  0  0
   36.6270   30.3260   37.7060 C   0  0  0  0  0  0  0  0  0  0  0  0
   35.6370   29.4260   37.9610 N   0  0  0  0  0  0  0  0  0  0  0  0
   35.0400   28.6690   37.0240 C   0  0  0  0  0  0  0  0  0  0  0  0
   35.4150   28.7770   35.7350 N   0  0  0  0  0  0  0  0  0  0  0  0
   36.6740   29.7140   34.3430 H   0  0  0  0  0  0  0  0  0  0  0  0
   37.7760   31.1100   36.0790 H   0  0  0  0  0  0  0  0  0  0  0  0
   34.2670   28.0040   37.4170 H   0  0  0  0  0  0  0  0  0  0  0  0
   38.2070   29.0900   39.5880 O   0  0  0  0  0  0  0  0  0  0  0  0
   38.4510   28.6100   38.7460 H   0  0  0  0  0  0  0  0  0  0  0  0
   39.4290   30.4040   41.6160 O   0  0  0  0  0  0  0  0  0  0  0  0
   39.0110   29.3450   42.3390 C   0  0  0  0  0  0  0  0  0  0  0  0
   37.8070   29.1630   43.0130 C   0  0  0  0  0  0  0  0  0  0  0  0
   37.0660   29.9440   42.9890 H   0  0  0  0  0  0  0  0  0  0  0  0
   37.6350   27.9800   43.6800 C   0  0  0  0  0  3  0  0  0  0  0  0
   38.7040   27.0130   43.6370 C   0  0  0  0  0  3  0  0  0  0  0  0
   39.9720   27.8430   42.6120 S   0  0  0  0  0  0  0  0  0  0  0  0
  1  6  1  0  0  0  0
  2  3  1  0  0  0  0
  2  1  2  0  0  0  0
  3  4  2  0  0  0  0
  4  8  1  0  0  0  0
  4  5  1  0  0  0  0
  5  9  1  0  0  0  0
  6  5  2  0  0  0  0
  6 21  1  0  0  0  0
  7  3  1  0  0  0  0
 10 15  2  0  0  0  0
 10 11  1  0  0  0  0
 11 12  2  0  0  0  0
 12 13  1  0  0  0  0
 12  2  1  0  0  0  0
 14 18  1  0  0  0  0
 14 13  2  0  0  0  0
 15 14  1  0  0  0  0
 16 10  1  0  0  0  0
 17 11  1  0  0  0  0
 19  1  1  0  0  0  0
 20 19  1  0  0  0  0
 21 22  1  0  0  0  0
 22 27  1  0  0  0  0
 22 23  2  0  0  0  0
 23 25  1  0  0  0  0
 24 23  1  0  0  0  0
 26 25  2  0  0  0  0
 27 26  1  0  0  0  0
M  END
>  <minimizedAffinity>
-4.75143433

$$$$

 OpenBabel03242513283D

 27 29  0  0  0  0  0  0  0  0999 V2000
   39.1720   31.2960   41.0670 C   0  0  0  0  0  0  0  0  0  0  0  0
   37.8720   30.8250   41.0820 C   0  0  0  0  0  0  0  0  0  0  0  0
   36.9250   31.6020   40.4950 C   0  0  0  0  0  0  0  0  0  0  0  0
   37.2310   32.8110   39.9040 C   0  0  0  0  0  0  0  0  0  0  0  0
   38.5220   33.2690   39.8950 C   0  0  0  0  0  0  0  0  0  0  0  0
   39.5330   32.5050   40.4870 C   0  0  0  0  0  0  0  0  0  0  0  0
   35.8920   31.2710   40.4840 H   0  0  0  0  0  0  0  0  0  0  0  0
   36.4160   33.3800   39.4530 H   0  0  0  0  0  0  0  0  0  0  0  0
   38.7740   34.2190   39.4330 H   0  0  0  0  0  0  0  0  0  0  0  0
   36.8960   27.2350   41.6800 C   0  0  0  0  0  0  0  0  0  0  0  0
   37.1330   28.4540   41.0350 C   0  0  0  0  0  0  0  0  0  0  0  0
   37.6150   29.5540   41.7140 C   0  0  0  0  0  0  0  0  0  0  0  0
   37.8330   29.3480   43.0420 N   0  0  0  0  0  0  0  0  0  0  0  0
   37.6100   28.1830   43.6770 C   0  0  0  0  0  0  0  0  0  0  0  0
   37.1390   27.1250   42.9900 N   0  0  0  0  0  0  0  0  0  0  0  0
   36.5140   26.3700   41.1360 H   0  0  0  0  0  0  0  0  0  0  0  0
   36.9290   28.5240   39.9670 H   0  0  0  0  0  0  0  0  0  0  0  0
   37.8430   28.2070   44.7440 H   0  0  0  0  0  0  0  0  0  0  0  0
   40.1810   30.5410   41.6540 O   0  0  0  0  0  0  0  0  0  0  0  0
   40.3180   29.5630   41.4970 H   0  0  0  0  0  0  0  0  0  0  0  0
   40.8520   32.9040   40.5130 O   0  0  0  0  0  0  0  0  0  0  0  0
   41.6670   32.9950   39.4420 C   0  0  0  0  0  0  0  0  0  0  0  0
   41.5230   32.4270   38.1790 C   0  0  0  0  0  0  0  0  0  0  0  0
   40.6590   31.8180   37.9700 H   0  0  0  0  0  0  0  0  0  0  0  0
   42.5070   32.6790   37.2630 C   0  0  0  0  0  3  0  0  0  0  0  0
   43.6150   33.5100   37.6650 C   0  0  0  0  0  3  0  0  0  0  0  0
   43.2120   33.9250   39.4000 S   0  0  0  0  0  0  0  0  0  0  0  0
  1  2  1  0  0  0  0
  1 19  1  0  0  0  0
  2 12  1  0  0  0  0
  3  2  2  0  0  0  0
  4  3  1  0  0  0  0
  5  4  2  0  0  0  0
  5  6  1  0  0  0  0
  6 21  1  0  0  0  0
  6  1  2  0  0  0  0
  7  3  1  0  0  0  0
  8  4  1  0  0  0  0
  9  5  1  0  0  0  0
 10 15  1  0  0  0  0
 11 10  2  0  0  0  0
 11 12  1  0  0  0  0
 12 13  2  0  0  0  0
 13 14  1  0  0  0  0
 14 18  1  0  0  0  0
 15 14  2  0  0  0  0
 16 10  1  0  0  0  0
 17 11  1  0  0  0  0
 20 19  1  0  0  0  0
 22 21  1  0  0  0  0
 23 22  2  0  0  0  0
 24 23  1  0  0  0  0
 25 26  2  0  0  0  0
 25 23  1  0  0  0  0
 26 27  1  0  0  0  0
 27 22  1  0  0  0  0
M  END
>  <minimizedAffinity>
-4.67789841

$$$$

 OpenBabel03242513283D

 27 29  0  0  0  0  0  0  0  0999 V2000
   38.3640   28.1630   41.2350 C   0  0  0  0  0  0  0  0  0  0  0  0
   37.9360   29.2770   41.9340 C   0  0  0  0  0  0  0  0  0  0  0  0
   37.3690   29.0670   43.1500 C   0  0  0  0  0  0  0  0  0  0  0  0
   37.2190   27.8010   43.6800 C   0  0  0  0  0  0  0  0  0  0  0  0
   37.6460   26.7040   42.9800 C   0  0  0  0  0  0  0  0  0  0  0  0
   38.2370   26.8690   41.7220 C   0  0  0  0  0  0  0  0  0  0  0  0
   37.0190   29.9120   43.7320 H   0  0  0  0  0  0  0  0  0  0  0  0
   36.7540   27.7100   44.6620 H   0  0  0  0  0  0  0  0  0  0  0  0
   37.5330   25.7030   43.3860 H   0  0  0  0  0  0  0  0  0  0  0  0
   37.3290   32.5130   40.1010 C   0  0  0  0  0  0  0  0  0  0  0  0
   37.1150   31.2560   40.6770 C   0  0  0  0  0  0  0  0  0  0  0  0
   38.1210   30.5740   41.3270 C   0  0  0  0  0  0  0  0  0  0  0  0
   39.3180   31.2230   41.3560 N   0  0  0  0  0  0  0  0  0  0  0  0
   39.5400   32.4300   40.8070 C   0  0  0  0  0  0  0  0  0  0  0  0
   38.5400   33.0740   40.1770 N   0  0  0  0  0  0  0  0  0  0  0  0
   36.5270   33.0460   39.5860 H   0  0  0  0  0  0  0  0  0  0  0  0
   36.1210   30.8140   40.6040 H   0  0  0  0  0  0  0  0  0  0  0  0
   40.5640   32.7920   40.9300 H   0  0  0  0  0  0  0  0  0  0  0  0
   38.9520   28.3220   39.9860 O   0  0  0  0  0  0  0  0  0  0  0  0
   39.6780   28.9790   39.7830 H   0  0  0  0  0  0  0  0  0  0  0  0
   38.6890   25.8100   40.9640 O   0  0  0  0  0  0  0  0  0  0  0  0
   37.9230   24.8150   40.4700 C   0  0  0  0  0  0  0  0  0  0  0  0
   36.5740   24.8340   40.1250 C   0  0  0  0  0  0  0  0  0  0  0  0
   36.0120   25.7440   40.2480 H   0  0  0  0  0  0  0  0  0  0  0  0
   36.0350   23.6730   39.6430 C   0  0  0  0  0  3  0  0  0  0  0  0
   36.8940   22.5210   39.5250 C   0  0  0  0  0  3  0  0  0  0  0  0
   38.5060   23.1430   40.1270 S   0  0  0  0  0  0  0  0  0  0  0  0
  1  6  2  0  0  0  0
  1  2  1  0  0  0  0
  2  3  2  0  0  0  0
  3  4  1  0  0  0  0
  3  7  1  0  0  0  0
  4  8  1  0  0  0  0
  5  9  1  0  0  0  0
  5  4  2  0  0  0  0
  6  5  1  0  0  0  0
 10 15  2  0  0  0  0
 10 11  1  0  0  0  0
 11 12  2  0  0  0  0
 12 13  1  0  0  0  0
 12  2  1  0  0  0  0
 14 18  1  0  0  0  0
 14 13  2  0  0  0  0
 15 14  1  0  0  0  0
 16 10  1  0  0  0  0
 17 11  1  0  0  0  0
 19  1  1  0  0  0  0
 20 19  1  0  0  0  0
 21  6  1  0  0  0  0
 22 21  1  0  0  0  0
 23 24  1  0  0  0  0
 23 22  2  0  0  0  0
 25 23  1  0  0  0  0
 26 25  2  0  0  0  0
 26 27  1  0  0  0  0
 27 22  1  0  0  0  0
M  END
>  <minimizedAffinity>
-4.6590023

$$$$
