
 OpenBabel03252502423D

 21 22  0  0  0  0  0  0  0  0999 V2000
   37.6200   28.2230   43.6350 C   0  0  0  0  0  0  0  0  0  0  0  0
   37.5360   28.6070   44.6530 H   0  0  0  0  0  0  0  0  0  0  0  0
   36.6620   27.7390   43.3880 H   0  0  0  0  0  0  0  0  0  0  0  0
   39.3290   31.0460   41.8050 C   0  0  0  0  0  0  0  0  0  0  0  0
   39.0940   29.9690   42.7010 C   0  0  0  0  0  0  0  0  0  0  0  0
   37.8550   29.3450   42.6980 C   0  0  0  0  0  0  0  0  0  0  0  0
   36.9290   29.8080   41.8240 N   0  0  0  0  0  0  0  0  0  0  0  0
   37.1640   30.8250   40.9830 C   0  0  0  0  0  0  0  0  0  0  0  0
   38.3530   31.4350   40.9770 N   0  0  0  0  0  0  0  0  0  0  0  0
   40.3100   31.5040   41.8430 H   0  0  0  0  0  0  0  0  0  0  0  0
   39.8450   29.6030   43.4020 H   0  0  0  0  0  0  0  0  0  0  0  0
   36.3770   31.1450   40.3090 H   0  0  0  0  0  0  0  0  0  0  0  0
   38.7470   27.2270   43.4990 C   0  0  0  0  0  0  0  0  0  0  0  0
   38.9680   26.8420   44.5380 H   0  0  0  0  0  0  0  0  0  0  0  0
   39.6700   27.6650   43.1270 H   0  0  0  0  0  0  0  0  0  0  0  0
   38.3230   26.0530   42.7250 C   0  0  0  0  0  0  0  0  0  0  0  0
   37.0840   25.7010   42.2430 C   0  0  0  0  0  0  0  0  0  0  0  0
   36.2640   26.3720   42.4450 H   0  0  0  0  0  0  0  0  0  0  0  0
   36.9330   24.5470   41.5450 C   0  0  0  0  0  3  0  0  0  0  0  0
   38.1530   23.7650   41.3700 C   0  0  0  0  0  3  0  0  0  0  0  0
   39.4280   24.7980   42.2520 S   0  0  0  0  0  0  0  0  0  0  0  0
  1  2  1  0  0  0  0
  3  1  1  0  0  0  0
  4 10  1  0  0  0  0
  4  5  1  0  0  0  0
  5 11  1  0  0  0  0
  6  5  2  0  0  0  0
  6  1  1  0  0  0  0
  7  6  1  0  0  0  0
  8  7  2  0  0  0  0
  9  8  1  0  0  0  0
  9  4  2  0  0  0  0
 12  8  1  0  0  0  0
 13  1  1  0  0  0  0
 13 14  1  0  0  0  0
 15 13  1  0  0  0  0
 16 13  1  0  0  0  0
 17 18  1  0  0  0  0
 17 16  2  0  0  0  0
 19 17  1  0  0  0  0
 20 19  2  0  0  0  0
 20 21  1  0  0  0  0
 21 16  1  0  0  0  0
M  END
>  <minimizedAffinity>
-4.10570145

$$$$

 OpenBabel03252502423D

 21 22  0  0  0  0  0  0  0  0999 V2000
   35.3560   29.2140   40.3180 C   0  0  0  0  0  0  0  0  0  0  0  0
   34.9980   29.4080   41.3300 H   0  0  0  0  0  0  0  0  0  0  0  0
   34.4710   29.1150   39.6700 H   0  0  0  0  0  0  0  0  0  0  0  0
   37.3450   31.4950   38.0640 C   0  0  0  0  0  0  0  0  0  0  0  0
   36.5580   30.4030   38.5200 C   0  0  0  0  0  0  0  0  0  0  0  0
   36.1750   30.3560   39.8520 C   0  0  0  0  0  0  0  0  0  0  0  0
   36.5810   31.3720   40.6520 N   0  0  0  0  0  0  0  0  0  0  0  0
   37.3230   32.3960   40.2080 C   0  0  0  0  0  0  0  0  0  0  0  0
   37.6990   32.4540   38.9260 N   0  0  0  0  0  0  0  0  0  0  0  0
   37.6210   31.4900   37.0160 H   0  0  0  0  0  0  0  0  0  0  0  0
   36.2360   29.5890   37.8690 H   0  0  0  0  0  0  0  0  0  0  0  0
   37.6130   33.1770   40.9020 H   0  0  0  0  0  0  0  0  0  0  0  0
   36.1860   27.9540   40.2450 C   0  0  0  0  0  0  0  0  0  0  0  0
   36.8950   28.0810   39.3760 H   0  0  0  0  0  0  0  0  0  0  0  0
   35.6010   27.0600   40.0400 H   0  0  0  0  0  0  0  0  0  0  0  0
   37.0380   27.8140   41.4330 C   0  0  0  0  0  0  0  0  0  0  0  0
   36.7110   27.5390   42.7400 C   0  0  0  0  0  0  0  0  0  0  0  0
   35.6670   27.3920   42.9700 H   0  0  0  0  0  0  0  0  0  0  0  0
   37.6870   27.4610   43.6790 C   0  0  0  0  0  3  0  0  0  0  0  0
   39.0410   27.6880   43.1850 C   0  0  0  0  0  3  0  0  0  0  0  0
   38.7660   27.9990   41.3700 S   0  0  0  0  0  0  0  0  0  0  0  0
  1  2  1  0  0  0  0
  3  1  1  0  0  0  0
  4  5  2  0  0  0  0
  4  9  1  0  0  0  0
  5  6  1  0  0  0  0
  6  1  1  0  0  0  0
  6  7  2  0  0  0  0
  8  7  1  0  0  0  0
  8 12  1  0  0  0  0
  9  8  2  0  0  0  0
 10  4  1  0  0  0  0
 11  5  1  0  0  0  0
 13  1  1  0  0  0  0
 13 16  1  0  0  0  0
 14 13  1  0  0  0  0
 15 13  1  0  0  0  0
 16 17  2  0  0  0  0
 17 18  1  0  0  0  0
 17 19  1  0  0  0  0
 20 19  2  0  0  0  0
 21 16  1  0  0  0  0
 21 20  1  0  0  0  0
M  END
>  <minimizedAffinity>
-3.97850108

$$$$

 OpenBabel03252502423D

 21 22  0  0  0  0  0  0  0  0999 V2000
   37.6470   28.3280   43.6070 C   0  0  0  0  0  0  0  0  0  0  0  0
   36.6080   28.4190   43.2870 H   0  0  0  0  0  0  0  0  0  0  0  0
   37.6650   28.4490   44.7010 H   0  0  0  0  0  0  0  0  0  0  0  0
   37.8630   24.8670   42.1200 C   0  0  0  0  0  0  0  0  0  0  0  0
   37.3790   26.1580   42.4610 C   0  0  0  0  0  0  0  0  0  0  0  0
   38.1600   26.9840   43.2570 C   0  0  0  0  0  0  0  0  0  0  0  0
   39.3570   26.5000   43.6670 N   0  0  0  0  0  0  0  0  0  0  0  0
   39.8020   25.2790   43.3380 C   0  0  0  0  0  0  0  0  0  0  0  0
   39.0590   24.4740   42.5720 N   0  0  0  0  0  0  0  0  0  0  0  0
   37.2200   24.2560   41.4980 H   0  0  0  0  0  0  0  0  0  0  0  0
   36.4130   26.5400   42.1270 H   0  0  0  0  0  0  0  0  0  0  0  0
   40.7700   24.9550   43.7010 H   0  0  0  0  0  0  0  0  0  0  0  0
   38.5290   29.3710   42.9630 C   0  0  0  0  0  0  0  0  0  0  0  0
   39.3740   28.8160   42.4590 H   0  0  0  0  0  0  0  0  0  0  0  0
   38.9870   30.0520   43.6770 H   0  0  0  0  0  0  0  0  0  0  0  0
   37.8180   30.0720   41.8860 C   0  0  0  0  0  0  0  0  0  0  0  0
   36.5510   29.8870   41.3850 C   0  0  0  0  0  0  0  0  0  0  0  0
   35.9490   29.1110   41.8310 H   0  0  0  0  0  0  0  0  0  0  0  0
   36.1060   30.6680   40.3680 C   0  0  0  0  0  3  0  0  0  0  0  0
   37.0590   31.6640   39.8900 C   0  0  0  0  0  3  0  0  0  0  0  0
   38.5380   31.3700   40.9820 S   0  0  0  0  0  0  0  0  0  0  0  0
  1  3  1  0  0  0  0
  2  1  1  0  0  0  0
  4  5  2  0  0  0  0
  4  9  1  0  0  0  0
  5  6  1  0  0  0  0
  6  1  1  0  0  0  0
  6  7  2  0  0  0  0
  8  7  1  0  0  0  0
  8 12  1  0  0  0  0
  9  8  2  0  0  0  0
 10  4  1  0  0  0  0
 11  5  1  0  0  0  0
 13  1  1  0  0  0  0
 13 15  1  0  0  0  0
 14 13  1  0  0  0  0
 16 13  1  0  0  0  0
 17 18  1  0  0  0  0
 17 16  2  0  0  0  0
 19 17  1  0  0  0  0
 20 19  2  0  0  0  0
 20 21  1  0  0  0  0
 21 16  1  0  0  0  0
M  END
>  <minimizedAffinity>
-3.95781493

$$$$

 OpenBabel03252502423D

 21 22  0  0  0  0  0  0  0  0999 V2000
   37.0440   30.8020   39.6810 C   0  0  0  0  0  0  0  0  0  0  0  0
   36.2960   31.0160   38.9160 H   0  0  0  0  0  0  0  0  0  0  0  0
   37.5170   29.8440   39.4170 H   0  0  0  0  0  0  0  0  0  0  0  0
   38.7030   34.1600   40.1470 C   0  0  0  0  0  0  0  0  0  0  0  0
   37.7230   33.1310   40.1410 C   0  0  0  0  0  0  0  0  0  0  0  0
   38.0720   31.8680   39.6830 C   0  0  0  0  0  0  0  0  0  0  0  0
   39.3480   31.6900   39.2630 N   0  0  0  0  0  0  0  0  0  0  0  0
   40.2620   32.6700   39.2750 C   0  0  0  0  0  0  0  0  0  0  0  0
   39.9390   33.8910   39.7130 N   0  0  0  0  0  0  0  0  0  0  0  0
   38.3860   35.1290   40.5120 H   0  0  0  0  0  0  0  0  0  0  0  0
   36.6980   33.2830   40.4800 H   0  0  0  0  0  0  0  0  0  0  0  0
   41.2660   32.4590   38.9250 H   0  0  0  0  0  0  0  0  0  0  0  0
   36.4330   30.7080   41.0590 C   0  0  0  0  0  0  0  0  0  0  0  0
   35.3240   30.5540   40.9130 H   0  0  0  0  0  0  0  0  0  0  0  0
   36.5460   31.6170   41.6460 H   0  0  0  0  0  0  0  0  0  0  0  0
   36.9090   29.5120   41.7660 C   0  0  0  0  0  0  0  0  0  0  0  0
   36.3720   28.2490   41.8470 C   0  0  0  0  0  0  0  0  0  0  0  0
   35.4510   28.0670   41.3150 H   0  0  0  0  0  0  0  0  0  0  0  0
   37.0000   27.2920   42.5750 C   0  0  0  0  0  3  0  0  0  0  0  0
   38.2340   27.7210   43.2270 C   0  0  0  0  0  3  0  0  0  0  0  0
   38.3690   29.5050   42.7110 S   0  0  0  0  0  0  0  0  0  0  0  0
  1  6  1  0  0  0  0
  1 13  1  0  0  0  0
  2  1  1  0  0  0  0
  3  1  1  0  0  0  0
  4 10  1  0  0  0  0
  5  4  1  0  0  0  0
  5 11  1  0  0  0  0
  6  5  2  0  0  0  0
  7  8  2  0  0  0  0
  7  6  1  0  0  0  0
  8  9  1  0  0  0  0
  9  4  2  0  0  0  0
 12  8  1  0  0  0  0
 13 15  1  0  0  0  0
 13 16  1  0  0  0  0
 14 13  1  0  0  0  0
 16 17  2  0  0  0  0
 16 21  1  0  0  0  0
 17 19  1  0  0  0  0
 18 17  1  0  0  0  0
 19 20  2  0  0  0  0
 21 20  1  0  0  0  0
M  END
>  <minimizedAffinity>
-3.92812681

$$$$

 OpenBabel03252502423D

 21 22  0  0  0  0  0  0  0  0999 V2000
   36.7990   27.6610   42.4150 C   0  0  0  0  0  0  0  0  0  0  0  0
   36.4850   27.6110   41.3710 H   0  0  0  0  0  0  0  0  0  0  0  0
   35.9190   27.4280   43.0340 H   0  0  0  0  0  0  0  0  0  0  0  0
   39.9680   26.0480   43.6800 C   0  0  0  0  0  0  0  0  0  0  0  0
   38.9520   27.0100   43.4330 C   0  0  0  0  0  0  0  0  0  0  0  0
   37.8530   26.6510   42.6670 C   0  0  0  0  0  0  0  0  0  0  0  0
   37.8120   25.3820   42.1940 N   0  0  0  0  0  0  0  0  0  0  0  0
   38.7780   24.4840   42.4350 C   0  0  0  0  0  0  0  0  0  0  0  0
   39.8430   24.8170   43.1710 N   0  0  0  0  0  0  0  0  0  0  0  0
   40.8080   26.3730   44.2820 H   0  0  0  0  0  0  0  0  0  0  0  0
   38.9920   28.0300   43.8170 H   0  0  0  0  0  0  0  0  0  0  0  0
   38.6830   23.4840   42.0260 H   0  0  0  0  0  0  0  0  0  0  0  0
   37.3330   29.0260   42.7790 C   0  0  0  0  0  0  0  0  0  0  0  0
   38.4010   28.8790   43.1140 H   0  0  0  0  0  0  0  0  0  0  0  0
   36.8080   29.4900   43.6110 H   0  0  0  0  0  0  0  0  0  0  0  0
   37.4050   29.8970   41.5980 C   0  0  0  0  0  0  0  0  0  0  0  0
   36.4910   30.7880   41.0880 C   0  0  0  0  0  0  0  0  0  0  0  0
   35.5550   30.8950   41.6150 H   0  0  0  0  0  0  0  0  0  0  0  0
   36.7850   31.4890   39.9640 C   0  0  0  0  0  3  0  0  0  0  0  0
   38.0970   31.2140   39.3880 C   0  0  0  0  0  3  0  0  0  0  0  0
   38.7940   29.9390   40.5530 S   0  0  0  0  0  0  0  0  0  0  0  0
  1  6  1  0  0  0  0
  1 13  1  0  0  0  0
  1  3  1  0  0  0  0
  2  1  1  0  0  0  0
  4 10  1  0  0  0  0
  5  4  1  0  0  0  0
  5 11  1  0  0  0  0
  6  5  2  0  0  0  0
  7  8  2  0  0  0  0
  7  6  1  0  0  0  0
  8  9  1  0  0  0  0
  9  4  2  0  0  0  0
 12  8  1  0  0  0  0
 13 14  1  0  0  0  0
 13 15  1  0  0  0  0
 16 13  1  0  0  0  0
 17 16  2  0  0  0  0
 17 18  1  0  0  0  0
 19 17  1  0  0  0  0
 20 19  2  0  0  0  0
 20 21  1  0  0  0  0
 21 16  1  0  0  0  0
M  END
>  <minimizedAffinity>
-3.90947533

$$$$

 OpenBabel03252502423D

 21 22  0  0  0  0  0  0  0  0999 V2000
   36.6240   28.3840   42.0250 C   0  0  0  0  0  0  0  0  0  0  0  0
   35.5420   28.4770   42.1230 H   0  0  0  0  0  0  0  0  0  0  0  0
   36.8190   27.6080   41.2690 H   0  0  0  0  0  0  0  0  0  0  0  0
   36.9520   31.7370   40.3270 C   0  0  0  0  0  0  0  0  0  0  0  0
   36.4130   30.5020   40.7750 C   0  0  0  0  0  0  0  0  0  0  0  0
   37.1940   29.6700   41.5630 C   0  0  0  0  0  0  0  0  0  0  0  0
   38.4460   30.0930   41.8630 N   0  0  0  0  0  0  0  0  0  0  0  0
   38.9420   31.2620   41.4330 C   0  0  0  0  0  0  0  0  0  0  0  0
   38.1990   32.0730   40.6730 N   0  0  0  0  0  0  0  0  0  0  0  0
   36.3060   32.3550   39.7140 H   0  0  0  0  0  0  0  0  0  0  0  0
   35.4040   30.1680   40.5290 H   0  0  0  0  0  0  0  0  0  0  0  0
   39.9530   31.5400   41.7100 H   0  0  0  0  0  0  0  0  0  0  0  0
   37.2780   28.0000   43.3320 C   0  0  0  0  0  0  0  0  0  0  0  0
   36.4550   27.6340   44.0120 H   0  0  0  0  0  0  0  0  0  0  0  0
   37.7540   28.8360   43.8400 H   0  0  0  0  0  0  0  0  0  0  0  0
   38.1810   26.8560   43.1530 C   0  0  0  0  0  0  0  0  0  0  0  0
   39.4280   26.6110   43.6800 C   0  0  0  0  0  0  0  0  0  0  0  0
   39.8440   27.3580   44.3380 H   0  0  0  0  0  0  0  0  0  0  0  0
   40.0820   25.4650   43.3640 C   0  0  0  0  0  3  0  0  0  0  0  0
   39.3650   24.5720   42.4590 C   0  0  0  0  0  3  0  0  0  0  0  0
   37.7790   25.4970   42.1460 S   0  0  0  0  0  0  0  0  0  0  0  0
  1  2  1  0  0  0  0
  1 13  1  0  0  0  0
  3  1  1  0  0  0  0
  4  9  2  0  0  0  0
  4  5  1  0  0  0  0
  5  6  2  0  0  0  0
  6  7  1  0  0  0  0
  6  1  1  0  0  0  0
  8 12  1  0  0  0  0
  8  7  2  0  0  0  0
  9  8  1  0  0  0  0
 10  4  1  0  0  0  0
 11  5  1  0  0  0  0
 13 15  1  0  0  0  0
 13 14  1  0  0  0  0
 16 13  1  0  0  0  0
 16 17  2  0  0  0  0
 17 18  1  0  0  0  0
 19 17  1  0  0  0  0
 20 19  2  0  0  0  0
 21 20  1  0  0  0  0
 21 16  1  0  0  0  0
M  END
>  <minimizedAffinity>
-3.90350103

$$$$

 OpenBabel03252502423D

 21 22  0  0  0  0  0  0  0  0999 V2000
   36.2270   27.7850   40.1710 C   0  0  0  0  0  0  0  0  0  0  0  0
   36.7720   27.7910   39.2250 H   0  0  0  0  0  0  0  0  0  0  0  0
   35.5690   26.9020   40.1640 H   0  0  0  0  0  0  0  0  0  0  0  0
   37.6120   27.6550   43.6780 C   0  0  0  0  0  0  0  0  0  0  0  0
   36.7020   27.7630   42.5930 C   0  0  0  0  0  0  0  0  0  0  0  0
   37.1830   27.6710   41.2960 C   0  0  0  0  0  0  0  0  0  0  0  0
   38.5160   27.4800   41.1390 N   0  0  0  0  0  0  0  0  0  0  0  0
   39.3640   27.3800   42.1730 C   0  0  0  0  0  0  0  0  0  0  0  0
   38.9120   27.4670   43.4280 N   0  0  0  0  0  0  0  0  0  0  0  0
   37.1920   27.7330   44.6740 H   0  0  0  0  0  0  0  0  0  0  0  0
   35.6300   27.9170   42.7280 H   0  0  0  0  0  0  0  0  0  0  0  0
   40.4190   27.2270   41.9760 H   0  0  0  0  0  0  0  0  0  0  0  0
   35.4020   29.0360   40.3540 C   0  0  0  0  0  0  0  0  0  0  0  0
   35.2250   29.1490   41.4640 H   0  0  0  0  0  0  0  0  0  0  0  0
   34.4210   28.9820   39.8870 H   0  0  0  0  0  0  0  0  0  0  0  0
   36.1570   30.2300   39.9520 C   0  0  0  0  0  0  0  0  0  0  0  0
   36.5600   31.3220   40.6840 C   0  0  0  0  0  0  0  0  0  0  0  0
   36.2990   31.3400   41.7310 H   0  0  0  0  0  0  0  0  0  0  0  0
   37.2570   32.3190   40.0840 C   0  0  0  0  0  3  0  0  0  0  0  0
   37.5180   32.1230   38.6620 C   0  0  0  0  0  3  0  0  0  0  0  0
   36.7130   30.4780   38.3230 S   0  0  0  0  0  0  0  0  0  0  0  0
  1 13  1  0  0  0  0
  1  6  1  0  0  0  0
  2  1  1  0  0  0  0
  3  1  1  0  0  0  0
  4 10  1  0  0  0  0
  5 11  1  0  0  0  0
  5  4  2  0  0  0  0
  6  5  1  0  0  0  0
  7  6  2  0  0  0  0
  7  8  1  0  0  0  0
  8  9  2  0  0  0  0
  9  4  1  0  0  0  0
 12  8  1  0  0  0  0
 13 14  1  0  0  0  0
 15 13  1  0  0  0  0
 16 13  1  0  0  0  0
 16 17  2  0  0  0  0
 17 18  1  0  0  0  0
 19 17  1  0  0  0  0
 20 19  2  0  0  0  0
 21 20  1  0  0  0  0
 21 16  1  0  0  0  0
M  END
>  <minimizedAffinity>
-3.86851382

$$$$

 OpenBabel03252502423D

 21 22  0  0  0  0  0  0  0  0999 V2000
   39.6020   30.2580   41.1370 C   0  0  0  0  0  0  0  0  0  0  0  0
   39.3840   29.3830   40.5230 H   0  0  0  0  0  0  0  0  0  0  0  0
   40.6800   30.4610   41.0460 H   0  0  0  0  0  0  0  0  0  0  0  0
   38.6200   33.8210   40.3750 C   0  0  0  0  0  0  0  0  0  0  0  0
   39.3420   32.6970   40.8580 C   0  0  0  0  0  0  0  0  0  0  0  0
   38.8420   31.4240   40.6290 C   0  0  0  0  0  0  0  0  0  0  0  0
   37.6760   31.3270   39.9470 N   0  0  0  0  0  0  0  0  0  0  0  0
   37.0050   32.3970   39.4960 C   0  0  0  0  0  0  0  0  0  0  0  0
   37.4750   33.6300   39.7100 N   0  0  0  0  0  0  0  0  0  0  0  0
   39.0470   34.7960   40.5770 H   0  0  0  0  0  0  0  0  0  0  0  0
   40.2810   32.7840   41.4070 H   0  0  0  0  0  0  0  0  0  0  0  0
   36.0760   32.2480   38.9570 H   0  0  0  0  0  0  0  0  0  0  0  0
   39.2440   30.0350   42.5870 C   0  0  0  0  0  0  0  0  0  0  0  0
   38.6240   30.9210   42.9090 H   0  0  0  0  0  0  0  0  0  0  0  0
   40.1070   30.0030   43.2470 H   0  0  0  0  0  0  0  0  0  0  0  0
   38.3700   28.8640   42.7400 C   0  0  0  0  0  0  0  0  0  0  0  0
   37.3980   28.5910   43.6740 C   0  0  0  0  0  0  0  0  0  0  0  0
   37.2180   29.3340   44.4350 H   0  0  0  0  0  0  0  0  0  0  0  0
   36.7120   27.4220   43.6130 C   0  0  0  0  0  3  0  0  0  0  0  0
   37.0910   26.5380   42.5160 C   0  0  0  0  0  3  0  0  0  0  0  0
   38.4340   27.5030   41.6600 S   0  0  0  0  0  0  0  0  0  0  0  0
  1 13  1  0  0  0  0
  2  1  1  0  0  0  0
  3  1  1  0  0  0  0
  4 10  1  0  0  0  0
  4  5  1  0  0  0  0
  5 11  1  0  0  0  0
  6  5  2  0  0  0  0
  6  1  1  0  0  0  0
  7  6  1  0  0  0  0
  8  9  1  0  0  0  0
  8  7  2  0  0  0  0
  9  4  2  0  0  0  0
 12  8  1  0  0  0  0
 13 16  1  0  0  0  0
 13 14  1  0  0  0  0
 13 15  1  0  0  0  0
 16 17  2  0  0  0  0
 17 18  1  0  0  0  0
 19 17  1  0  0  0  0
 20 19  2  0  0  0  0
 21 20  1  0  0  0  0
 21 16  1  0  0  0  0
M  END
>  <minimizedAffinity>
-3.85187292

$$$$

 OpenBabel03252502423D

 21 22  0  0  0  0  0  0  0  0999 V2000
   36.1700   30.7370   41.0490 C   0  0  0  0  0  0  0  0  0  0  0  0
   36.5810   30.5560   42.0440 H   0  0  0  0  0  0  0  0  0  0  0  0
   35.4090   31.5270   41.1480 H   0  0  0  0  0  0  0  0  0  0  0  0
   38.0100   31.7310   37.9090 C   0  0  0  0  0  0  0  0  0  0  0  0
   36.9850   31.2830   38.7840 C   0  0  0  0  0  0  0  0  0  0  0  0
   37.2450   31.2050   40.1440 C   0  0  0  0  0  0  0  0  0  0  0  0
   38.4820   31.5670   40.5630 N   0  0  0  0  0  0  0  0  0  0  0  0
   39.4400   31.9890   39.7260 C   0  0  0  0  0  0  0  0  0  0  0  0
   39.2030   32.0680   38.4130 N   0  0  0  0  0  0  0  0  0  0  0  0
   37.7640   31.7760   36.8550 H   0  0  0  0  0  0  0  0  0  0  0  0
   35.9920   30.9930   38.4390 H   0  0  0  0  0  0  0  0  0  0  0  0
   40.4080   32.2630   40.1280 H   0  0  0  0  0  0  0  0  0  0  0  0
   35.5430   29.4940   40.4630 C   0  0  0  0  0  0  0  0  0  0  0  0
   35.7640   29.5100   39.3550 H   0  0  0  0  0  0  0  0  0  0  0  0
   34.4610   29.4660   40.5630 H   0  0  0  0  0  0  0  0  0  0  0  0
   36.1930   28.2820   40.9780 C   0  0  0  0  0  0  0  0  0  0  0  0
   36.5480   27.9350   42.2610 C   0  0  0  0  0  0  0  0  0  0  0  0
   36.3270   28.6420   43.0450 H   0  0  0  0  0  0  0  0  0  0  0  0
   37.1500   26.7420   42.4960 C   0  0  0  0  0  3  0  0  0  0  0  0
   37.3680   25.9150   41.3140 C   0  0  0  0  0  3  0  0  0  0  0  0
   36.6670   26.9660   39.9460 S   0  0  0  0  0  0  0  0  0  0  0  0
  1  3  1  0  0  0  0
  1  2  1  0  0  0  0
  4  9  2  0  0  0  0
  4  5  1  0  0  0  0
  5  6  2  0  0  0  0
  6  7  1  0  0  0  0
  6  1  1  0  0  0  0
  8 12  1  0  0  0  0
  8  7  2  0  0  0  0
  9  8  1  0  0  0  0
 10  4  1  0  0  0  0
 11  5  1  0  0  0  0
 13 15  1  0  0  0  0
 13 16  1  0  0  0  0
 13  1  1  0  0  0  0
 14 13  1  0  0  0  0
 16 17  2  0  0  0  0
 17 19  1  0  0  0  0
 17 18  1  0  0  0  0
 20 19  2  0  0  0  0
 21 16  1  0  0  0  0
 21 20  1  0  0  0  0
M  END
>  <minimizedAffinity>
-3.74143624

$$$$
