
 OpenBabel03252508073D

 41 44  0  0  0  0  0  0  0  0999 V2000
   45.1360   35.5810   43.2610 C   0  0  0  0  0  0  0  0  0  0  0  0
   45.5140   34.2490   43.3110 C   0  0  0  0  0  0  0  0  0  0  0  0
   45.4430   33.5560   44.4940 C   0  0  0  0  0  0  0  0  0  0  0  0
   44.9830   34.2450   45.5980 N   0  0  0  0  0  0  0  0  0  0  0  0
   44.6190   35.5250   45.5490 C   0  0  0  0  0  0  0  0  0  0  0  0
   44.7000   36.1840   44.3750 N   0  0  0  0  0  0  0  0  0  0  0  0
   45.1930   36.1370   42.3170 H   0  0  0  0  0  0  0  0  0  0  0  0
   44.2670   36.0160   46.4430 H   0  0  0  0  0  0  0  0  0  0  0  0
   45.7910   32.2020   44.7040 C   0  0  0  0  0  0  0  0  0  0  0  0
   45.4510   31.1610   43.8390 C   0  0  0  0  0  0  0  0  0  0  0  0
   45.7300   29.8410   44.0740 C   0  0  0  0  0  0  0  0  0  0  0  0
   46.3850   29.4780   45.2250 C   0  0  0  0  0  0  0  0  0  0  0  0
   46.7450   30.5260   46.1260 C   0  0  0  0  0  0  0  0  0  0  0  0
   47.3980   30.1670   47.2760 C   0  0  0  0  0  0  0  0  0  0  0  0
   47.7750   31.1320   48.1870 C   0  0  0  0  0  0  0  0  0  0  0  0
   47.4860   32.4790   47.9240 C   0  0  0  0  0  0  0  0  0  0  0  0
   46.8150   32.7930   46.7300 C   0  0  0  0  0  0  0  0  0  0  0  0
   46.4450   31.8200   45.8430 C   0  0  0  0  0  0  0  0  0  0  0  0
   44.9330   31.3970   42.9200 H   0  0  0  0  0  0  0  0  0  0  0  0
   45.4310   29.0840   43.3460 H   0  0  0  0  0  0  0  0  0  0  0  0
   46.6090   28.4560   45.4240 H   0  0  0  0  0  0  0  0  0  0  0  0
   47.6130   29.1200   47.4600 H   0  0  0  0  0  0  0  0  0  0  0  0
   48.2880   30.7840   49.0790 H   0  0  0  0  0  0  0  0  0  0  0  0
   47.8210   33.1490   48.6890 H   0  0  0  0  0  0  0  0  0  0  0  0
   46.7080   33.8570   46.7010 H   0  0  0  0  0  0  0  0  0  0  0  0
   45.9480   33.6830   42.1430 O   0  0  0  0  0  0  0  0  0  0  0  0
   48.1300   32.3040   41.7030 O   0  0  0  0  0  0  0  0  0  0  0  0
   47.5600   33.6770   41.6220 P   0  0  1  0  0  0  0  0  0  0  0  0
   47.6680   34.1610   40.0030 O   0  0  0  0  0  0  0  0  0  0  0  0
   48.3250   33.3530   39.0320 C   0  0  0  0  0  0  0  0  0  0  0  0
   49.1420   32.2030   38.7930 C   0  0  0  0  0  0  0  0  0  0  0  0
   49.3260   31.7910   39.7640 H   0  0  0  0  0  0  0  0  0  0  0  0
   49.4180   32.0000   37.4720 C   0  0  0  0  0  3  0  0  0  0  0  0
   48.9710   32.7970   36.4770 C   0  0  0  0  0  3  0  0  0  0  0  0
   48.0130   34.0630   37.3030 S   0  0  0  0  0  0  0  0  0  0  0  0
   48.4270   34.7530   42.5700 O   0  0  0  0  0  0  0  0  0  0  0  0
   49.6370   35.3490   42.2510 C   0  0  0  0  0  0  0  0  0  0  0  0
   49.3250   36.3960   41.6530 O   0  0  0  0  0  0  0  0  0  0  0  0
   50.7400   34.5520   42.7220 N   0  0  0  0  0  0  0  0  0  0  0  0
   51.4540   33.9970   42.1940 H   0  0  0  0  0  0  0  0  0  0  0  0
   50.8700   34.5040   43.7570 H   0  0  0  0  0  0  0  0  0  0  0  0
  1  2  2  0  0  0  0
  1  6  1  0  0  0  0
  2  3  1  0  0  0  0
  3  9  1  0  0  0  0
  3  4  2  0  0  0  0
  5  4  1  0  0  0  0
  5  8  1  0  0  0  0
  6  5  2  0  0  0  0
  7  1  1  0  0  0  0
  9 18  1  0  0  0  0
 10 11  1  0  0  0  0
 10  9  2  0  0  0  0
 11 12  2  0  0  0  0
 12 21  1  0  0  0  0
 12 13  1  0  0  0  0
 13 14  1  0  0  0  0
 14 22  1  0  0  0  0
 14 15  2  0  0  0  0
 15 23  1  0  0  0  0
 16 15  1  0  0  0  0
 16 24  1  0  0  0  0
 17 16  2  0  0  0  0
 18 13  2  0  0  0  0
 18 17  1  0  0  0  0
 19 10  1  0  0  0  0
 20 11  1  0  0  0  0
 25 17  1  0  0  0  0
 26  2  1  0  0  0  0
 28 27  2  1  0  0  0
 28 26  1  0  0  0  0
 28 36  1  0  0  0  0
 29 28  1  0  0  0  0
 30 29  1  0  0  0  0
 31 30  2  0  0  0  0
 31 32  1  0  0  0  0
 33 31  1  0  0  0  0
 34 35  1  0  0  0  0
 34 33  2  0  0  0  0
 35 30  1  0  0  0  0
 37 36  1  0  0  0  0
 37 39  1  0  0  0  0
 38 37  2  0  0  0  0
 39 41  1  0  0  0  0
 40 39  1  0  0  0  0
M  END
>  <minimizedAffinity>
-6.22830963

>  <minimizedRMSD>
1.03778803

$$$$
