
 OpenBabel03242516573D

 25 27  0  0  0  0  0  0  0  0999 V2000
   46.6360   34.7650   42.0510 C   0  0  0  0  0  0  0  0  0  0  0  0
   47.9380   35.1890   42.0070 C   0  0  0  0  0  0  0  0  0  0  0  0
   48.6900   35.0340   40.8630 C   0  0  0  0  0  0  0  0  0  0  0  0
   48.1030   34.4440   39.7710 C   0  0  0  0  0  0  0  0  0  0  0  0
   46.8050   34.0000   39.7580 C   0  0  0  0  0  0  0  0  0  0  0  0
   46.0920   34.1870   40.9530 C   0  0  0  0  0  0  0  0  0  0  0  0
   48.4470   35.6600   42.8410 H   0  0  0  0  0  0  0  0  0  0  0  0
   49.7100   35.3620   40.8160 H   0  0  0  0  0  0  0  0  0  0  0  0
   48.6720   34.3060   38.8490 H   0  0  0  0  0  0  0  0  0  0  0  0
   46.3230   33.5350   38.9140 H   0  0  0  0  0  0  0  0  0  0  0  0
   44.4500   36.1610   44.8030 C   0  0  0  0  0  0  0  0  0  0  0  0
   45.0980   36.0740   43.5480 C   0  0  0  0  0  0  0  0  0  0  0  0
   45.9180   34.9690   43.2970 C   0  0  0  0  0  0  0  0  0  0  0  0
   46.0330   34.0540   44.2840 N   0  0  0  0  0  0  0  0  0  0  0  0
   45.4160   34.1390   45.4780 C   0  0  0  0  0  0  0  0  0  0  0  0
   44.6160   35.2040   45.7410 N   0  0  0  0  0  0  0  0  0  0  0  0
   43.8360   37.0170   44.9530 H   0  0  0  0  0  0  0  0  0  0  0  0
   44.9880   36.8140   42.7820 H   0  0  0  0  0  0  0  0  0  0  0  0
   45.5610   33.3610   46.2180 H   0  0  0  0  0  0  0  0  0  0  0  0
   44.7250   33.7450   41.0020 C   0  0  0  0  0  0  0  0  0  0  0  0
   43.5760   34.3980   40.5990 C   0  0  0  0  0  0  0  0  0  0  0  0
   43.6800   35.3900   40.1790 H   0  0  0  0  0  0  0  0  0  0  0  0
   42.3610   33.7760   40.7420 C   0  0  0  0  0  0  0  0  0  0  0  0
   42.3970   32.4810   41.3080 C   0  0  0  0  0  0  0  0  0  0  0  0
   44.1790   32.1960   41.6180 S   0  0  0  0  0  0  0  0  0  0  0  0
  1 13  1  0  0  0  0
  2  1  1  0  0  0  0
  2  7  1  0  0  0  0
  3  2  2  0  0  0  0
  4  3  1  0  0  0  0
  5  4  2  0  0  0  0
  5  6  1  0  0  0  0
  6 20  1  0  0  0  0
  6  1  2  0  0  0  0
  8  3  1  0  0  0  0
  9  4  1  0  0  0  0
 10  5  1  0  0  0  0
 11 17  1  0  0  0  0
 11 16  1  0  0  0  0
 12 11  2  0  0  0  0
 13 12  1  0  0  0  0
 13 14  2  0  0  0  0
 14 15  1  0  0  0  0
 15 16  2  0  0  0  0
 15 19  1  0  0  0  0
 18 12  1  0  0  0  0
 20 25  1  0  0  0  0
 21 23  1  0  0  0  0
 21 20  2  0  0  0  0
 22 21  1  0  0  0  0
 23 24  2  0  0  0  0
 24 25  1  0  0  0  0
M  END
>  <minimizedAffinity>
-5.53583813

>  <minimizedRMSD>
0.577818096

$$$$
