
 OpenBabel03252506333D

 30 32  0  0  1  0  0  0  0  0999 V2000
   44.4640   35.7350   45.0080 C   0  0  0  0  0  0  0  0  0  0  0  0
   45.1180   35.7060   43.7660 C   0  0  0  0  0  0  0  0  0  0  0  0
   46.0380   34.7270   43.5090 C   0  0  0  0  0  0  0  0  0  0  0  0
   46.2560   33.8320   44.5040 N   0  0  0  0  0  0  0  0  0  0  0  0
   45.6360   33.8590   45.6790 C   0  0  0  0  0  0  0  0  0  0  0  0
   44.7270   34.8110   45.9580 N   0  0  0  0  0  0  0  0  0  0  0  0
   45.9610   32.8570   46.6260 N   0  0  0  0  0  0  0  0  0  0  0  0
   45.1580   32.5640   47.8200 C   0  0  0  0  0  0  0  0  0  0  0  0
   46.2250   32.2460   48.8460 C   0  0  0  0  0  0  0  0  0  0  0  0
   47.5210   32.1100   48.0950 C   0  0  0  0  0  0  0  0  0  0  0  0
   47.0600   31.9360   46.6730 C   0  0  1  0  0  0  0  0  0  0  0  0
   43.7320   36.4960   45.2400 H   0  0  0  0  0  0  0  0  0  0  0  0
   46.5390   34.7070   42.5540 H   0  0  0  0  0  0  0  0  0  0  0  0
   44.5950   33.5010   48.0950 H   0  0  0  0  0  0  0  0  0  0  0  0
   44.4610   31.7250   47.6400 H   0  0  0  0  0  0  0  0  0  0  0  0
   46.2630   33.0000   49.6620 H   0  0  0  0  0  0  0  0  0  0  0  0
   45.9660   31.2560   49.2870 H   0  0  0  0  0  0  0  0  0  0  0  0
   48.0650   33.0760   48.1600 H   0  0  0  0  0  0  0  0  0  0  0  0
   48.1340   31.2520   48.4410 H   0  0  0  0  0  0  0  0  0  0  0  0
   47.8670   32.2220   45.9430 H   0  0  0  0  0  0  0  0  0  0  0  0
   44.7640   36.7350   42.8240 N   0  0  0  0  0  0  0  0  0  0  0  0
   44.5130   37.6820   43.1320 H   0  0  0  0  0  0  0  0  0  0  0  0
   44.7600   36.5210   41.7820 H   0  0  0  0  0  0  0  0  0  0  0  0
   46.5350   30.2180   46.4110 S   0  0  0  0  0  0  0  0  0  0  0  0
   46.6690   29.6450   44.8230 C   0  0  0  0  0  0  0  0  0  0  0  0
   46.1340   28.6150   44.0110 C   0  0  0  0  0  0  0  0  0  0  0  0
   45.4430   28.0360   44.5860 H   0  0  0  0  0  0  0  0  0  0  0  0
   46.5000   28.4580   42.7070 C   0  0  0  0  0  3  0  0  0  0  0  0
   47.5010   29.4320   42.1700 C   0  0  0  0  0  3  0  0  0  0  0  0
   47.8430   30.5380   43.6530 S   0  0  0  0  0  0  0  0  0  0  0  0
  1 12  1  0  0  0  0
  1  6  1  0  0  0  0
  2  1  2  0  0  0  0
  3  2  1  0  0  0  0
  3  4  2  0  0  0  0
  4  5  1  0  0  0  0
  5  6  2  0  0  0  0
  5  7  1  0  0  0  0
  7 11  1  0  0  0  0
  7  8  1  0  0  0  0
  8 14  1  0  0  0  0
  8  9  1  0  0  0  0
  9 17  1  0  0  0  0
  9 16  1  0  0  0  0
 10 18  1  0  0  0  0
 10 19  1  0  0  0  0
 10  9  1  0  0  0  0
 11 20  1  6  0  0  0
 11 10  1  0  0  0  0
 13  3  1  0  0  0  0
 15  8  1  0  0  0  0
 21 22  1  0  0  0  0
 21  2  1  0  0  0  0
 23 21  1  0  0  0  0
 24 11  1  0  0  0  0
 25 24  1  0  0  0  0
 26 27  1  0  0  0  0
 26 25  2  0  0  0  0
 28 26  1  0  0  0  0
 29 28  2  0  0  0  0
 29 30  1  0  0  0  0
 30 25  1  0  0  0  0
M  END
>  <minimizedAffinity>
-4.73653936

>  <minimizedRMSD>
0.938803196

$$$$
