
 OpenBabel03252506393D

 41 44  0  0  1  0  0  0  0  0999 V2000
   38.6890   27.4690   36.2630 C   0  0  0  0  0  0  0  0  0  0  0  0
   37.4660   28.0780   35.9350 C   0  0  0  0  0  0  0  0  0  0  0  0
   36.4700   28.0840   36.8490 C   0  0  0  0  0  0  0  0  0  0  0  0
   36.7170   27.4930   38.0460 N   0  0  0  0  0  0  0  0  0  0  0  0
   37.8750   26.9210   38.3460 C   0  0  0  0  0  0  0  0  0  0  0  0
   38.8740   26.9000   37.4640 N   0  0  0  0  0  0  0  0  0  0  0  0
   38.0310   26.3200   39.6430 N   0  0  0  0  0  0  0  0  0  0  0  0
   39.2740   25.8850   40.1830 C   0  0  0  0  0  0  0  0  0  0  0  0
   38.8910   24.6290   40.9490 C   0  0  0  0  0  0  0  0  0  0  0  0
   37.3990   24.5560   40.9210 C   0  0  0  0  0  0  0  0  0  0  0  0
   37.0080   26.0020   40.6130 C   0  0  1  0  0  0  0  0  0  0  0  0
   39.4920   27.4540   35.5480 H   0  0  0  0  0  0  0  0  0  0  0  0
   35.5240   28.5400   36.6290 H   0  0  0  0  0  0  0  0  0  0  0  0
   39.9740   26.5040   40.6520 H   0  0  0  0  0  0  0  0  0  0  0  0
   39.8440   25.4530   39.2950 H   0  0  0  0  0  0  0  0  0  0  0  0
   39.4280   23.7300   40.6610 H   0  0  0  0  0  0  0  0  0  0  0  0
   39.1860   24.8490   42.0150 H   0  0  0  0  0  0  0  0  0  0  0  0
   36.9280   24.2310   41.8520 H   0  0  0  0  0  0  0  0  0  0  0  0
   37.0490   23.9520   40.0360 H   0  0  0  0  0  0  0  0  0  0  0  0
   35.9970   26.0390   40.1920 H   0  0  0  0  0  0  0  0  0  0  0  0
   37.3500   28.6600   34.6320 N   0  0  0  0  0  0  0  0  0  0  0  0
   38.2020   28.9180   34.0980 H   0  0  0  0  0  0  0  0  0  0  0  0
   36.3890   28.8150   34.2460 H   0  0  0  0  0  0  0  0  0  0  0  0
   37.1630   26.9710   42.0920 S   0  0  0  0  0  0  0  0  0  0  0  0
   39.3910   29.2880   41.2010 O   0  0  0  0  0  0  0  0  0  0  0  0
   38.1780   29.4500   41.4110 C   0  0  0  0  0  0  0  0  0  0  0  0
   37.0040   28.7030   41.9310 C   0  0  1  0  0  0  0  0  0  0  0  0
   35.9180   29.1700   40.9970 C   0  0  0  0  0  0  0  0  0  0  0  0
   36.1280   30.6770   41.1720 C   0  0  0  0  0  0  0  0  0  0  0  0
   37.5820   30.7230   41.0950 N   0  0  0  0  0  0  0  0  0  0  0  0
   36.7640   29.3010   42.8490 H   0  0  0  0  0  0  0  0  0  0  0  0
   36.1470   28.9140   39.9560 H   0  0  0  0  0  0  0  0  0  0  0  0
   34.9180   28.8740   41.3360 H   0  0  0  0  0  0  0  0  0  0  0  0
   35.7330   31.0310   42.1350 H   0  0  0  0  0  0  0  0  0  0  0  0
   35.7260   31.2080   40.2980 H   0  0  0  0  0  0  0  0  0  0  0  0
   38.2660   31.9710   40.7300 C   0  0  0  0  0  0  0  0  0  0  0  0
   37.6600   33.0470   40.2070 C   0  0  0  0  0  0  0  0  0  0  0  0
   36.5770   33.0820   40.0050 H   0  0  0  0  0  0  0  0  0  0  0  0
   38.4090   34.1570   39.9070 C   0  0  0  0  0  3  0  0  0  0  0  0
   39.7600   34.1520   40.1450 C   0  0  0  0  0  3  0  0  0  0  0  0
   40.0230   32.4080   40.8660 S   0  0  0  0  0  0  0  0  0  0  0  0
  1  6  1  0  0  0  0
  2  1  2  0  0  0  0
  2  3  1  0  0  0  0
  3  4  2  0  0  0  0
  4  5  1  0  0  0  0
  5  7  1  0  0  0  0
  6  5  2  0  0  0  0
  7  8  1  0  0  0  0
  7 11  1  0  0  0  0
  8 14  1  0  0  0  0
  8  9  1  0  0  0  0
  9 17  1  0  0  0  0
 10  9  1  0  0  0  0
 10 18  1  0  0  0  0
 11 20  1  6  0  0  0
 11 10  1  0  0  0  0
 11 24  1  0  0  0  0
 12  1  1  0  0  0  0
 13  3  1  0  0  0  0
 15  8  1  0  0  0  0
 16  9  1  0  0  0  0
 19 10  1  0  0  0  0
 21  2  1  0  0  0  0
 22 21  1  0  0  0  0
 23 21  1  0  0  0  0
 25 26  2  0  0  0  0
 26 27  1  0  0  0  0
 27 24  1  0  0  0  0
 27 31  1  1  0  0  0
 28 29  1  0  0  0  0
 28 33  1  0  0  0  0
 28 27  1  0  0  0  0
 29 34  1  0  0  0  0
 30 29  1  0  0  0  0
 30 26  1  0  0  0  0
 32 28  1  0  0  0  0
 35 29  1  0  0  0  0
 36 41  1  0  0  0  0
 36 30  1  0  0  0  0
 37 36  2  0  0  0  0
 38 37  1  0  0  0  0
 39 40  2  0  0  0  0
 39 37  1  0  0  0  0
 40 41  1  0  0  0  0
M  END
>  <minimizedAffinity>
-5.60372162

$$$$

 OpenBabel03252506393D

 41 44  0  0  1  0  0  0  0  0999 V2000
   37.0060   30.3250   36.5070 C   0  0  0  0  0  0  0  0  0  0  0  0
   37.7530   29.1760   36.1940 C   0  0  0  0  0  0  0  0  0  0  0  0
   38.7140   28.7640   37.0500 C   0  0  0  0  0  0  0  0  0  0  0  0
   38.9010   29.4970   38.1770 N   0  0  0  0  0  0  0  0  0  0  0  0
   38.1910   30.5790   38.4650 C   0  0  0  0  0  0  0  0  0  0  0  0
   37.2380   31.0080   37.6380 N   0  0  0  0  0  0  0  0  0  0  0  0
   38.4740   31.2850   39.6850 N   0  0  0  0  0  0  0  0  0  0  0  0
   37.6500   32.3090   40.2300 C   0  0  0  0  0  0  0  0  0  0  0  0
   38.6600   33.2810   40.8180 C   0  0  0  0  0  0  0  0  0  0  0  0
   39.9960   32.6210   40.7060 C   0  0  0  0  0  0  0  0  0  0  0  0
   39.6190   31.1470   40.5560 C   0  0  1  0  0  0  0  0  0  0  0  0
   36.2370   30.6670   35.8370 H   0  0  0  0  0  0  0  0  0  0  0  0
   39.3010   27.8920   36.8390 H   0  0  0  0  0  0  0  0  0  0  0  0
   36.7920   32.1450   40.8060 H   0  0  0  0  0  0  0  0  0  0  0  0
   37.2650   32.8880   39.3270 H   0  0  0  0  0  0  0  0  0  0  0  0
   38.5880   34.3010   40.4510 H   0  0  0  0  0  0  0  0  0  0  0  0
   38.4070   33.3190   41.9160 H   0  0  0  0  0  0  0  0  0  0  0  0
   40.6570   32.7530   41.5660 H   0  0  0  0  0  0  0  0  0  0  0  0
   40.4970   32.9060   39.7380 H   0  0  0  0  0  0  0  0  0  0  0  0
   40.4420   30.5910   40.0920 H   0  0  0  0  0  0  0  0  0  0  0  0
   37.4430   28.5060   34.9670 N   0  0  0  0  0  0  0  0  0  0  0  0
   36.5210   28.6490   34.5110 H   0  0  0  0  0  0  0  0  0  0  0  0
   38.1700   27.8750   34.5540 H   0  0  0  0  0  0  0  0  0  0  0  0
   39.1750   30.4990   42.1480 S   0  0  0  0  0  0  0  0  0  0  0  0
   39.6030   27.5570   40.6350 O   0  0  0  0  0  0  0  0  0  0  0  0
   38.7260   27.8590   41.4610 C   0  0  0  0  0  0  0  0  0  0  0  0
   38.1980   29.0510   42.1740 C   0  0  1  0  0  0  0  0  0  0  0  0
   37.9220   28.4790   43.5410 C   0  0  0  0  0  0  0  0  0  0  0  0
   37.0660   27.2890   43.0990 C   0  0  0  0  0  0  0  0  0  0  0  0
   37.8720   26.8210   41.9790 N   0  0  0  0  0  0  0  0  0  0  0  0
   37.1600   29.1040   41.7540 H   0  0  0  0  0  0  0  0  0  0  0  0
   38.8350   28.0870   44.0030 H   0  0  0  0  0  0  0  0  0  0  0  0
   37.3420   29.1640   44.1710 H   0  0  0  0  0  0  0  0  0  0  0  0
   36.0550   27.6050   42.8030 H   0  0  0  0  0  0  0  0  0  0  0  0
   37.0850   26.5130   43.8760 H   0  0  0  0  0  0  0  0  0  0  0  0
   37.7530   25.4340   41.5080 C   0  0  0  0  0  0  0  0  0  0  0  0
   36.6930   24.9410   40.8520 C   0  0  0  0  0  0  0  0  0  0  0  0
   35.8070   25.5490   40.6070 H   0  0  0  0  0  0  0  0  0  0  0  0
   36.7000   23.6250   40.4620 C   0  0  0  0  0  3  0  0  0  0  0  0
   37.7860   22.8360   40.7470 C   0  0  0  0  0  3  0  0  0  0  0  0
   38.9270   24.0570   41.6620 S   0  0  0  0  0  0  0  0  0  0  0  0
  1  6  1  0  0  0  0
  2  1  2  0  0  0  0
  2  3  1  0  0  0  0
  3  4  2  0  0  0  0
  4  5  1  0  0  0  0
  5  7  1  0  0  0  0
  6  5  2  0  0  0  0
  7  8  1  0  0  0  0
  7 11  1  0  0  0  0
  8 14  1  0  0  0  0
  8  9  1  0  0  0  0
  9 17  1  0  0  0  0
 10  9  1  0  0  0  0
 10 18  1  0  0  0  0
 11 20  1  6  0  0  0
 11 10  1  0  0  0  0
 11 24  1  0  0  0  0
 12  1  1  0  0  0  0
 13  3  1  0  0  0  0
 15  8  1  0  0  0  0
 16  9  1  0  0  0  0
 19 10  1  0  0  0  0
 21  2  1  0  0  0  0
 22 21  1  0  0  0  0
 23 21  1  0  0  0  0
 24 27  1  0  0  0  0
 25 26  2  0  0  0  0
 26 30  1  0  0  0  0
 26 27  1  0  0  0  0
 27 31  1  6  0  0  0
 27 28  1  0  0  0  0
 28 32  1  0  0  0  0
 28 33  1  0  0  0  0
 29 28  1  0  0  0  0
 29 35  1  0  0  0  0
 30 29  1  0  0  0  0
 34 29  1  0  0  0  0
 36 41  1  0  0  0  0
 36 30  1  0  0  0  0
 37 36  2  0  0  0  0
 38 37  1  0  0  0  0
 39 40  2  0  0  0  0
 39 37  1  0  0  0  0
 40 41  1  0  0  0  0
M  END
>  <minimizedAffinity>
-5.54943657

$$$$

 OpenBabel03252506393D

 41 44  0  0  1  0  0  0  0  0999 V2000
   40.4300   25.1320   43.2020 C   0  0  0  0  0  0  0  0  0  0  0  0
   41.7200   25.5880   42.8790 C   0  0  0  0  0  0  0  0  0  0  0  0
   41.8530   26.7440   42.1900 C   0  0  0  0  0  0  0  0  0  0  0  0
   40.7160   27.4010   41.8480 N   0  0  0  0  0  0  0  0  0  0  0  0
   39.5040   26.9630   42.1580 C   0  0  0  0  0  0  0  0  0  0  0  0
   39.3430   25.8280   42.8360 N   0  0  0  0  0  0  0  0  0  0  0  0
   38.3650   27.7360   41.7450 N   0  0  0  0  0  0  0  0  0  0  0  0
   37.0360   27.5170   42.2020 C   0  0  0  0  0  0  0  0  0  0  0  0
   36.1990   27.8060   40.9660 C   0  0  0  0  0  0  0  0  0  0  0  0
   37.1370   28.3490   39.9380 C   0  0  0  0  0  0  0  0  0  0  0  0
   38.3160   28.8210   40.7900 C   0  0  1  0  0  0  0  0  0  0  0  0
   40.3050   24.2150   43.7490 H   0  0  0  0  0  0  0  0  0  0  0  0
   42.8240   27.1180   41.9270 H   0  0  0  0  0  0  0  0  0  0  0  0
   36.6450   27.8720   43.1050 H   0  0  0  0  0  0  0  0  0  0  0  0
   36.9390   26.3840   42.2900 H   0  0  0  0  0  0  0  0  0  0  0  0
   35.5440   26.9990   40.6520 H   0  0  0  0  0  0  0  0  0  0  0  0
   35.5270   28.6580   41.2750 H   0  0  0  0  0  0  0  0  0  0  0  0
   36.7510   29.1780   39.3410 H   0  0  0  0  0  0  0  0  0  0  0  0
   37.5420   27.5170   39.2950 H   0  0  0  0  0  0  0  0  0  0  0  0
   39.2220   28.8900   40.1780 H   0  0  0  0  0  0  0  0  0  0  0  0
   42.8270   24.7860   43.3050 N   0  0  0  0  0  0  0  0  0  0  0  0
   42.7110   24.1060   44.0810 H   0  0  0  0  0  0  0  0  0  0  0  0
   43.7420   24.9100   42.8120 H   0  0  0  0  0  0  0  0  0  0  0  0
   37.8940   30.3670   41.5540 S   0  0  0  0  0  0  0  0  0  0  0  0
   40.8490   30.5830   40.0230 O   0  0  0  0  0  0  0  0  0  0  0  0
   40.0940   31.5170   40.3380 C   0  0  0  0  0  0  0  0  0  0  0  0
   38.8490   31.7610   41.1110 C   0  0  1  0  0  0  0  0  0  0  0  0
   38.1530   32.7740   40.2400 C   0  0  0  0  0  0  0  0  0  0  0  0
   39.3060   33.7750   40.1240 C   0  0  0  0  0  0  0  0  0  0  0  0
   40.4010   32.8460   39.8750 N   0  0  0  0  0  0  0  0  0  0  0  0
   39.2370   32.4190   41.9320 H   0  0  0  0  0  0  0  0  0  0  0  0
   37.9510   32.3720   39.2410 H   0  0  0  0  0  0  0  0  0  0  0  0
   37.2890   33.2310   40.7380 H   0  0  0  0  0  0  0  0  0  0  0  0
   39.4330   34.3560   41.0480 H   0  0  0  0  0  0  0  0  0  0  0  0
   39.1720   34.3880   39.2230 H   0  0  0  0  0  0  0  0  0  0  0  0
   41.6320   33.3100   39.2210 C   0  0  0  0  0  0  0  0  0  0  0  0
   41.7440   33.5850   37.9140 C   0  0  0  0  0  0  0  0  0  0  0  0
   40.9020   33.4840   37.2100 H   0  0  0  0  0  0  0  0  0  0  0  0
   42.9510   34.0120   37.4200 C   0  0  0  0  0  3  0  0  0  0  0  0
   44.0220   34.1520   38.2660 C   0  0  0  0  0  3  0  0  0  0  0  0
   43.2710   33.6300   39.9380 S   0  0  0  0  0  0  0  0  0  0  0  0
  1 12  1  0  0  0  0
  2  1  1  0  0  0  0
  2 21  1  0  0  0  0
  3  2  2  0  0  0  0
  4  5  2  0  0  0  0
  4  3  1  0  0  0  0
  5  6  1  0  0  0  0
  6  1  2  0  0  0  0
  7  5  1  0  0  0  0
  7  8  1  0  0  0  0
  8 15  1  0  0  0  0
  8 14  1  0  0  0  0
  9 17  1  0  0  0  0
  9  8  1  0  0  0  0
 10 11  1  0  0  0  0
 10  9  1  0  0  0  0
 11 20  1  6  0  0  0
 11 24  1  0  0  0  0
 11  7  1  0  0  0  0
 13  3  1  0  0  0  0
 16  9  1  0  0  0  0
 18 10  1  0  0  0  0
 19 10  1  0  0  0  0
 21 22  1  0  0  0  0
 23 21  1  0  0  0  0
 25 26  2  0  0  0  0
 26 27  1  0  0  0  0
 27 24  1  0  0  0  0
 27 31  1  1  0  0  0
 28 33  1  0  0  0  0
 28 27  1  0  0  0  0
 29 28  1  0  0  0  0
 29 34  1  0  0  0  0
 30 29  1  0  0  0  0
 30 26  1  0  0  0  0
 32 28  1  0  0  0  0
 35 29  1  0  0  0  0
 36 30  1  0  0  0  0
 36 41  1  0  0  0  0
 37 36  2  0  0  0  0
 38 37  1  0  0  0  0
 39 37  1  0  0  0  0
 39 40  2  0  0  0  0
 40 41  1  0  0  0  0
M  END
>  <minimizedAffinity>
-5.48456955

$$$$

 OpenBabel03252506393D

 41 44  0  0  1  0  0  0  0  0999 V2000
   40.6210   25.6350   43.6790 C   0  0  0  0  0  0  0  0  0  0  0  0
   41.7900   25.5490   42.9050 C   0  0  0  0  0  0  0  0  0  0  0  0
   41.8760   26.2660   41.7620 C   0  0  0  0  0  0  0  0  0  0  0  0
   40.8100   27.0380   41.4290 N   0  0  0  0  0  0  0  0  0  0  0  0
   39.7110   27.1140   42.1670 C   0  0  0  0  0  0  0  0  0  0  0  0
   39.6000   26.4170   43.2970 N   0  0  0  0  0  0  0  0  0  0  0  0
   38.6380   27.9600   41.7200 N   0  0  0  0  0  0  0  0  0  0  0  0
   37.5130   28.3180   42.5140 C   0  0  0  0  0  0  0  0  0  0  0  0
   36.3770   28.3400   41.5030 C   0  0  0  0  0  0  0  0  0  0  0  0
   37.0050   28.1610   40.1590 C   0  0  0  0  0  0  0  0  0  0  0  0
   38.4560   28.5660   40.4200 C   0  0  1  0  0  0  0  0  0  0  0  0
   40.5360   25.0720   44.5910 H   0  0  0  0  0  0  0  0  0  0  0  0
   42.7550   26.2200   41.1490 H   0  0  0  0  0  0  0  0  0  0  0  0
   37.4990   29.0840   43.2250 H   0  0  0  0  0  0  0  0  0  0  0  0
   37.2700   27.3810   43.1180 H   0  0  0  0  0  0  0  0  0  0  0  0
   35.5360   27.6950   41.7390 H   0  0  0  0  0  0  0  0  0  0  0  0
   35.9880   29.3980   41.5420 H   0  0  0  0  0  0  0  0  0  0  0  0
   36.5820   28.7730   39.3590 H   0  0  0  0  0  0  0  0  0  0  0  0
   37.0400   27.0680   39.8830 H   0  0  0  0  0  0  0  0  0  0  0  0
   39.1120   28.1370   39.6550 H   0  0  0  0  0  0  0  0  0  0  0  0
   42.8330   24.6910   43.3820 N   0  0  0  0  0  0  0  0  0  0  0  0
   42.8690   24.4200   44.3840 H   0  0  0  0  0  0  0  0  0  0  0  0
   43.5460   24.3530   42.6940 H   0  0  0  0  0  0  0  0  0  0  0  0
   38.5580   30.3370   40.4870 S   0  0  0  0  0  0  0  0  0  0  0  0
   41.5310   29.3880   39.3100 O   0  0  0  0  0  0  0  0  0  0  0  0
   40.8600   30.3720   38.9570 C   0  0  0  0  0  0  0  0  0  0  0  0
   39.6370   31.1150   39.3550 C   0  0  1  0  0  0  0  0  0  0  0  0
   39.0400   31.4440   38.0110 C   0  0  0  0  0  0  0  0  0  0  0  0
   40.2790   32.0930   37.3870 C   0  0  0  0  0  0  0  0  0  0  0  0
   41.2880   31.1300   37.8090 N   0  0  0  0  0  0  0  0  0  0  0  0
   40.0770   32.1070   39.6390 H   0  0  0  0  0  0  0  0  0  0  0  0
   38.8100   30.5360   37.4420 H   0  0  0  0  0  0  0  0  0  0  0  0
   38.2170   32.1650   38.0830 H   0  0  0  0  0  0  0  0  0  0  0  0
   40.4510   33.1030   37.7850 H   0  0  0  0  0  0  0  0  0  0  0  0
   40.2060   32.0470   36.2920 H   0  0  0  0  0  0  0  0  0  0  0  0
   42.5600   31.0230   37.0830 C   0  0  0  0  0  0  0  0  0  0  0  0
   42.7840   30.1900   36.0560 C   0  0  0  0  0  0  0  0  0  0  0  0
   42.0140   29.5040   35.6670 H   0  0  0  0  0  0  0  0  0  0  0  0
   44.0180   30.1810   35.4570 C   0  0  0  0  0  3  0  0  0  0  0  0
   45.0030   31.0220   35.9130 C   0  0  0  0  0  3  0  0  0  0  0  0
   44.1160   31.9260   37.3370 S   0  0  0  0  0  0  0  0  0  0  0  0
  1 12  1  0  0  0  0
  2 21  1  0  0  0  0
  2  1  2  0  0  0  0
  3  2  1  0  0  0  0
  4  3  2  0  0  0  0
  4  5  1  0  0  0  0
  5  6  2  0  0  0  0
  6  1  1  0  0  0  0
  7  5  1  0  0  0  0
  7  8  1  0  0  0  0
  8 15  1  0  0  0  0
  8 14  1  0  0  0  0
  9 17  1  0  0  0  0
  9 16  1  0  0  0  0
  9  8  1  0  0  0  0
 10 11  1  0  0  0  0
 10  9  1  0  0  0  0
 11 20  1  6  0  0  0
 11 24  1  0  0  0  0
 11  7  1  0  0  0  0
 13  3  1  0  0  0  0
 18 10  1  0  0  0  0
 19 10  1  0  0  0  0
 21 22  1  0  0  0  0
 23 21  1  0  0  0  0
 26 25  2  0  0  0  0
 26 27  1  0  0  0  0
 27 31  1  1  0  0  0
 27 24  1  0  0  0  0
 28 33  1  0  0  0  0
 28 27  1  0  0  0  0
 29 34  1  0  0  0  0
 29 30  1  0  0  0  0
 29 28  1  0  0  0  0
 30 26  1  0  0  0  0
 32 28  1  0  0  0  0
 35 29  1  0  0  0  0
 36 41  1  0  0  0  0
 36 30  1  0  0  0  0
 37 36  2  0  0  0  0
 38 37  1  0  0  0  0
 39 40  2  0  0  0  0
 39 37  1  0  0  0  0
 40 41  1  0  0  0  0
M  END
>  <minimizedAffinity>
-5.39244032

$$$$

 OpenBabel03252506393D

 41 44  0  0  1  0  0  0  0  0999 V2000
   40.2110   32.6470   39.0060 C   0  0  0  0  0  0  0  0  0  0  0  0
   40.0240   31.7430   37.9470 C   0  0  0  0  0  0  0  0  0  0  0  0
   40.3300   30.4400   38.1340 C   0  0  0  0  0  0  0  0  0  0  0  0
   40.8060   30.0800   39.3530 N   0  0  0  0  0  0  0  0  0  0  0  0
   40.9780   30.9400   40.3470 C   0  0  0  0  0  0  0  0  0  0  0  0
   40.6850   32.2300   40.1900 N   0  0  0  0  0  0  0  0  0  0  0  0
   41.4920   30.4530   41.5990 N   0  0  0  0  0  0  0  0  0  0  0  0
   41.5060   31.2030   42.8080 C   0  0  0  0  0  0  0  0  0  0  0  0
   42.8160   30.7790   43.4550 C   0  0  0  0  0  0  0  0  0  0  0  0
   43.3580   29.6660   42.6190 C   0  0  0  0  0  0  0  0  0  0  0  0
   42.1140   29.1780   41.8770 C   0  0  1  0  0  0  0  0  0  0  0  0
   39.9730   33.6880   38.8750 H   0  0  0  0  0  0  0  0  0  0  0  0
   40.2000   29.7260   37.3440 H   0  0  0  0  0  0  0  0  0  0  0  0
   40.6940   31.3090   43.4580 H   0  0  0  0  0  0  0  0  0  0  0  0
   41.7390   32.2720   42.4870 H   0  0  0  0  0  0  0  0  0  0  0  0
   43.4980   31.5900   43.6910 H   0  0  0  0  0  0  0  0  0  0  0  0
   42.5070   30.3250   44.4400 H   0  0  0  0  0  0  0  0  0  0  0  0
   43.8110   28.8410   43.1740 H   0  0  0  0  0  0  0  0  0  0  0  0
   44.0470   30.0700   41.8230 H   0  0  0  0  0  0  0  0  0  0  0  0
   42.4020   28.6380   40.9690 H   0  0  0  0  0  0  0  0  0  0  0  0
   39.5150   32.2700   36.7160 N   0  0  0  0  0  0  0  0  0  0  0  0
   39.0030   33.1730   36.7060 H   0  0  0  0  0  0  0  0  0  0  0  0
   39.6760   31.7180   35.8410 H   0  0  0  0  0  0  0  0  0  0  0  0
   41.1380   28.1840   42.9780 S   0  0  0  0  0  0  0  0  0  0  0  0
   40.0530   26.0180   40.6860 O   0  0  0  0  0  0  0  0  0  0  0  0
   39.3670   26.6860   41.4750 C   0  0  0  0  0  0  0  0  0  0  0  0
   39.5170   27.7840   42.4650 C   0  0  1  0  0  0  0  0  0  0  0  0
   38.5850   27.3280   43.5570 C   0  0  0  0  0  0  0  0  0  0  0  0
   37.3410   27.1130   42.6910 C   0  0  0  0  0  0  0  0  0  0  0  0
   37.9530   26.4210   41.5650 N   0  0  0  0  0  0  0  0  0  0  0  0
   38.9010   28.5870   41.9830 H   0  0  0  0  0  0  0  0  0  0  0  0
   38.8890   26.3560   43.9630 H   0  0  0  0  0  0  0  0  0  0  0  0
   38.4070   28.1080   44.3080 H   0  0  0  0  0  0  0  0  0  0  0  0
   36.8720   28.0670   42.4110 H   0  0  0  0  0  0  0  0  0  0  0  0
   36.6620   26.4090   43.1910 H   0  0  0  0  0  0  0  0  0  0  0  0
   37.1390   25.5740   40.6830 C   0  0  0  0  0  0  0  0  0  0  0  0
   36.6700   24.3620   41.0100 C   0  0  0  0  0  0  0  0  0  0  0  0
   36.8620   23.8930   41.9890 H   0  0  0  0  0  0  0  0  0  0  0  0
   35.9180   23.6650   40.0980 C   0  0  0  0  0  3  0  0  0  0  0  0
   35.6560   24.2160   38.8680 C   0  0  0  0  0  3  0  0  0  0  0  0
   36.5570   25.8910   38.9910 S   0  0  0  0  0  0  0  0  0  0  0  0
  1  6  1  0  0  0  0
  2  3  1  0  0  0  0
  2  1  2  0  0  0  0
  3  4  2  0  0  0  0
  4  5  1  0  0  0  0
  5  7  1  0  0  0  0
  6  5  2  0  0  0  0
  7 11  1  0  0  0  0
  7  8  1  0  0  0  0
  8  9  1  0  0  0  0
  8 14  1  0  0  0  0
  9 16  1  0  0  0  0
  9 17  1  0  0  0  0
 10 18  1  0  0  0  0
 10  9  1  0  0  0  0
 11 20  1  6  0  0  0
 11 10  1  0  0  0  0
 11 24  1  0  0  0  0
 12  1  1  0  0  0  0
 13  3  1  0  0  0  0
 15  8  1  0  0  0  0
 19 10  1  0  0  0  0
 21  2  1  0  0  0  0
 22 21  1  0  0  0  0
 23 21  1  0  0  0  0
 25 26  2  0  0  0  0
 26 30  1  0  0  0  0
 26 27  1  0  0  0  0
 27 31  1  6  0  0  0
 27 24  1  0  0  0  0
 27 28  1  0  0  0  0
 28 32  1  0  0  0  0
 28 33  1  0  0  0  0
 29 35  1  0  0  0  0
 29 28  1  0  0  0  0
 30 29  1  0  0  0  0
 34 29  1  0  0  0  0
 36 37  2  0  0  0  0
 36 30  1  0  0  0  0
 37 38  1  0  0  0  0
 39 37  1  0  0  0  0
 40 41  1  0  0  0  0
 40 39  2  0  0  0  0
 41 36  1  0  0  0  0
M  END
>  <minimizedAffinity>
-5.35350609

$$$$

 OpenBabel03252506393D

 41 44  0  0  1  0  0  0  0  0999 V2000
   43.3880   32.9430   37.4450 C   0  0  0  0  0  0  0  0  0  0  0  0
   44.2790   33.5970   38.3130 C   0  0  0  0  0  0  0  0  0  0  0  0
   43.9790   33.6680   39.6290 C   0  0  0  0  0  0  0  0  0  0  0  0
   42.8190   33.0950   40.0370 N   0  0  0  0  0  0  0  0  0  0  0  0
   41.9840   32.4800   39.2100 C   0  0  0  0  0  0  0  0  0  0  0  0
   42.2540   32.3950   37.9090 N   0  0  0  0  0  0  0  0  0  0  0  0
   40.7780   31.9090   39.7460 N   0  0  0  0  0  0  0  0  0  0  0  0
   39.9190   31.0290   39.0320 C   0  0  0  0  0  0  0  0  0  0  0  0
   38.5360   31.4410   39.5100 C   0  0  0  0  0  0  0  0  0  0  0  0
   38.7480   32.4250   40.6140 C   0  0  0  0  0  0  0  0  0  0  0  0
   40.1840   32.1270   41.0460 C   0  0  1  0  0  0  0  0  0  0  0  0
   43.6100   32.8760   36.3950 H   0  0  0  0  0  0  0  0  0  0  0  0
   44.6390   34.1610   40.3170 H   0  0  0  0  0  0  0  0  0  0  0  0
   40.0710   30.0000   38.9210 H   0  0  0  0  0  0  0  0  0  0  0  0
   39.9230   31.4210   37.9610 H   0  0  0  0  0  0  0  0  0  0  0  0
   37.8430   31.7290   38.7260 H   0  0  0  0  0  0  0  0  0  0  0  0
   38.1130   30.5090   39.9830 H   0  0  0  0  0  0  0  0  0  0  0  0
   38.0720   32.3250   41.4670 H   0  0  0  0  0  0  0  0  0  0  0  0
   38.7650   33.4760   40.2080 H   0  0  0  0  0  0  0  0  0  0  0  0
   40.6090   32.9910   41.5690 H   0  0  0  0  0  0  0  0  0  0  0  0
   45.4650   34.1560   37.7380 N   0  0  0  0  0  0  0  0  0  0  0  0
   45.8120   33.8140   36.8210 H   0  0  0  0  0  0  0  0  0  0  0  0
   45.9620   34.9090   38.2690 H   0  0  0  0  0  0  0  0  0  0  0  0
   40.1950   30.6590   42.0430 S   0  0  0  0  0  0  0  0  0  0  0  0
   39.7940   27.6890   40.5780 O   0  0  0  0  0  0  0  0  0  0  0  0
   38.9770   28.2940   41.2910 C   0  0  0  0  0  0  0  0  0  0  0  0
   38.7950   29.6170   41.9410 C   0  0  1  0  0  0  0  0  0  0  0  0
   38.1860   29.2190   43.2610 C   0  0  0  0  0  0  0  0  0  0  0  0
   37.0410   28.3640   42.7110 C   0  0  0  0  0  0  0  0  0  0  0  0
   37.7710   27.6160   41.6960 N   0  0  0  0  0  0  0  0  0  0  0  0
   37.8910   29.9960   41.3970 H   0  0  0  0  0  0  0  0  0  0  0  0
   38.8560   28.5630   43.8290 H   0  0  0  0  0  0  0  0  0  0  0  0
   37.7980   30.0790   43.8190 H   0  0  0  0  0  0  0  0  0  0  0  0
   36.2360   28.9860   42.2960 H   0  0  0  0  0  0  0  0  0  0  0  0
   36.7100   27.6540   43.4800 H   0  0  0  0  0  0  0  0  0  0  0  0
   37.2530   26.3310   41.2060 C   0  0  0  0  0  0  0  0  0  0  0  0
   37.1760   25.2120   41.9400 C   0  0  0  0  0  0  0  0  0  0  0  0
   37.5010   25.1650   42.9920 H   0  0  0  0  0  0  0  0  0  0  0  0
   36.6720   24.0700   41.3690 C   0  0  0  0  0  3  0  0  0  0  0  0
   36.2550   24.0890   40.0610 C   0  0  0  0  0  3  0  0  0  0  0  0
   36.6030   25.8960   39.5670 S   0  0  0  0  0  0  0  0  0  0  0  0
  1  6  2  0  0  0  0
  1  2  1  0  0  0  0
  2  3  2  0  0  0  0
  3  4  1  0  0  0  0
  3 13  1  0  0  0  0
  5  7  1  0  0  0  0
  5  4  2  0  0  0  0
  6  5  1  0  0  0  0
  7 11  1  0  0  0  0
  8  9  1  0  0  0  0
  8  7  1  0  0  0  0
  9 17  1  0  0  0  0
  9 10  1  0  0  0  0
 10 11  1  0  0  0  0
 10 18  1  0  0  0  0
 11 20  1  1  0  0  0
 11 24  1  0  0  0  0
 12  1  1  0  0  0  0
 14  8  1  0  0  0  0
 15  8  1  0  0  0  0
 16  9  1  0  0  0  0
 19 10  1  0  0  0  0
 21 23  1  0  0  0  0
 21  2  1  0  0  0  0
 22 21  1  0  0  0  0
 25 26  2  0  0  0  0
 26 30  1  0  0  0  0
 26 27  1  0  0  0  0
 27 31  1  6  0  0  0
 27 24  1  0  0  0  0
 27 28  1  0  0  0  0
 28 33  1  0  0  0  0
 28 32  1  0  0  0  0
 29 28  1  0  0  0  0
 29 35  1  0  0  0  0
 30 29  1  0  0  0  0
 34 29  1  0  0  0  0
 36 30  1  0  0  0  0
 36 37  2  0  0  0  0
 37 38  1  0  0  0  0
 39 37  1  0  0  0  0
 40 39  2  0  0  0  0
 41 40  1  0  0  0  0
 41 36  1  0  0  0  0
M  END
>  <minimizedAffinity>
-5.2780652

$$$$

 OpenBabel03252506393D

 41 44  0  0  1  0  0  0  0  0999 V2000
   38.3690   27.5460   36.5240 C   0  0  0  0  0  0  0  0  0  0  0  0
   37.4510   28.5130   36.0810 C   0  0  0  0  0  0  0  0  0  0  0  0
   36.7390   29.2100   36.9950 C   0  0  0  0  0  0  0  0  0  0  0  0
   36.9600   28.9270   38.3040 N   0  0  0  0  0  0  0  0  0  0  0  0
   37.8290   28.0130   38.7130 C   0  0  0  0  0  0  0  0  0  0  0  0
   38.5430   27.3120   37.8330 N   0  0  0  0  0  0  0  0  0  0  0  0
   37.9830   27.7900   40.1250 N   0  0  0  0  0  0  0  0  0  0  0  0
   39.0300   27.0220   40.7070 C   0  0  0  0  0  0  0  0  0  0  0  0
   38.3360   26.3290   41.8700 C   0  0  0  0  0  0  0  0  0  0  0  0
   36.9640   26.9160   41.9530 C   0  0  0  0  0  0  0  0  0  0  0  0
   37.1290   28.2370   41.2010 C   0  0  1  0  0  0  0  0  0  0  0  0
   38.9440   26.9820   35.8100 H   0  0  0  0  0  0  0  0  0  0  0  0
   36.0300   29.9540   36.6890 H   0  0  0  0  0  0  0  0  0  0  0  0
   39.9950   27.3730   40.9020 H   0  0  0  0  0  0  0  0  0  0  0  0
   39.1950   26.1560   39.9840 H   0  0  0  0  0  0  0  0  0  0  0  0
   38.4040   25.2450   41.8690 H   0  0  0  0  0  0  0  0  0  0  0  0
   38.8960   26.6830   42.7820 H   0  0  0  0  0  0  0  0  0  0  0  0
   36.5950   27.1030   42.9640 H   0  0  0  0  0  0  0  0  0  0  0  0
   36.2380   26.3080   41.3420 H   0  0  0  0  0  0  0  0  0  0  0  0
   36.1550   28.5970   40.8510 H   0  0  0  0  0  0  0  0  0  0  0  0
   37.3240   28.7000   34.6670 N   0  0  0  0  0  0  0  0  0  0  0  0
   38.0860   28.3980   34.0300 H   0  0  0  0  0  0  0  0  0  0  0  0
   36.4490   29.1480   34.3070 H   0  0  0  0  0  0  0  0  0  0  0  0
   37.9430   29.4060   42.2600 S   0  0  0  0  0  0  0  0  0  0  0  0
   40.6200   30.1110   40.4000 O   0  0  0  0  0  0  0  0  0  0  0  0
   39.6710   30.8640   40.6710 C   0  0  0  0  0  0  0  0  0  0  0  0
   38.4650   30.9080   41.5370 C   0  0  1  0  0  0  0  0  0  0  0  0
   37.4660   31.5690   40.6220 C   0  0  0  0  0  0  0  0  0  0  0  0
   38.3050   32.7940   40.2500 C   0  0  0  0  0  0  0  0  0  0  0  0
   39.5840   32.1400   40.0060 N   0  0  0  0  0  0  0  0  0  0  0  0
   38.7250   31.7610   42.2160 H   0  0  0  0  0  0  0  0  0  0  0  0
   37.3050   30.9790   39.7120 H   0  0  0  0  0  0  0  0  0  0  0  0
   36.5510   31.8680   41.1470 H   0  0  0  0  0  0  0  0  0  0  0  0
   38.3410   33.5240   41.0700 H   0  0  0  0  0  0  0  0  0  0  0  0
   37.9500   33.2070   39.2960 H   0  0  0  0  0  0  0  0  0  0  0  0
   40.6010   32.7880   39.1660 C   0  0  0  0  0  0  0  0  0  0  0  0
   40.8740   32.4460   37.9000 C   0  0  0  0  0  0  0  0  0  0  0  0
   40.3470   31.6330   37.3750 H   0  0  0  0  0  0  0  0  0  0  0  0
   41.8490   33.1290   37.2160 C   0  0  0  0  0  3  0  0  0  0  0  0
   42.5270   34.1490   37.8350 C   0  0  0  0  0  3  0  0  0  0  0  0
   41.7230   34.1610   39.5620 S   0  0  0  0  0  0  0  0  0  0  0  0
  1  6  1  0  0  0  0
  2  1  2  0  0  0  0
  2  3  1  0  0  0  0
  3  4  2  0  0  0  0
  4  5  1  0  0  0  0
  5  7  1  0  0  0  0
  6  5  2  0  0  0  0
  7  8  1  0  0  0  0
  7 11  1  0  0  0  0
  8 14  1  0  0  0  0
  8  9  1  0  0  0  0
  9 10  1  0  0  0  0
  9 17  1  0  0  0  0
 10 18  1  0  0  0  0
 11 20  1  6  0  0  0
 11 10  1  0  0  0  0
 11 24  1  0  0  0  0
 12  1  1  0  0  0  0
 13  3  1  0  0  0  0
 15  8  1  0  0  0  0
 16  9  1  0  0  0  0
 19 10  1  0  0  0  0
 21  2  1  0  0  0  0
 22 21  1  0  0  0  0
 23 21  1  0  0  0  0
 25 26  2  0  0  0  0
 26 27  1  0  0  0  0
 27 31  1  1  0  0  0
 27 24  1  0  0  0  0
 28 33  1  0  0  0  0
 28 27  1  0  0  0  0
 29 28  1  0  0  0  0
 29 34  1  0  0  0  0
 30 29  1  0  0  0  0
 30 26  1  0  0  0  0
 32 28  1  0  0  0  0
 35 29  1  0  0  0  0
 36 41  1  0  0  0  0
 36 30  1  0  0  0  0
 37 36  2  0  0  0  0
 38 37  1  0  0  0  0
 39 40  2  0  0  0  0
 39 37  1  0  0  0  0
 40 41  1  0  0  0  0
M  END
>  <minimizedAffinity>
-5.24928522

$$$$

 OpenBabel03252506393D

 41 44  0  0  1  0  0  0  0  0999 V2000
   38.8530   32.0920   38.9860 C   0  0  0  0  0  0  0  0  0  0  0  0
   39.5150   31.5040   37.8950 C   0  0  0  0  0  0  0  0  0  0  0  0
   39.7530   30.1730   37.9110 C   0  0  0  0  0  0  0  0  0  0  0  0
   39.3310   29.4780   38.9970 N   0  0  0  0  0  0  0  0  0  0  0  0
   38.7070   30.0410   40.0220 C   0  0  0  0  0  0  0  0  0  0  0  0
   38.4600   31.3500   40.0320 N   0  0  0  0  0  0  0  0  0  0  0  0
   38.3050   29.2120   41.1260 N   0  0  0  0  0  0  0  0  0  0  0  0
   37.4320   29.6300   42.1690 C   0  0  0  0  0  0  0  0  0  0  0  0
   38.0130   28.9420   43.3940 C   0  0  0  0  0  0  0  0  0  0  0  0
   39.0870   28.0310   42.8960 C   0  0  0  0  0  0  0  0  0  0  0  0
   38.7120   27.8580   41.4240 C   0  0  1  0  0  0  0  0  0  0  0  0
   38.6560   33.1500   38.9900 H   0  0  0  0  0  0  0  0  0  0  0  0
   40.2570   29.6950   37.0940 H   0  0  0  0  0  0  0  0  0  0  0  0
   36.3880   29.6410   42.1100 H   0  0  0  0  0  0  0  0  0  0  0  0
   37.7060   30.7200   42.3610 H   0  0  0  0  0  0  0  0  0  0  0  0
   38.2760   29.6030   44.2140 H   0  0  0  0  0  0  0  0  0  0  0  0
   37.1780   28.2850   43.7700 H   0  0  0  0  0  0  0  0  0  0  0  0
   39.1390   27.0560   43.3870 H   0  0  0  0  0  0  0  0  0  0  0  0
   40.0830   28.5580   42.8960 H   0  0  0  0  0  0  0  0  0  0  0  0
   39.5860   27.5390   40.8460 H   0  0  0  0  0  0  0  0  0  0  0  0
   39.9030   32.3660   36.8190 N   0  0  0  0  0  0  0  0  0  0  0  0
   39.4370   33.2840   36.6920 H   0  0  0  0  0  0  0  0  0  0  0  0
   40.6620   32.0390   36.1760 H   0  0  0  0  0  0  0  0  0  0  0  0
   37.3630   26.7100   41.3030 S   0  0  0  0  0  0  0  0  0  0  0  0
   35.2690   28.6250   39.5490 O   0  0  0  0  0  0  0  0  0  0  0  0
   35.8280   27.5810   39.1760 C   0  0  0  0  0  0  0  0  0  0  0  0
   36.6570   26.4760   39.7230 C   0  0  1  0  0  0  0  0  0  0  0  0
   37.6370   26.2560   38.6000 C   0  0  0  0  0  0  0  0  0  0  0  0
   36.6210   26.0930   37.4660 C   0  0  0  0  0  0  0  0  0  0  0  0
   35.7250   27.1940   37.7920 N   0  0  0  0  0  0  0  0  0  0  0  0
   35.9670   25.6040   39.5740 H   0  0  0  0  0  0  0  0  0  0  0  0
   38.2260   27.1590   38.4000 H   0  0  0  0  0  0  0  0  0  0  0  0
   38.2260   25.3400   38.7310 H   0  0  0  0  0  0  0  0  0  0  0  0
   36.1300   25.1100   37.5010 H   0  0  0  0  0  0  0  0  0  0  0  0
   37.1010   26.3210   36.5050 H   0  0  0  0  0  0  0  0  0  0  0  0
   34.8550   27.7730   36.7580 C   0  0  0  0  0  0  0  0  0  0  0  0
   35.1930   28.8010   35.9670 C   0  0  0  0  0  0  0  0  0  0  0  0
   36.1710   29.3050   36.0300 H   0  0  0  0  0  0  0  0  0  0  0  0
   34.2920   29.2540   35.0350 C   0  0  0  0  0  3  0  0  0  0  0  0
   33.0640   28.6510   34.9260 C   0  0  0  0  0  3  0  0  0  0  0  0
   33.1700   27.3030   36.2690 S   0  0  0  0  0  0  0  0  0  0  0  0
  1 12  1  0  0  0  0
  1  6  1  0  0  0  0
  2  3  1  0  0  0  0
  2  1  2  0  0  0  0
  3  4  2  0  0  0  0
  4  5  1  0  0  0  0
  5  6  2  0  0  0  0
  5  7  1  0  0  0  0
  7 11  1  0  0  0  0
  7  8  1  0  0  0  0
  8 15  1  0  0  0  0
  8  9  1  0  0  0  0
  9 17  1  0  0  0  0
  9 16  1  0  0  0  0
 10 18  1  0  0  0  0
 10  9  1  0  0  0  0
 11 20  1  6  0  0  0
 11 10  1  0  0  0  0
 13  3  1  0  0  0  0
 14  8  1  0  0  0  0
 19 10  1  0  0  0  0
 21  2  1  0  0  0  0
 22 21  1  0  0  0  0
 23 21  1  0  0  0  0
 24 11  1  0  0  0  0
 26 25  2  0  0  0  0
 26 27  1  0  0  0  0
 27 31  1  1  0  0  0
 27 24  1  0  0  0  0
 28 33  1  0  0  0  0
 28 27  1  0  0  0  0
 29 34  1  0  0  0  0
 29 30  1  0  0  0  0
 29 28  1  0  0  0  0
 30 26  1  0  0  0  0
 32 28  1  0  0  0  0
 35 29  1  0  0  0  0
 36 30  1  0  0  0  0
 37 38  1  0  0  0  0
 37 36  2  0  0  0  0
 39 37  1  0  0  0  0
 40 39  2  0  0  0  0
 40 41  1  0  0  0  0
 41 36  1  0  0  0  0
M  END
>  <minimizedAffinity>
-5.22072554

$$$$

 OpenBabel03252506393D

 41 44  0  0  1  0  0  0  0  0999 V2000
   41.1440   29.3140   37.4400 C   0  0  0  0  0  0  0  0  0  0  0  0
   41.7830   28.5720   38.4480 C   0  0  0  0  0  0  0  0  0  0  0  0
   41.2820   28.6030   39.7030 C   0  0  0  0  0  0  0  0  0  0  0  0
   40.1760   29.3610   39.9150 N   0  0  0  0  0  0  0  0  0  0  0  0
   39.5800   30.0580   38.9570 C   0  0  0  0  0  0  0  0  0  0  0  0
   40.0520   30.0450   37.7110 N   0  0  0  0  0  0  0  0  0  0  0  0
   38.4150   30.8310   39.2900 N   0  0  0  0  0  0  0  0  0  0  0  0
   37.5480   31.4300   38.3340 C   0  0  0  0  0  0  0  0  0  0  0  0
   37.1580   32.7400   39.0020 C   0  0  0  0  0  0  0  0  0  0  0  0
   37.7130   32.6880   40.3880 C   0  0  0  0  0  0  0  0  0  0  0  0
   37.9200   31.1880   40.6010 C   0  0  1  0  0  0  0  0  0  0  0  0
   41.5290   29.3010   36.4350 H   0  0  0  0  0  0  0  0  0  0  0  0
   41.7470   28.0480   40.4940 H   0  0  0  0  0  0  0  0  0  0  0  0
   36.7780   30.9350   37.8290 H   0  0  0  0  0  0  0  0  0  0  0  0
   38.2350   31.7890   37.4990 H   0  0  0  0  0  0  0  0  0  0  0  0
   37.3710   33.6340   38.4250 H   0  0  0  0  0  0  0  0  0  0  0  0
   36.0360   32.6830   39.0990 H   0  0  0  0  0  0  0  0  0  0  0  0
   37.0630   33.0910   41.1690 H   0  0  0  0  0  0  0  0  0  0  0  0
   38.7440   33.1430   40.4180 H   0  0  0  0  0  0  0  0  0  0  0  0
   38.6550   31.0160   41.3950 H   0  0  0  0  0  0  0  0  0  0  0  0
   42.9430   27.8200   38.0750 N   0  0  0  0  0  0  0  0  0  0  0  0
   43.1030   27.5650   37.0820 H   0  0  0  0  0  0  0  0  0  0  0  0
   43.6110   27.5400   38.8310 H   0  0  0  0  0  0  0  0  0  0  0  0
   36.3530   30.4330   40.9530 S   0  0  0  0  0  0  0  0  0  0  0  0
   37.0690   27.6170   39.3150 O   0  0  0  0  0  0  0  0  0  0  0  0
   36.8380   27.7450   40.5280 C   0  0  0  0  0  0  0  0  0  0  0  0
   36.3720   28.7720   41.4950 C   0  0  1  0  0  0  0  0  0  0  0  0
   37.2570   28.4870   42.6800 C   0  0  0  0  0  0  0  0  0  0  0  0
   36.9620   26.9890   42.8040 C   0  0  0  0  0  0  0  0  0  0  0  0
   37.0450   26.6160   41.3980 N   0  0  0  0  0  0  0  0  0  0  0  0
   35.4070   28.3150   41.8370 H   0  0  0  0  0  0  0  0  0  0  0  0
   38.3170   28.6040   42.4260 H   0  0  0  0  0  0  0  0  0  0  0  0
   36.9350   29.0230   43.5810 H   0  0  0  0  0  0  0  0  0  0  0  0
   35.9710   26.8070   43.2430 H   0  0  0  0  0  0  0  0  0  0  0  0
   37.7860   26.4940   43.3340 H   0  0  0  0  0  0  0  0  0  0  0  0
   37.3130   25.2220   41.0160 C   0  0  0  0  0  0  0  0  0  0  0  0
   36.4550   24.4360   40.3510 C   0  0  0  0  0  0  0  0  0  0  0  0
   35.4580   24.7800   40.0300 H   0  0  0  0  0  0  0  0  0  0  0  0
   36.8210   23.1480   40.0510 C   0  0  0  0  0  3  0  0  0  0  0  0
   38.0550   22.6840   40.4320 C   0  0  0  0  0  3  0  0  0  0  0  0
   38.7910   24.2070   41.3100 S   0  0  0  0  0  0  0  0  0  0  0  0
  1  6  2  0  0  0  0
  1  2  1  0  0  0  0
  2  3  2  0  0  0  0
  3  4  1  0  0  0  0
  3 13  1  0  0  0  0
  5  7  1  0  0  0  0
  5  4  2  0  0  0  0
  6  5  1  0  0  0  0
  7 11  1  0  0  0  0
  8  9  1  0  0  0  0
  8  7  1  0  0  0  0
  9 17  1  0  0  0  0
  9 10  1  0  0  0  0
 10 19  1  0  0  0  0
 10 11  1  0  0  0  0
 10 18  1  0  0  0  0
 11 24  1  0  0  0  0
 11 20  1  1  0  0  0
 12  1  1  0  0  0  0
 14  8  1  0  0  0  0
 15  8  1  0  0  0  0
 16  9  1  0  0  0  0
 21  2  1  0  0  0  0
 21 23  1  0  0  0  0
 22 21  1  0  0  0  0
 24 27  1  0  0  0  0
 25 26  2  0  0  0  0
 26 30  1  0  0  0  0
 26 27  1  0  0  0  0
 27 31  1  1  0  0  0
 27 28  1  0  0  0  0
 28 29  1  0  0  0  0
 28 33  1  0  0  0  0
 29 34  1  0  0  0  0
 29 35  1  0  0  0  0
 30 29  1  0  0  0  0
 32 28  1  0  0  0  0
 36 41  1  0  0  0  0
 36 30  1  0  0  0  0
 37 36  2  0  0  0  0
 38 37  1  0  0  0  0
 39 37  1  0  0  0  0
 39 40  2  0  0  0  0
 40 41  1  0  0  0  0
M  END
>  <minimizedAffinity>
-5.21617556

$$$$
