
 OpenBabel03252509263D

 27 29  0  0  1  0  0  0  0  0999 V2000
   46.6010   35.0840   41.8880 C   0  0  1  0  0  0  0  0  0  0  0  0
   48.1390   35.3310   41.8850 C   0  0  0  0  0  0  0  0  0  0  0  0
   47.3920   34.1140   41.2490 C   0  0  2  0  0  0  0  0  0  0  0  0
   46.0430   35.8720   41.3430 H   0  0  0  0  0  0  0  0  0  0  0  0
   48.7060   35.1690   42.7930 H   0  0  0  0  0  0  0  0  0  0  0  0
   48.5040   36.0580   41.1430 H   0  0  0  0  0  0  0  0  0  0  0  0
   47.5970   33.1640   41.8340 H   0  0  0  0  0  0  0  0  0  0  0  0
   44.7120   35.2990   45.1240 C   0  0  0  0  0  0  0  0  0  0  0  0
   45.1530   35.6450   43.8090 C   0  0  0  0  0  0  0  0  0  0  0  0
   46.1090   34.8410   43.2870 C   0  0  0  0  0  0  0  0  0  0  0  0
   46.6200   33.7640   43.9880 N   0  0  0  0  0  0  0  0  0  0  0  0
   46.1720   33.4730   45.2350 C   0  0  0  0  0  0  0  0  0  0  0  0
   45.2170   34.2440   45.8020 N   0  0  0  0  0  0  0  0  0  0  0  0
   43.9430   35.9500   45.5370 H   0  0  0  0  0  0  0  0  0  0  0  0
   46.5640   32.6340   45.7930 H   0  0  0  0  0  0  0  0  0  0  0  0
   44.6390   36.7600   43.1070 N   0  0  0  0  0  0  0  0  0  0  0  0
   44.7370   37.7960   43.2840 H   0  0  0  0  0  0  0  0  0  0  0  0
   44.1150   36.3070   42.3330 H   0  0  0  0  0  0  0  0  0  0  0  0
   47.4140   33.9760   39.7430 C   0  0  0  0  0  0  0  0  0  0  0  0
   46.4470   33.4660   39.4760 H   0  0  0  0  0  0  0  0  0  0  0  0
   47.5140   34.9630   39.2470 H   0  0  0  0  0  0  0  0  0  0  0  0
   48.4900   33.0450   39.3600 C   0  0  0  0  0  0  0  0  0  0  0  0
   49.3280   32.1910   40.0190 C   0  0  0  0  0  0  0  0  0  0  0  0
   49.2350   32.1310   41.0930 H   0  0  0  0  0  0  0  0  0  0  0  0
   50.2290   31.4710   39.2750 C   0  0  0  0  0  3  0  0  0  0  0  0
   50.2420   31.6420   37.9160 C   0  0  0  0  0  3  0  0  0  0  0  0
   48.8840   32.9150   37.6720 S   0  0  0  0  0  0  0  0  0  0  0  0
  1  4  1  6  0  0  0
  1 10  1  0  0  0  0
  2  1  1  0  0  0  0
  2  5  1  0  0  0  0
  3  7  1  1  0  0  0
  3  2  1  0  0  0  0
  3  1  1  0  0  0  0
  6  2  1  0  0  0  0
  8 14  1  0  0  0  0
  8 13  1  0  0  0  0
  9  8  2  0  0  0  0
 10  9  1  0  0  0  0
 10 11  2  0  0  0  0
 11 12  1  0  0  0  0
 12 15  1  0  0  0  0
 12 13  2  0  0  0  0
 16 17  1  0  0  0  0
 16  9  1  0  0  0  0
 18 16  1  0  0  0  0
 19  3  1  0  0  0  0
 20 19  1  0  0  0  0
 21 19  1  0  0  0  0
 22 19  1  0  0  0  0
 22 23  2  0  0  0  0
 23 24  1  0  0  0  0
 25 23  1  0  0  0  0
 26 25  2  0  0  0  0
 27 26  1  0  0  0  0
 27 22  1  0  0  0  0
M  END
>  <minimizedAffinity>
-4.72257614

>  <minimizedRMSD>
0.509532213

$$$$
