
 OpenBabel03252509163D

 22 24  0  0  0  0  0  0  0  0999 V2000
   46.0650   32.9210   45.9510 C   0  0  0  0  0  0  0  0  0  0  0  0
   45.7020   32.6680   47.2970 C   0  0  0  0  0  0  0  0  0  0  0  0
   46.1710   31.5610   47.9100 C   0  0  0  0  0  0  0  0  0  0  0  0
   47.0130   30.6860   47.1850 C   0  0  0  0  0  0  0  0  0  0  0  0
   47.1230   31.5040   45.5600 S   0  0  0  0  0  0  0  0  0  0  0  0
   45.0510   33.3690   47.8180 H   0  0  0  0  0  0  0  0  0  0  0  0
   45.9590   31.2780   48.9150 H   0  0  0  0  0  0  0  0  0  0  0  0
   44.4570   36.0390   44.7430 C   0  0  0  0  0  0  0  0  0  0  0  0
   45.0250   36.1150   43.4450 C   0  0  0  0  0  0  0  0  0  0  0  0
   45.9220   35.1010   43.0550 C   0  0  0  0  0  0  0  0  0  0  0  0
   46.1930   34.1030   43.9540 N   0  0  0  0  0  0  0  0  0  0  0  0
   45.6210   34.0830   45.1810 C   0  0  0  0  0  0  0  0  0  0  0  0
   44.7530   35.0490   45.5780 N   0  0  0  0  0  0  0  0  0  0  0  0
   43.7700   36.8170   45.0380 H   0  0  0  0  0  0  0  0  0  0  0  0
   44.8000   36.9120   42.7440 H   0  0  0  0  0  0  0  0  0  0  0  0
   46.4000   35.0810   42.0850 H   0  0  0  0  0  0  0  0  0  0  0  0
   47.6360   29.5200   47.4960 C   0  0  0  0  0  0  0  0  0  0  0  0
   47.3360   28.2270   47.2630 C   0  0  0  0  0  0  0  0  0  0  0  0
   46.4270   28.0000   46.7240 H   0  0  0  0  0  0  0  0  0  0  0  0
   48.1270   27.1990   47.6770 C   0  0  0  0  0  3  0  0  0  0  0  0
   49.3680   27.5920   48.4170 C   0  0  0  0  0  3  0  0  0  0  0  0
   49.2440   29.4630   48.4300 S   0  0  0  0  0  0  0  0  0  0  0  0
  1  2  2  0  0  0  0
  2  6  1  0  0  0  0
  2  3  1  0  0  0  0
  3  7  1  0  0  0  0
  4 17  1  0  0  0  0
  4  3  2  0  0  0  0
  5  1  1  0  0  0  0
  5  4  1  0  0  0  0
  8 14  1  0  0  0  0
  8 13  1  0  0  0  0
  9  8  2  0  0  0  0
 10  9  1  0  0  0  0
 10 11  2  0  0  0  0
 11 12  1  0  0  0  0
 12 13  2  0  0  0  0
 12  1  1  0  0  0  0
 15  9  1  0  0  0  0
 16 10  1  0  0  0  0
 17 22  1  0  0  0  0
 18 17  2  0  0  0  0
 18 20  1  0  0  0  0
 19 18  1  0  0  0  0
 20 21  2  0  0  0  0
 21 22  1  0  0  0  0
M  END
>  <minimizedAffinity>
-4.41251278

>  <minimizedRMSD>
1.4490304

$$$$
