
 OpenBabel03252506423D

 37 40  0  0  1  0  0  0  0  0999 V2000
   49.2940   33.2060   41.4520 N   0  0  1  0  0  0  0  0  0  0  0  0
   50.6470   33.1350   42.0140 C   0  0  0  0  0  0  0  0  0  0  0  0
   51.3170   31.8310   41.7080 C   0  0  0  0  0  0  0  0  0  0  0  0
   50.6250   30.7660   42.5360 C   0  0  0  0  0  0  0  0  0  0  0  0
   49.1530   31.0030   42.5770 C   0  0  0  0  0  0  0  0  0  0  0  0
   48.7230   31.8840   41.4110 C   0  0  2  0  0  0  0  0  0  0  0  0
   50.5770   33.2050   43.1350 H   0  0  0  0  0  0  0  0  0  0  0  0
   51.2340   34.0230   41.6970 H   0  0  0  0  0  0  0  0  0  0  0  0
   51.3870   31.6090   40.6440 H   0  0  0  0  0  0  0  0  0  0  0  0
   52.3590   31.9210   42.0780 H   0  0  0  0  0  0  0  0  0  0  0  0
   50.9990   30.8580   43.5930 H   0  0  0  0  0  0  0  0  0  0  0  0
   50.9320   29.7740   42.1900 H   0  0  0  0  0  0  0  0  0  0  0  0
   48.8500   31.5620   43.4840 H   0  0  0  0  0  0  0  0  0  0  0  0
   48.5660   30.0600   42.4570 H   0  0  0  0  0  0  0  0  0  0  0  0
   47.6320   32.0290   41.5790 H   0  0  0  0  0  0  0  0  0  0  0  0
   47.1710   34.5580   42.0040 C   0  0  1  0  0  0  0  0  0  0  0  0
   48.2990   35.4580   41.7170 C   0  0  0  0  0  0  0  0  0  0  0  0
   48.5720   34.1140   42.2800 C   0  0  2  0  0  0  0  0  0  0  0  0
   46.6910   34.0930   41.1210 H   0  0  0  0  0  0  0  0  0  0  0  0
   48.4200   36.3540   42.3730 H   0  0  0  0  0  0  0  0  0  0  0  0
   48.5710   35.6920   40.6510 H   0  0  0  0  0  0  0  0  0  0  0  0
   48.8590   34.1200   43.3730 H   0  0  0  0  0  0  0  0  0  0  0  0
   45.4980   36.0290   43.1720 C   0  0  0  0  0  0  0  0  0  0  0  0
   46.2710   34.8520   43.1520 C   0  0  0  0  0  0  0  0  0  0  0  0
   46.1550   33.9670   44.2360 C   0  0  0  0  0  0  0  0  0  0  0  0
   45.3070   34.2950   45.2460 N   0  0  0  0  0  0  0  0  0  0  0  0
   44.5760   35.4410   45.2320 C   0  0  0  0  0  0  0  0  0  0  0  0
   44.6680   36.3200   44.1910 N   0  0  0  0  0  0  0  0  0  0  0  0
   45.6320   36.6660   42.3090 H   0  0  0  0  0  0  0  0  0  0  0  0
   46.7370   33.0510   44.2510 H   0  0  0  0  0  0  0  0  0  0  0  0
   43.9020   35.7030   46.0330 H   0  0  0  0  0  0  0  0  0  0  0  0
   48.8910   31.1960   40.1250 C   0  0  0  0  0  0  0  0  0  0  0  0
   48.8380   29.9220   39.7790 C   0  0  0  0  0  0  0  0  0  0  0  0
   48.6350   29.1840   40.5400 H   0  0  0  0  0  0  0  0  0  0  0  0
   49.0400   29.5650   38.4740 C   0  0  0  0  0  3  0  0  0  0  0  0
   49.2930   30.5660   37.5580 C   0  0  0  0  0  3  0  0  0  0  0  0
   49.2570   32.1710   38.5720 S   0  0  0  0  0  0  0  0  0  0  0  0
  1  2  1  1  0  0  0
  1 18  1  0  0  0  0
  2  7  1  0  0  0  0
  3  2  1  0  0  0  0
  3 10  1  0  0  0  0
  3  4  1  0  0  0  0
  4  5  1  0  0  0  0
  4 11  1  0  0  0  0
  5 13  1  0  0  0  0
  6  1  1  0  0  0  0
  6 15  1  1  0  0  0
  6  5  1  0  0  0  0
  8  2  1  0  0  0  0
  9  3  1  0  0  0  0
 12  4  1  0  0  0  0
 14  5  1  0  0  0  0
 16 19  1  6  0  0  0
 16 18  1  0  0  0  0
 16 24  1  0  0  0  0
 17 16  1  0  0  0  0
 17 18  1  0  0  0  0
 17 20  1  0  0  0  0
 18 22  1  1  0  0  0
 21 17  1  0  0  0  0
 23 28  1  0  0  0  0
 24 23  2  0  0  0  0
 24 25  1  0  0  0  0
 25 30  1  0  0  0  0
 25 26  2  0  0  0  0
 27 26  1  0  0  0  0
 27 31  1  0  0  0  0
 28 27  2  0  0  0  0
 29 23  1  0  0  0  0
 32  6  1  0  0  0  0
 33 32  2  0  0  0  0
 33 34  1  0  0  0  0
 35 33  1  0  0  0  0
 36 35  2  0  0  0  0
 36 37  1  0  0  0  0
 37 32  1  0  0  0  0
M  END
>  <minimizedAffinity>
-4.68337488

>  <minimizedRMSD>
0.318426728

$$$$
