
 OpenBabel03252504513D

 31 33  0  0  0  0  0  0  0  0999 V2000
   45.8940   33.6550   42.0190 C   0  0  0  0  0  0  0  0  0  0  0  0
   47.2160   34.0110   41.7110 C   0  0  0  0  0  0  0  0  0  0  0  0
   48.1630   33.8390   42.7150 C   0  0  0  0  0  0  0  0  0  0  0  0
   47.7490   33.3420   43.9150 N   0  0  0  0  0  0  0  0  0  0  0  0
   46.4860   33.0140   44.1730 C   0  0  0  0  0  0  0  0  0  0  0  0
   45.5410   33.1700   43.2170 N   0  0  0  0  0  0  0  0  0  0  0  0
   45.1290   33.7810   41.2450 H   0  0  0  0  0  0  0  0  0  0  0  0
   49.1810   34.1020   42.5110 H   0  0  0  0  0  0  0  0  0  0  0  0
   46.6890   29.9810   44.4500 Cl  0  0  0  0  0  0  0  0  0  0  0  0
   46.1670   31.1180   45.6960 C   0  0  0  0  0  0  0  0  0  0  0  0
   46.1070   32.4850   45.4780 C   0  0  0  0  0  0  0  0  0  0  0  0
   45.6970   33.3460   46.4680 C   0  0  0  0  0  0  0  0  0  0  0  0
   45.3390   32.8240   47.7080 C   0  0  0  0  0  0  0  0  0  0  0  0
   45.4120   31.4560   47.8870 C   0  0  0  0  0  0  0  0  0  0  0  0
   44.9490   30.8620   49.4650 Cl  0  0  0  0  0  0  0  0  0  0  0  0
   45.8160   30.5780   46.9180 C   0  0  0  0  0  0  0  0  0  0  0  0
   45.6690   34.4090   46.2380 H   0  0  0  0  0  0  0  0  0  0  0  0
   45.0150   33.5150   48.4850 H   0  0  0  0  0  0  0  0  0  0  0  0
   45.8580   29.5010   47.1100 H   0  0  0  0  0  0  0  0  0  0  0  0
   47.5020   34.5310   40.3820 C   0  0  0  0  0  0  0  0  0  0  0  0
   48.0200   35.5020   40.5090 H   0  0  0  0  0  0  0  0  0  0  0  0
   46.5690   34.7300   39.8510 H   0  0  0  0  0  0  0  0  0  0  0  0
   48.3860   33.5440   39.6680 C   0  0  0  0  0  0  0  0  0  0  0  0
   49.0430   34.1450   38.9730 H   0  0  0  0  0  0  0  0  0  0  0  0
   49.1300   33.1380   40.4150 H   0  0  0  0  0  0  0  0  0  0  0  0
   47.7150   32.5280   38.9180 C   0  0  0  0  0  0  0  0  0  0  0  0
   47.9790   31.1380   38.6510 C   0  0  0  0  0  0  0  0  0  0  0  0
   48.8840   30.7990   39.1180 H   0  0  0  0  0  0  0  0  0  0  0  0
   47.1000   30.4540   37.8830 C   0  0  0  0  0  3  0  0  0  0  0  0
   45.9290   31.0850   37.3400 C   0  0  0  0  0  3  0  0  0  0  0  0
   46.1230   32.8380   38.0100 S   0  0  0  0  0  0  0  0  0  0  0  0
  1  6  1  0  0  0  0
  2  1  2  0  0  0  0
  2  3  1  0  0  0  0
  3  4  2  0  0  0  0
  4  5  1  0  0  0  0
  5 11  1  0  0  0  0
  6  5  2  0  0  0  0
  7  1  1  0  0  0  0
  8  3  1  0  0  0  0
  9 10  1  0  0  0  0
 10 16  1  0  0  0  0
 11 10  2  0  0  0  0
 11 12  1  0  0  0  0
 12 13  2  0  0  0  0
 13 14  1  0  0  0  0
 13 18  1  0  0  0  0
 14 15  1  0  0  0  0
 16 19  1  0  0  0  0
 16 14  2  0  0  0  0
 17 12  1  0  0  0  0
 20 21  1  0  0  0  0
 20  2  1  0  0  0  0
 22 20  1  0  0  0  0
 23 20  1  0  0  0  0
 23 25  1  0  0  0  0
 24 23  1  0  0  0  0
 26 23  1  0  0  0  0
 27 26  2  0  0  0  0
 27 28  1  0  0  0  0
 29 27  1  0  0  0  0
 30 29  2  0  0  0  0
 30 31  1  0  0  0  0
 31 26  1  0  0  0  0
M  END
>  <minimizedAffinity>
-4.16233349

>  <minimizedRMSD>
1.91165853

$$$$
