
 OpenBabel03252507263D

 24 26  0  0  0  0  0  0  0  0999 V2000
   45.5590   33.9750   45.5400 C   0  0  0  0  0  0  0  0  0  0  0  0
   44.6690   35.0180   45.7960 C   0  0  0  0  0  0  0  0  0  0  0  0
   44.4850   35.9610   44.7790 C   0  0  0  0  0  0  0  0  0  0  0  0
   45.1780   35.8060   43.6080 N   0  0  0  0  0  0  0  0  0  0  0  0
   46.0200   34.7860   43.4140 C   0  0  0  0  0  0  0  0  0  0  0  0
   46.2170   33.8630   44.3750 N   0  0  0  0  0  0  0  0  0  0  0  0
   44.1360   35.1320   46.7040 H   0  0  0  0  0  0  0  0  0  0  0  0
   43.8150   36.7910   44.9070 H   0  0  0  0  0  0  0  0  0  0  0  0
   46.7380   34.6650   42.1450 C   0  0  0  0  0  0  0  0  0  0  0  0
   47.9490   35.3280   41.9760 C   0  0  0  0  0  0  0  0  0  0  0  0
   48.6990   35.2740   40.8180 C   0  0  0  0  0  0  0  0  0  0  0  0
   48.1370   34.4880   39.8060 C   0  0  0  0  0  0  0  0  0  0  0  0
   46.9310   33.8240   39.9650 C   0  0  0  0  0  0  0  0  0  0  0  0
   46.2530   33.9290   41.1390 N   0  0  0  0  0  0  0  0  0  0  0  0
   48.2990   35.9110   42.8210 H   0  0  0  0  0  0  0  0  0  0  0  0
   49.6170   35.8020   40.7490 H   0  0  0  0  0  0  0  0  0  0  0  0
   48.6940   34.4150   38.8700 H   0  0  0  0  0  0  0  0  0  0  0  0
   46.5090   33.2200   39.1710 H   0  0  0  0  0  0  0  0  0  0  0  0
   45.7840   32.9530   46.5870 C   0  0  0  0  0  0  0  0  0  0  0  0
   45.2740   32.7630   47.7950 C   0  0  0  0  0  0  0  0  0  0  0  0
   44.5220   33.5020   48.1140 H   0  0  0  0  0  0  0  0  0  0  0  0
   45.6780   31.7210   48.5450 C   0  0  0  0  0  0  0  0  0  0  0  0
   46.6130   30.8890   48.0210 C   0  0  0  0  0  0  0  0  0  0  0  0
   46.9510   31.6510   46.3130 S   0  0  0  0  0  0  0  0  0  0  0  0
  1  2  1  0  0  0  0
  1 19  1  0  0  0  0
  2  7  1  0  0  0  0
  3  8  1  0  0  0  0
  3  2  2  0  0  0  0
  4  3  1  0  0  0  0
  5  4  2  0  0  0  0
  5  6  1  0  0  0  0
  6  1  2  0  0  0  0
  9  5  1  0  0  0  0
 10  9  1  0  0  0  0
 10 15  1  0  0  0  0
 11 10  2  0  0  0  0
 12 13  2  0  0  0  0
 12 11  1  0  0  0  0
 13 14  1  0  0  0  0
 14  9  2  0  0  0  0
 16 11  1  0  0  0  0
 17 12  1  0  0  0  0
 18 13  1  0  0  0  0
 19 20  2  0  0  0  0
 20 21  1  0  0  0  0
 20 22  1  0  0  0  0
 23 22  2  0  0  0  0
 24 19  1  0  0  0  0
 24 23  1  0  0  0  0
M  END
>  <minimizedAffinity>
-5.88110781

>  <minimizedRMSD>
0.408671528

$$$$
