
 OpenBabel03242516383D

 17 18  0  0  0  0  0  0  0  0999 V2000
   45.1870   35.5200   43.4970 C   0  0  0  0  0  0  0  0  0  0  0  0
   46.3970   35.1090   42.8780 C   0  0  0  0  0  0  0  0  0  0  0  0
   47.1510   34.1060   43.5130 C   0  0  0  0  0  0  0  0  0  0  0  0
   46.6760   33.5950   44.6710 N   0  0  0  0  0  0  0  0  0  0  0  0
   45.5330   34.0010   45.2310 C   0  0  0  0  0  0  0  0  0  0  0  0
   44.7920   34.9600   44.6460 N   0  0  0  0  0  0  0  0  0  0  0  0
   44.4290   36.5310   42.8570 N   0  0  0  0  0  0  0  0  0  0  0  0
   46.7680   35.5150   41.9650 H   0  0  0  0  0  0  0  0  0  0  0  0
   45.1700   33.5760   46.1620 H   0  0  0  0  0  0  0  0  0  0  0  0
   44.9010   37.2590   42.2660 H   0  0  0  0  0  0  0  0  0  0  0  0
   43.4020   36.6380   42.9100 H   0  0  0  0  0  0  0  0  0  0  0  0
   48.3980   33.5920   42.9990 C   0  0  0  0  0  0  0  0  0  0  0  0
   49.5530   34.3410   42.7660 C   0  0  0  0  0  0  0  0  0  0  0  0
   49.5850   35.4020   42.9680 H   0  0  0  0  0  0  0  0  0  0  0  0
   50.6400   33.6630   42.2740 C   0  0  0  0  0  0  0  0  0  0  0  0
   50.5070   32.2810   42.0420 C   0  0  0  0  0  0  0  0  0  0  0  0
   48.7360   31.9590   42.5630 S   0  0  0  0  0  0  0  0  0  0  0  0
  1  6  1  0  0  0  0
  2  1  2  0  0  0  0
  2  3  1  0  0  0  0
  3  4  2  0  0  0  0
  4  5  1  0  0  0  0
  5  9  1  0  0  0  0
  6  5  2  0  0  0  0
  7 11  1  0  0  0  0
  7  1  1  0  0  0  0
  8  2  1  0  0  0  0
 10  7  1  0  0  0  0
 12  3  1  0  0  0  0
 13 14  1  0  0  0  0
 13 12  2  0  0  0  0
 15 13  1  0  0  0  0
 16 15  2  0  0  0  0
 16 17  1  0  0  0  0
 17 12  1  0  0  0  0
M  END
>  <minimizedAffinity>
-4.28146601

>  <minimizedRMSD>
1.09123492

$$$$
