
 OpenBabel03252500103D

 28 30  0  0  0  0  0  0  0  0999 V2000
   45.4140   32.4490   40.5300 Cl  0  0  0  0  0  0  0  0  0  0  0  0
   46.7420   33.5030   40.1760 C   0  0  0  0  0  0  0  0  0  0  0  0
   47.3610   34.2040   41.1790 C   0  0  0  0  0  0  0  0  0  0  0  0
   48.4290   35.0540   40.9090 C   0  0  0  0  0  0  0  0  0  0  0  0
   48.8250   35.1540   39.6070 C   0  0  0  0  0  0  0  0  0  0  0  0
   48.2130   34.4600   38.6110 C   0  0  0  0  0  0  0  0  0  0  0  0
   47.1750   33.6340   38.8790 C   0  0  0  0  0  0  0  0  0  0  0  0
   48.8550   35.5630   41.7430 H   0  0  0  0  0  0  0  0  0  0  0  0
   49.6570   35.8270   39.4540 H   0  0  0  0  0  0  0  0  0  0  0  0
   48.6560   34.6580   37.6390 H   0  0  0  0  0  0  0  0  0  0  0  0
   46.8980   32.9090   44.5920 C   0  0  0  0  0  0  0  0  0  0  0  0
   45.9640   33.8110   45.1340 C   0  0  0  0  0  0  0  0  0  0  0  0
   45.5070   34.8530   44.3180 C   0  0  0  0  0  0  0  0  0  0  0  0
   45.9780   34.9510   43.0490 N   0  0  0  0  0  0  0  0  0  0  0  0
   46.8900   34.0540   42.5510 C   0  0  0  0  0  0  0  0  0  0  0  0
   47.3270   33.0570   43.3330 N   0  0  0  0  0  0  0  0  0  0  0  0
   47.1910   32.1500   45.2800 H   0  0  0  0  0  0  0  0  0  0  0  0
   45.5180   33.8460   46.1010 H   0  0  0  0  0  0  0  0  0  0  0  0
   44.5090   35.8800   44.7820 C   0  0  0  0  0  0  0  0  0  0  0  0
   44.9830   37.1460   44.5560 F   0  0  0  0  0  0  0  0  0  0  0  0
   43.3280   35.6920   44.0910 F   0  0  0  0  0  0  0  0  0  0  0  0
   44.3070   35.6570   46.1220 F   0  0  0  0  0  0  0  0  0  0  0  0
   46.5510   32.9090   37.7590 C   0  0  0  0  0  0  0  0  0  0  0  0
   45.5370   33.1300   36.8280 C   0  0  0  0  0  0  0  0  0  0  0  0
   44.9840   34.0390   36.8230 H   0  0  0  0  0  0  0  0  0  0  0  0
   45.3020   32.1290   35.9440 C   0  0  0  0  0  0  0  0  0  0  0  0
   45.9990   30.9980   35.9590 C   0  0  0  0  0  0  0  0  0  0  0  0
   47.1910   31.2000   37.3450 S   0  0  0  0  0  0  0  0  0  0  0  0
  2  1  1  0  0  0  0
  2  3  1  0  0  0  0
  3 15  1  0  0  0  0
  4  3  2  0  0  0  0
  4  8  1  0  0  0  0
  5  4  1  0  0  0  0
  6  7  1  0  0  0  0
  6  5  2  0  0  0  0
  7  2  2  0  0  0  0
  9  5  1  0  0  0  0
 10  6  1  0  0  0  0
 11 12  1  0  0  0  0
 11 17  1  0  0  0  0
 12 18  1  0  0  0  0
 13 19  1  0  0  0  0
 13 12  2  0  0  0  0
 14 13  1  0  0  0  0
 15 14  2  0  0  0  0
 15 16  1  0  0  0  0
 16 11  2  0  0  0  0
 19 22  1  0  0  0  0
 20 19  1  0  0  0  0
 21 19  1  0  0  0  0
 23  7  1  0  0  0  0
 24 23  2  0  0  0  0
 25 24  1  0  0  0  0
 26 27  2  0  0  0  0
 26 24  1  0  0  0  0
 27 28  1  0  0  0  0
 28 23  1  0  0  0  0
M  END
>  <minimizedAffinity>
-5.55644369

>  <minimizedRMSD>
1.43726456

$$$$
