
 OpenBabel03252509233D

 24 26  0  0  1  0  0  0  0  0999 V2000
   46.6280   35.0880   41.9340 C   0  0  1  0  0  0  0  0  0  0  0  0
   48.1580   35.3460   41.9480 C   0  0  0  0  0  0  0  0  0  0  0  0
   47.4510   34.1040   41.3280 C   0  0  2  0  0  0  0  0  0  0  0  0
   46.0600   35.8710   41.4000 H   0  0  0  0  0  0  0  0  0  0  0  0
   48.4810   36.1090   41.2210 H   0  0  0  0  0  0  0  0  0  0  0  0
   48.7160   35.2290   42.8710 H   0  0  0  0  0  0  0  0  0  0  0  0
   47.6880   33.1830   41.9120 H   0  0  0  0  0  0  0  0  0  0  0  0
   44.6880   35.3140   45.1350 C   0  0  0  0  0  0  0  0  0  0  0  0
   45.1480   35.6680   43.8240 C   0  0  0  0  0  0  0  0  0  0  0  0
   46.1270   34.8370   43.3430 C   0  0  0  0  0  0  0  0  0  0  0  0
   46.6090   33.7660   44.0770 N   0  0  0  0  0  0  0  0  0  0  0  0
   46.1360   33.4890   45.2980 C   0  0  0  0  0  0  0  0  0  0  0  0
   45.1630   34.2730   45.8330 N   0  0  0  0  0  0  0  0  0  0  0  0
   43.9250   35.9230   45.5640 H   0  0  0  0  0  0  0  0  0  0  0  0
   46.6470   32.6190   45.6860 H   0  0  0  0  0  0  0  0  0  0  0  0
   44.6500   36.7800   43.1020 N   0  0  0  0  0  0  0  0  0  0  0  0
   45.0960   37.6340   43.5320 H   0  0  0  0  0  0  0  0  0  0  0  0
   43.9760   36.7910   42.3020 H   0  0  0  0  0  0  0  0  0  0  0  0
   47.4670   33.9770   39.8750 C   0  0  0  0  0  0  0  0  0  0  0  0
   48.2760   34.4260   38.8920 C   0  0  0  0  0  0  0  0  0  0  0  0
   49.1190   35.0180   39.2110 H   0  0  0  0  0  0  0  0  0  0  0  0
   47.9960   34.1150   37.5830 C   0  0  0  0  0  3  0  0  0  0  0  0
   46.8490   33.3260   37.3540 C   0  0  0  0  0  3  0  0  0  0  0  0
   46.1800   33.0380   39.0320 S   0  0  0  0  0  0  0  0  0  0  0  0
  1  4  1  6  0  0  0
  1  2  1  0  0  0  0
  1 10  1  0  0  0  0
  2  6  1  0  0  0  0
  3  7  1  1  0  0  0
  3  1  1  0  0  0  0
  3  2  1  0  0  0  0
  5  2  1  0  0  0  0
  8 14  1  0  0  0  0
  8 13  1  0  0  0  0
  9  8  2  0  0  0  0
 10  9  1  0  0  0  0
 10 11  2  0  0  0  0
 11 12  1  0  0  0  0
 12 15  1  0  0  0  0
 12 13  2  0  0  0  0
 16 17  1  0  0  0  0
 16  9  1  0  0  0  0
 18 16  1  0  0  0  0
 19  3  1  0  0  0  0
 20 21  1  0  0  0  0
 20 19  2  0  0  0  0
 22 20  1  0  0  0  0
 23 22  2  0  0  0  0
 23 24  1  0  0  0  0
 24 19  1  0  0  0  0
M  END
>  <minimizedAffinity>
-5.10300684

>  <minimizedRMSD>
0.267810076

$$$$
