
 OpenBabel03242523533D

 42 45  0  0  1  0  0  0  0  0999 V2000
   42.8180   34.5030   38.7650 C   0  0  1  0  0  0  0  0  0  0  0  0
   42.9540   35.1790   40.1200 C   0  0  1  0  0  0  0  0  0  0  0  0
   41.6650   35.4080   40.6340 O   0  0  0  0  0  0  0  0  0  0  0  0
   40.7400   35.7350   39.6390 C   0  0  0  0  0  0  0  0  0  0  0  0
   40.4360   34.5510   38.7400 C   0  0  2  0  0  0  0  0  0  0  0  0
   41.6550   33.5730   38.8800 C   0  0  1  0  0  0  0  0  0  0  0  0
   43.7660   33.9740   38.4940 H   0  0  0  0  0  0  0  0  0  0  0  0
   43.5460   36.1060   40.0860 H   0  0  0  0  0  0  0  0  0  0  0  0
   39.8130   35.9990   40.1600 H   0  0  0  0  0  0  0  0  0  0  0  0
   41.0500   36.6280   39.0610 H   0  0  0  0  0  0  0  0  0  0  0  0
   39.5080   34.0360   39.0300 H   0  0  0  0  0  0  0  0  0  0  0  0
   41.4410   33.3010   39.9670 H   0  0  0  0  0  0  0  0  0  0  0  0
   42.6000   35.4480   37.7520 O   0  0  0  0  0  0  0  0  0  0  0  0
   43.4100   35.9360   37.5370 H   0  0  0  0  0  0  0  0  0  0  0  0
   40.4520   34.9590   37.4140 O   0  0  0  0  0  0  0  0  0  0  0  0
   39.5310   35.1640   37.0800 H   0  0  0  0  0  0  0  0  0  0  0  0
   43.4920   34.2010   40.9720 O   0  0  0  0  0  0  0  0  0  0  0  0
   44.6020   34.3460   41.7050 C   0  0  0  0  0  0  0  0  0  0  0  0
   45.8620   34.4430   41.0960 C   0  0  0  0  0  0  0  0  0  0  0  0
   46.9780   34.5940   41.9040 C   0  0  0  0  0  0  0  0  0  0  0  0
   46.8170   34.6450   43.2780 N   0  0  0  0  0  0  0  0  0  0  0  0
   45.5850   34.5480   43.8280 C   0  0  0  0  0  0  0  0  0  0  0  0
   44.4840   34.3990   43.0450 N   0  0  0  0  0  0  0  0  0  0  0  0
   45.9950   34.4050   40.0290 H   0  0  0  0  0  0  0  0  0  0  0  0
   45.5350   34.5950   44.9080 H   0  0  0  0  0  0  0  0  0  0  0  0
   48.3550   34.6890   41.3320 C   0  0  0  0  0  0  0  0  0  0  0  0
   49.0790   36.0240   41.5070 C   0  0  0  0  0  0  0  0  0  0  0  0
   49.5080   34.7040   42.1750 C   0  0  0  0  0  0  0  0  0  0  0  0
   48.4170   34.2960   40.2780 H   0  0  0  0  0  0  0  0  0  0  0  0
   48.6350   36.7580   42.1790 H   0  0  0  0  0  0  0  0  0  0  0  0
   49.7620   36.3450   40.6980 H   0  0  0  0  0  0  0  0  0  0  0  0
   50.4620   34.2400   41.8490 H   0  0  0  0  0  0  0  0  0  0  0  0
   49.3630   34.6430   43.2810 H   0  0  0  0  0  0  0  0  0  0  0  0
   41.5230   32.6240   37.9330 O   0  0  0  0  0  0  0  0  0  0  0  0
   40.8930   31.4520   37.9630 C   0  0  0  0  0  0  0  0  0  0  0  0
   39.7440   31.2330   37.3450 O   0  0  0  0  0  0  0  0  0  0  0  0
   41.2240   30.0560   38.6410 C   0  0  0  0  0  0  0  0  0  0  0  0
   42.2380   29.6240   39.3030 C   0  0  0  0  0  0  0  0  0  0  0  0
   43.0330   30.3480   39.4400 H   0  0  0  0  0  0  0  0  0  0  0  0
   42.2520   28.3480   39.7700 C   0  0  0  0  0  3  0  0  0  0  0  0
   41.1240   27.5740   39.4840 C   0  0  0  0  0  3  0  0  0  0  0  0
   40.0460   28.8250   38.4960 S   0  0  0  0  0  0  0  0  0  0  0  0
  1  7  1  6  0  0  0
  1  6  1  0  0  0  0
  1  2  1  0  0  0  0
  2  8  1  6  0  0  0
  2  3  1  0  0  0  0
  2 17  1  0  0  0  0
  4  9  1  0  0  0  0
  4  3  1  0  0  0  0
  5  6  1  0  0  0  0
  5 11  1  1  0  0  0
  5  4  1  0  0  0  0
  6 12  1  1  0  0  0
 10  4  1  0  0  0  0
 13  1  1  0  0  0  0
 14 13  1  0  0  0  0
 15  5  1  0  0  0  0
 16 15  1  0  0  0  0
 17 18  1  0  0  0  0
 18 23  1  0  0  0  0
 19 18  2  0  0  0  0
 19 20  1  0  0  0  0
 20 21  2  0  0  0  0
 21 22  1  0  0  0  0
 22 25  1  0  0  0  0
 23 22  2  0  0  0  0
 24 19  1  0  0  0  0
 26 27  1  0  0  0  0
 26 20  1  0  0  0  0
 26 28  1  0  0  0  0
 27 28  1  0  0  0  0
 27 30  1  0  0  0  0
 28 33  1  0  0  0  0
 29 26  1  0  0  0  0
 31 27  1  0  0  0  0
 32 28  1  0  0  0  0
 34 35  1  0  0  0  0
 34  6  1  0  0  0  0
 35 37  1  0  0  0  0
 36 35  2  0  0  0  0
 37 38  2  0  0  0  0
 38 39  1  0  0  0  0
 38 40  1  0  0  0  0
 41 40  2  0  0  0  0
 42 37  1  0  0  0  0
 42 41  1  0  0  0  0
M  END
>  <minimizedAffinity>
-5.60383034

>  <minimizedRMSD>
0.244033396

$$$$
