
 OpenBabel03242520053D

 43 47  0  0  1  0  0  0  0  0999 V2000
   48.7060   29.8800   46.2760 N   0  0  0  0  0  0  0  0  0  0  0  0
   48.5410   29.6680   44.8720 C   0  0  1  0  0  0  0  0  0  0  0  0
   47.6070   28.5140   44.6610 C   0  0  0  0  0  0  0  0  0  0  0  0
   46.3210   28.9880   45.1450 N   0  0  0  0  0  0  0  0  0  0  0  0
   46.3330   29.1670   46.5670 C   0  0  0  0  0  0  0  0  0  0  0  0
   47.5790   29.7990   47.1220 C   0  0  2  0  0  0  0  0  0  0  0  0
   49.4990   29.2190   46.5600 H   0  0  0  0  0  0  0  0  0  0  0  0
   49.5010   29.3970   44.4080 H   0  0  0  0  0  0  0  0  0  0  0  0
   47.9020   27.6450   45.3180 H   0  0  0  0  0  0  0  0  0  0  0  0
   47.5220   28.2300   43.6060 H   0  0  0  0  0  0  0  0  0  0  0  0
   46.1850   29.9360   44.6880 H   0  0  0  0  0  0  0  0  0  0  0  0
   45.4030   29.7670   46.8010 H   0  0  0  0  0  0  0  0  0  0  0  0
   46.0920   28.1670   46.9940 H   0  0  0  0  0  0  0  0  0  0  0  0
   47.8850   29.1020   47.9560 H   0  0  0  0  0  0  0  0  0  0  0  0
   46.9420   32.6630   43.8860 C   0  0  0  0  0  0  0  0  0  0  0  0
   47.5140   32.2910   42.6790 C   0  0  0  0  0  0  0  0  0  0  0  0
   48.1900   31.1210   42.8780 C   0  0  0  0  0  0  0  0  0  0  0  0
   48.0230   30.8020   44.1840 N   0  0  0  0  0  0  0  0  0  0  0  0
   47.2820   31.7280   44.7590 N   0  0  0  0  0  0  0  0  0  0  0  0
   47.4400   32.8290   41.7440 H   0  0  0  0  0  0  0  0  0  0  0  0
   48.7490   30.5670   42.1230 H   0  0  0  0  0  0  0  0  0  0  0  0
   44.7460   35.1430   45.4690 C   0  0  0  0  0  0  0  0  0  0  0  0
   44.6250   36.1320   44.4840 C   0  0  0  0  0  0  0  0  0  0  0  0
   45.2980   35.9300   43.2910 C   0  0  0  0  0  0  0  0  0  0  0  0
   46.0330   34.7910   43.1480 N   0  0  0  0  0  0  0  0  0  0  0  0
   46.1280   33.8630   44.1170 C   0  0  0  0  0  0  0  0  0  0  0  0
   45.4890   34.0240   45.2860 N   0  0  0  0  0  0  0  0  0  0  0  0
   44.2060   35.3320   46.3940 H   0  0  0  0  0  0  0  0  0  0  0  0
   44.0250   37.0160   44.6570 H   0  0  0  0  0  0  0  0  0  0  0  0
   45.2500   36.6490   42.4860 H   0  0  0  0  0  0  0  0  0  0  0  0
   47.1750   31.1380   47.7120 C   0  0  1  0  0  0  0  0  0  0  0  0
   46.6510   31.0710   49.1380 C   0  0  0  0  0  0  0  0  0  0  0  0
   47.8920   31.8070   48.7940 C   0  0  1  0  0  0  0  0  0  0  0  0
   46.5450   31.8090   47.0560 H   0  0  0  0  0  0  0  0  0  0  0  0
   46.7090   30.0930   49.6820 H   0  0  0  0  0  0  0  0  0  0  0  0
   45.7350   31.6170   49.3950 H   0  0  0  0  0  0  0  0  0  0  0  0
   47.8660   32.9310   48.7750 H   0  0  0  0  0  0  0  0  0  0  0  0
   49.1260   31.2210   49.4270 C   0  0  0  0  0  0  0  0  0  0  0  0
   49.4810   29.8730   49.8350 C   0  0  0  0  0  0  0  0  0  0  0  0
   48.6650   29.2020   49.6510 H   0  0  0  0  0  0  0  0  0  0  0  0
   50.7400   29.7770   50.3450 C   0  0  0  0  0  0  0  0  0  0  0  0
   51.6000   30.8000   50.4760 C   0  0  0  0  0  0  0  0  0  0  0  0
   50.6810   32.2130   49.8360 S   0  0  0  0  0  0  0  0  0  0  0  0
  1  7  1  0  0  0  0
  1  6  1  0  0  0  0
  2  8  1  6  0  0  0
  2  1  1  0  0  0  0
  3  2  1  0  0  0  0
  3  4  1  0  0  0  0
  3  9  1  0  0  0  0
  4  5  1  0  0  0  0
  5 12  1  0  0  0  0
  5 13  1  0  0  0  0
  5  6  1  0  0  0  0
  6 31  1  0  0  0  0
  6 14  1  1  0  0  0
 10  3  1  0  0  0  0
 11  4  1  0  0  0  0
 15 26  1  0  0  0  0
 15 19  2  0  0  0  0
 16 17  2  0  0  0  0
 16 15  1  0  0  0  0
 17 18  1  0  0  0  0
 18 19  1  0  0  0  0
 18  2  1  0  0  0  0
 20 16  1  0  0  0  0
 21 17  1  0  0  0  0
 22 28  1  0  0  0  0
 23 29  1  0  0  0  0
 23 22  2  0  0  0  0
 24 23  1  0  0  0  0
 25 24  2  0  0  0  0
 25 26  1  0  0  0  0
 26 27  2  0  0  0  0
 27 22  1  0  0  0  0
 30 24  1  0  0  0  0
 31 34  1  6  0  0  0
 31 33  1  0  0  0  0
 31 32  1  0  0  0  0
 32 36  1  0  0  0  0
 32 35  1  0  0  0  0
 33 37  1  1  0  0  0
 33 32  1  0  0  0  0
 33 38  1  0  0  0  0
 38 39  2  0  0  0  0
 38 43  1  0  0  0  0
 39 41  1  0  0  0  0
 40 39  1  0  0  0  0
 41 42  2  0  0  0  0
 43 42  1  0  0  0  0
M  END
>  <minimizedAffinity>
-5.22091532

>  <minimizedRMSD>
1.58758569

$$$$
