
 OpenBabel03252508073D

 41 44  0  0  0  0  0  0  0  0999 V2000
   45.1360   35.5480   43.2220 C   0  0  0  0  0  0  0  0  0  0  0  0
   45.5200   34.2180   43.2840 C   0  0  0  0  0  0  0  0  0  0  0  0
   45.4560   33.5370   44.4740 C   0  0  0  0  0  0  0  0  0  0  0  0
   44.9970   34.2360   45.5720 N   0  0  0  0  0  0  0  0  0  0  0  0
   44.6280   35.5140   45.5120 C   0  0  0  0  0  0  0  0  0  0  0  0
   44.7020   36.1610   44.3310 N   0  0  0  0  0  0  0  0  0  0  0  0
   45.1880   36.0940   42.2710 H   0  0  0  0  0  0  0  0  0  0  0  0
   44.2780   36.0130   46.4020 H   0  0  0  0  0  0  0  0  0  0  0  0
   45.8090   32.1870   44.6970 C   0  0  0  0  0  0  0  0  0  0  0  0
   45.4820   31.1380   43.8360 C   0  0  0  0  0  0  0  0  0  0  0  0
   45.7660   29.8210   44.0830 C   0  0  0  0  0  0  0  0  0  0  0  0
   46.4140   29.4700   45.2420 C   0  0  0  0  0  0  0  0  0  0  0  0
   46.7610   30.5270   46.1380 C   0  0  0  0  0  0  0  0  0  0  0  0
   47.4060   30.1790   47.2960 C   0  0  0  0  0  0  0  0  0  0  0  0
   47.7700   31.1530   48.2030 C   0  0  0  0  0  0  0  0  0  0  0  0
   47.4760   32.4960   47.9280 C   0  0  0  0  0  0  0  0  0  0  0  0
   46.8130   32.7980   46.7270 C   0  0  0  0  0  0  0  0  0  0  0  0
   46.4560   31.8160   45.8440 C   0  0  0  0  0  0  0  0  0  0  0  0
   44.9700   31.3640   42.9110 H   0  0  0  0  0  0  0  0  0  0  0  0
   45.4770   29.0580   43.3580 H   0  0  0  0  0  0  0  0  0  0  0  0
   46.6420   28.4510   45.4490 H   0  0  0  0  0  0  0  0  0  0  0  0
   47.6250   29.1350   47.4890 H   0  0  0  0  0  0  0  0  0  0  0  0
   48.2780   30.8140   49.1020 H   0  0  0  0  0  0  0  0  0  0  0  0
   47.8010   33.1730   48.6910 H   0  0  0  0  0  0  0  0  0  0  0  0
   46.7010   33.8610   46.6890 H   0  0  0  0  0  0  0  0  0  0  0  0
   45.9510   33.6420   42.1190 O   0  0  0  0  0  0  0  0  0  0  0  0
   48.1540   32.3990   41.4420 O   0  0  0  0  0  0  0  0  0  0  0  0
   47.5330   33.7510   41.5260 P   0  0  1  0  0  0  0  0  0  0  0  0
   47.5430   34.3950   39.9610 O   0  0  0  0  0  0  0  0  0  0  0  0
   47.4190   33.5580   38.8150 C   0  0  0  0  0  0  0  0  0  0  0  0
   46.8300   32.3770   38.2590 C   0  0  0  0  0  0  0  0  0  0  0  0
   46.2390   31.9660   39.0520 H   0  0  0  0  0  0  0  0  0  0  0  0
   47.1870   32.1570   36.9610 C   0  0  0  0  0  3  0  0  0  0  0  0
   48.0110   32.9610   36.2570 C   0  0  0  0  0  3  0  0  0  0  0  0
   48.4560   34.2660   37.3970 S   0  0  0  0  0  0  0  0  0  0  0  0
   48.4100   34.7600   42.5350 O   0  0  0  0  0  0  0  0  0  0  0  0
   49.6260   35.3620   42.2530 C   0  0  0  0  0  0  0  0  0  0  0  0
   49.3270   36.4200   41.6680 O   0  0  0  0  0  0  0  0  0  0  0  0
   50.7200   34.5560   42.7320 N   0  0  0  0  0  0  0  0  0  0  0  0
   51.4440   34.0110   42.2090 H   0  0  0  0  0  0  0  0  0  0  0  0
   50.8270   34.4890   43.7680 H   0  0  0  0  0  0  0  0  0  0  0  0
  1  2  2  0  0  0  0
  1  6  1  0  0  0  0
  2  3  1  0  0  0  0
  3  9  1  0  0  0  0
  3  4  2  0  0  0  0
  5  4  1  0  0  0  0
  5  8  1  0  0  0  0
  6  5  2  0  0  0  0
  7  1  1  0  0  0  0
  9 18  1  0  0  0  0
 10 11  1  0  0  0  0
 10  9  2  0  0  0  0
 11 12  2  0  0  0  0
 12 21  1  0  0  0  0
 12 13  1  0  0  0  0
 13 14  1  0  0  0  0
 14 22  1  0  0  0  0
 14 15  2  0  0  0  0
 15 23  1  0  0  0  0
 16 15  1  0  0  0  0
 16 24  1  0  0  0  0
 17 16  2  0  0  0  0
 18 13  2  0  0  0  0
 18 17  1  0  0  0  0
 19 10  1  0  0  0  0
 20 11  1  0  0  0  0
 25 17  1  0  0  0  0
 26  2  1  0  0  0  0
 28 27  2  6  0  0  0
 28 26  1  0  0  0  0
 28 36  1  0  0  0  0
 29 28  1  0  0  0  0
 30 29  1  0  0  0  0
 31 30  2  0  0  0  0
 31 32  1  0  0  0  0
 33 31  1  0  0  0  0
 34 33  2  0  0  0  0
 34 35  1  0  0  0  0
 35 30  1  0  0  0  0
 37 36  1  0  0  0  0
 37 39  1  0  0  0  0
 38 37  2  0  0  0  0
 39 41  1  0  0  0  0
 40 39  1  0  0  0  0
M  END
>  <minimizedAffinity>
-6.3059268

>  <minimizedRMSD>
1.50788736

$$$$
