
 OpenBabel03242518273D

 42 46  0  0  1  0  0  0  0  0999 V2000
   40.2180   31.4780   40.9120 C   0  0  0  0  0  0  0  0  0  0  0  0
   39.2850   32.4600   40.5950 C   0  0  0  0  0  0  0  0  0  0  0  0
   37.9480   32.0780   40.5180 C   0  0  0  0  0  0  0  0  0  0  0  0
   37.5860   30.7850   40.7450 N   0  0  0  0  0  0  0  0  0  0  0  0
   38.5330   29.8610   41.0510 C   0  0  0  0  0  0  0  0  0  0  0  0
   39.8440   30.1960   41.1360 N   0  0  0  0  0  0  0  0  0  0  0  0
   41.2680   31.7040   40.9880 H   0  0  0  0  0  0  0  0  0  0  0  0
   37.2310   32.8500   40.2710 H   0  0  0  0  0  0  0  0  0  0  0  0
   39.7760   33.7650   40.3800 N   0  0  0  0  0  0  0  0  0  0  0  0
   38.8570   34.8590   40.5290 C   0  0  0  0  0  0  0  0  0  0  0  0
   39.4300   36.1840   40.1700 C   0  0  0  0  0  0  0  0  0  0  0  0
   40.7030   36.4100   40.7670 N   0  0  0  0  0  0  0  0  0  0  0  0
   41.5810   35.3170   40.8650 C   0  0  0  0  0  0  0  0  0  0  0  0
   41.1090   34.1470   40.0230 C   0  0  0  0  0  0  0  0  0  0  0  0
   38.5370   34.8840   41.5970 H   0  0  0  0  0  0  0  0  0  0  0  0
   37.9530   34.6910   39.8890 H   0  0  0  0  0  0  0  0  0  0  0  0
   38.7330   36.9770   40.4960 H   0  0  0  0  0  0  0  0  0  0  0  0
   39.5640   36.2420   39.0660 H   0  0  0  0  0  0  0  0  0  0  0  0
   41.1420   37.2240   40.2430 H   0  0  0  0  0  0  0  0  0  0  0  0
   42.5980   35.5950   40.4710 H   0  0  0  0  0  0  0  0  0  0  0  0
   41.7550   35.0350   41.9240 H   0  0  0  0  0  0  0  0  0  0  0  0
   41.0970   34.4870   38.9770 H   0  0  0  0  0  0  0  0  0  0  0  0
   41.8380   33.3090   40.1280 H   0  0  0  0  0  0  0  0  0  0  0  0
   37.3450   28.1650   42.3730 C   0  0  0  0  0  0  0  0  0  0  0  0
   38.1180   28.4750   41.2920 C   0  0  0  0  0  0  0  0  0  0  0  0
   38.4920   27.4530   40.4410 C   0  0  0  0  0  0  0  0  0  0  0  0
   38.0860   26.1560   40.6930 C   0  0  0  0  0  0  0  0  0  0  0  0
   37.3030   25.8540   41.7930 C   0  0  0  0  0  0  0  0  0  0  0  0
   36.9200   26.8710   42.6550 C   0  0  0  0  0  0  0  0  0  0  0  0
   37.0590   24.4840   41.7780 O   0  0  0  0  0  0  0  0  0  0  0  0
   38.0190   23.8900   40.8970 C   0  0  2  0  0  0  0  0  0  0  0  0
   38.3210   24.9560   40.0030 O   0  0  0  0  0  0  0  0  0  0  0  0
   37.0490   28.9530   43.0420 H   0  0  0  0  0  0  0  0  0  0  0  0
   39.1130   27.6780   39.5660 H   0  0  0  0  0  0  0  0  0  0  0  0
   36.3150   26.6510   43.5070 H   0  0  0  0  0  0  0  0  0  0  0  0
   38.9330   23.7420   41.5110 H   0  0  0  0  0  0  0  0  0  0  0  0
   37.5990   22.6870   40.2870 C   0  0  0  0  0  0  0  0  0  0  0  0
   37.9970   21.3900   40.1680 C   0  0  0  0  0  0  0  0  0  0  0  0
   38.9150   21.2280   40.7060 H   0  0  0  0  0  0  0  0  0  0  0  0
   37.3080   20.4510   39.4590 C   0  0  0  0  0  3  0  0  0  0  0  0
   36.0230   21.0370   38.8090 C   0  0  0  0  0  3  0  0  0  0  0  0
   36.1080   22.8380   39.3800 S   0  0  0  0  0  0  0  0  0  0  0  0
  1  7  1  0  0  0  0
  1  6  1  0  0  0  0
  2  1  2  0  0  0  0
  3  2  1  0  0  0  0
  3  4  2  0  0  0  0
  4  5  1  0  0  0  0
  5  6  2  0  0  0  0
  5 25  1  0  0  0  0
  8  3  1  0  0  0  0
  9 10  1  0  0  0  0
  9  2  1  0  0  0  0
 10 15  1  0  0  0  0
 11 17  1  0  0  0  0
 11 10  1  0  0  0  0
 11 12  1  0  0  0  0
 12 13  1  0  0  0  0
 13 21  1  0  0  0  0
 14 23  1  0  0  0  0
 14  9  1  0  0  0  0
 14 13  1  0  0  0  0
 16 10  1  0  0  0  0
 18 11  1  0  0  0  0
 19 12  1  0  0  0  0
 20 13  1  0  0  0  0
 22 14  1  0  0  0  0
 24 29  1  0  0  0  0
 24 33  1  0  0  0  0
 25 24  2  0  0  0  0
 26 27  2  0  0  0  0
 26 25  1  0  0  0  0
 27 28  1  0  0  0  0
 28 29  2  0  0  0  0
 29 35  1  0  0  0  0
 30 28  1  0  0  0  0
 31 36  1  1  0  0  0
 31 30  1  0  0  0  0
 32 27  1  0  0  0  0
 32 31  1  0  0  0  0
 34 26  1  0  0  0  0
 37 31  1  0  0  0  0
 38 37  2  0  0  0  0
 38 39  1  0  0  0  0
 40 38  1  0  0  0  0
 41 42  1  0  0  0  0
 41 40  2  0  0  0  0
 42 37  1  0  0  0  0
M  END
>  <minimizedAffinity>
-6.08627939

$$$$

 OpenBabel03242518273D

 42 46  0  0  1  0  0  0  0  0999 V2000
   38.5610   31.7750   39.7190 C   0  0  0  0  0  0  0  0  0  0  0  0
   39.3820   32.3830   40.6630 C   0  0  0  0  0  0  0  0  0  0  0  0
   39.7190   31.6460   41.7950 C   0  0  0  0  0  0  0  0  0  0  0  0
   39.2510   30.3770   41.9560 N   0  0  0  0  0  0  0  0  0  0  0  0
   38.4520   29.8260   41.0070 C   0  0  0  0  0  0  0  0  0  0  0  0
   38.1020   30.5130   39.8920 N   0  0  0  0  0  0  0  0  0  0  0  0
   38.2620   32.2870   38.8210 H   0  0  0  0  0  0  0  0  0  0  0  0
   40.3580   32.1290   42.5220 H   0  0  0  0  0  0  0  0  0  0  0  0
   39.8060   33.7010   40.3900 N   0  0  0  0  0  0  0  0  0  0  0  0
   38.8440   34.7570   40.5370 C   0  0  0  0  0  0  0  0  0  0  0  0
   39.3430   36.0940   40.1160 C   0  0  0  0  0  0  0  0  0  0  0  0
   40.6240   36.3960   40.6580 N   0  0  0  0  0  0  0  0  0  0  0  0
   41.5540   35.3470   40.7590 C   0  0  0  0  0  0  0  0  0  0  0  0
   41.1070   34.1300   39.9720 C   0  0  0  0  0  0  0  0  0  0  0  0
   38.5600   34.8040   41.6150 H   0  0  0  0  0  0  0  0  0  0  0  0
   37.9260   34.5280   39.9360 H   0  0  0  0  0  0  0  0  0  0  0  0
   38.6220   36.8650   40.4410 H   0  0  0  0  0  0  0  0  0  0  0  0
   39.4360   36.1210   39.0060 H   0  0  0  0  0  0  0  0  0  0  0  0
   41.0070   37.2100   40.0940 H   0  0  0  0  0  0  0  0  0  0  0  0
   42.5430   35.6570   40.3190 H   0  0  0  0  0  0  0  0  0  0  0  0
   41.7780   35.1080   41.8190 H   0  0  0  0  0  0  0  0  0  0  0  0
   41.0430   34.4340   38.9170 H   0  0  0  0  0  0  0  0  0  0  0  0
   41.8760   33.3290   40.0770 H   0  0  0  0  0  0  0  0  0  0  0  0
   37.8120   27.9510   42.4620 C   0  0  0  0  0  0  0  0  0  0  0  0
   37.9610   28.4570   41.2040 C   0  0  0  0  0  0  0  0  0  0  0  0
   37.6380   27.6470   40.1310 C   0  0  0  0  0  0  0  0  0  0  0  0
   37.1770   26.3620   40.3460 C   0  0  0  0  0  0  0  0  0  0  0  0
   37.0310   25.8610   41.6270 C   0  0  0  0  0  0  0  0  0  0  0  0
   37.3520   26.6640   42.7120 C   0  0  0  0  0  0  0  0  0  0  0  0
   36.5550   24.5580   41.5220 O   0  0  0  0  0  0  0  0  0  0  0  0
   36.7880   24.1260   40.1780 C   0  0  2  0  0  0  0  0  0  0  0  0
   36.7860   25.3520   39.4530 O   0  0  0  0  0  0  0  0  0  0  0  0
   38.0610   28.5740   43.3030 H   0  0  0  0  0  0  0  0  0  0  0  0
   37.7490   28.0320   39.1100 H   0  0  0  0  0  0  0  0  0  0  0  0
   37.2430   26.2880   43.7070 H   0  0  0  0  0  0  0  0  0  0  0  0
   37.8390   23.7650   40.1590 H   0  0  0  0  0  0  0  0  0  0  0  0
   35.8910   23.1410   39.7070 C   0  0  0  0  0  0  0  0  0  0  0  0
   34.5510   22.9230   39.6030 C   0  0  0  0  0  0  0  0  0  0  0  0
   34.0030   23.7600   39.9990 H   0  0  0  0  0  0  0  0  0  0  0  0
   34.0100   21.7920   39.0660 C   0  0  0  0  0  3  0  0  0  0  0  0
   35.1000   20.7910   38.5920 C   0  0  0  0  0  3  0  0  0  0  0  0
   36.6810   21.7280   39.0380 S   0  0  0  0  0  0  0  0  0  0  0  0
  1  6  2  0  0  0  0
  1  2  1  0  0  0  0
  2  3  2  0  0  0  0
  3  4  1  0  0  0  0
  3  8  1  0  0  0  0
  5 25  1  0  0  0  0
  5  4  2  0  0  0  0
  6  5  1  0  0  0  0
  7  1  1  0  0  0  0
  9 10  1  0  0  0  0
  9  2  1  0  0  0  0
 10 15  1  0  0  0  0
 11 17  1  0  0  0  0
 11 10  1  0  0  0  0
 11 12  1  0  0  0  0
 12 13  1  0  0  0  0
 13 21  1  0  0  0  0
 14 23  1  0  0  0  0
 14  9  1  0  0  0  0
 14 13  1  0  0  0  0
 16 10  1  0  0  0  0
 18 11  1  0  0  0  0
 19 12  1  0  0  0  0
 20 13  1  0  0  0  0
 22 14  1  0  0  0  0
 24 29  1  0  0  0  0
 24 33  1  0  0  0  0
 25 24  2  0  0  0  0
 26 27  2  0  0  0  0
 26 25  1  0  0  0  0
 27 28  1  0  0  0  0
 28 29  2  0  0  0  0
 29 35  1  0  0  0  0
 30 28  1  0  0  0  0
 31 36  1  6  0  0  0
 31 30  1  0  0  0  0
 32 31  1  0  0  0  0
 32 27  1  0  0  0  0
 34 26  1  0  0  0  0
 37 31  1  0  0  0  0
 38 37  2  0  0  0  0
 38 39  1  0  0  0  0
 40 38  1  0  0  0  0
 41 42  1  0  0  0  0
 41 40  2  0  0  0  0
 42 37  1  0  0  0  0
M  END
>  <minimizedAffinity>
-5.9772687

$$$$

 OpenBabel03242518273D

 42 46  0  0  1  0  0  0  0  0999 V2000
   37.8130   24.8130   40.6680 C   0  0  0  0  0  0  0  0  0  0  0  0
   37.0190   24.1960   39.7070 C   0  0  0  0  0  0  0  0  0  0  0  0
   36.2250   25.0120   38.9050 C   0  0  0  0  0  0  0  0  0  0  0  0
   36.2390   26.3640   39.0700 N   0  0  0  0  0  0  0  0  0  0  0  0
   37.0310   26.9210   40.0220 C   0  0  0  0  0  0  0  0  0  0  0  0
   37.8170   26.1580   40.8220 N   0  0  0  0  0  0  0  0  0  0  0  0
   38.4500   24.2430   41.3210 H   0  0  0  0  0  0  0  0  0  0  0  0
   35.6120   24.5210   38.1610 H   0  0  0  0  0  0  0  0  0  0  0  0
   37.0870   22.7890   39.6270 N   0  0  0  0  0  0  0  0  0  0  0  0
   36.0740   22.1120   38.8660 C   0  0  0  0  0  0  0  0  0  0  0  0
   36.1570   20.6280   38.9330 C   0  0  0  0  0  0  0  0  0  0  0  0
   37.4760   20.1410   38.7070 N   0  0  0  0  0  0  0  0  0  0  0  0
   38.5450   20.8860   39.2340 C   0  0  0  0  0  0  0  0  0  0  0  0
   38.0620   21.9270   40.2250 C   0  0  0  0  0  0  0  0  0  0  0  0
   36.1870   22.4290   37.8020 H   0  0  0  0  0  0  0  0  0  0  0  0
   35.0570   22.4160   39.2230 H   0  0  0  0  0  0  0  0  0  0  0  0
   35.4780   20.1960   38.1760 H   0  0  0  0  0  0  0  0  0  0  0  0
   35.8450   20.2870   39.9460 H   0  0  0  0  0  0  0  0  0  0  0  0
   37.4890   19.1350   39.0460 H   0  0  0  0  0  0  0  0  0  0  0  0
   39.2460   20.2140   39.8040 H   0  0  0  0  0  0  0  0  0  0  0  0
   39.1670   21.3250   38.4270 H   0  0  0  0  0  0  0  0  0  0  0  0
   37.5790   21.3860   41.0510 H   0  0  0  0  0  0  0  0  0  0  0  0
   38.9440   22.4870   40.6190 H   0  0  0  0  0  0  0  0  0  0  0  0
   35.9340   29.0160   40.6920 C   0  0  0  0  0  0  0  0  0  0  0  0
   37.0280   28.3790   40.1800 C   0  0  0  0  0  0  0  0  0  0  0  0
   38.1200   29.1450   39.8190 C   0  0  0  0  0  0  0  0  0  0  0  0
   38.0900   30.5170   39.9800 C   0  0  0  0  0  0  0  0  0  0  0  0
   36.9750   31.1510   40.5000 C   0  0  0  0  0  0  0  0  0  0  0  0
   35.8710   30.3930   40.8660 C   0  0  0  0  0  0  0  0  0  0  0  0
   37.2410   32.5160   40.5390 O   0  0  0  0  0  0  0  0  0  0  0  0
   38.3580   32.7570   39.6770 C   0  0  2  0  0  0  0  0  0  0  0  0
   39.0430   31.5090   39.7000 O   0  0  0  0  0  0  0  0  0  0  0  0
   35.0790   28.4290   40.9760 H   0  0  0  0  0  0  0  0  0  0  0  0
   39.0110   28.6560   39.4060 H   0  0  0  0  0  0  0  0  0  0  0  0
   35.0050   30.8710   41.2680 H   0  0  0  0  0  0  0  0  0  0  0  0
   37.9310   32.8490   38.6560 H   0  0  0  0  0  0  0  0  0  0  0  0
   39.1390   33.8840   40.0190 C   0  0  0  0  0  0  0  0  0  0  0  0
   38.9940   35.2220   40.2290 C   0  0  0  0  0  0  0  0  0  0  0  0
   37.9670   35.5130   40.0960 H   0  0  0  0  0  0  0  0  0  0  0  0
   40.0250   36.0500   40.5600 C   0  0  0  0  0  3  0  0  0  0  0  0
   41.3750   35.2870   40.6670 C   0  0  0  0  0  3  0  0  0  0  0  0
   40.8360   33.5210   40.2590 S   0  0  0  0  0  0  0  0  0  0  0  0
  1  6  1  0  0  0  0
  1  7  1  0  0  0  0
  2  1  2  0  0  0  0
  3  4  2  0  0  0  0
  3  2  1  0  0  0  0
  4  5  1  0  0  0  0
  5 25  1  0  0  0  0
  5  6  2  0  0  0  0
  8  3  1  0  0  0  0
  9  2  1  0  0  0  0
  9 14  1  0  0  0  0
 10 11  1  0  0  0  0
 10 16  1  0  0  0  0
 10  9  1  0  0  0  0
 11 18  1  0  0  0  0
 12 11  1  0  0  0  0
 12 19  1  0  0  0  0
 12 13  1  0  0  0  0
 13 20  1  0  0  0  0
 13 14  1  0  0  0  0
 14 23  1  0  0  0  0
 14 22  1  0  0  0  0
 15 10  1  0  0  0  0
 17 11  1  0  0  0  0
 21 13  1  0  0  0  0
 24 29  1  0  0  0  0
 24 33  1  0  0  0  0
 25 24  2  0  0  0  0
 26 27  2  0  0  0  0
 26 25  1  0  0  0  0
 27 28  1  0  0  0  0
 28 30  1  0  0  0  0
 28 29  2  0  0  0  0
 29 35  1  0  0  0  0
 31 36  1  6  0  0  0
 31 32  1  0  0  0  0
 31 37  1  0  0  0  0
 31 30  1  0  0  0  0
 32 27  1  0  0  0  0
 34 26  1  0  0  0  0
 37 38  2  0  0  0  0
 37 42  1  0  0  0  0
 38 40  1  0  0  0  0
 39 38  1  0  0  0  0
 40 41  2  0  0  0  0
 42 41  1  0  0  0  0
M  END
>  <minimizedAffinity>
-5.71670866

$$$$

 OpenBabel03242518273D

 42 46  0  0  1  0  0  0  0  0999 V2000
   40.4130   31.6650   39.6040 C   0  0  0  0  0  0  0  0  0  0  0  0
   39.7500   32.7600   40.1510 C   0  0  0  0  0  0  0  0  0  0  0  0
   38.4310   32.5780   40.5580 C   0  0  0  0  0  0  0  0  0  0  0  0
   37.8280   31.3650   40.4190 N   0  0  0  0  0  0  0  0  0  0  0  0
   38.5150   30.3250   39.8800 C   0  0  0  0  0  0  0  0  0  0  0  0
   39.8000   30.4640   39.4720 N   0  0  0  0  0  0  0  0  0  0  0  0
   41.4330   31.7350   39.2690 H   0  0  0  0  0  0  0  0  0  0  0  0
   37.9260   33.4350   40.9820 H   0  0  0  0  0  0  0  0  0  0  0  0
   40.4760   33.9660   40.2450 N   0  0  0  0  0  0  0  0  0  0  0  0
   39.7370   35.1750   40.4790 C   0  0  0  0  0  0  0  0  0  0  0  0
   40.5680   36.4080   40.4480 C   0  0  0  0  0  0  0  0  0  0  0  0
   41.7530   36.2910   41.2290 N   0  0  0  0  0  0  0  0  0  0  0  0
   42.4130   35.0500   41.2300 C   0  0  0  0  0  0  0  0  0  0  0  0
   41.8930   34.1420   40.1330 C   0  0  0  0  0  0  0  0  0  0  0  0
   39.2630   35.0880   41.4860 H   0  0  0  0  0  0  0  0  0  0  0  0
   38.9280   35.2860   39.7120 H   0  0  0  0  0  0  0  0  0  0  0  0
   39.9680   37.2550   40.8260 H   0  0  0  0  0  0  0  0  0  0  0  0
   40.8790   36.6170   39.3990 H   0  0  0  0  0  0  0  0  0  0  0  0
   42.3940   37.0810   40.9250 H   0  0  0  0  0  0  0  0  0  0  0  0
   43.5110   35.1920   41.0240 H   0  0  0  0  0  0  0  0  0  0  0  0
   42.3720   34.5740   42.2310 H   0  0  0  0  0  0  0  0  0  0  0  0
   42.0990   34.6420   39.1760 H   0  0  0  0  0  0  0  0  0  0  0  0
   42.4490   33.1750   40.1700 H   0  0  0  0  0  0  0  0  0  0  0  0
   36.5940   28.9530   39.1980 C   0  0  0  0  0  0  0  0  0  0  0  0
   37.8430   29.0280   39.7410 C   0  0  0  0  0  0  0  0  0  0  0  0
   38.4490   27.8560   40.1520 C   0  0  0  0  0  0  0  0  0  0  0  0
   37.7920   26.6490   40.0080 C   0  0  0  0  0  0  0  0  0  0  0  0
   36.5250   26.5850   39.4560 C   0  0  0  0  0  0  0  0  0  0  0  0
   35.9060   27.7560   39.0400 C   0  0  0  0  0  0  0  0  0  0  0  0
   36.1310   25.2510   39.4450 O   0  0  0  0  0  0  0  0  0  0  0  0
   36.9870   24.5470   40.3510 C   0  0  2  0  0  0  0  0  0  0  0  0
   38.1720   25.3370   40.3370 O   0  0  0  0  0  0  0  0  0  0  0  0
   36.1140   29.8600   38.8750 H   0  0  0  0  0  0  0  0  0  0  0  0
   39.4530   27.8910   40.5910 H   0  0  0  0  0  0  0  0  0  0  0  0
   34.9280   27.7200   38.6120 H   0  0  0  0  0  0  0  0  0  0  0  0
   36.5390   24.6910   41.3560 H   0  0  0  0  0  0  0  0  0  0  0  0
   37.1680   23.1770   40.0520 C   0  0  0  0  0  0  0  0  0  0  0  0
   38.0490   22.1690   40.2990 C   0  0  0  0  0  0  0  0  0  0  0  0
   38.8590   22.5210   40.9130 H   0  0  0  0  0  0  0  0  0  0  0  0
   37.8980   20.9010   39.8200 C   0  0  0  0  0  3  0  0  0  0  0  0
   36.6090   20.7490   38.9660 C   0  0  0  0  0  3  0  0  0  0  0  0
   35.8990   22.4990   39.0520 S   0  0  0  0  0  0  0  0  0  0  0  0
  1  2  1  0  0  0  0
  2  9  1  0  0  0  0
  2  3  2  0  0  0  0
  3  8  1  0  0  0  0
  4  3  1  0  0  0  0
  5  4  2  0  0  0  0
  6  1  2  0  0  0  0
  6  5  1  0  0  0  0
  7  1  1  0  0  0  0
  9 10  1  0  0  0  0
 10 15  1  0  0  0  0
 11 10  1  0  0  0  0
 11 17  1  0  0  0  0
 11 12  1  0  0  0  0
 12 13  1  0  0  0  0
 13 21  1  0  0  0  0
 14 23  1  0  0  0  0
 14  9  1  0  0  0  0
 14 13  1  0  0  0  0
 16 10  1  0  0  0  0
 18 11  1  0  0  0  0
 19 12  1  0  0  0  0
 20 13  1  0  0  0  0
 22 14  1  0  0  0  0
 24 25  1  0  0  0  0
 25  5  1  0  0  0  0
 25 26  2  0  0  0  0
 26 34  1  0  0  0  0
 27 26  1  0  0  0  0
 27 32  1  0  0  0  0
 28 27  2  0  0  0  0
 29 24  2  0  0  0  0
 29 28  1  0  0  0  0
 30 28  1  0  0  0  0
 30 31  1  0  0  0  0
 31 36  1  1  0  0  0
 32 31  1  0  0  0  0
 33 24  1  0  0  0  0
 35 29  1  0  0  0  0
 37 38  2  0  0  0  0
 37 31  1  0  0  0  0
 38 39  1  0  0  0  0
 40 38  1  0  0  0  0
 41 42  1  0  0  0  0
 41 40  2  0  0  0  0
 42 37  1  0  0  0  0
M  END
>  <minimizedAffinity>
-5.60457706

$$$$

 OpenBabel03242518273D

 42 46  0  0  1  0  0  0  0  0999 V2000
   36.6940   24.5730   40.5450 C   0  0  0  0  0  0  0  0  0  0  0  0
   36.0660   24.4750   39.3070 C   0  0  0  0  0  0  0  0  0  0  0  0
   35.9800   25.6290   38.5340 C   0  0  0  0  0  0  0  0  0  0  0  0
   36.4980   26.8040   38.9890 N   0  0  0  0  0  0  0  0  0  0  0  0
   37.1030   26.8510   40.2040 C   0  0  0  0  0  0  0  0  0  0  0  0
   37.2050   25.7480   40.9850 N   0  0  0  0  0  0  0  0  0  0  0  0
   36.7950   23.7200   41.1930 H   0  0  0  0  0  0  0  0  0  0  0  0
   35.4900   25.5410   37.5740 H   0  0  0  0  0  0  0  0  0  0  0  0
   35.5680   23.2070   38.9410 N   0  0  0  0  0  0  0  0  0  0  0  0
   36.4070   22.0650   39.1790 C   0  0  0  0  0  0  0  0  0  0  0  0
   35.8520   20.7870   38.6570 C   0  0  0  0  0  0  0  0  0  0  0  0
   34.4880   20.5920   39.0190 N   0  0  0  0  0  0  0  0  0  0  0  0
   33.6490   21.7200   39.0310 C   0  0  0  0  0  0  0  0  0  0  0  0
   34.3010   22.9050   38.3460 C   0  0  0  0  0  0  0  0  0  0  0  0
   36.5410   21.9720   40.2820 H   0  0  0  0  0  0  0  0  0  0  0  0
   37.4110   22.2210   38.7090 H   0  0  0  0  0  0  0  0  0  0  0  0
   36.4530   19.9470   39.0490 H   0  0  0  0  0  0  0  0  0  0  0  0
   35.9030   20.7900   37.5440 H   0  0  0  0  0  0  0  0  0  0  0  0
   34.1130   19.8270   38.3860 H   0  0  0  0  0  0  0  0  0  0  0  0
   32.7030   21.5090   38.4580 H   0  0  0  0  0  0  0  0  0  0  0  0
   33.3100   21.9580   40.0600 H   0  0  0  0  0  0  0  0  0  0  0  0
   34.4760   22.6160   37.2990 H   0  0  0  0  0  0  0  0  0  0  0  0
   33.5980   23.7710   38.3750 H   0  0  0  0  0  0  0  0  0  0  0  0
   38.2250   28.2220   41.9070 C   0  0  0  0  0  0  0  0  0  0  0  0
   37.6530   28.1280   40.6720 C   0  0  0  0  0  0  0  0  0  0  0  0
   37.6080   29.2630   39.8840 C   0  0  0  0  0  0  0  0  0  0  0  0
   38.1340   30.4520   40.3500 C   0  0  0  0  0  0  0  0  0  0  0  0
   38.7120   30.5350   41.6040 C   0  0  0  0  0  0  0  0  0  0  0  0
   38.7630   29.4030   42.4050 C   0  0  0  0  0  0  0  0  0  0  0  0
   39.1450   31.8440   41.7880 O   0  0  0  0  0  0  0  0  0  0  0  0
   38.4780   32.6540   40.8130 C   0  0  2  0  0  0  0  0  0  0  0  0
   38.2170   31.7260   39.7660 O   0  0  0  0  0  0  0  0  0  0  0  0
   38.2650   27.3450   42.5280 H   0  0  0  0  0  0  0  0  0  0  0  0
   37.1530   29.2110   38.8870 H   0  0  0  0  0  0  0  0  0  0  0  0
   39.2070   29.4540   43.3760 H   0  0  0  0  0  0  0  0  0  0  0  0
   37.4890   32.8980   41.2560 H   0  0  0  0  0  0  0  0  0  0  0  0
   39.1800   33.8200   40.4310 C   0  0  0  0  0  0  0  0  0  0  0  0
   39.0410   35.1740   40.4700 C   0  0  0  0  0  0  0  0  0  0  0  0
   38.1110   35.4430   40.9380 H   0  0  0  0  0  0  0  0  0  0  0  0
   39.9690   36.0420   39.9750 C   0  0  0  0  0  3  0  0  0  0  0  0
   41.1940   35.3030   39.3670 C   0  0  0  0  0  3  0  0  0  0  0  0
   40.7160   33.4960   39.6540 S   0  0  0  0  0  0  0  0  0  0  0  0
  1  6  1  0  0  0  0
  1  7  1  0  0  0  0
  2  1  2  0  0  0  0
  3  4  2  0  0  0  0
  3  2  1  0  0  0  0
  4  5  1  0  0  0  0
  5 25  1  0  0  0  0
  5  6  2  0  0  0  0
  8  3  1  0  0  0  0
  9 10  1  0  0  0  0
  9  2  1  0  0  0  0
 10 15  1  0  0  0  0
 11 12  1  0  0  0  0
 11 17  1  0  0  0  0
 11 10  1  0  0  0  0
 12 13  1  0  0  0  0
 13 21  1  0  0  0  0
 14 23  1  0  0  0  0
 14  9  1  0  0  0  0
 14 13  1  0  0  0  0
 16 10  1  0  0  0  0
 18 11  1  0  0  0  0
 19 12  1  0  0  0  0
 20 13  1  0  0  0  0
 22 14  1  0  0  0  0
 24 29  1  0  0  0  0
 24 33  1  0  0  0  0
 25 24  2  0  0  0  0
 26 27  2  0  0  0  0
 26 25  1  0  0  0  0
 27 28  1  0  0  0  0
 28 30  1  0  0  0  0
 28 29  2  0  0  0  0
 29 35  1  0  0  0  0
 31 36  1  1  0  0  0
 31 30  1  0  0  0  0
 32 27  1  0  0  0  0
 32 31  1  0  0  0  0
 34 26  1  0  0  0  0
 37 38  2  0  0  0  0
 37 31  1  0  0  0  0
 38 39  1  0  0  0  0
 40 38  1  0  0  0  0
 41 42  1  0  0  0  0
 41 40  2  0  0  0  0
 42 37  1  0  0  0  0
M  END
>  <minimizedAffinity>
-5.56597471

$$$$

 OpenBabel03242518273D

 42 46  0  0  1  0  0  0  0  0999 V2000
   38.2830   33.3420   40.2540 C   0  0  0  0  0  0  0  0  0  0  0  0
   39.5740   33.2270   39.7470 C   0  0  0  0  0  0  0  0  0  0  0  0
   39.8400   32.1560   38.8980 C   0  0  0  0  0  0  0  0  0  0  0  0
   38.8590   31.2630   38.5870 N   0  0  0  0  0  0  0  0  0  0  0  0
   37.6140   31.4170   39.1060 C   0  0  0  0  0  0  0  0  0  0  0  0
   37.3180   32.4470   39.9370 N   0  0  0  0  0  0  0  0  0  0  0  0
   38.0090   34.1450   40.9160 H   0  0  0  0  0  0  0  0  0  0  0  0
   40.8460   32.0760   38.5100 H   0  0  0  0  0  0  0  0  0  0  0  0
   40.5060   34.2100   40.1390 N   0  0  0  0  0  0  0  0  0  0  0  0
   40.0050   35.3760   40.8120 C   0  0  0  0  0  0  0  0  0  0  0  0
   41.0400   36.4100   41.0830 C   0  0  0  0  0  0  0  0  0  0  0  0
   42.2210   35.8660   41.6650 N   0  0  0  0  0  0  0  0  0  0  0  0
   42.6490   34.6070   41.2120 C   0  0  0  0  0  0  0  0  0  0  0  0
   41.9250   34.1950   39.9450 C   0  0  0  0  0  0  0  0  0  0  0  0
   39.5710   35.0410   41.7840 H   0  0  0  0  0  0  0  0  0  0  0  0
   39.1940   35.8530   40.2040 H   0  0  0  0  0  0  0  0  0  0  0  0
   40.6180   37.1700   41.7650 H   0  0  0  0  0  0  0  0  0  0  0  0
   41.3340   36.8980   40.1250 H   0  0  0  0  0  0  0  0  0  0  0  0
   42.9770   36.6030   41.5580 H   0  0  0  0  0  0  0  0  0  0  0  0
   43.7440   34.6370   40.9490 H   0  0  0  0  0  0  0  0  0  0  0  0
   42.5720   33.8430   42.0130 H   0  0  0  0  0  0  0  0  0  0  0  0
   42.1720   34.9400   39.1750 H   0  0  0  0  0  0  0  0  0  0  0  0
   42.3020   33.1950   39.6220 H   0  0  0  0  0  0  0  0  0  0  0  0
   35.7840   29.8990   39.7250 C   0  0  0  0  0  0  0  0  0  0  0  0
   36.5760   30.4420   38.7560 C   0  0  0  0  0  0  0  0  0  0  0  0
   36.3700   30.0490   37.4470 C   0  0  0  0  0  0  0  0  0  0  0  0
   35.3840   29.1290   37.1450 C   0  0  0  0  0  0  0  0  0  0  0  0
   34.5880   28.5840   38.1370 C   0  0  0  0  0  0  0  0  0  0  0  0
   34.7840   28.9710   39.4550 C   0  0  0  0  0  0  0  0  0  0  0  0
   33.6990   27.7020   37.5320 O   0  0  0  0  0  0  0  0  0  0  0  0
   34.2130   27.4060   36.2290 C   0  0  2  0  0  0  0  0  0  0  0  0
   34.9750   28.5690   35.9240 O   0  0  0  0  0  0  0  0  0  0  0  0
   35.9360   30.1980   40.7460 H   0  0  0  0  0  0  0  0  0  0  0  0
   36.9940   30.4730   36.6500 H   0  0  0  0  0  0  0  0  0  0  0  0
   34.1760   28.5580   40.2300 H   0  0  0  0  0  0  0  0  0  0  0  0
   34.9520   26.5910   36.3790 H   0  0  0  0  0  0  0  0  0  0  0  0
   33.2350   27.0530   35.2720 C   0  0  0  0  0  0  0  0  0  0  0  0
   31.8830   27.0850   35.1090 C   0  0  0  0  0  0  0  0  0  0  0  0
   31.4110   27.5140   35.9750 H   0  0  0  0  0  0  0  0  0  0  0  0
   31.2470   26.6300   33.9920 C   0  0  0  0  0  3  0  0  0  0  0  0
   32.2440   26.0740   32.9370 C   0  0  0  0  0  3  0  0  0  0  0  0
   33.8970   26.3410   33.8150 S   0  0  0  0  0  0  0  0  0  0  0  0
  1  7  1  0  0  0  0
  2  9  1  0  0  0  0
  2  1  2  0  0  0  0
  3  2  1  0  0  0  0
  4  3  2  0  0  0  0
  4  5  1  0  0  0  0
  5  6  2  0  0  0  0
  6  1  1  0  0  0  0
  8  3  1  0  0  0  0
  9 10  1  0  0  0  0
 10 11  1  0  0  0  0
 10 15  1  0  0  0  0
 11 12  1  0  0  0  0
 11 17  1  0  0  0  0
 13 12  1  0  0  0  0
 13 21  1  0  0  0  0
 14  9  1  0  0  0  0
 14 13  1  0  0  0  0
 16 10  1  0  0  0  0
 18 11  1  0  0  0  0
 19 12  1  0  0  0  0
 20 13  1  0  0  0  0
 22 14  1  0  0  0  0
 23 14  1  0  0  0  0
 24 33  1  0  0  0  0
 25  5  1  0  0  0  0
 25 24  2  0  0  0  0
 26 25  1  0  0  0  0
 27 26  2  0  0  0  0
 27 28  1  0  0  0  0
 28 29  2  0  0  0  0
 29 24  1  0  0  0  0
 29 35  1  0  0  0  0
 30 28  1  0  0  0  0
 31 36  1  1  0  0  0
 31 30  1  0  0  0  0
 32 31  1  0  0  0  0
 32 27  1  0  0  0  0
 34 26  1  0  0  0  0
 37 31  1  0  0  0  0
 38 37  2  0  0  0  0
 38 39  1  0  0  0  0
 40 38  1  0  0  0  0
 41 42  1  0  0  0  0
 41 40  2  0  0  0  0
 42 37  1  0  0  0  0
M  END
>  <minimizedAffinity>
-5.5646553

$$$$

 OpenBabel03242518273D

 42 46  0  0  1  0  0  0  0  0999 V2000
   37.6910   32.9330   39.7590 C   0  0  0  0  0  0  0  0  0  0  0  0
   39.0440   32.9950   39.4390 C   0  0  0  0  0  0  0  0  0  0  0  0
   39.5380   32.0540   38.5390 C   0  0  0  0  0  0  0  0  0  0  0  0
   38.7120   31.1130   38.0030 N   0  0  0  0  0  0  0  0  0  0  0  0
   37.3980   31.0920   38.3460 C   0  0  0  0  0  0  0  0  0  0  0  0
   36.8810   31.9920   39.2180 N   0  0  0  0  0  0  0  0  0  0  0  0
   37.2430   33.6290   40.4470 H   0  0  0  0  0  0  0  0  0  0  0  0
   40.5900   32.1120   38.2970 H   0  0  0  0  0  0  0  0  0  0  0  0
   39.8010   34.0130   40.0560 N   0  0  0  0  0  0  0  0  0  0  0  0
   41.2280   33.8510   40.1000 C   0  0  0  0  0  0  0  0  0  0  0  0
   41.9340   34.9110   40.8690 C   0  0  0  0  0  0  0  0  0  0  0  0
   41.5090   36.2230   40.5130 N   0  0  0  0  0  0  0  0  0  0  0  0
   40.1450   36.4110   40.2290 C   0  0  0  0  0  0  0  0  0  0  0  0
   39.3160   35.2170   40.6610 C   0  0  0  0  0  0  0  0  0  0  0  0
   41.5990   33.8660   39.0470 H   0  0  0  0  0  0  0  0  0  0  0  0
   41.4890   32.8630   40.5570 H   0  0  0  0  0  0  0  0  0  0  0  0
   43.0200   34.8220   40.6890 H   0  0  0  0  0  0  0  0  0  0  0  0
   41.7280   34.7770   41.9560 H   0  0  0  0  0  0  0  0  0  0  0  0
   41.8450   36.8690   41.2860 H   0  0  0  0  0  0  0  0  0  0  0  0
   39.7440   37.2930   40.8030 H   0  0  0  0  0  0  0  0  0  0  0  0
   39.9880   36.6730   39.1630 H   0  0  0  0  0  0  0  0  0  0  0  0
   39.4320   35.1210   41.7500 H   0  0  0  0  0  0  0  0  0  0  0  0
   38.2440   35.4140   40.4210 H   0  0  0  0  0  0  0  0  0  0  0  0
   35.5640   29.4630   38.5060 C   0  0  0  0  0  0  0  0  0  0  0  0
   36.5290   30.0690   37.7540 C   0  0  0  0  0  0  0  0  0  0  0  0
   36.6590   29.6910   36.4310 C   0  0  0  0  0  0  0  0  0  0  0  0
   35.8260   28.7250   35.9000 C   0  0  0  0  0  0  0  0  0  0  0  0
   34.8520   28.1170   36.6730 C   0  0  0  0  0  0  0  0  0  0  0  0
   34.7120   28.4880   38.0030 C   0  0  0  0  0  0  0  0  0  0  0  0
   34.1830   27.1990   35.8700 O   0  0  0  0  0  0  0  0  0  0  0  0
   35.0040   26.9580   34.7220 C   0  0  2  0  0  0  0  0  0  0  0  0
   35.7470   28.1680   34.6130 O   0  0  0  0  0  0  0  0  0  0  0  0
   35.4550   29.7500   39.5370 H   0  0  0  0  0  0  0  0  0  0  0  0
   37.4270   30.1640   35.8070 H   0  0  0  0  0  0  0  0  0  0  0  0
   33.9630   28.0260   38.6100 H   0  0  0  0  0  0  0  0  0  0  0  0
   35.7340   26.1820   35.0370 H   0  0  0  0  0  0  0  0  0  0  0  0
   34.3000   26.5720   33.5600 C   0  0  0  0  0  0  0  0  0  0  0  0
   34.5470   26.1090   32.3030 C   0  0  0  0  0  0  0  0  0  0  0  0
   35.6050   26.0020   32.1440 H   0  0  0  0  0  0  0  0  0  0  0  0
   33.5670   25.8300   31.3960 C   0  0  0  0  0  3  0  0  0  0  0  0
   32.1480   26.1020   31.9680 C   0  0  0  0  0  3  0  0  0  0  0  0
   32.5600   26.7080   33.7110 S   0  0  0  0  0  0  0  0  0  0  0  0
  1  7  1  0  0  0  0
  2  1  1  0  0  0  0
  2  9  1  0  0  0  0
  3  2  2  0  0  0  0
  4  5  2  0  0  0  0
  4  3  1  0  0  0  0
  5  6  1  0  0  0  0
  6  1  2  0  0  0  0
  8  3  1  0  0  0  0
  9 10  1  0  0  0  0
  9 14  1  0  0  0  0
 10 16  1  0  0  0  0
 10 11  1  0  0  0  0
 11 18  1  0  0  0  0
 12 11  1  0  0  0  0
 12 19  1  0  0  0  0
 13 12  1  0  0  0  0
 13 14  1  0  0  0  0
 13 20  1  0  0  0  0
 14 22  1  0  0  0  0
 15 10  1  0  0  0  0
 17 11  1  0  0  0  0
 21 13  1  0  0  0  0
 23 14  1  0  0  0  0
 24 33  1  0  0  0  0
 25  5  1  0  0  0  0
 25 24  2  0  0  0  0
 26 25  1  0  0  0  0
 27 26  2  0  0  0  0
 27 28  1  0  0  0  0
 28 29  2  0  0  0  0
 29 24  1  0  0  0  0
 29 35  1  0  0  0  0
 30 28  1  0  0  0  0
 31 36  1  1  0  0  0
 31 30  1  0  0  0  0
 32 31  1  0  0  0  0
 32 27  1  0  0  0  0
 34 26  1  0  0  0  0
 37 42  1  0  0  0  0
 37 31  1  0  0  0  0
 38 37  2  0  0  0  0
 39 38  1  0  0  0  0
 40 41  2  0  0  0  0
 40 38  1  0  0  0  0
 41 42  1  0  0  0  0
M  END
>  <minimizedAffinity>
-5.44057798

$$$$

 OpenBabel03242518273D

 42 46  0  0  1  0  0  0  0  0999 V2000
   38.6610   24.2100   40.4410 C   0  0  0  0  0  0  0  0  0  0  0  0
   37.4980   23.9160   39.7360 C   0  0  0  0  0  0  0  0  0  0  0  0
   36.6300   24.9680   39.4550 C   0  0  0  0  0  0  0  0  0  0  0  0
   36.9260   26.2330   39.8640 N   0  0  0  0  0  0  0  0  0  0  0  0
   38.0730   26.4720   40.5500 C   0  0  0  0  0  0  0  0  0  0  0  0
   38.9420   25.4730   40.8420 N   0  0  0  0  0  0  0  0  0  0  0  0
   39.3750   23.4450   40.6920 H   0  0  0  0  0  0  0  0  0  0  0  0
   35.7290   24.7280   38.9060 H   0  0  0  0  0  0  0  0  0  0  0  0
   37.2980   22.5700   39.3640 N   0  0  0  0  0  0  0  0  0  0  0  0
   38.0010   21.5600   40.1050 C   0  0  0  0  0  0  0  0  0  0  0  0
   37.8220   20.1830   39.5710 C   0  0  0  0  0  0  0  0  0  0  0  0
   36.4570   19.8680   39.3110 N   0  0  0  0  0  0  0  0  0  0  0  0
   35.6400   20.8880   38.7930 C   0  0  0  0  0  0  0  0  0  0  0  0
   36.4620   22.0690   38.3140 C   0  0  0  0  0  0  0  0  0  0  0  0
   37.6210   21.5890   41.1540 H   0  0  0  0  0  0  0  0  0  0  0  0
   39.0980   21.7840   40.1160 H   0  0  0  0  0  0  0  0  0  0  0  0
   38.2260   19.4590   40.3020 H   0  0  0  0  0  0  0  0  0  0  0  0
   38.3760   20.0850   38.6100 H   0  0  0  0  0  0  0  0  0  0  0  0
   36.4580   19.0080   38.6890 H   0  0  0  0  0  0  0  0  0  0  0  0
   35.0750   20.5160   37.8930 H   0  0  0  0  0  0  0  0  0  0  0  0
   34.8550   21.1830   39.5190 H   0  0  0  0  0  0  0  0  0  0  0  0
   37.1120   21.7040   37.5060 H   0  0  0  0  0  0  0  0  0  0  0  0
   35.7730   22.8480   37.9080 H   0  0  0  0  0  0  0  0  0  0  0  0
   38.6920   28.1050   42.2780 C   0  0  0  0  0  0  0  0  0  0  0  0
   38.3690   27.8430   40.9790 C   0  0  0  0  0  0  0  0  0  0  0  0
   38.3280   28.9000   40.0890 C   0  0  0  0  0  0  0  0  0  0  0  0
   38.6120   30.1820   40.5220 C   0  0  0  0  0  0  0  0  0  0  0  0
   38.9380   30.4350   41.8420 C   0  0  0  0  0  0  0  0  0  0  0  0
   38.9820   29.3820   42.7450 C   0  0  0  0  0  0  0  0  0  0  0  0
   39.1670   31.8010   41.9700 O   0  0  0  0  0  0  0  0  0  0  0  0
   38.5940   32.4380   40.8230 C   0  0  2  0  0  0  0  0  0  0  0  0
   38.6420   31.4090   39.8400 O   0  0  0  0  0  0  0  0  0  0  0  0
   38.7260   27.2890   42.9780 H   0  0  0  0  0  0  0  0  0  0  0  0
   38.0710   28.7140   39.0400 H   0  0  0  0  0  0  0  0  0  0  0  0
   39.2330   29.5640   43.7670 H   0  0  0  0  0  0  0  0  0  0  0  0
   37.5190   32.5750   41.0660 H   0  0  0  0  0  0  0  0  0  0  0  0
   39.2050   33.6580   40.4550 C   0  0  0  0  0  0  0  0  0  0  0  0
   38.9720   34.9980   40.5260 C   0  0  0  0  0  0  0  0  0  0  0  0
   38.0340   35.1900   41.0160 H   0  0  0  0  0  0  0  0  0  0  0  0
   39.8280   35.9390   40.0360 C   0  0  0  0  0  3  0  0  0  0  0  0
   41.0910   35.3010   39.3920 C   0  0  0  0  0  3  0  0  0  0  0  0
   40.7460   33.4600   39.6460 S   0  0  0  0  0  0  0  0  0  0  0  0
  1  7  1  0  0  0  0
  1  6  1  0  0  0  0
  2  1  2  0  0  0  0
  3  2  1  0  0  0  0
  3  4  2  0  0  0  0
  4  5  1  0  0  0  0
  5  6  2  0  0  0  0
  5 25  1  0  0  0  0
  8  3  1  0  0  0  0
  9  2  1  0  0  0  0
  9 10  1  0  0  0  0
 10 16  1  0  0  0  0
 10 15  1  0  0  0  0
 11 10  1  0  0  0  0
 11 17  1  0  0  0  0
 12 11  1  0  0  0  0
 13 12  1  0  0  0  0
 13 21  1  0  0  0  0
 14 13  1  0  0  0  0
 14  9  1  0  0  0  0
 18 11  1  0  0  0  0
 19 12  1  0  0  0  0
 20 13  1  0  0  0  0
 22 14  1  0  0  0  0
 23 14  1  0  0  0  0
 24 29  1  0  0  0  0
 24 33  1  0  0  0  0
 25 24  2  0  0  0  0
 26 27  2  0  0  0  0
 26 25  1  0  0  0  0
 27 28  1  0  0  0  0
 28 30  1  0  0  0  0
 28 29  2  0  0  0  0
 29 35  1  0  0  0  0
 31 36  1  1  0  0  0
 31 30  1  0  0  0  0
 32 27  1  0  0  0  0
 32 31  1  0  0  0  0
 34 26  1  0  0  0  0
 37 38  2  0  0  0  0
 37 31  1  0  0  0  0
 38 39  1  0  0  0  0
 40 38  1  0  0  0  0
 41 42  1  0  0  0  0
 41 40  2  0  0  0  0
 42 37  1  0  0  0  0
M  END
>  <minimizedAffinity>
-5.41625929

$$$$

 OpenBabel03242518273D

 42 46  0  0  1  0  0  0  0  0999 V2000
   40.8750   33.7850   40.4930 C   0  0  0  0  0  0  0  0  0  0  0  0
   42.0530   33.0500   40.3890 C   0  0  0  0  0  0  0  0  0  0  0  0
   41.9400   31.6790   40.1790 C   0  0  0  0  0  0  0  0  0  0  0  0
   40.7140   31.0940   40.0820 N   0  0  0  0  0  0  0  0  0  0  0  0
   39.5930   31.8530   40.1910 C   0  0  0  0  0  0  0  0  0  0  0  0
   39.6630   33.1910   40.3960 N   0  0  0  0  0  0  0  0  0  0  0  0
   40.8890   34.8490   40.6560 H   0  0  0  0  0  0  0  0  0  0  0  0
   42.8620   31.1180   40.0990 H   0  0  0  0  0  0  0  0  0  0  0  0
   43.2650   33.7630   40.5040 N   0  0  0  0  0  0  0  0  0  0  0  0
   43.5800   34.3430   41.7800 C   0  0  0  0  0  0  0  0  0  0  0  0
   44.8160   35.1720   41.7790 C   0  0  0  0  0  0  0  0  0  0  0  0
   45.9140   34.5190   41.1500 N   0  0  0  0  0  0  0  0  0  0  0  0
   45.6430   33.7370   40.0140 C   0  0  0  0  0  0  0  0  0  0  0  0
   44.2450   33.9890   39.4850 C   0  0  0  0  0  0  0  0  0  0  0  0
   43.7120   33.5050   42.5050 H   0  0  0  0  0  0  0  0  0  0  0  0
   42.7340   34.9870   42.1300 H   0  0  0  0  0  0  0  0  0  0  0  0
   45.0880   35.4110   42.8230 H   0  0  0  0  0  0  0  0  0  0  0  0
   44.6250   36.1170   41.2210 H   0  0  0  0  0  0  0  0  0  0  0  0
   46.6380   35.2700   40.9500 H   0  0  0  0  0  0  0  0  0  0  0  0
   46.3470   34.0070   39.1770 H   0  0  0  0  0  0  0  0  0  0  0  0
   45.8360   32.6620   40.2100 H   0  0  0  0  0  0  0  0  0  0  0  0
   44.1960   35.0480   39.1940 H   0  0  0  0  0  0  0  0  0  0  0  0
   44.0790   33.3530   38.5830 H   0  0  0  0  0  0  0  0  0  0  0  0
   37.4990   31.0390   41.1880 C   0  0  0  0  0  0  0  0  0  0  0  0
   38.2830   31.1990   40.0830 C   0  0  0  0  0  0  0  0  0  0  0  0
   37.8100   30.7310   38.8720 C   0  0  0  0  0  0  0  0  0  0  0  0
   36.5730   30.1200   38.8000 C   0  0  0  0  0  0  0  0  0  0  0  0
   35.7860   29.9630   39.9280 C   0  0  0  0  0  0  0  0  0  0  0  0
   36.2510   30.4290   41.1500 C   0  0  0  0  0  0  0  0  0  0  0  0
   34.6140   29.3220   39.5430 O   0  0  0  0  0  0  0  0  0  0  0  0
   34.8520   28.7300   38.2610 C   0  0  2  0  0  0  0  0  0  0  0  0
   35.8690   29.5660   37.7180 O   0  0  0  0  0  0  0  0  0  0  0  0
   37.8590   31.4000   42.1350 H   0  0  0  0  0  0  0  0  0  0  0  0
   38.4230   30.8490   37.9700 H   0  0  0  0  0  0  0  0  0  0  0  0
   35.6530   30.3140   42.0280 H   0  0  0  0  0  0  0  0  0  0  0  0
   35.3410   27.7560   38.4700 H   0  0  0  0  0  0  0  0  0  0  0  0
   33.7010   28.5750   37.4560 C   0  0  0  0  0  0  0  0  0  0  0  0
   32.5670   29.2520   37.1250 C   0  0  0  0  0  0  0  0  0  0  0  0
   32.5370   30.2020   37.6290 H   0  0  0  0  0  0  0  0  0  0  0  0
   31.6210   28.7670   36.2710 C   0  0  0  0  0  3  0  0  0  0  0  0
   31.9920   27.3600   35.7260 C   0  0  0  0  0  3  0  0  0  0  0  0
   33.6480   27.0550   36.5870 S   0  0  0  0  0  0  0  0  0  0  0  0
  1  7  1  0  0  0  0
  2  1  2  0  0  0  0
  2  9  1  0  0  0  0
  3  2  1  0  0  0  0
  4  3  2  0  0  0  0
  4  5  1  0  0  0  0
  5  6  2  0  0  0  0
  6  1  1  0  0  0  0
  8  3  1  0  0  0  0
  9 10  1  0  0  0  0
 10 16  1  0  0  0  0
 10 15  1  0  0  0  0
 11 10  1  0  0  0  0
 11 17  1  0  0  0  0
 12 11  1  0  0  0  0
 13 21  1  0  0  0  0
 13 12  1  0  0  0  0
 14 13  1  0  0  0  0
 14  9  1  0  0  0  0
 18 11  1  0  0  0  0
 19 12  1  0  0  0  0
 20 13  1  0  0  0  0
 22 14  1  0  0  0  0
 23 14  1  0  0  0  0
 24 33  1  0  0  0  0
 25  5  1  0  0  0  0
 25 24  2  0  0  0  0
 26 25  1  0  0  0  0
 27 26  2  0  0  0  0
 27 28  1  0  0  0  0
 28 29  2  0  0  0  0
 29 24  1  0  0  0  0
 29 35  1  0  0  0  0
 30 28  1  0  0  0  0
 31 36  1  1  0  0  0
 31 30  1  0  0  0  0
 32 31  1  0  0  0  0
 32 27  1  0  0  0  0
 34 26  1  0  0  0  0
 37 31  1  0  0  0  0
 38 37  2  0  0  0  0
 38 39  1  0  0  0  0
 40 38  1  0  0  0  0
 41 40  2  0  0  0  0
 41 42  1  0  0  0  0
 42 37  1  0  0  0  0
M  END
>  <minimizedAffinity>
-5.34058666

$$$$
