
 OpenBabel03252508353D

 32 34  0  0  1  0  0  0  0  0999 V2000
   36.5460   28.2090   40.9690 N   0  0  0  0  0  0  0  0  0  0  0  0
   36.9920   29.5250   41.3660 C   0  0  1  0  0  0  0  0  0  0  0  0
   37.6810   29.5460   42.6750 C   0  0  0  0  0  0  0  0  0  0  0  0
   37.1720   28.7100   43.6800 N   0  0  0  0  0  0  0  0  0  0  0  0
   36.5690   27.5070   43.2860 C   0  0  0  0  0  0  0  0  0  0  0  0
   36.8940   27.1420   41.8540 C   0  0  0  0  0  0  0  0  0  0  0  0
   36.0830   30.1560   41.4170 H   0  0  0  0  0  0  0  0  0  0  0  0
   37.7530   30.5920   43.0360 H   0  0  0  0  0  0  0  0  0  0  0  0
   38.7530   29.2430   42.4850 H   0  0  0  0  0  0  0  0  0  0  0  0
   37.9350   28.5420   44.4020 H   0  0  0  0  0  0  0  0  0  0  0  0
   36.7380   26.6420   43.9570 H   0  0  0  0  0  0  0  0  0  0  0  0
   35.4510   27.6650   43.2980 H   0  0  0  0  0  0  0  0  0  0  0  0
   36.5100   26.1560   41.5650 H   0  0  0  0  0  0  0  0  0  0  0  0
   38.0170   27.0410   41.8340 H   0  0  0  0  0  0  0  0  0  0  0  0
   34.7300   28.9790   39.6220 C   0  0  0  0  0  0  0  0  0  0  0  0
   35.8210   28.1120   39.7590 C   0  0  0  0  0  0  0  0  0  0  0  0
   36.1050   27.2330   38.7110 C   0  0  0  0  0  0  0  0  0  0  0  0
   35.3290   27.2350   37.5930 N   0  0  0  0  0  0  0  0  0  0  0  0
   34.2910   28.0780   37.4910 C   0  0  0  0  0  0  0  0  0  0  0  0
   33.9860   28.9380   38.4800 N   0  0  0  0  0  0  0  0  0  0  0  0
   34.4260   29.6950   40.3720 H   0  0  0  0  0  0  0  0  0  0  0  0
   36.9500   26.5800   38.8460 H   0  0  0  0  0  0  0  0  0  0  0  0
   33.6400   28.1240   36.6280 H   0  0  0  0  0  0  0  0  0  0  0  0
   37.9670   30.0110   40.3250 C   0  0  0  0  0  0  0  0  0  0  0  0
   37.6370   29.5150   39.3640 H   0  0  0  0  0  0  0  0  0  0  0  0
   38.9760   29.5870   40.5030 H   0  0  0  0  0  0  0  0  0  0  0  0
   38.0270   31.4660   40.1750 C   0  0  0  0  0  0  0  0  0  0  0  0
   37.0890   32.3800   39.5610 C   0  0  0  0  0  0  0  0  0  0  0  0
   36.2140   31.9280   39.1450 H   0  0  0  0  0  0  0  0  0  0  0  0
   37.4550   33.6920   39.6010 C   0  0  0  0  0  3  0  0  0  0  0  0
   38.6360   34.1480   40.1810 C   0  0  0  0  0  3  0  0  0  0  0  0
   39.4120   32.5590   40.7890 S   0  0  0  0  0  0  0  0  0  0  0  0
  1  2  1  0  0  0  0
  1  6  1  0  0  0  0
  2  7  1  1  0  0  0
  2  3  1  0  0  0  0
  3  8  1  0  0  0  0
  3  4  1  0  0  0  0
  4 10  1  0  0  0  0
  5 12  1  0  0  0  0
  5  4  1  0  0  0  0
  5 11  1  0  0  0  0
  6  5  1  0  0  0  0
  9  3  1  0  0  0  0
 13  6  1  0  0  0  0
 14  6  1  0  0  0  0
 15 16  1  0  0  0  0
 15 21  1  0  0  0  0
 16  1  1  0  0  0  0
 17 22  1  0  0  0  0
 17 16  2  0  0  0  0
 18 17  1  0  0  0  0
 19 18  2  0  0  0  0
 19 20  1  0  0  0  0
 20 15  2  0  0  0  0
 23 19  1  0  0  0  0
 24 26  1  0  0  0  0
 24  2  1  0  0  0  0
 25 24  1  0  0  0  0
 27 24  1  0  0  0  0
 27 32  1  0  0  0  0
 28 30  1  0  0  0  0
 28 27  2  0  0  0  0
 29 28  1  0  0  0  0
 30 31  2  0  0  0  0
 31 32  1  0  0  0  0
M  END
>  <minimizedAffinity>
-4.84658146

$$$$

 OpenBabel03252508353D

 32 34  0  0  1  0  0  0  0  0999 V2000
   37.0730   30.6460   39.4810 N   0  0  0  0  0  0  0  0  0  0  0  0
   36.1270   30.3570   40.5340 C   0  0  1  0  0  0  0  0  0  0  0  0
   35.2350   29.2160   40.2310 C   0  0  0  0  0  0  0  0  0  0  0  0
   34.7820   29.0910   38.9090 N   0  0  0  0  0  0  0  0  0  0  0  0
   35.6260   29.5420   37.8840 C   0  0  0  0  0  0  0  0  0  0  0  0
   37.0450   29.7590   38.3610 C   0  0  0  0  0  0  0  0  0  0  0  0
   35.5210   31.2750   40.6650 H   0  0  0  0  0  0  0  0  0  0  0  0
   34.3810   29.2190   40.9380 H   0  0  0  0  0  0  0  0  0  0  0  0
   35.8070   28.2760   40.4890 H   0  0  0  0  0  0  0  0  0  0  0  0
   34.4800   28.0840   38.7460 H   0  0  0  0  0  0  0  0  0  0  0  0
   35.6140   28.9430   36.9530 H   0  0  0  0  0  0  0  0  0  0  0  0
   35.2660   30.5650   37.5710 H   0  0  0  0  0  0  0  0  0  0  0  0
   37.7360   30.0170   37.5480 H   0  0  0  0  0  0  0  0  0  0  0  0
   37.3810   28.7470   38.7250 H   0  0  0  0  0  0  0  0  0  0  0  0
   37.2870   33.0090   39.7630 C   0  0  0  0  0  0  0  0  0  0  0  0
   37.9200   31.7630   39.6650 C   0  0  0  0  0  0  0  0  0  0  0  0
   39.3140   31.7200   39.7530 C   0  0  0  0  0  0  0  0  0  0  0  0
   40.0200   32.8690   39.9300 N   0  0  0  0  0  0  0  0  0  0  0  0
   39.3850   34.0460   40.0210 C   0  0  0  0  0  0  0  0  0  0  0  0
   38.0450   34.1280   39.9410 N   0  0  0  0  0  0  0  0  0  0  0  0
   36.2180   33.1510   39.7080 H   0  0  0  0  0  0  0  0  0  0  0  0
   39.7710   30.7480   39.6740 H   0  0  0  0  0  0  0  0  0  0  0  0
   39.8930   34.9910   40.1620 H   0  0  0  0  0  0  0  0  0  0  0  0
   36.9130   30.0090   41.7730 C   0  0  0  0  0  0  0  0  0  0  0  0
   36.2800   30.3830   42.6320 H   0  0  0  0  0  0  0  0  0  0  0  0
   37.8320   30.6250   41.8400 H   0  0  0  0  0  0  0  0  0  0  0  0
   37.2200   28.5870   41.9220 C   0  0  0  0  0  0  0  0  0  0  0  0
   36.5900   27.5770   42.7430 C   0  0  0  0  0  0  0  0  0  0  0  0
   35.7720   27.9180   43.3410 H   0  0  0  0  0  0  0  0  0  0  0  0
   37.1290   26.3290   42.6360 C   0  0  0  0  0  3  0  0  0  0  0  0
   38.2060   26.0210   41.8090 C   0  0  0  0  0  3  0  0  0  0  0  0
   38.5820   27.6750   41.0230 S   0  0  0  0  0  0  0  0  0  0  0  0
  1 16  1  0  0  0  0
  1  2  1  0  0  0  0
  2  7  1  1  0  0  0
  2 24  1  0  0  0  0
  3  9  1  0  0  0  0
  3  2  1  0  0  0  0
  3  8  1  0  0  0  0
  4  3  1  0  0  0  0
  5  6  1  0  0  0  0
  5  4  1  0  0  0  0
  6 14  1  0  0  0  0
  6  1  1  0  0  0  0
 10  4  1  0  0  0  0
 11  5  1  0  0  0  0
 12  5  1  0  0  0  0
 13  6  1  0  0  0  0
 15 20  1  0  0  0  0
 16 17  1  0  0  0  0
 16 15  2  0  0  0  0
 17 18  2  0  0  0  0
 18 19  1  0  0  0  0
 19 23  1  0  0  0  0
 20 19  2  0  0  0  0
 21 15  1  0  0  0  0
 22 17  1  0  0  0  0
 24 26  1  0  0  0  0
 24 27  1  0  0  0  0
 24 25  1  0  0  0  0
 27 28  2  0  0  0  0
 28 29  1  0  0  0  0
 30 28  1  0  0  0  0
 31 30  2  0  0  0  0
 32 31  1  0  0  0  0
 32 27  1  0  0  0  0
M  END
>  <minimizedAffinity>
-4.71031713

$$$$

 OpenBabel03252508353D

 32 34  0  0  1  0  0  0  0  0999 V2000
   38.3550   31.3690   40.6630 N   0  0  0  0  0  0  0  0  0  0  0  0
   37.2870   31.4080   39.6900 C   0  0  1  0  0  0  0  0  0  0  0  0
   37.2980   32.6250   38.8490 C   0  0  0  0  0  0  0  0  0  0  0  0
   37.6410   33.8330   39.4730 N   0  0  0  0  0  0  0  0  0  0  0  0
   38.5430   33.7810   40.5460 C   0  0  0  0  0  0  0  0  0  0  0  0
   39.2780   32.4600   40.6150 C   0  0  0  0  0  0  0  0  0  0  0  0
   36.3420   31.3670   40.2680 H   0  0  0  0  0  0  0  0  0  0  0  0
   36.3250   32.7180   38.3250 H   0  0  0  0  0  0  0  0  0  0  0  0
   38.0430   32.4420   38.0200 H   0  0  0  0  0  0  0  0  0  0  0  0
   37.9630   34.5210   38.7300 H   0  0  0  0  0  0  0  0  0  0  0  0
   39.2540   34.6270   40.6170 H   0  0  0  0  0  0  0  0  0  0  0  0
   37.9430   33.8290   41.5000 H   0  0  0  0  0  0  0  0  0  0  0  0
   40.0560   32.4420   41.3880 H   0  0  0  0  0  0  0  0  0  0  0  0
   39.8310   32.3900   39.6350 H   0  0  0  0  0  0  0  0  0  0  0  0
   39.6390   29.7250   41.8280 C   0  0  0  0  0  0  0  0  0  0  0  0
   38.3780   30.2690   41.5500 C   0  0  0  0  0  0  0  0  0  0  0  0
   37.2600   29.6940   42.1590 C   0  0  0  0  0  0  0  0  0  0  0  0
   37.4130   28.6340   42.9980 N   0  0  0  0  0  0  0  0  0  0  0  0
   38.6330   28.1360   43.2440 C   0  0  0  0  0  0  0  0  0  0  0  0
   39.7330   28.6620   42.6760 N   0  0  0  0  0  0  0  0  0  0  0  0
   40.5640   30.0950   41.4100 H   0  0  0  0  0  0  0  0  0  0  0  0
   36.3060   30.1350   41.9270 H   0  0  0  0  0  0  0  0  0  0  0  0
   38.8140   27.2950   43.9010 H   0  0  0  0  0  0  0  0  0  0  0  0
   37.4530   30.2180   38.7800 C   0  0  0  0  0  0  0  0  0  0  0  0
   38.0540   29.4740   39.3830 H   0  0  0  0  0  0  0  0  0  0  0  0
   38.1220   30.4640   37.9310 H   0  0  0  0  0  0  0  0  0  0  0  0
   36.2000   29.6280   38.3110 C   0  0  0  0  0  0  0  0  0  0  0  0
   35.0110   29.2560   39.0450 C   0  0  0  0  0  0  0  0  0  0  0  0
   35.0480   29.4340   40.0980 H   0  0  0  0  0  0  0  0  0  0  0  0
   34.0060   28.7310   38.2860 C   0  0  0  0  0  3  0  0  0  0  0  0
   34.0910   28.5540   36.9080 C   0  0  0  0  0  3  0  0  0  0  0  0
   35.8070   29.1950   36.5350 S   0  0  0  0  0  0  0  0  0  0  0  0
  1 16  1  0  0  0  0
  2  7  1  1  0  0  0
  2  1  1  0  0  0  0
  3  4  1  0  0  0  0
  3  2  1  0  0  0  0
  4  5  1  0  0  0  0
  5  6  1  0  0  0  0
  5 11  1  0  0  0  0
  5 12  1  0  0  0  0
  6  1  1  0  0  0  0
  6 13  1  0  0  0  0
  8  3  1  0  0  0  0
  9  3  1  0  0  0  0
 10  4  1  0  0  0  0
 14  6  1  0  0  0  0
 15 20  1  0  0  0  0
 16 15  2  0  0  0  0
 16 17  1  0  0  0  0
 17 18  2  0  0  0  0
 18 19  1  0  0  0  0
 19 23  1  0  0  0  0
 20 19  2  0  0  0  0
 21 15  1  0  0  0  0
 22 17  1  0  0  0  0
 24 25  1  0  0  0  0
 24  2  1  0  0  0  0
 26 24  1  0  0  0  0
 27 24  1  0  0  0  0
 27 28  2  0  0  0  0
 28 29  1  0  0  0  0
 30 28  1  0  0  0  0
 31 30  2  0  0  0  0
 32 31  1  0  0  0  0
 32 27  1  0  0  0  0
M  END
>  <minimizedAffinity>
-4.58373213

$$$$

 OpenBabel03252508353D

 32 34  0  0  1  0  0  0  0  0999 V2000
   37.8170   27.1990   41.5030 N   0  0  0  0  0  0  0  0  0  0  0  0
   36.6000   27.8220   41.0350 C   0  0  1  0  0  0  0  0  0  0  0  0
   36.4650   29.2380   41.4450 C   0  0  0  0  0  0  0  0  0  0  0  0
   36.9040   29.5750   42.7330 N   0  0  0  0  0  0  0  0  0  0  0  0
   37.9740   28.8450   43.2720 C   0  0  0  0  0  0  0  0  0  0  0  0
   38.7140   28.0500   42.2190 C   0  0  0  0  0  0  0  0  0  0  0  0
   35.7660   27.2320   41.4630 H   0  0  0  0  0  0  0  0  0  0  0  0
   35.4170   29.5660   41.2900 H   0  0  0  0  0  0  0  0  0  0  0  0
   37.0610   29.8500   40.7070 H   0  0  0  0  0  0  0  0  0  0  0  0
   37.0940   30.6210   42.7660 H   0  0  0  0  0  0  0  0  0  0  0  0
   38.6830   29.4220   43.8960 H   0  0  0  0  0  0  0  0  0  0  0  0
   37.5420   28.0710   43.9700 H   0  0  0  0  0  0  0  0  0  0  0  0
   39.6110   27.5540   42.6090 H   0  0  0  0  0  0  0  0  0  0  0  0
   39.0950   28.8240   41.4930 H   0  0  0  0  0  0  0  0  0  0  0  0
   39.1630   25.4890   40.5170 C   0  0  0  0  0  0  0  0  0  0  0  0
   37.9930   25.8280   41.2080 C   0  0  0  0  0  0  0  0  0  0  0  0
   37.1030   24.8040   41.5460 C   0  0  0  0  0  0  0  0  0  0  0  0
   37.3860   23.5180   41.2050 N   0  0  0  0  0  0  0  0  0  0  0  0
   38.5150   23.2250   40.5440 C   0  0  0  0  0  0  0  0  0  0  0  0
   39.3950   24.1830   40.2000 N   0  0  0  0  0  0  0  0  0  0  0  0
   39.9130   26.2030   40.2100 H   0  0  0  0  0  0  0  0  0  0  0  0
   36.2140   25.0960   42.0770 H   0  0  0  0  0  0  0  0  0  0  0  0
   38.7910   22.2230   40.2460 H   0  0  0  0  0  0  0  0  0  0  0  0
   36.6150   27.7800   39.5280 C   0  0  0  0  0  0  0  0  0  0  0  0
   35.5340   27.6320   39.2310 H   0  0  0  0  0  0  0  0  0  0  0  0
   37.1130   26.8580   39.1660 H   0  0  0  0  0  0  0  0  0  0  0  0
   37.1800   28.9690   38.8890 C   0  0  0  0  0  0  0  0  0  0  0  0
   36.5210   30.0990   38.2730 C   0  0  0  0  0  0  0  0  0  0  0  0
   35.4530   30.0660   38.2770 H   0  0  0  0  0  0  0  0  0  0  0  0
   37.3600   31.0520   37.7730 C   0  0  0  0  0  3  0  0  0  0  0  0
   38.7480   30.9690   37.8350 C   0  0  0  0  0  3  0  0  0  0  0  0
   39.0040   29.3380   38.7140 S   0  0  0  0  0  0  0  0  0  0  0  0
  1  6  1  0  0  0  0
  2  3  1  0  0  0  0
  2  7  1  1  0  0  0
  2  1  1  0  0  0  0
  3  4  1  0  0  0  0
  4 10  1  0  0  0  0
  4  5  1  0  0  0  0
  5 11  1  0  0  0  0
  5 12  1  0  0  0  0
  6 13  1  0  0  0  0
  6  5  1  0  0  0  0
  8  3  1  0  0  0  0
  9  3  1  0  0  0  0
 14  6  1  0  0  0  0
 15 16  1  0  0  0  0
 16  1  1  0  0  0  0
 16 17  2  0  0  0  0
 17 22  1  0  0  0  0
 18 17  1  0  0  0  0
 19 18  2  0  0  0  0
 20 15  2  0  0  0  0
 20 19  1  0  0  0  0
 21 15  1  0  0  0  0
 23 19  1  0  0  0  0
 24  2  1  0  0  0  0
 25 24  1  0  0  0  0
 26 24  1  0  0  0  0
 27 24  1  0  0  0  0
 28 29  1  0  0  0  0
 28 27  2  0  0  0  0
 30 31  2  0  0  0  0
 30 28  1  0  0  0  0
 31 32  1  0  0  0  0
 32 27  1  0  0  0  0
M  END
>  <minimizedAffinity>
-4.42889166

$$$$

 OpenBabel03252508353D

 32 34  0  0  1  0  0  0  0  0999 V2000
   38.1020   30.0780   40.7320 N   0  0  0  0  0  0  0  0  0  0  0  0
   38.0560   29.7530   42.1400 C   0  0  1  0  0  0  0  0  0  0  0  0
   37.1280   28.6460   42.4610 C   0  0  0  0  0  0  0  0  0  0  0  0
   35.9200   28.5970   41.7510 N   0  0  0  0  0  0  0  0  0  0  0  0
   35.9130   29.0840   40.4360 C   0  0  0  0  0  0  0  0  0  0  0  0
   37.3100   29.2500   39.8780 C   0  0  0  0  0  0  0  0  0  0  0  0
   37.7250   30.6740   42.6580 H   0  0  0  0  0  0  0  0  0  0  0  0
   36.9410   28.6280   43.5530 H   0  0  0  0  0  0  0  0  0  0  0  0
   37.6850   27.6840   42.2590 H   0  0  0  0  0  0  0  0  0  0  0  0
   35.5370   27.6060   41.7980 H   0  0  0  0  0  0  0  0  0  0  0  0
   35.2710   28.5340   39.7220 H   0  0  0  0  0  0  0  0  0  0  0  0
   35.4850   30.1290   40.4610 H   0  0  0  0  0  0  0  0  0  0  0  0
   37.3170   29.5360   38.8190 H   0  0  0  0  0  0  0  0  0  0  0  0
   37.7530   28.2140   39.9080 H   0  0  0  0  0  0  0  0  0  0  0  0
   38.5720   32.4150   40.8850 C   0  0  0  0  0  0  0  0  0  0  0  0
   38.9160   31.1680   40.3490 C   0  0  0  0  0  0  0  0  0  0  0  0
   40.0170   31.0970   39.4910 C   0  0  0  0  0  0  0  0  0  0  0  0
   40.7240   32.2220   39.1980 N   0  0  0  0  0  0  0  0  0  0  0  0
   40.3700   33.4010   39.7270 C   0  0  0  0  0  0  0  0  0  0  0  0
   39.3160   33.5090   40.5560 N   0  0  0  0  0  0  0  0  0  0  0  0
   37.7420   32.5780   41.5560 H   0  0  0  0  0  0  0  0  0  0  0  0
   40.2570   30.1240   39.0960 H   0  0  0  0  0  0  0  0  0  0  0  0
   40.8930   34.3270   39.5300 H   0  0  0  0  0  0  0  0  0  0  0  0
   39.4410   29.3280   42.5560 C   0  0  0  0  0  0  0  0  0  0  0  0
   39.5830   29.7710   43.5870 H   0  0  0  0  0  0  0  0  0  0  0  0
   40.2100   29.8410   41.9450 H   0  0  0  0  0  0  0  0  0  0  0  0
   39.6580   27.8810   42.5690 C   0  0  0  0  0  0  0  0  0  0  0  0
   39.6630   26.9470   43.6730 C   0  0  0  0  0  0  0  0  0  0  0  0
   39.4840   27.3760   44.6360 H   0  0  0  0  0  0  0  0  0  0  0  0
   39.8930   25.6480   43.3280 C   0  0  0  0  0  3  0  0  0  0  0  0
   40.1130   25.2230   42.0200 C   0  0  0  0  0  3  0  0  0  0  0  0
   39.9930   26.8260   41.0630 S   0  0  0  0  0  0  0  0  0  0  0  0
  1  2  1  0  0  0  0
  2  3  1  0  0  0  0
  2 24  1  0  0  0  0
  2  7  1  1  0  0  0
  3  8  1  0  0  0  0
  4 10  1  0  0  0  0
  4  3  1  0  0  0  0
  5 12  1  0  0  0  0
  5  4  1  0  0  0  0
  6 14  1  0  0  0  0
  6  5  1  0  0  0  0
  6  1  1  0  0  0  0
  9  3  1  0  0  0  0
 11  5  1  0  0  0  0
 13  6  1  0  0  0  0
 15 21  1  0  0  0  0
 16  1  1  0  0  0  0
 16 15  2  0  0  0  0
 17 16  1  0  0  0  0
 18 17  2  0  0  0  0
 18 19  1  0  0  0  0
 19 20  2  0  0  0  0
 20 15  1  0  0  0  0
 22 17  1  0  0  0  0
 23 19  1  0  0  0  0
 24 27  1  0  0  0  0
 24 25  1  0  0  0  0
 26 24  1  0  0  0  0
 27 28  2  0  0  0  0
 28 29  1  0  0  0  0
 30 28  1  0  0  0  0
 31 30  2  0  0  0  0
 32 31  1  0  0  0  0
 32 27  1  0  0  0  0
M  END
>  <minimizedAffinity>
-4.4268775

$$$$

 OpenBabel03252508353D

 32 34  0  0  1  0  0  0  0  0999 V2000
   38.1810   30.9410   40.9500 N   0  0  0  0  0  0  0  0  0  0  0  0
   39.2070   30.2500   41.6980 C   0  0  1  0  0  0  0  0  0  0  0  0
   40.2330   31.1530   42.2670 C   0  0  0  0  0  0  0  0  0  0  0  0
   40.6350   32.2410   41.4800 N   0  0  0  0  0  0  0  0  0  0  0  0
   39.6900   32.8050   40.6110 C   0  0  0  0  0  0  0  0  0  0  0  0
   38.2780   32.3670   40.9350 C   0  0  0  0  0  0  0  0  0  0  0  0
   39.6860   29.5480   40.9880 H   0  0  0  0  0  0  0  0  0  0  0  0
   41.1100   30.5560   42.5870 H   0  0  0  0  0  0  0  0  0  0  0  0
   39.8090   31.5620   43.2310 H   0  0  0  0  0  0  0  0  0  0  0  0
   41.0650   32.9790   42.1140 H   0  0  0  0  0  0  0  0  0  0  0  0
   39.7400   33.9050   40.4930 H   0  0  0  0  0  0  0  0  0  0  0  0
   39.8900   32.3970   39.5780 H   0  0  0  0  0  0  0  0  0  0  0  0
   37.5210   32.8760   40.3260 H   0  0  0  0  0  0  0  0  0  0  0  0
   38.1030   32.7280   41.9880 H   0  0  0  0  0  0  0  0  0  0  0  0
   37.6330   29.3680   39.2380 C   0  0  0  0  0  0  0  0  0  0  0  0
   37.1980   30.1450   40.3190 C   0  0  0  0  0  0  0  0  0  0  0  0
   35.8510   30.0780   40.6840 C   0  0  0  0  0  0  0  0  0  0  0  0
   35.0000   29.2710   39.9940 N   0  0  0  0  0  0  0  0  0  0  0  0
   35.4460   28.5380   38.9650 C   0  0  0  0  0  0  0  0  0  0  0  0
   36.7360   28.5770   38.5830 N   0  0  0  0  0  0  0  0  0  0  0  0
   38.6510   29.3470   38.8770 H   0  0  0  0  0  0  0  0  0  0  0  0
   35.5480   30.6870   41.5180 H   0  0  0  0  0  0  0  0  0  0  0  0
   34.8160   27.8810   38.3810 H   0  0  0  0  0  0  0  0  0  0  0  0
   38.5360   29.5360   42.8430 C   0  0  0  0  0  0  0  0  0  0  0  0
   37.4330   29.7440   42.7080 H   0  0  0  0  0  0  0  0  0  0  0  0
   38.7770   30.0280   43.8070 H   0  0  0  0  0  0  0  0  0  0  0  0
   38.7990   28.0980   42.9050 C   0  0  0  0  0  0  0  0  0  0  0  0
   39.8530   27.3700   43.5760 C   0  0  0  0  0  0  0  0  0  0  0  0
   40.5560   27.9720   44.1120 H   0  0  0  0  0  0  0  0  0  0  0  0
   39.7980   26.0160   43.4330 C   0  0  0  0  0  3  0  0  0  0  0  0
   38.8150   25.3550   42.7000 C   0  0  0  0  0  3  0  0  0  0  0  0
   37.7660   26.7750   42.0840 S   0  0  0  0  0  0  0  0  0  0  0  0
  1  2  1  0  0  0  0
  2  7  1  6  0  0  0
  2  3  1  0  0  0  0
  2 24  1  0  0  0  0
  3  8  1  0  0  0  0
  3  9  1  0  0  0  0
  4 10  1  0  0  0  0
  4  3  1  0  0  0  0
  5  6  1  0  0  0  0
  5  4  1  0  0  0  0
  6  1  1  0  0  0  0
  6 14  1  0  0  0  0
 11  5  1  0  0  0  0
 12  5  1  0  0  0  0
 13  6  1  0  0  0  0
 15 16  1  0  0  0  0
 16 17  2  0  0  0  0
 16  1  1  0  0  0  0
 17 22  1  0  0  0  0
 18 17  1  0  0  0  0
 19 18  2  0  0  0  0
 20 19  1  0  0  0  0
 20 15  2  0  0  0  0
 21 15  1  0  0  0  0
 23 19  1  0  0  0  0
 24 27  1  0  0  0  0
 24 26  1  0  0  0  0
 25 24  1  0  0  0  0
 27 28  2  0  0  0  0
 28 29  1  0  0  0  0
 30 28  1  0  0  0  0
 31 30  2  0  0  0  0
 32 31  1  0  0  0  0
 32 27  1  0  0  0  0
M  END
>  <minimizedAffinity>
-4.4174509

$$$$

 OpenBabel03252508353D

 32 34  0  0  1  0  0  0  0  0999 V2000
   38.1210   29.5540   41.0030 N   0  0  0  0  0  0  0  0  0  0  0  0
   36.7170   29.6890   41.3220 C   0  0  1  0  0  0  0  0  0  0  0  0
   36.0920   30.8950   40.7340 C   0  0  0  0  0  0  0  0  0  0  0  0
   36.8600   32.0670   40.7090 N   0  0  0  0  0  0  0  0  0  0  0  0
   38.2510   31.9350   40.5840 C   0  0  0  0  0  0  0  0  0  0  0  0
   38.6580   30.5500   40.1310 C   0  0  0  0  0  0  0  0  0  0  0  0
   36.6550   29.7420   42.4270 H   0  0  0  0  0  0  0  0  0  0  0  0
   35.1150   31.0780   41.2250 H   0  0  0  0  0  0  0  0  0  0  0  0
   35.8230   30.6360   39.6680 H   0  0  0  0  0  0  0  0  0  0  0  0
   36.4660   32.7180   39.9660 H   0  0  0  0  0  0  0  0  0  0  0  0
   38.7540   32.7090   39.9740 H   0  0  0  0  0  0  0  0  0  0  0  0
   38.6980   32.0470   41.6150 H   0  0  0  0  0  0  0  0  0  0  0  0
   39.7340   30.4630   39.9350 H   0  0  0  0  0  0  0  0  0  0  0  0
   38.1620   30.4220   39.1270 H   0  0  0  0  0  0  0  0  0  0  0  0
   38.8190   28.4070   42.9790 C   0  0  0  0  0  0  0  0  0  0  0  0
   38.8090   28.4620   41.5800 C   0  0  0  0  0  0  0  0  0  0  0  0
   39.4690   27.4540   40.8720 C   0  0  0  0  0  0  0  0  0  0  0  0
   40.0990   26.4520   41.5450 N   0  0  0  0  0  0  0  0  0  0  0  0
   40.0900   26.4270   42.8850 C   0  0  0  0  0  0  0  0  0  0  0  0
   39.4660   27.3800   43.6000 N   0  0  0  0  0  0  0  0  0  0  0  0
   38.3400   29.1350   43.6180 H   0  0  0  0  0  0  0  0  0  0  0  0
   39.4440   27.5240   39.7980 H   0  0  0  0  0  0  0  0  0  0  0  0
   40.5730   25.6570   43.4720 H   0  0  0  0  0  0  0  0  0  0  0  0
   36.0040   28.4830   40.7660 C   0  0  0  0  0  0  0  0  0  0  0  0
   35.1350   28.3110   41.4690 H   0  0  0  0  0  0  0  0  0  0  0  0
   36.6210   27.5710   40.8890 H   0  0  0  0  0  0  0  0  0  0  0  0
   35.5450   28.6280   39.3840 C   0  0  0  0  0  0  0  0  0  0  0  0
   34.2310   28.9340   38.8640 C   0  0  0  0  0  0  0  0  0  0  0  0
   33.4690   29.0750   39.6000 H   0  0  0  0  0  0  0  0  0  0  0  0
   34.1520   29.0030   37.5050 C   0  0  0  0  0  3  0  0  0  0  0  0
   35.2360   28.7960   36.6560 C   0  0  0  0  0  3  0  0  0  0  0  0
   36.6190   28.4480   37.8650 S   0  0  0  0  0  0  0  0  0  0  0  0
  1  2  1  0  0  0  0
  1 16  1  0  0  0  0
  2  7  1  1  0  0  0
  3  8  1  0  0  0  0
  3  2  1  0  0  0  0
  4  3  1  0  0  0  0
  5  4  1  0  0  0  0
  5 12  1  0  0  0  0
  6  5  1  0  0  0  0
  6  1  1  0  0  0  0
  9  3  1  0  0  0  0
 10  4  1  0  0  0  0
 11  5  1  0  0  0  0
 13  6  1  0  0  0  0
 14  6  1  0  0  0  0
 15 20  1  0  0  0  0
 15 21  1  0  0  0  0
 16 15  2  0  0  0  0
 17 18  2  0  0  0  0
 17 16  1  0  0  0  0
 18 19  1  0  0  0  0
 19 23  1  0  0  0  0
 19 20  2  0  0  0  0
 22 17  1  0  0  0  0
 24 26  1  0  0  0  0
 24  2  1  0  0  0  0
 24 25  1  0  0  0  0
 27 24  1  0  0  0  0
 28 27  2  0  0  0  0
 28 29  1  0  0  0  0
 30 28  1  0  0  0  0
 31 30  2  0  0  0  0
 31 32  1  0  0  0  0
 32 27  1  0  0  0  0
M  END
>  <minimizedAffinity>
-4.41013813

$$$$

 OpenBabel03252508353D

 32 34  0  0  1  0  0  0  0  0999 V2000
   36.7630   28.4520   39.8000 N   0  0  0  0  0  0  0  0  0  0  0  0
   37.0670   29.7210   39.1800 C   0  0  1  0  0  0  0  0  0  0  0  0
   36.4120   29.9110   37.8670 C   0  0  0  0  0  0  0  0  0  0  0  0
   36.3260   28.7920   37.0270 N   0  0  0  0  0  0  0  0  0  0  0  0
   36.2150   27.5290   37.6290 C   0  0  0  0  0  0  0  0  0  0  0  0
   35.8400   27.6210   39.0920 C   0  0  0  0  0  0  0  0  0  0  0  0
   38.1670   29.7460   39.0510 H   0  0  0  0  0  0  0  0  0  0  0  0
   36.8880   30.7610   37.3390 H   0  0  0  0  0  0  0  0  0  0  0  0
   35.3600   30.2670   38.0760 H   0  0  0  0  0  0  0  0  0  0  0  0
   35.5460   28.9530   36.3220 H   0  0  0  0  0  0  0  0  0  0  0  0
   35.5640   26.8030   37.1050 H   0  0  0  0  0  0  0  0  0  0  0  0
   37.2390   27.0560   37.6210 H   0  0  0  0  0  0  0  0  0  0  0  0
   35.6540   26.6410   39.5490 H   0  0  0  0  0  0  0  0  0  0  0  0
   34.8420   28.1460   39.0980 H   0  0  0  0  0  0  0  0  0  0  0  0
   36.5610   27.8650   42.1070 C   0  0  0  0  0  0  0  0  0  0  0  0
   37.4010   28.1650   41.0280 C   0  0  0  0  0  0  0  0  0  0  0  0
   38.7820   28.1590   41.2430 C   0  0  0  0  0  0  0  0  0  0  0  0
   39.2770   27.8660   42.4760 N   0  0  0  0  0  0  0  0  0  0  0  0
   38.4450   27.5820   43.4890 C   0  0  0  0  0  0  0  0  0  0  0  0
   37.1110   27.5790   43.3210 N   0  0  0  0  0  0  0  0  0  0  0  0
   35.4820   27.8420   42.0460 H   0  0  0  0  0  0  0  0  0  0  0  0
   39.4020   28.3930   40.3950 H   0  0  0  0  0  0  0  0  0  0  0  0
   38.7810   27.3430   44.4890 H   0  0  0  0  0  0  0  0  0  0  0  0
   36.5760   30.8090   40.1010 C   0  0  0  0  0  0  0  0  0  0  0  0
   36.4490   30.3030   41.1050 H   0  0  0  0  0  0  0  0  0  0  0  0
   35.5440   31.1140   39.8330 H   0  0  0  0  0  0  0  0  0  0  0  0
   37.4600   31.9700   40.2020 C   0  0  0  0  0  0  0  0  0  0  0  0
   37.3070   33.3080   39.6730 C   0  0  0  0  0  0  0  0  0  0  0  0
   36.4110   33.4810   39.1180 H   0  0  0  0  0  0  0  0  0  0  0  0
   38.3310   34.1610   39.9620 C   0  0  0  0  0  3  0  0  0  0  0  0
   39.4520   33.8000   40.7050 C   0  0  0  0  0  3  0  0  0  0  0  0
   39.0980   32.0070   41.1010 S   0  0  0  0  0  0  0  0  0  0  0  0
  1 16  1  0  0  0  0
  2  7  1  6  0  0  0
  2  1  1  0  0  0  0
  2 24  1  0  0  0  0
  3  9  1  0  0  0  0
  3  2  1  0  0  0  0
  4  5  1  0  0  0  0
  4  3  1  0  0  0  0
  5  6  1  0  0  0  0
  6 14  1  0  0  0  0
  6 13  1  0  0  0  0
  6  1  1  0  0  0  0
  8  3  1  0  0  0  0
 10  4  1  0  0  0  0
 11  5  1  0  0  0  0
 12  5  1  0  0  0  0
 15 20  1  0  0  0  0
 16 17  1  0  0  0  0
 16 15  2  0  0  0  0
 17 18  2  0  0  0  0
 18 19  1  0  0  0  0
 19 23  1  0  0  0  0
 20 19  2  0  0  0  0
 21 15  1  0  0  0  0
 22 17  1  0  0  0  0
 24 27  1  0  0  0  0
 24 25  1  0  0  0  0
 26 24  1  0  0  0  0
 27 32  1  0  0  0  0
 28 30  1  0  0  0  0
 28 27  2  0  0  0  0
 29 28  1  0  0  0  0
 30 31  2  0  0  0  0
 31 32  1  0  0  0  0
M  END
>  <minimizedAffinity>
-4.36938429

$$$$

 OpenBabel03252508353D

 32 34  0  0  1  0  0  0  0  0999 V2000
   37.5510   27.6950   40.9420 N   0  0  0  0  0  0  0  0  0  0  0  0
   37.0790   27.1000   42.1720 C   0  0  1  0  0  0  0  0  0  0  0  0
   37.2010   25.6250   42.2000 C   0  0  0  0  0  0  0  0  0  0  0  0
   36.9300   24.9380   41.0080 N   0  0  0  0  0  0  0  0  0  0  0  0
   37.2160   25.5870   39.7980 C   0  0  0  0  0  0  0  0  0  0  0  0
   38.1140   26.7900   39.9900 C   0  0  0  0  0  0  0  0  0  0  0  0
   36.0120   27.3840   42.2620 H   0  0  0  0  0  0  0  0  0  0  0  0
   36.5900   25.2220   43.0320 H   0  0  0  0  0  0  0  0  0  0  0  0
   38.2660   25.3910   42.4970 H   0  0  0  0  0  0  0  0  0  0  0  0
   37.3930   23.9820   41.0530 H   0  0  0  0  0  0  0  0  0  0  0  0
   37.5980   24.9410   38.9850 H   0  0  0  0  0  0  0  0  0  0  0  0
   36.2480   26.0090   39.4000 H   0  0  0  0  0  0  0  0  0  0  0  0
   38.4250   27.2470   39.0430 H   0  0  0  0  0  0  0  0  0  0  0  0
   39.0580   26.3710   40.4420 H   0  0  0  0  0  0  0  0  0  0  0  0
   38.5360   29.7890   40.3500 C   0  0  0  0  0  0  0  0  0  0  0  0
   37.4100   29.0950   40.8090 C   0  0  0  0  0  0  0  0  0  0  0  0
   36.2530   29.8250   41.0960 C   0  0  0  0  0  0  0  0  0  0  0  0
   36.2420   31.1750   40.9270 N   0  0  0  0  0  0  0  0  0  0  0  0
   37.3370   31.8110   40.4850 C   0  0  0  0  0  0  0  0  0  0  0  0
   38.4680   31.1430   40.1990 N   0  0  0  0  0  0  0  0  0  0  0  0
   39.4770   29.3210   40.1000 H   0  0  0  0  0  0  0  0  0  0  0  0
   35.4040   29.2640   41.4470 H   0  0  0  0  0  0  0  0  0  0  0  0
   37.3860   32.8810   40.3320 H   0  0  0  0  0  0  0  0  0  0  0  0
   37.9160   27.6520   43.2980 C   0  0  0  0  0  0  0  0  0  0  0  0
   37.3730   27.3440   44.2410 H   0  0  0  0  0  0  0  0  0  0  0  0
   37.8640   28.7590   43.3190 H   0  0  0  0  0  0  0  0  0  0  0  0
   39.3030   27.1890   43.3110 C   0  0  0  0  0  0  0  0  0  0  0  0
   39.8550   25.9040   43.6790 C   0  0  0  0  0  0  0  0  0  0  0  0
   39.1420   25.1730   43.9950 H   0  0  0  0  0  0  0  0  0  0  0  0
   41.2100   25.8060   43.5670 C   0  0  0  0  0  3  0  0  0  0  0  0
   42.0280   26.8480   43.1380 C   0  0  0  0  0  3  0  0  0  0  0  0
   40.7880   28.2110   42.8180 S   0  0  0  0  0  0  0  0  0  0  0  0
  1  2  1  0  0  0  0
  2  3  1  0  0  0  0
  2  7  1  1  0  0  0
  2 24  1  0  0  0  0
  3  9  1  0  0  0  0
  3  8  1  0  0  0  0
  4 10  1  0  0  0  0
  4  3  1  0  0  0  0
  5  6  1  0  0  0  0
  5  4  1  0  0  0  0
  6 14  1  0  0  0  0
  6  1  1  0  0  0  0
 11  5  1  0  0  0  0
 12  5  1  0  0  0  0
 13  6  1  0  0  0  0
 15 16  1  0  0  0  0
 16  1  1  0  0  0  0
 16 17  2  0  0  0  0
 17 22  1  0  0  0  0
 18 17  1  0  0  0  0
 19 18  2  0  0  0  0
 20 15  2  0  0  0  0
 20 19  1  0  0  0  0
 21 15  1  0  0  0  0
 23 19  1  0  0  0  0
 24 27  1  0  0  0  0
 24 26  1  0  0  0  0
 24 25  1  0  0  0  0
 27 28  2  0  0  0  0
 28 29  1  0  0  0  0
 30 28  1  0  0  0  0
 31 30  2  0  0  0  0
 32 31  1  0  0  0  0
 32 27  1  0  0  0  0
M  END
>  <minimizedAffinity>
-4.36018038

$$$$
