
 OpenBabel03252501463D

 20 21  0  0  0  0  0  0  0  0999 V2000
   37.9260   27.8690   40.1080 C   0  0  0  0  0  0  0  0  0  0  0  0
   37.3460   27.3870   41.2790 C   0  0  0  0  0  0  0  0  0  0  0  0
   36.9370   28.2990   42.2340 C   0  0  0  0  0  0  0  0  0  0  0  0
   37.1180   29.6440   41.9930 N   0  0  0  0  0  0  0  0  0  0  0  0
   37.6800   30.0650   40.8520 C   0  0  0  0  0  0  0  0  0  0  0  0
   38.0740   29.1890   39.9330 N   0  0  0  0  0  0  0  0  0  0  0  0
   38.2480   27.1600   39.3560 H   0  0  0  0  0  0  0  0  0  0  0  0
   36.4730   27.9970   43.1810 H   0  0  0  0  0  0  0  0  0  0  0  0
   37.8940   31.4950   40.5510 C   0  0  0  0  0  0  0  0  0  0  0  0
   37.0160   32.2980   39.7740 C   0  0  0  0  0  0  0  0  0  0  0  0
   36.1190   31.8750   39.3550 H   0  0  0  0  0  0  0  0  0  0  0  0
   37.3750   33.6030   39.5980 C   0  0  0  0  0  3  0  0  0  0  0  0
   38.5280   34.1590   40.1310 C   0  0  0  0  0  3  0  0  0  0  0  0
   39.2430   32.6200   41.0330 S   0  0  0  0  0  0  0  0  0  0  0  0
   37.1620   25.9620   41.5240 C   0  0  0  0  0  3  0  0  0  0  0  0
   37.7650   24.9720   40.9160 C   0  0  0  0  0  3  0  0  0  0  0  0
   37.4940   23.5420   41.2550 C   0  0  0  0  0  0  0  0  0  0  0  0
   36.4910   23.4190   41.7470 H   0  0  0  0  0  0  0  0  0  0  0  0
   38.2770   23.2400   41.9910 H   0  0  0  0  0  0  0  0  0  0  0  0
   37.6130   22.8730   40.3790 H   0  0  0  0  0  0  0  0  0  0  0  0
  1  2  1  0  0  0  0
  2 15  1  0  0  0  0
  2  3  2  0  0  0  0
  3  8  1  0  0  0  0
  4  3  1  0  0  0  0
  5  4  2  0  0  0  0
  6  1  2  0  0  0  0
  6  5  1  0  0  0  0
  7  1  1  0  0  0  0
  9  5  1  0  0  0  0
  9 14  1  0  0  0  0
 10  9  2  0  0  0  0
 11 10  1  0  0  0  0
 12 10  1  0  0  0  0
 12 13  2  0  0  0  0
 13 14  1  0  0  0  0
 16 17  1  0  0  0  0
 16 15  2  0  0  0  0
 17 18  1  0  0  0  0
 17 19  1  0  0  0  0
 20 17  1  0  0  0  0
M  END
>  <minimizedAffinity>
-4.09398365

$$$$

 OpenBabel03252501463D

 20 21  0  0  0  0  0  0  0  0999 V2000
   38.1890   29.7090   40.2480 C   0  0  0  0  0  0  0  0  0  0  0  0
   37.0710   30.4880   40.5320 C   0  0  0  0  0  0  0  0  0  0  0  0
   35.9030   29.8510   40.9080 C   0  0  0  0  0  0  0  0  0  0  0  0
   35.8890   28.4750   40.9860 N   0  0  0  0  0  0  0  0  0  0  0  0
   36.9890   27.7630   40.7050 C   0  0  0  0  0  0  0  0  0  0  0  0
   38.1120   28.3740   40.3430 N   0  0  0  0  0  0  0  0  0  0  0  0
   39.1070   30.2020   39.9540 H   0  0  0  0  0  0  0  0  0  0  0  0
   34.9820   30.3960   41.1470 H   0  0  0  0  0  0  0  0  0  0  0  0
   37.0210   26.2880   40.7740 C   0  0  0  0  0  0  0  0  0  0  0  0
   37.3470   25.5400   41.9380 C   0  0  0  0  0  0  0  0  0  0  0  0
   37.5950   26.0440   42.8570 H   0  0  0  0  0  0  0  0  0  0  0  0
   37.3260   24.1810   41.8180 C   0  0  0  0  0  3  0  0  0  0  0  0
   37.0090   23.5210   40.6410 C   0  0  0  0  0  3  0  0  0  0  0  0
   36.6810   25.0320   39.5000 S   0  0  0  0  0  0  0  0  0  0  0  0
   37.0960   31.9430   40.4440 C   0  0  0  0  0  3  0  0  0  0  0  0
   37.2850   32.6650   39.3680 C   0  0  0  0  0  3  0  0  0  0  0  0
   37.2890   34.1590   39.3990 C   0  0  0  0  0  0  0  0  0  0  0  0
   37.5190   34.5490   40.4280 H   0  0  0  0  0  0  0  0  0  0  0  0
   36.2540   34.4830   39.1350 H   0  0  0  0  0  0  0  0  0  0  0  0
   37.9590   34.5930   38.6310 H   0  0  0  0  0  0  0  0  0  0  0  0
  1  6  2  0  0  0  0
  1  2  1  0  0  0  0
  2  3  2  0  0  0  0
  3  4  1  0  0  0  0
  3  8  1  0  0  0  0
  5  9  1  0  0  0  0
  5  4  2  0  0  0  0
  6  5  1  0  0  0  0
  7  1  1  0  0  0  0
  9 10  2  0  0  0  0
 10 11  1  0  0  0  0
 12 10  1  0  0  0  0
 13 12  2  0  0  0  0
 14 13  1  0  0  0  0
 14  9  1  0  0  0  0
 15  2  1  0  0  0  0
 16 17  1  0  0  0  0
 16 15  2  0  0  0  0
 17 18  1  0  0  0  0
 19 17  1  0  0  0  0
 20 17  1  0  0  0  0
M  END
>  <minimizedAffinity>
-3.99381638

$$$$

 OpenBabel03252501463D

 20 21  0  0  0  0  0  0  0  0999 V2000
   36.0140   27.3400   38.9830 C   0  0  0  0  0  0  0  0  0  0  0  0
   35.2620   28.4360   39.3970 C   0  0  0  0  0  0  0  0  0  0  0  0
   35.4530   28.9190   40.6780 C   0  0  0  0  0  0  0  0  0  0  0  0
   36.3760   28.3000   41.4930 N   0  0  0  0  0  0  0  0  0  0  0  0
   37.0800   27.2480   41.0540 C   0  0  0  0  0  0  0  0  0  0  0  0
   36.8970   26.7820   39.8230 N   0  0  0  0  0  0  0  0  0  0  0  0
   35.8690   26.9570   37.9800 H   0  0  0  0  0  0  0  0  0  0  0  0
   34.8980   29.7770   41.0760 H   0  0  0  0  0  0  0  0  0  0  0  0
   38.0790   26.5540   41.8920 C   0  0  0  0  0  0  0  0  0  0  0  0
   38.7230   27.1250   43.0230 C   0  0  0  0  0  0  0  0  0  0  0  0
   38.4970   28.1330   43.3260 H   0  0  0  0  0  0  0  0  0  0  0  0
   39.6220   26.3350   43.6800 C   0  0  0  0  0  3  0  0  0  0  0  0
   39.9210   25.0360   43.2990 C   0  0  0  0  0  3  0  0  0  0  0  0
   38.7670   24.8720   41.7710 S   0  0  0  0  0  0  0  0  0  0  0  0
   34.2860   29.0800   38.5270 C   0  0  0  0  0  3  0  0  0  0  0  0
   33.5970   28.5220   37.5630 C   0  0  0  0  0  3  0  0  0  0  0  0
   32.6190   29.2890   36.7340 C   0  0  0  0  0  0  0  0  0  0  0  0
   32.8400   30.3910   36.7490 H   0  0  0  0  0  0  0  0  0  0  0  0
   31.6180   29.1340   37.2040 H   0  0  0  0  0  0  0  0  0  0  0  0
   32.5440   28.8930   35.7010 H   0  0  0  0  0  0  0  0  0  0  0  0
  1  2  2  0  0  0  0
  1  6  1  0  0  0  0
  2  3  1  0  0  0  0
  3  8  1  0  0  0  0
  3  4  2  0  0  0  0
  5  4  1  0  0  0  0
  5  9  1  0  0  0  0
  6  5  2  0  0  0  0
  7  1  1  0  0  0  0
  9 10  2  0  0  0  0
 10 11  1  0  0  0  0
 10 12  1  0  0  0  0
 13 12  2  0  0  0  0
 14  9  1  0  0  0  0
 14 13  1  0  0  0  0
 15  2  1  0  0  0  0
 16 15  2  0  0  0  0
 17 18  1  0  0  0  0
 17 19  1  0  0  0  0
 17 16  1  0  0  0  0
 20 17  1  0  0  0  0
M  END
>  <minimizedAffinity>
-3.938025

$$$$

 OpenBabel03252501463D

 20 21  0  0  0  0  0  0  0  0999 V2000
   35.6630   27.7990   38.2390 C   0  0  0  0  0  0  0  0  0  0  0  0
   34.5410   28.6090   38.3900 C   0  0  0  0  0  0  0  0  0  0  0  0
   34.3420   29.2380   39.6050 C   0  0  0  0  0  0  0  0  0  0  0  0
   35.2570   29.0410   40.6160 N   0  0  0  0  0  0  0  0  0  0  0  0
   36.3250   28.2530   40.4270 C   0  0  0  0  0  0  0  0  0  0  0  0
   36.5170   27.6470   39.2600 N   0  0  0  0  0  0  0  0  0  0  0  0
   35.8240   27.3030   37.2900 H   0  0  0  0  0  0  0  0  0  0  0  0
   33.4830   29.8910   39.7990 H   0  0  0  0  0  0  0  0  0  0  0  0
   37.3310   28.0120   41.4820 C   0  0  0  0  0  0  0  0  0  0  0  0
   37.0260   27.7370   42.8420 C   0  0  0  0  0  0  0  0  0  0  0  0
   36.0020   27.6910   43.1720 H   0  0  0  0  0  0  0  0  0  0  0  0
   38.0870   27.5410   43.6800 C   0  0  0  0  0  3  0  0  0  0  0  0
   39.4090   27.5980   43.2670 C   0  0  0  0  0  3  0  0  0  0  0  0
   39.1510   27.9890   41.4040 S   0  0  0  0  0  0  0  0  0  0  0  0
   33.5780   28.8080   37.3140 C   0  0  0  0  0  3  0  0  0  0  0  0
   33.8400   29.0480   36.0540 C   0  0  0  0  0  3  0  0  0  0  0  0
   32.7630   29.2350   35.0350 C   0  0  0  0  0  0  0  0  0  0  0  0
   31.7940   29.5450   35.5130 H   0  0  0  0  0  0  0  0  0  0  0  0
   32.6050   28.2390   34.5570 H   0  0  0  0  0  0  0  0  0  0  0  0
   33.0670   29.9280   34.2250 H   0  0  0  0  0  0  0  0  0  0  0  0
  1  2  2  0  0  0  0
  1  6  1  0  0  0  0
  2  3  1  0  0  0  0
  3  8  1  0  0  0  0
  3  4  2  0  0  0  0
  5  4  1  0  0  0  0
  5  9  1  0  0  0  0
  6  5  2  0  0  0  0
  7  1  1  0  0  0  0
  9 10  2  0  0  0  0
 10 11  1  0  0  0  0
 10 12  1  0  0  0  0
 13 12  2  0  0  0  0
 14  9  1  0  0  0  0
 14 13  1  0  0  0  0
 15  2  1  0  0  0  0
 16 15  2  0  0  0  0
 17 18  1  0  0  0  0
 17 16  1  0  0  0  0
 19 17  1  0  0  0  0
 20 17  1  0  0  0  0
M  END
>  <minimizedAffinity>
-3.84057093

$$$$

 OpenBabel03252501463D

 20 21  0  0  0  0  0  0  0  0999 V2000
   36.5580   27.7750   39.1130 C   0  0  0  0  0  0  0  0  0  0  0  0
   35.4830   28.5720   39.4970 C   0  0  0  0  0  0  0  0  0  0  0  0
   35.4580   29.0670   40.7880 C   0  0  0  0  0  0  0  0  0  0  0  0
   36.4930   28.7540   41.6420 N   0  0  0  0  0  0  0  0  0  0  0  0
   37.5100   27.9840   41.2310 C   0  0  0  0  0  0  0  0  0  0  0  0
   37.5350   27.5070   39.9910 N   0  0  0  0  0  0  0  0  0  0  0  0
   36.5830   27.3840   38.1040 H   0  0  0  0  0  0  0  0  0  0  0  0
   34.6450   29.7000   41.1630 H   0  0  0  0  0  0  0  0  0  0  0  0
   38.6400   27.6220   42.1110 C   0  0  0  0  0  0  0  0  0  0  0  0
   38.6890   26.4600   42.9280 C   0  0  0  0  0  0  0  0  0  0  0  0
   37.8660   25.7650   42.9360 H   0  0  0  0  0  0  0  0  0  0  0  0
   39.8160   26.2870   43.6790 C   0  0  0  0  0  3  0  0  0  0  0  0
   40.8810   27.1740   43.6780 C   0  0  0  0  0  3  0  0  0  0  0  0
   40.2200   28.4720   42.4240 S   0  0  0  0  0  0  0  0  0  0  0  0
   34.3920   28.8940   38.5860 C   0  0  0  0  0  3  0  0  0  0  0  0
   34.3530   28.6810   37.2940 C   0  0  0  0  0  3  0  0  0  0  0  0
   33.1720   29.0550   36.4580 C   0  0  0  0  0  0  0  0  0  0  0  0
   32.5570   29.8560   36.9500 H   0  0  0  0  0  0  0  0  0  0  0  0
   32.5400   28.1380   36.3780 H   0  0  0  0  0  0  0  0  0  0  0  0
   33.4610   29.3280   35.4230 H   0  0  0  0  0  0  0  0  0  0  0  0
  1  2  2  0  0  0  0
  1  6  1  0  0  0  0
  2  3  1  0  0  0  0
  3  8  1  0  0  0  0
  3  4  2  0  0  0  0
  5  4  1  0  0  0  0
  5  9  1  0  0  0  0
  6  5  2  0  0  0  0
  7  1  1  0  0  0  0
  9 14  1  0  0  0  0
  9 10  2  0  0  0  0
 10 11  1  0  0  0  0
 10 12  1  0  0  0  0
 13 12  2  0  0  0  0
 14 13  1  0  0  0  0
 15  2  1  0  0  0  0
 16 15  2  0  0  0  0
 17 18  1  0  0  0  0
 17 16  1  0  0  0  0
 19 17  1  0  0  0  0
 20 17  1  0  0  0  0
M  END
>  <minimizedAffinity>
-3.7655406

$$$$

 OpenBabel03252501463D

 20 21  0  0  0  0  0  0  0  0999 V2000
   38.5350   27.8440   40.4670 C   0  0  0  0  0  0  0  0  0  0  0  0
   37.5540   27.3500   41.3220 C   0  0  0  0  0  0  0  0  0  0  0  0
   36.7280   28.2520   41.9670 C   0  0  0  0  0  0  0  0  0  0  0  0
   36.9070   29.5990   41.7410 N   0  0  0  0  0  0  0  0  0  0  0  0
   37.8640   30.0330   40.9090 C   0  0  0  0  0  0  0  0  0  0  0  0
   38.6580   29.1670   40.2880 N   0  0  0  0  0  0  0  0  0  0  0  0
   39.1840   27.1430   39.9580 H   0  0  0  0  0  0  0  0  0  0  0  0
   35.9340   27.9390   42.6550 H   0  0  0  0  0  0  0  0  0  0  0  0
   38.0920   31.4660   40.6370 C   0  0  0  0  0  0  0  0  0  0  0  0
   39.1180   32.2490   41.2340 C   0  0  0  0  0  0  0  0  0  0  0  0
   39.7990   31.8060   41.9410 H   0  0  0  0  0  0  0  0  0  0  0  0
   39.1790   33.5610   40.8650 C   0  0  0  0  0  3  0  0  0  0  0  0
   38.3080   34.1440   39.9570 C   0  0  0  0  0  3  0  0  0  0  0  0
   37.2120   32.6210   39.5380 S   0  0  0  0  0  0  0  0  0  0  0  0
   37.3750   25.9220   41.5550 C   0  0  0  0  0  3  0  0  0  0  0  0
   37.6070   24.9490   40.7100 C   0  0  0  0  0  3  0  0  0  0  0  0
   37.3860   23.5140   41.0640 C   0  0  0  0  0  0  0  0  0  0  0  0
   36.6580   23.4070   41.9140 H   0  0  0  0  0  0  0  0  0  0  0  0
   38.3730   23.1190   41.4070 H   0  0  0  0  0  0  0  0  0  0  0  0
   37.0930   22.9050   40.1860 H   0  0  0  0  0  0  0  0  0  0  0  0
  1  2  1  0  0  0  0
  2 15  1  0  0  0  0
  2  3  2  0  0  0  0
  3  8  1  0  0  0  0
  4  3  1  0  0  0  0
  5  4  2  0  0  0  0
  6  1  2  0  0  0  0
  6  5  1  0  0  0  0
  7  1  1  0  0  0  0
  9  5  1  0  0  0  0
  9 10  2  0  0  0  0
 10 11  1  0  0  0  0
 12 10  1  0  0  0  0
 13 12  2  0  0  0  0
 14 13  1  0  0  0  0
 14  9  1  0  0  0  0
 16 17  1  0  0  0  0
 16 15  2  0  0  0  0
 17 19  1  0  0  0  0
 17 18  1  0  0  0  0
 20 17  1  0  0  0  0
M  END
>  <minimizedAffinity>
-3.75299001

$$$$

 OpenBabel03252501463D

 20 21  0  0  0  0  0  0  0  0999 V2000
   35.8810   29.6190   37.5040 C   0  0  0  0  0  0  0  0  0  0  0  0
   35.0210   28.8920   38.3220 C   0  0  0  0  0  0  0  0  0  0  0  0
   34.9940   29.1840   39.6730 C   0  0  0  0  0  0  0  0  0  0  0  0
   35.8150   30.1780   40.1570 N   0  0  0  0  0  0  0  0  0  0  0  0
   36.6290   30.8550   39.3340 C   0  0  0  0  0  0  0  0  0  0  0  0
   36.6560   30.5760   38.0350 N   0  0  0  0  0  0  0  0  0  0  0  0
   35.9070   29.3960   36.4450 H   0  0  0  0  0  0  0  0  0  0  0  0
   34.3430   28.6550   40.3800 H   0  0  0  0  0  0  0  0  0  0  0  0
   37.5260   31.9280   39.8080 C   0  0  0  0  0  0  0  0  0  0  0  0
   37.3630   33.3080   39.5130 C   0  0  0  0  0  0  0  0  0  0  0  0
   36.5400   33.6410   38.9040 H   0  0  0  0  0  0  0  0  0  0  0  0
   38.2920   34.1600   40.0370 C   0  0  0  0  0  3  0  0  0  0  0  0
   39.3570   33.7450   40.8220 C   0  0  0  0  0  3  0  0  0  0  0  0
   39.0220   31.8520   40.8450 S   0  0  0  0  0  0  0  0  0  0  0  0
   34.1580   27.8400   37.7990 C   0  0  0  0  0  3  0  0  0  0  0  0
   34.5260   26.7760   37.1300 C   0  0  0  0  0  3  0  0  0  0  0  0
   33.5450   25.7610   36.6420 C   0  0  0  0  0  0  0  0  0  0  0  0
   32.5120   26.1950   36.5520 H   0  0  0  0  0  0  0  0  0  0  0  0
   33.5120   24.9580   37.4180 H   0  0  0  0  0  0  0  0  0  0  0  0
   33.8750   25.2750   35.7020 H   0  0  0  0  0  0  0  0  0  0  0  0
  1  6  2  0  0  0  0
  1  2  1  0  0  0  0
  2  3  2  0  0  0  0
  3  4  1  0  0  0  0
  3  8  1  0  0  0  0
  5  9  1  0  0  0  0
  5  4  2  0  0  0  0
  6  5  1  0  0  0  0
  7  1  1  0  0  0  0
  9 14  1  0  0  0  0
 10  9  2  0  0  0  0
 10 12  1  0  0  0  0
 11 10  1  0  0  0  0
 12 13  2  0  0  0  0
 13 14  1  0  0  0  0
 15  2  1  0  0  0  0
 16 15  2  0  0  0  0
 17 16  1  0  0  0  0
 17 19  1  0  0  0  0
 18 17  1  0  0  0  0
 20 17  1  0  0  0  0
M  END
>  <minimizedAffinity>
-3.72324681

$$$$

 OpenBabel03252501463D

 20 21  0  0  0  0  0  0  0  0999 V2000
   36.0250   29.2060   38.0260 C   0  0  0  0  0  0  0  0  0  0  0  0
   34.7320   28.9430   38.4730 C   0  0  0  0  0  0  0  0  0  0  0  0
   34.4600   29.0890   39.8210 C   0  0  0  0  0  0  0  0  0  0  0  0
   35.4730   29.4850   40.6670 N   0  0  0  0  0  0  0  0  0  0  0  0
   36.7030   29.7280   40.1950 C   0  0  0  0  0  0  0  0  0  0  0  0
   36.9660   29.5890   38.8990 N   0  0  0  0  0  0  0  0  0  0  0  0
   36.2440   29.0940   36.9720 H   0  0  0  0  0  0  0  0  0  0  0  0
   33.4670   28.9000   40.2480 H   0  0  0  0  0  0  0  0  0  0  0  0
   37.8190   30.1540   41.0640 C   0  0  0  0  0  0  0  0  0  0  0  0
   38.2220   29.4820   42.2490 C   0  0  0  0  0  0  0  0  0  0  0  0
   37.7060   28.5940   42.5750 H   0  0  0  0  0  0  0  0  0  0  0  0
   39.2770   30.0200   42.9300 C   0  0  0  0  0  3  0  0  0  0  0  0
   39.9490   31.1610   42.5220 C   0  0  0  0  0  3  0  0  0  0  0  0
   38.9600   31.5660   40.9240 S   0  0  0  0  0  0  0  0  0  0  0  0
   33.6700   28.5220   37.5690 C   0  0  0  0  0  3  0  0  0  0  0  0
   32.7800   29.2860   36.9860 C   0  0  0  0  0  3  0  0  0  0  0  0
   31.7320   28.7380   36.0740 C   0  0  0  0  0  0  0  0  0  0  0  0
   31.5460   27.6460   36.2670 H   0  0  0  0  0  0  0  0  0  0  0  0
   32.1340   28.8380   35.0370 H   0  0  0  0  0  0  0  0  0  0  0  0
   30.7950   29.3310   36.1050 H   0  0  0  0  0  0  0  0  0  0  0  0
  1  2  2  0  0  0  0
  1  6  1  0  0  0  0
  2  3  1  0  0  0  0
  3  8  1  0  0  0  0
  3  4  2  0  0  0  0
  5  4  1  0  0  0  0
  5  9  1  0  0  0  0
  6  5  2  0  0  0  0
  7  1  1  0  0  0  0
  9 10  2  0  0  0  0
 10 11  1  0  0  0  0
 10 12  1  0  0  0  0
 13 12  2  0  0  0  0
 14  9  1  0  0  0  0
 14 13  1  0  0  0  0
 15  2  1  0  0  0  0
 16 15  2  0  0  0  0
 17 20  1  0  0  0  0
 17 18  1  0  0  0  0
 17 16  1  0  0  0  0
 19 17  1  0  0  0  0
M  END
>  <minimizedAffinity>
-3.54223084

$$$$

 OpenBabel03252501463D

 20 21  0  0  0  0  0  0  0  0999 V2000
   37.6460   28.6420   36.4050 C   0  0  0  0  0  0  0  0  0  0  0  0
   36.4710   29.1440   35.8520 C   0  0  0  0  0  0  0  0  0  0  0  0
   35.3400   29.1960   36.6460 C   0  0  0  0  0  0  0  0  0  0  0  0
   35.4170   28.7510   37.9470 N   0  0  0  0  0  0  0  0  0  0  0  0
   36.5690   28.2750   38.4400 C   0  0  0  0  0  0  0  0  0  0  0  0
   37.6570   28.2240   37.6780 N   0  0  0  0  0  0  0  0  0  0  0  0
   38.5350   28.5990   35.7880 H   0  0  0  0  0  0  0  0  0  0  0  0
   34.3790   29.5780   36.2810 H   0  0  0  0  0  0  0  0  0  0  0  0
   36.6990   27.7870   39.8280 C   0  0  0  0  0  0  0  0  0  0  0  0
   36.2950   28.5120   40.9810 C   0  0  0  0  0  0  0  0  0  0  0  0
   35.8580   29.4920   40.8830 H   0  0  0  0  0  0  0  0  0  0  0  0
   36.4920   27.9040   42.1870 C   0  0  0  0  0  3  0  0  0  0  0  0
   37.0530   26.6440   42.3270 C   0  0  0  0  0  3  0  0  0  0  0  0
   37.3650   26.2210   40.4780 S   0  0  0  0  0  0  0  0  0  0  0  0
   36.4000   29.6100   34.4730 C   0  0  0  0  0  3  0  0  0  0  0  0
   36.4130   30.8520   34.0570 C   0  0  0  0  0  3  0  0  0  0  0  0
   36.3350   31.2110   32.6090 C   0  0  0  0  0  0  0  0  0  0  0  0
   35.8740   30.3830   32.0040 H   0  0  0  0  0  0  0  0  0  0  0  0
   37.3870   31.3430   32.2600 H   0  0  0  0  0  0  0  0  0  0  0  0
   35.8250   32.1810   32.4430 H   0  0  0  0  0  0  0  0  0  0  0  0
  1  6  1  0  0  0  0
  2  1  2  0  0  0  0
  2  3  1  0  0  0  0
  3  4  2  0  0  0  0
  4  5  1  0  0  0  0
  5  9  1  0  0  0  0
  6  5  2  0  0  0  0
  7  1  1  0  0  0  0
  8  3  1  0  0  0  0
  9 14  1  0  0  0  0
  9 10  2  0  0  0  0
 10 12  1  0  0  0  0
 11 10  1  0  0  0  0
 12 13  2  0  0  0  0
 14 13  1  0  0  0  0
 15  2  1  0  0  0  0
 16 15  2  0  0  0  0
 17 16  1  0  0  0  0
 18 17  1  0  0  0  0
 19 17  1  0  0  0  0
 20 17  1  0  0  0  0
M  END
>  <minimizedAffinity>
-3.52745271

$$$$
