
 OpenBabel03252509273D

 27 29  0  0  1  0  0  0  0  0999 V2000
   37.5370   32.1280   39.8860 C   0  0  1  0  0  0  0  0  0  0  0  0
   36.9300   31.2690   38.7380 C   0  0  0  0  0  0  0  0  0  0  0  0
   37.3850   30.7550   40.1430 C   0  0  2  0  0  0  0  0  0  0  0  0
   36.8320   32.8990   40.2570 H   0  0  0  0  0  0  0  0  0  0  0  0
   37.5400   31.0220   37.8770 H   0  0  0  0  0  0  0  0  0  0  0  0
   35.8360   31.3260   38.6250 H   0  0  0  0  0  0  0  0  0  0  0  0
   38.3210   30.1190   40.0560 H   0  0  0  0  0  0  0  0  0  0  0  0
   40.7790   34.0180   39.8210 C   0  0  0  0  0  0  0  0  0  0  0  0
   39.4800   33.6090   40.2550 C   0  0  0  0  0  0  0  0  0  0  0  0
   38.8810   32.6690   39.4860 C   0  0  0  0  0  0  0  0  0  0  0  0
   39.4920   32.1490   38.3600 N   0  0  0  0  0  0  0  0  0  0  0  0
   40.7270   32.5670   37.9850 C   0  0  0  0  0  0  0  0  0  0  0  0
   41.3690   33.5050   38.7190 N   0  0  0  0  0  0  0  0  0  0  0  0
   41.2540   34.7740   40.4450 H   0  0  0  0  0  0  0  0  0  0  0  0
   41.2140   32.1690   37.1070 H   0  0  0  0  0  0  0  0  0  0  0  0
   38.8540   34.1600   41.3970 N   0  0  0  0  0  0  0  0  0  0  0  0
   38.4810   35.1290   41.5840 H   0  0  0  0  0  0  0  0  0  0  0  0
   38.8410   33.3510   42.0490 H   0  0  0  0  0  0  0  0  0  0  0  0
   36.3240   30.2370   41.0870 C   0  0  0  0  0  0  0  0  0  0  0  0
   36.1220   31.0830   41.8010 H   0  0  0  0  0  0  0  0  0  0  0  0
   35.4090   29.9290   40.5390 H   0  0  0  0  0  0  0  0  0  0  0  0
   36.8890   29.1420   41.8950 C   0  0  0  0  0  0  0  0  0  0  0  0
   36.5010   27.8790   42.2400 C   0  0  0  0  0  0  0  0  0  0  0  0
   35.5530   27.5250   41.8610 H   0  0  0  0  0  0  0  0  0  0  0  0
   37.3400   27.1450   43.0430 C   0  0  0  0  0  3  0  0  0  0  0  0
   38.5150   27.7140   43.4550 C   0  0  0  0  0  3  0  0  0  0  0  0
   38.4310   29.4070   42.6510 S   0  0  0  0  0  0  0  0  0  0  0  0
  1  3  1  0  0  0  0
  1  4  1  1  0  0  0
  2  1  1  0  0  0  0
  2  3  1  0  0  0  0
  3  7  1  6  0  0  0
  3 19  1  0  0  0  0
  5  2  1  0  0  0  0
  6  2  1  0  0  0  0
  8  9  1  0  0  0  0
  8 14  1  0  0  0  0
  9 16  1  0  0  0  0
 10  1  1  0  0  0  0
 10  9  2  0  0  0  0
 11 10  1  0  0  0  0
 12 11  2  0  0  0  0
 12 13  1  0  0  0  0
 13  8  2  0  0  0  0
 15 12  1  0  0  0  0
 16 17  1  0  0  0  0
 16 18  1  0  0  0  0
 19 20  1  0  0  0  0
 19 22  1  0  0  0  0
 21 19  1  0  0  0  0
 22 23  2  0  0  0  0
 22 27  1  0  0  0  0
 23 25  1  0  0  0  0
 24 23  1  0  0  0  0
 25 26  2  0  0  0  0
 27 26  1  0  0  0  0
M  END
>  <minimizedAffinity>
-5.01344633

$$$$

 OpenBabel03252509273D

 27 29  0  0  1  0  0  0  0  0999 V2000
   37.2530   26.7250   42.3940 C   0  0  1  0  0  0  0  0  0  0  0  0
   36.4830   27.4320   43.5470 C   0  0  0  0  0  0  0  0  0  0  0  0
   36.9340   28.0790   42.1970 C   0  0  2  0  0  0  0  0  0  0  0  0
   36.6750   25.8910   41.9460 H   0  0  0  0  0  0  0  0  0  0  0  0
   37.0130   27.7060   44.4520 H   0  0  0  0  0  0  0  0  0  0  0  0
   35.4020   27.2270   43.5970 H   0  0  0  0  0  0  0  0  0  0  0  0
   37.7720   28.8250   42.3680 H   0  0  0  0  0  0  0  0  0  0  0  0
   40.3920   24.8020   43.1270 C   0  0  0  0  0  0  0  0  0  0  0  0
   39.0420   25.0550   42.7280 C   0  0  0  0  0  0  0  0  0  0  0  0
   38.6360   26.3420   42.8400 C   0  0  0  0  0  0  0  0  0  0  0  0
   39.4750   27.3340   43.3110 N   0  0  0  0  0  0  0  0  0  0  0  0
   40.7490   27.0490   43.6790 C   0  0  0  0  0  0  0  0  0  0  0  0
   41.2050   25.7790   43.5870 N   0  0  0  0  0  0  0  0  0  0  0  0
   40.7110   23.7650   43.0350 H   0  0  0  0  0  0  0  0  0  0  0  0
   41.4140   27.8160   44.0490 H   0  0  0  0  0  0  0  0  0  0  0  0
   38.1840   24.0300   42.2660 N   0  0  0  0  0  0  0  0  0  0  0  0
   37.7570   23.2060   42.7660 H   0  0  0  0  0  0  0  0  0  0  0  0
   38.0610   24.2850   41.2670 H   0  0  0  0  0  0  0  0  0  0  0  0
   35.8600   28.5080   41.2230 C   0  0  0  0  0  0  0  0  0  0  0  0
   35.8330   27.7040   40.4360 H   0  0  0  0  0  0  0  0  0  0  0  0
   34.8790   28.6280   41.7270 H   0  0  0  0  0  0  0  0  0  0  0  0
   36.2930   29.7390   40.5380 C   0  0  0  0  0  0  0  0  0  0  0  0
   36.5690   31.0230   40.9140 C   0  0  0  0  0  0  0  0  0  0  0  0
   36.4670   31.2710   41.9600 H   0  0  0  0  0  0  0  0  0  0  0  0
   36.9570   31.9080   39.9380 C   0  0  0  0  0  3  0  0  0  0  0  0
   37.0460   31.4640   38.6470 C   0  0  0  0  0  3  0  0  0  0  0  0
   36.5470   29.6630   38.8210 S   0  0  0  0  0  0  0  0  0  0  0  0
  1  4  1  6  0  0  0
  1 10  1  0  0  0  0
  1  2  1  0  0  0  0
  2  6  1  0  0  0  0
  2  5  1  0  0  0  0
  3  7  1  1  0  0  0
  3  1  1  0  0  0  0
  3  2  1  0  0  0  0
  8 13  1  0  0  0  0
  9 10  1  0  0  0  0
  9  8  2  0  0  0  0
 10 11  2  0  0  0  0
 11 12  1  0  0  0  0
 12 15  1  0  0  0  0
 13 12  2  0  0  0  0
 14  8  1  0  0  0  0
 16  9  1  0  0  0  0
 16 17  1  0  0  0  0
 18 16  1  0  0  0  0
 19 21  1  0  0  0  0
 19  3  1  0  0  0  0
 20 19  1  0  0  0  0
 22 23  2  0  0  0  0
 22 19  1  0  0  0  0
 23 24  1  0  0  0  0
 25 23  1  0  0  0  0
 26 27  1  0  0  0  0
 26 25  2  0  0  0  0
 27 22  1  0  0  0  0
M  END
>  <minimizedAffinity>
-5.01231194

$$$$

 OpenBabel03252509273D

 27 29  0  0  1  0  0  0  0  0999 V2000
   36.1830   28.4140   39.9670 C   0  0  1  0  0  0  0  0  0  0  0  0
   36.2450   27.3170   38.8640 C   0  0  0  0  0  0  0  0  0  0  0  0
   37.1310   27.3930   40.1500 C   0  0  2  0  0  0  0  0  0  0  0  0
   35.2050   28.4380   40.4880 H   0  0  0  0  0  0  0  0  0  0  0  0
   36.7030   27.5460   37.9090 H   0  0  0  0  0  0  0  0  0  0  0  0
   35.4630   26.5430   38.9150 H   0  0  0  0  0  0  0  0  0  0  0  0
   38.2050   27.6480   39.8860 H   0  0  0  0  0  0  0  0  0  0  0  0
   36.9400   32.0680   39.5660 C   0  0  0  0  0  0  0  0  0  0  0  0
   36.4470   30.8630   40.1560 C   0  0  0  0  0  0  0  0  0  0  0  0
   36.6150   29.7430   39.4140 C   0  0  0  0  0  0  0  0  0  0  0  0
   37.2210   29.7740   38.1720 N   0  0  0  0  0  0  0  0  0  0  0  0
   37.6730   30.9420   37.6500 C   0  0  0  0  0  0  0  0  0  0  0  0
   37.5300   32.0900   38.3500 N   0  0  0  0  0  0  0  0  0  0  0  0
   36.8010   32.9640   40.1690 H   0  0  0  0  0  0  0  0  0  0  0  0
   38.1480   30.9790   36.6790 H   0  0  0  0  0  0  0  0  0  0  0  0
   35.8110   30.8420   41.4190 N   0  0  0  0  0  0  0  0  0  0  0  0
   34.8850   31.2360   41.7360 H   0  0  0  0  0  0  0  0  0  0  0  0
   36.4990   30.3220   41.9990 H   0  0  0  0  0  0  0  0  0  0  0  0
   36.9490   26.3210   41.2000 C   0  0  0  0  0  0  0  0  0  0  0  0
   36.0370   26.6270   41.7840 H   0  0  0  0  0  0  0  0  0  0  0  0
   36.8310   25.3180   40.7410 H   0  0  0  0  0  0  0  0  0  0  0  0
   38.0790   26.3750   42.1450 C   0  0  0  0  0  0  0  0  0  0  0  0
   38.6820   27.3430   42.8960 C   0  0  0  0  0  0  0  0  0  0  0  0
   38.2850   28.3450   42.8330 H   0  0  0  0  0  0  0  0  0  0  0  0
   39.7500   26.9780   43.6790 C   0  0  0  0  0  3  0  0  0  0  0  0
   40.1550   25.6700   43.6670 C   0  0  0  0  0  3  0  0  0  0  0  0
   38.9380   24.8980   42.4640 S   0  0  0  0  0  0  0  0  0  0  0  0
  1  3  1  0  0  0  0
  1  4  1  1  0  0  0
  2  6  1  0  0  0  0
  2  1  1  0  0  0  0
  2  3  1  0  0  0  0
  3  7  1  6  0  0  0
  3 19  1  0  0  0  0
  5  2  1  0  0  0  0
  8  9  1  0  0  0  0
  8 14  1  0  0  0  0
  9 16  1  0  0  0  0
 10  1  1  0  0  0  0
 10  9  2  0  0  0  0
 11 10  1  0  0  0  0
 12 11  2  0  0  0  0
 12 13  1  0  0  0  0
 13  8  2  0  0  0  0
 15 12  1  0  0  0  0
 16 17  1  0  0  0  0
 16 18  1  0  0  0  0
 19 20  1  0  0  0  0
 19 22  1  0  0  0  0
 21 19  1  0  0  0  0
 22 27  1  0  0  0  0
 22 23  2  0  0  0  0
 23 25  1  0  0  0  0
 24 23  1  0  0  0  0
 26 25  2  0  0  0  0
 27 26  1  0  0  0  0
M  END
>  <minimizedAffinity>
-4.7825923

$$$$

 OpenBabel03252509273D

 27 29  0  0  1  0  0  0  0  0999 V2000
   37.6490   29.1180   42.1430 C   0  0  1  0  0  0  0  0  0  0  0  0
   36.8220   27.8380   41.8260 C   0  0  0  0  0  0  0  0  0  0  0  0
   38.3310   27.8930   42.2310 C   0  0  2  0  0  0  0  0  0  0  0  0
   37.2630   29.6660   43.0260 H   0  0  0  0  0  0  0  0  0  0  0  0
   36.5730   27.6050   40.7970 H   0  0  0  0  0  0  0  0  0  0  0  0
   36.1630   27.4830   42.6340 H   0  0  0  0  0  0  0  0  0  0  0  0
   38.9940   27.6200   41.3520 H   0  0  0  0  0  0  0  0  0  0  0  0
   37.0960   31.6650   39.4410 C   0  0  0  0  0  0  0  0  0  0  0  0
   36.8350   30.8660   40.5990 C   0  0  0  0  0  0  0  0  0  0  0  0
   37.7980   29.9680   40.9120 C   0  0  0  0  0  0  0  0  0  0  0  0
   38.9490   29.8370   40.1570 N   0  0  0  0  0  0  0  0  0  0  0  0
   39.1550   30.6160   39.0650 C   0  0  0  0  0  0  0  0  0  0  0  0
   38.2240   31.5300   38.7090 N   0  0  0  0  0  0  0  0  0  0  0  0
   36.3170   32.3850   39.1960 H   0  0  0  0  0  0  0  0  0  0  0  0
   40.0500   30.5230   38.4670 H   0  0  0  0  0  0  0  0  0  0  0  0
   35.6470   30.9930   41.3540 N   0  0  0  0  0  0  0  0  0  0  0  0
   34.6460   30.7620   41.1150 H   0  0  0  0  0  0  0  0  0  0  0  0
   35.9990   31.3860   42.2490 H   0  0  0  0  0  0  0  0  0  0  0  0
   38.7290   27.3010   43.5640 C   0  0  0  0  0  0  0  0  0  0  0  0
   38.6960   28.1580   44.2930 H   0  0  0  0  0  0  0  0  0  0  0  0
   38.0480   26.4770   43.8620 H   0  0  0  0  0  0  0  0  0  0  0  0
   40.1360   26.8700   43.5000 C   0  0  0  0  0  0  0  0  0  0  0  0
   41.3530   27.4740   43.6410 C   0  0  0  0  0  0  0  0  0  0  0  0
   41.3640   28.5320   43.8560 H   0  0  0  0  0  0  0  0  0  0  0  0
   42.4770   26.6970   43.5020 C   0  0  0  0  0  3  0  0  0  0  0  0
   42.3230   25.3640   43.2290 C   0  0  0  0  0  3  0  0  0  0  0  0
   40.4550   25.1940   43.1650 S   0  0  0  0  0  0  0  0  0  0  0  0
  1  3  1  0  0  0  0
  1  4  1  1  0  0  0
  2  1  1  0  0  0  0
  2  3  1  0  0  0  0
  2  6  1  0  0  0  0
  3  7  1  6  0  0  0
  3 19  1  0  0  0  0
  5  2  1  0  0  0  0
  8  9  1  0  0  0  0
  9 10  2  0  0  0  0
  9 16  1  0  0  0  0
 10  1  1  0  0  0  0
 11 10  1  0  0  0  0
 12 11  2  0  0  0  0
 13 12  1  0  0  0  0
 13  8  2  0  0  0  0
 14  8  1  0  0  0  0
 15 12  1  0  0  0  0
 16 18  1  0  0  0  0
 17 16  1  0  0  0  0
 19 21  1  0  0  0  0
 19 20  1  0  0  0  0
 22 19  1  0  0  0  0
 22 23  2  0  0  0  0
 23 24  1  0  0  0  0
 25 23  1  0  0  0  0
 26 25  2  0  0  0  0
 27 26  1  0  0  0  0
 27 22  1  0  0  0  0
M  END
>  <minimizedAffinity>
-4.73590851

$$$$

 OpenBabel03252509273D

 27 29  0  0  1  0  0  0  0  0999 V2000
   36.1520   29.4440   38.7890 C   0  0  1  0  0  0  0  0  0  0  0  0
   36.3120   29.0620   37.2880 C   0  0  0  0  0  0  0  0  0  0  0  0
   36.7890   28.2220   38.5170 C   0  0  2  0  0  0  0  0  0  0  0  0
   35.0900   29.5230   39.0960 H   0  0  0  0  0  0  0  0  0  0  0  0
   37.0600   29.5650   36.6870 H   0  0  0  0  0  0  0  0  0  0  0  0
   35.4130   28.6550   36.8000 H   0  0  0  0  0  0  0  0  0  0  0  0
   37.9220   28.2160   38.5870 H   0  0  0  0  0  0  0  0  0  0  0  0
   37.6370   32.4240   40.5220 C   0  0  0  0  0  0  0  0  0  0  0  0
   36.7670   31.3160   40.2800 C   0  0  0  0  0  0  0  0  0  0  0  0
   36.9760   30.6580   39.1150 C   0  0  0  0  0  0  0  0  0  0  0  0
   37.9640   31.0420   38.2270 N   0  0  0  0  0  0  0  0  0  0  0  0
   38.7670   32.1010   38.4980 C   0  0  0  0  0  0  0  0  0  0  0  0
   38.6010   32.7920   39.6480 N   0  0  0  0  0  0  0  0  0  0  0  0
   37.4630   32.9470   41.4610 H   0  0  0  0  0  0  0  0  0  0  0  0
   39.5420   32.4110   37.8110 H   0  0  0  0  0  0  0  0  0  0  0  0
   35.7460   30.9420   41.1840 N   0  0  0  0  0  0  0  0  0  0  0  0
   34.8530   31.4300   41.4620 H   0  0  0  0  0  0  0  0  0  0  0  0
   36.0900   30.0260   41.5330 H   0  0  0  0  0  0  0  0  0  0  0  0
   36.1080   26.8980   38.7780 C   0  0  0  0  0  0  0  0  0  0  0  0
   35.0210   27.1460   38.9320 H   0  0  0  0  0  0  0  0  0  0  0  0
   36.2570   26.1910   37.9350 H   0  0  0  0  0  0  0  0  0  0  0  0
   36.5900   26.3510   40.0590 C   0  0  0  0  0  0  0  0  0  0  0  0
   37.0180   26.8710   41.2470 C   0  0  0  0  0  0  0  0  0  0  0  0
   37.0330   27.9470   41.3450 H   0  0  0  0  0  0  0  0  0  0  0  0
   37.3980   25.9950   42.2330 C   0  0  0  0  0  3  0  0  0  0  0  0
   37.3310   24.6520   41.9780 C   0  0  0  0  0  3  0  0  0  0  0  0
   36.6820   24.6230   40.2170 S   0  0  0  0  0  0  0  0  0  0  0  0
  1  4  1  1  0  0  0
  1 10  1  0  0  0  0
  2  3  1  0  0  0  0
  2  1  1  0  0  0  0
  3  7  1  1  0  0  0
  3 19  1  0  0  0  0
  3  1  1  0  0  0  0
  5  2  1  0  0  0  0
  6  2  1  0  0  0  0
  8 14  1  0  0  0  0
  9  8  1  0  0  0  0
  9 16  1  0  0  0  0
 10  9  2  0  0  0  0
 11 12  2  0  0  0  0
 11 10  1  0  0  0  0
 12 13  1  0  0  0  0
 13  8  2  0  0  0  0
 15 12  1  0  0  0  0
 16 17  1  0  0  0  0
 16 18  1  0  0  0  0
 19 20  1  0  0  0  0
 19 22  1  0  0  0  0
 21 19  1  0  0  0  0
 22 27  1  0  0  0  0
 22 23  2  0  0  0  0
 23 24  1  0  0  0  0
 23 25  1  0  0  0  0
 26 25  2  0  0  0  0
 27 26  1  0  0  0  0
M  END
>  <minimizedAffinity>
-4.51931715

$$$$

 OpenBabel03252509273D

 27 29  0  0  1  0  0  0  0  0999 V2000
   38.4080   32.4810   40.7840 C   0  0  1  0  0  0  0  0  0  0  0  0
   37.4210   32.9700   39.6830 C   0  0  0  0  0  0  0  0  0  0  0  0
   37.5760   31.5060   40.2100 C   0  0  2  0  0  0  0  0  0  0  0  0
   38.2100   32.9480   41.7700 H   0  0  0  0  0  0  0  0  0  0  0  0
   37.7990   33.2040   38.6950 H   0  0  0  0  0  0  0  0  0  0  0  0
   36.5110   33.4730   40.0460 H   0  0  0  0  0  0  0  0  0  0  0  0
   38.0470   30.8410   39.4210 H   0  0  0  0  0  0  0  0  0  0  0  0
   42.1500   32.3060   40.5500 C   0  0  0  0  0  0  0  0  0  0  0  0
   40.8390   32.1830   41.1070 C   0  0  0  0  0  0  0  0  0  0  0  0
   39.8300   32.6180   40.3160 C   0  0  0  0  0  0  0  0  0  0  0  0
   40.0620   33.1450   39.0590 N   0  0  0  0  0  0  0  0  0  0  0  0
   41.3240   33.2440   38.5710 C   0  0  0  0  0  0  0  0  0  0  0  0
   42.3680   32.8240   39.3200 N   0  0  0  0  0  0  0  0  0  0  0  0
   42.9560   31.9540   41.1920 H   0  0  0  0  0  0  0  0  0  0  0  0
   41.5180   33.6550   37.5900 H   0  0  0  0  0  0  0  0  0  0  0  0
   40.6110   31.6600   42.4010 N   0  0  0  0  0  0  0  0  0  0  0  0
   40.8520   32.0410   43.3550 H   0  0  0  0  0  0  0  0  0  0  0  0
   40.1260   30.7660   42.1910 H   0  0  0  0  0  0  0  0  0  0  0  0
   36.4190   30.9010   40.9730 C   0  0  0  0  0  0  0  0  0  0  0  0
   36.1900   31.6340   41.7960 H   0  0  0  0  0  0  0  0  0  0  0  0
   35.5430   30.7300   40.3140 H   0  0  0  0  0  0  0  0  0  0  0  0
   36.8720   29.6650   41.6360 C   0  0  0  0  0  0  0  0  0  0  0  0
   37.6260   29.3630   42.7340 C   0  0  0  0  0  0  0  0  0  0  0  0
   38.0240   30.1850   43.3100 H   0  0  0  0  0  0  0  0  0  0  0  0
   37.8270   28.0370   43.0300 C   0  0  0  0  0  3  0  0  0  0  0  0
   37.2660   27.0910   42.2160 C   0  0  0  0  0  3  0  0  0  0  0  0
   36.3890   28.1490   40.9380 S   0  0  0  0  0  0  0  0  0  0  0  0
  1  4  1  1  0  0  0
  2  6  1  0  0  0  0
  2  3  1  0  0  0  0
  2  1  1  0  0  0  0
  3  7  1  6  0  0  0
  3  1  1  0  0  0  0
  3 19  1  0  0  0  0
  5  2  1  0  0  0  0
  8  9  1  0  0  0  0
  8 14  1  0  0  0  0
  9 16  1  0  0  0  0
 10  1  1  0  0  0  0
 10  9  2  0  0  0  0
 11 10  1  0  0  0  0
 12 11  2  0  0  0  0
 12 13  1  0  0  0  0
 13  8  2  0  0  0  0
 15 12  1  0  0  0  0
 16 17  1  0  0  0  0
 18 16  1  0  0  0  0
 19 22  1  0  0  0  0
 19 20  1  0  0  0  0
 21 19  1  0  0  0  0
 22 23  2  0  0  0  0
 23 25  1  0  0  0  0
 23 24  1  0  0  0  0
 26 25  2  0  0  0  0
 27 22  1  0  0  0  0
 27 26  1  0  0  0  0
M  END
>  <minimizedAffinity>
-4.45970249

$$$$

 OpenBabel03252509273D

 27 29  0  0  1  0  0  0  0  0999 V2000
   36.3010   28.4730   40.2120 C   0  0  1  0  0  0  0  0  0  0  0  0
   36.1270   27.3100   39.1910 C   0  0  0  0  0  0  0  0  0  0  0  0
   37.2010   27.4000   40.3240 C   0  0  2  0  0  0  0  0  0  0  0  0
   35.4160   28.5970   40.8690 H   0  0  0  0  0  0  0  0  0  0  0  0
   36.4480   27.4490   38.1660 H   0  0  0  0  0  0  0  0  0  0  0  0
   35.3160   26.5980   39.4100 H   0  0  0  0  0  0  0  0  0  0  0  0
   38.2360   27.5610   39.8880 H   0  0  0  0  0  0  0  0  0  0  0  0
   36.9730   32.0670   39.3670 C   0  0  0  0  0  0  0  0  0  0  0  0
   36.4820   30.9330   40.0860 C   0  0  0  0  0  0  0  0  0  0  0  0
   36.7250   29.7320   39.5100 C   0  0  0  0  0  0  0  0  0  0  0  0
   37.3990   29.6210   38.3080 N   0  0  0  0  0  0  0  0  0  0  0  0
   37.8470   30.7250   37.6600 C   0  0  0  0  0  0  0  0  0  0  0  0
   37.6310   31.9500   38.1920 N   0  0  0  0  0  0  0  0  0  0  0  0
   36.7750   33.0290   39.8370 H   0  0  0  0  0  0  0  0  0  0  0  0
   38.3750   30.6510   36.7190 H   0  0  0  0  0  0  0  0  0  0  0  0
   35.7770   31.0560   41.3050 N   0  0  0  0  0  0  0  0  0  0  0  0
   34.8230   31.4550   41.5170 H   0  0  0  0  0  0  0  0  0  0  0  0
   36.4450   30.6430   41.9850 H   0  0  0  0  0  0  0  0  0  0  0  0
   37.1150   26.4080   41.4630 C   0  0  0  0  0  0  0  0  0  0  0  0
   37.9190   26.7150   42.1870 H   0  0  0  0  0  0  0  0  0  0  0  0
   36.1090   26.4150   41.9320 H   0  0  0  0  0  0  0  0  0  0  0  0
   37.4930   25.0720   40.9690 C   0  0  0  0  0  0  0  0  0  0  0  0
   36.9330   23.8270   40.9870 C   0  0  0  0  0  0  0  0  0  0  0  0
   35.9710   23.7170   41.4660 H   0  0  0  0  0  0  0  0  0  0  0  0
   37.6290   22.8000   40.3970 C   0  0  0  0  0  3  0  0  0  0  0  0
   38.8420   23.0740   39.8240 C   0  0  0  0  0  3  0  0  0  0  0  0
   39.0130   24.9170   40.1400 S   0  0  0  0  0  0  0  0  0  0  0  0
  1  3  1  0  0  0  0
  1  4  1  1  0  0  0
  2  6  1  0  0  0  0
  2  1  1  0  0  0  0
  2  3  1  0  0  0  0
  3  7  1  6  0  0  0
  3 19  1  0  0  0  0
  5  2  1  0  0  0  0
  8 14  1  0  0  0  0
  8  9  1  0  0  0  0
  9 16  1  0  0  0  0
 10  9  2  0  0  0  0
 10  1  1  0  0  0  0
 11 10  1  0  0  0  0
 12 13  1  0  0  0  0
 12 11  2  0  0  0  0
 13  8  2  0  0  0  0
 15 12  1  0  0  0  0
 16 17  1  0  0  0  0
 16 18  1  0  0  0  0
 19 21  1  0  0  0  0
 19 20  1  0  0  0  0
 22 23  2  0  0  0  0
 22 19  1  0  0  0  0
 23 24  1  0  0  0  0
 25 23  1  0  0  0  0
 26 27  1  0  0  0  0
 26 25  2  0  0  0  0
 27 22  1  0  0  0  0
M  END
>  <minimizedAffinity>
-4.44557762

$$$$

 OpenBabel03252509273D

 27 29  0  0  1  0  0  0  0  0999 V2000
   37.0620   30.1430   41.5950 C   0  0  1  0  0  0  0  0  0  0  0  0
   35.8360   29.7620   40.7150 C   0  0  0  0  0  0  0  0  0  0  0  0
   36.9530   28.7930   41.2240 C   0  0  2  0  0  0  0  0  0  0  0  0
   36.7660   30.5280   42.5930 H   0  0  0  0  0  0  0  0  0  0  0  0
   35.8290   30.0330   39.6660 H   0  0  0  0  0  0  0  0  0  0  0  0
   34.8800   29.6500   41.2500 H   0  0  0  0  0  0  0  0  0  0  0  0
   37.6110   28.4500   40.3660 H   0  0  0  0  0  0  0  0  0  0  0  0
   40.0290   32.1920   40.5530 C   0  0  0  0  0  0  0  0  0  0  0  0
   39.1960   31.3680   41.3720 C   0  0  0  0  0  0  0  0  0  0  0  0
   37.9920   31.0520   40.8400 C   0  0  0  0  0  0  0  0  0  0  0  0
   37.6030   31.5020   39.5920 N   0  0  0  0  0  0  0  0  0  0  0  0
   38.4260   32.2840   38.8490 C   0  0  0  0  0  0  0  0  0  0  0  0
   39.6410   32.6280   39.3340 N   0  0  0  0  0  0  0  0  0  0  0  0
   40.9960   32.4420   40.9870 H   0  0  0  0  0  0  0  0  0  0  0  0
   38.1330   32.6420   37.8730 H   0  0  0  0  0  0  0  0  0  0  0  0
   39.5940   30.9270   42.6550 N   0  0  0  0  0  0  0  0  0  0  0  0
   39.7480   31.4580   43.5530 H   0  0  0  0  0  0  0  0  0  0  0  0
   39.7050   29.9050   42.5090 H   0  0  0  0  0  0  0  0  0  0  0  0
   36.5640   27.7250   42.2210 C   0  0  0  0  0  0  0  0  0  0  0  0
   36.1560   28.2820   43.1100 H   0  0  0  0  0  0  0  0  0  0  0  0
   35.8190   27.0220   41.7940 H   0  0  0  0  0  0  0  0  0  0  0  0
   37.7800   27.0370   42.6900 C   0  0  0  0  0  0  0  0  0  0  0  0
   38.8490   27.3620   43.4750 C   0  0  0  0  0  0  0  0  0  0  0  0
   38.8770   28.3580   43.8930 H   0  0  0  0  0  0  0  0  0  0  0  0
   39.8120   26.4050   43.6800 C   0  0  0  0  0  3  0  0  0  0  0  0
   39.6540   25.1800   43.0890 C   0  0  0  0  0  3  0  0  0  0  0  0
   38.0270   25.3940   42.1790 S   0  0  0  0  0  0  0  0  0  0  0  0
  1  4  1  1  0  0  0
  2  3  1  0  0  0  0
  2  6  1  0  0  0  0
  2  1  1  0  0  0  0
  3  7  1  6  0  0  0
  3  1  1  0  0  0  0
  3 19  1  0  0  0  0
  5  2  1  0  0  0  0
  8 14  1  0  0  0  0
  8  9  1  0  0  0  0
  9 16  1  0  0  0  0
 10  9  2  0  0  0  0
 10  1  1  0  0  0  0
 11 10  1  0  0  0  0
 12 13  1  0  0  0  0
 12 11  2  0  0  0  0
 13  8  2  0  0  0  0
 15 12  1  0  0  0  0
 16 17  1  0  0  0  0
 18 16  1  0  0  0  0
 19 22  1  0  0  0  0
 19 20  1  0  0  0  0
 21 19  1  0  0  0  0
 22 23  2  0  0  0  0
 23 25  1  0  0  0  0
 23 24  1  0  0  0  0
 26 25  2  0  0  0  0
 27 22  1  0  0  0  0
 27 26  1  0  0  0  0
M  END
>  <minimizedAffinity>
-4.37857723

$$$$

 OpenBabel03252509273D

 27 29  0  0  1  0  0  0  0  0999 V2000
   38.3140   32.6000   40.1780 C   0  0  1  0  0  0  0  0  0  0  0  0
   37.0970   33.2980   39.5030 C   0  0  0  0  0  0  0  0  0  0  0  0
   37.2540   31.7670   39.7790 C   0  0  2  0  0  0  0  0  0  0  0  0
   38.4670   32.9310   41.2250 H   0  0  0  0  0  0  0  0  0  0  0  0
   37.1840   33.6490   38.4810 H   0  0  0  0  0  0  0  0  0  0  0  0
   36.3930   33.7980   40.1860 H   0  0  0  0  0  0  0  0  0  0  0  0
   37.3990   31.1960   38.8100 H   0  0  0  0  0  0  0  0  0  0  0  0
   41.7360   33.4350   38.8820 C   0  0  0  0  0  0  0  0  0  0  0  0
   40.6010   33.4290   39.7520 C   0  0  0  0  0  0  0  0  0  0  0  0
   39.5370   32.7170   39.3130 C   0  0  0  0  0  0  0  0  0  0  0  0
   39.5550   32.0480   38.1030 N   0  0  0  0  0  0  0  0  0  0  0  0
   40.6530   32.0820   37.3080 C   0  0  0  0  0  0  0  0  0  0  0  0
   41.7440   32.7780   37.7000 N   0  0  0  0  0  0  0  0  0  0  0  0
   42.5880   34.0090   39.2420 H   0  0  0  0  0  0  0  0  0  0  0  0
   40.6790   31.5630   36.3600 H   0  0  0  0  0  0  0  0  0  0  0  0
   40.5840   34.1320   40.9790 N   0  0  0  0  0  0  0  0  0  0  0  0
   40.5890   35.1660   41.1850 H   0  0  0  0  0  0  0  0  0  0  0  0
   40.5650   33.3580   41.6720 H   0  0  0  0  0  0  0  0  0  0  0  0
   36.3240   31.1300   40.7860 C   0  0  0  0  0  0  0  0  0  0  0  0
   36.6240   31.5580   41.7820 H   0  0  0  0  0  0  0  0  0  0  0  0
   35.2610   31.3400   40.5470 H   0  0  0  0  0  0  0  0  0  0  0  0
   36.6070   29.6850   40.8560 C   0  0  0  0  0  0  0  0  0  0  0  0
   36.3200   28.5920   40.0890 C   0  0  0  0  0  0  0  0  0  0  0  0
   35.7460   28.7510   39.1870 H   0  0  0  0  0  0  0  0  0  0  0  0
   36.7800   27.3700   40.5130 C   0  0  0  0  0  3  0  0  0  0  0  0
   37.4970   27.3070   41.6770 C   0  0  0  0  0  3  0  0  0  0  0  0
   37.5260   29.1060   42.2120 S   0  0  0  0  0  0  0  0  0  0  0  0
  1  4  1  1  0  0  0
  2  3  1  0  0  0  0
  2  1  1  0  0  0  0
  2  6  1  0  0  0  0
  3  7  1  6  0  0  0
  3  1  1  0  0  0  0
  3 19  1  0  0  0  0
  5  2  1  0  0  0  0
  8 14  1  0  0  0  0
  8  9  1  0  0  0  0
  9 16  1  0  0  0  0
 10  9  2  0  0  0  0
 10  1  1  0  0  0  0
 11 10  1  0  0  0  0
 12 13  1  0  0  0  0
 12 11  2  0  0  0  0
 13  8  2  0  0  0  0
 15 12  1  0  0  0  0
 16 17  1  0  0  0  0
 16 18  1  0  0  0  0
 19 22  1  0  0  0  0
 19 20  1  0  0  0  0
 21 19  1  0  0  0  0
 22 27  1  0  0  0  0
 23 25  1  0  0  0  0
 23 22  2  0  0  0  0
 24 23  1  0  0  0  0
 25 26  2  0  0  0  0
 26 27  1  0  0  0  0
M  END
>  <minimizedAffinity>
-4.37533712

$$$$
