
 OpenBabel03242523533D

 42 45  0  0  1  0  0  0  0  0999 V2000
   42.6900   34.4700   38.8620 C   0  0  1  0  0  0  0  0  0  0  0  0
   43.0020   35.1920   40.1640 C   0  0  1  0  0  0  0  0  0  0  0  0
   41.7880   35.5650   40.7670 O   0  0  0  0  0  0  0  0  0  0  0  0
   40.8150   35.9320   39.8350 C   0  0  0  0  0  0  0  0  0  0  0  0
   40.3290   34.7420   39.0270 C   0  0  2  0  0  0  0  0  0  0  0  0
   41.4620   33.6610   39.1200 C   0  0  1  0  0  0  0  0  0  0  0  0
   43.5600   33.8420   38.5430 H   0  0  0  0  0  0  0  0  0  0  0  0
   43.6710   36.0560   40.0310 H   0  0  0  0  0  0  0  0  0  0  0  0
   39.9630   36.3060   40.4130 H   0  0  0  0  0  0  0  0  0  0  0  0
   41.1540   36.7640   39.1860 H   0  0  0  0  0  0  0  0  0  0  0  0
   39.3860   34.3320   39.4190 H   0  0  0  0  0  0  0  0  0  0  0  0
   41.3180   33.4600   40.2340 H   0  0  0  0  0  0  0  0  0  0  0  0
   42.4720   35.3840   37.8210 O   0  0  0  0  0  0  0  0  0  0  0  0
   43.3020   35.7830   37.5150 H   0  0  0  0  0  0  0  0  0  0  0  0
   40.2680   35.0860   37.6850 O   0  0  0  0  0  0  0  0  0  0  0  0
   39.3440   35.3610   37.4160 H   0  0  0  0  0  0  0  0  0  0  0  0
   43.5200   34.2070   41.0200 O   0  0  0  0  0  0  0  0  0  0  0  0
   44.6380   34.3300   41.7460 C   0  0  0  0  0  0  0  0  0  0  0  0
   45.8910   34.4560   41.1280 C   0  0  0  0  0  0  0  0  0  0  0  0
   47.0140   34.5820   41.9290 C   0  0  0  0  0  0  0  0  0  0  0  0
   46.8670   34.5800   43.3050 N   0  0  0  0  0  0  0  0  0  0  0  0
   45.6420   34.4570   43.8650 C   0  0  0  0  0  0  0  0  0  0  0  0
   44.5340   34.3320   43.0890 N   0  0  0  0  0  0  0  0  0  0  0  0
   46.0120   34.4580   40.0590 H   0  0  0  0  0  0  0  0  0  0  0  0
   45.6040   34.4630   44.9460 H   0  0  0  0  0  0  0  0  0  0  0  0
   48.3840   34.7050   41.3460 C   0  0  0  0  0  0  0  0  0  0  0  0
   49.0860   36.0510   41.5240 C   0  0  0  0  0  0  0  0  0  0  0  0
   49.5440   34.7350   42.1800 C   0  0  0  0  0  0  0  0  0  0  0  0
   48.4450   34.3200   40.2890 H   0  0  0  0  0  0  0  0  0  0  0  0
   48.6350   36.7730   42.2050 H   0  0  0  0  0  0  0  0  0  0  0  0
   49.7570   36.3900   40.7120 H   0  0  0  0  0  0  0  0  0  0  0  0
   50.5030   34.2900   41.8440 H   0  0  0  0  0  0  0  0  0  0  0  0
   49.4090   34.6640   43.2870 H   0  0  0  0  0  0  0  0  0  0  0  0
   41.1630   32.6860   38.2400 O   0  0  0  0  0  0  0  0  0  0  0  0
   40.2880   31.6860   38.3170 C   0  0  0  0  0  0  0  0  0  0  0  0
   39.9930   30.9040   37.2920 O   0  0  0  0  0  0  0  0  0  0  0  0
   39.3920   31.1130   39.4940 C   0  0  0  0  0  0  0  0  0  0  0  0
   38.3300   31.5460   40.0770 C   0  0  0  0  0  0  0  0  0  0  0  0
   37.9540   32.4870   39.6930 H   0  0  0  0  0  0  0  0  0  0  0  0
   37.7710   30.8310   41.0880 C   0  0  0  0  0  3  0  0  0  0  0  0
   38.4150   29.6380   41.4310 C   0  0  0  0  0  3  0  0  0  0  0  0
   39.8830   29.6290   40.1870 S   0  0  0  0  0  0  0  0  0  0  0  0
  1  7  1  6  0  0  0
  1  6  1  0  0  0  0
  1  2  1  0  0  0  0
  2  8  1  6  0  0  0
  2  3  1  0  0  0  0
  2 17  1  0  0  0  0
  4  9  1  0  0  0  0
  4  3  1  0  0  0  0
  5  6  1  0  0  0  0
  5 11  1  1  0  0  0
  5  4  1  0  0  0  0
  6 12  1  1  0  0  0
 10  4  1  0  0  0  0
 13  1  1  0  0  0  0
 14 13  1  0  0  0  0
 15  5  1  0  0  0  0
 16 15  1  0  0  0  0
 17 18  1  0  0  0  0
 18 23  1  0  0  0  0
 19 18  2  0  0  0  0
 19 20  1  0  0  0  0
 20 21  2  0  0  0  0
 21 22  1  0  0  0  0
 22 25  1  0  0  0  0
 23 22  2  0  0  0  0
 24 19  1  0  0  0  0
 26 27  1  0  0  0  0
 26 20  1  0  0  0  0
 26 28  1  0  0  0  0
 27 28  1  0  0  0  0
 27 30  1  0  0  0  0
 28 33  1  0  0  0  0
 29 26  1  0  0  0  0
 31 27  1  0  0  0  0
 32 28  1  0  0  0  0
 34 35  1  0  0  0  0
 34  6  1  0  0  0  0
 35 37  1  0  0  0  0
 36 35  2  0  0  0  0
 37 38  2  0  0  0  0
 37 42  1  0  0  0  0
 38 40  1  0  0  0  0
 39 38  1  0  0  0  0
 40 41  2  0  0  0  0
 42 41  1  0  0  0  0
M  END
>  <minimizedAffinity>
-6.19498253

>  <minimizedRMSD>
1.8760469

$$$$
