
 OpenBabel03242514573D

 22 23  0  0  0  0  0  0  0  0999 V2000
   43.4530   34.9980   41.5040 C   0  0  0  0  0  0  0  0  0  0  0  0
   43.5160   33.8960   41.7430 H   0  0  0  0  0  0  0  0  0  0  0  0
   43.6980   35.0680   40.4240 H   0  0  0  0  0  0  0  0  0  0  0  0
   42.0160   35.3870   41.7200 C   0  0  0  0  0  0  0  0  0  0  0  0
   41.9670   36.4670   41.9070 H   0  0  0  0  0  0  0  0  0  0  0  0
   41.5460   34.7990   42.5310 H   0  0  0  0  0  0  0  0  0  0  0  0
   41.2330   35.1250   40.5040 C   0  0  0  0  0  0  0  0  0  0  0  0
   39.8880   34.8720   40.3020 C   0  0  0  0  0  0  0  0  0  0  0  0
   39.2870   34.8600   41.2000 H   0  0  0  0  0  0  0  0  0  0  0  0
   39.4170   34.6590   39.0390 C   0  0  0  0  0  0  0  0  0  0  0  0
   40.3050   34.7040   37.9830 C   0  0  0  0  0  0  0  0  0  0  0  0
   41.9450   35.0780   38.8490 S   0  0  0  0  0  0  0  0  0  0  0  0
   44.6330   35.8290   42.5310 S   0  0  0  0  0  0  0  0  0  0  0  0
   45.3660   34.7840   43.7950 C   0  0  0  0  0  0  0  0  0  0  0  0
   46.4750   34.0350   43.3810 C   0  0  0  0  0  0  0  0  0  0  0  0
   47.0940   33.1950   44.3270 C   0  0  0  0  0  0  0  0  0  0  0  0
   46.5760   33.1660   45.5790 N   0  0  0  0  0  0  0  0  0  0  0  0
   45.5100   33.8990   45.9440 C   0  0  0  0  0  0  0  0  0  0  0  0
   44.9000   34.7050   45.0670 N   0  0  0  0  0  0  0  0  0  0  0  0
   46.8730   34.0720   42.3760 H   0  0  0  0  0  0  0  0  0  0  0  0
   47.9490   32.5920   44.0780 H   0  0  0  0  0  0  0  0  0  0  0  0
   45.0590   33.9160   46.9140 H   0  0  0  0  0  0  0  0  0  0  0  0
  1  4  1  0  0  0  0
  1  2  1  0  0  0  0
  1 13  1  0  0  0  0
  3  1  1  0  0  0  0
  4  5  1  0  0  0  0
  4  6  1  0  0  0  0
  7  4  1  0  0  0  0
  8  7  2  0  0  0  0
  8  9  1  0  0  0  0
 10  8  1  0  0  0  0
 11 12  1  0  0  0  0
 11 10  2  0  0  0  0
 12  7  1  0  0  0  0
 13 14  1  0  0  0  0
 14 19  1  0  0  0  0
 15 14  2  0  0  0  0
 15 16  1  0  0  0  0
 16 17  2  0  0  0  0
 17 18  1  0  0  0  0
 18 22  1  0  0  0  0
 19 18  2  0  0  0  0
 20 15  1  0  0  0  0
 21 16  1  0  0  0  0
M  END
>  <minimizedAffinity>
-4.05535698

>  <minimizedRMSD>
0.991501212

$$$$
