
 OpenBabel03242511193D

 36 39  0  0  1  0  0  0  0  0999 V2000
   48.3280   32.1510   40.9600 C   0  0  0  0  0  0  0  0  0  0  0  0
   49.5870   32.2300   40.6850 C   0  0  0  0  0  0  0  0  0  0  0  0
   50.1000   31.8490   39.4300 N   0  0  0  0  0  0  0  0  0  0  0  0
   51.1100   31.1120   38.7110 C   0  0  0  0  0  0  0  0  0  0  0  0
   52.3120   30.7610   38.9400 O   0  0  0  0  0  0  0  0  0  0  0  0
   50.0630   30.9880   37.6260 C   0  0  0  0  0  0  0  0  0  0  0  0
   49.4890   32.2850   38.1650 C   0  0  1  0  0  0  0  0  0  0  0  0
   47.7110   32.3580   38.3620 S   0  0  0  0  0  0  0  0  0  0  0  0
   47.3070   31.6560   39.9920 C   0  0  0  0  0  0  0  0  0  0  0  0
   50.4580   31.0280   36.6120 H   0  0  0  0  0  0  0  0  0  0  0  0
   49.4140   30.1350   37.8820 H   0  0  0  0  0  0  0  0  0  0  0  0
   49.9780   33.1880   37.7650 H   0  0  0  0  0  0  0  0  0  0  0  0
   47.3460   30.5320   39.9370 H   0  0  0  0  0  0  0  0  0  0  0  0
   46.2910   31.9910   40.2170 H   0  0  0  0  0  0  0  0  0  0  0  0
   47.8180   32.5480   42.2590 C   0  0  0  0  0  0  0  0  0  0  0  0
   48.5060   32.5530   43.0980 H   0  0  0  0  0  0  0  0  0  0  0  0
   46.9970   31.8250   42.5230 H   0  0  0  0  0  0  0  0  0  0  0  0
   46.9390   34.1650   42.1320 S   0  0  0  0  0  0  0  0  0  0  0  0
   44.5000   35.6520   45.0100 C   0  0  0  0  0  0  0  0  0  0  0  0
   45.1750   35.4870   43.7720 C   0  0  0  0  0  0  0  0  0  0  0  0
   46.0800   34.3990   43.6640 C   0  0  0  0  0  0  0  0  0  0  0  0
   46.2450   33.5910   44.7430 N   0  0  0  0  0  0  0  0  0  0  0  0
   45.5860   33.7950   45.8810 C   0  0  0  0  0  0  0  0  0  0  0  0
   44.7200   34.8030   46.0390 N   0  0  0  0  0  0  0  0  0  0  0  0
   43.8090   36.4800   45.0980 H   0  0  0  0  0  0  0  0  0  0  0  0
   45.0040   36.1520   42.9630 H   0  0  0  0  0  0  0  0  0  0  0  0
   45.8280   32.8710   46.9890 C   0  0  0  0  0  0  0  0  0  0  0  0
   45.0340   32.6440   48.0820 C   0  0  0  0  0  0  0  0  0  0  0  0
   44.1050   33.1840   48.1910 H   0  0  0  0  0  0  0  0  0  0  0  0
   45.4300   31.7340   49.0230 C   0  0  0  0  0  0  0  0  0  0  0  0
   46.6400   31.0580   48.8420 C   0  0  0  0  0  0  0  0  0  0  0  0
   47.2670   31.7590   47.2220 S   0  0  0  0  0  0  0  0  0  0  0  0
   50.5070   32.7300   41.7110 C   0  0  0  0  0  0  0  0  0  0  0  0
   51.2120   31.9920   42.4830 O   0  0  0  0  0  0  0  0  0  0  0  0
   51.2680   33.4850   42.5630 O   0  0  0  0  0  0  0  0  0  0  0  0
   51.4970   34.4480   42.5020 H   0  0  0  0  0  0  0  0  0  0  0  0
  1 15  1  0  0  0  0
  2  1  2  0  0  0  0
  2 33  1  0  0  0  0
  3  2  1  0  0  0  0
  4  5  2  0  0  0  0
  4  3  1  0  0  0  0
  6 11  1  0  0  0  0
  6  7  1  0  0  0  0
  6  4  1  0  0  0  0
  7 12  1  6  0  0  0
  7  8  1  0  0  0  0
  7  3  1  0  0  0  0
  8  9  1  0  0  0  0
  9 14  1  0  0  0  0
  9  1  1  0  0  0  0
 10  6  1  0  0  0  0
 13  9  1  0  0  0  0
 15 17  1  0  0  0  0
 15 16  1  0  0  0  0
 18 15  1  0  0  0  0
 18 21  1  0  0  0  0
 19 25  1  0  0  0  0
 19 24  1  0  0  0  0
 20 19  2  0  0  0  0
 21 20  1  0  0  0  0
 21 22  2  0  0  0  0
 22 23  1  0  0  0  0
 23 24  2  0  0  0  0
 23 27  1  0  0  0  0
 26 20  1  0  0  0  0
 27 32  1  0  0  0  0
 27 28  2  0  0  0  0
 28 29  1  0  0  0  0
 28 30  1  0  0  0  0
 31 30  2  0  0  0  0
 32 31  1  0  0  0  0
 33 34  2  0  0  0  0
 33 35  1  0  0  0  0
 36 35  1  0  0  0  0
M  END
>  <minimizedAffinity>
-5.71964407

>  <minimizedRMSD>
0.845843494

$$$$
