
 OpenBabel03252509243D

 24 26  0  0  1  0  0  0  0  0999 V2000
   46.6270   35.0880   41.9310 C   0  0  1  0  0  0  0  0  0  0  0  0
   48.1560   35.3460   41.9440 C   0  0  0  0  0  0  0  0  0  0  0  0
   47.4500   34.1030   41.3250 C   0  0  2  0  0  0  0  0  0  0  0  0
   46.0570   35.8690   41.3960 H   0  0  0  0  0  0  0  0  0  0  0  0
   48.4780   36.1090   41.2170 H   0  0  0  0  0  0  0  0  0  0  0  0
   48.7150   35.2290   42.8670 H   0  0  0  0  0  0  0  0  0  0  0  0
   47.6870   33.1830   41.9090 H   0  0  0  0  0  0  0  0  0  0  0  0
   44.6880   35.3150   45.1330 C   0  0  0  0  0  0  0  0  0  0  0  0
   45.1480   35.6680   43.8210 C   0  0  0  0  0  0  0  0  0  0  0  0
   46.1260   34.8370   43.3410 C   0  0  0  0  0  0  0  0  0  0  0  0
   46.6080   33.7660   44.0740 N   0  0  0  0  0  0  0  0  0  0  0  0
   46.1360   33.4890   45.2950 C   0  0  0  0  0  0  0  0  0  0  0  0
   45.1640   34.2730   45.8310 N   0  0  0  0  0  0  0  0  0  0  0  0
   43.9260   35.9240   45.5620 H   0  0  0  0  0  0  0  0  0  0  0  0
   46.6460   32.6190   45.6830 H   0  0  0  0  0  0  0  0  0  0  0  0
   44.6490   36.7810   43.1000 N   0  0  0  0  0  0  0  0  0  0  0  0
   45.0970   37.6340   43.5300 H   0  0  0  0  0  0  0  0  0  0  0  0
   43.9750   36.7920   42.3000 H   0  0  0  0  0  0  0  0  0  0  0  0
   47.4640   33.9760   39.8720 C   0  0  0  0  0  0  0  0  0  0  0  0
   48.2750   34.4230   38.8890 C   0  0  0  0  0  0  0  0  0  0  0  0
   49.1180   35.0150   39.2080 H   0  0  0  0  0  0  0  0  0  0  0  0
   47.9940   34.1120   37.5790 C   0  0  0  0  0  3  0  0  0  0  0  0
   46.8450   33.3250   37.3520 C   0  0  0  0  0  3  0  0  0  0  0  0
   46.1770   33.0380   39.0290 S   0  0  0  0  0  0  0  0  0  0  0  0
  1  4  1  6  0  0  0
  1  2  1  0  0  0  0
  1 10  1  0  0  0  0
  2  6  1  0  0  0  0
  3  7  1  1  0  0  0
  3  1  1  0  0  0  0
  3  2  1  0  0  0  0
  5  2  1  0  0  0  0
  8 14  1  0  0  0  0
  8 13  1  0  0  0  0
  9  8  2  0  0  0  0
 10  9  1  0  0  0  0
 10 11  2  0  0  0  0
 11 12  1  0  0  0  0
 12 15  1  0  0  0  0
 12 13  2  0  0  0  0
 16 17  1  0  0  0  0
 16  9  1  0  0  0  0
 18 16  1  0  0  0  0
 19  3  1  0  0  0  0
 20 21  1  0  0  0  0
 20 19  2  0  0  0  0
 22 20  1  0  0  0  0
 23 22  2  0  0  0  0
 23 24  1  0  0  0  0
 24 19  1  0  0  0  0
M  END
>  <minimizedAffinity>
-5.10112476

>  <minimizedRMSD>
0.363350183

$$$$
