
 OpenBabel03252508463D

 42 44  0  0  0  0  0  0  0  0999 V2000
   43.0690   32.5690   41.6430 C   0  0  0  0  0  0  0  0  0  0  0  0
   42.1660   33.0000   41.1720 H   0  0  0  0  0  0  0  0  0  0  0  0
   43.6740   32.1210   40.8020 H   0  0  0  0  0  0  0  0  0  0  0  0
   43.6690   34.9890   41.8810 C   0  0  0  0  0  0  0  0  0  0  0  0
   43.9220   33.6650   42.1880 C   0  0  0  0  0  0  0  0  0  0  0  0
   44.9890   33.3710   43.0130 C   0  0  0  0  0  0  0  0  0  0  0  0
   45.7680   34.3840   43.5090 C   0  0  0  0  0  0  0  0  0  0  0  0
   45.5350   35.7090   43.2170 C   0  0  0  0  0  0  0  0  0  0  0  0
   44.4540   35.9530   42.3860 C   0  0  0  0  0  0  0  0  0  0  0  0
   45.2350   32.3550   43.2870 H   0  0  0  0  0  0  0  0  0  0  0  0
   46.6070   34.1590   44.1580 H   0  0  0  0  0  0  0  0  0  0  0  0
   46.0940   36.5460   43.5650 H   0  0  0  0  0  0  0  0  0  0  0  0
   44.1950   36.9650   42.1030 H   0  0  0  0  0  0  0  0  0  0  0  0
   40.2330   35.8170   40.5210 C   0  0  0  0  0  0  0  0  0  0  0  0
   41.2650   35.6060   41.4520 C   0  0  0  0  0  0  0  0  0  0  0  0
   42.5250   35.2340   41.0020 C   0  0  0  0  0  0  0  0  0  0  0  0
   42.6920   35.0900   39.6590 N   0  0  0  0  0  0  0  0  0  0  0  0
   41.6900   35.2960   38.7760 C   0  0  0  0  0  0  0  0  0  0  0  0
   40.4630   35.6600   39.2170 N   0  0  0  0  0  0  0  0  0  0  0  0
   39.2720   36.1030   40.8870 H   0  0  0  0  0  0  0  0  0  0  0  0
   41.1300   35.7210   42.5180 H   0  0  0  0  0  0  0  0  0  0  0  0
   41.9630   35.1470   37.7450 H   0  0  0  0  0  0  0  0  0  0  0  0
   42.7070   31.5590   42.5820 N   0  0  0  0  0  0  0  0  0  0  0  0
   42.9960   31.7330   43.5610 H   0  0  0  0  0  0  0  0  0  0  0  0
   41.0480   31.1740   42.5240 S   0  0  0  0  0  0  0  0  0  0  0  0
   40.1960   32.4210   42.4570 O   0  0  0  0  0  0  0  0  0  0  0  0
   39.8650   32.8130   43.3220 H   0  0  0  0  0  0  0  0  0  0  0  0
   40.6380   30.3540   43.7000 O   0  0  0  0  0  0  0  0  0  0  0  0
   39.7900   30.4150   44.2030 H   0  0  0  0  0  0  0  0  0  0  0  0
   40.7700   30.2890   41.1220 O   0  0  0  0  0  0  0  0  0  0  0  0
   40.7930   28.9440   41.4460 C   0  0  0  0  0  0  0  0  0  0  0  0
   40.0100   28.4520   40.8660 H   0  0  0  0  0  0  0  0  0  0  0  0
   40.6500   28.7140   42.5110 H   0  0  0  0  0  0  0  0  0  0  0  0
   42.1410   28.3430   41.0800 C   0  0  0  0  0  0  0  0  0  0  0  0
   42.9230   29.1270   41.0030 H   0  0  0  0  0  0  0  0  0  0  0  0
   42.0300   27.7740   40.1300 H   0  0  0  0  0  0  0  0  0  0  0  0
   42.5370   27.3070   42.0880 C   0  0  0  0  0  0  0  0  0  0  0  0
   43.6860   26.4660   42.0580 C   0  0  0  0  0  0  0  0  0  0  0  0
   44.3580   26.5660   41.2260 H   0  0  0  0  0  0  0  0  0  0  0  0
   43.8280   25.6060   43.0970 C   0  0  0  0  0  3  0  0  0  0  0  0
   42.8770   25.5530   44.1510 C   0  0  0  0  0  3  0  0  0  0  0  0
   41.6490   26.8520   43.6330 S   0  0  0  0  0  0  0  0  0  0  0  0
  1  5  1  0  0  0  0
  1 23  1  0  0  0  0
  2  1  1  0  0  0  0
  3  1  1  0  0  0  0
  4  5  2  0  0  0  0
  4  9  1  0  0  0  0
  5  6  1  0  0  0  0
  6 10  1  0  0  0  0
  6  7  2  0  0  0  0
  7 11  1  0  0  0  0
  8  7  1  0  0  0  0
  8 12  1  0  0  0  0
  9  8  2  0  0  0  0
 13  9  1  0  0  0  0
 14 20  1  0  0  0  0
 14 15  1  0  0  0  0
 15 21  1  0  0  0  0
 16 15  2  0  0  0  0
 16  4  1  0  0  0  0
 17 16  1  0  0  0  0
 18 19  1  0  0  0  0
 18 17  2  0  0  0  0
 19 14  2  0  0  0  0
 22 18  1  0  0  0  0
 23 24  1  0  0  0  0
 25 23  1  0  0  0  0
 25 28  1  0  0  0  0
 26 25  1  0  0  0  0
 26 27  1  0  0  0  0
 28 29  1  0  0  0  0
 30 31  1  0  0  0  0
 30 25  1  0  0  0  0
 31 33  1  0  0  0  0
 32 31  1  0  0  0  0
 34 31  1  0  0  0  0
 34 37  1  0  0  0  0
 35 34  1  0  0  0  0
 36 34  1  0  0  0  0
 37 42  1  0  0  0  0
 38 37  2  0  0  0  0
 38 40  1  0  0  0  0
 39 38  1  0  0  0  0
 40 41  2  0  0  0  0
 42 41  1  0  0  0  0
M  END
>  <minimizedAffinity>
-4.59733772

>  <minimizedRMSD>
1.6701175

$$$$
