
 OpenBabel03252503303D

 34 36  0  0  1  0  0  0  0  0999 V2000
   36.7040   29.2690   36.7420 C   0  0  0  0  0  0  0  0  0  0  0  0
   36.9500   30.1860   35.6880 C   0  0  0  0  0  0  0  0  0  0  0  0
   36.0240   30.1750   34.6410 C   0  0  0  0  0  0  0  0  0  0  0  0
   34.9910   29.3190   34.7060 N   0  0  0  0  0  0  0  0  0  0  0  0
   34.7980   28.4680   35.7280 C   0  0  0  0  0  0  0  0  0  0  0  0
   35.6690   28.4490   36.7540 N   0  0  0  0  0  0  0  0  0  0  0  0
   37.4270   30.2920   38.7320 C   0  0  0  0  0  0  0  0  0  0  0  0
   36.5780   31.1580   38.4430 O   0  0  0  0  0  0  0  0  0  0  0  0
   37.5790   29.1880   37.8640 N   0  0  0  0  0  0  0  0  0  0  0  0
   38.1890   30.4760   39.9180 N   0  0  0  0  0  0  0  0  0  0  0  0
   38.2090   31.7730   40.5800 C   0  0  0  0  0  0  0  0  0  0  0  0
   39.5750   31.7840   41.2030 C   0  0  0  0  0  0  0  0  0  0  0  0
   40.1920   30.4260   40.9880 C   0  0  0  0  0  0  0  0  0  0  0  0
   39.0280   29.5480   40.6640 C   0  0  1  0  0  0  0  0  0  0  0  0
   37.8240   30.8160   35.7680 H   0  0  0  0  0  0  0  0  0  0  0  0
   33.9480   27.7960   35.7360 H   0  0  0  0  0  0  0  0  0  0  0  0
   38.2730   28.4700   38.1150 H   0  0  0  0  0  0  0  0  0  0  0  0
   37.3760   31.9520   41.2550 H   0  0  0  0  0  0  0  0  0  0  0  0
   38.2160   32.6000   39.8160 H   0  0  0  0  0  0  0  0  0  0  0  0
   39.5530   32.1010   42.2720 H   0  0  0  0  0  0  0  0  0  0  0  0
   40.2810   32.5150   40.7210 H   0  0  0  0  0  0  0  0  0  0  0  0
   40.6070   30.1200   41.9710 H   0  0  0  0  0  0  0  0  0  0  0  0
   40.9950   30.4090   40.2330 H   0  0  0  0  0  0  0  0  0  0  0  0
   39.4100   28.8480   39.8620 H   0  0  0  0  0  0  0  0  0  0  0  0
   38.4050   28.8130   41.6760 C   0  0  0  0  0  0  0  0  0  0  0  0
   38.7760   28.2980   42.9390 C   0  0  0  0  0  0  0  0  0  0  0  0
   39.7960   28.5130   43.2080 H   0  0  0  0  0  0  0  0  0  0  0  0
   37.8560   27.6010   43.6800 C   0  0  0  0  0  3  0  0  0  0  0  0
   36.5730   27.4020   43.1970 C   0  0  0  0  0  3  0  0  0  0  0  0
   36.5940   28.2540   41.5400 S   0  0  0  0  0  0  0  0  0  0  0  0
   36.3040   31.1300   33.5680 C   0  0  0  0  0  0  0  0  0  0  0  0
   37.1160   32.1440   34.0590 F   0  0  0  0  0  0  0  0  0  0  0  0
   35.1130   31.7470   33.2280 F   0  0  0  0  0  0  0  0  0  0  0  0
   36.9500   30.5790   32.4900 F   0  0  0  0  0  0  0  0  0  0  0  0
  1  6  1  0  0  0  0
  1  9  1  0  0  0  0
  2 15  1  0  0  0  0
  2  1  2  0  0  0  0
  3  4  2  0  0  0  0
  3  2  1  0  0  0  0
  4  5  1  0  0  0  0
  5 16  1  0  0  0  0
  5  6  2  0  0  0  0
  7 10  1  0  0  0  0
  8  7  2  0  0  0  0
  9 17  1  0  0  0  0
  9  7  1  0  0  0  0
 10 11  1  0  0  0  0
 10 14  1  0  0  0  0
 11 12  1  0  0  0  0
 11 18  1  0  0  0  0
 12 20  1  0  0  0  0
 13 12  1  0  0  0  0
 13 22  1  0  0  0  0
 14 24  1  6  0  0  0
 14 13  1  0  0  0  0
 14 25  1  0  0  0  0
 19 11  1  0  0  0  0
 21 12  1  0  0  0  0
 23 13  1  0  0  0  0
 25 26  2  0  0  0  0
 26 27  1  0  0  0  0
 26 28  1  0  0  0  0
 29 28  2  0  0  0  0
 30 25  1  0  0  0  0
 30 29  1  0  0  0  0
 31 32  1  0  0  0  0
 31  3  1  0  0  0  0
 33 31  1  0  0  0  0
 34 31  1  0  0  0  0
M  END
>  <minimizedAffinity>
-5.63036585

$$$$

 OpenBabel03252503303D

 34 36  0  0  1  0  0  0  0  0999 V2000
   36.8170   28.5760   36.0850 C   0  0  0  0  0  0  0  0  0  0  0  0
   36.7960   29.8720   35.5080 C   0  0  0  0  0  0  0  0  0  0  0  0
   36.2560   29.9580   34.2220 C   0  0  0  0  0  0  0  0  0  0  0  0
   35.8050   28.8360   33.6380 N   0  0  0  0  0  0  0  0  0  0  0  0
   35.8450   27.6280   34.2260 C   0  0  0  0  0  0  0  0  0  0  0  0
   36.3590   27.5050   35.4640 N   0  0  0  0  0  0  0  0  0  0  0  0
   36.4730   28.8430   38.3960 C   0  0  0  0  0  0  0  0  0  0  0  0
   35.3920   29.3550   38.0450 O   0  0  0  0  0  0  0  0  0  0  0  0
   37.3440   28.3630   37.3920 N   0  0  0  0  0  0  0  0  0  0  0  0
   36.7590   28.7760   39.7870 N   0  0  0  0  0  0  0  0  0  0  0  0
   35.9800   29.5670   40.7310 C   0  0  0  0  0  0  0  0  0  0  0  0
   36.9820   29.8280   41.8190 C   0  0  0  0  0  0  0  0  0  0  0  0
   38.2250   29.0380   41.5010 C   0  0  0  0  0  0  0  0  0  0  0  0
   37.7610   28.0140   40.5180 C   0  0  1  0  0  0  0  0  0  0  0  0
   37.1950   30.6870   36.0960 H   0  0  0  0  0  0  0  0  0  0  0  0
   35.4680   26.7510   33.7140 H   0  0  0  0  0  0  0  0  0  0  0  0
   38.2290   27.9290   37.6890 H   0  0  0  0  0  0  0  0  0  0  0  0
   35.0450   29.1100   41.0440 H   0  0  0  0  0  0  0  0  0  0  0  0
   35.7400   30.5740   40.2900 H   0  0  0  0  0  0  0  0  0  0  0  0
   36.5700   29.6240   42.8350 H   0  0  0  0  0  0  0  0  0  0  0  0
   37.3120   30.9010   41.8740 H   0  0  0  0  0  0  0  0  0  0  0  0
   38.5100   28.5250   42.4430 H   0  0  0  0  0  0  0  0  0  0  0  0
   39.0720   29.6510   41.1510 H   0  0  0  0  0  0  0  0  0  0  0  0
   38.6080   27.9260   39.7730 H   0  0  0  0  0  0  0  0  0  0  0  0
   37.3850   26.7430   40.9600 C   0  0  0  0  0  0  0  0  0  0  0  0
   37.2460   26.0970   42.2090 C   0  0  0  0  0  0  0  0  0  0  0  0
   37.4890   26.7260   43.0480 H   0  0  0  0  0  0  0  0  0  0  0  0
   36.8340   24.7880   42.2490 C   0  0  0  0  0  3  0  0  0  0  0  0
   36.5580   24.1040   41.0780 C   0  0  0  0  0  3  0  0  0  0  0  0
   36.8880   25.3660   39.7470 S   0  0  0  0  0  0  0  0  0  0  0  0
   36.2480   31.3060   33.6520 C   0  0  0  0  0  0  0  0  0  0  0  0
   36.9500   31.3000   32.4530 F   0  0  0  0  0  0  0  0  0  0  0  0
   36.9740   32.1280   34.4960 F   0  0  0  0  0  0  0  0  0  0  0  0
   34.9920   31.7880   33.3830 F   0  0  0  0  0  0  0  0  0  0  0  0
  1  9  1  0  0  0  0
  2  1  1  0  0  0  0
  2 15  1  0  0  0  0
  3  2  2  0  0  0  0
  4  3  1  0  0  0  0
  4  5  2  0  0  0  0
  5  6  1  0  0  0  0
  6  1  2  0  0  0  0
  7 10  1  0  0  0  0
  8  7  2  0  0  0  0
  9 17  1  0  0  0  0
  9  7  1  0  0  0  0
 10 14  1  0  0  0  0
 10 11  1  0  0  0  0
 11 18  1  0  0  0  0
 11 12  1  0  0  0  0
 12 21  1  0  0  0  0
 12 20  1  0  0  0  0
 13 12  1  0  0  0  0
 13 22  1  0  0  0  0
 14 24  1  6  0  0  0
 14 25  1  0  0  0  0
 14 13  1  0  0  0  0
 16  5  1  0  0  0  0
 19 11  1  0  0  0  0
 23 13  1  0  0  0  0
 25 26  2  0  0  0  0
 26 28  1  0  0  0  0
 26 27  1  0  0  0  0
 29 28  2  0  0  0  0
 30 25  1  0  0  0  0
 30 29  1  0  0  0  0
 31  3  1  0  0  0  0
 31 33  1  0  0  0  0
 32 31  1  0  0  0  0
 34 31  1  0  0  0  0
M  END
>  <minimizedAffinity>
-5.53511858

$$$$

 OpenBabel03252503303D

 34 36  0  0  1  0  0  0  0  0999 V2000
   38.7130   29.8850   39.5030 C   0  0  0  0  0  0  0  0  0  0  0  0
   39.3920   31.0240   40.0090 C   0  0  0  0  0  0  0  0  0  0  0  0
   38.9330   32.2620   39.5500 C   0  0  0  0  0  0  0  0  0  0  0  0
   37.9070   32.2850   38.6840 N   0  0  0  0  0  0  0  0  0  0  0  0
   37.2930   31.1780   38.2340 C   0  0  0  0  0  0  0  0  0  0  0  0
   37.7070   29.9680   38.6530 N   0  0  0  0  0  0  0  0  0  0  0  0
   38.6840   28.2780   41.2200 C   0  0  0  0  0  0  0  0  0  0  0  0
   38.0580   29.1520   41.8510 O   0  0  0  0  0  0  0  0  0  0  0  0
   39.0910   28.5690   39.8990 N   0  0  0  0  0  0  0  0  0  0  0  0
   38.9480   27.0440   41.8750 N   0  0  0  0  0  0  0  0  0  0  0  0
   38.7880   26.9340   43.3180 C   0  0  0  0  0  0  0  0  0  0  0  0
   39.8140   25.8950   43.6670 C   0  0  0  0  0  0  0  0  0  0  0  0
   40.3880   25.3630   42.3790 C   0  0  0  0  0  0  0  0  0  0  0  0
   39.3870   25.7610   41.3450 C   0  0  1  0  0  0  0  0  0  0  0  0
   40.2050   30.8540   40.7010 H   0  0  0  0  0  0  0  0  0  0  0  0
   36.4670   31.2480   37.5360 H   0  0  0  0  0  0  0  0  0  0  0  0
   39.5960   27.8380   39.3790 H   0  0  0  0  0  0  0  0  0  0  0  0
   37.7730   26.7320   43.6490 H   0  0  0  0  0  0  0  0  0  0  0  0
   39.1310   27.8820   43.8210 H   0  0  0  0  0  0  0  0  0  0  0  0
   39.4060   25.1020   44.3360 H   0  0  0  0  0  0  0  0  0  0  0  0
   40.6890   26.3050   44.2410 H   0  0  0  0  0  0  0  0  0  0  0  0
   40.3810   24.2570   42.4760 H   0  0  0  0  0  0  0  0  0  0  0  0
   41.4160   25.7020   42.1690 H   0  0  0  0  0  0  0  0  0  0  0  0
   40.0050   26.0540   40.4450 H   0  0  0  0  0  0  0  0  0  0  0  0
   38.3860   24.8640   40.9620 C   0  0  0  0  0  0  0  0  0  0  0  0
   37.0070   24.7010   41.2240 C   0  0  0  0  0  0  0  0  0  0  0  0
   36.6050   25.4470   41.8890 H   0  0  0  0  0  0  0  0  0  0  0  0
   36.3280   23.6620   40.6410 C   0  0  0  0  0  3  0  0  0  0  0  0
   36.9860   22.7770   39.8030 C   0  0  0  0  0  3  0  0  0  0  0  0
   38.7370   23.4120   39.7880 S   0  0  0  0  0  0  0  0  0  0  0  0
   39.6530   33.4170   40.0870 C   0  0  0  0  0  0  0  0  0  0  0  0
   40.6160   32.9780   40.9870 F   0  0  0  0  0  0  0  0  0  0  0  0
   38.7610   34.1600   40.8400 F   0  0  0  0  0  0  0  0  0  0  0  0
   40.3000   34.1610   39.1330 F   0  0  0  0  0  0  0  0  0  0  0  0
  1  9  1  0  0  0  0
  1  2  1  0  0  0  0
  2 15  1  0  0  0  0
  3  2  2  0  0  0  0
  3 31  1  0  0  0  0
  4  3  1  0  0  0  0
  5  6  1  0  0  0  0
  5  4  2  0  0  0  0
  6  1  2  0  0  0  0
  7  8  2  0  0  0  0
  7 10  1  0  0  0  0
  9  7  1  0  0  0  0
 10 11  1  0  0  0  0
 11 18  1  0  0  0  0
 11 12  1  0  0  0  0
 11 19  1  0  0  0  0
 12 21  1  0  0  0  0
 12 20  1  0  0  0  0
 13 22  1  0  0  0  0
 13 12  1  0  0  0  0
 14 24  1  6  0  0  0
 14 10  1  0  0  0  0
 14 13  1  0  0  0  0
 16  5  1  0  0  0  0
 17  9  1  0  0  0  0
 23 13  1  0  0  0  0
 25 26  2  0  0  0  0
 25 14  1  0  0  0  0
 26 27  1  0  0  0  0
 28 26  1  0  0  0  0
 29 28  2  0  0  0  0
 30 29  1  0  0  0  0
 30 25  1  0  0  0  0
 31 33  1  0  0  0  0
 31 32  1  0  0  0  0
 34 31  1  0  0  0  0
M  END
>  <minimizedAffinity>
-5.40375137

$$$$

 OpenBabel03252503303D

 34 36  0  0  1  0  0  0  0  0999 V2000
   39.3860   27.3370   41.2370 C   0  0  0  0  0  0  0  0  0  0  0  0
   38.3010   26.4390   41.0560 C   0  0  0  0  0  0  0  0  0  0  0  0
   38.2760   25.3340   41.9110 C   0  0  0  0  0  0  0  0  0  0  0  0
   39.2550   25.2020   42.8210 N   0  0  0  0  0  0  0  0  0  0  0  0
   40.2630   26.0810   42.9550 C   0  0  0  0  0  0  0  0  0  0  0  0
   40.3210   27.1580   42.1500 N   0  0  0  0  0  0  0  0  0  0  0  0
   38.5790   29.4970   40.7730 C   0  0  0  0  0  0  0  0  0  0  0  0
   37.7940   29.2650   41.7140 O   0  0  0  0  0  0  0  0  0  0  0  0
   39.5180   28.5000   40.4240 N   0  0  0  0  0  0  0  0  0  0  0  0
   38.4760   30.7510   40.1120 N   0  0  0  0  0  0  0  0  0  0  0  0
   37.2970   31.5840   40.3060 C   0  0  0  0  0  0  0  0  0  0  0  0
   37.2060   32.3040   38.9920 C   0  0  0  0  0  0  0  0  0  0  0  0
   38.4300   31.9530   38.1860 C   0  0  0  0  0  0  0  0  0  0  0  0
   39.3900   31.4250   39.2010 C   0  0  1  0  0  0  0  0  0  0  0  0
   37.5850   26.6710   40.2810 H   0  0  0  0  0  0  0  0  0  0  0  0
   41.0300   25.9320   43.7060 H   0  0  0  0  0  0  0  0  0  0  0  0
   40.1720   28.7030   39.6560 H   0  0  0  0  0  0  0  0  0  0  0  0
   37.3240   32.2120   41.1920 H   0  0  0  0  0  0  0  0  0  0  0  0
   36.3730   30.9430   40.3670 H   0  0  0  0  0  0  0  0  0  0  0  0
   37.0530   33.4020   39.1170 H   0  0  0  0  0  0  0  0  0  0  0  0
   36.3300   31.9820   38.3650 H   0  0  0  0  0  0  0  0  0  0  0  0
   38.8210   32.9140   37.7910 H   0  0  0  0  0  0  0  0  0  0  0  0
   38.2360   31.2670   37.3460 H   0  0  0  0  0  0  0  0  0  0  0  0
   39.9120   30.5660   38.6820 H   0  0  0  0  0  0  0  0  0  0  0  0
   40.3370   32.2770   39.7760 C   0  0  0  0  0  0  0  0  0  0  0  0
   40.6430   33.6550   39.7080 C   0  0  0  0  0  0  0  0  0  0  0  0
   39.9960   34.2080   39.0500 H   0  0  0  0  0  0  0  0  0  0  0  0
   41.6870   34.1500   40.4490 C   0  0  0  0  0  3  0  0  0  0  0  0
   42.4360   33.3100   41.2550 C   0  0  0  0  0  3  0  0  0  0  0  0
   41.6480   31.6410   40.9960 S   0  0  0  0  0  0  0  0  0  0  0  0
   37.1480   24.4260   41.7010 C   0  0  0  0  0  0  0  0  0  0  0  0
   36.4250   24.8430   40.5910 F   0  0  0  0  0  0  0  0  0  0  0  0
   36.2840   24.5660   42.7730 F   0  0  0  0  0  0  0  0  0  0  0  0
   37.5170   23.1230   41.4770 F   0  0  0  0  0  0  0  0  0  0  0  0
  1  6  1  0  0  0  0
  2  1  2  0  0  0  0
  2  3  1  0  0  0  0
  3  4  2  0  0  0  0
  4  5  1  0  0  0  0
  5 16  1  0  0  0  0
  6  5  2  0  0  0  0
  7  8  2  0  0  0  0
  9  7  1  0  0  0  0
  9  1  1  0  0  0  0
 10 11  1  0  0  0  0
 10  7  1  0  0  0  0
 11 19  1  0  0  0  0
 11 18  1  0  0  0  0
 12 20  1  0  0  0  0
 12 11  1  0  0  0  0
 13 12  1  0  0  0  0
 13 14  1  0  0  0  0
 14 24  1  6  0  0  0
 14 25  1  0  0  0  0
 14 10  1  0  0  0  0
 15  2  1  0  0  0  0
 17  9  1  0  0  0  0
 21 12  1  0  0  0  0
 22 13  1  0  0  0  0
 23 13  1  0  0  0  0
 25 30  1  0  0  0  0
 26 25  2  0  0  0  0
 26 28  1  0  0  0  0
 27 26  1  0  0  0  0
 28 29  2  0  0  0  0
 30 29  1  0  0  0  0
 31  3  1  0  0  0  0
 31 33  1  0  0  0  0
 32 31  1  0  0  0  0
 34 31  1  0  0  0  0
M  END
>  <minimizedAffinity>
-5.33941603

$$$$

 OpenBabel03252503303D

 34 36  0  0  1  0  0  0  0  0999 V2000
   37.9700   25.7790   40.2920 C   0  0  0  0  0  0  0  0  0  0  0  0
   36.7720   25.2150   39.7790 C   0  0  0  0  0  0  0  0  0  0  0  0
   36.5440   23.8740   40.0990 C   0  0  0  0  0  0  0  0  0  0  0  0
   37.4520   23.2290   40.8500 N   0  0  0  0  0  0  0  0  0  0  0  0
   38.5730   23.8060   41.3140 C   0  0  0  0  0  0  0  0  0  0  0  0
   38.8270   25.0970   41.0270 N   0  0  0  0  0  0  0  0  0  0  0  0
   37.5180   28.0330   40.7830 C   0  0  0  0  0  0  0  0  0  0  0  0
   36.6660   27.5590   41.5610 O   0  0  0  0  0  0  0  0  0  0  0  0
   38.3100   27.1380   40.0310 N   0  0  0  0  0  0  0  0  0  0  0  0
   37.6330   29.4480   40.7050 N   0  0  0  0  0  0  0  0  0  0  0  0
   36.5840   30.2980   41.2520 C   0  0  0  0  0  0  0  0  0  0  0  0
   36.6600   31.5010   40.3580 C   0  0  0  0  0  0  0  0  0  0  0  0
   37.8520   31.3290   39.4520 C   0  0  0  0  0  0  0  0  0  0  0  0
   38.6770   30.2880   40.1340 C   0  0  1  0  0  0  0  0  0  0  0  0
   36.1330   25.8540   39.1870 H   0  0  0  0  0  0  0  0  0  0  0  0
   39.2750   23.2440   41.9180 H   0  0  0  0  0  0  0  0  0  0  0  0
   39.0210   27.5360   39.4020 H   0  0  0  0  0  0  0  0  0  0  0  0
   36.6660   30.4910   42.3190 H   0  0  0  0  0  0  0  0  0  0  0  0
   35.5730   29.8400   41.0630 H   0  0  0  0  0  0  0  0  0  0  0  0
   36.6680   32.4580   40.9310 H   0  0  0  0  0  0  0  0  0  0  0  0
   35.7740   31.6060   39.6740 H   0  0  0  0  0  0  0  0  0  0  0  0
   38.3990   32.2940   39.4810 H   0  0  0  0  0  0  0  0  0  0  0  0
   37.5940   31.0900   38.4070 H   0  0  0  0  0  0  0  0  0  0  0  0
   39.0860   29.6510   39.2940 H   0  0  0  0  0  0  0  0  0  0  0  0
   39.7140   30.6690   40.9890 C   0  0  0  0  0  0  0  0  0  0  0  0
   40.0490   30.4540   42.3450 C   0  0  0  0  0  0  0  0  0  0  0  0
   39.3350   29.8470   42.8740 H   0  0  0  0  0  0  0  0  0  0  0  0
   41.1970   31.0090   42.8520 C   0  0  0  0  0  3  0  0  0  0  0  0
   42.0220   31.7740   42.0440 C   0  0  0  0  0  3  0  0  0  0  0  0
   41.1580   31.7510   40.3940 S   0  0  0  0  0  0  0  0  0  0  0  0
   35.3030   23.3200   39.5570 C   0  0  0  0  0  0  0  0  0  0  0  0
   34.3790   23.1740   40.5850 F   0  0  0  0  0  0  0  0  0  0  0  0
   35.5680   22.0340   39.1190 F   0  0  0  0  0  0  0  0  0  0  0  0
   34.7180   24.1040   38.5950 F   0  0  0  0  0  0  0  0  0  0  0  0
  1  6  1  0  0  0  0
  2  3  1  0  0  0  0
  2  1  2  0  0  0  0
  3  4  2  0  0  0  0
  4  5  1  0  0  0  0
  5 16  1  0  0  0  0
  6  5  2  0  0  0  0
  7  8  2  0  0  0  0
  9  1  1  0  0  0  0
  9  7  1  0  0  0  0
 10  7  1  0  0  0  0
 10 11  1  0  0  0  0
 11 18  1  0  0  0  0
 12 20  1  0  0  0  0
 12 11  1  0  0  0  0
 13 22  1  0  0  0  0
 13 14  1  0  0  0  0
 13 12  1  0  0  0  0
 14 24  1  6  0  0  0
 14 10  1  0  0  0  0
 14 25  1  0  0  0  0
 15  2  1  0  0  0  0
 17  9  1  0  0  0  0
 19 11  1  0  0  0  0
 21 12  1  0  0  0  0
 23 13  1  0  0  0  0
 25 26  2  0  0  0  0
 26 28  1  0  0  0  0
 26 27  1  0  0  0  0
 29 28  2  0  0  0  0
 30 25  1  0  0  0  0
 30 29  1  0  0  0  0
 31  3  1  0  0  0  0
 31 32  1  0  0  0  0
 33 31  1  0  0  0  0
 34 31  1  0  0  0  0
M  END
>  <minimizedAffinity>
-5.08805704

$$$$

 OpenBabel03252503303D

 34 36  0  0  1  0  0  0  0  0999 V2000
   36.2220   29.1870   38.1240 C   0  0  0  0  0  0  0  0  0  0  0  0
   34.8050   29.1530   38.0430 C   0  0  0  0  0  0  0  0  0  0  0  0
   34.2710   28.9980   36.7610 C   0  0  0  0  0  0  0  0  0  0  0  0
   35.1150   28.8950   35.7210 N   0  0  0  0  0  0  0  0  0  0  0  0
   36.4520   28.9310   35.8480 C   0  0  0  0  0  0  0  0  0  0  0  0
   37.0040   29.0790   37.0670 N   0  0  0  0  0  0  0  0  0  0  0  0
   36.8230   28.1600   40.1520 C   0  0  0  0  0  0  0  0  0  0  0  0
   36.2460   27.1650   39.6700 O   0  0  0  0  0  0  0  0  0  0  0  0
   36.8810   29.3400   39.3780 N   0  0  0  0  0  0  0  0  0  0  0  0
   37.3830   28.0410   41.4530 N   0  0  0  0  0  0  0  0  0  0  0  0
   37.0110   26.9220   42.3090 C   0  0  0  0  0  0  0  0  0  0  0  0
   37.1370   27.5230   43.6790 C   0  0  0  0  0  0  0  0  0  0  0  0
   37.7250   28.9020   43.5270 C   0  0  0  0  0  0  0  0  0  0  0  0
   38.3330   28.8870   42.1620 C   0  0  1  0  0  0  0  0  0  0  0  0
   34.2500   29.2490   38.9650 H   0  0  0  0  0  0  0  0  0  0  0  0
   37.0930   28.8420   34.9780 H   0  0  0  0  0  0  0  0  0  0  0  0
   37.3700   30.1540   39.7760 H   0  0  0  0  0  0  0  0  0  0  0  0
   37.5740   26.0090   42.1350 H   0  0  0  0  0  0  0  0  0  0  0  0
   35.9180   26.6810   42.1820 H   0  0  0  0  0  0  0  0  0  0  0  0
   37.7070   26.8690   44.3800 H   0  0  0  0  0  0  0  0  0  0  0  0
   36.1500   27.6720   44.1950 H   0  0  0  0  0  0  0  0  0  0  0  0
   38.5380   28.9730   44.2790 H   0  0  0  0  0  0  0  0  0  0  0  0
   37.0050   29.7210   43.6920 H   0  0  0  0  0  0  0  0  0  0  0  0
   38.1210   29.9160   41.7420 H   0  0  0  0  0  0  0  0  0  0  0  0
   39.6870   28.5800   42.0050 C   0  0  0  0  0  0  0  0  0  0  0  0
   40.7610   28.2370   42.8580 C   0  0  0  0  0  0  0  0  0  0  0  0
   40.4880   28.1990   43.8990 H   0  0  0  0  0  0  0  0  0  0  0  0
   41.9980   27.9940   42.3190 C   0  0  0  0  0  3  0  0  0  0  0  0
   42.1980   28.0830   40.9510 C   0  0  0  0  0  3  0  0  0  0  0  0
   40.5170   28.5510   40.2960 S   0  0  0  0  0  0  0  0  0  0  0  0
   32.8090   28.9680   36.7080 C   0  0  0  0  0  0  0  0  0  0  0  0
   32.3630   29.9310   35.8130 F   0  0  0  0  0  0  0  0  0  0  0  0
   32.3310   29.3670   37.9430 F   0  0  0  0  0  0  0  0  0  0  0  0
   32.2930   27.7640   36.2970 F   0  0  0  0  0  0  0  0  0  0  0  0
  1  9  1  0  0  0  0
  2  1  1  0  0  0  0
  2 15  1  0  0  0  0
  3  2  2  0  0  0  0
  4  5  2  0  0  0  0
  4  3  1  0  0  0  0
  5  6  1  0  0  0  0
  6  1  2  0  0  0  0
  7 10  1  0  0  0  0
  8  7  2  0  0  0  0
  9 17  1  0  0  0  0
  9  7  1  0  0  0  0
 10 14  1  0  0  0  0
 10 11  1  0  0  0  0
 11 12  1  0  0  0  0
 12 21  1  0  0  0  0
 12 20  1  0  0  0  0
 13 12  1  0  0  0  0
 13 23  1  0  0  0  0
 13 22  1  0  0  0  0
 14 24  1  6  0  0  0
 14 13  1  0  0  0  0
 16  5  1  0  0  0  0
 18 11  1  0  0  0  0
 19 11  1  0  0  0  0
 25 14  1  0  0  0  0
 25 26  2  0  0  0  0
 26 27  1  0  0  0  0
 28 26  1  0  0  0  0
 29 28  2  0  0  0  0
 30 29  1  0  0  0  0
 30 25  1  0  0  0  0
 31  3  1  0  0  0  0
 31 33  1  0  0  0  0
 32 31  1  0  0  0  0
 34 31  1  0  0  0  0
M  END
>  <minimizedAffinity>
-5.07039309

$$$$

 OpenBabel03252503303D

 34 36  0  0  1  0  0  0  0  0999 V2000
   39.0450   26.8830   39.4820 C   0  0  0  0  0  0  0  0  0  0  0  0
   37.9400   26.1650   40.0090 C   0  0  0  0  0  0  0  0  0  0  0  0
   38.2190   24.8850   40.4940 C   0  0  0  0  0  0  0  0  0  0  0  0
   39.4830   24.4350   40.4280 N   0  0  0  0  0  0  0  0  0  0  0  0
   40.4990   25.1530   39.9200 C   0  0  0  0  0  0  0  0  0  0  0  0
   40.2680   26.3910   39.4430 N   0  0  0  0  0  0  0  0  0  0  0  0
   38.6960   29.1540   39.9820 C   0  0  0  0  0  0  0  0  0  0  0  0
   38.7110   28.7620   41.1660 O   0  0  0  0  0  0  0  0  0  0  0  0
   38.8820   28.1990   38.9580 N   0  0  0  0  0  0  0  0  0  0  0  0
   38.4910   30.5400   39.7410 N   0  0  0  0  0  0  0  0  0  0  0  0
   37.9910   31.4000   40.8050 C   0  0  0  0  0  0  0  0  0  0  0  0
   37.2300   32.4390   40.0340 C   0  0  0  0  0  0  0  0  0  0  0  0
   37.4720   32.1960   38.5670 C   0  0  0  0  0  0  0  0  0  0  0  0
   38.6950   31.3380   38.5410 C   0  0  1  0  0  0  0  0  0  0  0  0
   36.9750   26.6540   39.9960 H   0  0  0  0  0  0  0  0  0  0  0  0
   41.5030   24.7470   39.8900 H   0  0  0  0  0  0  0  0  0  0  0  0
   38.8830   28.5310   37.9840 H   0  0  0  0  0  0  0  0  0  0  0  0
   38.7530   31.7740   41.4840 H   0  0  0  0  0  0  0  0  0  0  0  0
   37.2230   30.8530   41.4200 H   0  0  0  0  0  0  0  0  0  0  0  0
   37.4740   33.4770   40.3610 H   0  0  0  0  0  0  0  0  0  0  0  0
   36.1160   32.3710   40.1710 H   0  0  0  0  0  0  0  0  0  0  0  0
   37.7210   33.1850   38.1300 H   0  0  0  0  0  0  0  0  0  0  0  0
   36.6080   31.7680   38.0310 H   0  0  0  0  0  0  0  0  0  0  0  0
   38.5080   30.5970   37.7070 H   0  0  0  0  0  0  0  0  0  0  0  0
   39.9540   31.9230   38.3810 C   0  0  0  0  0  0  0  0  0  0  0  0
   40.5650   33.1440   38.7470 C   0  0  0  0  0  0  0  0  0  0  0  0
   39.9110   33.8090   39.2840 H   0  0  0  0  0  0  0  0  0  0  0  0
   41.8740   33.3720   38.4050 C   0  0  0  0  0  3  0  0  0  0  0  0
   42.5930   32.4160   37.7070 C   0  0  0  0  0  3  0  0  0  0  0  0
   41.3670   31.0320   37.4760 S   0  0  0  0  0  0  0  0  0  0  0  0
   37.0610   24.1690   41.0300 C   0  0  0  0  0  0  0  0  0  0  0  0
   36.7870   24.6350   42.3090 F   0  0  0  0  0  0  0  0  0  0  0  0
   37.4210   22.8430   41.1930 F   0  0  0  0  0  0  0  0  0  0  0  0
   35.9180   24.3270   40.2870 F   0  0  0  0  0  0  0  0  0  0  0  0
  1  2  1  0  0  0  0
  2  3  2  0  0  0  0
  3 31  1  0  0  0  0
  4  3  1  0  0  0  0
  5  4  2  0  0  0  0
  6  1  2  0  0  0  0
  6  5  1  0  0  0  0
  7  8  2  0  0  0  0
  9  1  1  0  0  0  0
  9  7  1  0  0  0  0
 10  7  1  0  0  0  0
 10 11  1  0  0  0  0
 11 19  1  0  0  0  0
 11 18  1  0  0  0  0
 12 21  1  0  0  0  0
 12 20  1  0  0  0  0
 12 11  1  0  0  0  0
 13 12  1  0  0  0  0
 14 24  1  6  0  0  0
 14 13  1  0  0  0  0
 14 10  1  0  0  0  0
 15  2  1  0  0  0  0
 16  5  1  0  0  0  0
 17  9  1  0  0  0  0
 22 13  1  0  0  0  0
 23 13  1  0  0  0  0
 25 14  1  0  0  0  0
 25 26  2  0  0  0  0
 26 27  1  0  0  0  0
 28 26  1  0  0  0  0
 29 28  2  0  0  0  0
 30 29  1  0  0  0  0
 30 25  1  0  0  0  0
 31 33  1  0  0  0  0
 31 32  1  0  0  0  0
 34 31  1  0  0  0  0
M  END
>  <minimizedAffinity>
-4.99696398

$$$$

 OpenBabel03252503303D

 34 36  0  0  1  0  0  0  0  0999 V2000
   37.8870   29.4240   39.4050 C   0  0  0  0  0  0  0  0  0  0  0  0
   38.7590   30.1930   40.2190 C   0  0  0  0  0  0  0  0  0  0  0  0
   38.6170   31.5800   40.1250 C   0  0  0  0  0  0  0  0  0  0  0  0
   37.6870   32.0750   39.2920 N   0  0  0  0  0  0  0  0  0  0  0  0
   36.8810   31.3060   38.5410 C   0  0  0  0  0  0  0  0  0  0  0  0
   36.9890   29.9650   38.6040 N   0  0  0  0  0  0  0  0  0  0  0  0
   37.3820   27.4600   40.5970 C   0  0  0  0  0  0  0  0  0  0  0  0
   36.9160   28.2480   41.4440 O   0  0  0  0  0  0  0  0  0  0  0  0
   37.9390   28.0000   39.4160 N   0  0  0  0  0  0  0  0  0  0  0  0
   37.3210   26.0680   40.8780 N   0  0  0  0  0  0  0  0  0  0  0  0
   37.0350   25.6070   42.2290 C   0  0  0  0  0  0  0  0  0  0  0  0
   37.7800   24.3050   42.2790 C   0  0  0  0  0  0  0  0  0  0  0  0
   38.3180   24.0280   40.8990 C   0  0  0  0  0  0  0  0  0  0  0  0
   37.5060   24.9130   40.0110 C   0  0  1  0  0  0  0  0  0  0  0  0
   39.4620   29.6570   40.8420 H   0  0  0  0  0  0  0  0  0  0  0  0
   36.1440   31.7520   37.8840 H   0  0  0  0  0  0  0  0  0  0  0  0
   38.3080   27.3430   38.7150 H   0  0  0  0  0  0  0  0  0  0  0  0
   35.9780   25.5610   42.4810 H   0  0  0  0  0  0  0  0  0  0  0  0
   37.5380   26.2760   42.9830 H   0  0  0  0  0  0  0  0  0  0  0  0
   37.1610   23.4750   42.6920 H   0  0  0  0  0  0  0  0  0  0  0  0
   38.6790   24.3300   42.9530 H   0  0  0  0  0  0  0  0  0  0  0  0
   38.0630   22.9700   40.6780 H   0  0  0  0  0  0  0  0  0  0  0  0
   39.4080   24.1660   40.8020 H   0  0  0  0  0  0  0  0  0  0  0  0
   38.2390   25.2910   39.2350 H   0  0  0  0  0  0  0  0  0  0  0  0
   36.3650   24.4110   39.3800 C   0  0  0  0  0  0  0  0  0  0  0  0
   35.4990   23.3100   39.5640 C   0  0  0  0  0  0  0  0  0  0  0  0
   35.7710   22.6830   40.3960 H   0  0  0  0  0  0  0  0  0  0  0  0
   34.4380   23.1370   38.7120 C   0  0  0  0  0  3  0  0  0  0  0  0
   34.2150   24.0320   37.6780 C   0  0  0  0  0  3  0  0  0  0  0  0
   35.5980   25.2660   37.8660 S   0  0  0  0  0  0  0  0  0  0  0  0
   39.5300   32.3460   40.9740 C   0  0  0  0  0  0  0  0  0  0  0  0
   39.7500   31.6490   42.1550 F   0  0  0  0  0  0  0  0  0  0  0  0
   38.8830   33.5090   41.3510 F   0  0  0  0  0  0  0  0  0  0  0  0
   40.7570   32.5750   40.4040 F   0  0  0  0  0  0  0  0  0  0  0  0
  1  9  1  0  0  0  0
  1  2  1  0  0  0  0
  2 15  1  0  0  0  0
  3  2  2  0  0  0  0
  3 31  1  0  0  0  0
  4  3  1  0  0  0  0
  5  6  1  0  0  0  0
  5  4  2  0  0  0  0
  6  1  2  0  0  0  0
  7 10  1  0  0  0  0
  7  8  2  0  0  0  0
  9  7  1  0  0  0  0
 10 11  1  0  0  0  0
 11 12  1  0  0  0  0
 11 18  1  0  0  0  0
 11 19  1  0  0  0  0
 12 20  1  0  0  0  0
 12 21  1  0  0  0  0
 13 12  1  0  0  0  0
 14 24  1  6  0  0  0
 14 10  1  0  0  0  0
 14 13  1  0  0  0  0
 16  5  1  0  0  0  0
 17  9  1  0  0  0  0
 22 13  1  0  0  0  0
 23 13  1  0  0  0  0
 25 26  2  0  0  0  0
 25 14  1  0  0  0  0
 26 27  1  0  0  0  0
 28 26  1  0  0  0  0
 29 30  1  0  0  0  0
 29 28  2  0  0  0  0
 30 25  1  0  0  0  0
 31 33  1  0  0  0  0
 31 32  1  0  0  0  0
 34 31  1  0  0  0  0
M  END
>  <minimizedAffinity>
-4.95448685

$$$$

 OpenBabel03252503303D

 34 36  0  0  1  0  0  0  0  0999 V2000
   39.0450   29.9610   41.1770 C   0  0  0  0  0  0  0  0  0  0  0  0
   37.9560   29.6980   40.3060 C   0  0  0  0  0  0  0  0  0  0  0  0
   36.8220   29.1370   40.8990 C   0  0  0  0  0  0  0  0  0  0  0  0
   36.8430   28.8930   42.2200 N   0  0  0  0  0  0  0  0  0  0  0  0
   37.8990   29.1600   43.0060 C   0  0  0  0  0  0  0  0  0  0  0  0
   39.0100   29.7010   42.4700 N   0  0  0  0  0  0  0  0  0  0  0  0
   40.1070   31.9050   40.3880 C   0  0  0  0  0  0  0  0  0  0  0  0
   38.9990   32.4380   40.5930 O   0  0  0  0  0  0  0  0  0  0  0  0
   40.2550   30.5330   40.6870 N   0  0  0  0  0  0  0  0  0  0  0  0
   41.1510   32.7170   39.8660 N   0  0  0  0  0  0  0  0  0  0  0  0
   40.8440   34.0180   39.2880 C   0  0  0  0  0  0  0  0  0  0  0  0
   41.9220   34.1610   38.2530 C   0  0  0  0  0  0  0  0  0  0  0  0
   42.8710   33.0020   38.4120 C   0  0  0  0  0  0  0  0  0  0  0  0
   42.5860   32.4870   39.7850 C   0  0  1  0  0  0  0  0  0  0  0  0
   38.0820   29.9460   39.2610 H   0  0  0  0  0  0  0  0  0  0  0  0
   37.8670   28.9460   44.0680 H   0  0  0  0  0  0  0  0  0  0  0  0
   41.1770   30.1020   40.5290 H   0  0  0  0  0  0  0  0  0  0  0  0
   40.7640   34.8290   40.0070 H   0  0  0  0  0  0  0  0  0  0  0  0
   39.8760   33.9710   38.7140 H   0  0  0  0  0  0  0  0  0  0  0  0
   42.4220   35.1570   38.2940 H   0  0  0  0  0  0  0  0  0  0  0  0
   41.5410   34.0960   37.1970 H   0  0  0  0  0  0  0  0  0  0  0  0
   43.8920   33.4380   38.3990 H   0  0  0  0  0  0  0  0  0  0  0  0
   42.7920   32.2410   37.6170 H   0  0  0  0  0  0  0  0  0  0  0  0
   42.6590   31.3620   39.6900 H   0  0  0  0  0  0  0  0  0  0  0  0
   43.3550   32.9230   40.8670 C   0  0  0  0  0  0  0  0  0  0  0  0
   44.2510   33.9870   41.1190 C   0  0  0  0  0  0  0  0  0  0  0  0
   44.3930   34.6390   40.2740 H   0  0  0  0  0  0  0  0  0  0  0  0
   44.8360   34.0970   42.3550 C   0  0  0  0  0  3  0  0  0  0  0  0
   44.5550   33.1740   43.3490 C   0  0  0  0  0  3  0  0  0  0  0  0
   43.3530   32.0070   42.5320 S   0  0  0  0  0  0  0  0  0  0  0  0
   35.7170   28.8760   39.9770 C   0  0  0  0  0  0  0  0  0  0  0  0
   34.5140   28.9750   40.6650 F   0  0  0  0  0  0  0  0  0  0  0  0
   35.8010   27.5540   39.5770 F   0  0  0  0  0  0  0  0  0  0  0  0
   35.6530   29.7520   38.9240 F   0  0  0  0  0  0  0  0  0  0  0  0
  1  6  1  0  0  0  0
  2  3  1  0  0  0  0
  2  1  2  0  0  0  0
  3  4  2  0  0  0  0
  4  5  1  0  0  0  0
  5 16  1  0  0  0  0
  6  5  2  0  0  0  0
  7  8  2  0  0  0  0
  7  9  1  0  0  0  0
  9  1  1  0  0  0  0
 10  7  1  0  0  0  0
 11 10  1  0  0  0  0
 11 18  1  0  0  0  0
 12 20  1  0  0  0  0
 12 13  1  0  0  0  0
 12 11  1  0  0  0  0
 13 14  1  0  0  0  0
 14 24  1  6  0  0  0
 14 10  1  0  0  0  0
 14 25  1  0  0  0  0
 15  2  1  0  0  0  0
 17  9  1  0  0  0  0
 19 11  1  0  0  0  0
 21 12  1  0  0  0  0
 22 13  1  0  0  0  0
 23 13  1  0  0  0  0
 25 26  2  0  0  0  0
 25 30  1  0  0  0  0
 26 28  1  0  0  0  0
 27 26  1  0  0  0  0
 28 29  2  0  0  0  0
 30 29  1  0  0  0  0
 31 32  1  0  0  0  0
 31  3  1  0  0  0  0
 33 31  1  0  0  0  0
 34 31  1  0  0  0  0
M  END
>  <minimizedAffinity>
-4.95157576

$$$$
