
 OpenBabel03242513503D

 28 30  0  0  1  0  0  0  0  0999 V2000
   47.0120   34.2700   42.3070 C   0  0  2  0  0  0  0  0  0  0  0  0
   47.9850   35.3390   41.9470 C   0  0  0  0  0  0  0  0  0  0  0  0
   48.4260   34.8640   40.5690 C   0  0  0  0  0  0  0  0  0  0  0  0
   47.2440   34.1460   39.9950 C   0  0  0  0  0  0  0  0  0  0  0  0
   46.1430   34.2320   41.0420 C   0  0  1  0  0  0  0  0  0  0  0  0
   47.5330   33.3020   42.3840 H   0  0  0  0  0  0  0  0  0  0  0  0
   47.5640   36.3470   41.9250 H   0  0  0  0  0  0  0  0  0  0  0  0
   48.9060   35.3300   42.5820 H   0  0  0  0  0  0  0  0  0  0  0  0
   49.3430   34.2560   40.6080 H   0  0  0  0  0  0  0  0  0  0  0  0
   48.5900   35.7980   39.9690 H   0  0  0  0  0  0  0  0  0  0  0  0
   47.4990   33.0730   39.8550 H   0  0  0  0  0  0  0  0  0  0  0  0
   46.9230   34.5930   39.0250 H   0  0  0  0  0  0  0  0  0  0  0  0
   45.5570   35.1430   40.9650 H   0  0  0  0  0  0  0  0  0  0  0  0
   45.3920   34.1040   45.7070 C   0  0  0  0  0  0  0  0  0  0  0  0
   46.2050   33.7270   44.6420 C   0  0  0  0  0  0  0  0  0  0  0  0
   46.1980   34.5420   43.5020 C   0  0  0  0  0  0  0  0  0  0  0  0
   45.3980   35.6450   43.5090 N   0  0  0  0  0  0  0  0  0  0  0  0
   44.6170   35.9860   44.5580 C   0  0  0  0  0  0  0  0  0  0  0  0
   44.6110   35.2200   45.6580 N   0  0  0  0  0  0  0  0  0  0  0  0
   45.4200   33.4480   46.5780 H   0  0  0  0  0  0  0  0  0  0  0  0
   46.8310   32.8600   44.6440 H   0  0  0  0  0  0  0  0  0  0  0  0
   44.0350   36.8800   44.4340 H   0  0  0  0  0  0  0  0  0  0  0  0
   45.3390   33.0020   41.1250 C   0  0  0  0  0  0  0  0  0  0  0  0
   45.3690   31.6470   41.2300 C   0  0  0  0  0  0  0  0  0  0  0  0
   46.3770   31.2780   41.2750 H   0  0  0  0  0  0  0  0  0  0  0  0
   44.1910   30.9550   41.2650 C   0  0  0  0  0  0  0  0  0  0  0  0
   42.9760   31.5840   41.1970 C   0  0  0  0  0  0  0  0  0  0  0  0
   43.4980   33.4240   41.0620 S   0  0  0  0  0  0  0  0  0  0  0  0
  1  6  1  1  0  0  0
  1 16  1  0  0  0  0
  2  1  1  0  0  0  0
  2  8  1  0  0  0  0
  3  9  1  0  0  0  0
  3  2  1  0  0  0  0
  4  3  1  0  0  0  0
  4  5  1  0  0  0  0
  5 13  1  6  0  0  0
  5 23  1  0  0  0  0
  5  1  1  0  0  0  0
  7  2  1  0  0  0  0
 10  3  1  0  0  0  0
 11  4  1  0  0  0  0
 12  4  1  0  0  0  0
 14 20  1  0  0  0  0
 15 21  1  0  0  0  0
 15 14  2  0  0  0  0
 16 17  2  0  0  0  0
 16 15  1  0  0  0  0
 17 18  1  0  0  0  0
 18 19  2  0  0  0  0
 19 14  1  0  0  0  0
 22 18  1  0  0  0  0
 23 24  2  0  0  0  0
 24 26  1  0  0  0  0
 24 25  1  0  0  0  0
 27 26  2  0  0  0  0
 28 23  1  0  0  0  0
 28 27  1  0  0  0  0
M  END
>  <minimizedAffinity>
-4.72383881

>  <minimizedRMSD>
4.76578283

$$$$
