
 OpenBabel03252503303D

 34 36  0  0  1  0  0  0  0  0999 V2000
   45.1750   33.6290   41.8320 C   0  0  0  0  0  0  0  0  0  0  0  0
   46.1960   34.5590   41.5030 C   0  0  0  0  0  0  0  0  0  0  0  0
   47.5050   34.0740   41.5640 C   0  0  0  0  0  0  0  0  0  0  0  0
   47.7000   32.7940   41.9210 N   0  0  0  0  0  0  0  0  0  0  0  0
   46.7000   31.9500   42.2240 C   0  0  0  0  0  0  0  0  0  0  0  0
   45.4250   32.3800   42.1760 N   0  0  0  0  0  0  0  0  0  0  0  0
   43.3160   34.1380   40.4850 C   0  0  0  0  0  0  0  0  0  0  0  0
   44.0980   33.9030   39.5430 O   0  0  0  0  0  0  0  0  0  0  0  0
   43.8020   34.0090   41.8060 N   0  0  0  0  0  0  0  0  0  0  0  0
   41.9860   34.5240   40.1670 N   0  0  0  0  0  0  0  0  0  0  0  0
   41.6510   34.9450   38.8140 C   0  0  0  0  0  0  0  0  0  0  0  0
   40.5370   35.9220   39.0580 C   0  0  0  0  0  0  0  0  0  0  0  0
   40.1990   35.8800   40.5260 C   0  0  0  0  0  0  0  0  0  0  0  0
   40.7900   34.5910   40.9960 C   0  0  1  0  0  0  0  0  0  0  0  0
   45.8910   35.5600   41.2340 H   0  0  0  0  0  0  0  0  0  0  0  0
   46.9080   30.9240   42.5060 H   0  0  0  0  0  0  0  0  0  0  0  0
   43.1480   34.1910   42.5790 H   0  0  0  0  0  0  0  0  0  0  0  0
   41.4310   34.1340   38.1260 H   0  0  0  0  0  0  0  0  0  0  0  0
   42.4940   35.5490   38.3740 H   0  0  0  0  0  0  0  0  0  0  0  0
   39.6600   35.7430   38.3920 H   0  0  0  0  0  0  0  0  0  0  0  0
   40.8210   36.9880   38.8440 H   0  0  0  0  0  0  0  0  0  0  0  0
   39.0930   35.8070   40.5830 H   0  0  0  0  0  0  0  0  0  0  0  0
   40.5350   36.7640   41.0920 H   0  0  0  0  0  0  0  0  0  0  0  0
   41.2030   34.8220   42.0230 H   0  0  0  0  0  0  0  0  0  0  0  0
   39.9990   33.4400   41.0510 C   0  0  0  0  0  0  0  0  0  0  0  0
   38.7010   33.0740   40.6300 C   0  0  0  0  0  0  0  0  0  0  0  0
   38.1660   33.8700   40.1400 H   0  0  0  0  0  0  0  0  0  0  0  0
   38.2500   31.8000   40.8660 C   0  0  0  0  0  0  0  0  0  0  0  0
   39.0570   30.8780   41.5120 C   0  0  0  0  0  0  0  0  0  0  0  0
   40.6220   31.8320   41.8490 S   0  0  0  0  0  0  0  0  0  0  0  0
   48.5360   35.0540   41.2210 C   0  0  0  0  0  0  0  0  0  0  0  0
   49.7780   34.5680   41.6090 F   0  0  0  0  0  0  0  0  0  0  0  0
   48.3260   36.1800   41.9960 F   0  0  0  0  0  0  0  0  0  0  0  0
   48.6120   35.3330   39.8790 F   0  0  0  0  0  0  0  0  0  0  0  0
  1  6  1  0  0  0  0
  2  3  1  0  0  0  0
  2  1  2  0  0  0  0
  3  4  2  0  0  0  0
  4  5  1  0  0  0  0
  5 16  1  0  0  0  0
  6  5  2  0  0  0  0
  7  9  1  0  0  0  0
  8  7  2  0  0  0  0
  9  1  1  0  0  0  0
  9 17  1  0  0  0  0
 10  7  1  0  0  0  0
 10 14  1  0  0  0  0
 11 12  1  0  0  0  0
 11 10  1  0  0  0  0
 12 13  1  0  0  0  0
 13 22  1  0  0  0  0
 13 14  1  0  0  0  0
 13 23  1  0  0  0  0
 14 25  1  0  0  0  0
 14 24  1  1  0  0  0
 15  2  1  0  0  0  0
 18 11  1  0  0  0  0
 19 11  1  0  0  0  0
 20 12  1  0  0  0  0
 21 12  1  0  0  0  0
 25 30  1  0  0  0  0
 26 28  1  0  0  0  0
 26 25  2  0  0  0  0
 27 26  1  0  0  0  0
 28 29  2  0  0  0  0
 29 30  1  0  0  0  0
 31  3  1  0  0  0  0
 31 32  1  0  0  0  0
 31 33  1  0  0  0  0
 34 31  1  0  0  0  0
M  END
>  <minimizedAffinity>
-6.50583458

>  <minimizedRMSD>
1.97550011

$$$$
