
 OpenBabel03242519553D

 37 39  0  0  1  0  0  0  0  0999 V2000
   37.8030   30.2900   40.0110 C   0  0  2  0  0  0  0  0  0  0  0  0
   37.4110   29.7910   38.6740 C   0  0  0  0  0  0  0  0  0  0  0  0
   35.9300   29.7340   38.4970 C   0  0  0  0  0  0  0  0  0  0  0  0
   35.2300   28.9330   39.5560 C   0  0  0  0  0  0  0  0  0  0  0  0
   35.8150   29.0850   40.9310 C   0  0  2  0  0  0  0  0  0  0  0  0
   36.7100   30.3050   41.0210 C   0  0  0  0  0  0  0  0  0  0  0  0
   38.6080   29.5780   40.3800 H   0  0  0  0  0  0  0  0  0  0  0  0
   37.8350   28.7950   38.4370 H   0  0  0  0  0  0  0  0  0  0  0  0
   37.7940   30.4760   37.8890 H   0  0  0  0  0  0  0  0  0  0  0  0
   35.7420   29.2210   37.5080 H   0  0  0  0  0  0  0  0  0  0  0  0
   35.4750   30.7540   38.3900 H   0  0  0  0  0  0  0  0  0  0  0  0
   34.1740   29.2690   39.5550 H   0  0  0  0  0  0  0  0  0  0  0  0
   35.1750   27.8460   39.2710 H   0  0  0  0  0  0  0  0  0  0  0  0
   34.9880   29.2880   41.6560 H   0  0  0  0  0  0  0  0  0  0  0  0
   36.0470   31.1500   41.0700 H   0  0  0  0  0  0  0  0  0  0  0  0
   37.2200   30.2510   42.0240 H   0  0  0  0  0  0  0  0  0  0  0  0
   38.4570   31.6070   39.9810 C   0  0  0  0  0  0  0  0  0  0  0  0
   37.5700   32.6800   39.9510 C   0  0  0  0  0  0  0  0  0  0  0  0
   38.0630   33.9870   39.9420 C   0  0  0  0  0  0  0  0  0  0  0  0
   39.4400   34.1220   39.9600 N   0  0  0  0  0  0  0  0  0  0  0  0
   40.2670   33.0590   39.9880 C   0  0  0  0  0  0  0  0  0  0  0  0
   39.7630   31.8270   39.9970 N   0  0  0  0  0  0  0  0  0  0  0  0
   36.4990   32.8190   39.9210 H   0  0  0  0  0  0  0  0  0  0  0  0
   37.5720   34.9390   39.9220 H   0  0  0  0  0  0  0  0  0  0  0  0
   41.3390   33.2220   40.0000 H   0  0  0  0  0  0  0  0  0  0  0  0
   36.5010   27.8340   41.3130 C   0  0  0  0  0  0  0  0  0  0  0  0
   35.7930   26.9940   41.0530 H   0  0  0  0  0  0  0  0  0  0  0  0
   37.3650   27.7020   40.6300 H   0  0  0  0  0  0  0  0  0  0  0  0
   36.9310   27.6470   42.7020 C   0  0  0  0  0  0  0  0  0  0  0  0
   36.9590   28.6790   43.1700 H   0  0  0  0  0  0  0  0  0  0  0  0
   36.0570   27.1770   43.2500 H   0  0  0  0  0  0  0  0  0  0  0  0
   38.1180   26.9210   43.0070 C   0  0  0  0  0  0  0  0  0  0  0  0
   39.2840   26.9360   43.6790 C   0  0  0  0  0  0  0  0  0  0  0  0
   39.4620   27.8440   44.2410 H   0  0  0  0  0  0  0  0  0  0  0  0
   40.1750   25.9170   43.6800 C   0  0  0  0  0  3  0  0  0  0  0  0
   39.7780   24.7900   42.8940 C   0  0  0  0  0  3  0  0  0  0  0  0
   38.1490   25.2690   42.2030 S   0  0  0  0  0  0  0  0  0  0  0  0
  1  7  1  1  0  0  0
  1  6  1  0  0  0  0
  2  1  1  0  0  0  0
  3  2  1  0  0  0  0
  3  4  1  0  0  0  0
  4  5  1  0  0  0  0
  5  6  1  0  0  0  0
  5 26  1  0  0  0  0
  5 14  1  1  0  0  0
  6 15  1  0  0  0  0
  6 16  1  0  0  0  0
  8  2  1  0  0  0  0
  9  2  1  0  0  0  0
 10  3  1  0  0  0  0
 11  3  1  0  0  0  0
 12  4  1  0  0  0  0
 13  4  1  0  0  0  0
 17 22  1  0  0  0  0
 17  1  1  0  0  0  0
 18 17  2  0  0  0  0
 19 18  1  0  0  0  0
 19 20  2  0  0  0  0
 20 21  1  0  0  0  0
 21 22  2  0  0  0  0
 21 25  1  0  0  0  0
 23 18  1  0  0  0  0
 24 19  1  0  0  0  0
 26 29  1  0  0  0  0
 27 26  1  0  0  0  0
 28 26  1  0  0  0  0
 29 32  1  0  0  0  0
 29 30  1  0  0  0  0
 29 31  1  0  0  0  0
 32 33  2  0  0  0  0
 33 35  1  0  0  0  0
 33 34  1  0  0  0  0
 36 35  2  0  0  0  0
 37 36  1  0  0  0  0
 37 32  1  0  0  0  0
M  END
>  <minimizedAffinity>
-5.29679871

$$$$

 OpenBabel03242519553D

 37 39  0  0  1  0  0  0  0  0999 V2000
   37.9550   30.1810   41.0850 C   0  0  2  0  0  0  0  0  0  0  0  0
   38.6330   29.1980   40.2110 C   0  0  0  0  0  0  0  0  0  0  0  0
   37.6730   28.4160   39.3790 C   0  0  0  0  0  0  0  0  0  0  0  0
   36.6090   27.7240   40.1810 C   0  0  0  0  0  0  0  0  0  0  0  0
   36.1100   28.5170   41.3560 C   0  0  2  0  0  0  0  0  0  0  0  0
   36.4880   29.9790   41.2390 C   0  0  0  0  0  0  0  0  0  0  0  0
   38.4320   30.0620   42.1090 H   0  0  0  0  0  0  0  0  0  0  0  0
   39.2790   28.4900   40.7680 H   0  0  0  0  0  0  0  0  0  0  0  0
   39.3050   29.7260   39.5020 H   0  0  0  0  0  0  0  0  0  0  0  0
   38.2740   27.6150   38.8560 H   0  0  0  0  0  0  0  0  0  0  0  0
   37.2250   29.0320   38.5540 H   0  0  0  0  0  0  0  0  0  0  0  0
   35.7740   27.5180   39.4820 H   0  0  0  0  0  0  0  0  0  0  0  0
   36.9510   26.7050   40.5120 H   0  0  0  0  0  0  0  0  0  0  0  0
   34.9920   28.5130   41.3470 H   0  0  0  0  0  0  0  0  0  0  0  0
   35.8180   30.3970   40.5090 H   0  0  0  0  0  0  0  0  0  0  0  0
   36.2160   30.4570   42.2220 H   0  0  0  0  0  0  0  0  0  0  0  0
   38.2180   31.5810   40.7140 C   0  0  0  0  0  0  0  0  0  0  0  0
   37.2070   32.1650   39.9550 C   0  0  0  0  0  0  0  0  0  0  0  0
   37.3240   33.4990   39.5550 C   0  0  0  0  0  0  0  0  0  0  0  0
   38.4740   34.1590   39.9530 N   0  0  0  0  0  0  0  0  0  0  0  0
   39.4310   33.5590   40.6870 C   0  0  0  0  0  0  0  0  0  0  0  0
   39.2860   32.2870   41.0520 N   0  0  0  0  0  0  0  0  0  0  0  0
   36.2620   31.8610   39.5310 H   0  0  0  0  0  0  0  0  0  0  0  0
   36.6810   34.1350   38.9830 H   0  0  0  0  0  0  0  0  0  0  0  0
   40.3120   34.1220   40.9700 H   0  0  0  0  0  0  0  0  0  0  0  0
   36.5890   27.8930   42.6060 C   0  0  0  0  0  0  0  0  0  0  0  0
   37.2930   28.6370   43.0810 H   0  0  0  0  0  0  0  0  0  0  0  0
   35.7280   27.8300   43.3020 H   0  0  0  0  0  0  0  0  0  0  0  0
   37.2760   26.5990   42.5460 C   0  0  0  0  0  0  0  0  0  0  0  0
   36.6260   25.8660   43.1170 H   0  0  0  0  0  0  0  0  0  0  0  0
   37.1570   26.2200   41.4840 H   0  0  0  0  0  0  0  0  0  0  0  0
   38.6400   26.4780   42.9360 C   0  0  0  0  0  0  0  0  0  0  0  0
   39.7000   27.1130   43.4720 C   0  0  0  0  0  0  0  0  0  0  0  0
   39.5110   28.1450   43.7390 H   0  0  0  0  0  0  0  0  0  0  0  0
   40.9060   26.5360   43.6800 C   0  0  0  0  0  3  0  0  0  0  0  0
   40.9780   25.1650   43.2800 C   0  0  0  0  0  3  0  0  0  0  0  0
   39.3050   24.7940   42.6280 S   0  0  0  0  0  0  0  0  0  0  0  0
  1  6  1  0  0  0  0
  1  7  1  1  0  0  0
  2  8  1  0  0  0  0
  2  1  1  0  0  0  0
  3  4  1  0  0  0  0
  3  2  1  0  0  0  0
  4 13  1  0  0  0  0
  4  5  1  0  0  0  0
  5 14  1  6  0  0  0
  5 26  1  0  0  0  0
  6  5  1  0  0  0  0
  6 16  1  0  0  0  0
  9  2  1  0  0  0  0
 10  3  1  0  0  0  0
 11  3  1  0  0  0  0
 12  4  1  0  0  0  0
 15  6  1  0  0  0  0
 17 22  1  0  0  0  0
 17  1  1  0  0  0  0
 18 17  2  0  0  0  0
 19 20  2  0  0  0  0
 19 18  1  0  0  0  0
 20 21  1  0  0  0  0
 21 25  1  0  0  0  0
 21 22  2  0  0  0  0
 23 18  1  0  0  0  0
 24 19  1  0  0  0  0
 26 27  1  0  0  0  0
 26 28  1  0  0  0  0
 29 26  1  0  0  0  0
 29 32  1  0  0  0  0
 29 30  1  0  0  0  0
 31 29  1  0  0  0  0
 32 33  2  0  0  0  0
 33 35  1  0  0  0  0
 33 34  1  0  0  0  0
 36 35  2  0  0  0  0
 37 32  1  0  0  0  0
 37 36  1  0  0  0  0
M  END
>  <minimizedAffinity>
-5.17239141

$$$$

 OpenBabel03242519553D

 37 39  0  0  1  0  0  0  0  0999 V2000
   38.0910   29.0650   40.9810 C   0  0  2  0  0  0  0  0  0  0  0  0
   37.0720   27.9920   40.9900 C   0  0  0  0  0  0  0  0  0  0  0  0
   36.3390   27.9120   42.2880 C   0  0  0  0  0  0  0  0  0  0  0  0
   37.2420   27.7580   43.4780 C   0  0  0  0  0  0  0  0  0  0  0  0
   38.5210   28.5400   43.3860 C   0  0  2  0  0  0  0  0  0  0  0  0
   38.4400   29.6130   42.3200 C   0  0  0  0  0  0  0  0  0  0  0  0
   39.0290   28.5940   40.5430 H   0  0  0  0  0  0  0  0  0  0  0  0
   37.4870   26.9920   40.7550 H   0  0  0  0  0  0  0  0  0  0  0  0
   36.3080   28.1920   40.2110 H   0  0  0  0  0  0  0  0  0  0  0  0
   35.6890   26.9900   42.2370 H   0  0  0  0  0  0  0  0  0  0  0  0
   35.6260   28.7670   42.4270 H   0  0  0  0  0  0  0  0  0  0  0  0
   36.6580   28.0910   44.3590 H   0  0  0  0  0  0  0  0  0  0  0  0
   37.4590   26.6740   43.6830 H   0  0  0  0  0  0  0  0  0  0  0  0
   38.6710   29.1020   44.3410 H   0  0  0  0  0  0  0  0  0  0  0  0
   37.8400   30.3990   42.7420 H   0  0  0  0  0  0  0  0  0  0  0  0
   39.4790   30.0360   42.2150 H   0  0  0  0  0  0  0  0  0  0  0  0
   37.7720   30.1740   40.0680 C   0  0  0  0  0  0  0  0  0  0  0  0
   37.6070   31.4010   40.7040 C   0  0  0  0  0  0  0  0  0  0  0  0
   37.3210   32.5410   39.9480 C   0  0  0  0  0  0  0  0  0  0  0  0
   37.2170   32.3580   38.5800 N   0  0  0  0  0  0  0  0  0  0  0  0
   37.3820   31.1530   38.0010 C   0  0  0  0  0  0  0  0  0  0  0  0
   37.6550   30.0880   38.7520 N   0  0  0  0  0  0  0  0  0  0  0  0
   37.6280   31.7750   41.7170 H   0  0  0  0  0  0  0  0  0  0  0  0
   37.1610   33.5630   40.2240 H   0  0  0  0  0  0  0  0  0  0  0  0
   37.2880   31.0660   36.9240 H   0  0  0  0  0  0  0  0  0  0  0  0
   39.6510   27.6100   43.1870 C   0  0  0  0  0  0  0  0  0  0  0  0
   39.9260   27.6770   42.0940 H   0  0  0  0  0  0  0  0  0  0  0  0
   40.5270   28.0230   43.7280 H   0  0  0  0  0  0  0  0  0  0  0  0
   39.4810   26.1930   43.5220 C   0  0  0  0  0  0  0  0  0  0  0  0
   40.4570   25.8560   43.9910 H   0  0  0  0  0  0  0  0  0  0  0  0
   38.7810   26.1530   44.4130 H   0  0  0  0  0  0  0  0  0  0  0  0
   39.0430   25.2580   42.5410 C   0  0  0  0  0  0  0  0  0  0  0  0
   38.1440   24.3000   42.2460 C   0  0  0  0  0  0  0  0  0  0  0  0
   37.4280   24.1050   43.0350 H   0  0  0  0  0  0  0  0  0  0  0  0
   38.1060   23.6280   41.0730 C   0  0  0  0  0  3  0  0  0  0  0  0
   39.1170   24.0180   40.1400 C   0  0  0  0  0  3  0  0  0  0  0  0
   40.0590   25.3270   41.0120 S   0  0  0  0  0  0  0  0  0  0  0  0
  1  7  1  6  0  0  0
  1  2  1  0  0  0  0
  1  6  1  0  0  0  0
  2  3  1  0  0  0  0
  3 11  1  0  0  0  0
  3  4  1  0  0  0  0
  4 13  1  0  0  0  0
  4 12  1  0  0  0  0
  5  4  1  0  0  0  0
  5 14  1  1  0  0  0
  6 15  1  0  0  0  0
  6  5  1  0  0  0  0
  8  2  1  0  0  0  0
  9  2  1  0  0  0  0
 10  3  1  0  0  0  0
 16  6  1  0  0  0  0
 17 18  1  0  0  0  0
 17  1  1  0  0  0  0
 18 23  1  0  0  0  0
 19 24  1  0  0  0  0
 19 18  2  0  0  0  0
 20 19  1  0  0  0  0
 21 20  2  0  0  0  0
 21 22  1  0  0  0  0
 22 17  2  0  0  0  0
 25 21  1  0  0  0  0
 26  5  1  0  0  0  0
 26 29  1  0  0  0  0
 26 28  1  0  0  0  0
 27 26  1  0  0  0  0
 29 30  1  0  0  0  0
 29 31  1  0  0  0  0
 32 29  1  0  0  0  0
 33 32  2  0  0  0  0
 33 34  1  0  0  0  0
 35 33  1  0  0  0  0
 36 37  1  0  0  0  0
 36 35  2  0  0  0  0
 37 32  1  0  0  0  0
M  END
>  <minimizedAffinity>
-5.04783344

$$$$

 OpenBabel03242519553D

 37 39  0  0  1  0  0  0  0  0999 V2000
   37.1430   28.0230   40.7550 C   0  0  2  0  0  0  0  0  0  0  0  0
   37.2470   26.8330   41.6280 C   0  0  0  0  0  0  0  0  0  0  0  0
   36.7280   27.0870   43.0040 C   0  0  0  0  0  0  0  0  0  0  0  0
   37.3730   28.2630   43.6800 C   0  0  0  0  0  0  0  0  0  0  0  0
   37.6640   29.4170   42.7630 C   0  0  2  0  0  0  0  0  0  0  0  0
   36.8880   29.3050   41.4670 C   0  0  0  0  0  0  0  0  0  0  0  0
   38.1500   28.1100   40.2330 H   0  0  0  0  0  0  0  0  0  0  0  0
   38.2780   26.4350   41.7060 H   0  0  0  0  0  0  0  0  0  0  0  0
   36.6350   26.0060   41.2110 H   0  0  0  0  0  0  0  0  0  0  0  0
   36.9730   26.1710   43.6170 H   0  0  0  0  0  0  0  0  0  0  0  0
   35.6090   27.1670   43.0280 H   0  0  0  0  0  0  0  0  0  0  0  0
   36.6770   28.5830   44.4810 H   0  0  0  0  0  0  0  0  0  0  0  0
   38.3030   27.9530   44.2290 H   0  0  0  0  0  0  0  0  0  0  0  0
   37.2890   30.3580   43.2360 H   0  0  0  0  0  0  0  0  0  0  0  0
   35.8780   29.5840   41.7060 H   0  0  0  0  0  0  0  0  0  0  0  0
   37.2830   30.1140   40.7900 H   0  0  0  0  0  0  0  0  0  0  0  0
   36.1710   27.8710   39.6610 C   0  0  0  0  0  0  0  0  0  0  0  0
   35.2220   28.8880   39.6010 C   0  0  0  0  0  0  0  0  0  0  0  0
   34.2530   28.8730   38.5950 C   0  0  0  0  0  0  0  0  0  0  0  0
   34.3080   27.8130   37.7070 N   0  0  0  0  0  0  0  0  0  0  0  0
   35.2420   26.8460   37.7990 C   0  0  0  0  0  0  0  0  0  0  0  0
   36.1510   26.8920   38.7690 N   0  0  0  0  0  0  0  0  0  0  0  0
   34.9800   29.7760   40.1660 H   0  0  0  0  0  0  0  0  0  0  0  0
   33.4470   29.5400   38.3650 H   0  0  0  0  0  0  0  0  0  0  0  0
   35.2380   26.0370   37.0770 H   0  0  0  0  0  0  0  0  0  0  0  0
   39.1230   29.5230   42.5580 C   0  0  0  0  0  0  0  0  0  0  0  0
   39.6010   28.8760   43.3510 H   0  0  0  0  0  0  0  0  0  0  0  0
   39.3650   29.0240   41.5980 H   0  0  0  0  0  0  0  0  0  0  0  0
   39.7610   30.8420   42.6090 C   0  0  0  0  0  0  0  0  0  0  0  0
   39.4800   31.2940   43.6100 H   0  0  0  0  0  0  0  0  0  0  0  0
   40.8700   30.6590   42.7500 H   0  0  0  0  0  0  0  0  0  0  0  0
   39.5730   31.7840   41.5580 C   0  0  0  0  0  0  0  0  0  0  0  0
   38.6780   32.5410   40.8940 C   0  0  0  0  0  0  0  0  0  0  0  0
   37.6610   32.4430   41.2520 H   0  0  0  0  0  0  0  0  0  0  0  0
   38.9920   33.3690   39.8720 C   0  0  0  0  0  3  0  0  0  0  0  0
   40.3820   33.3860   39.5350 C   0  0  0  0  0  3  0  0  0  0  0  0
   41.1480   32.2060   40.7120 S   0  0  0  0  0  0  0  0  0  0  0  0
  1  7  1  6  0  0  0
  1  6  1  0  0  0  0
  1  2  1  0  0  0  0
  2  8  1  0  0  0  0
  2  3  1  0  0  0  0
  3 11  1  0  0  0  0
  3 10  1  0  0  0  0
  3  4  1  0  0  0  0
  4 13  1  0  0  0  0
  4 12  1  0  0  0  0
  5 14  1  1  0  0  0
  5  4  1  0  0  0  0
  6 15  1  0  0  0  0
  6  5  1  0  0  0  0
  9  2  1  0  0  0  0
 16  6  1  0  0  0  0
 17  1  1  0  0  0  0
 18 17  1  0  0  0  0
 18 23  1  0  0  0  0
 19 18  2  0  0  0  0
 20 21  2  0  0  0  0
 20 19  1  0  0  0  0
 21 22  1  0  0  0  0
 22 17  2  0  0  0  0
 24 19  1  0  0  0  0
 25 21  1  0  0  0  0
 26 29  1  0  0  0  0
 26  5  1  0  0  0  0
 26 27  1  0  0  0  0
 28 26  1  0  0  0  0
 29 31  1  0  0  0  0
 29 30  1  0  0  0  0
 32 29  1  0  0  0  0
 33 34  1  0  0  0  0
 33 32  2  0  0  0  0
 35 33  1  0  0  0  0
 36 35  2  0  0  0  0
 36 37  1  0  0  0  0
 37 32  1  0  0  0  0
M  END
>  <minimizedAffinity>
-4.98500443

$$$$

 OpenBabel03242519553D

 37 39  0  0  1  0  0  0  0  0999 V2000
   39.2740   27.5490   42.1530 C   0  0  2  0  0  0  0  0  0  0  0  0
   38.6690   28.6360   42.9530 C   0  0  0  0  0  0  0  0  0  0  0  0
   37.4420   28.1970   43.6800 C   0  0  0  0  0  0  0  0  0  0  0  0
   36.3990   27.5930   42.7840 C   0  0  0  0  0  0  0  0  0  0  0  0
   36.9550   26.7500   41.6720 C   0  0  2  0  0  0  0  0  0  0  0  0
   38.3970   26.3660   41.9340 C   0  0  0  0  0  0  0  0  0  0  0  0
   39.5010   28.0050   41.1370 H   0  0  0  0  0  0  0  0  0  0  0  0
   38.4240   29.5360   42.3550 H   0  0  0  0  0  0  0  0  0  0  0  0
   39.3870   28.9770   43.7290 H   0  0  0  0  0  0  0  0  0  0  0  0
   36.9910   29.1220   44.1450 H   0  0  0  0  0  0  0  0  0  0  0  0
   37.6780   27.5190   44.5430 H   0  0  0  0  0  0  0  0  0  0  0  0
   35.7460   26.9780   43.4340 H   0  0  0  0  0  0  0  0  0  0  0  0
   35.7130   28.3840   42.3720 H   0  0  0  0  0  0  0  0  0  0  0  0
   36.4050   25.7770   41.6460 H   0  0  0  0  0  0  0  0  0  0  0  0
   38.3620   25.5910   42.6780 H   0  0  0  0  0  0  0  0  0  0  0  0
   38.7720   25.8780   40.9920 H   0  0  0  0  0  0  0  0  0  0  0  0
   40.5810   27.1000   42.6590 C   0  0  0  0  0  0  0  0  0  0  0  0
   41.3840   28.1280   43.1440 C   0  0  0  0  0  0  0  0  0  0  0  0
   42.6430   27.8330   43.6730 C   0  0  0  0  0  0  0  0  0  0  0  0
   43.0100   26.4980   43.6720 N   0  0  0  0  0  0  0  0  0  0  0  0
   42.2050   25.5310   43.1920 C   0  0  0  0  0  0  0  0  0  0  0  0
   41.0110   25.8480   42.6960 N   0  0  0  0  0  0  0  0  0  0  0  0
   41.3220   29.2020   43.2360 H   0  0  0  0  0  0  0  0  0  0  0  0
   43.4080   28.4530   44.0940 H   0  0  0  0  0  0  0  0  0  0  0  0
   42.5430   24.5010   43.2140 H   0  0  0  0  0  0  0  0  0  0  0  0
   36.7670   27.4500   40.3850 C   0  0  0  0  0  0  0  0  0  0  0  0
   37.7890   27.8170   40.0730 H   0  0  0  0  0  0  0  0  0  0  0  0
   36.4920   26.6910   39.6250 H   0  0  0  0  0  0  0  0  0  0  0  0
   35.8410   28.5840   40.3140 C   0  0  0  0  0  0  0  0  0  0  0  0
   35.0570   28.3090   39.5420 H   0  0  0  0  0  0  0  0  0  0  0  0
   35.2300   28.5630   41.2680 H   0  0  0  0  0  0  0  0  0  0  0  0
   36.3220   29.9070   40.0960 C   0  0  0  0  0  0  0  0  0  0  0  0
   36.5760   31.1010   40.6640 C   0  0  0  0  0  0  0  0  0  0  0  0
   36.3380   31.1520   41.7190 H   0  0  0  0  0  0  0  0  0  0  0  0
   37.0900   32.1640   40.0020 C   0  0  0  0  0  3  0  0  0  0  0  0
   37.3550   31.9210   38.6180 C   0  0  0  0  0  3  0  0  0  0  0  0
   36.8440   30.1800   38.3560 S   0  0  0  0  0  0  0  0  0  0  0  0
  1  7  1  6  0  0  0
  1 17  1  0  0  0  0
  1  2  1  0  0  0  0
  2  3  1  0  0  0  0
  2  9  1  0  0  0  0
  3 10  1  0  0  0  0
  3 11  1  0  0  0  0
  4 12  1  0  0  0  0
  4  3  1  0  0  0  0
  5 14  1  6  0  0  0
  5  6  1  0  0  0  0
  5  4  1  0  0  0  0
  6  1  1  0  0  0  0
  6 15  1  0  0  0  0
  8  2  1  0  0  0  0
 13  4  1  0  0  0  0
 16  6  1  0  0  0  0
 17 22  2  0  0  0  0
 17 18  1  0  0  0  0
 18 23  1  0  0  0  0
 18 19  2  0  0  0  0
 19 24  1  0  0  0  0
 20 19  1  0  0  0  0
 21 25  1  0  0  0  0
 21 20  2  0  0  0  0
 22 21  1  0  0  0  0
 26  5  1  0  0  0  0
 27 26  1  0  0  0  0
 28 26  1  0  0  0  0
 29 26  1  0  0  0  0
 29 31  1  0  0  0  0
 30 29  1  0  0  0  0
 32 29  1  0  0  0  0
 32 33  2  0  0  0  0
 33 34  1  0  0  0  0
 35 33  1  0  0  0  0
 36 35  2  0  0  0  0
 37 36  1  0  0  0  0
 37 32  1  0  0  0  0
M  END
>  <minimizedAffinity>
-4.94669008

$$$$

 OpenBabel03242519553D

 37 39  0  0  1  0  0  0  0  0999 V2000
   37.8930   30.6160   40.0150 C   0  0  2  0  0  0  0  0  0  0  0  0
   37.7250   30.0000   38.6800 C   0  0  0  0  0  0  0  0  0  0  0  0
   36.2990   29.9750   38.2380 C   0  0  0  0  0  0  0  0  0  0  0  0
   35.3790   29.3080   39.2180 C   0  0  0  0  0  0  0  0  0  0  0  0
   35.7120   29.5770   40.6580 C   0  0  2  0  0  0  0  0  0  0  0  0
   36.6370   30.7690   40.8000 C   0  0  0  0  0  0  0  0  0  0  0  0
   38.5800   29.9180   40.5910 H   0  0  0  0  0  0  0  0  0  0  0  0
   38.1330   28.9710   38.6190 H   0  0  0  0  0  0  0  0  0  0  0  0
   38.2780   30.5900   37.9210 H   0  0  0  0  0  0  0  0  0  0  0  0
   36.2670   29.3730   37.2830 H   0  0  0  0  0  0  0  0  0  0  0  0
   35.9250   30.9940   37.9550 H   0  0  0  0  0  0  0  0  0  0  0  0
   34.3590   29.6780   38.9910 H   0  0  0  0  0  0  0  0  0  0  0  0
   35.3200   28.2010   39.0300 H   0  0  0  0  0  0  0  0  0  0  0  0
   34.7790   29.8800   41.1950 H   0  0  0  0  0  0  0  0  0  0  0  0
   36.0220   31.6370   40.6470 H   0  0  0  0  0  0  0  0  0  0  0  0
   36.9540   30.7980   41.8800 H   0  0  0  0  0  0  0  0  0  0  0  0
   38.6090   31.9010   39.9850 C   0  0  0  0  0  0  0  0  0  0  0  0
   39.8220   31.8580   39.3050 C   0  0  0  0  0  0  0  0  0  0  0  0
   40.5910   33.0190   39.1850 C   0  0  0  0  0  0  0  0  0  0  0  0
   40.0750   34.1590   39.7750 N   0  0  0  0  0  0  0  0  0  0  0  0
   38.8960   34.1610   40.4270 C   0  0  0  0  0  0  0  0  0  0  0  0
   38.1880   33.0380   40.5200 N   0  0  0  0  0  0  0  0  0  0  0  0
   40.4150   31.1150   38.7920 H   0  0  0  0  0  0  0  0  0  0  0  0
   41.5330   33.2090   38.7130 H   0  0  0  0  0  0  0  0  0  0  0  0
   38.5390   35.0830   40.8720 H   0  0  0  0  0  0  0  0  0  0  0  0
   36.2520   28.3480   41.2740 C   0  0  0  0  0  0  0  0  0  0  0  0
   37.2290   28.6420   41.7600 H   0  0  0  0  0  0  0  0  0  0  0  0
   35.5860   28.0730   42.1160 H   0  0  0  0  0  0  0  0  0  0  0  0
   36.5030   27.1740   40.4330 C   0  0  0  0  0  0  0  0  0  0  0  0
   35.5090   26.9020   39.9600 H   0  0  0  0  0  0  0  0  0  0  0  0
   37.0840   27.5420   39.5310 H   0  0  0  0  0  0  0  0  0  0  0  0
   37.1440   26.0200   40.9640 C   0  0  0  0  0  0  0  0  0  0  0  0
   37.1150   25.0800   41.9280 C   0  0  0  0  0  0  0  0  0  0  0  0
   36.2930   25.1830   42.6240 H   0  0  0  0  0  0  0  0  0  0  0  0
   38.0150   24.0760   42.0400 C   0  0  0  0  0  3  0  0  0  0  0  0
   39.0290   24.0820   41.0310 C   0  0  0  0  0  3  0  0  0  0  0  0
   38.6230   25.5340   39.9870 S   0  0  0  0  0  0  0  0  0  0  0  0
  1  7  1  1  0  0  0
  1  6  1  0  0  0  0
  2  1  1  0  0  0  0
  3  2  1  0  0  0  0
  3  4  1  0  0  0  0
  4  5  1  0  0  0  0
  5  6  1  0  0  0  0
  5 14  1  1  0  0  0
  5 26  1  0  0  0  0
  6 16  1  0  0  0  0
  8  2  1  0  0  0  0
  9  2  1  0  0  0  0
 10  3  1  0  0  0  0
 11  3  1  0  0  0  0
 12  4  1  0  0  0  0
 13  4  1  0  0  0  0
 15  6  1  0  0  0  0
 17  1  1  0  0  0  0
 17 22  1  0  0  0  0
 18 17  2  0  0  0  0
 19 18  1  0  0  0  0
 19 20  2  0  0  0  0
 20 21  1  0  0  0  0
 21 22  2  0  0  0  0
 21 25  1  0  0  0  0
 23 18  1  0  0  0  0
 24 19  1  0  0  0  0
 26 27  1  0  0  0  0
 26 28  1  0  0  0  0
 29 32  1  0  0  0  0
 29 26  1  0  0  0  0
 30 29  1  0  0  0  0
 31 29  1  0  0  0  0
 32 33  2  0  0  0  0
 33 35  1  0  0  0  0
 33 34  1  0  0  0  0
 36 35  2  0  0  0  0
 37 32  1  0  0  0  0
 37 36  1  0  0  0  0
M  END
>  <minimizedAffinity>
-4.87914753

$$$$

 OpenBabel03242519553D

 37 39  0  0  1  0  0  0  0  0999 V2000
   37.4510   26.5810   40.7560 C   0  0  2  0  0  0  0  0  0  0  0  0
   37.1820   25.8490   39.4980 C   0  0  0  0  0  0  0  0  0  0  0  0
   36.2660   24.6880   39.6970 C   0  0  0  0  0  0  0  0  0  0  0  0
   36.7390   23.7240   40.7470 C   0  0  0  0  0  0  0  0  0  0  0  0
   37.3910   24.3760   41.9330 C   0  0  2  0  0  0  0  0  0  0  0  0
   37.0700   25.8550   41.9990 C   0  0  0  0  0  0  0  0  0  0  0  0
   38.5750   26.7460   40.7800 H   0  0  0  0  0  0  0  0  0  0  0  0
   38.1020   25.4920   38.9940 H   0  0  0  0  0  0  0  0  0  0  0  0
   36.6810   26.5220   38.7710 H   0  0  0  0  0  0  0  0  0  0  0  0
   36.2340   24.1280   38.7170 H   0  0  0  0  0  0  0  0  0  0  0  0
   35.2070   25.0090   39.8860 H   0  0  0  0  0  0  0  0  0  0  0  0
   35.8460   23.1540   41.0730 H   0  0  0  0  0  0  0  0  0  0  0  0
   37.4180   22.9450   40.3040 H   0  0  0  0  0  0  0  0  0  0  0  0
   36.9510   23.9500   42.8680 H   0  0  0  0  0  0  0  0  0  0  0  0
   36.0590   25.9190   42.3590 H   0  0  0  0  0  0  0  0  0  0  0  0
   37.7190   26.2850   42.8130 H   0  0  0  0  0  0  0  0  0  0  0  0
   36.8750   27.9340   40.7860 C   0  0  0  0  0  0  0  0  0  0  0  0
   37.5760   28.8300   41.5890 C   0  0  0  0  0  0  0  0  0  0  0  0
   37.1460   30.1560   41.6870 C   0  0  0  0  0  0  0  0  0  0  0  0
   36.0170   30.4890   40.9580 N   0  0  0  0  0  0  0  0  0  0  0  0
   35.3640   29.5930   40.1930 C   0  0  0  0  0  0  0  0  0  0  0  0
   35.8030   28.3380   40.1210 N   0  0  0  0  0  0  0  0  0  0  0  0
   38.4410   28.8020   42.2340 H   0  0  0  0  0  0  0  0  0  0  0  0
   37.5270   30.9950   42.2320 H   0  0  0  0  0  0  0  0  0  0  0  0
   34.4840   29.9070   39.6440 H   0  0  0  0  0  0  0  0  0  0  0  0
   38.8420   24.0990   41.9070 C   0  0  0  0  0  0  0  0  0  0  0  0
   38.9500   23.0150   41.6080 H   0  0  0  0  0  0  0  0  0  0  0  0
   39.2790   24.6720   41.0650 H   0  0  0  0  0  0  0  0  0  0  0  0
   39.6350   24.3130   43.1210 C   0  0  0  0  0  0  0  0  0  0  0  0
   38.9030   24.6220   43.9300 H   0  0  0  0  0  0  0  0  0  0  0  0
   39.9500   23.2870   43.4860 H   0  0  0  0  0  0  0  0  0  0  0  0
   40.7690   25.1730   43.1090 C   0  0  0  0  0  0  0  0  0  0  0  0
   42.0840   25.2710   42.8340 C   0  0  0  0  0  0  0  0  0  0  0  0
   42.5310   24.3550   42.4680 H   0  0  0  0  0  0  0  0  0  0  0  0
   42.8100   26.4020   42.9830 C   0  0  0  0  0  3  0  0  0  0  0  0
   42.0620   27.5210   43.4670 C   0  0  0  0  0  3  0  0  0  0  0  0
   40.3600   26.8720   43.6780 S   0  0  0  0  0  0  0  0  0  0  0  0
  1  7  1  1  0  0  0
  1 17  1  0  0  0  0
  1  6  1  0  0  0  0
  2  3  1  0  0  0  0
  2  1  1  0  0  0  0
  3 11  1  0  0  0  0
  3  4  1  0  0  0  0
  4 12  1  0  0  0  0
  4  5  1  0  0  0  0
  5  6  1  0  0  0  0
  5 14  1  1  0  0  0
  6 15  1  0  0  0  0
  6 16  1  0  0  0  0
  8  2  1  0  0  0  0
  9  2  1  0  0  0  0
 10  3  1  0  0  0  0
 13  4  1  0  0  0  0
 17 18  1  0  0  0  0
 18 19  2  0  0  0  0
 18 23  1  0  0  0  0
 19 24  1  0  0  0  0
 20 19  1  0  0  0  0
 21 20  2  0  0  0  0
 22 21  1  0  0  0  0
 22 17  2  0  0  0  0
 25 21  1  0  0  0  0
 26  5  1  0  0  0  0
 26 29  1  0  0  0  0
 27 26  1  0  0  0  0
 28 26  1  0  0  0  0
 29 31  1  0  0  0  0
 29 30  1  0  0  0  0
 32 29  1  0  0  0  0
 32 37  1  0  0  0  0
 33 35  1  0  0  0  0
 33 32  2  0  0  0  0
 34 33  1  0  0  0  0
 35 36  2  0  0  0  0
 36 37  1  0  0  0  0
M  END
>  <minimizedAffinity>
-4.87004614

$$$$

 OpenBabel03242519553D

 37 39  0  0  1  0  0  0  0  0999 V2000
   38.2900   25.8430   41.0520 C   0  0  2  0  0  0  0  0  0  0  0  0
   39.5140   26.4970   41.5650 C   0  0  0  0  0  0  0  0  0  0  0  0
   39.5600   26.5310   43.0570 C   0  0  0  0  0  0  0  0  0  0  0  0
   38.3520   27.1680   43.6800 C   0  0  0  0  0  0  0  0  0  0  0  0
   37.0610   26.8580   42.9770 C   0  0  2  0  0  0  0  0  0  0  0  0
   37.2040   25.6650   42.0540 C   0  0  0  0  0  0  0  0  0  0  0  0
   37.8970   26.5260   40.2320 H   0  0  0  0  0  0  0  0  0  0  0  0
   39.6530   27.5280   41.1830 H   0  0  0  0  0  0  0  0  0  0  0  0
   40.4090   25.9310   41.2370 H   0  0  0  0  0  0  0  0  0  0  0  0
   40.4550   27.1600   43.3390 H   0  0  0  0  0  0  0  0  0  0  0  0
   39.7610   25.5190   43.4980 H   0  0  0  0  0  0  0  0  0  0  0  0
   38.3100   26.8020   44.7250 H   0  0  0  0  0  0  0  0  0  0  0  0
   38.4870   28.2790   43.7810 H   0  0  0  0  0  0  0  0  0  0  0  0
   36.3040   26.5390   43.7350 H   0  0  0  0  0  0  0  0  0  0  0  0
   37.2120   24.8010   42.6930 H   0  0  0  0  0  0  0  0  0  0  0  0
   36.2480   25.6060   41.4620 H   0  0  0  0  0  0  0  0  0  0  0  0
   38.5440   24.5610   40.3760 C   0  0  0  0  0  0  0  0  0  0  0  0
   37.7930   23.5000   40.8730 C   0  0  0  0  0  0  0  0  0  0  0  0
   37.9260   22.2310   40.3040 C   0  0  0  0  0  0  0  0  0  0  0  0
   38.8240   22.1200   39.2570 N   0  0  0  0  0  0  0  0  0  0  0  0
   39.5350   23.1710   38.8050 C   0  0  0  0  0  0  0  0  0  0  0  0
   39.3830   24.3660   39.3700 N   0  0  0  0  0  0  0  0  0  0  0  0
   37.0670   23.3450   41.6570 H   0  0  0  0  0  0  0  0  0  0  0  0
   37.4550   21.2940   40.5230 H   0  0  0  0  0  0  0  0  0  0  0  0
   40.2270   23.0280   37.9820 H   0  0  0  0  0  0  0  0  0  0  0  0
   36.5760   28.0710   42.2860 C   0  0  0  0  0  0  0  0  0  0  0  0
   36.5380   27.8130   41.1880 H   0  0  0  0  0  0  0  0  0  0  0  0
   35.5180   28.2260   42.5810 H   0  0  0  0  0  0  0  0  0  0  0  0
   37.3220   29.3240   42.4290 C   0  0  0  0  0  0  0  0  0  0  0  0
   36.9870   29.7850   43.4100 H   0  0  0  0  0  0  0  0  0  0  0  0
   38.3920   29.0380   42.6720 H   0  0  0  0  0  0  0  0  0  0  0  0
   37.3230   30.2950   41.3880 C   0  0  0  0  0  0  0  0  0  0  0  0
   36.5740   31.1620   40.6790 C   0  0  0  0  0  0  0  0  0  0  0  0
   35.5290   31.1800   40.9620 H   0  0  0  0  0  0  0  0  0  0  0  0
   37.0570   31.9590   39.6990 C   0  0  0  0  0  3  0  0  0  0  0  0
   38.4600   31.8150   39.4620 C   0  0  0  0  0  3  0  0  0  0  0  0
   38.9940   30.5380   40.6650 S   0  0  0  0  0  0  0  0  0  0  0  0
  1  7  1  6  0  0  0
  1  2  1  0  0  0  0
  1  6  1  0  0  0  0
  2  3  1  0  0  0  0
  3 10  1  0  0  0  0
  3 11  1  0  0  0  0
  3  4  1  0  0  0  0
  4 13  1  0  0  0  0
  4 12  1  0  0  0  0
  5  4  1  0  0  0  0
  5 14  1  1  0  0  0
  6 15  1  0  0  0  0
  6  5  1  0  0  0  0
  8  2  1  0  0  0  0
  9  2  1  0  0  0  0
 16  6  1  0  0  0  0
 17 18  1  0  0  0  0
 17  1  1  0  0  0  0
 18 23  1  0  0  0  0
 19 24  1  0  0  0  0
 19 18  2  0  0  0  0
 20 19  1  0  0  0  0
 21 20  2  0  0  0  0
 21 22  1  0  0  0  0
 22 17  2  0  0  0  0
 25 21  1  0  0  0  0
 26 29  1  0  0  0  0
 26 28  1  0  0  0  0
 26  5  1  0  0  0  0
 27 26  1  0  0  0  0
 29 31  1  0  0  0  0
 29 30  1  0  0  0  0
 32 29  1  0  0  0  0
 33 34  1  0  0  0  0
 33 32  2  0  0  0  0
 35 33  1  0  0  0  0
 36 35  2  0  0  0  0
 36 37  1  0  0  0  0
 37 32  1  0  0  0  0
M  END
>  <minimizedAffinity>
-4.82536125

$$$$

 OpenBabel03242519553D

 37 39  0  0  1  0  0  0  0  0999 V2000
   36.6230   29.8290   40.3280 C   0  0  2  0  0  0  0  0  0  0  0  0
   36.5590   31.2640   40.6810 C   0  0  0  0  0  0  0  0  0  0  0  0
   37.8930   31.9300   40.6120 C   0  0  0  0  0  0  0  0  0  0  0  0
   38.9430   31.2550   41.4450 C   0  0  0  0  0  0  0  0  0  0  0  0
   38.8530   29.7550   41.4540 C   0  0  2  0  0  0  0  0  0  0  0  0
   37.9920   29.2450   40.3170 C   0  0  0  0  0  0  0  0  0  0  0  0
   36.0210   29.2890   41.1270 H   0  0  0  0  0  0  0  0  0  0  0  0
   36.1210   31.4500   41.6820 H   0  0  0  0  0  0  0  0  0  0  0  0
   35.9040   31.8000   39.9620 H   0  0  0  0  0  0  0  0  0  0  0  0
   37.7560   32.9730   41.0220 H   0  0  0  0  0  0  0  0  0  0  0  0
   38.2420   32.0740   39.5550 H   0  0  0  0  0  0  0  0  0  0  0  0
   39.9210   31.5720   41.0320 H   0  0  0  0  0  0  0  0  0  0  0  0
   38.9440   31.6550   42.4960 H   0  0  0  0  0  0  0  0  0  0  0  0
   39.8670   29.3310   41.2530 H   0  0  0  0  0  0  0  0  0  0  0  0
   38.5960   29.3310   39.4320 H   0  0  0  0  0  0  0  0  0  0  0  0
   37.8540   28.1410   40.4940 H   0  0  0  0  0  0  0  0  0  0  0  0
   35.9430   29.5000   39.0650 C   0  0  0  0  0  0  0  0  0  0  0  0
   34.6280   29.0720   39.2250 C   0  0  0  0  0  0  0  0  0  0  0  0
   33.8630   28.7490   38.1010 C   0  0  0  0  0  0  0  0  0  0  0  0
   34.4910   28.8790   36.8750 N   0  0  0  0  0  0  0  0  0  0  0  0
   35.7680   29.2950   36.7610 C   0  0  0  0  0  0  0  0  0  0  0  0
   36.4660   29.5960   37.8530 N   0  0  0  0  0  0  0  0  0  0  0  0
   33.9510   28.8880   40.0460 H   0  0  0  0  0  0  0  0  0  0  0  0
   32.8540   28.4080   37.9940 H   0  0  0  0  0  0  0  0  0  0  0  0
   36.2110   29.3780   35.7750 H   0  0  0  0  0  0  0  0  0  0  0  0
   38.3900   29.3010   42.7810 C   0  0  0  0  0  0  0  0  0  0  0  0
   38.7170   30.0930   43.5170 H   0  0  0  0  0  0  0  0  0  0  0  0
   37.2820   29.3470   42.7850 H   0  0  0  0  0  0  0  0  0  0  0  0
   38.8370   28.0010   43.2910 C   0  0  0  0  0  0  0  0  0  0  0  0
   39.9590   27.9660   43.1360 H   0  0  0  0  0  0  0  0  0  0  0  0
   38.7690   28.0560   44.4210 H   0  0  0  0  0  0  0  0  0  0  0  0
   38.2270   26.7940   42.8440 C   0  0  0  0  0  0  0  0  0  0  0  0
   37.0770   26.2110   42.4540 C   0  0  0  0  0  0  0  0  0  0  0  0
   36.2200   26.8730   42.4580 H   0  0  0  0  0  0  0  0  0  0  0  0
   36.9710   24.9170   42.0760 C   0  0  0  0  0  3  0  0  0  0  0  0
   38.2010   24.1890   42.1190 C   0  0  0  0  0  3  0  0  0  0  0  0
   39.4330   25.4150   42.7050 S   0  0  0  0  0  0  0  0  0  0  0  0
  1  2  1  0  0  0  0
  1  7  1  1  0  0  0
  2  8  1  0  0  0  0
  3  2  1  0  0  0  0
  3 10  1  0  0  0  0
  3  4  1  0  0  0  0
  4  5  1  0  0  0  0
  4 13  1  0  0  0  0
  5 14  1  6  0  0  0
  5 26  1  0  0  0  0
  6  1  1  0  0  0  0
  6 16  1  0  0  0  0
  6  5  1  0  0  0  0
  9  2  1  0  0  0  0
 11  3  1  0  0  0  0
 12  4  1  0  0  0  0
 15  6  1  0  0  0  0
 17 18  1  0  0  0  0
 17  1  1  0  0  0  0
 18 23  1  0  0  0  0
 19 18  2  0  0  0  0
 20 19  1  0  0  0  0
 21 20  2  0  0  0  0
 21 22  1  0  0  0  0
 22 17  2  0  0  0  0
 24 19  1  0  0  0  0
 25 21  1  0  0  0  0
 26 28  1  0  0  0  0
 26 29  1  0  0  0  0
 26 27  1  0  0  0  0
 29 31  1  0  0  0  0
 30 29  1  0  0  0  0
 32 29  1  0  0  0  0
 33 34  1  0  0  0  0
 33 32  2  0  0  0  0
 35 36  2  0  0  0  0
 35 33  1  0  0  0  0
 36 37  1  0  0  0  0
 37 32  1  0  0  0  0
M  END
>  <minimizedAffinity>
-4.80446577

$$$$
