
 OpenBabel03252508573D

 21 22  0  0  0  0  0  0  0  0999 V2000
   37.6630   28.1820   43.6490 C   0  0  0  0  0  0  0  0  0  0  0  0
   37.6180   28.5610   44.6710 H   0  0  0  0  0  0  0  0  0  0  0  0
   36.6980   27.6970   43.4360 H   0  0  0  0  0  0  0  0  0  0  0  0
   39.2830   31.0460   41.8010 C   0  0  0  0  0  0  0  0  0  0  0  0
   39.0830   29.9640   42.7000 C   0  0  0  0  0  0  0  0  0  0  0  0
   37.8620   29.3080   42.7080 C   0  0  0  0  0  0  0  0  0  0  0  0
   36.9160   29.7440   41.8410 N   0  0  0  0  0  0  0  0  0  0  0  0
   37.1180   30.7660   40.9970 C   0  0  0  0  0  0  0  0  0  0  0  0
   38.2900   31.4080   40.9800 N   0  0  0  0  0  0  0  0  0  0  0  0
   40.2520   31.5300   41.8300 H   0  0  0  0  0  0  0  0  0  0  0  0
   39.8500   29.6190   43.3950 H   0  0  0  0  0  0  0  0  0  0  0  0
   36.3170   31.0650   40.3290 H   0  0  0  0  0  0  0  0  0  0  0  0
   38.7850   27.1870   43.4650 C   0  0  0  0  0  0  0  0  0  0  0  0
   39.0460   26.7980   44.4920 H   0  0  0  0  0  0  0  0  0  0  0  0
   39.6930   27.6280   43.0600 H   0  0  0  0  0  0  0  0  0  0  0  0
   38.3330   26.0170   42.7020 C   0  0  0  0  0  0  0  0  0  0  0  0
   37.0780   25.6690   42.2600 C   0  0  0  0  0  0  0  0  0  0  0  0
   36.2670   26.3420   42.4900 H   0  0  0  0  0  0  0  0  0  0  0  0
   36.9020   24.5180   41.5630 C   0  0  0  0  0  3  0  0  0  0  0  0
   38.1140   23.7340   41.3470 C   0  0  0  0  0  3  0  0  0  0  0  0
   39.4200   24.7600   42.1890 S   0  0  0  0  0  0  0  0  0  0  0  0
  1  2  1  0  0  0  0
  3  1  1  0  0  0  0
  4 10  1  0  0  0  0
  4  5  1  0  0  0  0
  5  6  2  0  0  0  0
  5 11  1  0  0  0  0
  6  1  1  0  0  0  0
  7  6  1  0  0  0  0
  8  7  2  0  0  0  0
  9  8  1  0  0  0  0
  9  4  2  0  0  0  0
 12  8  1  0  0  0  0
 13  1  1  0  0  0  0
 13 14  1  0  0  0  0
 15 13  1  0  0  0  0
 16 13  1  0  0  0  0
 17 18  1  0  0  0  0
 17 16  2  0  0  0  0
 19 17  1  0  0  0  0
 20 19  2  0  0  0  0
 20 21  1  0  0  0  0
 21 16  1  0  0  0  0
M  END
>  <minimizedAffinity>
-4.09682131

$$$$

 OpenBabel03252508573D

 21 22  0  0  0  0  0  0  0  0999 V2000
   37.7070   28.5700   43.3240 C   0  0  0  0  0  0  0  0  0  0  0  0
   38.7100   28.1650   43.4610 H   0  0  0  0  0  0  0  0  0  0  0  0
   37.3770   28.9650   44.2980 H   0  0  0  0  0  0  0  0  0  0  0  0
   36.6250   31.0270   40.6720 C   0  0  0  0  0  0  0  0  0  0  0  0
   36.5970   29.9690   41.6200 C   0  0  0  0  0  0  0  0  0  0  0  0
   37.7460   29.6750   42.3390 C   0  0  0  0  0  0  0  0  0  0  0  0
   38.8440   30.4280   42.0900 N   0  0  0  0  0  0  0  0  0  0  0  0
   38.8570   31.4240   41.1930 C   0  0  0  0  0  0  0  0  0  0  0  0
   37.7560   31.7180   40.4930 N   0  0  0  0  0  0  0  0  0  0  0  0
   35.7050   31.2210   40.1330 H   0  0  0  0  0  0  0  0  0  0  0  0
   35.7080   29.3670   41.8140 H   0  0  0  0  0  0  0  0  0  0  0  0
   39.7710   31.9880   41.0430 H   0  0  0  0  0  0  0  0  0  0  0  0
   36.7350   27.5190   42.8430 C   0  0  0  0  0  0  0  0  0  0  0  0
   36.3120   27.8910   41.8640 H   0  0  0  0  0  0  0  0  0  0  0  0
   35.8890   27.3730   43.5100 H   0  0  0  0  0  0  0  0  0  0  0  0
   37.4290   26.2650   42.5230 C   0  0  0  0  0  0  0  0  0  0  0  0
   36.9400   25.0660   42.0600 C   0  0  0  0  0  0  0  0  0  0  0  0
   35.8770   24.9970   41.8880 H   0  0  0  0  0  0  0  0  0  0  0  0
   37.7890   24.0310   41.8360 C   0  0  0  0  0  3  0  0  0  0  0  0
   39.1920   24.3080   42.1240 C   0  0  0  0  0  3  0  0  0  0  0  0
   39.1480   26.0780   42.7020 S   0  0  0  0  0  0  0  0  0  0  0  0
  1  2  1  0  0  0  0
  1  3  1  0  0  0  0
  4  5  1  0  0  0  0
  5 11  1  0  0  0  0
  5  6  2  0  0  0  0
  6  1  1  0  0  0  0
  7  6  1  0  0  0  0
  8  7  2  0  0  0  0
  9  4  2  0  0  0  0
  9  8  1  0  0  0  0
 10  4  1  0  0  0  0
 12  8  1  0  0  0  0
 13  1  1  0  0  0  0
 13 15  1  0  0  0  0
 14 13  1  0  0  0  0
 16 21  1  0  0  0  0
 16 13  1  0  0  0  0
 17 16  2  0  0  0  0
 18 17  1  0  0  0  0
 19 17  1  0  0  0  0
 19 20  2  0  0  0  0
 20 21  1  0  0  0  0
M  END
>  <minimizedAffinity>
-4.00714588

$$$$

 OpenBabel03252508573D

 21 22  0  0  0  0  0  0  0  0999 V2000
   35.3830   29.1940   40.3850 C   0  0  0  0  0  0  0  0  0  0  0  0
   35.0580   29.3830   41.4090 H   0  0  0  0  0  0  0  0  0  0  0  0
   34.4770   29.1050   39.7650 H   0  0  0  0  0  0  0  0  0  0  0  0
   37.3540   31.4560   38.0960 C   0  0  0  0  0  0  0  0  0  0  0  0
   36.5750   30.3660   38.5680 C   0  0  0  0  0  0  0  0  0  0  0  0
   36.1940   30.3350   39.9020 C   0  0  0  0  0  0  0  0  0  0  0  0
   36.5950   31.3640   40.6870 N   0  0  0  0  0  0  0  0  0  0  0  0
   37.3290   32.3880   40.2270 C   0  0  0  0  0  0  0  0  0  0  0  0
   37.7030   32.4290   38.9450 N   0  0  0  0  0  0  0  0  0  0  0  0
   37.6290   31.4390   37.0480 H   0  0  0  0  0  0  0  0  0  0  0  0
   36.2570   29.5400   37.9300 H   0  0  0  0  0  0  0  0  0  0  0  0
   37.6160   33.1790   40.9110 H   0  0  0  0  0  0  0  0  0  0  0  0
   36.2030   27.9300   40.2770 C   0  0  0  0  0  0  0  0  0  0  0  0
   36.8840   28.0600   39.3860 H   0  0  0  0  0  0  0  0  0  0  0  0
   35.6060   27.0420   40.0840 H   0  0  0  0  0  0  0  0  0  0  0  0
   37.0910   27.7770   41.4360 C   0  0  0  0  0  0  0  0  0  0  0  0
   36.8050   27.7130   42.7790 C   0  0  0  0  0  0  0  0  0  0  0  0
   35.7680   27.7810   43.0690 H   0  0  0  0  0  0  0  0  0  0  0  0
   37.8100   27.5700   43.6790 C   0  0  0  0  0  3  0  0  0  0  0  0
   39.1490   27.4950   43.1040 C   0  0  0  0  0  3  0  0  0  0  0  0
   38.8180   27.6420   41.2780 S   0  0  0  0  0  0  0  0  0  0  0  0
  1  2  1  0  0  0  0
  3  1  1  0  0  0  0
  4  5  2  0  0  0  0
  4  9  1  0  0  0  0
  5  6  1  0  0  0  0
  6  1  1  0  0  0  0
  6  7  2  0  0  0  0
  8  7  1  0  0  0  0
  8 12  1  0  0  0  0
  9  8  2  0  0  0  0
 10  4  1  0  0  0  0
 11  5  1  0  0  0  0
 13  1  1  0  0  0  0
 13 16  1  0  0  0  0
 14 13  1  0  0  0  0
 15 13  1  0  0  0  0
 16 17  2  0  0  0  0
 17 18  1  0  0  0  0
 17 19  1  0  0  0  0
 20 19  2  0  0  0  0
 21 16  1  0  0  0  0
 21 20  1  0  0  0  0
M  END
>  <minimizedAffinity>
-3.98188519

$$$$

 OpenBabel03252508573D

 21 22  0  0  0  0  0  0  0  0999 V2000
   37.5260   28.8200   43.2950 C   0  0  0  0  0  0  0  0  0  0  0  0
   38.4640   28.7880   43.8500 H   0  0  0  0  0  0  0  0  0  0  0  0
   36.7360   29.1160   44.0020 H   0  0  0  0  0  0  0  0  0  0  0  0
   38.9590   31.3420   40.8810 C   0  0  0  0  0  0  0  0  0  0  0  0
   38.8600   30.3700   41.9120 C   0  0  0  0  0  0  0  0  0  0  0  0
   37.6190   29.8330   42.2180 C   0  0  0  0  0  0  0  0  0  0  0  0
   36.5570   30.2750   41.5020 N   0  0  0  0  0  0  0  0  0  0  0  0
   36.6640   31.1930   40.5310 C   0  0  0  0  0  0  0  0  0  0  0  0
   37.8550   31.7180   40.2260 N   0  0  0  0  0  0  0  0  0  0  0  0
   39.9480   31.7340   40.6760 H   0  0  0  0  0  0  0  0  0  0  0  0
   39.7210   30.0190   42.4840 H   0  0  0  0  0  0  0  0  0  0  0  0
   35.7730   31.5030   39.9970 H   0  0  0  0  0  0  0  0  0  0  0  0
   37.1880   27.4830   42.6800 C   0  0  0  0  0  0  0  0  0  0  0  0
   37.1390   27.6410   41.5630 H   0  0  0  0  0  0  0  0  0  0  0  0
   36.2150   27.1000   42.9820 H   0  0  0  0  0  0  0  0  0  0  0  0
   38.2700   26.5140   42.8960 C   0  0  0  0  0  0  0  0  0  0  0  0
   39.4300   26.6190   43.6280 C   0  0  0  0  0  0  0  0  0  0  0  0
   39.6080   27.5490   44.1450 H   0  0  0  0  0  0  0  0  0  0  0  0
   40.2950   25.5740   43.6780 C   0  0  0  0  0  3  0  0  0  0  0  0
   39.8890   24.3980   42.9160 C   0  0  0  0  0  3  0  0  0  0  0  0
   38.2590   24.9270   42.1860 S   0  0  0  0  0  0  0  0  0  0  0  0
  1  2  1  0  0  0  0
  1  3  1  0  0  0  0
  4  5  1  0  0  0  0
  5  6  2  0  0  0  0
  5 11  1  0  0  0  0
  6  1  1  0  0  0  0
  7  6  1  0  0  0  0
  8  7  2  0  0  0  0
  9  8  1  0  0  0  0
  9  4  2  0  0  0  0
 10  4  1  0  0  0  0
 12  8  1  0  0  0  0
 13 16  1  0  0  0  0
 13 15  1  0  0  0  0
 13  1  1  0  0  0  0
 14 13  1  0  0  0  0
 16 17  2  0  0  0  0
 17 19  1  0  0  0  0
 17 18  1  0  0  0  0
 20 19  2  0  0  0  0
 21 16  1  0  0  0  0
 21 20  1  0  0  0  0
M  END
>  <minimizedAffinity>
-3.96178746

$$$$

 OpenBabel03252508573D

 21 22  0  0  0  0  0  0  0  0999 V2000
   37.7710   28.3910   43.5860 C   0  0  0  0  0  0  0  0  0  0  0  0
   36.7280   28.5040   43.2890 H   0  0  0  0  0  0  0  0  0  0  0  0
   37.8160   28.5160   44.6790 H   0  0  0  0  0  0  0  0  0  0  0  0
   39.9580   25.3260   43.3440 C   0  0  0  0  0  0  0  0  0  0  0  0
   39.4940   26.6260   43.6800 C   0  0  0  0  0  0  0  0  0  0  0  0
   38.2470   27.0350   43.2310 C   0  0  0  0  0  0  0  0  0  0  0  0
   37.5340   26.1540   42.4870 N   0  0  0  0  0  0  0  0  0  0  0  0
   37.9840   24.9300   42.1780 C   0  0  0  0  0  0  0  0  0  0  0  0
   39.1850   24.5240   42.6030 N   0  0  0  0  0  0  0  0  0  0  0  0
   40.9380   25.0490   43.7150 H   0  0  0  0  0  0  0  0  0  0  0  0
   40.0740   27.3290   44.2790 H   0  0  0  0  0  0  0  0  0  0  0  0
   37.3620   24.2750   41.5780 H   0  0  0  0  0  0  0  0  0  0  0  0
   38.6620   29.4120   42.9180 C   0  0  0  0  0  0  0  0  0  0  0  0
   39.4860   28.8380   42.4040 H   0  0  0  0  0  0  0  0  0  0  0  0
   39.1450   30.0900   43.6180 H   0  0  0  0  0  0  0  0  0  0  0  0
   37.9450   30.1180   41.8480 C   0  0  0  0  0  0  0  0  0  0  0  0
   36.6400   30.0130   41.4270 C   0  0  0  0  0  0  0  0  0  0  0  0
   36.0070   29.3100   41.9450 H   0  0  0  0  0  0  0  0  0  0  0  0
   36.1970   30.7800   40.3990 C   0  0  0  0  0  3  0  0  0  0  0  0
   37.1950   31.6730   39.8190 C   0  0  0  0  0  3  0  0  0  0  0  0
   38.7090   31.3120   40.8410 S   0  0  0  0  0  0  0  0  0  0  0  0
  1  3  1  0  0  0  0
  2  1  1  0  0  0  0
  4  5  1  0  0  0  0
  4 10  1  0  0  0  0
  5 11  1  0  0  0  0
  6  1  1  0  0  0  0
  6  5  2  0  0  0  0
  7  6  1  0  0  0  0
  8  7  2  0  0  0  0
  8  9  1  0  0  0  0
  9  4  2  0  0  0  0
 12  8  1  0  0  0  0
 13  1  1  0  0  0  0
 13 15  1  0  0  0  0
 14 13  1  0  0  0  0
 16 13  1  0  0  0  0
 17 16  2  0  0  0  0
 17 18  1  0  0  0  0
 19 17  1  0  0  0  0
 20 19  2  0  0  0  0
 20 21  1  0  0  0  0
 21 16  1  0  0  0  0
M  END
>  <minimizedAffinity>
-3.95812774

$$$$

 OpenBabel03252508573D

 21 22  0  0  0  0  0  0  0  0999 V2000
   39.6610   30.4560   41.3610 C   0  0  0  0  0  0  0  0  0  0  0  0
   39.4480   29.6470   40.6610 H   0  0  0  0  0  0  0  0  0  0  0  0
   40.7550   30.5740   41.4020 H   0  0  0  0  0  0  0  0  0  0  0  0
   37.2670   32.8480   39.6930 C   0  0  0  0  0  0  0  0  0  0  0  0
   37.8580   31.6470   40.1690 C   0  0  0  0  0  0  0  0  0  0  0  0
   39.0530   31.7130   40.8690 C   0  0  0  0  0  0  0  0  0  0  0  0
   39.5940   32.9410   41.0620 N   0  0  0  0  0  0  0  0  0  0  0  0
   39.0250   34.0670   40.6080 C   0  0  0  0  0  0  0  0  0  0  0  0
   37.8730   34.0170   39.9310 N   0  0  0  0  0  0  0  0  0  0  0  0
   36.3350   32.7490   39.1500 H   0  0  0  0  0  0  0  0  0  0  0  0
   37.4160   30.6630   40.0090 H   0  0  0  0  0  0  0  0  0  0  0  0
   39.5110   35.0170   40.7980 H   0  0  0  0  0  0  0  0  0  0  0  0
   39.1270   30.1620   42.7430 C   0  0  0  0  0  0  0  0  0  0  0  0
   38.4320   31.0100   43.0110 H   0  0  0  0  0  0  0  0  0  0  0  0
   39.8980   30.1380   43.5100 H   0  0  0  0  0  0  0  0  0  0  0  0
   38.2930   28.9540   42.7400 C   0  0  0  0  0  0  0  0  0  0  0  0
   37.4090   28.4750   43.6790 C   0  0  0  0  0  0  0  0  0  0  0  0
   37.2790   29.0560   44.5780 H   0  0  0  0  0  0  0  0  0  0  0  0
   36.7430   27.3150   43.4520 C   0  0  0  0  0  3  0  0  0  0  0  0
   37.0460   26.6660   42.1800 C   0  0  0  0  0  3  0  0  0  0  0  0
   38.2920   27.8220   41.4190 S   0  0  0  0  0  0  0  0  0  0  0  0
  1  3  1  0  0  0  0
  1 13  1  0  0  0  0
  2  1  1  0  0  0  0
  4  9  2  0  0  0  0
  4  5  1  0  0  0  0
  5  6  2  0  0  0  0
  6  7  1  0  0  0  0
  6  1  1  0  0  0  0
  8 12  1  0  0  0  0
  8  7  2  0  0  0  0
  9  8  1  0  0  0  0
 10  4  1  0  0  0  0
 11  5  1  0  0  0  0
 13 14  1  0  0  0  0
 13 15  1  0  0  0  0
 16 13  1  0  0  0  0
 16 17  2  0  0  0  0
 17 18  1  0  0  0  0
 19 17  1  0  0  0  0
 20 19  2  0  0  0  0
 21 20  1  0  0  0  0
 21 16  1  0  0  0  0
M  END
>  <minimizedAffinity>
-3.88591623

$$$$

 OpenBabel03252508573D

 21 22  0  0  0  0  0  0  0  0999 V2000
   35.4970   28.9840   40.7300 C   0  0  0  0  0  0  0  0  0  0  0  0
   34.5660   28.4720   40.9760 H   0  0  0  0  0  0  0  0  0  0  0  0
   35.3240   30.0630   40.8650 H   0  0  0  0  0  0  0  0  0  0  0  0
   37.9040   26.7600   42.5990 C   0  0  0  0  0  0  0  0  0  0  0  0
   36.8790   27.1930   41.7160 C   0  0  0  0  0  0  0  0  0  0  0  0
   36.5670   28.5430   41.6530 C   0  0  0  0  0  0  0  0  0  0  0  0
   37.2720   29.3820   42.4510 N   0  0  0  0  0  0  0  0  0  0  0  0
   38.2370   28.9590   43.2790 C   0  0  0  0  0  0  0  0  0  0  0  0
   38.5470   27.6610   43.3500 N   0  0  0  0  0  0  0  0  0  0  0  0
   38.1140   25.6970   42.6160 H   0  0  0  0  0  0  0  0  0  0  0  0
   36.3160   26.5110   41.0770 H   0  0  0  0  0  0  0  0  0  0  0  0
   38.7620   29.6850   43.8910 H   0  0  0  0  0  0  0  0  0  0  0  0
   35.9330   28.7110   39.3090 C   0  0  0  0  0  0  0  0  0  0  0  0
   34.9930   28.5400   38.7080 H   0  0  0  0  0  0  0  0  0  0  0  0
   36.5360   27.8130   39.2060 H   0  0  0  0  0  0  0  0  0  0  0  0
   36.5710   29.8940   38.7170 C   0  0  0  0  0  0  0  0  0  0  0  0
   36.7500   31.1600   39.2230 C   0  0  0  0  0  0  0  0  0  0  0  0
   36.3770   31.3550   40.2160 H   0  0  0  0  0  0  0  0  0  0  0  0
   37.3770   32.1040   38.4760 C   0  0  0  0  0  3  0  0  0  0  0  0
   37.8140   31.6600   37.1560 C   0  0  0  0  0  3  0  0  0  0  0  0
   37.2650   29.8810   37.1230 S   0  0  0  0  0  0  0  0  0  0  0  0
  1  3  1  0  0  0  0
  1  2  1  0  0  0  0
  1  6  1  0  0  0  0
  4 10  1  0  0  0  0
  4  9  1  0  0  0  0
  5  4  2  0  0  0  0
  6  5  1  0  0  0  0
  6  7  2  0  0  0  0
  7  8  1  0  0  0  0
  8  9  2  0  0  0  0
  8 12  1  0  0  0  0
 11  5  1  0  0  0  0
 13  1  1  0  0  0  0
 14 13  1  0  0  0  0
 15 13  1  0  0  0  0
 16 17  2  0  0  0  0
 16 13  1  0  0  0  0
 17 18  1  0  0  0  0
 19 17  1  0  0  0  0
 20 19  2  0  0  0  0
 21 20  1  0  0  0  0
 21 16  1  0  0  0  0
M  END
>  <minimizedAffinity>
-3.86135173

$$$$

 OpenBabel03252508573D

 21 22  0  0  0  0  0  0  0  0999 V2000
   36.6820   27.5650   42.9200 C   0  0  0  0  0  0  0  0  0  0  0  0
   37.2340   27.9140   43.7940 H   0  0  0  0  0  0  0  0  0  0  0  0
   35.6740   27.2830   43.2600 H   0  0  0  0  0  0  0  0  0  0  0  0
   35.5390   29.5880   39.9470 C   0  0  0  0  0  0  0  0  0  0  0  0
   35.6500   28.5420   40.9020 C   0  0  0  0  0  0  0  0  0  0  0  0
   36.5740   28.6600   41.9290 C   0  0  0  0  0  0  0  0  0  0  0  0
   37.3270   29.7860   41.9610 N   0  0  0  0  0  0  0  0  0  0  0  0
   37.2120   30.7660   41.0540 C   0  0  0  0  0  0  0  0  0  0  0  0
   36.3260   30.6640   40.0580 N   0  0  0  0  0  0  0  0  0  0  0  0
   34.8050   29.4530   39.1610 H   0  0  0  0  0  0  0  0  0  0  0  0
   35.0390   27.6390   40.8680 H   0  0  0  0  0  0  0  0  0  0  0  0
   37.8470   31.6410   41.1380 H   0  0  0  0  0  0  0  0  0  0  0  0
   37.3510   26.3790   42.2660 C   0  0  0  0  0  0  0  0  0  0  0  0
   37.4140   26.6080   41.1620 H   0  0  0  0  0  0  0  0  0  0  0  0
   36.7850   25.4550   42.3600 H   0  0  0  0  0  0  0  0  0  0  0  0
   38.7410   26.2410   42.7200 C   0  0  0  0  0  0  0  0  0  0  0  0
   39.5670   27.1400   43.3550 C   0  0  0  0  0  0  0  0  0  0  0  0
   39.1620   28.1150   43.5750 H   0  0  0  0  0  0  0  0  0  0  0  0
   40.8350   26.7810   43.6800 C   0  0  0  0  0  3  0  0  0  0  0  0
   41.2080   25.4200   43.3040 C   0  0  0  0  0  3  0  0  0  0  0  0
   39.6550   24.7780   42.5020 S   0  0  0  0  0  0  0  0  0  0  0  0
  1  3  1  0  0  0  0
  1  2  1  0  0  0  0
  4  9  2  0  0  0  0
  4  5  1  0  0  0  0
  5  6  2  0  0  0  0
  6  7  1  0  0  0  0
  6  1  1  0  0  0  0
  8 12  1  0  0  0  0
  8  7  2  0  0  0  0
  9  8  1  0  0  0  0
 10  4  1  0  0  0  0
 11  5  1  0  0  0  0
 13 15  1  0  0  0  0
 13 16  1  0  0  0  0
 13  1  1  0  0  0  0
 14 13  1  0  0  0  0
 16 17  2  0  0  0  0
 17 18  1  0  0  0  0
 17 19  1  0  0  0  0
 20 19  2  0  0  0  0
 21 16  1  0  0  0  0
 21 20  1  0  0  0  0
M  END
>  <minimizedAffinity>
-3.85825562

$$$$

 OpenBabel03252508573D

 21 22  0  0  0  0  0  0  0  0999 V2000
   35.9480   30.0390   40.7550 C   0  0  0  0  0  0  0  0  0  0  0  0
   35.5290   30.9100   41.2600 H   0  0  0  0  0  0  0  0  0  0  0  0
   36.5670   30.4090   39.9230 H   0  0  0  0  0  0  0  0  0  0  0  0
   37.2380   27.2540   42.9500 C   0  0  0  0  0  0  0  0  0  0  0  0
   36.4260   27.9910   42.0470 C   0  0  0  0  0  0  0  0  0  0  0  0
   36.8010   29.2790   41.6970 C   0  0  0  0  0  0  0  0  0  0  0  0
   37.9410   29.7650   42.2460 N   0  0  0  0  0  0  0  0  0  0  0  0
   38.6980   29.0590   43.0970 C   0  0  0  0  0  0  0  0  0  0  0  0
   38.3470   27.8160   43.4430 N   0  0  0  0  0  0  0  0  0  0  0  0
   36.9060   26.2520   43.1960 H   0  0  0  0  0  0  0  0  0  0  0  0
   35.5090   27.5920   41.6090 H   0  0  0  0  0  0  0  0  0  0  0  0
   39.5980   29.5090   43.5000 H   0  0  0  0  0  0  0  0  0  0  0  0
   34.8710   29.1240   40.2220 C   0  0  0  0  0  0  0  0  0  0  0  0
   33.8810   29.5970   40.4880 H   0  0  0  0  0  0  0  0  0  0  0  0
   34.8760   28.1370   40.6790 H   0  0  0  0  0  0  0  0  0  0  0  0
   34.9020   29.0700   38.7550 C   0  0  0  0  0  0  0  0  0  0  0  0
   33.9330   28.6980   37.8530 C   0  0  0  0  0  0  0  0  0  0  0  0
   32.9780   28.3910   38.2510 H   0  0  0  0  0  0  0  0  0  0  0  0
   34.1990   28.7280   36.5230 C   0  0  0  0  0  3  0  0  0  0  0  0
   35.5440   29.1700   36.1710 C   0  0  0  0  0  3  0  0  0  0  0  0
   36.3110   29.5070   37.8340 S   0  0  0  0  0  0  0  0  0  0  0  0
  1  2  1  0  0  0  0
  1  6  1  0  0  0  0
  3  1  1  0  0  0  0
  4 10  1  0  0  0  0
  4  9  1  0  0  0  0
  5  4  2  0  0  0  0
  6  5  1  0  0  0  0
  6  7  2  0  0  0  0
  7  8  1  0  0  0  0
  8  9  2  0  0  0  0
  8 12  1  0  0  0  0
 11  5  1  0  0  0  0
 13 14  1  0  0  0  0
 13 15  1  0  0  0  0
 13  1  1  0  0  0  0
 16 13  1  0  0  0  0
 17 18  1  0  0  0  0
 17 16  2  0  0  0  0
 19 17  1  0  0  0  0
 20 19  2  0  0  0  0
 20 21  1  0  0  0  0
 21 16  1  0  0  0  0
M  END
>  <minimizedAffinity>
-3.74852157

$$$$
