
 OpenBabel03252505113D

 41 44  0  0  1  0  0  0  0  0999 V2000
   44.5820   35.5920   44.6180 C   0  0  0  0  0  0  0  0  0  0  0  0
   45.2230   35.6110   43.3700 C   0  0  0  0  0  0  0  0  0  0  0  0
   46.3100   34.6960   43.1790 C   0  0  0  0  0  0  0  0  0  0  0  0
   46.6560   33.8720   44.2030 N   0  0  0  0  0  0  0  0  0  0  0  0
   46.0110   33.8910   45.3840 C   0  0  0  0  0  0  0  0  0  0  0  0
   44.9620   34.7600   45.5940 N   0  0  0  0  0  0  0  0  0  0  0  0
   43.7730   36.3070   44.6830 H   0  0  0  0  0  0  0  0  0  0  0  0
   44.9540   36.2520   42.5690 H   0  0  0  0  0  0  0  0  0  0  0  0
   46.4260   32.9730   46.4680 C   0  0  2  0  0  0  0  0  0  0  0  0
   46.9660   31.7480   45.7590 C   0  0  0  0  0  0  0  0  0  0  0  0
   46.0950   30.5620   45.7880 C   0  0  0  0  0  0  0  0  0  0  0  0
   45.8160   30.2930   47.2660 C   0  0  0  0  0  0  0  0  0  0  0  0
   45.0150   31.3640   47.8770 C   0  0  0  0  0  0  0  0  0  0  0  0
   45.3800   32.7280   47.4210 C   0  0  0  0  0  0  0  0  0  0  0  0
   47.2770   33.4940   46.9820 H   0  0  0  0  0  0  0  0  0  0  0  0
   47.9250   31.4740   46.2570 H   0  0  0  0  0  0  0  0  0  0  0  0
   47.2490   31.9430   44.7030 H   0  0  0  0  0  0  0  0  0  0  0  0
   46.6730   29.7040   45.4040 H   0  0  0  0  0  0  0  0  0  0  0  0
   45.1380   30.7170   45.2870 H   0  0  0  0  0  0  0  0  0  0  0  0
   45.1770   29.3990   47.2800 H   0  0  0  0  0  0  0  0  0  0  0  0
   46.7760   30.1000   47.7640 H   0  0  0  0  0  0  0  0  0  0  0  0
   44.2230   31.4080   48.5790 H   0  0  0  0  0  0  0  0  0  0  0  0
   44.6820   33.8740   47.9320 N   0  0  0  0  0  0  0  0  0  0  0  0
   43.6810   33.8140   47.5990 H   0  0  0  0  0  0  0  0  0  0  0  0
   45.1050   34.6160   48.5250 H   0  0  0  0  0  0  0  0  0  0  0  0
   46.9930   34.6780   41.8970 C   0  0  0  0  0  0  0  0  0  0  0  0
   48.1600   35.3710   41.7830 C   0  0  0  0  0  0  0  0  0  0  0  0
   48.7830   35.3210   40.5220 C   0  0  0  0  0  0  0  0  0  0  0  0
   48.1430   34.5760   39.5420 C   0  0  0  0  0  0  0  0  0  0  0  0
   46.9810   33.8870   39.6590 C   0  0  0  0  0  0  0  0  0  0  0  0
   46.4090   33.9620   40.8980 N   0  0  0  0  0  0  0  0  0  0  0  0
   48.5920   35.9260   42.6000 H   0  0  0  0  0  0  0  0  0  0  0  0
   49.7000   35.8580   40.4140 H   0  0  0  0  0  0  0  0  0  0  0  0
   48.7160   34.6150   38.6320 H   0  0  0  0  0  0  0  0  0  0  0  0
   46.4040   33.1680   38.6450 O   0  0  0  0  0  0  0  0  0  0  0  0
   47.1230   32.8350   37.5290 C   0  0  0  0  0  0  0  0  0  0  0  0
   47.8580   32.5250   36.4930 C   0  0  0  0  0  0  0  0  0  0  0  0
   48.8360   32.6490   36.9560 H   0  0  0  0  0  0  0  0  0  0  0  0
   47.4160   32.1790   35.2880 C   0  0  0  0  0  3  0  0  0  0  0  0
   46.0500   32.1450   35.1210 C   0  0  0  0  0  3  0  0  0  0  0  0
   45.4570   32.6620   36.8750 S   0  0  0  0  0  0  0  0  0  0  0  0
  1  7  1  0  0  0  0
  1  6  1  0  0  0  0
  2  1  2  0  0  0  0
  3  2  1  0  0  0  0
  3  4  2  0  0  0  0
  4  5  1  0  0  0  0
  5  6  2  0  0  0  0
  5  9  1  0  0  0  0
  8  2  1  0  0  0  0
  9 15  1  1  0  0  0
  9 14  1  0  0  0  0
 10 11  1  0  0  0  0
 10 16  1  0  0  0  0
 10  9  1  0  0  0  0
 11 12  1  0  0  0  0
 12 20  1  0  0  0  0
 12 21  1  0  0  0  0
 12 13  1  0  0  0  0
 13 22  1  0  0  0  0
 14 13  2  0  0  0  0
 14 23  1  0  0  0  0
 17 10  1  0  0  0  0
 18 11  1  0  0  0  0
 19 11  1  0  0  0  0
 23 25  1  0  0  0  0
 24 23  1  0  0  0  0
 26  3  1  0  0  0  0
 27 26  1  0  0  0  0
 27 32  1  0  0  0  0
 28 27  2  0  0  0  0
 29 30  2  0  0  0  0
 29 28  1  0  0  0  0
 30 31  1  0  0  0  0
 31 26  2  0  0  0  0
 33 28  1  0  0  0  0
 34 29  1  0  0  0  0
 35 30  1  0  0  0  0
 36 35  1  0  0  0  0
 37 38  1  0  0  0  0
 37 36  2  0  0  0  0
 39 37  1  0  0  0  0
 40 39  2  0  0  0  0
 40 41  1  0  0  0  0
 41 36  1  0  0  0  0
M  END
>  <minimizedAffinity>
-7.15157366

>  <minimizedRMSD>
1.01220381

$$$$
