
 OpenBabel03242515553D

 34 37  0  0  0  0  0  0  0  0999 V2000
   45.9440   32.7140   46.5970 C   0  0  0  0  0  0  0  0  0  0  0  0
   45.4300   32.8730   47.9110 C   0  0  0  0  0  0  0  0  0  0  0  0
   45.6930   32.0060   48.9450 C   0  0  0  0  0  0  0  0  0  0  0  0
   46.4800   30.9270   48.7450 C   0  0  0  0  0  0  0  0  0  0  0  0
   47.0150   30.7140   47.4730 C   0  0  0  0  0  0  0  0  0  0  0  0
   47.7980   29.6150   47.3290 C   0  0  0  0  0  0  0  0  0  0  0  0
   48.3560   29.3450   46.0930 C   0  0  0  0  0  0  0  0  0  0  0  0
   48.0630   30.2360   45.0660 C   0  0  0  0  0  0  0  0  0  0  0  0
   47.2740   31.3010   45.3020 C   0  0  0  0  0  0  0  0  0  0  0  0
   46.7240   31.6050   46.4680 C   0  0  0  0  0  0  0  0  0  0  0  0
   44.7950   33.7220   48.1220 H   0  0  0  0  0  0  0  0  0  0  0  0
   45.2620   32.2000   49.9120 H   0  0  0  0  0  0  0  0  0  0  0  0
   46.6820   30.2530   49.5600 H   0  0  0  0  0  0  0  0  0  0  0  0
   47.9810   28.9500   48.2040 H   0  0  0  0  0  0  0  0  0  0  0  0
   48.9730   28.4280   46.1060 H   0  0  0  0  0  0  0  0  0  0  0  0
   48.6040   29.7770   44.2570 H   0  0  0  0  0  0  0  0  0  0  0  0
   44.4430   35.6710   45.2080 C   0  0  0  0  0  0  0  0  0  0  0  0
   45.0840   35.7690   43.9320 C   0  0  0  0  0  0  0  0  0  0  0  0
   46.0400   34.7900   43.5310 C   0  0  0  0  0  0  0  0  0  0  0  0
   46.2880   33.8040   44.3980 N   0  0  0  0  0  0  0  0  0  0  0  0
   45.7130   33.6970   45.5650 C   0  0  0  0  0  0  0  0  0  0  0  0
   44.7920   34.6340   45.9640 N   0  0  0  0  0  0  0  0  0  0  0  0
   43.7270   36.4290   45.4790 H   0  0  0  0  0  0  0  0  0  0  0  0
   46.4460   34.9860   42.5620 H   0  0  0  0  0  0  0  0  0  0  0  0
   44.7130   36.8750   43.1260 N   0  0  0  0  0  0  0  0  0  0  0  0
   43.6810   37.1310   43.1330 H   0  0  0  0  0  0  0  0  0  0  0  0
   45.5360   37.2690   42.6430 H   0  0  0  0  0  0  0  0  0  0  0  0
   47.1510   31.9770   44.1270 O   0  0  0  0  0  0  0  0  0  0  0  0
   47.8950   31.6080   42.9320 C   0  0  0  0  0  0  0  0  0  0  0  0
   48.8860   32.4490   42.7690 C   0  0  0  0  0  0  0  0  0  0  0  0
   49.3510   33.3500   43.2110 H   0  0  0  0  0  0  0  0  0  0  0  0
   49.7380   32.3400   41.7230 C   0  0  0  0  0  0  0  0  0  0  0  0
   49.5250   31.3020   40.8230 C   0  0  0  0  0  0  0  0  0  0  0  0
   48.0110   30.5400   41.6400 S   0  0  0  0  0  0  0  0  0  0  0  0
  1  2  1  0  0  0  0
  2 11  1  0  0  0  0
  2  3  2  0  0  0  0
  3 12  1  0  0  0  0
  4  3  1  0  0  0  0
  4 13  1  0  0  0  0
  5  4  2  0  0  0  0
  6  5  1  0  0  0  0
  6 14  1  0  0  0  0
  7 15  1  0  0  0  0
  7  6  2  0  0  0  0
  8  9  2  0  0  0  0
  8  7  1  0  0  0  0
  9 10  1  0  0  0  0
 10  1  2  0  0  0  0
 10  5  1  0  0  0  0
 16  8  1  0  0  0  0
 17 23  1  0  0  0  0
 17 22  1  0  0  0  0
 18 17  2  0  0  0  0
 19 18  1  0  0  0  0
 19 20  2  0  0  0  0
 20 21  1  0  0  0  0
 21 22  2  0  0  0  0
 21  1  1  0  0  0  0
 24 19  1  0  0  0  0
 25 26  1  0  0  0  0
 25 18  1  0  0  0  0
 27 25  1  0  0  0  0
 28  9  1  0  0  0  0
 29 28  1  0  0  0  0
 30 29  2  0  0  0  0
 30 31  1  0  0  0  0
 32 30  1  0  0  0  0
 33 34  1  0  0  0  0
 33 32  2  0  0  0  0
 34 29  1  0  0  0  0
M  END
>  <minimizedAffinity>
-5.85826778

>  <minimizedRMSD>
0.44184193

$$$$
