
 OpenBabel03242518253D

 42 46  0  0  1  0  0  0  0  0999 V2000
   44.2120   34.7010   42.6210 C   0  0  0  0  0  0  0  0  0  0  0  0
   43.3960   33.9750   41.7590 C   0  0  0  0  0  0  0  0  0  0  0  0
   43.4260   32.5860   41.8600 C   0  0  0  0  0  0  0  0  0  0  0  0
   44.2320   31.9790   42.7750 N   0  0  0  0  0  0  0  0  0  0  0  0
   45.0110   32.7310   43.5950 C   0  0  0  0  0  0  0  0  0  0  0  0
   45.0080   34.0850   43.5260 N   0  0  0  0  0  0  0  0  0  0  0  0
   44.2380   35.7770   42.5970 H   0  0  0  0  0  0  0  0  0  0  0  0
   42.7880   32.0320   41.1860 H   0  0  0  0  0  0  0  0  0  0  0  0
   42.6040   34.7110   40.8530 N   0  0  0  0  0  0  0  0  0  0  0  0
   42.8050   34.4820   39.4500 C   0  0  0  0  0  0  0  0  0  0  0  0
   42.0130   35.3830   38.5700 C   0  0  0  0  0  0  0  0  0  0  0  0
   40.6450   35.4630   38.9550 N   0  0  0  0  0  0  0  0  0  0  0  0
   40.3540   35.4610   40.3310 C   0  0  0  0  0  0  0  0  0  0  0  0
   41.6010   35.6850   41.1640 C   0  0  0  0  0  0  0  0  0  0  0  0
   42.5120   33.4260   39.2380 H   0  0  0  0  0  0  0  0  0  0  0  0
   43.8870   34.6110   39.1900 H   0  0  0  0  0  0  0  0  0  0  0  0
   42.0750   35.0140   37.5300 H   0  0  0  0  0  0  0  0  0  0  0  0
   42.4350   36.4130   38.6210 H   0  0  0  0  0  0  0  0  0  0  0  0
   40.2420   36.3160   38.4670 H   0  0  0  0  0  0  0  0  0  0  0  0
   39.6540   36.3050   40.5830 H   0  0  0  0  0  0  0  0  0  0  0  0
   39.8060   34.5420   40.6250 H   0  0  0  0  0  0  0  0  0  0  0  0
   41.9930   36.6770   40.8950 H   0  0  0  0  0  0  0  0  0  0  0  0
   41.3200   35.6810   42.2440 H   0  0  0  0  0  0  0  0  0  0  0  0
   46.2140   30.7440   44.3980 C   0  0  0  0  0  0  0  0  0  0  0  0
   45.8700   32.0530   44.5730 C   0  0  0  0  0  0  0  0  0  0  0  0
   46.3510   32.7120   45.6880 C   0  0  0  0  0  0  0  0  0  0  0  0
   47.1590   32.0490   46.5920 C   0  0  0  0  0  0  0  0  0  0  0  0
   47.5000   30.7210   46.4040 C   0  0  0  0  0  0  0  0  0  0  0  0
   47.0230   30.0480   45.2880 C   0  0  0  0  0  0  0  0  0  0  0  0
   48.3120   30.3360   47.4660 O   0  0  0  0  0  0  0  0  0  0  0  0
   48.1420   31.3060   48.5060 C   0  0  2  0  0  0  0  0  0  0  0  0
   47.7690   32.4740   47.7820 O   0  0  0  0  0  0  0  0  0  0  0  0
   45.8440   30.2220   43.5340 H   0  0  0  0  0  0  0  0  0  0  0  0
   46.0880   33.7650   45.8490 H   0  0  0  0  0  0  0  0  0  0  0  0
   47.2800   29.0230   45.1320 H   0  0  0  0  0  0  0  0  0  0  0  0
   47.2320   30.9910   49.0600 H   0  0  0  0  0  0  0  0  0  0  0  0
   49.2520   31.4530   49.3670 C   0  0  0  0  0  0  0  0  0  0  0  0
   50.1500   32.4030   49.7490 C   0  0  0  0  0  0  0  0  0  0  0  0
   49.9540   33.3300   49.2410 H   0  0  0  0  0  0  0  0  0  0  0  0
   51.1470   32.1790   50.6530 C   0  0  0  0  0  0  0  0  0  0  0  0
   51.1320   30.7190   51.1880 C   0  0  0  0  0  0  0  0  0  0  0  0
   49.6600   29.9950   50.2490 S   0  0  0  0  0  0  0  0  0  0  0  0
  1  6  1  0  0  0  0
  2  3  1  0  0  0  0
  2  1  2  0  0  0  0
  3  4  2  0  0  0  0
  4  5  1  0  0  0  0
  5 25  1  0  0  0  0
  6  5  2  0  0  0  0
  7  1  1  0  0  0  0
  8  3  1  0  0  0  0
  9 14  1  0  0  0  0
  9  2  1  0  0  0  0
 10  9  1  0  0  0  0
 11 18  1  0  0  0  0
 11 12  1  0  0  0  0
 11 10  1  0  0  0  0
 12 13  1  0  0  0  0
 13 20  1  0  0  0  0
 13 21  1  0  0  0  0
 13 14  1  0  0  0  0
 14 23  1  0  0  0  0
 15 10  1  0  0  0  0
 16 10  1  0  0  0  0
 17 11  1  0  0  0  0
 19 12  1  0  0  0  0
 22 14  1  0  0  0  0
 24 25  2  0  0  0  0
 24 29  1  0  0  0  0
 25 26  1  0  0  0  0
 26 34  1  0  0  0  0
 26 27  2  0  0  0  0
 27 32  1  0  0  0  0
 28 27  1  0  0  0  0
 28 30  1  0  0  0  0
 29 28  2  0  0  0  0
 30 31  1  0  0  0  0
 31 36  1  1  0  0  0
 31 37  1  0  0  0  0
 32 31  1  0  0  0  0
 33 24  1  0  0  0  0
 35 29  1  0  0  0  0
 37 38  2  0  0  0  0
 37 42  1  0  0  0  0
 38 40  1  0  0  0  0
 39 38  1  0  0  0  0
 40 41  2  0  0  0  0
 42 41  1  0  0  0  0
M  END
>  <minimizedAffinity>
-5.88824177

>  <minimizedRMSD>
0.402713925

$$$$
