
 OpenBabel03252509163D

 22 24  0  0  0  0  0  0  0  0999 V2000
   45.9870   33.0230   46.0660 C   0  0  0  0  0  0  0  0  0  0  0  0
   45.5810   32.8440   47.4120 C   0  0  0  0  0  0  0  0  0  0  0  0
   46.2290   31.9470   48.1830 C   0  0  0  0  0  0  0  0  0  0  0  0
   47.2990   31.2120   47.6200 C   0  0  0  0  0  0  0  0  0  0  0  0
   47.3580   31.8490   45.9140 S   0  0  0  0  0  0  0  0  0  0  0  0
   44.7530   33.4320   47.8040 H   0  0  0  0  0  0  0  0  0  0  0  0
   46.0040   31.7360   49.2030 H   0  0  0  0  0  0  0  0  0  0  0  0
   44.3100   35.9070   44.4430 C   0  0  0  0  0  0  0  0  0  0  0  0
   44.2650   35.4370   43.1050 C   0  0  0  0  0  0  0  0  0  0  0  0
   44.8080   34.1660   42.8310 C   0  0  0  0  0  0  0  0  0  0  0  0
   45.3480   33.4600   43.8750 N   0  0  0  0  0  0  0  0  0  0  0  0
   45.3630   33.9610   45.1340 C   0  0  0  0  0  0  0  0  0  0  0  0
   44.8450   35.1830   45.4190 N   0  0  0  0  0  0  0  0  0  0  0  0
   43.8930   36.8810   44.6480 H   0  0  0  0  0  0  0  0  0  0  0  0
   43.8340   36.0080   42.2880 H   0  0  0  0  0  0  0  0  0  0  0  0
   44.8160   33.7310   41.8410 H   0  0  0  0  0  0  0  0  0  0  0  0
   48.1350   30.2590   48.1080 C   0  0  0  0  0  0  0  0  0  0  0  0
   48.4160   29.0000   47.7240 C   0  0  0  0  0  0  0  0  0  0  0  0
   47.9080   28.6000   46.8570 H   0  0  0  0  0  0  0  0  0  0  0  0
   49.3110   28.2090   48.3800 C   0  0  0  0  0  3  0  0  0  0  0  0
   49.9740   28.8300   49.5710 C   0  0  0  0  0  3  0  0  0  0  0  0
   49.2040   30.5370   49.6070 S   0  0  0  0  0  0  0  0  0  0  0  0
  1  2  2  0  0  0  0
  2  6  1  0  0  0  0
  2  3  1  0  0  0  0
  3  7  1  0  0  0  0
  4 17  1  0  0  0  0
  4  3  2  0  0  0  0
  5  1  1  0  0  0  0
  5  4  1  0  0  0  0
  8 14  1  0  0  0  0
  8 13  1  0  0  0  0
  9  8  2  0  0  0  0
 10  9  1  0  0  0  0
 10 11  2  0  0  0  0
 11 12  1  0  0  0  0
 12 13  2  0  0  0  0
 12  1  1  0  0  0  0
 15  9  1  0  0  0  0
 16 10  1  0  0  0  0
 17 22  1  0  0  0  0
 18 17  2  0  0  0  0
 18 20  1  0  0  0  0
 19 18  1  0  0  0  0
 20 21  2  0  0  0  0
 21 22  1  0  0  0  0
M  END
>  <minimizedAffinity>
-4.21643114

>  <minimizedRMSD>
1.25462079

$$$$
