
 OpenBabel03242513503D

 28 30  0  0  1  0  0  0  0  0999 V2000
   37.3150   29.6890   41.9460 C   0  0  2  0  0  0  0  0  0  0  0  0
   38.1750   29.2860   43.0930 C   0  0  0  0  0  0  0  0  0  0  0  0
   37.3450   28.1510   43.6800 C   0  0  0  0  0  0  0  0  0  0  0  0
   36.6200   27.5440   42.5190 C   0  0  0  0  0  0  0  0  0  0  0  0
   37.0540   28.3270   41.2880 C   0  0  1  0  0  0  0  0  0  0  0  0
   36.3510   30.0720   42.3170 H   0  0  0  0  0  0  0  0  0  0  0  0
   39.1820   28.9660   42.8160 H   0  0  0  0  0  0  0  0  0  0  0  0
   38.2350   30.0640   43.8950 H   0  0  0  0  0  0  0  0  0  0  0  0
   36.6840   28.4900   44.4920 H   0  0  0  0  0  0  0  0  0  0  0  0
   38.0900   27.4000   44.0550 H   0  0  0  0  0  0  0  0  0  0  0  0
   35.5260   27.6930   42.6500 H   0  0  0  0  0  0  0  0  0  0  0  0
   36.8480   26.4570   42.4140 H   0  0  0  0  0  0  0  0  0  0  0  0
   37.9680   27.9460   40.8450 H   0  0  0  0  0  0  0  0  0  0  0  0
   39.6350   31.3470   39.4800 C   0  0  0  0  0  0  0  0  0  0  0  0
   39.1630   30.3790   40.3610 C   0  0  0  0  0  0  0  0  0  0  0  0
   37.9380   30.6260   40.9970 C   0  0  0  0  0  0  0  0  0  0  0  0
   37.2940   31.7930   40.7150 N   0  0  0  0  0  0  0  0  0  0  0  0
   37.7780   32.7150   39.8540 C   0  0  0  0  0  0  0  0  0  0  0  0
   38.9460   32.4970   39.2350 N   0  0  0  0  0  0  0  0  0  0  0  0
   40.5900   31.1240   39.0020 H   0  0  0  0  0  0  0  0  0  0  0  0
   39.6740   29.4650   40.5780 H   0  0  0  0  0  0  0  0  0  0  0  0
   37.1710   33.5910   39.7200 H   0  0  0  0  0  0  0  0  0  0  0  0
   35.9570   28.5310   40.3280 C   0  0  0  0  0  0  0  0  0  0  0  0
   34.7880   29.1810   40.0800 C   0  0  0  0  0  0  0  0  0  0  0  0
   34.5140   29.8210   40.8980 H   0  0  0  0  0  0  0  0  0  0  0  0
   34.1400   28.9590   38.8980 C   0  0  0  0  0  3  0  0  0  0  0  0
   34.6300   28.0990   37.9500 C   0  0  0  0  0  3  0  0  0  0  0  0
   36.2410   27.4780   38.7850 S   0  0  0  0  0  0  0  0  0  0  0  0
  1  6  1  1  0  0  0
  1  2  1  0  0  0  0
  2  3  1  0  0  0  0
  2  8  1  0  0  0  0
  3 10  1  0  0  0  0
  3  9  1  0  0  0  0
  4 11  1  0  0  0  0
  4  3  1  0  0  0  0
  5 13  1  6  0  0  0
  5  1  1  0  0  0  0
  5  4  1  0  0  0  0
  7  2  1  0  0  0  0
 12  4  1  0  0  0  0
 14 15  1  0  0  0  0
 15 21  1  0  0  0  0
 15 16  2  0  0  0  0
 16  1  1  0  0  0  0
 17 16  1  0  0  0  0
 18 17  2  0  0  0  0
 19 14  2  0  0  0  0
 19 18  1  0  0  0  0
 20 14  1  0  0  0  0
 22 18  1  0  0  0  0
 23  5  1  0  0  0  0
 24 23  2  0  0  0  0
 24 25  1  0  0  0  0
 26 24  1  0  0  0  0
 27 28  1  0  0  0  0
 27 26  2  0  0  0  0
 28 23  1  0  0  0  0
M  END
>  <minimizedAffinity>
-4.76799774

$$$$

 OpenBabel03242513503D

 28 30  0  0  1  0  0  0  0  0999 V2000
   37.6100   28.8520   41.3800 C   0  0  2  0  0  0  0  0  0  0  0  0
   36.3040   28.1880   41.6430 C   0  0  0  0  0  0  0  0  0  0  0  0
   36.6210   27.4510   42.9380 C   0  0  0  0  0  0  0  0  0  0  0  0
   37.6430   28.2910   43.6380 C   0  0  0  0  0  0  0  0  0  0  0  0
   37.8860   29.4990   42.7440 C   0  0  1  0  0  0  0  0  0  0  0  0
   38.3890   28.0910   41.2070 H   0  0  0  0  0  0  0  0  0  0  0  0
   35.4600   28.8730   41.7490 H   0  0  0  0  0  0  0  0  0  0  0  0
   36.0530   27.3950   40.8950 H   0  0  0  0  0  0  0  0  0  0  0  0
   36.9390   26.4120   42.7630 H   0  0  0  0  0  0  0  0  0  0  0  0
   35.6740   27.4840   43.5400 H   0  0  0  0  0  0  0  0  0  0  0  0
   38.5970   27.7240   43.7110 H   0  0  0  0  0  0  0  0  0  0  0  0
   37.3000   28.5970   44.6540 H   0  0  0  0  0  0  0  0  0  0  0  0
   37.1820   30.3050   42.9230 H   0  0  0  0  0  0  0  0  0  0  0  0
   36.9130   31.9080   39.2850 C   0  0  0  0  0  0  0  0  0  0  0  0
   36.8300   31.0340   40.3650 C   0  0  0  0  0  0  0  0  0  0  0  0
   37.5930   29.8600   40.3080 C   0  0  0  0  0  0  0  0  0  0  0  0
   38.3610   29.6500   39.2030 N   0  0  0  0  0  0  0  0  0  0  0  0
   38.4220   30.5160   38.1670 C   0  0  0  0  0  0  0  0  0  0  0  0
   37.7000   31.6450   38.2030 N   0  0  0  0  0  0  0  0  0  0  0  0
   36.3060   32.8110   39.3600 H   0  0  0  0  0  0  0  0  0  0  0  0
   36.2250   31.2060   41.2300 H   0  0  0  0  0  0  0  0  0  0  0  0
   39.0670   30.2300   37.3580 H   0  0  0  0  0  0  0  0  0  0  0  0
   39.2960   29.9210   42.7290 C   0  0  0  0  0  0  0  0  0  0  0  0
   40.1510   30.9780   42.7160 C   0  0  0  0  0  0  0  0  0  0  0  0
   39.6210   31.9130   42.7160 H   0  0  0  0  0  0  0  0  0  0  0  0
   41.4980   30.7460   42.7050 C   0  0  0  0  0  3  0  0  0  0  0  0
   42.0170   29.4790   42.7060 C   0  0  0  0  0  3  0  0  0  0  0  0
   40.4270   28.4070   42.7260 S   0  0  0  0  0  0  0  0  0  0  0  0
  1  6  1  6  0  0  0
  1  2  1  0  0  0  0
  1  5  1  0  0  0  0
  2  7  1  0  0  0  0
  2  3  1  0  0  0  0
  3 10  1  0  0  0  0
  3  4  1  0  0  0  0
  4 11  1  0  0  0  0
  4 12  1  0  0  0  0
  5 13  1  1  0  0  0
  5  4  1  0  0  0  0
  8  2  1  0  0  0  0
  9  3  1  0  0  0  0
 14 20  1  0  0  0  0
 14 15  1  0  0  0  0
 15 21  1  0  0  0  0
 16 15  2  0  0  0  0
 16  1  1  0  0  0  0
 17 16  1  0  0  0  0
 18 19  1  0  0  0  0
 18 17  2  0  0  0  0
 19 14  2  0  0  0  0
 22 18  1  0  0  0  0
 23  5  1  0  0  0  0
 24 25  1  0  0  0  0
 24 23  2  0  0  0  0
 26 27  2  0  0  0  0
 26 24  1  0  0  0  0
 27 28  1  0  0  0  0
 28 23  1  0  0  0  0
M  END
>  <minimizedAffinity>
-4.63591862

$$$$

 OpenBabel03242513503D

 28 30  0  0  1  0  0  0  0  0999 V2000
   38.2740   26.2860   41.6950 C   0  0  2  0  0  0  0  0  0  0  0  0
   39.0460   25.4600   42.6630 C   0  0  0  0  0  0  0  0  0  0  0  0
   39.4490   26.5220   43.6780 C   0  0  0  0  0  0  0  0  0  0  0  0
   38.3480   27.5360   43.6560 C   0  0  0  0  0  0  0  0  0  0  0  0
   37.3280   27.0350   42.6430 C   0  0  1  0  0  0  0  0  0  0  0  0
   38.9370   27.0310   41.2260 H   0  0  0  0  0  0  0  0  0  0  0  0
   38.4800   24.6440   43.1170 H   0  0  0  0  0  0  0  0  0  0  0  0
   40.0040   25.0640   42.2410 H   0  0  0  0  0  0  0  0  0  0  0  0
   40.4470   26.9410   43.4750 H   0  0  0  0  0  0  0  0  0  0  0  0
   39.4260   26.0070   44.6750 H   0  0  0  0  0  0  0  0  0  0  0  0
   38.7480   28.5050   43.2860 H   0  0  0  0  0  0  0  0  0  0  0  0
   37.8910   27.6700   44.6650 H   0  0  0  0  0  0  0  0  0  0  0  0
   36.6090   26.3450   43.0730 H   0  0  0  0  0  0  0  0  0  0  0  0
   35.9560   23.8750   39.9550 C   0  0  0  0  0  0  0  0  0  0  0  0
   36.6070   24.5110   41.0070 C   0  0  0  0  0  0  0  0  0  0  0  0
   37.5200   25.5240   40.6860 C   0  0  0  0  0  0  0  0  0  0  0  0
   37.7120   25.8190   39.3690 N   0  0  0  0  0  0  0  0  0  0  0  0
   37.0650   25.1840   38.3670 C   0  0  0  0  0  0  0  0  0  0  0  0
   36.1870   24.2130   38.6540 N   0  0  0  0  0  0  0  0  0  0  0  0
   35.2530   23.0910   40.2390 H   0  0  0  0  0  0  0  0  0  0  0  0
   36.4520   24.2750   42.0390 H   0  0  0  0  0  0  0  0  0  0  0  0
   37.3070   25.5130   37.3740 H   0  0  0  0  0  0  0  0  0  0  0  0
   36.7240   28.1240   41.8580 C   0  0  0  0  0  0  0  0  0  0  0  0
   35.7080   28.4780   41.0260 C   0  0  0  0  0  0  0  0  0  0  0  0
   35.0490   27.6510   40.8360 H   0  0  0  0  0  0  0  0  0  0  0  0
   35.6470   29.7610   40.5590 C   0  0  0  0  0  3  0  0  0  0  0  0
   36.5780   30.7050   40.9000 C   0  0  0  0  0  3  0  0  0  0  0  0
   37.7420   29.7040   42.0500 S   0  0  0  0  0  0  0  0  0  0  0  0
  1  6  1  6  0  0  0
  1  5  1  0  0  0  0
  1  2  1  0  0  0  0
  2  7  1  0  0  0  0
  2  3  1  0  0  0  0
  3 10  1  0  0  0  0
  4  3  1  0  0  0  0
  4 12  1  0  0  0  0
  5 13  1  1  0  0  0
  5  4  1  0  0  0  0
  8  2  1  0  0  0  0
  9  3  1  0  0  0  0
 11  4  1  0  0  0  0
 14 20  1  0  0  0  0
 14 15  1  0  0  0  0
 15 21  1  0  0  0  0
 16 15  2  0  0  0  0
 16  1  1  0  0  0  0
 17 16  1  0  0  0  0
 18 19  1  0  0  0  0
 18 17  2  0  0  0  0
 19 14  2  0  0  0  0
 22 18  1  0  0  0  0
 23 28  1  0  0  0  0
 23  5  1  0  0  0  0
 24 23  2  0  0  0  0
 25 24  1  0  0  0  0
 26 27  2  0  0  0  0
 26 24  1  0  0  0  0
 27 28  1  0  0  0  0
M  END
>  <minimizedAffinity>
-4.63529015

$$$$

 OpenBabel03242513503D

 28 30  0  0  1  0  0  0  0  0999 V2000
   38.2920   30.3660   40.9380 C   0  0  2  0  0  0  0  0  0  0  0  0
   39.1240   31.4520   41.5260 C   0  0  0  0  0  0  0  0  0  0  0  0
   38.7210   32.6240   40.6410 C   0  0  0  0  0  0  0  0  0  0  0  0
   37.3050   32.3540   40.2370 C   0  0  0  0  0  0  0  0  0  0  0  0
   36.9150   31.0430   40.9050 C   0  0  1  0  0  0  0  0  0  0  0  0
   38.5990   30.1820   39.8950 H   0  0  0  0  0  0  0  0  0  0  0  0
   38.9360   31.6440   42.5850 H   0  0  0  0  0  0  0  0  0  0  0  0
   40.2210   31.3070   41.3590 H   0  0  0  0  0  0  0  0  0  0  0  0
   39.4090   32.7660   39.7930 H   0  0  0  0  0  0  0  0  0  0  0  0
   38.7240   33.5220   41.3150 H   0  0  0  0  0  0  0  0  0  0  0  0
   37.2600   32.2030   39.1370 H   0  0  0  0  0  0  0  0  0  0  0  0
   36.6250   33.1850   40.5380 H   0  0  0  0  0  0  0  0  0  0  0  0
   36.5420   31.1780   41.9150 H   0  0  0  0  0  0  0  0  0  0  0  0
   37.8710   27.8130   43.6790 C   0  0  0  0  0  0  0  0  0  0  0  0
   37.8730   29.0620   43.0650 C   0  0  0  0  0  0  0  0  0  0  0  0
   38.2510   29.1180   41.7160 C   0  0  0  0  0  0  0  0  0  0  0  0
   38.5920   27.9530   41.0980 N   0  0  0  0  0  0  0  0  0  0  0  0
   38.5810   26.7540   41.7210 C   0  0  0  0  0  0  0  0  0  0  0  0
   38.2220   26.6790   43.0100 N   0  0  0  0  0  0  0  0  0  0  0  0
   37.5730   27.8040   44.7290 H   0  0  0  0  0  0  0  0  0  0  0  0
   37.6040   29.9720   43.5560 H   0  0  0  0  0  0  0  0  0  0  0  0
   38.8710   25.9130   41.1190 H   0  0  0  0  0  0  0  0  0  0  0  0
   36.0570   30.2040   40.0520 C   0  0  0  0  0  0  0  0  0  0  0  0
   34.9840   29.3680   40.0150 C   0  0  0  0  0  0  0  0  0  0  0  0
   34.5550   29.2370   40.9910 H   0  0  0  0  0  0  0  0  0  0  0  0
   34.6020   28.8270   38.8200 C   0  0  0  0  0  3  0  0  0  0  0  0
   35.2650   29.0990   37.6540 C   0  0  0  0  0  3  0  0  0  0  0  0
   36.6430   30.2880   38.2580 S   0  0  0  0  0  0  0  0  0  0  0  0
  1  6  1  6  0  0  0
  1  2  1  0  0  0  0
  1 16  1  0  0  0  0
  2  7  1  0  0  0  0
  3 10  1  0  0  0  0
  3  2  1  0  0  0  0
  4 12  1  0  0  0  0
  4  3  1  0  0  0  0
  4  5  1  0  0  0  0
  5  1  1  0  0  0  0
  5 13  1  1  0  0  0
  8  2  1  0  0  0  0
  9  3  1  0  0  0  0
 11  4  1  0  0  0  0
 14 20  1  0  0  0  0
 15 21  1  0  0  0  0
 15 14  1  0  0  0  0
 16 15  2  0  0  0  0
 17 16  1  0  0  0  0
 17 18  2  0  0  0  0
 18 19  1  0  0  0  0
 19 14  2  0  0  0  0
 22 18  1  0  0  0  0
 23  5  1  0  0  0  0
 24 23  2  0  0  0  0
 24 25  1  0  0  0  0
 26 24  1  0  0  0  0
 27 28  1  0  0  0  0
 27 26  2  0  0  0  0
 28 23  1  0  0  0  0
M  END
>  <minimizedAffinity>
-4.6248455

$$$$

 OpenBabel03242513503D

 28 30  0  0  1  0  0  0  0  0999 V2000
   38.2170   29.0720   42.8060 C   0  0  2  0  0  0  0  0  0  0  0  0
   38.0720   27.8030   43.5710 C   0  0  0  0  0  0  0  0  0  0  0  0
   36.6040   27.4870   43.3120 C   0  0  0  0  0  0  0  0  0  0  0  0
   36.3050   28.0530   41.9580 C   0  0  0  0  0  0  0  0  0  0  0  0
   37.6030   28.6700   41.4580 C   0  0  1  0  0  0  0  0  0  0  0  0
   37.5740   29.8510   43.2480 H   0  0  0  0  0  0  0  0  0  0  0  0
   38.7350   26.9980   43.2450 H   0  0  0  0  0  0  0  0  0  0  0  0
   38.1630   27.9410   44.6770 H   0  0  0  0  0  0  0  0  0  0  0  0
   35.9460   27.8640   44.1100 H   0  0  0  0  0  0  0  0  0  0  0  0
   36.5470   26.3680   43.2400 H   0  0  0  0  0  0  0  0  0  0  0  0
   35.5560   28.8690   42.0590 H   0  0  0  0  0  0  0  0  0  0  0  0
   35.9270   27.2710   41.2590 H   0  0  0  0  0  0  0  0  0  0  0  0
   38.2450   27.9540   40.9550 H   0  0  0  0  0  0  0  0  0  0  0  0
   41.3300   31.1930   42.6360 C   0  0  0  0  0  0  0  0  0  0  0  0
   39.9860   30.8810   42.8190 C   0  0  0  0  0  0  0  0  0  0  0  0
   39.6010   29.5460   42.6390 C   0  0  0  0  0  0  0  0  0  0  0  0
   40.5620   28.6430   42.2960 N   0  0  0  0  0  0  0  0  0  0  0  0
   41.8610   28.9750   42.1250 C   0  0  0  0  0  0  0  0  0  0  0  0
   42.2490   30.2460   42.2930 N   0  0  0  0  0  0  0  0  0  0  0  0
   41.5960   32.2400   42.7830 H   0  0  0  0  0  0  0  0  0  0  0  0
   39.2360   31.5950   43.0890 H   0  0  0  0  0  0  0  0  0  0  0  0
   42.5160   28.1670   41.8560 H   0  0  0  0  0  0  0  0  0  0  0  0
   37.3880   29.9190   40.7080 C   0  0  0  0  0  0  0  0  0  0  0  0
   36.7930   31.1420   40.7120 C   0  0  0  0  0  0  0  0  0  0  0  0
   36.2410   31.3070   41.6180 H   0  0  0  0  0  0  0  0  0  0  0  0
   36.9560   31.9640   39.6330 C   0  0  0  0  0  3  0  0  0  0  0  0
   37.7000   31.5970   38.5440 C   0  0  0  0  0  3  0  0  0  0  0  0
   38.2880   29.8430   39.0490 S   0  0  0  0  0  0  0  0  0  0  0  0
  1  6  1  1  0  0  0
  1  2  1  0  0  0  0
  2  8  1  0  0  0  0
  3  2  1  0  0  0  0
  3  9  1  0  0  0  0
  4 11  1  0  0  0  0
  4  3  1  0  0  0  0
  5 13  1  6  0  0  0
  5  4  1  0  0  0  0
  5  1  1  0  0  0  0
  7  2  1  0  0  0  0
 10  3  1  0  0  0  0
 12  4  1  0  0  0  0
 14 20  1  0  0  0  0
 14 15  1  0  0  0  0
 15 21  1  0  0  0  0
 16  1  1  0  0  0  0
 16 15  2  0  0  0  0
 17 16  1  0  0  0  0
 18 19  1  0  0  0  0
 18 17  2  0  0  0  0
 19 14  2  0  0  0  0
 22 18  1  0  0  0  0
 23 24  2  0  0  0  0
 23  5  1  0  0  0  0
 24 25  1  0  0  0  0
 26 24  1  0  0  0  0
 27 28  1  0  0  0  0
 27 26  2  0  0  0  0
 28 23  1  0  0  0  0
M  END
>  <minimizedAffinity>
-4.55531454

$$$$

 OpenBabel03242513503D

 28 30  0  0  1  0  0  0  0  0999 V2000
   37.2700   29.8670   39.8010 C   0  0  2  0  0  0  0  0  0  0  0  0
   36.3330   30.3740   38.7610 C   0  0  0  0  0  0  0  0  0  0  0  0
   35.2300   29.3260   38.8430 C   0  0  0  0  0  0  0  0  0  0  0  0
   35.2230   28.8630   40.2670 C   0  0  0  0  0  0  0  0  0  0  0  0
   36.3080   29.6580   40.9790 C   0  0  1  0  0  0  0  0  0  0  0  0
   37.6580   28.8780   39.5060 H   0  0  0  0  0  0  0  0  0  0  0  0
   35.9620   31.3850   38.9380 H   0  0  0  0  0  0  0  0  0  0  0  0
   36.7450   30.3010   37.7230 H   0  0  0  0  0  0  0  0  0  0  0  0
   35.3630   28.5170   38.1100 H   0  0  0  0  0  0  0  0  0  0  0  0
   34.2740   29.8850   38.6550 H   0  0  0  0  0  0  0  0  0  0  0  0
   35.5060   27.7890   40.3050 H   0  0  0  0  0  0  0  0  0  0  0  0
   34.2260   29.0130   40.7440 H   0  0  0  0  0  0  0  0  0  0  0  0
   35.9570   30.6160   41.3480 H   0  0  0  0  0  0  0  0  0  0  0  0
   40.6460   31.4140   40.4480 C   0  0  0  0  0  0  0  0  0  0  0  0
   39.7170   30.4450   40.0820 C   0  0  0  0  0  0  0  0  0  0  0  0
   38.3600   30.7870   40.1630 C   0  0  0  0  0  0  0  0  0  0  0  0
   38.0400   32.0390   40.5950 N   0  0  0  0  0  0  0  0  0  0  0  0
   38.9650   32.9600   40.9440 C   0  0  0  0  0  0  0  0  0  0  0  0
   40.2680   32.6530   40.8730 N   0  0  0  0  0  0  0  0  0  0  0  0
   41.6930   31.1160   40.3740 H   0  0  0  0  0  0  0  0  0  0  0  0
   39.9750   29.4640   39.7440 H   0  0  0  0  0  0  0  0  0  0  0  0
   38.5790   33.9090   41.2670 H   0  0  0  0  0  0  0  0  0  0  0  0
   37.0370   28.8570   41.9770 C   0  0  0  0  0  0  0  0  0  0  0  0
   37.5590   28.8330   43.2330 C   0  0  0  0  0  0  0  0  0  0  0  0
   37.3940   29.7640   43.7440 H   0  0  0  0  0  0  0  0  0  0  0  0
   38.1900   27.7030   43.6700 C   0  0  0  0  0  3  0  0  0  0  0  0
   38.3170   26.5900   42.8830 C   0  0  0  0  0  3  0  0  0  0  0  0
   37.4360   27.1500   41.2730 S   0  0  0  0  0  0  0  0  0  0  0  0
  1  6  1  6  0  0  0
  1 16  1  0  0  0  0
  1  5  1  0  0  0  0
  2  3  1  0  0  0  0
  2  7  1  0  0  0  0
  2  1  1  0  0  0  0
  3  4  1  0  0  0  0
  4 11  1  0  0  0  0
  4 12  1  0  0  0  0
  4  5  1  0  0  0  0
  5 13  1  1  0  0  0
  5 23  1  0  0  0  0
  8  2  1  0  0  0  0
  9  3  1  0  0  0  0
 10  3  1  0  0  0  0
 14 19  1  0  0  0  0
 15 16  1  0  0  0  0
 15 14  2  0  0  0  0
 16 17  2  0  0  0  0
 17 18  1  0  0  0  0
 18 22  1  0  0  0  0
 19 18  2  0  0  0  0
 20 14  1  0  0  0  0
 21 15  1  0  0  0  0
 23 24  2  0  0  0  0
 24 26  1  0  0  0  0
 24 25  1  0  0  0  0
 27 26  2  0  0  0  0
 28 23  1  0  0  0  0
 28 27  1  0  0  0  0
M  END
>  <minimizedAffinity>
-4.53563643

$$$$

 OpenBabel03242513503D

 28 30  0  0  1  0  0  0  0  0999 V2000
   37.2370   29.9370   39.6870 C   0  0  2  0  0  0  0  0  0  0  0  0
   36.3150   30.3780   38.6040 C   0  0  0  0  0  0  0  0  0  0  0  0
   35.2880   29.2530   38.6360 C   0  0  0  0  0  0  0  0  0  0  0  0
   35.2490   28.7860   40.0580 C   0  0  0  0  0  0  0  0  0  0  0  0
   36.2400   29.6550   40.8190 C   0  0  1  0  0  0  0  0  0  0  0  0
   37.7080   28.9790   39.4100 H   0  0  0  0  0  0  0  0  0  0  0  0
   35.8640   31.3600   38.7650 H   0  0  0  0  0  0  0  0  0  0  0  0
   36.7780   30.3390   37.5870 H   0  0  0  0  0  0  0  0  0  0  0  0
   35.5130   28.4580   37.9090 H   0  0  0  0  0  0  0  0  0  0  0  0
   34.3040   29.7420   38.4040 H   0  0  0  0  0  0  0  0  0  0  0  0
   35.6070   27.7350   40.1080 H   0  0  0  0  0  0  0  0  0  0  0  0
   34.2220   28.8620   40.4880 H   0  0  0  0  0  0  0  0  0  0  0  0
   35.8030   30.5840   41.1710 H   0  0  0  0  0  0  0  0  0  0  0  0
   38.9570   33.0630   40.9020 C   0  0  0  0  0  0  0  0  0  0  0  0
   37.9110   32.2230   40.5340 C   0  0  0  0  0  0  0  0  0  0  0  0
   38.2390   30.9320   40.0990 C   0  0  0  0  0  0  0  0  0  0  0  0
   39.5560   30.5850   40.0630 N   0  0  0  0  0  0  0  0  0  0  0  0
   40.5520   31.4220   40.4260 C   0  0  0  0  0  0  0  0  0  0  0  0
   40.2590   32.6610   40.8460 N   0  0  0  0  0  0  0  0  0  0  0  0
   38.6680   34.0610   41.2350 H   0  0  0  0  0  0  0  0  0  0  0  0
   36.8790   32.5030   40.5650 H   0  0  0  0  0  0  0  0  0  0  0  0
   41.5470   31.0240   40.3510 H   0  0  0  0  0  0  0  0  0  0  0  0
   36.9780   28.9060   41.8490 C   0  0  0  0  0  0  0  0  0  0  0  0
   37.5080   28.9440   43.1010 C   0  0  0  0  0  0  0  0  0  0  0  0
   37.3440   29.8970   43.5680 H   0  0  0  0  0  0  0  0  0  0  0  0
   38.1460   27.8380   43.5880 C   0  0  0  0  0  3  0  0  0  0  0  0
   38.2700   26.6880   42.8550 C   0  0  0  0  0  3  0  0  0  0  0  0
   37.3770   27.1670   41.2270 S   0  0  0  0  0  0  0  0  0  0  0  0
  1  6  1  6  0  0  0
  1 16  1  0  0  0  0
  1  5  1  0  0  0  0
  2  3  1  0  0  0  0
  2  7  1  0  0  0  0
  2  1  1  0  0  0  0
  3  4  1  0  0  0  0
  4 11  1  0  0  0  0
  4 12  1  0  0  0  0
  4  5  1  0  0  0  0
  5 13  1  1  0  0  0
  5 23  1  0  0  0  0
  8  2  1  0  0  0  0
  9  3  1  0  0  0  0
 10  3  1  0  0  0  0
 14 20  1  0  0  0  0
 15 21  1  0  0  0  0
 15 14  2  0  0  0  0
 16 15  1  0  0  0  0
 17 16  2  0  0  0  0
 17 18  1  0  0  0  0
 18 19  2  0  0  0  0
 19 14  1  0  0  0  0
 22 18  1  0  0  0  0
 23 24  2  0  0  0  0
 24 25  1  0  0  0  0
 24 26  1  0  0  0  0
 27 26  2  0  0  0  0
 28 23  1  0  0  0  0
 28 27  1  0  0  0  0
M  END
>  <minimizedAffinity>
-4.53270006

$$$$

 OpenBabel03242513503D

 28 30  0  0  1  0  0  0  0  0999 V2000
   37.4310   32.0810   40.3080 C   0  0  2  0  0  0  0  0  0  0  0  0
   37.3280   33.3760   39.5800 C   0  0  0  0  0  0  0  0  0  0  0  0
   38.4530   34.1600   40.2450 C   0  0  0  0  0  0  0  0  0  0  0  0
   39.4770   33.1390   40.6350 C   0  0  0  0  0  0  0  0  0  0  0  0
   38.9320   31.7930   40.1770 C   0  0  1  0  0  0  0  0  0  0  0  0
   37.2110   32.2340   41.3770 H   0  0  0  0  0  0  0  0  0  0  0  0
   37.4560   33.3000   38.4980 H   0  0  0  0  0  0  0  0  0  0  0  0
   36.3890   33.9380   39.8090 H   0  0  0  0  0  0  0  0  0  0  0  0
   38.0960   34.7780   41.0830 H   0  0  0  0  0  0  0  0  0  0  0  0
   38.8920   34.7990   39.4330 H   0  0  0  0  0  0  0  0  0  0  0  0
   39.5660   33.1130   41.7430 H   0  0  0  0  0  0  0  0  0  0  0  0
   40.4700   33.3560   40.1760 H   0  0  0  0  0  0  0  0  0  0  0  0
   39.1800   31.5660   39.1460 H   0  0  0  0  0  0  0  0  0  0  0  0
   35.8770   29.5390   37.9970 C   0  0  0  0  0  0  0  0  0  0  0  0
   36.6830   30.6010   38.3970 C   0  0  0  0  0  0  0  0  0  0  0  0
   36.6290   30.9820   39.7440 C   0  0  0  0  0  0  0  0  0  0  0  0
   35.7940   30.2940   40.5710 N   0  0  0  0  0  0  0  0  0  0  0  0
   35.0220   29.2660   40.1550 C   0  0  0  0  0  0  0  0  0  0  0  0
   35.0600   28.8850   38.8700 N   0  0  0  0  0  0  0  0  0  0  0  0
   35.9420   29.2680   36.9420 H   0  0  0  0  0  0  0  0  0  0  0  0
   37.3370   31.1370   37.7420 H   0  0  0  0  0  0  0  0  0  0  0  0
   34.4090   28.8080   40.9090 H   0  0  0  0  0  0  0  0  0  0  0  0
   39.2340   30.7070   41.1240 C   0  0  0  0  0  0  0  0  0  0  0  0
   39.1940   30.3070   42.4230 C   0  0  0  0  0  0  0  0  0  0  0  0
   38.7780   31.0680   43.0560 H   0  0  0  0  0  0  0  0  0  0  0  0
   39.6570   29.0640   42.7520 C   0  0  0  0  0  3  0  0  0  0  0  0
   40.1630   28.2050   41.8130 C   0  0  0  0  0  3  0  0  0  0  0  0
   39.9890   29.2370   40.2070 S   0  0  0  0  0  0  0  0  0  0  0  0
  1  6  1  1  0  0  0
  2  8  1  0  0  0  0
  2  3  1  0  0  0  0
  2  1  1  0  0  0  0
  3  4  1  0  0  0  0
  3  9  1  0  0  0  0
  4 11  1  0  0  0  0
  5 13  1  6  0  0  0
  5  1  1  0  0  0  0
  5  4  1  0  0  0  0
  5 23  1  0  0  0  0
  7  2  1  0  0  0  0
 10  3  1  0  0  0  0
 12  4  1  0  0  0  0
 14 15  2  0  0  0  0
 14 19  1  0  0  0  0
 15 16  1  0  0  0  0
 16  1  1  0  0  0  0
 16 17  2  0  0  0  0
 18 17  1  0  0  0  0
 18 22  1  0  0  0  0
 19 18  2  0  0  0  0
 20 14  1  0  0  0  0
 21 15  1  0  0  0  0
 23 24  2  0  0  0  0
 24 26  1  0  0  0  0
 24 25  1  0  0  0  0
 27 26  2  0  0  0  0
 28 23  1  0  0  0  0
 28 27  1  0  0  0  0
M  END
>  <minimizedAffinity>
-4.51988792

$$$$

 OpenBabel03242513503D

 28 30  0  0  1  0  0  0  0  0999 V2000
   40.1330   28.7210   42.0950 C   0  0  2  0  0  0  0  0  0  0  0  0
   41.3590   29.2970   42.7130 C   0  0  0  0  0  0  0  0  0  0  0  0
   41.0570   30.7860   42.5970 C   0  0  0  0  0  0  0  0  0  0  0  0
   39.5670   30.9010   42.6800 C   0  0  0  0  0  0  0  0  0  0  0  0
   39.0390   29.4840   42.8550 C   0  0  1  0  0  0  0  0  0  0  0  0
   40.0730   29.0190   41.0350 H   0  0  0  0  0  0  0  0  0  0  0  0
   41.5350   28.9860   43.7450 H   0  0  0  0  0  0  0  0  0  0  0  0
   42.2820   29.1250   42.1060 H   0  0  0  0  0  0  0  0  0  0  0  0
   41.4910   31.2330   41.6900 H   0  0  0  0  0  0  0  0  0  0  0  0
   41.4930   31.2510   43.5210 H   0  0  0  0  0  0  0  0  0  0  0  0
   39.1760   31.2950   41.7170 H   0  0  0  0  0  0  0  0  0  0  0  0
   39.2510   31.5620   43.5210 H   0  0  0  0  0  0  0  0  0  0  0  0
   39.0160   29.1670   43.8920 H   0  0  0  0  0  0  0  0  0  0  0  0
   39.8060   25.2440   43.5130 C   0  0  0  0  0  0  0  0  0  0  0  0
   39.9720   26.6250   43.5020 C   0  0  0  0  0  0  0  0  0  0  0  0
   39.9750   27.2670   42.2560 C   0  0  0  0  0  0  0  0  0  0  0  0
   39.8200   26.5000   41.1410 N   0  0  0  0  0  0  0  0  0  0  0  0
   39.6610   25.1590   41.1820 C   0  0  0  0  0  0  0  0  0  0  0  0
   39.6540   24.5260   42.3630 N   0  0  0  0  0  0  0  0  0  0  0  0
   39.8090   24.7750   44.4980 H   0  0  0  0  0  0  0  0  0  0  0  0
   40.0930   27.2210   44.3820 H   0  0  0  0  0  0  0  0  0  0  0  0
   39.5480   24.6740   40.2300 H   0  0  0  0  0  0  0  0  0  0  0  0
   37.7830   29.2510   42.1250 C   0  0  0  0  0  0  0  0  0  0  0  0
   36.7350   28.4060   41.9350 C   0  0  0  0  0  0  0  0  0  0  0  0
   36.8180   27.5320   42.5550 H   0  0  0  0  0  0  0  0  0  0  0  0
   35.7610   28.7420   41.0380 C   0  0  0  0  0  3  0  0  0  0  0  0
   35.8050   29.9070   40.3190 C   0  0  0  0  0  3  0  0  0  0  0  0
   37.4350   30.6930   40.9540 S   0  0  0  0  0  0  0  0  0  0  0  0
  1  6  1  6  0  0  0
  1 16  1  0  0  0  0
  1  2  1  0  0  0  0
  1  5  1  0  0  0  0
  2  7  1  0  0  0  0
  3  4  1  0  0  0  0
  3  2  1  0  0  0  0
  3 10  1  0  0  0  0
  4  5  1  0  0  0  0
  4 12  1  0  0  0  0
  5 13  1  1  0  0  0
  8  2  1  0  0  0  0
  9  3  1  0  0  0  0
 11  4  1  0  0  0  0
 14 20  1  0  0  0  0
 15 14  1  0  0  0  0
 15 21  1  0  0  0  0
 16 15  2  0  0  0  0
 17 18  2  0  0  0  0
 17 16  1  0  0  0  0
 18 19  1  0  0  0  0
 19 14  2  0  0  0  0
 22 18  1  0  0  0  0
 23  5  1  0  0  0  0
 24 23  2  0  0  0  0
 24 25  1  0  0  0  0
 26 24  1  0  0  0  0
 27 28  1  0  0  0  0
 27 26  2  0  0  0  0
 28 23  1  0  0  0  0
M  END
>  <minimizedAffinity>
-4.3992548

$$$$
