
 OpenBabel03252509173D

 22 24  0  0  0  0  0  0  0  0999 V2000
   37.0110   27.9260   40.8280 C   0  0  0  0  0  0  0  0  0  0  0  0
   35.8970   28.7780   41.0270 C   0  0  0  0  0  0  0  0  0  0  0  0
   36.0580   30.1130   40.9140 C   0  0  0  0  0  0  0  0  0  0  0  0
   37.3410   30.6200   40.5990 C   0  0  0  0  0  0  0  0  0  0  0  0
   38.3400   29.1020   40.4650 S   0  0  0  0  0  0  0  0  0  0  0  0
   34.9270   28.3450   41.2680 H   0  0  0  0  0  0  0  0  0  0  0  0
   35.2890   30.8390   41.0440 H   0  0  0  0  0  0  0  0  0  0  0  0
   37.1550   24.3840   41.9220 C   0  0  0  0  0  0  0  0  0  0  0  0
   36.7580   23.7440   40.7180 C   0  0  0  0  0  0  0  0  0  0  0  0
   36.4650   24.5550   39.6040 C   0  0  0  0  0  0  0  0  0  0  0  0
   36.5800   25.9130   39.7500 N   0  0  0  0  0  0  0  0  0  0  0  0
   36.9630   26.4680   40.9250 C   0  0  0  0  0  0  0  0  0  0  0  0
   37.2500   25.7050   42.0120 N   0  0  0  0  0  0  0  0  0  0  0  0
   37.3790   23.7590   42.7730 H   0  0  0  0  0  0  0  0  0  0  0  0
   36.6720   22.6670   40.6180 H   0  0  0  0  0  0  0  0  0  0  0  0
   36.1560   24.1520   38.6500 H   0  0  0  0  0  0  0  0  0  0  0  0
   37.8300   31.8740   40.4190 C   0  0  0  0  0  0  0  0  0  0  0  0
   37.3210   32.9860   39.8560 C   0  0  0  0  0  0  0  0  0  0  0  0
   36.3250   32.9440   39.4410 H   0  0  0  0  0  0  0  0  0  0  0  0
   38.0090   34.1610   39.7880 C   0  0  0  0  0  3  0  0  0  0  0  0
   39.3840   34.1430   40.3840 C   0  0  0  0  0  3  0  0  0  0  0  0
   39.5270   32.3780   40.9930 S   0  0  0  0  0  0  0  0  0  0  0  0
  1 12  1  0  0  0  0
  1  2  2  0  0  0  0
  2  6  1  0  0  0  0
  3  2  1  0  0  0  0
  3  7  1  0  0  0  0
  4  3  2  0  0  0  0
  5  4  1  0  0  0  0
  5  1  1  0  0  0  0
  8 13  1  0  0  0  0
  8 14  1  0  0  0  0
  9  8  2  0  0  0  0
 10 11  2  0  0  0  0
 10  9  1  0  0  0  0
 11 12  1  0  0  0  0
 12 13  2  0  0  0  0
 15  9  1  0  0  0  0
 16 10  1  0  0  0  0
 17  4  1  0  0  0  0
 17 22  1  0  0  0  0
 18 17  2  0  0  0  0
 19 18  1  0  0  0  0
 20 18  1  0  0  0  0
 20 21  2  0  0  0  0
 21 22  1  0  0  0  0
M  END
>  <minimizedAffinity>
-4.49600458

$$$$

 OpenBabel03252509173D

 22 24  0  0  0  0  0  0  0  0999 V2000
   38.9340   30.3500   41.3040 C   0  0  0  0  0  0  0  0  0  0  0  0
   38.8710   29.9330   42.6570 C   0  0  0  0  0  0  0  0  0  0  0  0
   38.5910   28.6440   42.9370 C   0  0  0  0  0  0  0  0  0  0  0  0
   38.3700   27.7460   41.8660 C   0  0  0  0  0  0  0  0  0  0  0  0
   38.5760   28.8180   40.4070 S   0  0  0  0  0  0  0  0  0  0  0  0
   39.0490   30.6580   43.4490 H   0  0  0  0  0  0  0  0  0  0  0  0
   38.5190   28.2280   43.9160 H   0  0  0  0  0  0  0  0  0  0  0  0
   38.7790   33.9120   40.2760 C   0  0  0  0  0  0  0  0  0  0  0  0
   40.1600   34.1600   40.0630 C   0  0  0  0  0  0  0  0  0  0  0  0
   41.0650   33.1020   40.2800 C   0  0  0  0  0  0  0  0  0  0  0  0
   40.5560   31.8960   40.6860 N   0  0  0  0  0  0  0  0  0  0  0  0
   39.2260   31.7170   40.8750 C   0  0  0  0  0  0  0  0  0  0  0  0
   38.3370   32.7230   40.6710 N   0  0  0  0  0  0  0  0  0  0  0  0
   38.0900   34.7240   40.1090 H   0  0  0  0  0  0  0  0  0  0  0  0
   40.5480   35.1220   39.7400 H   0  0  0  0  0  0  0  0  0  0  0  0
   42.1320   33.2050   40.1410 H   0  0  0  0  0  0  0  0  0  0  0  0
   38.0740   26.4220   41.8050 C   0  0  0  0  0  0  0  0  0  0  0  0
   37.0140   25.6980   42.2130 C   0  0  0  0  0  0  0  0  0  0  0  0
   36.1960   26.2100   42.6980 H   0  0  0  0  0  0  0  0  0  0  0  0
   36.9310   24.3480   42.0420 C   0  0  0  0  0  3  0  0  0  0  0  0
   38.1030   23.7070   41.3630 C   0  0  0  0  0  3  0  0  0  0  0  0
   39.2230   25.1730   41.0410 S   0  0  0  0  0  0  0  0  0  0  0  0
  1  2  2  0  0  0  0
  2  3  1  0  0  0  0
  2  6  1  0  0  0  0
  3  7  1  0  0  0  0
  4  3  2  0  0  0  0
  5  1  1  0  0  0  0
  5  4  1  0  0  0  0
  8 13  1  0  0  0  0
  9  8  2  0  0  0  0
  9 10  1  0  0  0  0
 10 11  2  0  0  0  0
 11 12  1  0  0  0  0
 12  1  1  0  0  0  0
 13 12  2  0  0  0  0
 14  8  1  0  0  0  0
 15  9  1  0  0  0  0
 16 10  1  0  0  0  0
 17  4  1  0  0  0  0
 17 18  2  0  0  0  0
 18 19  1  0  0  0  0
 20 18  1  0  0  0  0
 21 20  2  0  0  0  0
 22 21  1  0  0  0  0
 22 17  1  0  0  0  0
M  END
>  <minimizedAffinity>
-4.39658165

$$$$

 OpenBabel03252509173D

 22 24  0  0  0  0  0  0  0  0999 V2000
   37.8330   30.1050   40.9890 C   0  0  0  0  0  0  0  0  0  0  0  0
   37.1700   29.6380   42.1510 C   0  0  0  0  0  0  0  0  0  0  0  0
   36.9270   28.3180   42.2850 C   0  0  0  0  0  0  0  0  0  0  0  0
   37.3440   27.4400   41.2570 C   0  0  0  0  0  0  0  0  0  0  0  0
   38.1130   28.5760   40.0590 S   0  0  0  0  0  0  0  0  0  0  0  0
   36.8680   30.3490   42.9170 H   0  0  0  0  0  0  0  0  0  0  0  0
   36.4360   27.8640   43.1150 H   0  0  0  0  0  0  0  0  0  0  0  0
   39.3750   33.4760   40.8170 C   0  0  0  0  0  0  0  0  0  0  0  0
   38.3950   34.1480   40.0410 C   0  0  0  0  0  0  0  0  0  0  0  0
   37.2670   33.4170   39.6210 C   0  0  0  0  0  0  0  0  0  0  0  0
   37.1840   32.0990   39.9870 N   0  0  0  0  0  0  0  0  0  0  0  0
   38.1510   31.5090   40.7290 C   0  0  0  0  0  0  0  0  0  0  0  0
   39.2470   32.1950   41.1440 N   0  0  0  0  0  0  0  0  0  0  0  0
   40.2380   34.0390   41.1360 H   0  0  0  0  0  0  0  0  0  0  0  0
   38.4750   35.1940   39.7590 H   0  0  0  0  0  0  0  0  0  0  0  0
   36.4730   33.8510   39.0270 H   0  0  0  0  0  0  0  0  0  0  0  0
   37.2540   26.0950   41.0850 C   0  0  0  0  0  0  0  0  0  0  0  0
   37.5670   25.0460   41.8680 C   0  0  0  0  0  0  0  0  0  0  0  0
   37.9810   25.2390   42.8470 H   0  0  0  0  0  0  0  0  0  0  0  0
   37.3860   23.7520   41.4780 C   0  0  0  0  0  3  0  0  0  0  0  0
   36.8090   23.5630   40.1080 C   0  0  0  0  0  3  0  0  0  0  0  0
   36.5890   25.3290   39.5240 S   0  0  0  0  0  0  0  0  0  0  0  0
  1  2  2  0  0  0  0
  2  3  1  0  0  0  0
  2  6  1  0  0  0  0
  3  7  1  0  0  0  0
  4  3  2  0  0  0  0
  5  1  1  0  0  0  0
  5  4  1  0  0  0  0
  8 14  1  0  0  0  0
  8 13  1  0  0  0  0
  9  8  2  0  0  0  0
 10 11  2  0  0  0  0
 10  9  1  0  0  0  0
 11 12  1  0  0  0  0
 12  1  1  0  0  0  0
 12 13  2  0  0  0  0
 15  9  1  0  0  0  0
 16 10  1  0  0  0  0
 17  4  1  0  0  0  0
 17 18  2  0  0  0  0
 18 19  1  0  0  0  0
 20 18  1  0  0  0  0
 21 20  2  0  0  0  0
 22 21  1  0  0  0  0
 22 17  1  0  0  0  0
M  END
>  <minimizedAffinity>
-4.35452223

$$$$

 OpenBabel03252509173D

 22 24  0  0  0  0  0  0  0  0999 V2000
   38.6770   27.7810   41.5400 C   0  0  0  0  0  0  0  0  0  0  0  0
   38.7210   28.5360   42.7390 C   0  0  0  0  0  0  0  0  0  0  0  0
   38.9090   29.8700   42.6710 C   0  0  0  0  0  0  0  0  0  0  0  0
   39.0570   30.4740   41.4010 C   0  0  0  0  0  0  0  0  0  0  0  0
   38.9180   29.0510   40.2710 S   0  0  0  0  0  0  0  0  0  0  0  0
   38.6020   28.0290   43.6950 H   0  0  0  0  0  0  0  0  0  0  0  0
   38.9580   30.5270   43.5090 H   0  0  0  0  0  0  0  0  0  0  0  0
   39.0220   24.1160   41.0730 C   0  0  0  0  0  0  0  0  0  0  0  0
   37.7440   23.6960   41.5230 C   0  0  0  0  0  0  0  0  0  0  0  0
   36.8370   24.6830   41.9590 C   0  0  0  0  0  0  0  0  0  0  0  0
   37.2470   25.9900   41.9230 N   0  0  0  0  0  0  0  0  0  0  0  0
   38.4810   26.3330   41.4840 C   0  0  0  0  0  0  0  0  0  0  0  0
   39.3700   25.3980   41.0590 N   0  0  0  0  0  0  0  0  0  0  0  0
   39.7130   23.3580   40.7400 H   0  0  0  0  0  0  0  0  0  0  0  0
   37.4340   22.6550   41.5440 H   0  0  0  0  0  0  0  0  0  0  0  0
   35.8440   24.4500   42.3170 H   0  0  0  0  0  0  0  0  0  0  0  0
   39.2570   31.7540   40.9940 C   0  0  0  0  0  0  0  0  0  0  0  0
   38.4200   32.7720   40.7170 C   0  0  0  0  0  0  0  0  0  0  0  0
   37.3570   32.6050   40.8150 H   0  0  0  0  0  0  0  0  0  0  0  0
   38.8550   34.0000   40.3160 C   0  0  0  0  0  3  0  0  0  0  0  0
   40.3410   34.1550   40.2010 C   0  0  0  0  0  3  0  0  0  0  0  0
   40.9560   32.4570   40.7010 S   0  0  0  0  0  0  0  0  0  0  0  0
  1  2  2  0  0  0  0
  2  6  1  0  0  0  0
  3  2  1  0  0  0  0
  3  7  1  0  0  0  0
  4  3  2  0  0  0  0
  5  4  1  0  0  0  0
  5  1  1  0  0  0  0
  8  9  1  0  0  0  0
  9 15  1  0  0  0  0
  9 10  2  0  0  0  0
 10 16  1  0  0  0  0
 11 10  1  0  0  0  0
 12  1  1  0  0  0  0
 12 11  2  0  0  0  0
 13  8  2  0  0  0  0
 13 12  1  0  0  0  0
 14  8  1  0  0  0  0
 17  4  1  0  0  0  0
 18 19  1  0  0  0  0
 18 17  2  0  0  0  0
 20 18  1  0  0  0  0
 21 20  2  0  0  0  0
 21 22  1  0  0  0  0
 22 17  1  0  0  0  0
M  END
>  <minimizedAffinity>
-4.21925592

$$$$

 OpenBabel03252509173D

 22 24  0  0  0  0  0  0  0  0999 V2000
   36.7760   27.7050   40.8020 C   0  0  0  0  0  0  0  0  0  0  0  0
   35.8670   28.7500   41.1010 C   0  0  0  0  0  0  0  0  0  0  0  0
   35.0350   29.1960   40.1380 C   0  0  0  0  0  0  0  0  0  0  0  0
   35.0970   28.6030   38.8550 C   0  0  0  0  0  0  0  0  0  0  0  0
   36.4100   27.3570   39.0620 S   0  0  0  0  0  0  0  0  0  0  0  0
   35.8530   29.1770   42.1020 H   0  0  0  0  0  0  0  0  0  0  0  0
   34.3170   29.9750   40.2570 H   0  0  0  0  0  0  0  0  0  0  0  0
   39.0660   27.0590   43.6480 C   0  0  0  0  0  0  0  0  0  0  0  0
   39.5120   25.7560   43.3070 C   0  0  0  0  0  0  0  0  0  0  0  0
   39.0080   25.1720   42.1270 C   0  0  0  0  0  0  0  0  0  0  0  0
   38.1170   25.8980   41.3820 N   0  0  0  0  0  0  0  0  0  0  0  0
   37.7260   27.1390   41.7580 C   0  0  0  0  0  0  0  0  0  0  0  0
   38.1990   27.7210   42.8910 N   0  0  0  0  0  0  0  0  0  0  0  0
   39.4540   27.5030   44.5520 H   0  0  0  0  0  0  0  0  0  0  0  0
   40.2200   25.1930   43.9080 H   0  0  0  0  0  0  0  0  0  0  0  0
   39.2950   24.1840   41.7930 H   0  0  0  0  0  0  0  0  0  0  0  0
   34.4200   28.8140   37.6960 C   0  0  0  0  0  0  0  0  0  0  0  0
   33.1160   28.9910   37.4130 C   0  0  0  0  0  0  0  0  0  0  0  0
   32.4050   28.9730   38.2270 H   0  0  0  0  0  0  0  0  0  0  0  0
   32.6550   29.1910   36.1460 C   0  0  0  0  0  3  0  0  0  0  0  0
   33.6980   29.2020   35.0710 C   0  0  0  0  0  3  0  0  0  0  0  0
   35.2720   28.9150   36.0440 S   0  0  0  0  0  0  0  0  0  0  0  0
  1  2  2  0  0  0  0
  1 12  1  0  0  0  0
  2  6  1  0  0  0  0
  3  7  1  0  0  0  0
  3  2  1  0  0  0  0
  4  5  1  0  0  0  0
  4  3  2  0  0  0  0
  5  1  1  0  0  0  0
  8 14  1  0  0  0  0
  9  8  1  0  0  0  0
  9 15  1  0  0  0  0
 10  9  2  0  0  0  0
 11 12  2  0  0  0  0
 11 10  1  0  0  0  0
 12 13  1  0  0  0  0
 13  8  2  0  0  0  0
 16 10  1  0  0  0  0
 17  4  1  0  0  0  0
 18 17  2  0  0  0  0
 18 19  1  0  0  0  0
 20 18  1  0  0  0  0
 21 22  1  0  0  0  0
 21 20  2  0  0  0  0
 22 17  1  0  0  0  0
M  END
>  <minimizedAffinity>
-4.14960432

$$$$

 OpenBabel03252509173D

 22 24  0  0  0  0  0  0  0  0999 V2000
   40.6130   31.5290   40.4520 C   0  0  0  0  0  0  0  0  0  0  0  0
   40.6650   31.5920   41.8670 C   0  0  0  0  0  0  0  0  0  0  0  0
   39.9490   30.7100   42.5930 C   0  0  0  0  0  0  0  0  0  0  0  0
   39.1660   29.7460   41.9150 C   0  0  0  0  0  0  0  0  0  0  0  0
   39.4850   30.1420   40.1650 S   0  0  0  0  0  0  0  0  0  0  0  0
   41.2820   32.3500   42.3470 H   0  0  0  0  0  0  0  0  0  0  0  0
   39.9170   30.6710   43.6580 H   0  0  0  0  0  0  0  0  0  0  0  0
   42.7630   34.1610   38.9630 C   0  0  0  0  0  0  0  0  0  0  0  0
   42.5270   33.9130   37.5850 C   0  0  0  0  0  0  0  0  0  0  0  0
   41.6490   32.8650   37.2430 C   0  0  0  0  0  0  0  0  0  0  0  0
   41.0780   32.1480   38.2610 N   0  0  0  0  0  0  0  0  0  0  0  0
   41.3410   32.4300   39.5590 C   0  0  0  0  0  0  0  0  0  0  0  0
   42.1830   33.4350   39.9120 N   0  0  0  0  0  0  0  0  0  0  0  0
   43.4350   34.9640   39.2210 H   0  0  0  0  0  0  0  0  0  0  0  0
   42.9870   34.4910   36.7900 H   0  0  0  0  0  0  0  0  0  0  0  0
   41.4140   32.6090   36.2190 H   0  0  0  0  0  0  0  0  0  0  0  0
   38.3500   28.7440   42.3350 C   0  0  0  0  0  0  0  0  0  0  0  0
   37.4820   28.6340   43.3580 C   0  0  0  0  0  0  0  0  0  0  0  0
   37.3600   29.4770   44.0230 H   0  0  0  0  0  0  0  0  0  0  0  0
   36.7530   27.5070   43.5920 C   0  0  0  0  0  3  0  0  0  0  0  0
   36.9760   26.3800   42.6300 C   0  0  0  0  0  3  0  0  0  0  0  0
   38.2520   27.1020   41.4630 S   0  0  0  0  0  0  0  0  0  0  0  0
  1  2  2  0  0  0  0
  2  6  1  0  0  0  0
  2  3  1  0  0  0  0
  3  7  1  0  0  0  0
  4 17  1  0  0  0  0
  4  3  2  0  0  0  0
  5  1  1  0  0  0  0
  5  4  1  0  0  0  0
  8 14  1  0  0  0  0
  8 13  1  0  0  0  0
  9  8  2  0  0  0  0
 10  9  1  0  0  0  0
 10 11  2  0  0  0  0
 11 12  1  0  0  0  0
 12 13  2  0  0  0  0
 12  1  1  0  0  0  0
 15  9  1  0  0  0  0
 16 10  1  0  0  0  0
 17 18  2  0  0  0  0
 18 20  1  0  0  0  0
 18 19  1  0  0  0  0
 21 20  2  0  0  0  0
 22 17  1  0  0  0  0
 22 21  1  0  0  0  0
M  END
>  <minimizedAffinity>
-4.09472895

$$$$

 OpenBabel03252509173D

 22 24  0  0  0  0  0  0  0  0999 V2000
   36.2580   28.0670   40.3590 C   0  0  0  0  0  0  0  0  0  0  0  0
   35.2020   28.9880   40.5700 C   0  0  0  0  0  0  0  0  0  0  0  0
   34.3740   29.2870   39.5470 C   0  0  0  0  0  0  0  0  0  0  0  0
   34.5890   28.6690   38.2930 C   0  0  0  0  0  0  0  0  0  0  0  0
   36.0430   27.6200   38.6170 S   0  0  0  0  0  0  0  0  0  0  0  0
   35.0730   29.4390   41.5520 H   0  0  0  0  0  0  0  0  0  0  0  0
   33.5520   29.9640   39.5990 H   0  0  0  0  0  0  0  0  0  0  0  0
   39.0410   26.5530   42.2900 C   0  0  0  0  0  0  0  0  0  0  0  0
   38.8080   27.1510   43.5560 C   0  0  0  0  0  0  0  0  0  0  0  0
   37.7170   28.0350   43.6800 C   0  0  0  0  0  0  0  0  0  0  0  0
   36.9480   28.2640   42.5690 N   0  0  0  0  0  0  0  0  0  0  0  0
   37.2190   27.6650   41.3850 C   0  0  0  0  0  0  0  0  0  0  0  0
   38.2650   26.8100   41.2440 N   0  0  0  0  0  0  0  0  0  0  0  0
   39.8770   25.8770   42.1990 H   0  0  0  0  0  0  0  0  0  0  0  0
   39.4270   26.9590   44.4270 H   0  0  0  0  0  0  0  0  0  0  0  0
   37.4680   28.5330   44.6070 H   0  0  0  0  0  0  0  0  0  0  0  0
   33.9580   28.7500   37.0930 C   0  0  0  0  0  0  0  0  0  0  0  0
   34.3520   28.5030   35.8290 C   0  0  0  0  0  0  0  0  0  0  0  0
   35.3660   28.1700   35.6620 H   0  0  0  0  0  0  0  0  0  0  0  0
   33.5280   28.6570   34.7540 C   0  0  0  0  0  3  0  0  0  0  0  0
   32.1380   29.1220   35.0640 C   0  0  0  0  0  3  0  0  0  0  0  0
   32.1840   29.2890   36.9300 S   0  0  0  0  0  0  0  0  0  0  0  0
  1  2  2  0  0  0  0
  1 12  1  0  0  0  0
  2  6  1  0  0  0  0
  3  7  1  0  0  0  0
  3  2  1  0  0  0  0
  4  5  1  0  0  0  0
  4  3  2  0  0  0  0
  5  1  1  0  0  0  0
  8  9  1  0  0  0  0
  9 10  2  0  0  0  0
  9 15  1  0  0  0  0
 10 16  1  0  0  0  0
 11 10  1  0  0  0  0
 12 11  2  0  0  0  0
 13 12  1  0  0  0  0
 13  8  2  0  0  0  0
 14  8  1  0  0  0  0
 17  4  1  0  0  0  0
 18 17  2  0  0  0  0
 19 18  1  0  0  0  0
 20 21  2  0  0  0  0
 20 18  1  0  0  0  0
 21 22  1  0  0  0  0
 22 17  1  0  0  0  0
M  END
>  <minimizedAffinity>
-3.979918

$$$$

 OpenBabel03252509173D

 22 24  0  0  0  0  0  0  0  0999 V2000
   39.0320   30.3650   40.3090 C   0  0  0  0  0  0  0  0  0  0  0  0
   38.1840   30.3590   41.4440 C   0  0  0  0  0  0  0  0  0  0  0  0
   37.6070   29.2020   41.8300 C   0  0  0  0  0  0  0  0  0  0  0  0
   37.8710   28.0280   41.0870 C   0  0  0  0  0  0  0  0  0  0  0  0
   38.9930   28.6320   39.7840 S   0  0  0  0  0  0  0  0  0  0  0  0
   38.0090   31.2860   41.9870 H   0  0  0  0  0  0  0  0  0  0  0  0
   36.9540   29.0890   42.6650 H   0  0  0  0  0  0  0  0  0  0  0  0
   40.8850   32.8550   38.2760 C   0  0  0  0  0  0  0  0  0  0  0  0
   40.8910   33.9480   39.1820 C   0  0  0  0  0  0  0  0  0  0  0  0
   40.2640   33.7750   40.4320 C   0  0  0  0  0  0  0  0  0  0  0  0
   39.6860   32.5610   40.6970 N   0  0  0  0  0  0  0  0  0  0  0  0
   39.7110   31.5530   39.7930 C   0  0  0  0  0  0  0  0  0  0  0  0
   40.3100   31.6980   38.5830 N   0  0  0  0  0  0  0  0  0  0  0  0
   41.3660   32.9910   37.3200 H   0  0  0  0  0  0  0  0  0  0  0  0
   41.3540   34.9040   38.9570 H   0  0  0  0  0  0  0  0  0  0  0  0
   40.2220   34.5550   41.1800 H   0  0  0  0  0  0  0  0  0  0  0  0
   37.4600   26.7380   41.2030 C   0  0  0  0  0  0  0  0  0  0  0  0
   37.3590   25.8970   42.2500 C   0  0  0  0  0  0  0  0  0  0  0  0
   37.6470   26.2550   43.2280 H   0  0  0  0  0  0  0  0  0  0  0  0
   36.9100   24.6160   42.1280 C   0  0  0  0  0  3  0  0  0  0  0  0
   36.5300   24.1910   40.7430 C   0  0  0  0  0  3  0  0  0  0  0  0
   36.8760   25.7390   39.7460 S   0  0  0  0  0  0  0  0  0  0  0  0
  1  2  2  0  0  0  0
  2  3  1  0  0  0  0
  2  6  1  0  0  0  0
  3  7  1  0  0  0  0
  4 17  1  0  0  0  0
  4  3  2  0  0  0  0
  5  1  1  0  0  0  0
  5  4  1  0  0  0  0
  8 13  2  0  0  0  0
  8  9  1  0  0  0  0
  9 10  2  0  0  0  0
 10 11  1  0  0  0  0
 10 16  1  0  0  0  0
 12  1  1  0  0  0  0
 12 11  2  0  0  0  0
 13 12  1  0  0  0  0
 14  8  1  0  0  0  0
 15  9  1  0  0  0  0
 17 18  2  0  0  0  0
 18 19  1  0  0  0  0
 20 18  1  0  0  0  0
 21 20  2  0  0  0  0
 22 21  1  0  0  0  0
 22 17  1  0  0  0  0
M  END
>  <minimizedAffinity>
-3.97897458

$$$$

 OpenBabel03252509173D

 22 24  0  0  0  0  0  0  0  0999 V2000
   37.2660   29.7120   39.9220 C   0  0  0  0  0  0  0  0  0  0  0  0
   36.1220   29.1680   39.2880 C   0  0  0  0  0  0  0  0  0  0  0  0
   35.9380   27.8310   39.2950 C   0  0  0  0  0  0  0  0  0  0  0  0
   36.8970   27.0140   39.9380 C   0  0  0  0  0  0  0  0  0  0  0  0
   38.1040   28.2340   40.5500 S   0  0  0  0  0  0  0  0  0  0  0  0
   35.4090   29.8340   38.8050 H   0  0  0  0  0  0  0  0  0  0  0  0
   35.1150   27.3210   38.8480 H   0  0  0  0  0  0  0  0  0  0  0  0
   37.3650   33.3950   39.4870 C   0  0  0  0  0  0  0  0  0  0  0  0
   38.4520   33.7100   40.3440 C   0  0  0  0  0  0  0  0  0  0  0  0
   39.0890   32.6500   41.0200 C   0  0  0  0  0  0  0  0  0  0  0  0
   38.6190   31.3800   40.8100 N   0  0  0  0  0  0  0  0  0  0  0  0
   37.5760   31.1400   39.9800 C   0  0  0  0  0  0  0  0  0  0  0  0
   36.9480   32.1460   39.3180 N   0  0  0  0  0  0  0  0  0  0  0  0
   36.8800   34.2090   38.9710 H   0  0  0  0  0  0  0  0  0  0  0  0
   38.8120   34.7210   40.4990 H   0  0  0  0  0  0  0  0  0  0  0  0
   39.9240   32.8000   41.6910 H   0  0  0  0  0  0  0  0  0  0  0  0
   37.0090   25.6730   40.1200 C   0  0  0  0  0  0  0  0  0  0  0  0
   36.2460   24.6280   39.7450 C   0  0  0  0  0  0  0  0  0  0  0  0
   35.3440   24.8250   39.1830 H   0  0  0  0  0  0  0  0  0  0  0  0
   36.5610   23.3370   40.0450 C   0  0  0  0  0  3  0  0  0  0  0  0
   37.8240   23.1430   40.8270 C   0  0  0  0  0  3  0  0  0  0  0  0
   38.4280   24.9030   41.0450 S   0  0  0  0  0  0  0  0  0  0  0  0
  1 12  1  0  0  0  0
  1  5  1  0  0  0  0
  2  3  1  0  0  0  0
  2  1  2  0  0  0  0
  3  4  2  0  0  0  0
  4 17  1  0  0  0  0
  4  5  1  0  0  0  0
  6  2  1  0  0  0  0
  7  3  1  0  0  0  0
  8  9  1  0  0  0  0
  9 15  1  0  0  0  0
  9 10  2  0  0  0  0
 10 16  1  0  0  0  0
 11 10  1  0  0  0  0
 12 11  2  0  0  0  0
 13  8  2  0  0  0  0
 13 12  1  0  0  0  0
 14  8  1  0  0  0  0
 17 22  1  0  0  0  0
 18 20  1  0  0  0  0
 18 17  2  0  0  0  0
 19 18  1  0  0  0  0
 20 21  2  0  0  0  0
 21 22  1  0  0  0  0
M  END
>  <minimizedAffinity>
-3.93103051

$$$$
