
 OpenBabel03242511073D

 24 26  0  0  1  0  0  0  0  0999 V2000
   39.1260   30.1390   41.5450 C   0  0  1  0  0  0  0  0  0  0  0  0
   39.7890   30.4050   42.8640 C   0  0  0  0  0  0  0  0  0  0  0  0
   38.4710   29.6310   42.7600 C   0  0  2  0  0  0  0  0  0  0  0  0
   39.6180   29.4140   40.8670 H   0  0  0  0  0  0  0  0  0  0  0  0
   40.7360   29.8900   43.0180 H   0  0  0  0  0  0  0  0  0  0  0  0
   39.7250   31.4980   43.1500 H   0  0  0  0  0  0  0  0  0  0  0  0
   37.6080   30.2530   43.1690 H   0  0  0  0  0  0  0  0  0  0  0  0
   38.4130   33.5800   40.3530 C   0  0  0  0  0  0  0  0  0  0  0  0
   37.3770   33.3390   39.3820 C   0  0  0  0  0  0  0  0  0  0  0  0
   36.9660   31.9870   39.1660 C   0  0  0  0  0  0  0  0  0  0  0  0
   37.5520   31.0130   39.8690 N   0  0  0  0  0  0  0  0  0  0  0  0
   38.5270   31.2740   40.7810 C   0  0  0  0  0  0  0  0  0  0  0  0
   38.9520   32.5500   41.0180 N   0  0  0  0  0  0  0  0  0  0  0  0
   38.7010   34.6120   40.4930 H   0  0  0  0  0  0  0  0  0  0  0  0
   36.9040   34.1030   38.8180 H   0  0  0  0  0  0  0  0  0  0  0  0
   36.1870   31.8340   38.4310 H   0  0  0  0  0  0  0  0  0  0  0  0
   38.4950   28.2610   43.1320 N   0  0  0  0  0  0  0  0  0  0  0  0
   38.6100   28.2910   44.1990 H   0  0  0  0  0  0  0  0  0  0  0  0
   38.4350   26.9170   42.8360 C   0  0  0  0  0  0  0  0  0  0  0  0
   37.2390   26.3080   42.4340 C   0  0  0  0  0  0  0  0  0  0  0  0
   36.2010   26.5760   42.2560 H   0  0  0  0  0  0  0  0  0  0  0  0
   37.0130   25.0130   42.1080 C   0  0  0  0  0  3  0  0  0  0  0  0
   38.3360   24.2920   42.2570 C   0  0  0  0  0  3  0  0  0  0  0  0
   39.5860   25.6390   42.8280 S   0  0  0  0  0  0  0  0  0  0  0  0
  1  4  1  6  0  0  0
  1  3  1  0  0  0  0
  1  2  1  0  0  0  0
  2  5  1  0  0  0  0
  2  6  1  0  0  0  0
  3  2  1  0  0  0  0
  3 17  1  0  0  0  0
  3  7  1  1  0  0  0
  8 14  1  0  0  0  0
  8 13  1  0  0  0  0
  9  8  2  0  0  0  0
 10  9  1  0  0  0  0
 10 11  2  0  0  0  0
 11 12  1  0  0  0  0
 12 13  2  0  0  0  0
 12  1  1  0  0  0  0
 15  9  1  0  0  0  0
 16 10  1  0  0  0  0
 17 18  1  0  0  0  0
 19 17  1  0  0  0  0
 20 19  2  0  0  0  0
 21 20  1  0  0  0  0
 22 23  2  0  0  0  0
 22 20  1  0  0  0  0
 23 24  1  0  0  0  0
 24 19  1  0  0  0  0
M  END
>  <minimizedAffinity>
-4.2897706

$$$$

 OpenBabel03242511073D

 24 26  0  0  1  0  0  0  0  0999 V2000
   37.6200   27.7500   41.4610 C   0  0  1  0  0  0  0  0  0  0  0  0
   36.2220   28.0260   41.9290 C   0  0  0  0  0  0  0  0  0  0  0  0
   37.3640   29.0230   42.1510 C   0  0  2  0  0  0  0  0  0  0  0  0
   37.8020   27.7680   40.3690 H   0  0  0  0  0  0  0  0  0  0  0  0
   35.4900   28.1740   41.1360 H   0  0  0  0  0  0  0  0  0  0  0  0
   35.9360   27.3660   42.8010 H   0  0  0  0  0  0  0  0  0  0  0  0
   37.6470   29.0680   43.2550 H   0  0  0  0  0  0  0  0  0  0  0  0
   40.0660   26.0560   43.6790 C   0  0  0  0  0  0  0  0  0  0  0  0
   39.8950   24.6780   43.2970 C   0  0  0  0  0  0  0  0  0  0  0  0
   38.9270   24.3800   42.2860 C   0  0  0  0  0  0  0  0  0  0  0  0
   38.2320   25.3840   41.7420 N   0  0  0  0  0  0  0  0  0  0  0  0
   38.4190   26.6760   42.1250 C   0  0  0  0  0  0  0  0  0  0  0  0
   39.3300   27.0050   43.0870 N   0  0  0  0  0  0  0  0  0  0  0  0
   40.8040   26.2470   44.4450 H   0  0  0  0  0  0  0  0  0  0  0  0
   40.4400   23.8720   43.7200 H   0  0  0  0  0  0  0  0  0  0  0  0
   38.8190   23.3380   42.0190 H   0  0  0  0  0  0  0  0  0  0  0  0
   37.2800   30.2660   41.4690 N   0  0  0  0  0  0  0  0  0  0  0  0
   36.2370   30.3520   41.2280 H   0  0  0  0  0  0  0  0  0  0  0  0
   37.8400   31.4200   40.9680 C   0  0  0  0  0  0  0  0  0  0  0  0
   37.1130   32.2900   40.1450 C   0  0  0  0  0  0  0  0  0  0  0  0
   36.1220   32.3700   39.7080 H   0  0  0  0  0  0  0  0  0  0  0  0
   37.5110   33.4540   39.5780 C   0  0  0  0  0  3  0  0  0  0  0  0
   38.9480   33.6730   40.0010 C   0  0  0  0  0  3  0  0  0  0  0  0
   39.3860   32.1610   41.1100 S   0  0  0  0  0  0  0  0  0  0  0  0
  1  4  1  6  0  0  0
  1  2  1  0  0  0  0
  1 12  1  0  0  0  0
  1  3  1  0  0  0  0
  2  3  1  0  0  0  0
  2  6  1  0  0  0  0
  3  7  1  1  0  0  0
  5  2  1  0  0  0  0
  8 14  1  0  0  0  0
  9  8  1  0  0  0  0
  9 15  1  0  0  0  0
 10  9  2  0  0  0  0
 11 12  2  0  0  0  0
 11 10  1  0  0  0  0
 12 13  1  0  0  0  0
 13  8  2  0  0  0  0
 16 10  1  0  0  0  0
 17  3  1  0  0  0  0
 18 17  1  0  0  0  0
 19 24  1  0  0  0  0
 19 17  1  0  0  0  0
 20 19  2  0  0  0  0
 21 20  1  0  0  0  0
 22 23  2  0  0  0  0
 22 20  1  0  0  0  0
 23 24  1  0  0  0  0
M  END
>  <minimizedAffinity>
-4.27074766

$$$$

 OpenBabel03242511073D

 24 26  0  0  1  0  0  0  0  0999 V2000
   36.9540   27.6310   42.0820 C   0  0  1  0  0  0  0  0  0  0  0  0
   37.2880   28.2270   43.4180 C   0  0  0  0  0  0  0  0  0  0  0  0
   37.9430   28.7180   42.1230 C   0  0  2  0  0  0  0  0  0  0  0  0
   35.9490   27.8450   41.6680 H   0  0  0  0  0  0  0  0  0  0  0  0
   36.4810   28.7860   43.8890 H   0  0  0  0  0  0  0  0  0  0  0  0
   37.8830   27.5080   44.0580 H   0  0  0  0  0  0  0  0  0  0  0  0
   39.0400   28.4080   42.0860 H   0  0  0  0  0  0  0  0  0  0  0  0
   37.1610   24.3020   40.4550 C   0  0  0  0  0  0  0  0  0  0  0  0
   38.1570   23.6480   41.2630 C   0  0  0  0  0  0  0  0  0  0  0  0
   38.7330   24.3890   42.3430 C   0  0  0  0  0  0  0  0  0  0  0  0
   38.3240   25.6430   42.5560 N   0  0  0  0  0  0  0  0  0  0  0  0
   37.3780   26.2320   41.7750 C   0  0  0  0  0  0  0  0  0  0  0  0
   36.8040   25.5630   40.7330 N   0  0  0  0  0  0  0  0  0  0  0  0
   36.7460   23.7160   39.6480 H   0  0  0  0  0  0  0  0  0  0  0  0
   38.4910   22.6530   41.1040 H   0  0  0  0  0  0  0  0  0  0  0  0
   39.4790   23.8740   42.9320 H   0  0  0  0  0  0  0  0  0  0  0  0
   37.6470   30.0440   41.7110 N   0  0  0  0  0  0  0  0  0  0  0  0
   36.6550   30.2100   42.0850 H   0  0  0  0  0  0  0  0  0  0  0  0
   37.9790   31.2300   41.0930 C   0  0  0  0  0  0  0  0  0  0  0  0
   37.0840   31.8860   40.2380 C   0  0  0  0  0  0  0  0  0  0  0  0
   36.0800   31.7550   39.8440 H   0  0  0  0  0  0  0  0  0  0  0  0
   37.2520   33.0460   39.5610 C   0  0  0  0  0  3  0  0  0  0  0  0
   38.6420   33.5460   39.8960 C   0  0  0  0  0  3  0  0  0  0  0  0
   39.3750   32.2350   41.1000 S   0  0  0  0  0  0  0  0  0  0  0  0
  1  4  1  6  0  0  0
  1  3  1  0  0  0  0
  1  2  1  0  0  0  0
  2  5  1  0  0  0  0
  2  6  1  0  0  0  0
  3  7  1  6  0  0  0
  3  2  1  0  0  0  0
  8 13  2  0  0  0  0
  8  9  1  0  0  0  0
  9 10  2  0  0  0  0
 10 11  1  0  0  0  0
 10 16  1  0  0  0  0
 12  1  1  0  0  0  0
 12 11  2  0  0  0  0
 13 12  1  0  0  0  0
 14  8  1  0  0  0  0
 15  9  1  0  0  0  0
 17 18  1  0  0  0  0
 17  3  1  0  0  0  0
 19 24  1  0  0  0  0
 19 17  1  0  0  0  0
 20 19  2  0  0  0  0
 21 20  1  0  0  0  0
 22 23  2  0  0  0  0
 22 20  1  0  0  0  0
 23 24  1  0  0  0  0
M  END
>  <minimizedAffinity>
-4.26948786

$$$$

 OpenBabel03242511073D

 24 26  0  0  1  0  0  0  0  0999 V2000
   38.4390   30.1280   41.2390 C   0  0  1  0  0  0  0  0  0  0  0  0
   38.8610   29.8150   42.6440 C   0  0  0  0  0  0  0  0  0  0  0  0
   37.4190   29.6140   42.1660 C   0  0  2  0  0  0  0  0  0  0  0  0
   38.8090   29.4600   40.4370 H   0  0  0  0  0  0  0  0  0  0  0  0
   39.5450   28.9730   42.7440 H   0  0  0  0  0  0  0  0  0  0  0  0
   39.0850   30.7550   43.2320 H   0  0  0  0  0  0  0  0  0  0  0  0
   36.7290   30.3870   42.6410 H   0  0  0  0  0  0  0  0  0  0  0  0
   37.3050   33.2610   39.6060 C   0  0  0  0  0  0  0  0  0  0  0  0
   38.3810   34.1610   39.9320 C   0  0  0  0  0  0  0  0  0  0  0  0
   39.4630   33.6520   40.7170 C   0  0  0  0  0  0  0  0  0  0  0  0
   39.4310   32.3750   41.1090 N   0  0  0  0  0  0  0  0  0  0  0  0
   38.3990   31.5500   40.7830 C   0  0  0  0  0  0  0  0  0  0  0  0
   37.3460   31.9940   40.0370 N   0  0  0  0  0  0  0  0  0  0  0  0
   36.5040   33.6770   39.0120 H   0  0  0  0  0  0  0  0  0  0  0  0
   38.4180   35.1770   39.6260 H   0  0  0  0  0  0  0  0  0  0  0  0
   40.2570   34.3490   40.9470 H   0  0  0  0  0  0  0  0  0  0  0  0
   36.9340   28.2800   42.1160 N   0  0  0  0  0  0  0  0  0  0  0  0
   36.1260   28.2780   42.8220 H   0  0  0  0  0  0  0  0  0  0  0  0
   36.9570   26.9950   41.6220 C   0  0  0  0  0  0  0  0  0  0  0  0
   36.9810   25.8830   42.4740 C   0  0  0  0  0  0  0  0  0  0  0  0
   36.9930   25.6640   43.5380 H   0  0  0  0  0  0  0  0  0  0  0  0
   37.0030   24.5670   42.1530 C   0  0  0  0  0  3  0  0  0  0  0  0
   36.9970   24.4900   40.6400 C   0  0  0  0  0  3  0  0  0  0  0  0
   36.9620   26.3180   40.0400 S   0  0  0  0  0  0  0  0  0  0  0  0
  1  4  1  6  0  0  0
  1  3  1  0  0  0  0
  1  2  1  0  0  0  0
  2  5  1  0  0  0  0
  2  6  1  0  0  0  0
  3  7  1  1  0  0  0
  3  2  1  0  0  0  0
  8  9  2  0  0  0  0
  8 13  1  0  0  0  0
  9 10  1  0  0  0  0
 10 16  1  0  0  0  0
 10 11  2  0  0  0  0
 12 11  1  0  0  0  0
 12  1  1  0  0  0  0
 13 12  2  0  0  0  0
 14  8  1  0  0  0  0
 15  9  1  0  0  0  0
 17  3  1  0  0  0  0
 17 18  1  0  0  0  0
 19 17  1  0  0  0  0
 19 20  2  0  0  0  0
 20 21  1  0  0  0  0
 22 20  1  0  0  0  0
 23 22  2  0  0  0  0
 24 23  1  0  0  0  0
 24 19  1  0  0  0  0
M  END
>  <minimizedAffinity>
-4.2324214

$$$$

 OpenBabel03242511073D

 24 26  0  0  1  0  0  0  0  0999 V2000
   38.1620   28.7230   42.3050 C   0  0  1  0  0  0  0  0  0  0  0  0
   37.5910   28.5360   43.6800 C   0  0  0  0  0  0  0  0  0  0  0  0
   37.0030   27.8310   42.4530 C   0  0  2  0  0  0  0  0  0  0  0  0
   39.1530   28.2730   42.1020 H   0  0  0  0  0  0  0  0  0  0  0  0
   38.2360   28.0070   44.3800 H   0  0  0  0  0  0  0  0  0  0  0  0
   37.0630   29.4690   44.0430 H   0  0  0  0  0  0  0  0  0  0  0  0
   35.9850   28.2720   42.1880 H   0  0  0  0  0  0  0  0  0  0  0  0
   38.9660   32.0900   40.9670 C   0  0  0  0  0  0  0  0  0  0  0  0
   37.7040   32.4800   40.3930 C   0  0  0  0  0  0  0  0  0  0  0  0
   36.6160   31.5570   40.4810 C   0  0  0  0  0  0  0  0  0  0  0  0
   36.8130   30.3830   41.0890 N   0  0  0  0  0  0  0  0  0  0  0  0
   38.0180   30.0450   41.6230 C   0  0  0  0  0  0  0  0  0  0  0  0
   39.0840   30.8950   41.5600 N   0  0  0  0  0  0  0  0  0  0  0  0
   39.7670   32.8100   40.8840 H   0  0  0  0  0  0  0  0  0  0  0  0
   37.5350   33.4090   39.9080 H   0  0  0  0  0  0  0  0  0  0  0  0
   35.6810   31.8740   40.0410 H   0  0  0  0  0  0  0  0  0  0  0  0
   37.1090   26.4160   42.4080 N   0  0  0  0  0  0  0  0  0  0  0  0
   36.6180   26.0960   43.3080 H   0  0  0  0  0  0  0  0  0  0  0  0
   37.5050   25.2430   41.8040 C   0  0  0  0  0  0  0  0  0  0  0  0
   36.6050   24.4520   41.0790 C   0  0  0  0  0  0  0  0  0  0  0  0
   35.5560   24.4510   40.7970 H   0  0  0  0  0  0  0  0  0  0  0  0
   36.8310   23.2850   40.4290 C   0  0  0  0  0  3  0  0  0  0  0  0
   38.2960   22.9570   40.6270 C   0  0  0  0  0  3  0  0  0  0  0  0
   38.9990   24.3960   41.6940 S   0  0  0  0  0  0  0  0  0  0  0  0
  1  4  1  6  0  0  0
  1  3  1  0  0  0  0
  1  2  1  0  0  0  0
  2  6  1  0  0  0  0
  2  5  1  0  0  0  0
  3  7  1  6  0  0  0
  3  2  1  0  0  0  0
  8 13  1  0  0  0  0
  9 10  1  0  0  0  0
  9  8  2  0  0  0  0
 10 11  2  0  0  0  0
 11 12  1  0  0  0  0
 12  1  1  0  0  0  0
 13 12  2  0  0  0  0
 14  8  1  0  0  0  0
 15  9  1  0  0  0  0
 16 10  1  0  0  0  0
 17  3  1  0  0  0  0
 17 18  1  0  0  0  0
 19 17  1  0  0  0  0
 20 19  2  0  0  0  0
 21 20  1  0  0  0  0
 22 23  2  0  0  0  0
 22 20  1  0  0  0  0
 23 24  1  0  0  0  0
 24 19  1  0  0  0  0
M  END
>  <minimizedAffinity>
-4.18115425

$$$$

 OpenBabel03242511073D

 24 26  0  0  1  0  0  0  0  0999 V2000
   36.6790   29.2000   40.8870 C   0  0  1  0  0  0  0  0  0  0  0  0
   35.2340   29.0940   40.4960 C   0  0  0  0  0  0  0  0  0  0  0  0
   36.3470   28.4220   39.6840 C   0  0  2  0  0  0  0  0  0  0  0  0
   36.9990   28.6560   41.7970 H   0  0  0  0  0  0  0  0  0  0  0  0
   34.6110   28.5210   41.1810 H   0  0  0  0  0  0  0  0  0  0  0  0
   34.8330   30.0780   40.1080 H   0  0  0  0  0  0  0  0  0  0  0  0
   36.4870   28.9500   38.6830 H   0  0  0  0  0  0  0  0  0  0  0  0
   39.2030   31.8850   41.3170 C   0  0  0  0  0  0  0  0  0  0  0  0
   38.6130   32.9590   40.5600 C   0  0  0  0  0  0  0  0  0  0  0  0
   37.3600   32.7120   39.9150 C   0  0  0  0  0  0  0  0  0  0  0  0
   36.7940   31.5090   40.0440 N   0  0  0  0  0  0  0  0  0  0  0  0
   37.3770   30.5150   40.7690 C   0  0  0  0  0  0  0  0  0  0  0  0
   38.5730   30.7070   41.3980 N   0  0  0  0  0  0  0  0  0  0  0  0
   40.1490   32.1040   41.7910 H   0  0  0  0  0  0  0  0  0  0  0  0
   39.0520   33.9190   40.4500 H   0  0  0  0  0  0  0  0  0  0  0  0
   36.9410   33.5350   39.3530 H   0  0  0  0  0  0  0  0  0  0  0  0
   36.3600   27.0020   39.6570 N   0  0  0  0  0  0  0  0  0  0  0  0
   35.6610   26.7580   38.8800 H   0  0  0  0  0  0  0  0  0  0  0  0
   36.8130   25.7800   40.1020 C   0  0  0  0  0  0  0  0  0  0  0  0
   37.0800   25.5470   41.4580 C   0  0  0  0  0  0  0  0  0  0  0  0
   37.0470   26.0790   42.4040 H   0  0  0  0  0  0  0  0  0  0  0  0
   37.5240   24.4150   42.0530 C   0  0  0  0  0  3  0  0  0  0  0  0
   37.6960   23.3870   40.9550 C   0  0  0  0  0  3  0  0  0  0  0  0
   37.1810   24.2860   39.3330 S   0  0  0  0  0  0  0  0  0  0  0  0
  1  4  1  1  0  0  0
  2  1  1  0  0  0  0
  2  5  1  0  0  0  0
  3  7  1  6  0  0  0
  3  2  1  0  0  0  0
  3  1  1  0  0  0  0
  6  2  1  0  0  0  0
  8 13  1  0  0  0  0
  8 14  1  0  0  0  0
  9  8  2  0  0  0  0
 10 11  2  0  0  0  0
 10  9  1  0  0  0  0
 11 12  1  0  0  0  0
 12  1  1  0  0  0  0
 12 13  2  0  0  0  0
 15  9  1  0  0  0  0
 16 10  1  0  0  0  0
 17  3  1  0  0  0  0
 17 19  1  0  0  0  0
 18 17  1  0  0  0  0
 19 20  2  0  0  0  0
 20 22  1  0  0  0  0
 20 21  1  0  0  0  0
 23 22  2  0  0  0  0
 24 19  1  0  0  0  0
 24 23  1  0  0  0  0
M  END
>  <minimizedAffinity>
-3.8809433

$$$$

 OpenBabel03242511073D

 24 26  0  0  1  0  0  0  0  0999 V2000
   37.5270   27.8660   42.2540 C   0  0  1  0  0  0  0  0  0  0  0  0
   37.3800   28.3100   43.6800 C   0  0  0  0  0  0  0  0  0  0  0  0
   38.6160   28.6580   42.8430 C   0  0  2  0  0  0  0  0  0  0  0  0
   36.8700   28.3470   41.5030 H   0  0  0  0  0  0  0  0  0  0  0  0
   36.5940   29.0430   43.8570 H   0  0  0  0  0  0  0  0  0  0  0  0
   37.4710   27.4420   44.3990 H   0  0  0  0  0  0  0  0  0  0  0  0
   39.5250   28.0770   43.2110 H   0  0  0  0  0  0  0  0  0  0  0  0
   37.1140   24.5120   40.7210 C   0  0  0  0  0  0  0  0  0  0  0  0
   38.0850   23.7400   41.4520 C   0  0  0  0  0  0  0  0  0  0  0  0
   38.8600   24.4120   42.4490 C   0  0  0  0  0  0  0  0  0  0  0  0
   38.6500   25.7150   42.6600 N   0  0  0  0  0  0  0  0  0  0  0  0
   37.7220   26.4160   41.9520 C   0  0  0  0  0  0  0  0  0  0  0  0
   36.9630   25.8150   40.9910 N   0  0  0  0  0  0  0  0  0  0  0  0
   36.5460   23.9750   39.9760 H   0  0  0  0  0  0  0  0  0  0  0  0
   38.2620   22.7060   41.2940 H   0  0  0  0  0  0  0  0  0  0  0  0
   39.5820   23.8100   42.9810 H   0  0  0  0  0  0  0  0  0  0  0  0
   38.8240   30.0290   42.5370 N   0  0  0  0  0  0  0  0  0  0  0  0
   38.0530   30.5320   43.0890 H   0  0  0  0  0  0  0  0  0  0  0  0
   39.5100   31.0460   41.9100 C   0  0  0  0  0  0  0  0  0  0  0  0
   40.9070   31.1300   41.9640 C   0  0  0  0  0  0  0  0  0  0  0  0
   41.7460   30.5900   42.3940 H   0  0  0  0  0  0  0  0  0  0  0  0
   41.7240   32.0550   41.4060 C   0  0  0  0  0  3  0  0  0  0  0  0
   40.8320   33.0380   40.6770 C   0  0  0  0  0  3  0  0  0  0  0  0
   39.0380   32.4030   40.9630 S   0  0  0  0  0  0  0  0  0  0  0  0
  1  4  1  6  0  0  0
  1  3  1  0  0  0  0
  1  2  1  0  0  0  0
  2  5  1  0  0  0  0
  2  6  1  0  0  0  0
  3  7  1  1  0  0  0
  3  2  1  0  0  0  0
  8 13  2  0  0  0  0
  8  9  1  0  0  0  0
  9 10  2  0  0  0  0
 10 11  1  0  0  0  0
 10 16  1  0  0  0  0
 12  1  1  0  0  0  0
 12 11  2  0  0  0  0
 13 12  1  0  0  0  0
 14  8  1  0  0  0  0
 15  9  1  0  0  0  0
 17  3  1  0  0  0  0
 17 18  1  0  0  0  0
 19 20  2  0  0  0  0
 19 17  1  0  0  0  0
 20 21  1  0  0  0  0
 22 20  1  0  0  0  0
 23 24  1  0  0  0  0
 23 22  2  0  0  0  0
 24 19  1  0  0  0  0
M  END
>  <minimizedAffinity>
-3.86820436

$$$$

 OpenBabel03242511073D

 24 26  0  0  1  0  0  0  0  0999 V2000
   35.3700   28.4060   38.8430 C   0  0  1  0  0  0  0  0  0  0  0  0
   35.9050   29.7980   39.0120 C   0  0  0  0  0  0  0  0  0  0  0  0
   35.0610   29.1140   40.0940 C   0  0  2  0  0  0  0  0  0  0  0  0
   36.1010   27.5750   38.8720 H   0  0  0  0  0  0  0  0  0  0  0  0
   36.9880   29.8690   39.1030 H   0  0  0  0  0  0  0  0  0  0  0  0
   35.3780   30.5330   38.3330 H   0  0  0  0  0  0  0  0  0  0  0  0
   34.0310   29.5980   40.1620 H   0  0  0  0  0  0  0  0  0  0  0  0
   32.4420   28.9190   36.6220 C   0  0  0  0  0  0  0  0  0  0  0  0
   32.3200   27.6250   36.0030 C   0  0  0  0  0  0  0  0  0  0  0  0
   33.2650   26.6170   36.3710 C   0  0  0  0  0  0  0  0  0  0  0  0
   34.2120   26.9140   37.2670 N   0  0  0  0  0  0  0  0  0  0  0  0
   34.2990   28.1480   37.8340 C   0  0  0  0  0  0  0  0  0  0  0  0
   33.4190   29.1400   37.5110 N   0  0  0  0  0  0  0  0  0  0  0  0
   31.7130   29.6580   36.3220 H   0  0  0  0  0  0  0  0  0  0  0  0
   31.5730   27.3750   35.2910 H   0  0  0  0  0  0  0  0  0  0  0  0
   33.1510   25.6550   35.8910 H   0  0  0  0  0  0  0  0  0  0  0  0
   35.7040   28.8200   41.3250 N   0  0  0  0  0  0  0  0  0  0  0  0
   35.0200   29.1920   42.0630 H   0  0  0  0  0  0  0  0  0  0  0  0
   36.7430   28.2930   42.0610 C   0  0  0  0  0  0  0  0  0  0  0  0
   37.0580   26.9290   42.0110 C   0  0  0  0  0  0  0  0  0  0  0  0
   36.7100   26.0230   41.5230 H   0  0  0  0  0  0  0  0  0  0  0  0
   38.0380   26.2600   42.6640 C   0  0  0  0  0  3  0  0  0  0  0  0
   38.7770   27.2820   43.5020 C   0  0  0  0  0  3  0  0  0  0  0  0
   37.8930   28.9560   43.1550 S   0  0  0  0  0  0  0  0  0  0  0  0
  1  4  1  1  0  0  0
  1  2  1  0  0  0  0
  1  3  1  0  0  0  0
  2  5  1  0  0  0  0
  2  3  1  0  0  0  0
  3  7  1  1  0  0  0
  3 17  1  0  0  0  0
  6  2  1  0  0  0  0
  8 13  1  0  0  0  0
  9 10  1  0  0  0  0
  9  8  2  0  0  0  0
 10 11  2  0  0  0  0
 11 12  1  0  0  0  0
 12  1  1  0  0  0  0
 13 12  2  0  0  0  0
 14  8  1  0  0  0  0
 15  9  1  0  0  0  0
 16 10  1  0  0  0  0
 17 19  1  0  0  0  0
 17 18  1  0  0  0  0
 19 24  1  0  0  0  0
 20 19  2  0  0  0  0
 20 22  1  0  0  0  0
 21 20  1  0  0  0  0
 22 23  2  0  0  0  0
 24 23  1  0  0  0  0
M  END
>  <minimizedAffinity>
-3.86714125

$$$$

 OpenBabel03242511073D

 24 26  0  0  1  0  0  0  0  0999 V2000
   36.0620   29.6880   40.3120 C   0  0  1  0  0  0  0  0  0  0  0  0
   36.5890   31.0260   39.8830 C   0  0  0  0  0  0  0  0  0  0  0  0
   36.7620   29.7700   39.0220 C   0  0  2  0  0  0  0  0  0  0  0  0
   34.9630   29.5510   40.3090 H   0  0  0  0  0  0  0  0  0  0  0  0
   35.8270   31.7690   39.6500 H   0  0  0  0  0  0  0  0  0  0  0  0
   37.4720   31.3480   40.5110 H   0  0  0  0  0  0  0  0  0  0  0  0
   37.8530   29.4380   39.0140 H   0  0  0  0  0  0  0  0  0  0  0  0
   38.0730   29.0680   43.3680 C   0  0  0  0  0  0  0  0  0  0  0  0
   37.8610   27.6590   43.5710 C   0  0  0  0  0  0  0  0  0  0  0  0
   37.0180   26.9690   42.6440 C   0  0  0  0  0  0  0  0  0  0  0  0
   36.4700   27.6550   41.6360 N   0  0  0  0  0  0  0  0  0  0  0  0
   36.6920   28.9880   41.4720 C   0  0  0  0  0  0  0  0  0  0  0  0
   37.4870   29.6850   42.3340 N   0  0  0  0  0  0  0  0  0  0  0  0
   38.7140   29.5590   44.0860 H   0  0  0  0  0  0  0  0  0  0  0  0
   38.2900   27.1020   44.3670 H   0  0  0  0  0  0  0  0  0  0  0  0
   36.8760   25.9120   42.8200 H   0  0  0  0  0  0  0  0  0  0  0  0
   36.0850   29.7430   37.7740 N   0  0  0  0  0  0  0  0  0  0  0  0
   36.5900   30.4930   37.1950 H   0  0  0  0  0  0  0  0  0  0  0  0
   35.1250   29.2460   36.9200 C   0  0  0  0  0  0  0  0  0  0  0  0
   33.8220   28.9780   37.3590 C   0  0  0  0  0  0  0  0  0  0  0  0
   33.2350   29.0370   38.2710 H   0  0  0  0  0  0  0  0  0  0  0  0
   32.7710   28.4940   36.6550 C   0  0  0  0  0  3  0  0  0  0  0  0
   33.2620   28.2770   35.2390 C   0  0  0  0  0  3  0  0  0  0  0  0
   35.1090   28.8170   35.2540 S   0  0  0  0  0  0  0  0  0  0  0  0
  1  4  1  6  0  0  0
  1 12  1  0  0  0  0
  2  1  1  0  0  0  0
  2  6  1  0  0  0  0
  3  7  1  6  0  0  0
  3  2  1  0  0  0  0
  3  1  1  0  0  0  0
  5  2  1  0  0  0  0
  8  9  1  0  0  0  0
  8 14  1  0  0  0  0
  9 15  1  0  0  0  0
 10 16  1  0  0  0  0
 10  9  2  0  0  0  0
 11 10  1  0  0  0  0
 12 11  2  0  0  0  0
 12 13  1  0  0  0  0
 13  8  2  0  0  0  0
 17  3  1  0  0  0  0
 18 17  1  0  0  0  0
 19 20  2  0  0  0  0
 19 17  1  0  0  0  0
 20 21  1  0  0  0  0
 22 20  1  0  0  0  0
 23 24  1  0  0  0  0
 23 22  2  0  0  0  0
 24 19  1  0  0  0  0
M  END
>  <minimizedAffinity>
-3.82817268

$$$$
