
 OpenBabel03252504533D

 18 19  0  0  0  0  0  0  0  0999 V2000
   42.6800   35.4590   41.4380 C   0  0  0  0  0  0  0  0  0  0  0  0
   43.8000   34.7140   41.8460 C   0  0  0  0  0  0  0  0  0  0  0  0
   44.3430   33.8400   40.9120 C   0  0  0  0  0  0  0  0  0  0  0  0
   43.7690   33.7510   39.6660 N   0  0  0  0  0  0  0  0  0  0  0  0
   42.6910   34.4920   39.3320 C   0  0  0  0  0  0  0  0  0  0  0  0
   42.1510   35.3410   40.2150 N   0  0  0  0  0  0  0  0  0  0  0  0
   42.2770   36.1360   42.1910 H   0  0  0  0  0  0  0  0  0  0  0  0
   44.2230   34.8060   42.8180 H   0  0  0  0  0  0  0  0  0  0  0  0
   42.2430   34.4180   38.3510 H   0  0  0  0  0  0  0  0  0  0  0  0
   45.5110   33.0630   41.3350 C   0  0  0  0  0  0  0  0  0  0  0  0
   45.4200   32.7210   42.3890 H   0  0  0  0  0  0  0  0  0  0  0  0
   45.6460   32.1880   40.6720 H   0  0  0  0  0  0  0  0  0  0  0  0
   46.7220   33.9160   41.2700 C   0  0  0  0  0  0  0  0  0  0  0  0
   47.4470   34.3380   40.2000 C   0  0  0  0  0  0  0  0  0  0  0  0
   47.1280   34.0280   39.2150 H   0  0  0  0  0  0  0  0  0  0  0  0
   48.5410   35.1330   40.4420 C   0  0  0  0  0  3  0  0  0  0  0  0
   48.8560   35.4660   41.7190 C   0  0  0  0  0  3  0  0  0  0  0  0
   47.5380   34.6160   42.6960 S   0  0  0  0  0  0  0  0  0  0  0  0
  1  2  1  0  0  0  0
  1  7  1  0  0  0  0
  2  8  1  0  0  0  0
  3 10  1  0  0  0  0
  3  2  2  0  0  0  0
  4  3  1  0  0  0  0
  5  4  2  0  0  0  0
  5  6  1  0  0  0  0
  6  1  2  0  0  0  0
  9  5  1  0  0  0  0
 10 11  1  0  0  0  0
 12 10  1  0  0  0  0
 13 10  1  0  0  0  0
 13 18  1  0  0  0  0
 14 16  1  0  0  0  0
 14 13  2  0  0  0  0
 15 14  1  0  0  0  0
 16 17  2  0  0  0  0
 17 18  1  0  0  0  0
M  END
>  <minimizedAffinity>
-3.34733701

>  <minimizedRMSD>
3.80612564

$$$$
