
 OpenBabel03242523533D

 42 45  0  0  1  0  0  0  0  0999 V2000
   42.8080   34.3740   38.9020 C   0  0  1  0  0  0  0  0  0  0  0  0
   43.0290   35.1780   40.1740 C   0  0  1  0  0  0  0  0  0  0  0  0
   41.7770   35.5950   40.6590 O   0  0  0  0  0  0  0  0  0  0  0  0
   40.8790   35.9050   39.6350 C   0  0  0  0  0  0  0  0  0  0  0  0
   40.4430   34.6670   38.8730 C   0  0  2  0  0  0  0  0  0  0  0  0
   41.5560   33.5890   39.1200 C   0  0  1  0  0  0  0  0  0  0  0  0
   43.6920   33.7220   38.6910 H   0  0  0  0  0  0  0  0  0  0  0  0
   43.7130   36.0290   40.0360 H   0  0  0  0  0  0  0  0  0  0  0  0
   39.9900   36.3190   40.1230 H   0  0  0  0  0  0  0  0  0  0  0  0
   41.2730   36.6910   38.9610 H   0  0  0  0  0  0  0  0  0  0  0  0
   39.4700   34.2870   39.2190 H   0  0  0  0  0  0  0  0  0  0  0  0
   41.3280   33.4620   40.2310 H   0  0  0  0  0  0  0  0  0  0  0  0
   42.6760   35.2180   37.7900 O   0  0  0  0  0  0  0  0  0  0  0  0
   43.5300   35.5930   37.5220 H   0  0  0  0  0  0  0  0  0  0  0  0
   40.4850   34.9220   37.5100 O   0  0  0  0  0  0  0  0  0  0  0  0
   39.5860   35.1830   37.1560 H   0  0  0  0  0  0  0  0  0  0  0  0
   43.4730   34.2500   41.1280 O   0  0  0  0  0  0  0  0  0  0  0  0
   44.6090   34.3510   41.8290 C   0  0  0  0  0  0  0  0  0  0  0  0
   45.8480   34.4760   41.1820 C   0  0  0  0  0  0  0  0  0  0  0  0
   46.9920   34.5790   41.9570 C   0  0  0  0  0  0  0  0  0  0  0  0
   46.8790   34.5550   43.3360 N   0  0  0  0  0  0  0  0  0  0  0  0
   45.6670   34.4340   43.9230 C   0  0  0  0  0  0  0  0  0  0  0  0
   44.5380   34.3310   43.1730 N   0  0  0  0  0  0  0  0  0  0  0  0
   45.9430   34.4950   40.1110 H   0  0  0  0  0  0  0  0  0  0  0  0
   45.6550   34.4220   45.0060 H   0  0  0  0  0  0  0  0  0  0  0  0
   48.3480   34.6990   41.3420 C   0  0  0  0  0  0  0  0  0  0  0  0
   49.0680   36.0350   41.5280 C   0  0  0  0  0  0  0  0  0  0  0  0
   49.5280   34.7020   42.1470 C   0  0  0  0  0  0  0  0  0  0  0  0
   48.3780   34.3330   40.2770 H   0  0  0  0  0  0  0  0  0  0  0  0
   48.6410   36.7480   42.2330 H   0  0  0  0  0  0  0  0  0  0  0  0
   49.7220   36.3820   40.7060 H   0  0  0  0  0  0  0  0  0  0  0  0
   50.4750   34.2550   41.7790 H   0  0  0  0  0  0  0  0  0  0  0  0
   49.4200   34.6120   43.2560 H   0  0  0  0  0  0  0  0  0  0  0  0
   41.3150   32.5600   38.2850 O   0  0  0  0  0  0  0  0  0  0  0  0
   40.4400   31.5600   38.3710 C   0  0  0  0  0  0  0  0  0  0  0  0
   40.2150   30.7100   37.3830 O   0  0  0  0  0  0  0  0  0  0  0  0
   39.4690   31.0600   39.5220 C   0  0  0  0  0  0  0  0  0  0  0  0
   38.4100   31.5590   40.0520 C   0  0  0  0  0  0  0  0  0  0  0  0
   38.0990   32.5110   39.6350 H   0  0  0  0  0  0  0  0  0  0  0  0
   37.7740   30.8970   41.0550 C   0  0  0  0  0  3  0  0  0  0  0  0
   38.3400   29.6810   41.4470 C   0  0  0  0  0  3  0  0  0  0  0  0
   39.8530   29.5670   40.2640 S   0  0  0  0  0  0  0  0  0  0  0  0
  1  7  1  6  0  0  0
  1  6  1  0  0  0  0
  1  2  1  0  0  0  0
  2  8  1  6  0  0  0
  2  3  1  0  0  0  0
  2 17  1  0  0  0  0
  4  9  1  0  0  0  0
  4  3  1  0  0  0  0
  5  6  1  0  0  0  0
  5 11  1  1  0  0  0
  5  4  1  0  0  0  0
  6 12  1  1  0  0  0
 10  4  1  0  0  0  0
 13  1  1  0  0  0  0
 14 13  1  0  0  0  0
 15  5  1  0  0  0  0
 16 15  1  0  0  0  0
 17 18  1  0  0  0  0
 18 23  1  0  0  0  0
 19 18  2  0  0  0  0
 19 20  1  0  0  0  0
 20 21  2  0  0  0  0
 21 22  1  0  0  0  0
 22 25  1  0  0  0  0
 23 22  2  0  0  0  0
 24 19  1  0  0  0  0
 26 27  1  0  0  0  0
 26 20  1  0  0  0  0
 26 28  1  0  0  0  0
 27 28  1  0  0  0  0
 27 30  1  0  0  0  0
 28 33  1  0  0  0  0
 29 26  1  0  0  0  0
 31 27  1  0  0  0  0
 32 28  1  0  0  0  0
 34 35  1  0  0  0  0
 34  6  1  0  0  0  0
 35 37  1  0  0  0  0
 36 35  2  0  0  0  0
 37 38  2  0  0  0  0
 37 42  1  0  0  0  0
 38 40  1  0  0  0  0
 39 38  1  0  0  0  0
 40 41  2  0  0  0  0
 42 41  1  0  0  0  0
M  END
>  <minimizedAffinity>
-6.21631908

>  <minimizedRMSD>
1.88182318

$$$$
