
 OpenBabel03252509263D

 27 29  0  0  1  0  0  0  0  0999 V2000
   47.0600   35.1990   41.7760 C   0  0  1  0  0  0  0  0  0  0  0  0
   48.5750   35.5460   41.8660 C   0  0  0  0  0  0  0  0  0  0  0  0
   47.9380   34.3690   41.0590 C   0  0  2  0  0  0  0  0  0  0  0  0
   46.4660   36.0090   41.3060 H   0  0  0  0  0  0  0  0  0  0  0  0
   49.1230   35.3130   42.7720 H   0  0  0  0  0  0  0  0  0  0  0  0
   48.9130   36.3810   41.2320 H   0  0  0  0  0  0  0  0  0  0  0  0
   48.1900   33.3700   41.5350 H   0  0  0  0  0  0  0  0  0  0  0  0
   45.0020   34.8310   44.8930 C   0  0  0  0  0  0  0  0  0  0  0  0
   45.4510   35.3610   43.6440 C   0  0  0  0  0  0  0  0  0  0  0  0
   46.5400   34.7560   43.1150 C   0  0  0  0  0  0  0  0  0  0  0  0
   47.1690   33.7000   43.7490 N   0  0  0  0  0  0  0  0  0  0  0  0
   46.7090   33.2300   44.9350 C   0  0  0  0  0  0  0  0  0  0  0  0
   45.6230   33.7990   45.5070 N   0  0  0  0  0  0  0  0  0  0  0  0
   44.1250   35.3230   45.3110 H   0  0  0  0  0  0  0  0  0  0  0  0
   47.1920   32.4060   45.4410 H   0  0  0  0  0  0  0  0  0  0  0  0
   44.8140   36.4530   43.0110 N   0  0  0  0  0  0  0  0  0  0  0  0
   44.7480   37.4700   43.2830 H   0  0  0  0  0  0  0  0  0  0  0  0
   44.4010   36.0060   42.1690 H   0  0  0  0  0  0  0  0  0  0  0  0
   48.0200   34.4170   39.5500 C   0  0  0  0  0  0  0  0  0  0  0  0
   46.9530   34.4400   39.1940 H   0  0  0  0  0  0  0  0  0  0  0  0
   48.5920   35.3020   39.2030 H   0  0  0  0  0  0  0  0  0  0  0  0
   48.5910   33.1510   39.0570 C   0  0  0  0  0  0  0  0  0  0  0  0
   48.9960   31.9750   39.6190 C   0  0  0  0  0  0  0  0  0  0  0  0
   48.9030   31.8730   40.6910 H   0  0  0  0  0  0  0  0  0  0  0  0
   49.4930   31.0020   38.7870 C   0  0  0  0  0  3  0  0  0  0  0  0
   49.5570   31.2570   37.4440 C   0  0  0  0  0  3  0  0  0  0  0  0
   48.8660   33.0000   37.3470 S   0  0  0  0  0  0  0  0  0  0  0  0
  1  4  1  6  0  0  0
  1  2  1  0  0  0  0
  1 10  1  0  0  0  0
  2  5  1  0  0  0  0
  3  7  1  1  0  0  0
  3  1  1  0  0  0  0
  3  2  1  0  0  0  0
  6  2  1  0  0  0  0
  8 14  1  0  0  0  0
  8 13  1  0  0  0  0
  9  8  2  0  0  0  0
 10  9  1  0  0  0  0
 10 11  2  0  0  0  0
 11 12  1  0  0  0  0
 12 15  1  0  0  0  0
 12 13  2  0  0  0  0
 16 17  1  0  0  0  0
 16  9  1  0  0  0  0
 18 16  1  0  0  0  0
 19  3  1  0  0  0  0
 20 19  1  0  0  0  0
 21 19  1  0  0  0  0
 22 19  1  0  0  0  0
 22 23  2  0  0  0  0
 23 24  1  0  0  0  0
 25 23  1  0  0  0  0
 26 25  2  0  0  0  0
 27 26  1  0  0  0  0
 27 22  1  0  0  0  0
M  END
>  <minimizedAffinity>
-4.56172991

>  <minimizedRMSD>
0.76507014

$$$$
