
 OpenBabel03252509263D

 27 29  0  0  1  0  0  0  0  0999 V2000
   46.6640   35.0960   41.9230 C   0  0  1  0  0  0  0  0  0  0  0  0
   48.1740   35.4740   41.9620 C   0  0  0  0  0  0  0  0  0  0  0  0
   47.5550   34.1820   41.3350 C   0  0  2  0  0  0  0  0  0  0  0  0
   46.0600   35.8200   41.3390 H   0  0  0  0  0  0  0  0  0  0  0  0
   48.7220   35.3830   42.8920 H   0  0  0  0  0  0  0  0  0  0  0  0
   48.5020   36.2110   41.2120 H   0  0  0  0  0  0  0  0  0  0  0  0
   47.8190   33.2670   41.9520 H   0  0  0  0  0  0  0  0  0  0  0  0
   44.7060   35.2850   45.1190 C   0  0  0  0  0  0  0  0  0  0  0  0
   45.1690   35.6380   43.8130 C   0  0  0  0  0  0  0  0  0  0  0  0
   46.1470   34.8470   43.3110 C   0  0  0  0  0  0  0  0  0  0  0  0
   46.6570   33.7760   44.0220 N   0  0  0  0  0  0  0  0  0  0  0  0
   46.1890   33.4790   45.2600 C   0  0  0  0  0  0  0  0  0  0  0  0
   45.2120   34.2370   45.8070 N   0  0  0  0  0  0  0  0  0  0  0  0
   43.9200   35.9250   45.5160 H   0  0  0  0  0  0  0  0  0  0  0  0
   46.5800   32.6450   45.8260 H   0  0  0  0  0  0  0  0  0  0  0  0
   44.6550   36.7460   43.1010 N   0  0  0  0  0  0  0  0  0  0  0  0
   44.7350   37.7820   43.2790 H   0  0  0  0  0  0  0  0  0  0  0  0
   44.1530   36.2850   42.3160 H   0  0  0  0  0  0  0  0  0  0  0  0
   47.6410   34.0100   39.8360 C   0  0  0  0  0  0  0  0  0  0  0  0
   46.6330   33.6200   39.5220 H   0  0  0  0  0  0  0  0  0  0  0  0
   47.8910   34.9660   39.3310 H   0  0  0  0  0  0  0  0  0  0  0  0
   48.6090   32.9430   39.5260 C   0  0  0  0  0  0  0  0  0  0  0  0
   49.1500   32.4120   38.3920 C   0  0  0  0  0  0  0  0  0  0  0  0
   48.8360   32.8270   37.4450 H   0  0  0  0  0  0  0  0  0  0  0  0
   50.0530   31.3860   38.5280 C   0  0  0  0  0  3  0  0  0  0  0  0
   50.3650   30.9510   39.7890 C   0  0  0  0  0  3  0  0  0  0  0  0
   49.3060   32.0700   40.8590 S   0  0  0  0  0  0  0  0  0  0  0  0
  1  4  1  6  0  0  0
  1  2  1  0  0  0  0
  1 10  1  0  0  0  0
  2  5  1  0  0  0  0
  3  1  1  0  0  0  0
  3  7  1  1  0  0  0
  3  2  1  0  0  0  0
  6  2  1  0  0  0  0
  8 14  1  0  0  0  0
  8 13  1  0  0  0  0
  9  8  2  0  0  0  0
 10  9  1  0  0  0  0
 10 11  2  0  0  0  0
 11 12  1  0  0  0  0
 12 13  2  0  0  0  0
 12 15  1  0  0  0  0
 16 17  1  0  0  0  0
 16  9  1  0  0  0  0
 18 16  1  0  0  0  0
 19  3  1  0  0  0  0
 20 19  1  0  0  0  0
 21 19  1  0  0  0  0
 22 19  1  0  0  0  0
 22 27  1  0  0  0  0
 23 25  1  0  0  0  0
 23 22  2  0  0  0  0
 24 23  1  0  0  0  0
 25 26  2  0  0  0  0
 26 27  1  0  0  0  0
M  END
>  <minimizedAffinity>
-4.60890722

>  <minimizedRMSD>
0.485676199

$$$$
