
 OpenBabel03252508463D

 42 44  0  0  0  0  0  0  0  0999 V2000
   42.9930   32.4410   41.6900 C   0  0  0  0  0  0  0  0  0  0  0  0
   42.0660   32.8920   41.2910 H   0  0  0  0  0  0  0  0  0  0  0  0
   43.5440   32.0250   40.7970 H   0  0  0  0  0  0  0  0  0  0  0  0
   43.6720   34.8410   41.9120 C   0  0  0  0  0  0  0  0  0  0  0  0
   43.8820   33.5120   42.2270 C   0  0  0  0  0  0  0  0  0  0  0  0
   44.9400   33.1880   43.0520 C   0  0  0  0  0  0  0  0  0  0  0  0
   45.7530   34.1780   43.5400 C   0  0  0  0  0  0  0  0  0  0  0  0
   45.5620   35.5090   43.2410 C   0  0  0  0  0  0  0  0  0  0  0  0
   44.4890   35.7830   42.4100 C   0  0  0  0  0  0  0  0  0  0  0  0
   45.1540   32.1660   43.3320 H   0  0  0  0  0  0  0  0  0  0  0  0
   46.5850   33.9300   44.1890 H   0  0  0  0  0  0  0  0  0  0  0  0
   46.1490   36.3280   43.5830 H   0  0  0  0  0  0  0  0  0  0  0  0
   44.2620   36.8000   42.1210 H   0  0  0  0  0  0  0  0  0  0  0  0
   40.2500   35.7300   40.5560 C   0  0  0  0  0  0  0  0  0  0  0  0
   41.2740   35.4870   41.4870 C   0  0  0  0  0  0  0  0  0  0  0  0
   42.5340   35.1180   41.0340 C   0  0  0  0  0  0  0  0  0  0  0  0
   42.7090   35.0100   39.6880 N   0  0  0  0  0  0  0  0  0  0  0  0
   41.7130   35.2470   38.8050 C   0  0  0  0  0  0  0  0  0  0  0  0
   40.4860   35.6070   39.2490 N   0  0  0  0  0  0  0  0  0  0  0  0
   39.2880   36.0130   40.9230 H   0  0  0  0  0  0  0  0  0  0  0  0
   41.1340   35.5740   42.5540 H   0  0  0  0  0  0  0  0  0  0  0  0
   41.9910   35.1230   37.7730 H   0  0  0  0  0  0  0  0  0  0  0  0
   42.6820   31.3950   42.6070 N   0  0  0  0  0  0  0  0  0  0  0  0
   43.0320   31.5270   43.5740 H   0  0  0  0  0  0  0  0  0  0  0  0
   41.0200   31.0190   42.6350 S   0  0  0  0  0  0  0  0  0  0  0  0
   40.1730   32.2580   42.4530 O   0  0  0  0  0  0  0  0  0  0  0  0
   39.8680   32.7450   43.2780 H   0  0  0  0  0  0  0  0  0  0  0  0
   40.6380   30.3370   43.9060 O   0  0  0  0  0  0  0  0  0  0  0  0
   39.8040   30.4600   44.4210 H   0  0  0  0  0  0  0  0  0  0  0  0
   40.7010   29.9860   41.3480 O   0  0  0  0  0  0  0  0  0  0  0  0
   39.9900   28.9000   41.8280 C   0  0  0  0  0  0  0  0  0  0  0  0
   39.0840   28.8070   41.2260 H   0  0  0  0  0  0  0  0  0  0  0  0
   39.7140   28.9520   42.8900 H   0  0  0  0  0  0  0  0  0  0  0  0
   40.8190   27.6330   41.6870 C   0  0  0  0  0  0  0  0  0  0  0  0
   41.6970   27.6490   42.3660 H   0  0  0  0  0  0  0  0  0  0  0  0
   41.1220   27.5220   40.6220 H   0  0  0  0  0  0  0  0  0  0  0  0
   39.9710   26.4280   41.9580 C   0  0  0  0  0  0  0  0  0  0  0  0
   40.2740   25.3320   42.8170 C   0  0  0  0  0  0  0  0  0  0  0  0
   41.2120   25.3500   43.3380 H   0  0  0  0  0  0  0  0  0  0  0  0
   39.3360   24.3560   42.9000 C   0  0  0  0  0  3  0  0  0  0  0  0
   38.1210   24.4310   42.1660 C   0  0  0  0  0  3  0  0  0  0  0  0
   38.3130   26.0470   41.2600 S   0  0  0  0  0  0  0  0  0  0  0  0
  1  5  1  0  0  0  0
  1 23  1  0  0  0  0
  2  1  1  0  0  0  0
  3  1  1  0  0  0  0
  4  5  2  0  0  0  0
  4  9  1  0  0  0  0
  5  6  1  0  0  0  0
  6 10  1  0  0  0  0
  6  7  2  0  0  0  0
  7 11  1  0  0  0  0
  8  7  1  0  0  0  0
  8 12  1  0  0  0  0
  9  8  2  0  0  0  0
 13  9  1  0  0  0  0
 14 20  1  0  0  0  0
 14 15  1  0  0  0  0
 15 21  1  0  0  0  0
 16 15  2  0  0  0  0
 16  4  1  0  0  0  0
 17 16  1  0  0  0  0
 18 19  1  0  0  0  0
 18 17  2  0  0  0  0
 19 14  2  0  0  0  0
 22 18  1  0  0  0  0
 23 25  1  0  0  0  0
 23 24  1  0  0  0  0
 25 28  1  0  0  0  0
 26 25  1  0  0  0  0
 26 27  1  0  0  0  0
 28 29  1  0  0  0  0
 30 31  1  0  0  0  0
 30 25  1  0  0  0  0
 31 33  1  0  0  0  0
 32 31  1  0  0  0  0
 34 31  1  0  0  0  0
 34 37  1  0  0  0  0
 34 35  1  0  0  0  0
 36 34  1  0  0  0  0
 37 38  2  0  0  0  0
 38 40  1  0  0  0  0
 38 39  1  0  0  0  0
 41 40  2  0  0  0  0
 42 37  1  0  0  0  0
 42 41  1  0  0  0  0
M  END
>  <minimizedAffinity>
-4.93218803

>  <minimizedRMSD>
0.274255157

$$$$
