
 OpenBabel03252507043D

 44 47  0  0  0  0  0  0  0  0999 V2000
   41.7730   33.7630   41.3730 C   0  0  0  0  0  0  0  0  0  0  0  0
   41.3960   33.6570   42.4120 H   0  0  0  0  0  0  0  0  0  0  0  0
   42.0180   34.8780   41.2950 H   0  0  0  0  0  0  0  0  0  0  0  0
   40.9000   33.3500   40.4460 N   0  0  0  0  0  0  0  0  0  0  0  0
   40.1700   32.1180   40.4400 C   0  0  0  0  0  0  0  0  0  0  0  0
   38.7950   32.6610   40.8330 C   0  0  0  0  0  0  0  0  0  0  0  0
   38.2620   33.6360   39.8970 C   0  0  0  0  0  0  0  0  0  0  0  0
   39.1790   34.3970   39.0780 C   0  0  0  0  0  0  0  0  0  0  0  0
   40.6600   34.3000   39.3410 C   0  0  0  0  0  0  0  0  0  0  0  0
   40.5370   31.4870   41.2820 H   0  0  0  0  0  0  0  0  0  0  0  0
   40.1260   31.5430   39.5320 H   0  0  0  0  0  0  0  0  0  0  0  0
   38.9560   33.1470   41.8290 H   0  0  0  0  0  0  0  0  0  0  0  0
   38.1310   31.7950   41.0210 H   0  0  0  0  0  0  0  0  0  0  0  0
   37.5440   33.1200   39.1990 H   0  0  0  0  0  0  0  0  0  0  0  0
   37.6010   34.3640   40.4510 H   0  0  0  0  0  0  0  0  0  0  0  0
   38.9080   35.0500   38.3040 H   0  0  0  0  0  0  0  0  0  0  0  0
   41.8550   35.2000   38.4870 S   0  0  0  0  0  0  0  0  0  0  0  0
   41.3590   36.3200   37.3510 C   0  0  0  0  0  0  0  0  0  0  0  0
   41.1480   36.8130   36.0880 C   0  0  0  0  0  0  0  0  0  0  0  0
   41.4830   36.0820   35.3960 H   0  0  0  0  0  0  0  0  0  0  0  0
   40.6050   38.0250   35.8270 C   0  0  0  0  0  3  0  0  0  0  0  0
   40.2270   38.8370   37.0000 C   0  0  0  0  0  3  0  0  0  0  0  0
   40.7400   37.6690   38.4030 S   0  0  0  0  0  0  0  0  0  0  0  0
   43.0970   33.0950   41.2850 C   0  0  0  0  0  0  0  0  0  0  0  0
   43.3470   32.7260   40.2700 H   0  0  0  0  0  0  0  0  0  0  0  0
   43.0620   32.1910   41.9270 H   0  0  0  0  0  0  0  0  0  0  0  0
   44.1130   34.0100   41.8360 C   0  0  0  0  0  0  0  0  0  0  0  0
   43.7450   35.2280   42.3650 C   0  0  0  0  0  0  0  0  0  0  0  0
   44.7420   36.0540   42.8590 C   0  0  0  0  0  0  0  0  0  0  0  0
   46.0390   35.6180   42.7990 N   0  0  0  0  0  0  0  0  0  0  0  0
   46.3510   34.4350   42.2820 C   0  0  0  0  0  0  0  0  0  0  0  0
   45.3770   33.6550   41.8090 N   0  0  0  0  0  0  0  0  0  0  0  0
   42.8070   35.7320   42.5160 H   0  0  0  0  0  0  0  0  0  0  0  0
   44.6480   37.0390   43.3070 H   0  0  0  0  0  0  0  0  0  0  0  0
   47.7600   34.0390   42.2820 C   0  0  0  0  0  0  0  0  0  0  0  0
   48.1080   32.7000   42.1750 C   0  0  0  0  0  0  0  0  0  0  0  0
   49.4480   32.3400   42.1900 C   0  0  0  0  0  0  0  0  0  0  0  0
   50.3300   33.3980   42.3140 C   0  0  0  0  0  0  0  0  0  0  0  0
   50.0130   34.7380   42.4230 C   0  0  0  0  0  0  0  0  0  0  0  0
   48.6850   35.0040   42.4000 N   0  0  0  0  0  0  0  0  0  0  0  0
   47.3680   31.9170   42.0780 H   0  0  0  0  0  0  0  0  0  0  0  0
   49.8140   31.3260   42.1110 H   0  0  0  0  0  0  0  0  0  0  0  0
   51.3920   33.1550   42.3310 H   0  0  0  0  0  0  0  0  0  0  0  0
   50.7630   35.4870   42.5160 H   0  0  0  0  0  0  0  0  0  0  0  0
  1  2  1  0  0  0  0
  3  1  1  0  0  0  0
  4  1  1  0  0  0  0
  5  4  1  0  0  0  0
  5  6  1  0  0  0  0
  5 10  1  0  0  0  0
  6 13  1  0  0  0  0
  6 12  1  0  0  0  0
  7 15  1  0  0  0  0
  7  6  1  0  0  0  0
  8  9  2  0  0  0  0
  8  7  1  0  0  0  0
  9  4  1  0  0  0  0
 11  5  1  0  0  0  0
 14  7  1  0  0  0  0
 16  8  1  0  0  0  0
 17  9  1  0  0  0  0
 18 23  1  0  0  0  0
 18 17  1  0  0  0  0
 19 18  2  0  0  0  0
 20 19  1  0  0  0  0
 21 19  1  0  0  0  0
 21 22  2  0  0  0  0
 22 23  1  0  0  0  0
 24  1  1  0  0  0  0
 24 27  1  0  0  0  0
 24 26  1  0  0  0  0
 25 24  1  0  0  0  0
 27 28  1  0  0  0  0
 28 33  1  0  0  0  0
 28 29  2  0  0  0  0
 29 34  1  0  0  0  0
 30 29  1  0  0  0  0
 31 35  1  0  0  0  0
 31 30  2  0  0  0  0
 32 27  2  0  0  0  0
 32 31  1  0  0  0  0
 35 40  1  0  0  0  0
 36 37  1  0  0  0  0
 36 35  2  0  0  0  0
 37 38  2  0  0  0  0
 38 43  1  0  0  0  0
 38 39  1  0  0  0  0
 39 44  1  0  0  0  0
 40 39  2  0  0  0  0
 41 36  1  0  0  0  0
 42 37  1  0  0  0  0
M  END
>  <minimizedAffinity>
-3.16762972

>  <minimizedRMSD>
0.396901906

$$$$
