
 OpenBabel03252508073D

 41 44  0  0  0  0  0  0  0  0999 V2000
   45.1350   35.5820   43.2620 C   0  0  0  0  0  0  0  0  0  0  0  0
   45.5140   34.2500   43.3120 C   0  0  0  0  0  0  0  0  0  0  0  0
   45.4430   33.5560   44.4950 C   0  0  0  0  0  0  0  0  0  0  0  0
   44.9830   34.2450   45.5990 N   0  0  0  0  0  0  0  0  0  0  0  0
   44.6190   35.5250   45.5500 C   0  0  0  0  0  0  0  0  0  0  0  0
   44.6990   36.1840   44.3760 N   0  0  0  0  0  0  0  0  0  0  0  0
   45.1930   36.1370   42.3180 H   0  0  0  0  0  0  0  0  0  0  0  0
   44.2670   36.0160   46.4440 H   0  0  0  0  0  0  0  0  0  0  0  0
   45.7910   32.2020   44.7040 C   0  0  0  0  0  0  0  0  0  0  0  0
   45.4510   31.1610   43.8380 C   0  0  0  0  0  0  0  0  0  0  0  0
   45.7300   29.8410   44.0740 C   0  0  0  0  0  0  0  0  0  0  0  0
   46.3850   29.4780   45.2240 C   0  0  0  0  0  0  0  0  0  0  0  0
   46.7450   30.5260   46.1260 C   0  0  0  0  0  0  0  0  0  0  0  0
   47.3980   30.1670   47.2760 C   0  0  0  0  0  0  0  0  0  0  0  0
   47.7750   31.1320   48.1870 C   0  0  0  0  0  0  0  0  0  0  0  0
   47.4860   32.4780   47.9240 C   0  0  0  0  0  0  0  0  0  0  0  0
   46.8140   32.7930   46.7310 C   0  0  0  0  0  0  0  0  0  0  0  0
   46.4450   31.8200   45.8430 C   0  0  0  0  0  0  0  0  0  0  0  0
   44.9330   31.3970   42.9190 H   0  0  0  0  0  0  0  0  0  0  0  0
   45.4310   29.0850   43.3450 H   0  0  0  0  0  0  0  0  0  0  0  0
   46.6090   28.4560   45.4230 H   0  0  0  0  0  0  0  0  0  0  0  0
   47.6130   29.1200   47.4590 H   0  0  0  0  0  0  0  0  0  0  0  0
   48.2880   30.7840   49.0790 H   0  0  0  0  0  0  0  0  0  0  0  0
   47.8200   33.1480   48.6890 H   0  0  0  0  0  0  0  0  0  0  0  0
   46.7080   33.8560   46.7020 H   0  0  0  0  0  0  0  0  0  0  0  0
   45.9480   33.6840   42.1430 O   0  0  0  0  0  0  0  0  0  0  0  0
   48.1290   32.3040   41.7030 O   0  0  0  0  0  0  0  0  0  0  0  0
   47.5590   33.6780   41.6220 P   0  0  1  0  0  0  0  0  0  0  0  0
   47.6670   34.1620   40.0040 O   0  0  0  0  0  0  0  0  0  0  0  0
   48.3240   33.3530   39.0330 C   0  0  0  0  0  0  0  0  0  0  0  0
   49.1430   32.2040   38.7930 C   0  0  0  0  0  0  0  0  0  0  0  0
   49.3280   31.7910   39.7650 H   0  0  0  0  0  0  0  0  0  0  0  0
   49.4180   32.0010   37.4720 C   0  0  0  0  0  3  0  0  0  0  0  0
   48.9700   32.7970   36.4780 C   0  0  0  0  0  3  0  0  0  0  0  0
   48.0120   34.0620   37.3030 S   0  0  0  0  0  0  0  0  0  0  0  0
   48.4260   34.7530   42.5700 O   0  0  0  0  0  0  0  0  0  0  0  0
   49.6360   35.3500   42.2510 C   0  0  0  0  0  0  0  0  0  0  0  0
   49.3240   36.3960   41.6530 O   0  0  0  0  0  0  0  0  0  0  0  0
   50.7400   34.5520   42.7220 N   0  0  0  0  0  0  0  0  0  0  0  0
   51.4530   33.9970   42.1940 H   0  0  0  0  0  0  0  0  0  0  0  0
   50.8690   34.5040   43.7570 H   0  0  0  0  0  0  0  0  0  0  0  0
  1  2  2  0  0  0  0
  1  6  1  0  0  0  0
  2  3  1  0  0  0  0
  3  9  1  0  0  0  0
  3  4  2  0  0  0  0
  5  4  1  0  0  0  0
  5  8  1  0  0  0  0
  6  5  2  0  0  0  0
  7  1  1  0  0  0  0
  9 18  1  0  0  0  0
 10 11  1  0  0  0  0
 10  9  2  0  0  0  0
 11 12  2  0  0  0  0
 12 21  1  0  0  0  0
 12 13  1  0  0  0  0
 13 14  1  0  0  0  0
 14 22  1  0  0  0  0
 14 15  2  0  0  0  0
 15 23  1  0  0  0  0
 16 15  1  0  0  0  0
 16 24  1  0  0  0  0
 17 16  2  0  0  0  0
 18 13  2  0  0  0  0
 18 17  1  0  0  0  0
 19 10  1  0  0  0  0
 20 11  1  0  0  0  0
 25 17  1  0  0  0  0
 26  2  1  0  0  0  0
 28 27  2  1  0  0  0
 28 26  1  0  0  0  0
 28 36  1  0  0  0  0
 29 28  1  0  0  0  0
 30 29  1  0  0  0  0
 31 30  2  0  0  0  0
 31 32  1  0  0  0  0
 33 31  1  0  0  0  0
 34 35  1  0  0  0  0
 34 33  2  0  0  0  0
 35 30  1  0  0  0  0
 37 36  1  0  0  0  0
 37 39  1  0  0  0  0
 38 37  2  0  0  0  0
 39 41  1  0  0  0  0
 40 39  1  0  0  0  0
M  END
>  <minimizedAffinity>
-6.22837067

>  <minimizedRMSD>
0.990479529

$$$$
