
 OpenBabel03252509243D

 24 26  0  0  1  0  0  0  0  0999 V2000
   46.6270   35.0880   41.9320 C   0  0  1  0  0  0  0  0  0  0  0  0
   48.1560   35.3460   41.9450 C   0  0  0  0  0  0  0  0  0  0  0  0
   47.4500   34.1030   41.3250 C   0  0  2  0  0  0  0  0  0  0  0  0
   46.0570   35.8690   41.3970 H   0  0  0  0  0  0  0  0  0  0  0  0
   48.4780   36.1100   41.2170 H   0  0  0  0  0  0  0  0  0  0  0  0
   48.7150   35.2300   42.8680 H   0  0  0  0  0  0  0  0  0  0  0  0
   47.6880   33.1830   41.9100 H   0  0  0  0  0  0  0  0  0  0  0  0
   44.6890   35.3140   45.1330 C   0  0  0  0  0  0  0  0  0  0  0  0
   45.1480   35.6680   43.8220 C   0  0  0  0  0  0  0  0  0  0  0  0
   46.1260   34.8370   43.3410 C   0  0  0  0  0  0  0  0  0  0  0  0
   46.6080   33.7660   44.0750 N   0  0  0  0  0  0  0  0  0  0  0  0
   46.1360   33.4890   45.2960 C   0  0  0  0  0  0  0  0  0  0  0  0
   45.1640   34.2730   45.8310 N   0  0  0  0  0  0  0  0  0  0  0  0
   43.9260   35.9230   45.5630 H   0  0  0  0  0  0  0  0  0  0  0  0
   46.6470   32.6190   45.6840 H   0  0  0  0  0  0  0  0  0  0  0  0
   44.6490   36.7800   43.1010 N   0  0  0  0  0  0  0  0  0  0  0  0
   45.0960   37.6340   43.5310 H   0  0  0  0  0  0  0  0  0  0  0  0
   43.9750   36.7910   42.3010 H   0  0  0  0  0  0  0  0  0  0  0  0
   47.4650   33.9760   39.8720 C   0  0  0  0  0  0  0  0  0  0  0  0
   48.2760   34.4220   38.8890 C   0  0  0  0  0  0  0  0  0  0  0  0
   49.1190   35.0140   39.2080 H   0  0  0  0  0  0  0  0  0  0  0  0
   47.9940   34.1120   37.5800 C   0  0  0  0  0  0  0  0  0  0  0  0
   46.8460   33.3260   37.3520 C   0  0  0  0  0  0  0  0  0  0  0  0
   46.1780   33.0390   39.0300 S   0  0  0  0  0  0  0  0  0  0  0  0
  1  4  1  6  0  0  0
  1  2  1  0  0  0  0
  1 10  1  0  0  0  0
  2  6  1  0  0  0  0
  3  7  1  1  0  0  0
  3  1  1  0  0  0  0
  3  2  1  0  0  0  0
  5  2  1  0  0  0  0
  8 14  1  0  0  0  0
  8 13  1  0  0  0  0
  9  8  2  0  0  0  0
 10  9  1  0  0  0  0
 10 11  2  0  0  0  0
 11 12  1  0  0  0  0
 12 15  1  0  0  0  0
 12 13  2  0  0  0  0
 16 17  1  0  0  0  0
 16  9  1  0  0  0  0
 18 16  1  0  0  0  0
 19  3  1  0  0  0  0
 20 21  1  0  0  0  0
 20 19  2  0  0  0  0
 22 20  1  0  0  0  0
 23 22  2  0  0  0  0
 23 24  1  0  0  0  0
 24 19  1  0  0  0  0
M  END
>  <minimizedAffinity>
-5.10379505

>  <minimizedRMSD>
0.459690452

$$$$
