
 OpenBabel03252503543D

 33 35  0  0  1  0  0  0  0  0999 V2000
   38.3830   30.8940   40.5470 N   0  0  0  0  0  0  0  0  0  0  0  0
   39.5040   31.8290   40.5320 C   0  0  0  0  0  0  0  0  0  0  0  0
   38.9540   33.1620   41.0230 C   0  0  0  0  0  0  0  0  0  0  0  0
   38.0650   33.7070   39.9340 C   0  0  0  0  0  0  0  0  0  0  0  0
   36.9740   32.6960   39.7130 C   0  0  0  0  0  0  0  0  0  0  0  0
   37.0840   31.4420   40.4550 C   0  0  1  0  0  0  0  0  0  0  0  0
   40.3340   31.4680   41.1690 H   0  0  0  0  0  0  0  0  0  0  0  0
   39.8400   31.8880   39.4750 H   0  0  0  0  0  0  0  0  0  0  0  0
   39.7590   33.9050   41.1550 H   0  0  0  0  0  0  0  0  0  0  0  0
   38.3980   32.9690   41.9640 H   0  0  0  0  0  0  0  0  0  0  0  0
   38.6850   33.7530   39.0110 H   0  0  0  0  0  0  0  0  0  0  0  0
   37.6950   34.7270   40.1480 H   0  0  0  0  0  0  0  0  0  0  0  0
   36.7840   32.5630   38.6070 H   0  0  0  0  0  0  0  0  0  0  0  0
   36.0280   33.2110   40.0580 H   0  0  0  0  0  0  0  0  0  0  0  0
   36.4660   31.3500   41.3620 H   0  0  0  0  0  0  0  0  0  0  0  0
   38.3400   27.3910   41.7260 C   0  0  0  0  0  0  0  0  0  0  0  0
   38.1480   28.7770   41.7210 C   0  0  0  0  0  0  0  0  0  0  0  0
   38.5770   29.5160   40.6320 C   0  0  0  0  0  0  0  0  0  0  0  0
   39.1760   28.8560   39.6050 N   0  0  0  0  0  0  0  0  0  0  0  0
   39.3640   27.5080   39.6120 C   0  0  0  0  0  0  0  0  0  0  0  0
   38.9440   26.7820   40.6720 N   0  0  0  0  0  0  0  0  0  0  0  0
   37.6890   29.2160   42.5880 H   0  0  0  0  0  0  0  0  0  0  0  0
   39.8520   27.0410   38.7550 H   0  0  0  0  0  0  0  0  0  0  0  0
   37.8390   26.6300   42.9100 C   0  0  0  0  0  0  0  0  0  0  0  0
   37.1150   25.5060   42.5250 F   0  0  0  0  0  0  0  0  0  0  0  0
   38.9310   26.2850   43.6780 F   0  0  0  0  0  0  0  0  0  0  0  0
   37.0240   27.4540   43.6790 F   0  0  0  0  0  0  0  0  0  0  0  0
   36.3130   30.4180   39.5050 C   0  0  0  0  0  0  0  0  0  0  0  0
   36.5680   30.3520   38.0450 C   0  0  0  0  0  0  0  0  0  0  0  0
   37.3190   31.0020   37.6360 H   0  0  0  0  0  0  0  0  0  0  0  0
   35.7530   29.4220   37.4630 C   0  0  0  0  0  3  0  0  0  0  0  0
   34.8380   28.6650   38.1260 C   0  0  0  0  0  3  0  0  0  0  0  0
   35.0760   29.2870   39.9060 S   0  0  0  0  0  0  0  0  0  0  0  0
  1 18  1  0  0  0  0
  2  1  1  0  0  0  0
  2  3  1  0  0  0  0
  2  7  1  0  0  0  0
  3  9  1  0  0  0  0
  3 10  1  0  0  0  0
  4 12  1  0  0  0  0
  4  3  1  0  0  0  0
  5  4  1  0  0  0  0
  5 14  1  0  0  0  0
  5  6  1  0  0  0  0
  6  1  1  0  0  0  0
  6 15  1  1  0  0  0
  8  2  1  0  0  0  0
 11  4  1  0  0  0  0
 13  5  1  0  0  0  0
 16 24  1  0  0  0  0
 17 16  1  0  0  0  0
 17 22  1  0  0  0  0
 18 17  2  0  0  0  0
 19 20  2  0  0  0  0
 19 18  1  0  0  0  0
 20 21  1  0  0  0  0
 21 16  2  0  0  0  0
 23 20  1  0  0  0  0
 24 26  1  0  0  0  0
 24 27  1  0  0  0  0
 25 24  1  0  0  0  0
 28 33  1  0  0  0  0
 28  6  1  0  0  0  0
 29 28  2  0  0  0  0
 30 29  1  0  0  0  0
 31 29  1  0  0  0  0
 31 32  2  0  0  0  0
 32 33  1  0  0  0  0
M  END
>  <minimizedAffinity>
-5.2450943

$$$$

 OpenBabel03252503543D

 33 35  0  0  1  0  0  0  0  0999 V2000
   38.5800   28.7210   41.4820 N   0  0  0  0  0  0  0  0  0  0  0  0
   39.1100   28.8740   42.8340 C   0  0  0  0  0  0  0  0  0  0  0  0
   39.1970   27.4710   43.4190 C   0  0  0  0  0  0  0  0  0  0  0  0
   37.7850   27.0060   43.6770 C   0  0  0  0  0  0  0  0  0  0  0  0
   37.0710   27.0210   42.3540 C   0  0  0  0  0  0  0  0  0  0  0  0
   37.8100   27.5670   41.2170 C   0  0  1  0  0  0  0  0  0  0  0  0
   40.0970   29.3750   42.8210 H   0  0  0  0  0  0  0  0  0  0  0  0
   38.3770   29.5040   43.3810 H   0  0  0  0  0  0  0  0  0  0  0  0
   39.6960   27.4760   44.4030 H   0  0  0  0  0  0  0  0  0  0  0  0
   39.7220   26.8310   42.6800 H   0  0  0  0  0  0  0  0  0  0  0  0
   37.3130   27.7730   44.3320 H   0  0  0  0  0  0  0  0  0  0  0  0
   37.7390   26.0340   44.2020 H   0  0  0  0  0  0  0  0  0  0  0  0
   36.0320   27.4460   42.4760 H   0  0  0  0  0  0  0  0  0  0  0  0
   36.8590   25.9330   42.1270 H   0  0  0  0  0  0  0  0  0  0  0  0
   38.2710   26.8370   40.5320 H   0  0  0  0  0  0  0  0  0  0  0  0
   38.8150   31.9330   39.6680 C   0  0  0  0  0  0  0  0  0  0  0  0
   38.5310   31.0200   40.6900 C   0  0  0  0  0  0  0  0  0  0  0  0
   38.8040   29.6770   40.4920 C   0  0  0  0  0  0  0  0  0  0  0  0
   39.3390   29.3000   39.3000 N   0  0  0  0  0  0  0  0  0  0  0  0
   39.6130   30.1890   38.3070 C   0  0  0  0  0  0  0  0  0  0  0  0
   39.3510   31.5020   38.4960 N   0  0  0  0  0  0  0  0  0  0  0  0
   38.0840   31.4060   41.5880 H   0  0  0  0  0  0  0  0  0  0  0  0
   40.0420   29.8200   37.3740 H   0  0  0  0  0  0  0  0  0  0  0  0
   38.5280   33.3760   39.9340 C   0  0  0  0  0  0  0  0  0  0  0  0
   37.2960   33.7550   39.4120 F   0  0  0  0  0  0  0  0  0  0  0  0
   38.5770   33.5670   41.2990 F   0  0  0  0  0  0  0  0  0  0  0  0
   39.5250   34.1580   39.3610 F   0  0  0  0  0  0  0  0  0  0  0  0
   36.6380   28.1060   40.2790 C   0  0  0  0  0  0  0  0  0  0  0  0
   35.5520   28.9740   40.7940 C   0  0  0  0  0  0  0  0  0  0  0  0
   35.5870   29.2620   41.8290 H   0  0  0  0  0  0  0  0  0  0  0  0
   34.6610   29.2610   39.7990 C   0  0  0  0  0  3  0  0  0  0  0  0
   34.7560   28.8150   38.5170 C   0  0  0  0  0  3  0  0  0  0  0  0
   36.3540   27.7900   38.6080 S   0  0  0  0  0  0  0  0  0  0  0  0
  1  2  1  0  0  0  0
  2  8  1  0  0  0  0
  2  3  1  0  0  0  0
  3  4  1  0  0  0  0
  3  9  1  0  0  0  0
  4 12  1  0  0  0  0
  4 11  1  0  0  0  0
  5 13  1  0  0  0  0
  5  4  1  0  0  0  0
  6 15  1  6  0  0  0
  6  1  1  0  0  0  0
  6  5  1  0  0  0  0
  7  2  1  0  0  0  0
 10  3  1  0  0  0  0
 14  5  1  0  0  0  0
 16 24  1  0  0  0  0
 16 17  1  0  0  0  0
 17 22  1  0  0  0  0
 18 17  2  0  0  0  0
 18  1  1  0  0  0  0
 19 18  1  0  0  0  0
 20 21  1  0  0  0  0
 20 19  2  0  0  0  0
 21 16  2  0  0  0  0
 23 20  1  0  0  0  0
 24 26  1  0  0  0  0
 25 24  1  0  0  0  0
 27 24  1  0  0  0  0
 28 29  2  0  0  0  0
 28  6  1  0  0  0  0
 29 30  1  0  0  0  0
 31 29  1  0  0  0  0
 32 33  1  0  0  0  0
 32 31  2  0  0  0  0
 33 28  1  0  0  0  0
M  END
>  <minimizedAffinity>
-5.24302435

$$$$

 OpenBabel03252503543D

 33 35  0  0  1  0  0  0  0  0999 V2000
   37.0270   28.1250   40.9530 N   0  0  0  0  0  0  0  0  0  0  0  0
   37.4770   26.8330   41.4630 C   0  0  0  0  0  0  0  0  0  0  0  0
   37.1870   26.8400   42.9580 C   0  0  0  0  0  0  0  0  0  0  0  0
   38.1620   27.7960   43.5980 C   0  0  0  0  0  0  0  0  0  0  0  0
   37.9280   29.1430   42.9720 C   0  0  0  0  0  0  0  0  0  0  0  0
   36.9680   29.1960   41.8710 C   0  0  1  0  0  0  0  0  0  0  0  0
   36.9610   25.9990   40.9490 H   0  0  0  0  0  0  0  0  0  0  0  0
   38.5670   26.7830   41.2560 H   0  0  0  0  0  0  0  0  0  0  0  0
   37.3890   25.8550   43.4120 H   0  0  0  0  0  0  0  0  0  0  0  0
   36.1320   27.1600   43.0930 H   0  0  0  0  0  0  0  0  0  0  0  0
   39.1800   27.4530   43.3070 H   0  0  0  0  0  0  0  0  0  0  0  0
   38.1050   27.7970   44.7010 H   0  0  0  0  0  0  0  0  0  0  0  0
   38.9150   29.6470   42.7490 H   0  0  0  0  0  0  0  0  0  0  0  0
   37.5160   29.7830   43.8100 H   0  0  0  0  0  0  0  0  0  0  0  0
   35.9560   29.5540   42.1160 H   0  0  0  0  0  0  0  0  0  0  0  0
   35.0940   28.5980   37.8380 C   0  0  0  0  0  0  0  0  0  0  0  0
   35.3680   28.3750   39.1920 C   0  0  0  0  0  0  0  0  0  0  0  0
   36.6850   28.3070   39.6130 C   0  0  0  0  0  0  0  0  0  0  0  0
   37.6660   28.4570   38.6820 N   0  0  0  0  0  0  0  0  0  0  0  0
   37.3970   28.6720   37.3660 C   0  0  0  0  0  0  0  0  0  0  0  0
   36.1120   28.7430   36.9500 N   0  0  0  0  0  0  0  0  0  0  0  0
   34.5300   28.2420   39.8510 H   0  0  0  0  0  0  0  0  0  0  0  0
   38.2300   28.7840   36.6710 H   0  0  0  0  0  0  0  0  0  0  0  0
   33.6590   28.6900   37.4310 C   0  0  0  0  0  0  0  0  0  0  0  0
   33.1640   27.4570   37.0230 F   0  0  0  0  0  0  0  0  0  0  0  0
   32.9510   29.1850   38.5070 F   0  0  0  0  0  0  0  0  0  0  0  0
   33.5320   29.5990   36.3860 F   0  0  0  0  0  0  0  0  0  0  0  0
   37.4930   30.4430   41.0250 C   0  0  0  0  0  0  0  0  0  0  0  0
   36.5670   31.4330   40.4240 C   0  0  0  0  0  0  0  0  0  0  0  0
   35.5140   31.3060   40.5960 H   0  0  0  0  0  0  0  0  0  0  0  0
   37.2680   32.3740   39.7240 C   0  0  0  0  0  3  0  0  0  0  0  0
   38.6220   32.4010   39.5960 C   0  0  0  0  0  3  0  0  0  0  0  0
   39.1100   30.8650   40.6050 S   0  0  0  0  0  0  0  0  0  0  0  0
  1  2  1  0  0  0  0
  1  6  1  0  0  0  0
  2  3  1  0  0  0  0
  3 10  1  0  0  0  0
  3  9  1  0  0  0  0
  3  4  1  0  0  0  0
  4 12  1  0  0  0  0
  5  4  1  0  0  0  0
  5 14  1  0  0  0  0
  6 15  1  1  0  0  0
  6  5  1  0  0  0  0
  7  2  1  0  0  0  0
  8  2  1  0  0  0  0
 11  4  1  0  0  0  0
 13  5  1  0  0  0  0
 16 17  1  0  0  0  0
 17 18  2  0  0  0  0
 17 22  1  0  0  0  0
 18  1  1  0  0  0  0
 19 18  1  0  0  0  0
 20 19  2  0  0  0  0
 21 20  1  0  0  0  0
 21 16  2  0  0  0  0
 23 20  1  0  0  0  0
 24 16  1  0  0  0  0
 24 26  1  0  0  0  0
 25 24  1  0  0  0  0
 27 24  1  0  0  0  0
 28  6  1  0  0  0  0
 29 30  1  0  0  0  0
 29 28  2  0  0  0  0
 31 29  1  0  0  0  0
 32 31  2  0  0  0  0
 32 33  1  0  0  0  0
 33 28  1  0  0  0  0
M  END
>  <minimizedAffinity>
-5.1714983

$$$$

 OpenBabel03252503543D

 33 35  0  0  1  0  0  0  0  0999 V2000
   35.3240   28.8510   38.4850 N   0  0  0  0  0  0  0  0  0  0  0  0
   33.8890   28.9130   38.2240 C   0  0  0  0  0  0  0  0  0  0  0  0
   33.6450   28.0680   36.9800 C   0  0  0  0  0  0  0  0  0  0  0  0
   34.2190   28.8240   35.8080 C   0  0  0  0  0  0  0  0  0  0  0  0
   35.6850   29.0110   36.0830 C   0  0  0  0  0  0  0  0  0  0  0  0
   36.1680   28.5660   37.3890 C   0  0  1  0  0  0  0  0  0  0  0  0
   33.3080   28.5420   39.0910 H   0  0  0  0  0  0  0  0  0  0  0  0
   33.6550   29.9830   38.0460 H   0  0  0  0  0  0  0  0  0  0  0  0
   32.5670   27.9620   36.7710 H   0  0  0  0  0  0  0  0  0  0  0  0
   34.1450   27.0900   37.1360 H   0  0  0  0  0  0  0  0  0  0  0  0
   33.7370   29.8270   35.8100 H   0  0  0  0  0  0  0  0  0  0  0  0
   34.0020   28.3440   34.8360 H   0  0  0  0  0  0  0  0  0  0  0  0
   36.0050   30.0580   35.8050 H   0  0  0  0  0  0  0  0  0  0  0  0
   36.2090   28.3850   35.2990 H   0  0  0  0  0  0  0  0  0  0  0  0
   36.6720   27.5880   37.4220 H   0  0  0  0  0  0  0  0  0  0  0  0
   36.7700   28.3410   41.8490 C   0  0  0  0  0  0  0  0  0  0  0  0
   36.2120   28.0430   40.6000 C   0  0  0  0  0  0  0  0  0  0  0  0
   35.8500   29.0790   39.7570 C   0  0  0  0  0  0  0  0  0  0  0  0
   36.0490   30.3540   40.1840 N   0  0  0  0  0  0  0  0  0  0  0  0
   36.5890   30.6430   41.3990 C   0  0  0  0  0  0  0  0  0  0  0  0
   36.9480   29.6340   42.2250 N   0  0  0  0  0  0  0  0  0  0  0  0
   36.0670   27.0060   40.3580 H   0  0  0  0  0  0  0  0  0  0  0  0
   36.7220   31.6880   41.6810 H   0  0  0  0  0  0  0  0  0  0  0  0
   37.1710   27.1930   42.7170 C   0  0  0  0  0  0  0  0  0  0  0  0
   38.4210   27.3980   43.2900 F   0  0  0  0  0  0  0  0  0  0  0  0
   36.1950   27.0360   43.6800 F   0  0  0  0  0  0  0  0  0  0  0  0
   37.2060   26.0280   41.9560 F   0  0  0  0  0  0  0  0  0  0  0  0
   37.4240   29.5200   37.6270 C   0  0  0  0  0  0  0  0  0  0  0  0
   37.3970   30.9620   37.2820 C   0  0  0  0  0  0  0  0  0  0  0  0
   36.4840   31.3660   36.8850 H   0  0  0  0  0  0  0  0  0  0  0  0
   38.6080   31.5370   37.5490 C   0  0  0  0  0  3  0  0  0  0  0  0
   39.6850   30.8820   38.0600 C   0  0  0  0  0  3  0  0  0  0  0  0
   38.9870   29.1230   38.2380 S   0  0  0  0  0  0  0  0  0  0  0  0
  1 18  1  0  0  0  0
  2  1  1  0  0  0  0
  2  7  1  0  0  0  0
  3 10  1  0  0  0  0
  3  2  1  0  0  0  0
  4 11  1  0  0  0  0
  4  5  1  0  0  0  0
  4  3  1  0  0  0  0
  5  6  1  0  0  0  0
  6 15  1  6  0  0  0
  6 28  1  0  0  0  0
  6  1  1  0  0  0  0
  8  2  1  0  0  0  0
  9  3  1  0  0  0  0
 12  4  1  0  0  0  0
 13  5  1  0  0  0  0
 14  5  1  0  0  0  0
 16 21  1  0  0  0  0
 16 24  1  0  0  0  0
 17 16  2  0  0  0  0
 18 19  2  0  0  0  0
 18 17  1  0  0  0  0
 19 20  1  0  0  0  0
 20 23  1  0  0  0  0
 20 21  2  0  0  0  0
 22 17  1  0  0  0  0
 24 25  1  0  0  0  0
 24 26  1  0  0  0  0
 27 24  1  0  0  0  0
 28 33  1  0  0  0  0
 29 31  1  0  0  0  0
 29 28  2  0  0  0  0
 30 29  1  0  0  0  0
 31 32  2  0  0  0  0
 32 33  1  0  0  0  0
M  END
>  <minimizedAffinity>
-5.16275358

$$$$

 OpenBabel03252503543D

 33 35  0  0  1  0  0  0  0  0999 V2000
   38.0590   29.3950   41.5220 N   0  0  0  0  0  0  0  0  0  0  0  0
   38.2540   29.4040   42.9690 C   0  0  0  0  0  0  0  0  0  0  0  0
   38.6270   27.9790   43.3580 C   0  0  0  0  0  0  0  0  0  0  0  0
   37.3850   27.1360   43.2060 C   0  0  0  0  0  0  0  0  0  0  0  0
   36.9640   27.2340   41.7670 C   0  0  0  0  0  0  0  0  0  0  0  0
   37.7180   28.1610   40.9250 C   0  0  1  0  0  0  0  0  0  0  0  0
   39.0400   30.1280   43.2610 H   0  0  0  0  0  0  0  0  0  0  0  0
   37.2820   29.7100   43.4080 H   0  0  0  0  0  0  0  0  0  0  0  0
   38.9070   27.9140   44.4240 H   0  0  0  0  0  0  0  0  0  0  0  0
   39.4450   27.6500   42.6840 H   0  0  0  0  0  0  0  0  0  0  0  0
   36.5980   27.6150   43.8300 H   0  0  0  0  0  0  0  0  0  0  0  0
   37.5210   26.0990   43.5650 H   0  0  0  0  0  0  0  0  0  0  0  0
   35.8420   27.3540   41.6960 H   0  0  0  0  0  0  0  0  0  0  0  0
   37.1200   26.1950   41.3480 H   0  0  0  0  0  0  0  0  0  0  0  0
   38.4910   27.7200   40.2750 H   0  0  0  0  0  0  0  0  0  0  0  0
   39.3270   31.9500   39.1720 C   0  0  0  0  0  0  0  0  0  0  0  0
   39.2810   30.7840   39.9440 C   0  0  0  0  0  0  0  0  0  0  0  0
   38.1840   30.5530   40.7560 C   0  0  0  0  0  0  0  0  0  0  0  0
   37.1900   31.4810   40.7710 N   0  0  0  0  0  0  0  0  0  0  0  0
   37.2370   32.6160   40.0210 C   0  0  0  0  0  0  0  0  0  0  0  0
   38.3050   32.8440   39.2240 N   0  0  0  0  0  0  0  0  0  0  0  0
   40.1250   30.1210   39.8880 H   0  0  0  0  0  0  0  0  0  0  0  0
   36.4050   33.3190   40.0800 H   0  0  0  0  0  0  0  0  0  0  0  0
   40.5170   32.1470   38.2900 C   0  0  0  0  0  0  0  0  0  0  0  0
   41.2250   33.2930   38.6360 F   0  0  0  0  0  0  0  0  0  0  0  0
   41.3050   31.0190   38.3930 F   0  0  0  0  0  0  0  0  0  0  0  0
   40.1000   32.2520   36.9670 F   0  0  0  0  0  0  0  0  0  0  0  0
   36.6420   28.5650   39.8190 C   0  0  0  0  0  0  0  0  0  0  0  0
   35.2240   28.8360   40.1600 C   0  0  0  0  0  0  0  0  0  0  0  0
   34.9360   28.7790   41.1930 H   0  0  0  0  0  0  0  0  0  0  0  0
   34.5100   29.1220   39.0300 C   0  0  0  0  0  3  0  0  0  0  0  0
   35.0260   29.1550   37.7720 C   0  0  0  0  0  3  0  0  0  0  0  0
   36.8430   28.7180   38.1140 S   0  0  0  0  0  0  0  0  0  0  0  0
  1  2  1  0  0  0  0
  2  7  1  0  0  0  0
  2  3  1  0  0  0  0
  2  8  1  0  0  0  0
  3  9  1  0  0  0  0
  4  3  1  0  0  0  0
  4 12  1  0  0  0  0
  4 11  1  0  0  0  0
  5  4  1  0  0  0  0
  6 15  1  6  0  0  0
  6  1  1  0  0  0  0
  6  5  1  0  0  0  0
 10  3  1  0  0  0  0
 13  5  1  0  0  0  0
 14  5  1  0  0  0  0
 16 21  2  0  0  0  0
 16 17  1  0  0  0  0
 17 18  2  0  0  0  0
 18 19  1  0  0  0  0
 18  1  1  0  0  0  0
 20 23  1  0  0  0  0
 20 19  2  0  0  0  0
 21 20  1  0  0  0  0
 22 17  1  0  0  0  0
 24 26  1  0  0  0  0
 24 25  1  0  0  0  0
 24 16  1  0  0  0  0
 27 24  1  0  0  0  0
 28 29  2  0  0  0  0
 28  6  1  0  0  0  0
 29 30  1  0  0  0  0
 31 29  1  0  0  0  0
 32 33  1  0  0  0  0
 32 31  2  0  0  0  0
 33 28  1  0  0  0  0
M  END
>  <minimizedAffinity>
-5.09898281

$$$$

 OpenBabel03252503543D

 33 35  0  0  1  0  0  0  0  0999 V2000
   38.0860   30.8480   40.1740 N   0  0  0  0  0  0  0  0  0  0  0  0
   37.0000   31.8070   40.3530 C   0  0  0  0  0  0  0  0  0  0  0  0
   37.4210   33.0710   39.6150 C   0  0  0  0  0  0  0  0  0  0  0  0
   38.5400   33.6990   40.4070 C   0  0  0  0  0  0  0  0  0  0  0  0
   39.6510   32.6890   40.4720 C   0  0  0  0  0  0  0  0  0  0  0  0
   39.3710   31.3700   39.9070 C   0  0  1  0  0  0  0  0  0  0  0  0
   36.0440   31.4040   39.9650 H   0  0  0  0  0  0  0  0  0  0  0  0
   36.9180   31.9770   41.4470 H   0  0  0  0  0  0  0  0  0  0  0  0
   36.6080   33.8170   39.5980 H   0  0  0  0  0  0  0  0  0  0  0  0
   37.7430   32.7720   38.5950 H   0  0  0  0  0  0  0  0  0  0  0  0
   38.1510   33.8510   41.4390 H   0  0  0  0  0  0  0  0  0  0  0  0
   38.8500   34.6840   40.0110 H   0  0  0  0  0  0  0  0  0  0  0  0
   40.0930   32.6610   41.5120 H   0  0  0  0  0  0  0  0  0  0  0  0
   40.4920   33.1440   39.8670 H   0  0  0  0  0  0  0  0  0  0  0  0
   39.7610   31.1740   38.8960 H   0  0  0  0  0  0  0  0  0  0  0  0
   37.3430   27.4830   41.5110 C   0  0  0  0  0  0  0  0  0  0  0  0
   37.5800   28.8620   41.4830 C   0  0  0  0  0  0  0  0  0  0  0  0
   37.8770   29.4730   40.2770 C   0  0  0  0  0  0  0  0  0  0  0  0
   37.9320   28.6980   39.1610 N   0  0  0  0  0  0  0  0  0  0  0  0
   37.7040   27.3560   39.1900 C   0  0  0  0  0  0  0  0  0  0  0  0
   37.4090   26.7560   40.3650 N   0  0  0  0  0  0  0  0  0  0  0  0
   37.5410   29.3890   42.4180 H   0  0  0  0  0  0  0  0  0  0  0  0
   37.7630   26.7930   38.2580 H   0  0  0  0  0  0  0  0  0  0  0  0
   37.0000   26.8690   42.8290 C   0  0  0  0  0  0  0  0  0  0  0  0
   35.9150   27.5060   43.4220 F   0  0  0  0  0  0  0  0  0  0  0  0
   36.7410   25.5310   42.6130 F   0  0  0  0  0  0  0  0  0  0  0  0
   38.0980   26.9550   43.6800 F   0  0  0  0  0  0  0  0  0  0  0  0
   40.3410   30.4270   40.7520 C   0  0  0  0  0  0  0  0  0  0  0  0
   40.5380   30.6040   42.2110 C   0  0  0  0  0  0  0  0  0  0  0  0
   39.9810   31.3790   42.7040 H   0  0  0  0  0  0  0  0  0  0  0  0
   41.4440   29.6940   42.6820 C   0  0  0  0  0  3  0  0  0  0  0  0
   42.0740   28.7600   41.9210 C   0  0  0  0  0  3  0  0  0  0  0  0
   41.3400   29.1320   40.2080 S   0  0  0  0  0  0  0  0  0  0  0  0
  1 18  1  0  0  0  0
  1  2  1  0  0  0  0
  2  8  1  0  0  0  0
  3  2  1  0  0  0  0
  3  4  1  0  0  0  0
  4  5  1  0  0  0  0
  4 11  1  0  0  0  0
  5 13  1  0  0  0  0
  6 15  1  6  0  0  0
  6  1  1  0  0  0  0
  6  5  1  0  0  0  0
  6 28  1  0  0  0  0
  7  2  1  0  0  0  0
  9  3  1  0  0  0  0
 10  3  1  0  0  0  0
 12  4  1  0  0  0  0
 14  5  1  0  0  0  0
 16 24  1  0  0  0  0
 17 16  1  0  0  0  0
 17 22  1  0  0  0  0
 18 17  2  0  0  0  0
 19 20  2  0  0  0  0
 19 18  1  0  0  0  0
 20 21  1  0  0  0  0
 21 16  2  0  0  0  0
 23 20  1  0  0  0  0
 24 25  1  0  0  0  0
 24 27  1  0  0  0  0
 26 24  1  0  0  0  0
 28 29  2  0  0  0  0
 29 31  1  0  0  0  0
 29 30  1  0  0  0  0
 32 31  2  0  0  0  0
 33 28  1  0  0  0  0
 33 32  1  0  0  0  0
M  END
>  <minimizedAffinity>
-5.08534193

$$$$

 OpenBabel03252503543D

 33 35  0  0  1  0  0  0  0  0999 V2000
   37.6130   29.7190   40.2240 N   0  0  0  0  0  0  0  0  0  0  0  0
   36.4320   30.4080   39.7120 C   0  0  0  0  0  0  0  0  0  0  0  0
   36.7360   30.7560   38.2610 C   0  0  0  0  0  0  0  0  0  0  0  0
   37.7690   31.8550   38.2730 C   0  0  0  0  0  0  0  0  0  0  0  0
   38.9760   31.3130   38.9870 C   0  0  0  0  0  0  0  0  0  0  0  0
   38.8430   29.9840   39.5820 C   0  0  1  0  0  0  0  0  0  0  0  0
   35.5290   29.7720   39.8010 H   0  0  0  0  0  0  0  0  0  0  0  0
   36.3120   31.3170   40.3380 H   0  0  0  0  0  0  0  0  0  0  0  0
   35.8510   31.1800   37.7550 H   0  0  0  0  0  0  0  0  0  0  0  0
   37.1070   29.8350   37.7660 H   0  0  0  0  0  0  0  0  0  0  0  0
   37.3470   32.6810   38.8880 H   0  0  0  0  0  0  0  0  0  0  0  0
   37.9850   32.2560   37.2660 H   0  0  0  0  0  0  0  0  0  0  0  0
   39.3990   32.0920   39.6870 H   0  0  0  0  0  0  0  0  0  0  0  0
   39.7780   31.2470   38.1910 H   0  0  0  0  0  0  0  0  0  0  0  0
   39.2710   29.1440   39.0130 H   0  0  0  0  0  0  0  0  0  0  0  0
   37.5420   26.6560   42.2920 C   0  0  0  0  0  0  0  0  0  0  0  0
   37.5780   27.4730   41.1560 C   0  0  0  0  0  0  0  0  0  0  0  0
   37.5430   28.8480   41.3110 C   0  0  0  0  0  0  0  0  0  0  0  0
   37.4710   29.3510   42.5730 N   0  0  0  0  0  0  0  0  0  0  0  0
   37.4340   28.5550   43.6760 C   0  0  0  0  0  0  0  0  0  0  0  0
   37.4710   27.2120   43.5300 N   0  0  0  0  0  0  0  0  0  0  0  0
   37.6080   26.9870   40.1990 H   0  0  0  0  0  0  0  0  0  0  0  0
   37.3760   29.0230   44.6600 H   0  0  0  0  0  0  0  0  0  0  0  0
   37.6080   25.1790   42.0810 C   0  0  0  0  0  0  0  0  0  0  0  0
   38.6450   24.6050   42.8080 F   0  0  0  0  0  0  0  0  0  0  0  0
   36.3870   24.6490   42.4430 F   0  0  0  0  0  0  0  0  0  0  0  0
   37.8000   24.9130   40.7290 F   0  0  0  0  0  0  0  0  0  0  0  0
   39.8880   30.0470   40.7860 C   0  0  0  0  0  0  0  0  0  0  0  0
   40.0390   31.2530   41.6360 C   0  0  0  0  0  0  0  0  0  0  0  0
   39.3980   32.0920   41.4380 H   0  0  0  0  0  0  0  0  0  0  0  0
   41.0230   31.0580   42.5650 C   0  0  0  0  0  3  0  0  0  0  0  0
   41.7580   29.9210   42.6930 C   0  0  0  0  0  3  0  0  0  0  0  0
   41.0210   28.8560   41.3030 S   0  0  0  0  0  0  0  0  0  0  0  0
  1 18  1  0  0  0  0
  2  7  1  0  0  0  0
  2  1  1  0  0  0  0
  2  8  1  0  0  0  0
  3  4  1  0  0  0  0
  3  2  1  0  0  0  0
  4 11  1  0  0  0  0
  4  5  1  0  0  0  0
  5  6  1  0  0  0  0
  5 13  1  0  0  0  0
  6 15  1  6  0  0  0
  6  1  1  0  0  0  0
  6 28  1  0  0  0  0
  9  3  1  0  0  0  0
 10  3  1  0  0  0  0
 12  4  1  0  0  0  0
 14  5  1  0  0  0  0
 16 21  1  0  0  0  0
 17 18  1  0  0  0  0
 17 16  2  0  0  0  0
 18 19  2  0  0  0  0
 19 20  1  0  0  0  0
 20 23  1  0  0  0  0
 21 20  2  0  0  0  0
 22 17  1  0  0  0  0
 24 16  1  0  0  0  0
 24 26  1  0  0  0  0
 24 25  1  0  0  0  0
 27 24  1  0  0  0  0
 28 33  1  0  0  0  0
 28 29  2  0  0  0  0
 29 31  1  0  0  0  0
 30 29  1  0  0  0  0
 31 32  2  0  0  0  0
 33 32  1  0  0  0  0
M  END
>  <minimizedAffinity>
-5.03920507

$$$$

 OpenBabel03252503543D

 33 35  0  0  1  0  0  0  0  0999 V2000
   38.3060   31.6620   40.0430 N   0  0  0  0  0  0  0  0  0  0  0  0
   38.8610   32.6020   41.0120 C   0  0  0  0  0  0  0  0  0  0  0  0
   39.2190   33.8590   40.2300 C   0  0  0  0  0  0  0  0  0  0  0  0
   40.4190   33.5280   39.3770 C   0  0  0  0  0  0  0  0  0  0  0  0
   40.0140   32.3980   38.4720 C   0  0  0  0  0  0  0  0  0  0  0  0
   38.6870   31.8250   38.6930 C   0  0  1  0  0  0  0  0  0  0  0  0
   38.1370   32.8150   41.8220 H   0  0  0  0  0  0  0  0  0  0  0  0
   39.7620   32.1100   41.4350 H   0  0  0  0  0  0  0  0  0  0  0  0
   39.5430   34.6720   40.9020 H   0  0  0  0  0  0  0  0  0  0  0  0
   38.3340   34.1380   39.6210 H   0  0  0  0  0  0  0  0  0  0  0  0
   41.2050   33.1510   40.0690 H   0  0  0  0  0  0  0  0  0  0  0  0
   40.8260   34.4070   38.8450 H   0  0  0  0  0  0  0  0  0  0  0  0
   40.8430   31.6320   38.4090 H   0  0  0  0  0  0  0  0  0  0  0  0
   40.0200   32.8440   37.4320 H   0  0  0  0  0  0  0  0  0  0  0  0
   37.8880   32.1560   38.0120 H   0  0  0  0  0  0  0  0  0  0  0  0
   36.8630   28.7340   41.7780 C   0  0  0  0  0  0  0  0  0  0  0  0
   37.7860   29.7210   41.4130 C   0  0  0  0  0  0  0  0  0  0  0  0
   37.4470   30.6320   40.4270 C   0  0  0  0  0  0  0  0  0  0  0  0
   36.2220   30.5250   39.8470 N   0  0  0  0  0  0  0  0  0  0  0  0
   35.3260   29.5640   40.2020 C   0  0  0  0  0  0  0  0  0  0  0  0
   35.6510   28.6730   41.1670 N   0  0  0  0  0  0  0  0  0  0  0  0
   38.7400   29.7110   41.9060 H   0  0  0  0  0  0  0  0  0  0  0  0
   34.3600   29.5340   39.6970 H   0  0  0  0  0  0  0  0  0  0  0  0
   37.2600   27.7870   42.8640 C   0  0  0  0  0  0  0  0  0  0  0  0
   37.8020   26.6150   42.3470 F   0  0  0  0  0  0  0  0  0  0  0  0
   38.1600   28.4400   43.6800 F   0  0  0  0  0  0  0  0  0  0  0  0
   36.1440   27.4710   43.6320 F   0  0  0  0  0  0  0  0  0  0  0  0
   38.8750   30.3280   38.1730 C   0  0  0  0  0  0  0  0  0  0  0  0
   37.9530   29.7150   37.1870 C   0  0  0  0  0  0  0  0  0  0  0  0
   37.1540   30.3210   36.8000 H   0  0  0  0  0  0  0  0  0  0  0  0
   38.3130   28.4190   36.9420 C   0  0  0  0  0  3  0  0  0  0  0  0
   39.3670   27.7830   37.5200 C   0  0  0  0  0  3  0  0  0  0  0  0
   40.0550   29.1600   38.6340 S   0  0  0  0  0  0  0  0  0  0  0  0
  1 18  1  0  0  0  0
  1  2  1  0  0  0  0
  2  8  1  0  0  0  0
  2  7  1  0  0  0  0
  3  9  1  0  0  0  0
  3  2  1  0  0  0  0
  4 11  1  0  0  0  0
  4  3  1  0  0  0  0
  5  6  1  0  0  0  0
  5  4  1  0  0  0  0
  6 15  1  6  0  0  0
  6  1  1  0  0  0  0
 10  3  1  0  0  0  0
 12  4  1  0  0  0  0
 13  5  1  0  0  0  0
 14  5  1  0  0  0  0
 16 24  1  0  0  0  0
 17 16  1  0  0  0  0
 17 22  1  0  0  0  0
 18 17  2  0  0  0  0
 19 20  2  0  0  0  0
 19 18  1  0  0  0  0
 20 21  1  0  0  0  0
 21 16  2  0  0  0  0
 23 20  1  0  0  0  0
 24 27  1  0  0  0  0
 24 26  1  0  0  0  0
 25 24  1  0  0  0  0
 28 33  1  0  0  0  0
 28  6  1  0  0  0  0
 29 28  2  0  0  0  0
 30 29  1  0  0  0  0
 31 29  1  0  0  0  0
 31 32  2  0  0  0  0
 32 33  1  0  0  0  0
M  END
>  <minimizedAffinity>
-5.03872728

$$$$

 OpenBabel03252503543D

 33 35  0  0  1  0  0  0  0  0999 V2000
   37.9480   29.3350   41.5180 N   0  0  0  0  0  0  0  0  0  0  0  0
   37.9510   29.3350   42.9780 C   0  0  0  0  0  0  0  0  0  0  0  0
   38.2520   27.9050   43.4040 C   0  0  0  0  0  0  0  0  0  0  0  0
   37.0330   27.0770   43.0840 C   0  0  0  0  0  0  0  0  0  0  0  0
   36.8060   27.1860   41.6020 C   0  0  0  0  0  0  0  0  0  0  0  0
   37.6750   28.1080   40.8730 C   0  0  1  0  0  0  0  0  0  0  0  0
   38.6990   30.0480   43.3750 H   0  0  0  0  0  0  0  0  0  0  0  0
   36.9320   29.6510   43.2860 H   0  0  0  0  0  0  0  0  0  0  0  0
   38.3880   27.8310   44.4970 H   0  0  0  0  0  0  0  0  0  0  0  0
   39.1480   27.5690   42.8420 H   0  0  0  0  0  0  0  0  0  0  0  0
   36.1750   27.5630   43.6010 H   0  0  0  0  0  0  0  0  0  0  0  0
   37.1080   26.0370   43.4520 H   0  0  0  0  0  0  0  0  0  0  0  0
   35.7050   27.3200   41.3840 H   0  0  0  0  0  0  0  0  0  0  0  0
   37.0050   26.1470   41.2020 H   0  0  0  0  0  0  0  0  0  0  0  0
   38.5220   27.6610   40.3290 H   0  0  0  0  0  0  0  0  0  0  0  0
   39.5160   31.8580   39.3180 C   0  0  0  0  0  0  0  0  0  0  0  0
   39.3560   30.6860   40.0660 C   0  0  0  0  0  0  0  0  0  0  0  0
   38.1860   30.4950   40.7820 C   0  0  0  0  0  0  0  0  0  0  0  0
   37.2360   31.4660   40.7300 N   0  0  0  0  0  0  0  0  0  0  0  0
   37.3940   32.6060   40.0030 C   0  0  0  0  0  0  0  0  0  0  0  0
   38.5330   32.7950   39.2990 N   0  0  0  0  0  0  0  0  0  0  0  0
   40.1710   29.9860   40.0700 H   0  0  0  0  0  0  0  0  0  0  0  0
   36.5920   33.3460   40.0040 H   0  0  0  0  0  0  0  0  0  0  0  0
   40.7820   32.0110   38.5390 C   0  0  0  0  0  0  0  0  0  0  0  0
   40.8840   31.0530   37.5370 F   0  0  0  0  0  0  0  0  0  0  0  0
   40.8000   33.2880   38.0180 F   0  0  0  0  0  0  0  0  0  0  0  0
   41.8700   31.8880   39.3970 F   0  0  0  0  0  0  0  0  0  0  0  0
   36.7590   28.5300   39.6370 C   0  0  0  0  0  0  0  0  0  0  0  0
   35.3080   28.7960   39.7860 C   0  0  0  0  0  0  0  0  0  0  0  0
   34.8820   28.7250   40.7700 H   0  0  0  0  0  0  0  0  0  0  0  0
   34.7540   29.1010   38.5740 C   0  0  0  0  0  3  0  0  0  0  0  0
   35.4370   29.1520   37.3980 C   0  0  0  0  0  3  0  0  0  0  0  0
   37.1910   28.7080   37.9780 S   0  0  0  0  0  0  0  0  0  0  0  0
  1  2  1  0  0  0  0
  2  8  1  0  0  0  0
  2  7  1  0  0  0  0
  2  3  1  0  0  0  0
  3  9  1  0  0  0  0
  4  3  1  0  0  0  0
  4 12  1  0  0  0  0
  4 11  1  0  0  0  0
  5  4  1  0  0  0  0
  6 15  1  6  0  0  0
  6  1  1  0  0  0  0
  6  5  1  0  0  0  0
 10  3  1  0  0  0  0
 13  5  1  0  0  0  0
 14  5  1  0  0  0  0
 16 17  1  0  0  0  0
 17 22  1  0  0  0  0
 17 18  2  0  0  0  0
 18  1  1  0  0  0  0
 19 18  1  0  0  0  0
 20 23  1  0  0  0  0
 20 19  2  0  0  0  0
 21 16  2  0  0  0  0
 21 20  1  0  0  0  0
 24 16  1  0  0  0  0
 24 27  1  0  0  0  0
 25 24  1  0  0  0  0
 26 24  1  0  0  0  0
 28 29  2  0  0  0  0
 28  6  1  0  0  0  0
 29 30  1  0  0  0  0
 31 29  1  0  0  0  0
 32 33  1  0  0  0  0
 32 31  2  0  0  0  0
 33 28  1  0  0  0  0
M  END
>  <minimizedAffinity>
-5.01169586

$$$$
