
 OpenBabel03242512573D

 25 27  0  0  0  0  0  0  0  0999 V2000
   45.0770   33.3950   41.2560 F   0  0  0  0  0  0  0  0  0  0  0  0
   46.2680   34.0180   41.1160 C   0  0  0  0  0  0  0  0  0  0  0  0
   46.8140   34.7600   42.1400 C   0  0  0  0  0  0  0  0  0  0  0  0
   48.0290   35.3510   41.8900 C   0  0  0  0  0  0  0  0  0  0  0  0
   48.7180   35.2530   40.7160 C   0  0  0  0  0  0  0  0  0  0  0  0
   48.1320   34.5020   39.7280 C   0  0  0  0  0  0  0  0  0  0  0  0
   46.9090   33.8790   39.9100 C   0  0  0  0  0  0  0  0  0  0  0  0
   48.4500   35.9300   42.6940 H   0  0  0  0  0  0  0  0  0  0  0  0
   49.6620   35.7420   40.5930 H   0  0  0  0  0  0  0  0  0  0  0  0
   48.7080   34.4410   38.7960 H   0  0  0  0  0  0  0  0  0  0  0  0
   44.4490   35.9540   44.8500 C   0  0  0  0  0  0  0  0  0  0  0  0
   45.1560   35.8810   43.6450 C   0  0  0  0  0  0  0  0  0  0  0  0
   46.0730   34.8560   43.3800 C   0  0  0  0  0  0  0  0  0  0  0  0
   46.2120   33.9520   44.3830 N   0  0  0  0  0  0  0  0  0  0  0  0
   45.5370   34.0140   45.5410 C   0  0  0  0  0  0  0  0  0  0  0  0
   44.6740   34.9960   45.7670 N   0  0  0  0  0  0  0  0  0  0  0  0
   43.7610   36.7490   45.0120 H   0  0  0  0  0  0  0  0  0  0  0  0
   45.0340   36.6150   42.8470 H   0  0  0  0  0  0  0  0  0  0  0  0
   45.7840   33.1960   46.2260 H   0  0  0  0  0  0  0  0  0  0  0  0
   46.3880   33.0980   38.7630 C   0  0  0  0  0  0  0  0  0  0  0  0
   45.4150   32.0980   38.7570 C   0  0  0  0  0  0  0  0  0  0  0  0
   44.8810   31.7330   39.6200 H   0  0  0  0  0  0  0  0  0  0  0  0
   45.0960   31.5210   37.5860 C   0  0  0  0  0  0  0  0  0  0  0  0
   45.8110   31.9980   36.3780 C   0  0  0  0  0  0  0  0  0  0  0  0
   46.9350   33.3110   37.1200 S   0  0  0  0  0  0  0  0  0  0  0  0
  2  1  1  0  0  0  0
  2  3  1  0  0  0  0
  3 13  1  0  0  0  0
  4  3  2  0  0  0  0
  4  8  1  0  0  0  0
  5  4  1  0  0  0  0
  6  7  1  0  0  0  0
  6  5  2  0  0  0  0
  7  2  2  0  0  0  0
  9  5  1  0  0  0  0
 10  6  1  0  0  0  0
 11 17  1  0  0  0  0
 11 16  1  0  0  0  0
 12 11  2  0  0  0  0
 13 12  1  0  0  0  0
 13 14  2  0  0  0  0
 14 15  1  0  0  0  0
 15 16  2  0  0  0  0
 15 19  1  0  0  0  0
 18 12  1  0  0  0  0
 20  7  1  0  0  0  0
 21 20  2  0  0  0  0
 21 22  1  0  0  0  0
 23 21  1  0  0  0  0
 24 25  1  0  0  0  0
 24 23  2  0  0  0  0
 25 20  1  0  0  0  0
M  END
>  <minimizedAffinity>
-5.52899694

>  <minimizedRMSD>
0.110786535

$$$$
