
 OpenBabel03252508463D

 42 44  0  0  0  0  0  0  0  0999 V2000
   43.0080   32.4810   41.6580 C   0  0  0  0  0  0  0  0  0  0  0  0
   42.0910   32.9330   41.2380 H   0  0  0  0  0  0  0  0  0  0  0  0
   43.5760   32.0580   40.7790 H   0  0  0  0  0  0  0  0  0  0  0  0
   43.6750   34.8830   41.9000 C   0  0  0  0  0  0  0  0  0  0  0  0
   43.8910   33.5530   42.2050 C   0  0  0  0  0  0  0  0  0  0  0  0
   44.9480   33.2280   43.0310 C   0  0  0  0  0  0  0  0  0  0  0  0
   45.7540   34.2180   43.5290 C   0  0  0  0  0  0  0  0  0  0  0  0
   45.5580   35.5490   43.2390 C   0  0  0  0  0  0  0  0  0  0  0  0
   44.4860   35.8250   42.4070 C   0  0  0  0  0  0  0  0  0  0  0  0
   45.1660   32.2040   43.3040 H   0  0  0  0  0  0  0  0  0  0  0  0
   46.5860   33.9690   44.1780 H   0  0  0  0  0  0  0  0  0  0  0  0
   46.1410   36.3700   43.5880 H   0  0  0  0  0  0  0  0  0  0  0  0
   44.2550   36.8430   42.1250 H   0  0  0  0  0  0  0  0  0  0  0  0
   40.2590   35.7890   40.5390 C   0  0  0  0  0  0  0  0  0  0  0  0
   41.2830   35.5470   41.4710 C   0  0  0  0  0  0  0  0  0  0  0  0
   42.5390   35.1600   41.0200 C   0  0  0  0  0  0  0  0  0  0  0  0
   42.7100   35.0350   39.6750 N   0  0  0  0  0  0  0  0  0  0  0  0
   41.7150   35.2720   38.7910 C   0  0  0  0  0  0  0  0  0  0  0  0
   40.4920   35.6490   39.2330 N   0  0  0  0  0  0  0  0  0  0  0  0
   39.3020   36.0860   40.9050 H   0  0  0  0  0  0  0  0  0  0  0  0
   41.1450   35.6480   42.5370 H   0  0  0  0  0  0  0  0  0  0  0  0
   41.9900   35.1330   37.7600 H   0  0  0  0  0  0  0  0  0  0  0  0
   42.6760   31.4420   42.5760 N   0  0  0  0  0  0  0  0  0  0  0  0
   43.0260   31.5690   43.5430 H   0  0  0  0  0  0  0  0  0  0  0  0
   41.0060   31.0990   42.6010 S   0  0  0  0  0  0  0  0  0  0  0  0
   40.1840   32.3590   42.4600 O   0  0  0  0  0  0  0  0  0  0  0  0
   39.8920   32.8280   43.3000 H   0  0  0  0  0  0  0  0  0  0  0  0
   40.6170   30.3870   43.8530 O   0  0  0  0  0  0  0  0  0  0  0  0
   39.7870   30.5110   44.3750 H   0  0  0  0  0  0  0  0  0  0  0  0
   40.6610   30.1120   41.2850 O   0  0  0  0  0  0  0  0  0  0  0  0
   39.9020   29.0440   41.7310 C   0  0  0  0  0  0  0  0  0  0  0  0
   38.9930   29.0100   41.1260 H   0  0  0  0  0  0  0  0  0  0  0  0
   39.6270   29.0740   42.7940 H   0  0  0  0  0  0  0  0  0  0  0  0
   40.6730   27.7460   41.5490 C   0  0  0  0  0  0  0  0  0  0  0  0
   41.5260   27.6820   42.2570 H   0  0  0  0  0  0  0  0  0  0  0  0
   41.0080   27.6760   40.4900 H   0  0  0  0  0  0  0  0  0  0  0  0
   39.7590   26.5720   41.7270 C   0  0  0  0  0  0  0  0  0  0  0  0
   40.0100   25.3850   42.4740 C   0  0  0  0  0  0  0  0  0  0  0  0
   40.9560   25.2990   42.9720 H   0  0  0  0  0  0  0  0  0  0  0  0
   39.0170   24.4620   42.4870 C   0  0  0  0  0  3  0  0  0  0  0  0
   37.7970   24.6750   41.7910 C   0  0  0  0  0  3  0  0  0  0  0  0
   38.0690   26.3540   41.0330 S   0  0  0  0  0  0  0  0  0  0  0  0
  1  5  1  0  0  0  0
  1 23  1  0  0  0  0
  2  1  1  0  0  0  0
  3  1  1  0  0  0  0
  4  5  2  0  0  0  0
  4  9  1  0  0  0  0
  5  6  1  0  0  0  0
  6 10  1  0  0  0  0
  6  7  2  0  0  0  0
  7 11  1  0  0  0  0
  8  7  1  0  0  0  0
  8 12  1  0  0  0  0
  9  8  2  0  0  0  0
 13  9  1  0  0  0  0
 14 20  1  0  0  0  0
 14 15  1  0  0  0  0
 15 21  1  0  0  0  0
 16 15  2  0  0  0  0
 16  4  1  0  0  0  0
 17 16  1  0  0  0  0
 18 19  1  0  0  0  0
 18 17  2  0  0  0  0
 19 14  2  0  0  0  0
 22 18  1  0  0  0  0
 23 25  1  0  0  0  0
 23 24  1  0  0  0  0
 25 28  1  0  0  0  0
 26 25  1  0  0  0  0
 26 27  1  0  0  0  0
 28 29  1  0  0  0  0
 30 31  1  0  0  0  0
 30 25  1  0  0  0  0
 31 33  1  0  0  0  0
 32 31  1  0  0  0  0
 34 37  1  0  0  0  0
 34 31  1  0  0  0  0
 34 35  1  0  0  0  0
 36 34  1  0  0  0  0
 37 38  2  0  0  0  0
 38 40  1  0  0  0  0
 38 39  1  0  0  0  0
 41 40  2  0  0  0  0
 42 37  1  0  0  0  0
 42 41  1  0  0  0  0
M  END
>  <minimizedAffinity>
-4.93190908

>  <minimizedRMSD>
0.409198672

$$$$
