
 OpenBabel03242521593D

 30 32  0  0  0  0  0  0  0  0999 V2000
   38.2100   31.2370   38.5310 C   0  0  0  0  0  0  0  0  0  0  0  0
   37.3120   32.2590   38.7190 C   0  0  0  0  0  0  0  0  0  0  0  0
   37.4480   33.2780   39.6500 C   0  0  0  0  0  0  0  0  0  0  0  0
   38.5700   33.2720   40.4510 C   0  0  0  0  0  0  0  0  0  0  0  0
   39.4450   32.2630   40.2540 C   0  0  0  0  0  0  0  0  0  0  0  0
   39.2910   31.2930   39.3520 N   0  0  0  0  0  0  0  0  0  0  0  0
   36.4460   32.1880   38.0390 H   0  0  0  0  0  0  0  0  0  0  0  0
   36.6190   33.9810   39.6260 H   0  0  0  0  0  0  0  0  0  0  0  0
   38.4970   34.1140   41.1130 H   0  0  0  0  0  0  0  0  0  0  0  0
   36.9720   28.9330   35.8250 C   0  0  0  0  0  0  0  0  0  0  0  0
   36.9680   30.0350   36.6960 C   0  0  0  0  0  0  0  0  0  0  0  0
   38.0270   30.1710   37.5550 C   0  0  0  0  0  0  0  0  0  0  0  0
   39.0180   29.2190   37.5060 N   0  0  0  0  0  0  0  0  0  0  0  0
   39.0020   28.1760   36.6670 C   0  0  0  0  0  0  0  0  0  0  0  0
   37.9680   28.0450   35.8270 N   0  0  0  0  0  0  0  0  0  0  0  0
   36.1120   28.8770   35.1680 H   0  0  0  0  0  0  0  0  0  0  0  0
   36.2130   30.7870   36.7550 H   0  0  0  0  0  0  0  0  0  0  0  0
   39.8470   27.5050   36.7360 H   0  0  0  0  0  0  0  0  0  0  0  0
   40.5830   32.2330   41.0430 O   0  0  0  0  0  0  0  0  0  0  0  0
   41.5340   29.8270   41.5800 O   0  0  0  0  0  0  0  0  0  0  0  0
   40.8600   31.0140   42.2200 P   0  0  1  0  0  0  0  0  0  0  0  0
   41.9010   31.6610   43.4000 O   0  0  0  0  0  0  0  0  0  0  0  0
   41.5080   31.5810   44.2920 H   0  0  0  0  0  0  0  0  0  0  0  0
   39.3900   30.5630   42.8830 O   0  0  0  0  0  0  0  0  0  0  0  0
   38.6340   29.5240   42.8290 C   0  0  0  0  0  0  0  0  0  0  0  0
   38.5340   28.0810   43.3680 C   0  0  0  0  0  0  0  0  0  0  0  0
   39.3960   27.9460   43.9810 H   0  0  0  0  0  0  0  0  0  0  0  0
   37.4450   27.3770   42.9580 C   0  0  0  0  0  3  0  0  0  0  0  0
   36.4780   27.9390   42.0990 C   0  0  0  0  0  3  0  0  0  0  0  0
   37.0570   29.6140   41.7710 S   0  0  0  0  0  0  0  0  0  0  0  0
  1  2  2  0  0  0  0
  1  6  1  0  0  0  0
  2  3  1  0  0  0  0
  3  4  2  0  0  0  0
  4  9  1  0  0  0  0
  5  4  1  0  0  0  0
  5 19  1  0  0  0  0
  6  5  2  0  0  0  0
  7  2  1  0  0  0  0
  8  3  1  0  0  0  0
 10 15  2  0  0  0  0
 10 11  1  0  0  0  0
 11 17  1  0  0  0  0
 11 12  2  0  0  0  0
 12  1  1  0  0  0  0
 13 12  1  0  0  0  0
 14 18  1  0  0  0  0
 14 13  2  0  0  0  0
 15 14  1  0  0  0  0
 16 10  1  0  0  0  0
 19 21  1  0  0  0  0
 21 20  2  6  0  0  0
 21 24  1  0  0  0  0
 21 22  1  0  0  0  0
 22 23  1  0  0  0  0
 25 24  1  0  0  0  0
 25 26  2  0  0  0  0
 26 27  1  0  0  0  0
 28 26  1  0  0  0  0
 29 28  2  0  0  0  0
 30 29  1  0  0  0  0
 30 25  1  0  0  0  0
M  END
>  <minimizedAffinity>
-5.26797533

$$$$

 OpenBabel03242521593D

 30 32  0  0  0  0  0  0  0  0999 V2000
   38.2860   31.3890   38.8970 C   0  0  0  0  0  0  0  0  0  0  0  0
   37.4410   30.9230   37.9200 C   0  0  0  0  0  0  0  0  0  0  0  0
   36.3150   30.1440   38.1450 C   0  0  0  0  0  0  0  0  0  0  0  0
   36.0140   29.8090   39.4490 C   0  0  0  0  0  0  0  0  0  0  0  0
   36.8530   30.2760   40.3990 C   0  0  0  0  0  0  0  0  0  0  0  0
   37.9300   31.0230   40.1560 N   0  0  0  0  0  0  0  0  0  0  0  0
   37.7530   31.2360   36.9090 H   0  0  0  0  0  0  0  0  0  0  0  0
   35.7920   29.8880   37.2270 H   0  0  0  0  0  0  0  0  0  0  0  0
   35.1330   29.1970   39.4280 H   0  0  0  0  0  0  0  0  0  0  0  0
   41.4410   32.8870   37.4950 C   0  0  0  0  0  0  0  0  0  0  0  0
   40.3520   32.0050   37.5900 C   0  0  0  0  0  0  0  0  0  0  0  0
   39.4710   32.1910   38.6240 C   0  0  0  0  0  0  0  0  0  0  0  0
   39.7150   33.2270   39.4950 N   0  0  0  0  0  0  0  0  0  0  0  0
   40.7600   34.0560   39.3850 C   0  0  0  0  0  0  0  0  0  0  0  0
   41.6190   33.8740   38.3740 N   0  0  0  0  0  0  0  0  0  0  0  0
   42.1030   32.6930   36.6590 H   0  0  0  0  0  0  0  0  0  0  0  0
   40.1400   31.1940   36.9300 H   0  0  0  0  0  0  0  0  0  0  0  0
   40.8280   34.8270   40.1400 H   0  0  0  0  0  0  0  0  0  0  0  0
   36.5740   29.9570   41.7170 O   0  0  0  0  0  0  0  0  0  0  0  0
   38.5620   29.2350   43.3000 O   0  0  0  0  0  0  0  0  0  0  0  0
   37.3740   28.6870   42.5500 P   0  0  1  0  0  0  0  0  0  0  0  0
   36.2770   28.0320   43.6720 O   0  0  0  0  0  0  0  0  0  0  0  0
   36.1790   27.0670   43.5430 H   0  0  0  0  0  0  0  0  0  0  0  0
   37.8670   27.5390   41.4360 O   0  0  0  0  0  0  0  0  0  0  0  0
   37.3360   26.5140   40.8700 C   0  0  0  0  0  0  0  0  0  0  0  0
   36.6940   26.0750   39.5370 C   0  0  0  0  0  0  0  0  0  0  0  0
   36.7220   26.9370   38.9100 H   0  0  0  0  0  0  0  0  0  0  0  0
   36.2750   24.7820   39.4870 C   0  0  0  0  0  3  0  0  0  0  0  0
   36.4230   23.9100   40.5860 C   0  0  0  0  0  3  0  0  0  0  0  0
   37.2150   24.8990   41.8670 S   0  0  0  0  0  0  0  0  0  0  0  0
  1  6  1  0  0  0  0
  2  3  1  0  0  0  0
  2  1  2  0  0  0  0
  3  4  2  0  0  0  0
  4  5  1  0  0  0  0
  5 19  1  0  0  0  0
  6  5  2  0  0  0  0
  7  2  1  0  0  0  0
  8  3  1  0  0  0  0
  9  4  1  0  0  0  0
 10 11  2  0  0  0  0
 10 15  1  0  0  0  0
 11 12  1  0  0  0  0
 12  1  1  0  0  0  0
 12 13  2  0  0  0  0
 14 13  1  0  0  0  0
 14 18  1  0  0  0  0
 15 14  2  0  0  0  0
 16 10  1  0  0  0  0
 17 11  1  0  0  0  0
 19 21  1  0  0  0  0
 21 20  2  1  0  0  0
 21 22  1  0  0  0  0
 23 22  1  0  0  0  0
 24 21  1  0  0  0  0
 25 24  1  0  0  0  0
 25 30  1  0  0  0  0
 26 25  2  0  0  0  0
 27 26  1  0  0  0  0
 28 26  1  0  0  0  0
 28 29  2  0  0  0  0
 29 30  1  0  0  0  0
M  END
>  <minimizedAffinity>
-5.24402332

$$$$

 OpenBabel03242521593D

 30 32  0  0  0  0  0  0  0  0999 V2000
   37.0360   27.0300   39.5630 C   0  0  0  0  0  0  0  0  0  0  0  0
   35.9500   26.9210   38.7280 C   0  0  0  0  0  0  0  0  0  0  0  0
   35.3780   27.9700   38.0240 C   0  0  0  0  0  0  0  0  0  0  0  0
   35.9380   29.2230   38.1670 C   0  0  0  0  0  0  0  0  0  0  0  0
   37.0050   29.3150   38.9890 C   0  0  0  0  0  0  0  0  0  0  0  0
   37.5360   28.2900   39.6570 N   0  0  0  0  0  0  0  0  0  0  0  0
   35.5660   25.8890   38.6700 H   0  0  0  0  0  0  0  0  0  0  0  0
   34.5280   27.6570   37.4230 H   0  0  0  0  0  0  0  0  0  0  0  0
   35.3600   29.9030   37.5700 H   0  0  0  0  0  0  0  0  0  0  0  0
   37.6590   24.0820   41.8180 C   0  0  0  0  0  0  0  0  0  0  0  0
   36.9370   25.1190   41.2040 C   0  0  0  0  0  0  0  0  0  0  0  0
   37.6010   25.9100   40.3020 C   0  0  0  0  0  0  0  0  0  0  0  0
   38.9270   25.6340   40.0630 N   0  0  0  0  0  0  0  0  0  0  0  0
   39.5960   24.6400   40.6600 C   0  0  0  0  0  0  0  0  0  0  0  0
   38.9460   23.8670   41.5390 N   0  0  0  0  0  0  0  0  0  0  0  0
   37.0830   23.4900   42.5190 H   0  0  0  0  0  0  0  0  0  0  0  0
   35.9090   25.3550   41.3710 H   0  0  0  0  0  0  0  0  0  0  0  0
   40.6340   24.5370   40.3770 H   0  0  0  0  0  0  0  0  0  0  0  0
   37.5890   30.5600   39.1490 O   0  0  0  0  0  0  0  0  0  0  0  0
   37.8090   32.9120   40.3340 O   0  0  0  0  0  0  0  0  0  0  0  0
   37.4330   31.4740   40.5940 P   0  0  1  0  0  0  0  0  0  0  0  0
   35.8010   31.4160   41.0700 O   0  0  0  0  0  0  0  0  0  0  0  0
   35.7170   31.0880   41.9880 H   0  0  0  0  0  0  0  0  0  0  0  0
   38.4340   30.8120   41.7610 O   0  0  0  0  0  0  0  0  0  0  0  0
   38.5120   29.6880   42.3810 C   0  0  0  0  0  0  0  0  0  0  0  0
   37.6780   28.7530   43.2830 C   0  0  0  0  0  0  0  0  0  0  0  0
   36.7380   29.2400   43.4050 H   0  0  0  0  0  0  0  0  0  0  0  0
   38.3030   27.6120   43.6790 C   0  0  0  0  0  3  0  0  0  0  0  0
   39.6240   27.3130   43.2840 C   0  0  0  0  0  3  0  0  0  0  0  0
   40.1330   28.7030   42.2570 S   0  0  0  0  0  0  0  0  0  0  0  0
  1  6  1  0  0  0  0
  1 12  1  0  0  0  0
  2  1  2  0  0  0  0
  3  4  2  0  0  0  0
  3  2  1  0  0  0  0
  4  5  1  0  0  0  0
  5 19  1  0  0  0  0
  5  6  2  0  0  0  0
  7  2  1  0  0  0  0
  8  3  1  0  0  0  0
  9  4  1  0  0  0  0
 10 16  1  0  0  0  0
 11 17  1  0  0  0  0
 11 10  2  0  0  0  0
 12 11  1  0  0  0  0
 13 12  2  0  0  0  0
 13 14  1  0  0  0  0
 14 15  2  0  0  0  0
 15 10  1  0  0  0  0
 18 14  1  0  0  0  0
 19 21  1  0  0  0  0
 21 20  2  6  0  0  0
 21 22  1  0  0  0  0
 21 24  1  0  0  0  0
 22 23  1  0  0  0  0
 24 25  1  0  0  0  0
 25 26  2  0  0  0  0
 26 27  1  0  0  0  0
 26 28  1  0  0  0  0
 29 28  2  0  0  0  0
 30 25  1  0  0  0  0
 30 29  1  0  0  0  0
M  END
>  <minimizedAffinity>
-5.21304941

$$$$

 OpenBabel03242521593D

 30 32  0  0  0  0  0  0  0  0999 V2000
   37.1120   26.7150   41.4950 C   0  0  0  0  0  0  0  0  0  0  0  0
   37.7060   26.6030   42.7280 C   0  0  0  0  0  0  0  0  0  0  0  0
   37.9290   27.6560   43.6030 C   0  0  0  0  0  0  0  0  0  0  0  0
   37.5240   28.9150   43.2130 C   0  0  0  0  0  0  0  0  0  0  0  0
   36.9400   29.0100   41.9990 C   0  0  0  0  0  0  0  0  0  0  0  0
   36.7370   27.9820   41.1740 N   0  0  0  0  0  0  0  0  0  0  0  0
   37.9980   25.5660   42.9610 H   0  0  0  0  0  0  0  0  0  0  0  0
   38.4130   27.3400   44.5240 H   0  0  0  0  0  0  0  0  0  0  0  0
   37.7910   29.5960   43.9980 H   0  0  0  0  0  0  0  0  0  0  0  0
   36.5220   23.3420   39.9330 C   0  0  0  0  0  0  0  0  0  0  0  0
   36.6960   24.2880   40.9580 C   0  0  0  0  0  0  0  0  0  0  0  0
   36.9090   25.5910   40.5910 C   0  0  0  0  0  0  0  0  0  0  0  0
   36.9380   25.8820   39.2470 N   0  0  0  0  0  0  0  0  0  0  0  0
   36.7690   24.9640   38.2870 C   0  0  0  0  0  0  0  0  0  0  0  0
   36.5600   23.6920   38.6470 N   0  0  0  0  0  0  0  0  0  0  0  0
   36.3560   22.3300   40.2820 H   0  0  0  0  0  0  0  0  0  0  0  0
   36.6780   24.0900   42.0060 H   0  0  0  0  0  0  0  0  0  0  0  0
   36.8160   25.3340   37.2720 H   0  0  0  0  0  0  0  0  0  0  0  0
   36.5210   30.2620   41.5820 O   0  0  0  0  0  0  0  0  0  0  0  0
   36.6690   30.7400   38.9870 O   0  0  0  0  0  0  0  0  0  0  0  0
   37.2910   31.1180   40.3090 P   0  0  1  0  0  0  0  0  0  0  0  0
   37.0390   32.7790   40.5740 O   0  0  0  0  0  0  0  0  0  0  0  0
   37.8890   33.2620   40.5970 H   0  0  0  0  0  0  0  0  0  0  0  0
   38.9220   30.7390   40.3150 O   0  0  0  0  0  0  0  0  0  0  0  0
   39.9340   31.0300   41.0530 C   0  0  0  0  0  0  0  0  0  0  0  0
   40.5280   30.7370   42.4470 C   0  0  0  0  0  0  0  0  0  0  0  0
   39.8400   30.0720   42.9160 H   0  0  0  0  0  0  0  0  0  0  0  0
   41.7060   31.3580   42.7230 C   0  0  0  0  0  3  0  0  0  0  0  0
   42.3350   32.2090   41.7890 C   0  0  0  0  0  3  0  0  0  0  0  0
   41.2490   32.2090   40.3500 S   0  0  0  0  0  0  0  0  0  0  0  0
  1  2  1  0  0  0  0
  2  7  1  0  0  0  0
  2  3  2  0  0  0  0
  3  8  1  0  0  0  0
  4  3  1  0  0  0  0
  4  9  1  0  0  0  0
  5  4  2  0  0  0  0
  6  1  2  0  0  0  0
  6  5  1  0  0  0  0
 10 16  1  0  0  0  0
 10 11  1  0  0  0  0
 11 17  1  0  0  0  0
 12 11  2  0  0  0  0
 12  1  1  0  0  0  0
 13 12  1  0  0  0  0
 14 15  1  0  0  0  0
 14 13  2  0  0  0  0
 15 10  2  0  0  0  0
 18 14  1  0  0  0  0
 19  5  1  0  0  0  0
 21 20  2  6  0  0  0
 21 24  1  0  0  0  0
 21 22  1  0  0  0  0
 21 19  1  0  0  0  0
 22 23  1  0  0  0  0
 24 25  1  0  0  0  0
 25 26  2  0  0  0  0
 26 28  1  0  0  0  0
 26 27  1  0  0  0  0
 29 28  2  0  0  0  0
 30 25  1  0  0  0  0
 30 29  1  0  0  0  0
M  END
>  <minimizedAffinity>
-5.18830395

$$$$

 OpenBabel03242521593D

 30 32  0  0  0  0  0  0  0  0999 V2000
   38.0310   29.0510   41.3540 C   0  0  0  0  0  0  0  0  0  0  0  0
   36.9980   28.8370   42.2330 C   0  0  0  0  0  0  0  0  0  0  0  0
   37.0460   27.9880   43.3290 C   0  0  0  0  0  0  0  0  0  0  0  0
   38.2200   27.3030   43.5610 C   0  0  0  0  0  0  0  0  0  0  0  0
   39.2280   27.5240   42.6890 C   0  0  0  0  0  0  0  0  0  0  0  0
   39.1570   28.3450   41.6420 N   0  0  0  0  0  0  0  0  0  0  0  0
   36.0990   29.4230   41.9750 H   0  0  0  0  0  0  0  0  0  0  0  0
   36.1140   27.9730   43.8880 H   0  0  0  0  0  0  0  0  0  0  0  0
   38.0680   26.6890   44.4280 H   0  0  0  0  0  0  0  0  0  0  0  0
   37.2020   31.7800   38.8990 C   0  0  0  0  0  0  0  0  0  0  0  0
   37.1500   31.0520   40.0990 C   0  0  0  0  0  0  0  0  0  0  0  0
   37.9410   29.9370   40.2010 C   0  0  0  0  0  0  0  0  0  0  0  0
   38.7280   29.6080   39.1220 N   0  0  0  0  0  0  0  0  0  0  0  0
   38.7620   30.3170   37.9870 C   0  0  0  0  0  0  0  0  0  0  0  0
   37.9900   31.4070   37.8890 N   0  0  0  0  0  0  0  0  0  0  0  0
   36.5580   32.6510   38.8750 H   0  0  0  0  0  0  0  0  0  0  0  0
   36.5490   31.2840   40.9500 H   0  0  0  0  0  0  0  0  0  0  0  0
   39.4270   29.9450   37.2210 H   0  0  0  0  0  0  0  0  0  0  0  0
   40.4200   26.8510   42.9000 O   0  0  0  0  0  0  0  0  0  0  0  0
   41.0910   25.5050   40.7270 O   0  0  0  0  0  0  0  0  0  0  0  0
   40.7590   25.3260   42.1870 P   0  0  1  0  0  0  0  0  0  0  0  0
   42.1160   24.6750   42.9780 O   0  0  0  0  0  0  0  0  0  0  0  0
   41.9190   23.7840   43.3320 H   0  0  0  0  0  0  0  0  0  0  0  0
   39.4170   24.3400   42.3630 O   0  0  0  0  0  0  0  0  0  0  0  0
   38.3440   24.1130   41.6910 C   0  0  0  0  0  0  0  0  0  0  0  0
   36.8420   24.4680   41.6690 C   0  0  0  0  0  0  0  0  0  0  0  0
   36.6910   25.1160   42.5020 H   0  0  0  0  0  0  0  0  0  0  0  0
   36.1230   23.9060   40.6620 C   0  0  0  0  0  3  0  0  0  0  0  0
   36.7200   23.0560   39.7070 C   0  0  0  0  0  3  0  0  0  0  0  0
   38.4580   22.9710   40.1750 S   0  0  0  0  0  0  0  0  0  0  0  0
  1  6  2  0  0  0  0
  1  2  1  0  0  0  0
  2  3  2  0  0  0  0
  3  4  1  0  0  0  0
  3  8  1  0  0  0  0
  4  9  1  0  0  0  0
  5 19  1  0  0  0  0
  5  4  2  0  0  0  0
  6  5  1  0  0  0  0
  7  2  1  0  0  0  0
 10 11  1  0  0  0  0
 11 12  2  0  0  0  0
 11 17  1  0  0  0  0
 12  1  1  0  0  0  0
 13 12  1  0  0  0  0
 14 13  2  0  0  0  0
 15 14  1  0  0  0  0
 15 10  2  0  0  0  0
 16 10  1  0  0  0  0
 18 14  1  0  0  0  0
 21 20  2  6  0  0  0
 21 24  1  0  0  0  0
 21 19  1  0  0  0  0
 21 22  1  0  0  0  0
 22 23  1  0  0  0  0
 25 24  1  0  0  0  0
 26 25  2  0  0  0  0
 26 27  1  0  0  0  0
 28 26  1  0  0  0  0
 29 30  1  0  0  0  0
 29 28  2  0  0  0  0
 30 25  1  0  0  0  0
M  END
>  <minimizedAffinity>
-5.12213373

$$$$

 OpenBabel03242521593D

 30 32  0  0  0  0  0  0  0  0999 V2000
   37.2230   26.7770   41.4430 C   0  0  0  0  0  0  0  0  0  0  0  0
   37.0530   26.7200   42.8050 C   0  0  0  0  0  0  0  0  0  0  0  0
   37.2010   27.7930   43.6720 C   0  0  0  0  0  0  0  0  0  0  0  0
   37.5430   29.0150   43.1320 C   0  0  0  0  0  0  0  0  0  0  0  0
   37.7050   29.0560   41.7910 C   0  0  0  0  0  0  0  0  0  0  0  0
   37.5580   28.0090   40.9790 N   0  0  0  0  0  0  0  0  0  0  0  0
   36.7820   25.7090   43.1530 H   0  0  0  0  0  0  0  0  0  0  0  0
   37.0190   27.5220   44.7090 H   0  0  0  0  0  0  0  0  0  0  0  0
   37.6290   29.7120   43.9430 H   0  0  0  0  0  0  0  0  0  0  0  0
   36.6290   23.3780   39.9400 C   0  0  0  0  0  0  0  0  0  0  0  0
   36.7130   24.3600   40.9420 C   0  0  0  0  0  0  0  0  0  0  0  0
   37.0780   25.6250   40.5630 C   0  0  0  0  0  0  0  0  0  0  0  0
   37.3380   25.8460   39.2310 N   0  0  0  0  0  0  0  0  0  0  0  0
   37.2510   24.8950   38.2920 C   0  0  0  0  0  0  0  0  0  0  0  0
   36.8930   23.6590   38.6630 N   0  0  0  0  0  0  0  0  0  0  0  0
   36.3340   22.3980   40.2970 H   0  0  0  0  0  0  0  0  0  0  0  0
   36.5180   24.2160   41.9810 H   0  0  0  0  0  0  0  0  0  0  0  0
   37.4830   25.2080   37.2840 H   0  0  0  0  0  0  0  0  0  0  0  0
   38.0450   30.2710   41.2210 O   0  0  0  0  0  0  0  0  0  0  0  0
   35.6300   30.5170   40.1760 O   0  0  0  0  0  0  0  0  0  0  0  0
   37.0260   31.0840   40.1030 P   0  0  1  0  0  0  0  0  0  0  0  0
   36.9710   32.7240   40.5520 O   0  0  0  0  0  0  0  0  0  0  0  0
   37.2300   33.2990   39.8040 H   0  0  0  0  0  0  0  0  0  0  0  0
   37.6540   30.8920   38.5640 O   0  0  0  0  0  0  0  0  0  0  0  0
   37.9300   29.8970   37.7970 C   0  0  0  0  0  0  0  0  0  0  0  0
   39.0520   28.8760   37.5100 C   0  0  0  0  0  0  0  0  0  0  0  0
   39.8330   29.1120   38.1970 H   0  0  0  0  0  0  0  0  0  0  0  0
   38.7920   27.9840   36.5180 C   0  0  0  0  0  3  0  0  0  0  0  0
   37.5740   27.9990   35.8060 C   0  0  0  0  0  3  0  0  0  0  0  0
   36.6300   29.3600   36.5180 S   0  0  0  0  0  0  0  0  0  0  0  0
  1  2  1  0  0  0  0
  2  7  1  0  0  0  0
  2  3  2  0  0  0  0
  3  8  1  0  0  0  0
  4  3  1  0  0  0  0
  4  9  1  0  0  0  0
  5  4  2  0  0  0  0
  6  1  2  0  0  0  0
  6  5  1  0  0  0  0
 10 16  1  0  0  0  0
 10 11  1  0  0  0  0
 11 17  1  0  0  0  0
 12 11  2  0  0  0  0
 12  1  1  0  0  0  0
 13 12  1  0  0  0  0
 14 15  1  0  0  0  0
 14 13  2  0  0  0  0
 15 10  2  0  0  0  0
 18 14  1  0  0  0  0
 19  5  1  0  0  0  0
 21 20  2  1  0  0  0
 21 22  1  0  0  0  0
 21 19  1  0  0  0  0
 23 22  1  0  0  0  0
 24 21  1  0  0  0  0
 25 24  1  0  0  0  0
 26 25  2  0  0  0  0
 26 27  1  0  0  0  0
 28 26  1  0  0  0  0
 29 30  1  0  0  0  0
 29 28  2  0  0  0  0
 30 25  1  0  0  0  0
M  END
>  <minimizedAffinity>
-5.10895729

$$$$

 OpenBabel03242521593D

 30 32  0  0  0  0  0  0  0  0999 V2000
   37.5460   28.4810   41.7310 C   0  0  0  0  0  0  0  0  0  0  0  0
   36.3250   28.1370   41.2040 C   0  0  0  0  0  0  0  0  0  0  0  0
   35.4320   29.0230   40.6180 C   0  0  0  0  0  0  0  0  0  0  0  0
   35.7920   30.3520   40.5540 C   0  0  0  0  0  0  0  0  0  0  0  0
   36.9960   30.6760   41.0750 C   0  0  0  0  0  0  0  0  0  0  0  0
   37.8360   29.8050   41.6340 N   0  0  0  0  0  0  0  0  0  0  0  0
   36.1160   27.0580   41.2950 H   0  0  0  0  0  0  0  0  0  0  0  0
   34.5270   28.5340   40.2680 H   0  0  0  0  0  0  0  0  0  0  0  0
   34.9820   30.8830   40.0920 H   0  0  0  0  0  0  0  0  0  0  0  0
   40.2760   26.7690   43.6750 C   0  0  0  0  0  0  0  0  0  0  0  0
   39.5150   27.8350   43.1650 C   0  0  0  0  0  0  0  0  0  0  0  0
   38.4520   27.5280   42.3560 C   0  0  0  0  0  0  0  0  0  0  0  0
   38.2040   26.1990   42.1000 N   0  0  0  0  0  0  0  0  0  0  0  0
   38.9430   25.1990   42.5970 C   0  0  0  0  0  0  0  0  0  0  0  0
   39.9800   25.5000   43.3880 N   0  0  0  0  0  0  0  0  0  0  0  0
   41.1020   27.0710   44.3080 H   0  0  0  0  0  0  0  0  0  0  0  0
   39.6850   28.8720   43.3470 H   0  0  0  0  0  0  0  0  0  0  0  0
   38.6340   24.2030   42.3140 H   0  0  0  0  0  0  0  0  0  0  0  0
   37.3840   32.0030   41.0220 O   0  0  0  0  0  0  0  0  0  0  0  0
   38.9840   33.9850   40.3160 O   0  0  0  0  0  0  0  0  0  0  0  0
   38.9470   32.4880   40.5000 P   0  0  1  0  0  0  0  0  0  0  0  0
   40.0550   32.0630   41.7170 O   0  0  0  0  0  0  0  0  0  0  0  0
   40.7730   31.5040   41.3560 H   0  0  0  0  0  0  0  0  0  0  0  0
   39.2960   31.7150   39.0570 O   0  0  0  0  0  0  0  0  0  0  0  0
   38.6640   30.9410   38.2480 C   0  0  0  0  0  0  0  0  0  0  0  0
   37.4790   30.9470   37.2580 C   0  0  0  0  0  0  0  0  0  0  0  0
   37.0890   31.9390   37.2880 H   0  0  0  0  0  0  0  0  0  0  0  0
   37.2360   29.7660   36.6290 C   0  0  0  0  0  3  0  0  0  0  0  0
   38.0200   28.6190   36.8740 C   0  0  0  0  0  3  0  0  0  0  0  0
   39.2460   29.1380   38.0880 S   0  0  0  0  0  0  0  0  0  0  0  0
  1 12  1  0  0  0  0
  2  7  1  0  0  0  0
  2  1  2  0  0  0  0
  3  2  1  0  0  0  0
  4  3  2  0  0  0  0
  4  5  1  0  0  0  0
  5  6  2  0  0  0  0
  6  1  1  0  0  0  0
  8  3  1  0  0  0  0
  9  4  1  0  0  0  0
 10 16  1  0  0  0  0
 11 17  1  0  0  0  0
 11 10  2  0  0  0  0
 12 11  1  0  0  0  0
 13 12  2  0  0  0  0
 13 14  1  0  0  0  0
 14 15  2  0  0  0  0
 15 10  1  0  0  0  0
 18 14  1  0  0  0  0
 19  5  1  0  0  0  0
 21 20  2  6  0  0  0
 21 19  1  0  0  0  0
 21 22  1  0  0  0  0
 23 22  1  0  0  0  0
 24 21  1  0  0  0  0
 25 24  1  0  0  0  0
 26 27  1  0  0  0  0
 26 25  2  0  0  0  0
 28 29  2  0  0  0  0
 28 26  1  0  0  0  0
 29 30  1  0  0  0  0
 30 25  1  0  0  0  0
M  END
>  <minimizedAffinity>
-5.09917974

$$$$

 OpenBabel03242521593D

 30 32  0  0  0  0  0  0  0  0999 V2000
   37.4080   27.6960   41.1190 C   0  0  0  0  0  0  0  0  0  0  0  0
   36.5690   27.2470   40.1280 C   0  0  0  0  0  0  0  0  0  0  0  0
   35.7380   28.0520   39.3630 C   0  0  0  0  0  0  0  0  0  0  0  0
   35.7500   29.4090   39.6090 C   0  0  0  0  0  0  0  0  0  0  0  0
   36.5810   29.8360   40.5850 C   0  0  0  0  0  0  0  0  0  0  0  0
   37.3700   29.0410   41.3080 N   0  0  0  0  0  0  0  0  0  0  0  0
   36.6210   26.1530   39.9970 H   0  0  0  0  0  0  0  0  0  0  0  0
   35.1610   27.4860   38.6360 H   0  0  0  0  0  0  0  0  0  0  0  0
   35.0420   29.8630   38.9440 H   0  0  0  0  0  0  0  0  0  0  0  0
   39.2140   24.7840   42.6780 C   0  0  0  0  0  0  0  0  0  0  0  0
   38.3320   25.4560   41.8140 C   0  0  0  0  0  0  0  0  0  0  0  0
   38.2550   26.8200   41.9180 C   0  0  0  0  0  0  0  0  0  0  0  0
   39.0440   27.4370   42.8600 N   0  0  0  0  0  0  0  0  0  0  0  0
   39.8780   26.7770   43.6740 C   0  0  0  0  0  0  0  0  0  0  0  0
   39.9540   25.4440   43.5710 N   0  0  0  0  0  0  0  0  0  0  0  0
   39.2340   23.7090   42.5500 H   0  0  0  0  0  0  0  0  0  0  0  0
   37.7100   25.0030   41.0750 H   0  0  0  0  0  0  0  0  0  0  0  0
   40.4390   27.3880   44.3670 H   0  0  0  0  0  0  0  0  0  0  0  0
   36.6160   31.1940   40.8520 O   0  0  0  0  0  0  0  0  0  0  0  0
   37.9540   31.7720   38.6470 O   0  0  0  0  0  0  0  0  0  0  0  0
   37.6910   32.2650   40.0480 P   0  0  1  0  0  0  0  0  0  0  0  0
   36.9330   33.7850   39.9570 O   0  0  0  0  0  0  0  0  0  0  0  0
   37.4990   34.4810   40.3470 H   0  0  0  0  0  0  0  0  0  0  0  0
   39.1200   32.3460   40.9160 O   0  0  0  0  0  0  0  0  0  0  0  0
   39.9620   31.4960   41.3880 C   0  0  0  0  0  0  0  0  0  0  0  0
   40.6560   31.0980   42.7080 C   0  0  0  0  0  0  0  0  0  0  0  0
   40.2830   31.7770   43.4410 H   0  0  0  0  0  0  0  0  0  0  0  0
   41.5170   30.0490   42.6240 C   0  0  0  0  0  3  0  0  0  0  0  0
   41.7520   29.3770   41.4060 C   0  0  0  0  0  3  0  0  0  0  0  0
   40.7150   30.2200   40.1960 S   0  0  0  0  0  0  0  0  0  0  0  0
  1  6  1  0  0  0  0
  1 12  1  0  0  0  0
  2  1  2  0  0  0  0
  3  4  2  0  0  0  0
  3  2  1  0  0  0  0
  4  5  1  0  0  0  0
  5 19  1  0  0  0  0
  5  6  2  0  0  0  0
  7  2  1  0  0  0  0
  8  3  1  0  0  0  0
  9  4  1  0  0  0  0
 10 15  1  0  0  0  0
 11 12  1  0  0  0  0
 11 10  2  0  0  0  0
 12 13  2  0  0  0  0
 13 14  1  0  0  0  0
 14 18  1  0  0  0  0
 15 14  2  0  0  0  0
 16 10  1  0  0  0  0
 17 11  1  0  0  0  0
 21 20  2  6  0  0  0
 21 19  1  0  0  0  0
 21 24  1  0  0  0  0
 22 21  1  0  0  0  0
 22 23  1  0  0  0  0
 24 25  1  0  0  0  0
 25 26  2  0  0  0  0
 26 27  1  0  0  0  0
 28 26  1  0  0  0  0
 29 28  2  0  0  0  0
 30 25  1  0  0  0  0
 30 29  1  0  0  0  0
M  END
>  <minimizedAffinity>
-5.05485678

$$$$

 OpenBabel03242521593D

 30 32  0  0  0  0  0  0  0  0999 V2000
   37.7530   26.7760   41.6750 C   0  0  0  0  0  0  0  0  0  0  0  0
   37.3280   26.9620   42.9680 C   0  0  0  0  0  0  0  0  0  0  0  0
   37.2780   28.1830   43.6230 C   0  0  0  0  0  0  0  0  0  0  0  0
   37.6840   29.3040   42.9290 C   0  0  0  0  0  0  0  0  0  0  0  0
   38.0970   29.1070   41.6580 C   0  0  0  0  0  0  0  0  0  0  0  0
   38.1370   27.9210   41.0500 N   0  0  0  0  0  0  0  0  0  0  0  0
   37.0220   26.0170   43.4500 H   0  0  0  0  0  0  0  0  0  0  0  0
   36.9090   28.0970   44.6420 H   0  0  0  0  0  0  0  0  0  0  0  0
   37.5950   30.1430   43.5910 H   0  0  0  0  0  0  0  0  0  0  0  0
   37.5750   23.1240   40.7840 C   0  0  0  0  0  0  0  0  0  0  0  0
   37.4460   24.2770   41.5780 C   0  0  0  0  0  0  0  0  0  0  0  0
   37.8100   25.4750   41.0230 C   0  0  0  0  0  0  0  0  0  0  0  0
   38.2780   25.4670   39.7290 N   0  0  0  0  0  0  0  0  0  0  0  0
   38.3920   24.3570   38.9900 C   0  0  0  0  0  0  0  0  0  0  0  0
   38.0350   23.1860   39.5330 N   0  0  0  0  0  0  0  0  0  0  0  0
   37.2720   22.2070   41.2740 H   0  0  0  0  0  0  0  0  0  0  0  0
   37.0880   24.3110   42.5820 H   0  0  0  0  0  0  0  0  0  0  0  0
   38.7730   24.4970   37.9890 H   0  0  0  0  0  0  0  0  0  0  0  0
   38.5070   30.2140   40.9350 O   0  0  0  0  0  0  0  0  0  0  0  0
   36.7550   30.1580   38.9580 O   0  0  0  0  0  0  0  0  0  0  0  0
   37.4440   31.0980   39.9160 P   0  0  1  0  0  0  0  0  0  0  0  0
   36.2670   31.8270   40.9040 O   0  0  0  0  0  0  0  0  0  0  0  0
   36.2360   32.7930   40.7540 H   0  0  0  0  0  0  0  0  0  0  0  0
   38.3310   32.2410   39.0760 O   0  0  0  0  0  0  0  0  0  0  0  0
   39.5450   32.3480   38.6630 C   0  0  0  0  0  0  0  0  0  0  0  0
   40.4110   32.1180   37.4060 C   0  0  0  0  0  0  0  0  0  0  0  0
   39.7410   31.7500   36.6630 H   0  0  0  0  0  0  0  0  0  0  0  0
   41.7300   32.4190   37.5410 C   0  0  0  0  0  3  0  0  0  0  0  0
   42.2600   32.9080   38.7540 C   0  0  0  0  0  3  0  0  0  0  0  0
   40.8550   32.9920   39.8800 S   0  0  0  0  0  0  0  0  0  0  0  0
  1  2  1  0  0  0  0
  2  7  1  0  0  0  0
  2  3  2  0  0  0  0
  3  8  1  0  0  0  0
  4  9  1  0  0  0  0
  4  3  1  0  0  0  0
  5  4  2  0  0  0  0
  6  5  1  0  0  0  0
  6  1  2  0  0  0  0
 10 16  1  0  0  0  0
 10 11  1  0  0  0  0
 11 17  1  0  0  0  0
 12 11  2  0  0  0  0
 12  1  1  0  0  0  0
 13 12  1  0  0  0  0
 14 15  1  0  0  0  0
 14 13  2  0  0  0  0
 15 10  2  0  0  0  0
 18 14  1  0  0  0  0
 19  5  1  0  0  0  0
 21 20  2  6  0  0  0
 21 22  1  0  0  0  0
 21 19  1  0  0  0  0
 23 22  1  0  0  0  0
 24 21  1  0  0  0  0
 25 24  1  0  0  0  0
 25 30  1  0  0  0  0
 26 28  1  0  0  0  0
 26 25  2  0  0  0  0
 27 26  1  0  0  0  0
 28 29  2  0  0  0  0
 29 30  1  0  0  0  0
M  END
>  <minimizedAffinity>
-4.98344183

$$$$
