
 OpenBabel03242519403D

 24 25  0  0  0  0  0  0  0  0999 V2000
   37.5620   28.6600   39.6900 O   0  0  0  0  0  0  0  0  0  0  0  0
   36.6390   28.8710   40.8870 P   0  0  2  0  0  0  0  0  0  0  0  0
   37.2130   30.1980   41.8040 O   0  0  0  0  0  0  0  0  0  0  0  0
   39.7140   32.6380   40.6580 C   0  0  0  0  0  0  0  0  0  0  0  0
   39.1440   31.5400   41.3430 C   0  0  0  0  0  0  0  0  0  0  0  0
   37.7810   31.2880   41.1250 C   0  0  0  0  0  0  0  0  0  0  0  0
   37.0790   32.0890   40.2840 N   0  0  0  0  0  0  0  0  0  0  0  0
   37.6610   33.1260   39.6500 C   0  0  0  0  0  0  0  0  0  0  0  0
   38.9690   33.4060   39.8310 N   0  0  0  0  0  0  0  0  0  0  0  0
   40.7490   32.7710   40.8690 H   0  0  0  0  0  0  0  0  0  0  0  0
   39.7230   30.9210   42.0030 H   0  0  0  0  0  0  0  0  0  0  0  0
   37.0060   33.6900   39.0100 H   0  0  0  0  0  0  0  0  0  0  0  0
   36.5730   27.5270   41.8890 O   0  0  0  0  0  0  0  0  0  0  0  0
   37.7310   26.9370   42.4260 C   0  0  0  0  0  0  0  0  0  0  0  0
   38.6390   27.4710   43.3500 C   0  0  0  0  0  0  0  0  0  0  0  0
   38.4380   28.4680   43.7050 H   0  0  0  0  0  0  0  0  0  0  0  0
   39.6750   26.6390   43.6800 C   0  0  0  0  0  3  0  0  0  0  0  0
   39.7890   25.4220   43.1520 C   0  0  0  0  0  3  0  0  0  0  0  0
   38.3950   25.2220   42.0460 S   0  0  0  0  0  0  0  0  0  0  0  0
   35.1170   29.2560   40.2980 O   0  0  0  0  0  0  0  0  0  0  0  0
   34.9190   28.8780   38.9830 C   0  0  0  0  0  0  0  0  0  0  0  0
   35.4900   29.7400   38.0630 F   0  0  0  0  0  0  0  0  0  0  0  0
   35.3130   27.5630   38.8180 F   0  0  0  0  0  0  0  0  0  0  0  0
   33.5380   28.9250   38.7850 F   0  0  0  0  0  0  0  0  0  0  0  0
  2  1  2  6  0  0  0
  2  3  1  0  0  0  0
  2 13  1  0  0  0  0
  4 10  1  0  0  0  0
  4  5  1  0  0  0  0
  5 11  1  0  0  0  0
  6  5  2  0  0  0  0
  6  3  1  0  0  0  0
  7  6  1  0  0  0  0
  8  9  1  0  0  0  0
  8  7  2  0  0  0  0
  9  4  2  0  0  0  0
 12  8  1  0  0  0  0
 13 14  1  0  0  0  0
 14 15  2  0  0  0  0
 15 17  1  0  0  0  0
 15 16  1  0  0  0  0
 18 17  2  0  0  0  0
 19 14  1  0  0  0  0
 19 18  1  0  0  0  0
 20  2  1  0  0  0  0
 21 20  1  0  0  0  0
 22 21  1  0  0  0  0
 23 21  1  0  0  0  0
 24 21  1  0  0  0  0
M  END
>  <minimizedAffinity>
-4.61548185

$$$$

 OpenBabel03242519403D

 24 25  0  0  0  0  0  0  0  0999 V2000
   37.7190   29.1180   38.5200 O   0  0  0  0  0  0  0  0  0  0  0  0
   36.5900   30.1120   38.7790 P   0  0  2  0  0  0  0  0  0  0  0  0
   37.0780   31.6600   38.2330 O   0  0  0  0  0  0  0  0  0  0  0  0
   38.5840   34.1550   40.4750 C   0  0  0  0  0  0  0  0  0  0  0  0
   37.6070   33.4540   39.7310 C   0  0  0  0  0  0  0  0  0  0  0  0
   38.0460   32.3590   38.9720 C   0  0  0  0  0  0  0  0  0  0  0  0
   39.3620   32.0230   38.9810 N   0  0  0  0  0  0  0  0  0  0  0  0
   40.2600   32.7190   39.7040 C   0  0  0  0  0  0  0  0  0  0  0  0
   39.8820   33.7800   40.4490 N   0  0  0  0  0  0  0  0  0  0  0  0
   38.1820   34.9730   41.0270 H   0  0  0  0  0  0  0  0  0  0  0  0
   36.5720   33.7400   39.7420 H   0  0  0  0  0  0  0  0  0  0  0  0
   41.2720   32.3610   39.6340 H   0  0  0  0  0  0  0  0  0  0  0  0
   36.1990   30.2270   40.4060 O   0  0  0  0  0  0  0  0  0  0  0  0
   36.8370   29.4470   41.3860 C   0  0  0  0  0  0  0  0  0  0  0  0
   36.4190   28.2360   41.9530 C   0  0  0  0  0  0  0  0  0  0  0  0
   35.4820   27.8350   41.6020 H   0  0  0  0  0  0  0  0  0  0  0  0
   37.2700   27.7180   42.8910 C   0  0  0  0  0  3  0  0  0  0  0  0
   38.4020   28.3350   43.2230 C   0  0  0  0  0  3  0  0  0  0  0  0
   38.4740   29.8210   42.2280 S   0  0  0  0  0  0  0  0  0  0  0  0
   35.2640   29.6290   37.8750 O   0  0  0  0  0  0  0  0  0  0  0  0
   34.5160   28.6340   38.4770 C   0  0  0  0  0  0  0  0  0  0  0  0
   35.2700   27.5680   38.9360 F   0  0  0  0  0  0  0  0  0  0  0  0
   33.7080   29.1920   39.4510 F   0  0  0  0  0  0  0  0  0  0  0  0
   33.6770   28.1400   37.4760 F   0  0  0  0  0  0  0  0  0  0  0  0
  2  1  2  6  0  0  0
  2 13  1  0  0  0  0
  3  2  1  0  0  0  0
  3  6  1  0  0  0  0
  4 10  1  0  0  0  0
  5 11  1  0  0  0  0
  5  4  2  0  0  0  0
  6  7  2  0  0  0  0
  6  5  1  0  0  0  0
  7  8  1  0  0  0  0
  8  9  2  0  0  0  0
  9  4  1  0  0  0  0
 12  8  1  0  0  0  0
 13 14  1  0  0  0  0
 14 15  2  0  0  0  0
 14 19  1  0  0  0  0
 15 17  1  0  0  0  0
 16 15  1  0  0  0  0
 17 18  2  0  0  0  0
 19 18  1  0  0  0  0
 20 21  1  0  0  0  0
 20  2  1  0  0  0  0
 21 22  1  0  0  0  0
 21 23  1  0  0  0  0
 24 21  1  0  0  0  0
M  END
>  <minimizedAffinity>
-4.58495569

$$$$

 OpenBabel03242519403D

 24 25  0  0  0  0  0  0  0  0999 V2000
   36.4550   27.3700   42.9150 O   0  0  0  0  0  0  0  0  0  0  0  0
   36.8610   27.9280   41.5530 P   0  0  2  0  0  0  0  0  0  0  0  0
   35.9650   29.3550   41.2480 O   0  0  0  0  0  0  0  0  0  0  0  0
   37.2930   32.4180   39.7070 C   0  0  0  0  0  0  0  0  0  0  0  0
   36.8210   31.5230   40.6960 C   0  0  0  0  0  0  0  0  0  0  0  0
   36.4320   30.2450   40.2690 C   0  0  0  0  0  0  0  0  0  0  0  0
   36.5210   29.9240   38.9520 N   0  0  0  0  0  0  0  0  0  0  0  0
   36.9760   30.8070   38.0420 C   0  0  0  0  0  0  0  0  0  0  0  0
   37.3610   32.0480   38.4080 N   0  0  0  0  0  0  0  0  0  0  0  0
   37.5700   33.3680   40.1000 H   0  0  0  0  0  0  0  0  0  0  0  0
   36.7620   31.8030   41.7310 H   0  0  0  0  0  0  0  0  0  0  0  0
   37.0010   30.4410   37.0310 H   0  0  0  0  0  0  0  0  0  0  0  0
   36.5700   26.8450   40.3050 O   0  0  0  0  0  0  0  0  0  0  0  0
   36.9360   25.4900   40.3890 C   0  0  0  0  0  0  0  0  0  0  0  0
   36.2730   24.3700   39.8720 C   0  0  0  0  0  0  0  0  0  0  0  0
   35.3560   24.5530   39.3380 H   0  0  0  0  0  0  0  0  0  0  0  0
   36.8910   23.1740   40.1230 C   0  0  0  0  0  3  0  0  0  0  0  0
   38.0320   23.1070   40.8050 C   0  0  0  0  0  3  0  0  0  0  0  0
   38.4590   24.7900   41.2360 S   0  0  0  0  0  0  0  0  0  0  0  0
   38.4860   28.3320   41.6290 O   0  0  0  0  0  0  0  0  0  0  0  0
   38.9020   28.7230   42.8880 C   0  0  0  0  0  0  0  0  0  0  0  0
   38.0420   29.6110   43.5100 F   0  0  0  0  0  0  0  0  0  0  0  0
   39.1760   27.6020   43.6500 F   0  0  0  0  0  0  0  0  0  0  0  0
   40.1100   29.3950   42.6900 F   0  0  0  0  0  0  0  0  0  0  0  0
  2 20  1  0  0  0  0
  2  1  2  1  0  0  0
  3  2  1  0  0  0  0
  4 10  1  0  0  0  0
  4  5  1  0  0  0  0
  5 11  1  0  0  0  0
  6  5  2  0  0  0  0
  6  3  1  0  0  0  0
  7  6  1  0  0  0  0
  8  9  1  0  0  0  0
  8  7  2  0  0  0  0
  9  4  2  0  0  0  0
 12  8  1  0  0  0  0
 13 14  1  0  0  0  0
 13  2  1  0  0  0  0
 14 19  1  0  0  0  0
 15 17  1  0  0  0  0
 15 14  2  0  0  0  0
 16 15  1  0  0  0  0
 17 18  2  0  0  0  0
 18 19  1  0  0  0  0
 20 21  1  0  0  0  0
 21 22  1  0  0  0  0
 21 23  1  0  0  0  0
 24 21  1  0  0  0  0
M  END
>  <minimizedAffinity>
-4.51136637

$$$$

 OpenBabel03242519403D

 24 25  0  0  0  0  0  0  0  0999 V2000
   38.2930   27.7010   39.3380 O   0  0  0  0  0  0  0  0  0  0  0  0
   37.7520   29.0730   39.7300 P   0  0  2  0  0  0  0  0  0  0  0  0
   38.5930   30.2750   38.8470 O   0  0  0  0  0  0  0  0  0  0  0  0
   37.6360   33.7050   39.7610 C   0  0  0  0  0  0  0  0  0  0  0  0
   37.5540   32.4010   39.2200 C   0  0  0  0  0  0  0  0  0  0  0  0
   38.6720   31.5700   39.3820 C   0  0  0  0  0  0  0  0  0  0  0  0
   39.7650   32.0390   40.0380 N   0  0  0  0  0  0  0  0  0  0  0  0
   39.8010   33.2900   40.5380 C   0  0  0  0  0  0  0  0  0  0  0  0
   38.7480   34.1240   40.4050 N   0  0  0  0  0  0  0  0  0  0  0  0
   36.7530   34.2800   39.6020 H   0  0  0  0  0  0  0  0  0  0  0  0
   36.6760   32.0550   38.7060 H   0  0  0  0  0  0  0  0  0  0  0  0
   40.7180   33.5510   41.0360 H   0  0  0  0  0  0  0  0  0  0  0  0
   37.9400   29.3920   41.3660 O   0  0  0  0  0  0  0  0  0  0  0  0
   38.7540   28.5990   42.1940 C   0  0  0  0  0  0  0  0  0  0  0  0
   38.3960   27.4940   42.9770 C   0  0  0  0  0  0  0  0  0  0  0  0
   37.3600   27.2000   42.9540 H   0  0  0  0  0  0  0  0  0  0  0  0
   39.4270   26.9300   43.6780 C   0  0  0  0  0  3  0  0  0  0  0  0
   40.6660   27.4110   43.6040 C   0  0  0  0  0  3  0  0  0  0  0  0
   40.5980   28.8070   42.4860 S   0  0  0  0  0  0  0  0  0  0  0  0
   36.1350   29.1310   39.2900 O   0  0  0  0  0  0  0  0  0  0  0  0
   35.2810   29.3820   40.3480 C   0  0  0  0  0  0  0  0  0  0  0  0
   35.5380   30.5740   41.0020 F   0  0  0  0  0  0  0  0  0  0  0  0
   33.9710   29.2640   39.9190 F   0  0  0  0  0  0  0  0  0  0  0  0
   35.5110   28.3550   41.2650 F   0  0  0  0  0  0  0  0  0  0  0  0
  2  1  2  6  0  0  0
  2 13  1  0  0  0  0
  3  6  1  0  0  0  0
  3  2  1  0  0  0  0
  4  9  1  0  0  0  0
  5  6  1  0  0  0  0
  5  4  2  0  0  0  0
  6  7  2  0  0  0  0
  7  8  1  0  0  0  0
  8 12  1  0  0  0  0
  9  8  2  0  0  0  0
 10  4  1  0  0  0  0
 11  5  1  0  0  0  0
 13 14  1  0  0  0  0
 14 19  1  0  0  0  0
 14 15  2  0  0  0  0
 15 17  1  0  0  0  0
 16 15  1  0  0  0  0
 18 17  2  0  0  0  0
 19 18  1  0  0  0  0
 20  2  1  0  0  0  0
 20 21  1  0  0  0  0
 21 22  1  0  0  0  0
 21 24  1  0  0  0  0
 23 21  1  0  0  0  0
M  END
>  <minimizedAffinity>
-4.50873041

$$$$

 OpenBabel03242519403D

 24 25  0  0  0  0  0  0  0  0999 V2000
   38.9390   29.9610   40.0590 O   0  0  0  0  0  0  0  0  0  0  0  0
   37.7950   30.8220   40.5870 P   0  0  2  0  0  0  0  0  0  0  0  0
   37.1470   30.0850   41.9900 O   0  0  0  0  0  0  0  0  0  0  0  0
   37.2050   26.4100   42.0900 C   0  0  0  0  0  0  0  0  0  0  0  0
   36.7970   27.7250   41.7670 C   0  0  0  0  0  0  0  0  0  0  0  0
   37.5490   28.7780   42.3090 C   0  0  0  0  0  0  0  0  0  0  0  0
   38.6150   28.5000   43.1030 N   0  0  0  0  0  0  0  0  0  0  0  0
   38.9690   27.2310   43.3850 C   0  0  0  0  0  0  0  0  0  0  0  0
   38.2740   26.1870   42.8860 N   0  0  0  0  0  0  0  0  0  0  0  0
   36.5910   25.6610   41.6460 H   0  0  0  0  0  0  0  0  0  0  0  0
   35.9500   27.9170   41.1360 H   0  0  0  0  0  0  0  0  0  0  0  0
   39.8290   27.1330   44.0240 H   0  0  0  0  0  0  0  0  0  0  0  0
   36.5590   31.0010   39.4670 O   0  0  0  0  0  0  0  0  0  0  0  0
   36.4760   30.2040   38.3110 C   0  0  0  0  0  0  0  0  0  0  0  0
   37.1010   30.3910   37.0710 C   0  0  0  0  0  0  0  0  0  0  0  0
   37.7330   31.2570   36.9730 H   0  0  0  0  0  0  0  0  0  0  0  0
   36.8170   29.4320   36.1370 C   0  0  0  0  0  3  0  0  0  0  0  0
   36.0090   28.4100   36.4090 C   0  0  0  0  0  3  0  0  0  0  0  0
   35.4780   28.6270   38.1040 S   0  0  0  0  0  0  0  0  0  0  0  0
   38.4320   32.3100   41.0200 O   0  0  0  0  0  0  0  0  0  0  0  0
   38.5170   33.2040   39.9680 C   0  0  0  0  0  0  0  0  0  0  0  0
   38.9790   32.6410   38.7920 F   0  0  0  0  0  0  0  0  0  0  0  0
   37.3080   33.8590   39.8230 F   0  0  0  0  0  0  0  0  0  0  0  0
   39.4590   34.1570   40.3630 F   0  0  0  0  0  0  0  0  0  0  0  0
  2  1  2  6  0  0  0
  2 20  1  0  0  0  0
  2  3  1  0  0  0  0
  3  6  1  0  0  0  0
  4  9  1  0  0  0  0
  5  4  2  0  0  0  0
  5  6  1  0  0  0  0
  6  7  2  0  0  0  0
  7  8  1  0  0  0  0
  8 12  1  0  0  0  0
  9  8  2  0  0  0  0
 10  4  1  0  0  0  0
 11  5  1  0  0  0  0
 13  2  1  0  0  0  0
 14 13  1  0  0  0  0
 15 14  2  0  0  0  0
 16 15  1  0  0  0  0
 17 18  2  0  0  0  0
 17 15  1  0  0  0  0
 18 19  1  0  0  0  0
 19 14  1  0  0  0  0
 21 24  1  0  0  0  0
 21 20  1  0  0  0  0
 22 21  1  0  0  0  0
 23 21  1  0  0  0  0
M  END
>  <minimizedAffinity>
-4.33583355

$$$$

 OpenBabel03242519403D

 24 25  0  0  0  0  0  0  0  0999 V2000
   39.2810   28.6870   40.8090 O   0  0  0  0  0  0  0  0  0  0  0  0
   38.3000   29.2040   41.8580 P   0  0  2  0  0  0  0  0  0  0  0  0
   39.1060   30.3300   42.8660 O   0  0  0  0  0  0  0  0  0  0  0  0
   42.4020   31.8410   42.2560 C   0  0  0  0  0  0  0  0  0  0  0  0
   41.4000   31.0220   42.8260 C   0  0  0  0  0  0  0  0  0  0  0  0
   40.1040   31.1410   42.3030 C   0  0  0  0  0  0  0  0  0  0  0  0
   39.8680   32.0170   41.2920 N   0  0  0  0  0  0  0  0  0  0  0  0
   40.8530   32.7790   40.7780 C   0  0  0  0  0  0  0  0  0  0  0  0
   42.1150   32.6980   41.2510 N   0  0  0  0  0  0  0  0  0  0  0  0
   43.3600   31.7000   42.7000 H   0  0  0  0  0  0  0  0  0  0  0  0
   41.6130   30.3370   43.6250 H   0  0  0  0  0  0  0  0  0  0  0  0
   40.5490   33.4350   39.9820 H   0  0  0  0  0  0  0  0  0  0  0  0
   37.6890   27.9750   42.8230 O   0  0  0  0  0  0  0  0  0  0  0  0
   38.2030   26.6670   42.7840 C   0  0  0  0  0  0  0  0  0  0  0  0
   37.6390   25.5210   42.2080 C   0  0  0  0  0  0  0  0  0  0  0  0
   36.6830   25.6410   41.7270 H   0  0  0  0  0  0  0  0  0  0  0  0
   38.3930   24.3860   42.3370 C   0  0  0  0  0  3  0  0  0  0  0  0
   39.5670   24.3950   42.9640 C   0  0  0  0  0  3  0  0  0  0  0  0
   39.8320   26.0790   43.5100 S   0  0  0  0  0  0  0  0  0  0  0  0
   37.0660   30.0050   41.0550 O   0  0  0  0  0  0  0  0  0  0  0  0
   36.1180   29.1590   40.5100 C   0  0  0  0  0  0  0  0  0  0  0  0
   35.3220   28.5310   41.4520 F   0  0  0  0  0  0  0  0  0  0  0  0
   35.3940   29.8380   39.5470 F   0  0  0  0  0  0  0  0  0  0  0  0
   36.8410   28.1600   39.8550 F   0  0  0  0  0  0  0  0  0  0  0  0
  2  1  2  6  0  0  0
  2 13  1  0  0  0  0
  2  3  1  0  0  0  0
  4 10  1  0  0  0  0
  4  5  1  0  0  0  0
  5 11  1  0  0  0  0
  6  5  2  0  0  0  0
  6  3  1  0  0  0  0
  7  6  1  0  0  0  0
  8  9  1  0  0  0  0
  8  7  2  0  0  0  0
  9  4  2  0  0  0  0
 12  8  1  0  0  0  0
 14 13  1  0  0  0  0
 14 19  1  0  0  0  0
 15 17  1  0  0  0  0
 15 14  2  0  0  0  0
 16 15  1  0  0  0  0
 17 18  2  0  0  0  0
 18 19  1  0  0  0  0
 20  2  1  0  0  0  0
 21 20  1  0  0  0  0
 21 22  1  0  0  0  0
 23 21  1  0  0  0  0
 24 21  1  0  0  0  0
M  END
>  <minimizedAffinity>
-4.2839036

$$$$

 OpenBabel03242519403D

 24 25  0  0  0  0  0  0  0  0999 V2000
   36.1970   30.8430   41.3520 O   0  0  0  0  0  0  0  0  0  0  0  0
   36.0850   29.4910   40.6530 P   0  0  2  0  0  0  0  0  0  0  0  0
   36.0080   28.2580   41.8380 O   0  0  0  0  0  0  0  0  0  0  0  0
   38.5550   25.6730   42.4310 C   0  0  0  0  0  0  0  0  0  0  0  0
   37.3500   26.2800   42.0080 C   0  0  0  0  0  0  0  0  0  0  0  0
   37.2030   27.6520   42.2570 C   0  0  0  0  0  0  0  0  0  0  0  0
   38.2020   28.3300   42.8800 N   0  0  0  0  0  0  0  0  0  0  0  0
   39.3360   27.7130   43.2660 C   0  0  0  0  0  0  0  0  0  0  0  0
   39.5190   26.3930   43.0470 N   0  0  0  0  0  0  0  0  0  0  0  0
   38.6000   24.6320   42.2100 H   0  0  0  0  0  0  0  0  0  0  0  0
   36.5760   25.7200   41.5170 H   0  0  0  0  0  0  0  0  0  0  0  0
   40.0550   28.3500   43.7490 H   0  0  0  0  0  0  0  0  0  0  0  0
   37.3940   29.1780   39.6520 O   0  0  0  0  0  0  0  0  0  0  0  0
   38.3490   30.1620   39.3380 C   0  0  0  0  0  0  0  0  0  0  0  0
   39.5690   30.4330   39.9710 C   0  0  0  0  0  0  0  0  0  0  0  0
   39.8240   29.8150   40.8160 H   0  0  0  0  0  0  0  0  0  0  0  0
   40.2810   31.4650   39.4230 C   0  0  0  0  0  3  0  0  0  0  0  0
   39.8300   32.1430   38.3700 C   0  0  0  0  0  3  0  0  0  0  0  0
   38.2510   31.4160   37.9430 S   0  0  0  0  0  0  0  0  0  0  0  0
   34.6510   29.4790   39.7860 O   0  0  0  0  0  0  0  0  0  0  0  0
   34.7330   28.7950   38.5870 C   0  0  0  0  0  0  0  0  0  0  0  0
   35.3590   29.5060   37.5790 F   0  0  0  0  0  0  0  0  0  0  0  0
   35.2920   27.5490   38.8070 F   0  0  0  0  0  0  0  0  0  0  0  0
   33.4120   28.5900   38.1840 F   0  0  0  0  0  0  0  0  0  0  0  0
  2  1  2  1  0  0  0
  2  3  1  0  0  0  0
  3  6  1  0  0  0  0
  4  9  1  0  0  0  0
  5  6  1  0  0  0  0
  5  4  2  0  0  0  0
  6  7  2  0  0  0  0
  7  8  1  0  0  0  0
  8 12  1  0  0  0  0
  9  8  2  0  0  0  0
 10  4  1  0  0  0  0
 11  5  1  0  0  0  0
 13  2  1  0  0  0  0
 14 13  1  0  0  0  0
 14 15  2  0  0  0  0
 15 16  1  0  0  0  0
 17 15  1  0  0  0  0
 18 17  2  0  0  0  0
 19 18  1  0  0  0  0
 19 14  1  0  0  0  0
 20  2  1  0  0  0  0
 21 23  1  0  0  0  0
 21 20  1  0  0  0  0
 22 21  1  0  0  0  0
 24 21  1  0  0  0  0
M  END
>  <minimizedAffinity>
-4.19856882

$$$$

 OpenBabel03242519403D

 24 25  0  0  0  0  0  0  0  0999 V2000
   34.9250   29.2230   40.3280 O   0  0  0  0  0  0  0  0  0  0  0  0
   36.3910   29.6070   40.1440 P   0  0  2  0  0  0  0  0  0  0  0  0
   36.4790   31.0150   39.1740 O   0  0  0  0  0  0  0  0  0  0  0  0
   39.8820   32.4080   39.1470 C   0  0  0  0  0  0  0  0  0  0  0  0
   38.8130   31.5070   38.9380 C   0  0  0  0  0  0  0  0  0  0  0  0
   37.5430   31.9070   39.3810 C   0  0  0  0  0  0  0  0  0  0  0  0
   37.3950   33.1170   39.9800 N   0  0  0  0  0  0  0  0  0  0  0  0
   38.4420   33.9460   40.1590 C   0  0  0  0  0  0  0  0  0  0  0  0
   39.6810   33.6010   39.7490 N   0  0  0  0  0  0  0  0  0  0  0  0
   40.8150   32.0400   38.7870 H   0  0  0  0  0  0  0  0  0  0  0  0
   38.9580   30.5550   38.4610 H   0  0  0  0  0  0  0  0  0  0  0  0
   38.2040   34.8760   40.6450 H   0  0  0  0  0  0  0  0  0  0  0  0
   37.2800   28.3960   39.3980 O   0  0  0  0  0  0  0  0  0  0  0  0
   36.7500   27.1150   39.1610 C   0  0  0  0  0  0  0  0  0  0  0  0
   36.9030   25.9490   39.9220 C   0  0  0  0  0  0  0  0  0  0  0  0
   37.5070   26.0260   40.8110 H   0  0  0  0  0  0  0  0  0  0  0  0
   36.2550   24.8510   39.4240 C   0  0  0  0  0  3  0  0  0  0  0  0
   35.5400   24.9120   38.3020 C   0  0  0  0  0  3  0  0  0  0  0  0
   35.6580   26.6010   37.7220 S   0  0  0  0  0  0  0  0  0  0  0  0
   37.0190   29.9670   41.6560 O   0  0  0  0  0  0  0  0  0  0  0  0
   37.3580   28.8500   42.3960 C   0  0  0  0  0  0  0  0  0  0  0  0
   36.3330   27.9280   42.5180 F   0  0  0  0  0  0  0  0  0  0  0  0
   38.5280   28.3050   41.8970 F   0  0  0  0  0  0  0  0  0  0  0  0
   37.6380   29.3240   43.6800 F   0  0  0  0  0  0  0  0  0  0  0  0
  2  1  2  1  0  0  0
  2 20  1  0  0  0  0
  3  6  1  0  0  0  0
  3  2  1  0  0  0  0
  4  9  1  0  0  0  0
  5  4  2  0  0  0  0
  5  6  1  0  0  0  0
  6  7  2  0  0  0  0
  7  8  1  0  0  0  0
  8 12  1  0  0  0  0
  9  8  2  0  0  0  0
 10  4  1  0  0  0  0
 11  5  1  0  0  0  0
 13  2  1  0  0  0  0
 14 13  1  0  0  0  0
 14 15  2  0  0  0  0
 15 16  1  0  0  0  0
 17 15  1  0  0  0  0
 18 17  2  0  0  0  0
 19 18  1  0  0  0  0
 19 14  1  0  0  0  0
 20 21  1  0  0  0  0
 21 22  1  0  0  0  0
 21 24  1  0  0  0  0
 23 21  1  0  0  0  0
M  END
>  <minimizedAffinity>
-4.19537497

$$$$

 OpenBabel03242519403D

 24 25  0  0  0  0  0  0  0  0999 V2000
   38.4900   29.7120   39.9160 O   0  0  0  0  0  0  0  0  0  0  0  0
   37.3950   30.0080   40.9370 P   0  0  2  0  0  0  0  0  0  0  0  0
   38.1100   30.1970   42.4800 O   0  0  0  0  0  0  0  0  0  0  0  0
   41.3810   28.5620   42.8690 C   0  0  0  0  0  0  0  0  0  0  0  0
   39.9810   28.7240   42.7480 C   0  0  0  0  0  0  0  0  0  0  0  0
   39.4990   30.0330   42.6020 C   0  0  0  0  0  0  0  0  0  0  0  0
   40.3760   31.0710   42.5830 N   0  0  0  0  0  0  0  0  0  0  0  0
   41.7030   30.8720   42.7020 C   0  0  0  0  0  0  0  0  0  0  0  0
   42.2110   29.6290   42.8450 N   0  0  0  0  0  0  0  0  0  0  0  0
   41.6770   27.5450   42.9770 H   0  0  0  0  0  0  0  0  0  0  0  0
   39.3100   27.8860   42.7650 H   0  0  0  0  0  0  0  0  0  0  0  0
   42.2980   31.7670   42.6740 H   0  0  0  0  0  0  0  0  0  0  0  0
   36.2580   28.7780   41.0300 O   0  0  0  0  0  0  0  0  0  0  0  0
   36.6250   27.4290   41.1800 C   0  0  0  0  0  0  0  0  0  0  0  0
   36.9070   26.7230   42.3560 C   0  0  0  0  0  0  0  0  0  0  0  0
   36.8400   27.2740   43.2800 H   0  0  0  0  0  0  0  0  0  0  0  0
   37.2370   25.4080   42.1690 C   0  0  0  0  0  3  0  0  0  0  0  0
   37.2780   24.8640   40.9550 C   0  0  0  0  0  3  0  0  0  0  0  0
   36.8420   26.1660   39.8070 S   0  0  0  0  0  0  0  0  0  0  0  0
   36.6750   31.4590   40.5080 O   0  0  0  0  0  0  0  0  0  0  0  0
   37.4770   32.2670   39.7240 C   0  0  0  0  0  0  0  0  0  0  0  0
   38.7860   32.3510   40.1650 F   0  0  0  0  0  0  0  0  0  0  0  0
   37.3700   31.8770   38.4010 F   0  0  0  0  0  0  0  0  0  0  0  0
   36.9300   33.5470   39.8230 F   0  0  0  0  0  0  0  0  0  0  0  0
  2  1  2  6  0  0  0
  2 13  1  0  0  0  0
  2  3  1  0  0  0  0
  3  6  1  0  0  0  0
  4 10  1  0  0  0  0
  5 11  1  0  0  0  0
  5  4  2  0  0  0  0
  6  5  1  0  0  0  0
  7  6  2  0  0  0  0
  7  8  1  0  0  0  0
  8  9  2  0  0  0  0
  9  4  1  0  0  0  0
 12  8  1  0  0  0  0
 13 14  1  0  0  0  0
 14 15  2  0  0  0  0
 15 16  1  0  0  0  0
 17 15  1  0  0  0  0
 18 17  2  0  0  0  0
 19 18  1  0  0  0  0
 19 14  1  0  0  0  0
 20  2  1  0  0  0  0
 21 24  1  0  0  0  0
 21 22  1  0  0  0  0
 21 20  1  0  0  0  0
 23 21  1  0  0  0  0
M  END
>  <minimizedAffinity>
-4.19435215

$$$$
