
 OpenBabel03242517143D

 20 21  0  0  0  0  0  0  0  0999 V2000
   36.8550   27.6120   42.2120 C   0  0  0  0  0  3  0  0  0  0  0  0
   36.4570   27.9250   41.0030 C   0  0  0  0  0  3  0  0  0  0  0  0
   38.9560   26.9050   43.3700 C   0  0  0  0  0  0  0  0  0  0  0  0
   37.8490   26.6220   42.5720 C   0  0  0  0  0  0  0  0  0  0  0  0
   37.7130   25.3220   42.1100 C   0  0  0  0  0  0  0  0  0  0  0  0
   38.6510   24.3800   42.4470 N   0  0  0  0  0  0  0  0  0  0  0  0
   39.7110   24.7110   43.2290 C   0  0  0  0  0  0  0  0  0  0  0  0
   39.8470   25.9720   43.6790 N   0  0  0  0  0  0  0  0  0  0  0  0
   39.0470   27.9330   43.7240 H   0  0  0  0  0  0  0  0  0  0  0  0
   36.8800   25.0160   41.4820 H   0  0  0  0  0  0  0  0  0  0  0  0
   40.3610   23.8890   43.4140 H   0  0  0  0  0  0  0  0  0  0  0  0
   35.4210   28.9650   40.7330 C   0  0  0  0  0  0  0  0  0  0  0  0
   34.9510   29.2800   41.6970 H   0  0  0  0  0  0  0  0  0  0  0  0
   34.6410   28.5700   40.0520 H   0  0  0  0  0  0  0  0  0  0  0  0
   36.1320   30.1310   40.1600 C   0  0  0  0  0  0  0  0  0  0  0  0
   36.6160   31.2830   40.7810 C   0  0  0  0  0  0  0  0  0  0  0  0
   36.4560   31.3560   41.8430 H   0  0  0  0  0  0  0  0  0  0  0  0
   37.2480   32.2270   40.0230 C   0  0  0  0  0  3  0  0  0  0  0  0
   37.3770   31.9710   38.6130 C   0  0  0  0  0  3  0  0  0  0  0  0
   36.5300   30.2890   38.4650 S   0  0  0  0  0  0  0  0  0  0  0  0
  1  4  1  0  0  0  0
  2  1  2  0  0  0  0
  3  8  1  0  0  0  0
  3  9  1  0  0  0  0
  4  3  2  0  0  0  0
  5  6  2  0  0  0  0
  5  4  1  0  0  0  0
  6  7  1  0  0  0  0
  7 11  1  0  0  0  0
  7  8  2  0  0  0  0
 10  5  1  0  0  0  0
 12  2  1  0  0  0  0
 12 13  1  0  0  0  0
 14 12  1  0  0  0  0
 15 12  1  0  0  0  0
 15 16  2  0  0  0  0
 16 17  1  0  0  0  0
 18 16  1  0  0  0  0
 19 18  2  0  0  0  0
 20 19  1  0  0  0  0
 20 15  1  0  0  0  0
M  END
>  <minimizedAffinity>
-4.39695168

$$$$

 OpenBabel03242517143D

 20 21  0  0  0  0  0  0  0  0999 V2000
   36.9460   29.2440   41.7970 C   0  0  0  0  0  3  0  0  0  0  0  0
   37.3140   28.4890   42.8020 C   0  0  0  0  0  3  0  0  0  0  0  0
   38.9100   30.7810   41.6100 C   0  0  0  0  0  0  0  0  0  0  0  0
   37.5740   30.4730   41.3570 C   0  0  0  0  0  0  0  0  0  0  0  0
   36.8300   31.4030   40.6480 C   0  0  0  0  0  0  0  0  0  0  0  0
   37.4200   32.5680   40.2290 N   0  0  0  0  0  0  0  0  0  0  0  0
   38.7270   32.8170   40.5030 C   0  0  0  0  0  0  0  0  0  0  0  0
   39.4530   31.9160   41.1910 N   0  0  0  0  0  0  0  0  0  0  0  0
   39.4800   30.0380   42.1690 H   0  0  0  0  0  0  0  0  0  0  0  0
   35.7820   31.2420   40.4080 H   0  0  0  0  0  0  0  0  0  0  0  0
   39.0580   33.7540   40.1220 H   0  0  0  0  0  0  0  0  0  0  0  0
   36.5970   27.2340   43.1790 C   0  0  0  0  0  0  0  0  0  0  0  0
   35.5810   27.2330   42.7150 H   0  0  0  0  0  0  0  0  0  0  0  0
   36.5010   27.1570   44.2810 H   0  0  0  0  0  0  0  0  0  0  0  0
   37.3750   26.1140   42.6030 C   0  0  0  0  0  0  0  0  0  0  0  0
   36.9440   24.8880   42.0960 C   0  0  0  0  0  0  0  0  0  0  0  0
   35.8830   24.7080   42.1210 H   0  0  0  0  0  0  0  0  0  0  0  0
   37.8710   24.0090   41.6120 C   0  0  0  0  0  3  0  0  0  0  0  0
   39.2530   24.4090   41.6550 C   0  0  0  0  0  3  0  0  0  0  0  0
   39.1160   26.1230   42.4360 S   0  0  0  0  0  0  0  0  0  0  0  0
  1  2  2  0  0  0  0
  2 12  1  0  0  0  0
  3  9  1  0  0  0  0
  4  3  1  0  0  0  0
  4  1  1  0  0  0  0
  5  4  2  0  0  0  0
  6  7  2  0  0  0  0
  6  5  1  0  0  0  0
  7  8  1  0  0  0  0
  8  3  2  0  0  0  0
 10  5  1  0  0  0  0
 11  7  1  0  0  0  0
 12 14  1  0  0  0  0
 13 12  1  0  0  0  0
 15 12  1  0  0  0  0
 16 17  1  0  0  0  0
 16 15  2  0  0  0  0
 18 19  2  0  0  0  0
 18 16  1  0  0  0  0
 19 20  1  0  0  0  0
 20 15  1  0  0  0  0
M  END
>  <minimizedAffinity>
-4.21894646

$$$$

 OpenBabel03242517143D

 20 21  0  0  0  0  0  0  0  0999 V2000
   36.2710   28.7790   41.2080 C   0  0  0  0  0  3  0  0  0  0  0  0
   36.9410   28.3960   42.2680 C   0  0  0  0  0  3  0  0  0  0  0  0
   36.6520   29.8210   38.9670 C   0  0  0  0  0  0  0  0  0  0  0  0
   36.5660   29.9110   40.3560 C   0  0  0  0  0  0  0  0  0  0  0  0
   36.7780   31.1580   40.9260 C   0  0  0  0  0  0  0  0  0  0  0  0
   37.0570   32.2340   40.1240 N   0  0  0  0  0  0  0  0  0  0  0  0
   37.1290   32.0880   38.7750 C   0  0  0  0  0  0  0  0  0  0  0  0
   36.9250   30.8800   38.2170 N   0  0  0  0  0  0  0  0  0  0  0  0
   36.4840   28.8330   38.5360 H   0  0  0  0  0  0  0  0  0  0  0  0
   36.7290   31.3160   42.0010 H   0  0  0  0  0  0  0  0  0  0  0  0
   37.3530   32.9990   38.2720 H   0  0  0  0  0  0  0  0  0  0  0  0
   36.5560   27.2080   43.0860 C   0  0  0  0  0  0  0  0  0  0  0  0
   35.4630   27.0130   42.9660 H   0  0  0  0  0  0  0  0  0  0  0  0
   36.7850   27.3820   44.1560 H   0  0  0  0  0  0  0  0  0  0  0  0
   37.2990   26.0540   42.5310 C   0  0  0  0  0  0  0  0  0  0  0  0
   36.8350   24.8140   42.0920 C   0  0  0  0  0  0  0  0  0  0  0  0
   35.7720   24.6500   42.1590 H   0  0  0  0  0  0  0  0  0  0  0  0
   37.7330   23.9020   41.6130 C   0  0  0  0  0  3  0  0  0  0  0  0
   39.1200   24.2840   41.5940 C   0  0  0  0  0  3  0  0  0  0  0  0
   39.0330   26.0310   42.3060 S   0  0  0  0  0  0  0  0  0  0  0  0
  1  2  2  0  0  0  0
  2 12  1  0  0  0  0
  3  4  1  0  0  0  0
  4  5  2  0  0  0  0
  4  1  1  0  0  0  0
  5 10  1  0  0  0  0
  6  5  1  0  0  0  0
  7  6  2  0  0  0  0
  8  7  1  0  0  0  0
  8  3  2  0  0  0  0
  9  3  1  0  0  0  0
 11  7  1  0  0  0  0
 12 14  1  0  0  0  0
 13 12  1  0  0  0  0
 15 12  1  0  0  0  0
 16 17  1  0  0  0  0
 16 15  2  0  0  0  0
 18 16  1  0  0  0  0
 19 18  2  0  0  0  0
 19 20  1  0  0  0  0
 20 15  1  0  0  0  0
M  END
>  <minimizedAffinity>
-4.21058321

$$$$

 OpenBabel03242517143D

 20 21  0  0  0  0  0  0  0  0999 V2000
   37.3000   29.4500   41.3710 C   0  0  0  0  0  3  0  0  0  0  0  0
   37.3090   28.9090   42.5640 C   0  0  0  0  0  3  0  0  0  0  0  0
   38.9830   31.3000   41.4000 C   0  0  0  0  0  0  0  0  0  0  0  0
   37.7470   30.7810   41.0160 C   0  0  0  0  0  0  0  0  0  0  0  0
   36.9220   31.5990   40.2580 C   0  0  0  0  0  0  0  0  0  0  0  0
   37.3410   32.8600   39.9200 N   0  0  0  0  0  0  0  0  0  0  0  0
   38.5570   33.3140   40.3220 C   0  0  0  0  0  0  0  0  0  0  0  0
   39.3600   32.5240   41.0570 N   0  0  0  0  0  0  0  0  0  0  0  0
   39.6180   30.6430   41.9960 H   0  0  0  0  0  0  0  0  0  0  0  0
   35.9420   31.2730   39.9170 H   0  0  0  0  0  0  0  0  0  0  0  0
   38.7570   34.3060   39.9920 H   0  0  0  0  0  0  0  0  0  0  0  0
   36.8230   27.5220   42.8300 C   0  0  0  0  0  0  0  0  0  0  0  0
   36.2320   27.1610   41.9530 H   0  0  0  0  0  0  0  0  0  0  0  0
   36.1890   27.5000   43.7380 H   0  0  0  0  0  0  0  0  0  0  0  0
   38.0280   26.6710   42.9620 C   0  0  0  0  0  0  0  0  0  0  0  0
   39.2050   26.8860   43.6800 C   0  0  0  0  0  0  0  0  0  0  0  0
   39.2680   27.8110   44.2290 H   0  0  0  0  0  0  0  0  0  0  0  0
   40.1850   25.9360   43.6440 C   0  0  0  0  0  3  0  0  0  0  0  0
   39.9380   24.7560   42.8570 C   0  0  0  0  0  3  0  0  0  0  0  0
   38.2110   25.1170   42.1830 S   0  0  0  0  0  0  0  0  0  0  0  0
  1  2  2  0  0  0  0
  2 12  1  0  0  0  0
  3  9  1  0  0  0  0
  4  1  1  0  0  0  0
  4  3  2  0  0  0  0
  5  4  1  0  0  0  0
  6  5  2  0  0  0  0
  6  7  1  0  0  0  0
  7  8  2  0  0  0  0
  8  3  1  0  0  0  0
 10  5  1  0  0  0  0
 11  7  1  0  0  0  0
 12 15  1  0  0  0  0
 12 14  1  0  0  0  0
 13 12  1  0  0  0  0
 15 16  2  0  0  0  0
 16 17  1  0  0  0  0
 18 16  1  0  0  0  0
 19 18  2  0  0  0  0
 20 19  1  0  0  0  0
 20 15  1  0  0  0  0
M  END
>  <minimizedAffinity>
-4.19975519

$$$$

 OpenBabel03242517143D

 20 21  0  0  0  0  0  0  0  0999 V2000
   37.1610   30.5690   40.1380 C   0  0  0  0  0  3  0  0  0  0  0  0
   35.9990   30.3190   40.6890 C   0  0  0  0  0  3  0  0  0  0  0  0
   39.2310   31.8590   40.6930 C   0  0  0  0  0  0  0  0  0  0  0  0
   37.9190   31.8000   40.2250 C   0  0  0  0  0  0  0  0  0  0  0  0
   37.3300   32.9920   39.8300 C   0  0  0  0  0  0  0  0  0  0  0  0
   38.0430   34.1610   39.9100 N   0  0  0  0  0  0  0  0  0  0  0  0
   39.3200   34.1590   40.3740 C   0  0  0  0  0  0  0  0  0  0  0  0
   39.8940   33.0050   40.7590 N   0  0  0  0  0  0  0  0  0  0  0  0
   39.6770   30.9120   41.0010 H   0  0  0  0  0  0  0  0  0  0  0  0
   36.3110   33.0360   39.4520 H   0  0  0  0  0  0  0  0  0  0  0  0
   39.7570   35.1300   40.3850 H   0  0  0  0  0  0  0  0  0  0  0  0
   35.2930   29.0120   40.5400 C   0  0  0  0  0  0  0  0  0  0  0  0
   35.1790   28.7730   39.4550 H   0  0  0  0  0  0  0  0  0  0  0  0
   34.2940   29.0530   41.0170 H   0  0  0  0  0  0  0  0  0  0  0  0
   36.1690   27.9880   41.1540 C   0  0  0  0  0  0  0  0  0  0  0  0
   36.5810   27.8350   42.4780 C   0  0  0  0  0  0  0  0  0  0  0  0
   36.2170   28.5660   43.1790 H   0  0  0  0  0  0  0  0  0  0  0  0
   37.4020   26.7910   42.7990 C   0  0  0  0  0  3  0  0  0  0  0  0
   37.7960   25.9040   41.7370 C   0  0  0  0  0  3  0  0  0  0  0  0
   36.9060   26.6770   40.2620 S   0  0  0  0  0  0  0  0  0  0  0  0
  1  4  1  0  0  0  0
  1  2  2  0  0  0  0
  3  8  1  0  0  0  0
  3  9  1  0  0  0  0
  4  3  2  0  0  0  0
  5  6  2  0  0  0  0
  5  4  1  0  0  0  0
  6  7  1  0  0  0  0
  7 11  1  0  0  0  0
  7  8  2  0  0  0  0
 10  5  1  0  0  0  0
 12  2  1  0  0  0  0
 12 14  1  0  0  0  0
 12 15  1  0  0  0  0
 13 12  1  0  0  0  0
 15 16  2  0  0  0  0
 16 18  1  0  0  0  0
 16 17  1  0  0  0  0
 19 18  2  0  0  0  0
 20 15  1  0  0  0  0
 20 19  1  0  0  0  0
M  END
>  <minimizedAffinity>
-4.07517672

$$$$

 OpenBabel03242517143D

 20 21  0  0  0  0  0  0  0  0999 V2000
   37.7180   28.9500   42.4180 C   0  0  0  0  0  3  0  0  0  0  0  0
   36.8840   27.9830   42.1250 C   0  0  0  0  0  3  0  0  0  0  0  0
   36.8080   30.8170   41.0240 C   0  0  0  0  0  0  0  0  0  0  0  0
   37.8470   30.2230   41.7390 C   0  0  0  0  0  0  0  0  0  0  0  0
   39.0550   30.9020   41.7880 C   0  0  0  0  0  0  0  0  0  0  0  0
   39.1840   32.1080   41.1470 N   0  0  0  0  0  0  0  0  0  0  0  0
   38.1360   32.6400   40.4650 C   0  0  0  0  0  0  0  0  0  0  0  0
   36.9630   31.9840   40.4140 N   0  0  0  0  0  0  0  0  0  0  0  0
   35.8660   30.2680   40.9960 H   0  0  0  0  0  0  0  0  0  0  0  0
   39.9170   30.5100   42.3230 H   0  0  0  0  0  0  0  0  0  0  0  0
   38.3700   33.5760   40.0150 H   0  0  0  0  0  0  0  0  0  0  0  0
   36.8270   26.7010   42.8880 C   0  0  0  0  0  0  0  0  0  0  0  0
   35.7900   26.5440   43.2720 H   0  0  0  0  0  0  0  0  0  0  0  0
   37.5380   26.7230   43.7380 H   0  0  0  0  0  0  0  0  0  0  0  0
   37.1360   25.6210   41.9240 C   0  0  0  0  0  0  0  0  0  0  0  0
   37.5850   24.3190   42.1470 C   0  0  0  0  0  0  0  0  0  0  0  0
   37.7380   24.0360   43.1740 H   0  0  0  0  0  0  0  0  0  0  0  0
   37.7990   23.5000   41.0750 C   0  0  0  0  0  3  0  0  0  0  0  0
   37.5450   24.0400   39.7650 C   0  0  0  0  0  3  0  0  0  0  0  0
   36.9820   25.7910   40.1900 S   0  0  0  0  0  0  0  0  0  0  0  0
  2  1  2  0  0  0  0
  2 12  1  0  0  0  0
  3  4  1  0  0  0  0
  4  5  2  0  0  0  0
  4  1  1  0  0  0  0
  5 10  1  0  0  0  0
  6  5  1  0  0  0  0
  7  6  2  0  0  0  0
  8  7  1  0  0  0  0
  8  3  2  0  0  0  0
  9  3  1  0  0  0  0
 11  7  1  0  0  0  0
 12 13  1  0  0  0  0
 12 14  1  0  0  0  0
 15 16  2  0  0  0  0
 15 12  1  0  0  0  0
 16 17  1  0  0  0  0
 18 16  1  0  0  0  0
 19 20  1  0  0  0  0
 19 18  2  0  0  0  0
 20 15  1  0  0  0  0
M  END
>  <minimizedAffinity>
-4.01798677

$$$$

 OpenBabel03242517143D

 20 21  0  0  0  0  0  0  0  0999 V2000
   37.7520   26.3060   42.1830 C   0  0  0  0  0  3  0  0  0  0  0  0
   36.8700   27.0550   42.7980 C   0  0  0  0  0  3  0  0  0  0  0  0
   37.9610   23.8940   41.5570 C   0  0  0  0  0  0  0  0  0  0  0  0
   37.4820   25.1800   41.3130 C   0  0  0  0  0  0  0  0  0  0  0  0
   36.7100   25.3670   40.1760 C   0  0  0  0  0  0  0  0  0  0  0  0
   36.4510   24.3040   39.3490 N   0  0  0  0  0  0  0  0  0  0  0  0
   36.9440   23.0710   39.6360 C   0  0  0  0  0  0  0  0  0  0  0  0
   37.6940   22.8860   40.7380 N   0  0  0  0  0  0  0  0  0  0  0  0
   38.5670   23.7660   42.4550 H   0  0  0  0  0  0  0  0  0  0  0  0
   36.2960   26.3370   39.9120 H   0  0  0  0  0  0  0  0  0  0  0  0
   36.6690   22.3380   38.9140 H   0  0  0  0  0  0  0  0  0  0  0  0
   37.2490   28.1990   43.6790 C   0  0  0  0  0  0  0  0  0  0  0  0
   38.0580   27.8770   44.3790 H   0  0  0  0  0  0  0  0  0  0  0  0
   36.3740   28.5500   44.2600 H   0  0  0  0  0  0  0  0  0  0  0  0
   37.7940   29.2520   42.7910 C   0  0  0  0  0  0  0  0  0  0  0  0
   39.0500   29.8600   42.7840 C   0  0  0  0  0  0  0  0  0  0  0  0
   39.7460   29.5260   43.5350 H   0  0  0  0  0  0  0  0  0  0  0  0
   39.3150   30.8190   41.8490 C   0  0  0  0  0  3  0  0  0  0  0  0
   38.2680   31.1470   40.9170 C   0  0  0  0  0  3  0  0  0  0  0  0
   36.8930   29.9840   41.4840 S   0  0  0  0  0  0  0  0  0  0  0  0
  1  2  2  0  0  0  0
  2 12  1  0  0  0  0
  3  9  1  0  0  0  0
  4  3  1  0  0  0  0
  4  1  1  0  0  0  0
  5  4  2  0  0  0  0
  6  7  2  0  0  0  0
  6  5  1  0  0  0  0
  7  8  1  0  0  0  0
  8  3  2  0  0  0  0
 10  5  1  0  0  0  0
 11  7  1  0  0  0  0
 12 14  1  0  0  0  0
 12 13  1  0  0  0  0
 15 12  1  0  0  0  0
 16 15  2  0  0  0  0
 16 17  1  0  0  0  0
 18 16  1  0  0  0  0
 19 20  1  0  0  0  0
 19 18  2  0  0  0  0
 20 15  1  0  0  0  0
M  END
>  <minimizedAffinity>
-4.00919628

$$$$

 OpenBabel03242517143D

 20 21  0  0  0  0  0  0  0  0999 V2000
   36.7270   27.3830   42.1040 C   0  0  0  0  0  3  0  0  0  0  0  0
   36.6840   28.1150   41.0180 C   0  0  0  0  0  3  0  0  0  0  0  0
   37.6820   25.0740   41.9980 C   0  0  0  0  0  0  0  0  0  0  0  0
   37.7270   26.3930   42.4460 C   0  0  0  0  0  0  0  0  0  0  0  0
   38.7920   26.7530   43.2590 C   0  0  0  0  0  0  0  0  0  0  0  0
   39.7420   25.8200   43.5870 N   0  0  0  0  0  0  0  0  0  0  0  0
   39.6480   24.5470   43.1200 C   0  0  0  0  0  0  0  0  0  0  0  0
   38.6170   24.1940   42.3310 N   0  0  0  0  0  0  0  0  0  0  0  0
   36.8380   24.8090   41.3600 H   0  0  0  0  0  0  0  0  0  0  0  0
   38.9030   27.7600   43.6530 H   0  0  0  0  0  0  0  0  0  0  0  0
   40.4480   23.9270   43.4490 H   0  0  0  0  0  0  0  0  0  0  0  0
   35.6050   29.1130   40.7550 C   0  0  0  0  0  0  0  0  0  0  0  0
   35.9620   30.1310   41.0480 H   0  0  0  0  0  0  0  0  0  0  0  0
   34.6920   28.8610   41.3300 H   0  0  0  0  0  0  0  0  0  0  0  0
   35.3700   29.1050   39.2930 C   0  0  0  0  0  0  0  0  0  0  0  0
   34.2160   28.7970   38.5710 C   0  0  0  0  0  0  0  0  0  0  0  0
   33.3510   28.5180   39.1480 H   0  0  0  0  0  0  0  0  0  0  0  0
   34.2520   28.8650   37.2070 C   0  0  0  0  0  3  0  0  0  0  0  0
   35.4930   29.2550   36.5930 C   0  0  0  0  0  3  0  0  0  0  0  0
   36.5900   29.5120   38.1090 S   0  0  0  0  0  0  0  0  0  0  0  0
  1  4  1  0  0  0  0
  2  1  2  0  0  0  0
  3  8  2  0  0  0  0
  3  4  1  0  0  0  0
  4  5  2  0  0  0  0
  5  6  1  0  0  0  0
  5 10  1  0  0  0  0
  7 11  1  0  0  0  0
  7  6  2  0  0  0  0
  8  7  1  0  0  0  0
  9  3  1  0  0  0  0
 12  2  1  0  0  0  0
 12 13  1  0  0  0  0
 12 14  1  0  0  0  0
 15 12  1  0  0  0  0
 16 17  1  0  0  0  0
 16 15  2  0  0  0  0
 18 16  1  0  0  0  0
 19 18  2  0  0  0  0
 19 20  1  0  0  0  0
 20 15  1  0  0  0  0
M  END
>  <minimizedAffinity>
-3.93800068

$$$$

 OpenBabel03242517143D

 20 21  0  0  0  0  0  0  0  0999 V2000
   34.3790   28.9510   37.6390 C   0  0  0  0  0  3  0  0  0  0  0  0
   33.0790   28.9020   37.4820 C   0  0  0  0  0  3  0  0  0  0  0  0
   35.0230   29.2070   40.0420 C   0  0  0  0  0  0  0  0  0  0  0  0
   35.1290   28.5560   38.8130 C   0  0  0  0  0  0  0  0  0  0  0  0
   36.0010   27.4810   38.7360 C   0  0  0  0  0  0  0  0  0  0  0  0
   36.7140   27.1030   39.8450 N   0  0  0  0  0  0  0  0  0  0  0  0
   36.5710   27.7740   41.0180 C   0  0  0  0  0  0  0  0  0  0  0  0
   35.7260   28.8180   41.0970 N   0  0  0  0  0  0  0  0  0  0  0  0
   34.3330   30.0510   40.0840 H   0  0  0  0  0  0  0  0  0  0  0  0
   36.1440   26.9180   37.8170 H   0  0  0  0  0  0  0  0  0  0  0  0
   37.1800   27.3790   41.7970 H   0  0  0  0  0  0  0  0  0  0  0  0
   32.3960   29.3340   36.2260 C   0  0  0  0  0  0  0  0  0  0  0  0
   31.8990   28.4530   35.7520 H   0  0  0  0  0  0  0  0  0  0  0  0
   33.1270   29.7720   35.5180 H   0  0  0  0  0  0  0  0  0  0  0  0
   31.3490   30.3010   36.6270 C   0  0  0  0  0  0  0  0  0  0  0  0
   30.8790   31.4390   35.9700 C   0  0  0  0  0  0  0  0  0  0  0  0
   31.3370   31.6670   35.0230 H   0  0  0  0  0  0  0  0  0  0  0  0
   29.8900   32.1780   36.5530 C   0  0  0  0  0  3  0  0  0  0  0  0
   29.3880   31.7310   37.8260 C   0  0  0  0  0  3  0  0  0  0  0  0
   30.4360   30.1860   38.1130 S   0  0  0  0  0  0  0  0  0  0  0  0
  1  4  1  0  0  0  0
  2  1  2  0  0  0  0
  3  9  1  0  0  0  0
  3  8  1  0  0  0  0
  4  3  2  0  0  0  0
  5  4  1  0  0  0  0
  5  6  2  0  0  0  0
  6  7  1  0  0  0  0
  7  8  2  0  0  0  0
  7 11  1  0  0  0  0
 10  5  1  0  0  0  0
 12 15  1  0  0  0  0
 12  2  1  0  0  0  0
 13 12  1  0  0  0  0
 14 12  1  0  0  0  0
 15 20  1  0  0  0  0
 16 18  1  0  0  0  0
 16 15  2  0  0  0  0
 17 16  1  0  0  0  0
 18 19  2  0  0  0  0
 19 20  1  0  0  0  0
M  END
>  <minimizedAffinity>
-3.90970564

$$$$
