
 OpenBabel03252508463D

 42 44  0  0  0  0  0  0  0  0999 V2000
   43.0420   32.5460   41.6450 C   0  0  0  0  0  0  0  0  0  0  0  0
   42.1260   32.9790   41.2030 H   0  0  0  0  0  0  0  0  0  0  0  0
   43.6290   32.1150   40.7820 H   0  0  0  0  0  0  0  0  0  0  0  0
   43.6580   34.9610   41.8810 C   0  0  0  0  0  0  0  0  0  0  0  0
   43.9030   33.6360   42.1890 C   0  0  0  0  0  0  0  0  0  0  0  0
   44.9680   33.3360   43.0130 C   0  0  0  0  0  0  0  0  0  0  0  0
   45.7540   34.3430   43.5080 C   0  0  0  0  0  0  0  0  0  0  0  0
   45.5290   35.6700   43.2160 C   0  0  0  0  0  0  0  0  0  0  0  0
   44.4500   35.9210   42.3850 C   0  0  0  0  0  0  0  0  0  0  0  0
   45.2080   32.3180   43.2880 H   0  0  0  0  0  0  0  0  0  0  0  0
   46.5920   34.1130   44.1570 H   0  0  0  0  0  0  0  0  0  0  0  0
   46.0940   36.5030   43.5630 H   0  0  0  0  0  0  0  0  0  0  0  0
   44.1970   36.9340   42.1020 H   0  0  0  0  0  0  0  0  0  0  0  0
   40.2250   35.8050   40.5240 C   0  0  0  0  0  0  0  0  0  0  0  0
   41.2560   35.5870   41.4540 C   0  0  0  0  0  0  0  0  0  0  0  0
   42.5150   35.2130   41.0030 C   0  0  0  0  0  0  0  0  0  0  0  0
   42.6830   35.0750   39.6590 N   0  0  0  0  0  0  0  0  0  0  0  0
   41.6810   35.2870   38.7760 C   0  0  0  0  0  0  0  0  0  0  0  0
   40.4550   35.6530   39.2190 N   0  0  0  0  0  0  0  0  0  0  0  0
   39.2650   36.0930   40.8900 H   0  0  0  0  0  0  0  0  0  0  0  0
   41.1210   35.6980   42.5200 H   0  0  0  0  0  0  0  0  0  0  0  0
   41.9540   35.1410   37.7450 H   0  0  0  0  0  0  0  0  0  0  0  0
   42.7070   31.5180   42.5740 N   0  0  0  0  0  0  0  0  0  0  0  0
   43.0310   31.6690   43.5470 H   0  0  0  0  0  0  0  0  0  0  0  0
   41.0440   31.1430   42.5660 S   0  0  0  0  0  0  0  0  0  0  0  0
   40.2000   32.3890   42.4340 O   0  0  0  0  0  0  0  0  0  0  0  0
   39.8860   32.8360   43.2790 H   0  0  0  0  0  0  0  0  0  0  0  0
   40.6480   30.4000   43.7970 O   0  0  0  0  0  0  0  0  0  0  0  0
   39.8080   30.4990   44.3080 H   0  0  0  0  0  0  0  0  0  0  0  0
   40.7390   30.1740   41.2260 O   0  0  0  0  0  0  0  0  0  0  0  0
   39.8860   29.1550   41.6130 C   0  0  0  0  0  0  0  0  0  0  0  0
   39.0270   29.1710   40.9390 H   0  0  0  0  0  0  0  0  0  0  0  0
   39.5320   29.2070   42.6510 H   0  0  0  0  0  0  0  0  0  0  0  0
   40.5910   27.8130   41.4920 C   0  0  0  0  0  0  0  0  0  0  0  0
   41.3810   27.7030   42.2650 H   0  0  0  0  0  0  0  0  0  0  0  0
   41.0040   27.7190   40.4630 H   0  0  0  0  0  0  0  0  0  0  0  0
   39.5980   26.6950   41.5970 C   0  0  0  0  0  0  0  0  0  0  0  0
   38.2720   26.6660   41.0760 C   0  0  0  0  0  0  0  0  0  0  0  0
   37.9220   27.5310   40.5480 H   0  0  0  0  0  0  0  0  0  0  0  0
   37.5650   25.5290   41.3000 C   0  0  0  0  0  3  0  0  0  0  0  0
   38.1240   24.4370   42.0130 C   0  0  0  0  0  3  0  0  0  0  0  0
   39.8290   25.0660   42.4190 S   0  0  0  0  0  0  0  0  0  0  0  0
  1  5  1  0  0  0  0
  1 23  1  0  0  0  0
  2  1  1  0  0  0  0
  3  1  1  0  0  0  0
  4  5  2  0  0  0  0
  4  9  1  0  0  0  0
  5  6  1  0  0  0  0
  6 10  1  0  0  0  0
  6  7  2  0  0  0  0
  7 11  1  0  0  0  0
  8  7  1  0  0  0  0
  8 12  1  0  0  0  0
  9  8  2  0  0  0  0
 13  9  1  0  0  0  0
 14 20  1  0  0  0  0
 14 15  1  0  0  0  0
 15 21  1  0  0  0  0
 16 15  2  0  0  0  0
 16  4  1  0  0  0  0
 17 16  1  0  0  0  0
 18 19  1  0  0  0  0
 18 17  2  0  0  0  0
 19 14  2  0  0  0  0
 22 18  1  0  0  0  0
 23 24  1  0  0  0  0
 25 23  1  0  0  0  0
 25 28  1  0  0  0  0
 26 25  1  0  0  0  0
 26 27  1  0  0  0  0
 28 29  1  0  0  0  0
 30 31  1  0  0  0  0
 30 25  1  0  0  0  0
 31 33  1  0  0  0  0
 32 31  1  0  0  0  0
 34 37  1  0  0  0  0
 34 31  1  0  0  0  0
 34 35  1  0  0  0  0
 36 34  1  0  0  0  0
 37 42  1  0  0  0  0
 38 40  1  0  0  0  0
 38 37  2  0  0  0  0
 39 38  1  0  0  0  0
 40 41  2  0  0  0  0
 41 42  1  0  0  0  0
M  END
>  <minimizedAffinity>
-4.97993517

>  <minimizedRMSD>
0.557303667

$$$$
