
 OpenBabel03252507553D

 41 44  0  0  1  0  0  0  0  0999 V2000
   45.9060   32.0250   45.1990 C   0  0  2  0  0  0  0  0  0  0  0  0
   46.6760   31.0000   44.3660 C   0  0  0  0  0  0  0  0  0  0  0  0
   46.7910   31.8210   43.0660 C   0  0  0  0  0  0  0  0  0  0  0  0
   46.9720   33.2360   43.5210 C   0  0  1  0  0  0  0  0  0  0  0  0
   46.8050   33.2170   45.0120 C   0  0  0  0  0  0  0  0  0  0  0  0
   44.9280   32.1620   44.7300 H   0  0  0  0  0  0  0  0  0  0  0  0
   47.6860   30.8680   44.7660 H   0  0  0  0  0  0  0  0  0  0  0  0
   46.1070   30.0820   44.1980 H   0  0  0  0  0  0  0  0  0  0  0  0
   45.8070   31.7550   42.5460 H   0  0  0  0  0  0  0  0  0  0  0  0
   47.6310   31.4520   42.4530 H   0  0  0  0  0  0  0  0  0  0  0  0
   46.2140   33.9300   43.0940 H   0  0  0  0  0  0  0  0  0  0  0  0
   46.2530   34.1070   45.3820 H   0  0  0  0  0  0  0  0  0  0  0  0
   47.7540   33.0470   45.5520 H   0  0  0  0  0  0  0  0  0  0  0  0
   45.4080   30.0480   48.3660 C   0  0  0  0  0  0  0  0  0  0  0  0
   45.4940   30.3040   46.9900 C   0  0  0  0  0  0  0  0  0  0  0  0
   45.8080   31.6090   46.6240 C   0  0  0  0  0  0  0  0  0  0  0  0
   46.0240   32.5980   47.5960 N   0  0  0  0  0  0  0  0  0  0  0  0
   45.9240   32.2800   48.9120 C   0  0  0  0  0  0  0  0  0  0  0  0
   45.6170   31.0090   49.2900 N   0  0  0  0  0  0  0  0  0  0  0  0
   45.1640   29.0400   48.6820 H   0  0  0  0  0  0  0  0  0  0  0  0
   45.3350   29.5710   46.2240 H   0  0  0  0  0  0  0  0  0  0  0  0
   46.1100   33.1240   49.5590 H   0  0  0  0  0  0  0  0  0  0  0  0
   48.3380   33.8160   43.2320 C   0  0  2  0  0  0  0  0  0  0  0  0
   48.3790   34.8720   42.2250 C   0  0  0  0  0  0  0  0  0  0  0  0
   49.0300   33.5550   41.9680 C   0  0  1  0  0  0  0  0  0  0  0  0
   48.9650   33.9380   44.1320 H   0  0  0  0  0  0  0  0  0  0  0  0
   47.4600   35.1660   41.7170 H   0  0  0  0  0  0  0  0  0  0  0  0
   49.0240   35.7700   42.4500 H   0  0  0  0  0  0  0  0  0  0  0  0
   48.5530   32.8550   41.2670 H   0  0  0  0  0  0  0  0  0  0  0  0
   50.4430   33.5050   41.9980 O   0  0  0  0  0  0  0  0  0  0  0  0
   51.1450   31.1190   42.7700 O   0  0  0  0  0  0  0  0  0  0  0  0
   50.9290   31.9670   41.5390 P   0  0  1  0  0  0  0  0  0  0  0  0
   49.6900   31.2170   40.6160 O   0  0  0  0  0  0  0  0  0  0  0  0
   49.5940   31.7590   39.7750 H   0  0  0  0  0  0  0  0  0  0  0  0
   52.3040   31.9090   40.6110 O   0  0  0  0  0  0  0  0  0  0  0  0
   52.3830   30.9790   39.5780 C   0  0  0  0  0  0  0  0  0  0  0  0
   52.5580   29.6480   39.4580 C   0  0  0  0  0  0  0  0  0  0  0  0
   52.6680   29.1700   40.4230 H   0  0  0  0  0  0  0  0  0  0  0  0
   52.5840   29.0430   38.2500 C   0  0  0  0  0  3  0  0  0  0  0  0
   52.4150   29.9030   37.1450 C   0  0  0  0  0  3  0  0  0  0  0  0
   52.2230   31.5950   37.9610 S   0  0  0  0  0  0  0  0  0  0  0  0
  1  6  1  6  0  0  0
  1 16  1  0  0  0  0
  2  7  1  0  0  0  0
  2  1  1  0  0  0  0
  3  4  1  0  0  0  0
  3  2  1  0  0  0  0
  4 11  1  6  0  0  0
  4  5  1  0  0  0  0
  5  1  1  0  0  0  0
  5 12  1  0  0  0  0
  5 13  1  0  0  0  0
  8  2  1  0  0  0  0
  9  3  1  0  0  0  0
 10  3  1  0  0  0  0
 14 20  1  0  0  0  0
 14 19  1  0  0  0  0
 15 14  2  0  0  0  0
 16 15  1  0  0  0  0
 16 17  2  0  0  0  0
 17 18  1  0  0  0  0
 18 19  2  0  0  0  0
 18 22  1  0  0  0  0
 21 15  1  0  0  0  0
 23  4  1  0  0  0  0
 23 26  1  1  0  0  0
 24 28  1  0  0  0  0
 24 23  1  0  0  0  0
 25 29  1  6  0  0  0
 25 30  1  0  0  0  0
 25 24  1  0  0  0  0
 25 23  1  0  0  0  0
 27 24  1  0  0  0  0
 32 30  1  0  0  0  0
 32 31  2  1  0  0  0
 33 32  1  0  0  0  0
 34 33  1  0  0  0  0
 35 32  1  0  0  0  0
 36 35  1  0  0  0  0
 37 36  2  0  0  0  0
 37 38  1  0  0  0  0
 39 37  1  0  0  0  0
 40 41  1  0  0  0  0
 40 39  2  0  0  0  0
 41 36  1  0  0  0  0
M  END
>  <minimizedAffinity>
-4.45584726

>  <minimizedRMSD>
4.37973404

$$$$
