
 OpenBabel03242513593D

 38 42  0  0  0  0  0  0  0  0999 V2000
   44.5320   35.5230   44.6940 C   0  0  0  0  0  0  0  0  0  0  0  0
   44.6110   35.1130   43.3770 C   0  0  0  0  0  0  0  0  0  0  0  0
   45.2140   33.8540   43.1340 C   0  0  0  0  0  0  0  0  0  0  0  0
   45.6640   33.1480   44.1810 N   0  0  0  0  0  0  0  0  0  0  0  0
   45.5750   33.5700   45.4550 C   0  0  0  0  0  0  0  0  0  0  0  0
   44.9960   34.7820   45.6900 N   0  0  0  0  0  0  0  0  0  0  0  0
   44.0660   36.4910   44.8480 H   0  0  0  0  0  0  0  0  0  0  0  0
   45.3090   33.4710   42.1250 H   0  0  0  0  0  0  0  0  0  0  0  0
   46.0390   32.8590   46.6350 C   0  0  0  0  0  0  0  0  0  0  0  0
   45.2960   32.8090   47.8040 C   0  0  0  0  0  0  0  0  0  0  0  0
   46.0320   32.0540   48.7180 C   0  0  0  0  0  0  0  0  0  0  0  0
   47.1640   31.6830   48.0920 N   0  0  0  0  0  0  0  0  0  0  0  0
   47.1550   32.1690   46.8530 N   0  0  0  0  0  0  0  0  0  0  0  0
   44.3330   33.2240   48.0840 H   0  0  0  0  0  0  0  0  0  0  0  0
   45.7770   31.7970   49.7390 H   0  0  0  0  0  0  0  0  0  0  0  0
   48.2120   30.8920   48.6600 C   0  0  0  0  0  0  0  0  0  0  0  0
   48.9800   31.1610   49.7030 C   0  0  0  0  0  0  0  0  0  0  0  0
   48.8610   32.0990   50.2650 H   0  0  0  0  0  0  0  0  0  0  0  0
   49.9310   30.2380   50.0670 C   0  0  0  0  0  0  0  0  0  0  0  0
   50.0330   29.0940   49.3360 C   0  0  0  0  0  0  0  0  0  0  0  0
   48.7030   29.3440   48.0560 S   0  0  0  0  0  0  0  0  0  0  0  0
   44.1510   35.8360   42.2960 O   0  0  0  0  0  0  0  0  0  0  0  0
   43.4180   35.3000   41.2390 C   0  0  0  0  0  0  0  0  0  0  0  0
   43.9010   34.6370   40.1390 C   0  0  0  0  0  0  0  0  0  0  0  0
   43.0170   34.1740   39.1870 C   0  0  0  0  0  0  0  0  0  0  0  0
   41.6530   34.3460   39.2830 C   0  0  0  0  0  0  0  0  0  0  0  0
   40.8650   33.8670   38.3170 N   0  0  0  0  0  0  0  0  0  0  0  0
   39.5180   34.0200   38.3820 C   0  0  0  0  0  0  0  0  0  0  0  0
   39.0060   34.6810   39.4720 C   0  0  0  0  0  0  0  0  0  0  0  0
   39.8330   35.1910   40.5000 C   0  0  0  0  0  0  0  0  0  0  0  0
   41.2000   35.0180   40.4010 C   0  0  0  0  0  0  0  0  0  0  0  0
   42.0420   35.5040   41.3900 C   0  0  0  0  0  0  0  0  0  0  0  0
   44.9670   34.5240   40.1020 H   0  0  0  0  0  0  0  0  0  0  0  0
   43.4720   33.6610   38.3500 H   0  0  0  0  0  0  0  0  0  0  0  0
   38.8870   33.6340   37.6030 H   0  0  0  0  0  0  0  0  0  0  0  0
   37.9310   34.7940   39.5070 H   0  0  0  0  0  0  0  0  0  0  0  0
   39.3820   35.6990   41.3290 H   0  0  0  0  0  0  0  0  0  0  0  0
   41.5850   36.0140   42.2210 H   0  0  0  0  0  0  0  0  0  0  0  0
  1  7  1  0  0  0  0
  1  6  1  0  0  0  0
  2  1  2  0  0  0  0
  3  2  1  0  0  0  0
  3  4  2  0  0  0  0
  4  5  1  0  0  0  0
  5  6  2  0  0  0  0
  5  9  1  0  0  0  0
  8  3  1  0  0  0  0
  9 13  2  0  0  0  0
  9 10  1  0  0  0  0
 10 14  1  0  0  0  0
 10 11  2  0  0  0  0
 11 15  1  0  0  0  0
 12 16  1  0  0  0  0
 12 11  1  0  0  0  0
 13 12  1  0  0  0  0
 16 17  2  0  0  0  0
 17 19  1  0  0  0  0
 17 18  1  0  0  0  0
 20 19  2  0  0  0  0
 21 16  1  0  0  0  0
 21 20  1  0  0  0  0
 22  2  1  0  0  0  0
 23 32  1  0  0  0  0
 23 22  1  0  0  0  0
 24 23  2  0  0  0  0
 25 26  2  0  0  0  0
 25 24  1  0  0  0  0
 26 31  1  0  0  0  0
 27 28  2  0  0  0  0
 27 26  1  0  0  0  0
 28 29  1  0  0  0  0
 29 36  1  0  0  0  0
 29 30  2  0  0  0  0
 30 37  1  0  0  0  0
 31 30  1  0  0  0  0
 31 32  2  0  0  0  0
 32 38  1  0  0  0  0
 33 24  1  0  0  0  0
 34 25  1  0  0  0  0
 35 28  1  0  0  0  0
M  END
>  <minimizedAffinity>
-7.30729818

>  <minimizedRMSD>
1.56229305

$$$$
