
 OpenBabel03252504533D

 18 19  0  0  0  0  0  0  0  0999 V2000
   44.4590   35.8770   44.7070 C   0  0  0  0  0  0  0  0  0  0  0  0
   44.3540   35.5540   43.3430 C   0  0  0  0  0  0  0  0  0  0  0  0
   44.7940   34.2930   42.9630 C   0  0  0  0  0  0  0  0  0  0  0  0
   45.3000   33.4440   43.9200 N   0  0  0  0  0  0  0  0  0  0  0  0
   45.3780   33.8110   45.2170 C   0  0  0  0  0  0  0  0  0  0  0  0
   44.9590   35.0210   45.6060 N   0  0  0  0  0  0  0  0  0  0  0  0
   44.1060   36.8720   44.9740 H   0  0  0  0  0  0  0  0  0  0  0  0
   43.9570   36.2330   42.6260 H   0  0  0  0  0  0  0  0  0  0  0  0
   45.7760   33.1400   45.9660 H   0  0  0  0  0  0  0  0  0  0  0  0
   44.6850   33.9530   41.5420 C   0  0  0  0  0  0  0  0  0  0  0  0
   44.3590   32.9000   41.3930 H   0  0  0  0  0  0  0  0  0  0  0  0
   43.9730   34.6360   41.0420 H   0  0  0  0  0  0  0  0  0  0  0  0
   46.0160   34.0790   40.9000 C   0  0  0  0  0  0  0  0  0  0  0  0
   47.1110   34.7890   41.2750 C   0  0  0  0  0  0  0  0  0  0  0  0
   47.0530   35.3740   42.1820 H   0  0  0  0  0  0  0  0  0  0  0  0
   48.2260   34.7170   40.4740 C   0  0  0  0  0  3  0  0  0  0  0  0
   48.1950   33.9530   39.3530 C   0  0  0  0  0  3  0  0  0  0  0  0
   46.4840   33.2580   39.3850 S   0  0  0  0  0  0  0  0  0  0  0  0
  1  7  1  0  0  0  0
  1  6  1  0  0  0  0
  2  1  2  0  0  0  0
  3  2  1  0  0  0  0
  3  4  2  0  0  0  0
  4  5  1  0  0  0  0
  5  6  2  0  0  0  0
  5  9  1  0  0  0  0
  8  2  1  0  0  0  0
 10  3  1  0  0  0  0
 11 10  1  0  0  0  0
 12 10  1  0  0  0  0
 13 14  2  0  0  0  0
 13 10  1  0  0  0  0
 14 15  1  0  0  0  0
 16 14  1  0  0  0  0
 17 18  1  0  0  0  0
 17 16  2  0  0  0  0
 18 13  1  0  0  0  0
M  END
>  <minimizedAffinity>
-3.77564979

>  <minimizedRMSD>
2.56710887

$$$$
