
 OpenBabel03242523353D

 34 37  0  0  0  0  0  0  0  0999 V2000
   35.3810   29.0880   40.7330 S   0  0  0  0  0  0  0  0  0  0  0  0
   36.6810   28.2520   41.6080 C   0  0  0  0  0  0  0  0  0  0  0  0
   37.4040   28.9720   42.5320 C   0  0  0  0  0  0  0  0  0  0  0  0
   38.4070   28.3350   43.2090 C   0  0  0  0  0  0  0  0  0  0  0  0
   38.7160   26.9950   42.9940 C   0  0  0  0  0  0  0  0  0  0  0  0
   39.7080   26.4030   43.6780 N   0  0  0  0  0  0  0  0  0  0  0  0
   40.0230   25.1080   43.4870 C   0  0  0  0  0  0  0  0  0  0  0  0
   39.3150   24.3820   42.5750 C   0  0  0  0  0  0  0  0  0  0  0  0
   38.2880   24.9790   41.8610 C   0  0  0  0  0  0  0  0  0  0  0  0
   37.9460   26.3280   42.0460 C   0  0  0  0  0  0  0  0  0  0  0  0
   36.9310   26.9200   41.3430 C   0  0  0  0  0  0  0  0  0  0  0  0
   37.2700   30.0120   42.7940 H   0  0  0  0  0  0  0  0  0  0  0  0
   39.0180   28.8360   43.9490 H   0  0  0  0  0  0  0  0  0  0  0  0
   40.8140   24.6040   44.0220 H   0  0  0  0  0  0  0  0  0  0  0  0
   39.4470   23.3570   42.3190 H   0  0  0  0  0  0  0  0  0  0  0  0
   37.6740   24.4720   41.1150 H   0  0  0  0  0  0  0  0  0  0  0  0
   36.3590   26.3660   40.6170 H   0  0  0  0  0  0  0  0  0  0  0  0
   35.2810   28.5170   39.0330 C   0  0  0  0  0  0  0  0  0  0  0  0
   35.8200   27.5290   38.9450 H   0  0  0  0  0  0  0  0  0  0  0  0
   34.2890   28.4970   38.5910 H   0  0  0  0  0  0  0  0  0  0  0  0
   36.8680   30.2110   36.1160 C   0  0  0  0  0  0  0  0  0  0  0  0
   37.5430   31.2660   36.7650 C   0  0  0  0  0  0  0  0  0  0  0  0
   37.4400   31.3710   38.1620 C   0  0  0  0  0  0  0  0  0  0  0  0
   36.6970   30.4610   38.8610 N   0  0  0  0  0  0  0  0  0  0  0  0
   36.0640   29.4600   38.1960 C   0  0  0  0  0  0  0  0  0  0  0  0
   36.1510   29.3460   36.8570 N   0  0  0  0  0  0  0  0  0  0  0  0
   36.9690   30.1620   35.0400 H   0  0  0  0  0  0  0  0  0  0  0  0
   38.1390   32.0130   36.2840 H   0  0  0  0  0  0  0  0  0  0  0  0
   38.0890   32.4050   38.8970 C   0  0  0  0  0  0  0  0  0  0  0  0
   37.5700   33.4390   39.5890 C   0  0  0  0  0  0  0  0  0  0  0  0
   36.4740   33.5460   39.6230 H   0  0  0  0  0  0  0  0  0  0  0  0
   38.3290   34.3460   40.2400 C   0  0  0  0  0  3  0  0  0  0  0  0
   39.7660   34.0910   40.1180 C   0  0  0  0  0  3  0  0  0  0  0  0
   39.8670   32.5850   39.0860 S   0  0  0  0  0  0  0  0  0  0  0  0
  1  2  1  0  0  0  0
  2  3  1  0  0  0  0
  3 12  1  0  0  0  0
  3  4  2  0  0  0  0
  4 13  1  0  0  0  0
  5  4  1  0  0  0  0
  5  6  1  0  0  0  0
  7  6  2  0  0  0  0
  7 14  1  0  0  0  0
  8  7  1  0  0  0  0
  9 10  1  0  0  0  0
  9  8  2  0  0  0  0
 10  5  2  0  0  0  0
 11  2  2  0  0  0  0
 11 10  1  0  0  0  0
 15  8  1  0  0  0  0
 16  9  1  0  0  0  0
 17 11  1  0  0  0  0
 18  1  1  0  0  0  0
 19 18  1  0  0  0  0
 20 18  1  0  0  0  0
 21 22  2  0  0  0  0
 21 26  1  0  0  0  0
 22 23  1  0  0  0  0
 23 24  2  0  0  0  0
 23 29  1  0  0  0  0
 25 24  1  0  0  0  0
 25 18  1  0  0  0  0
 26 25  2  0  0  0  0
 27 21  1  0  0  0  0
 28 22  1  0  0  0  0
 29 34  1  0  0  0  0
 29 30  2  0  0  0  0
 30 31  1  0  0  0  0
 30 32  1  0  0  0  0
 33 32  2  0  0  0  0
 34 33  1  0  0  0  0
M  END
>  <minimizedAffinity>
-5.89506102

$$$$

 OpenBabel03242523353D

 34 37  0  0  0  0  0  0  0  0999 V2000
   36.2820   30.6160   41.0580 S   0  0  0  0  0  0  0  0  0  0  0  0
   37.1970   29.2190   41.6620 C   0  0  0  0  0  0  0  0  0  0  0  0
   38.3230   29.4620   42.4150 C   0  0  0  0  0  0  0  0  0  0  0  0
   39.0330   28.3920   42.8830 C   0  0  0  0  0  0  0  0  0  0  0  0
   38.6560   27.0770   42.6240 C   0  0  0  0  0  0  0  0  0  0  0  0
   39.3780   26.0500   43.1010 N   0  0  0  0  0  0  0  0  0  0  0  0
   39.0310   24.7720   42.8630 C   0  0  0  0  0  0  0  0  0  0  0  0
   37.9170   24.5160   42.1180 C   0  0  0  0  0  0  0  0  0  0  0  0
   37.1620   25.5650   41.6190 C   0  0  0  0  0  0  0  0  0  0  0  0
   37.5080   26.9040   41.8560 C   0  0  0  0  0  0  0  0  0  0  0  0
   36.7630   27.9430   41.3650 C   0  0  0  0  0  0  0  0  0  0  0  0
   38.7260   30.4270   42.6890 H   0  0  0  0  0  0  0  0  0  0  0  0
   39.9290   28.5040   43.4820 H   0  0  0  0  0  0  0  0  0  0  0  0
   39.5900   23.9250   43.2320 H   0  0  0  0  0  0  0  0  0  0  0  0
   37.5210   23.5640   41.8500 H   0  0  0  0  0  0  0  0  0  0  0  0
   36.2590   25.4480   41.0160 H   0  0  0  0  0  0  0  0  0  0  0  0
   35.8790   27.7630   40.7740 H   0  0  0  0  0  0  0  0  0  0  0  0
   36.8150   31.0660   39.4020 C   0  0  0  0  0  0  0  0  0  0  0  0
   37.2990   30.1700   38.9160 H   0  0  0  0  0  0  0  0  0  0  0  0
   36.0690   31.5370   38.7690 H   0  0  0  0  0  0  0  0  0  0  0  0
   38.7690   34.0890   40.3700 C   0  0  0  0  0  0  0  0  0  0  0  0
   39.9870   33.8340   39.7040 C   0  0  0  0  0  0  0  0  0  0  0  0
   40.1080   32.6530   38.9540 C   0  0  0  0  0  0  0  0  0  0  0  0
   39.0580   31.7810   38.8810 N   0  0  0  0  0  0  0  0  0  0  0  0
   37.9030   32.0660   39.5370 C   0  0  0  0  0  0  0  0  0  0  0  0
   37.7710   33.1930   40.2610 N   0  0  0  0  0  0  0  0  0  0  0  0
   38.7130   35.0080   40.9380 H   0  0  0  0  0  0  0  0  0  0  0  0
   40.8480   34.4690   39.7180 H   0  0  0  0  0  0  0  0  0  0  0  0
   41.3010   32.3180   38.2510 C   0  0  0  0  0  0  0  0  0  0  0  0
   41.5110   31.4180   37.2690 C   0  0  0  0  0  0  0  0  0  0  0  0
   40.6530   30.8210   36.9170 H   0  0  0  0  0  0  0  0  0  0  0  0
   42.7160   31.2150   36.6990 C   0  0  0  0  0  3  0  0  0  0  0  0
   43.7680   32.0700   37.2530 C   0  0  0  0  0  3  0  0  0  0  0  0
   42.9130   33.0640   38.5270 S   0  0  0  0  0  0  0  0  0  0  0  0
  1  2  1  0  0  0  0
  2  3  1  0  0  0  0
  3 12  1  0  0  0  0
  3  4  2  0  0  0  0
  4 13  1  0  0  0  0
  5  4  1  0  0  0  0
  5  6  1  0  0  0  0
  7  6  2  0  0  0  0
  7 14  1  0  0  0  0
  8  7  1  0  0  0  0
  9 10  1  0  0  0  0
  9  8  2  0  0  0  0
 10  5  2  0  0  0  0
 11  2  2  0  0  0  0
 11 10  1  0  0  0  0
 15  8  1  0  0  0  0
 16  9  1  0  0  0  0
 17 11  1  0  0  0  0
 18 25  1  0  0  0  0
 18  1  1  0  0  0  0
 19 18  1  0  0  0  0
 20 18  1  0  0  0  0
 21 27  1  0  0  0  0
 22 28  1  0  0  0  0
 22 21  2  0  0  0  0
 23 22  1  0  0  0  0
 24 23  2  0  0  0  0
 24 25  1  0  0  0  0
 25 26  2  0  0  0  0
 26 21  1  0  0  0  0
 29 34  1  0  0  0  0
 29 23  1  0  0  0  0
 30 29  2  0  0  0  0
 31 30  1  0  0  0  0
 32 33  2  0  0  0  0
 32 30  1  0  0  0  0
 33 34  1  0  0  0  0
M  END
>  <minimizedAffinity>
-5.66310501

$$$$

 OpenBabel03242523353D

 34 37  0  0  0  0  0  0  0  0999 V2000
   35.8440   29.7140   40.6890 S   0  0  0  0  0  0  0  0  0  0  0  0
   36.9220   28.5900   41.5410 C   0  0  0  0  0  0  0  0  0  0  0  0
   37.6210   29.0660   42.6280 C   0  0  0  0  0  0  0  0  0  0  0  0
   38.4540   28.2070   43.2890 C   0  0  0  0  0  0  0  0  0  0  0  0
   38.6160   26.8800   42.9010 C   0  0  0  0  0  0  0  0  0  0  0  0
   39.4430   26.0650   43.5750 N   0  0  0  0  0  0  0  0  0  0  0  0
   39.6140   24.7780   43.2170 C   0  0  0  0  0  0  0  0  0  0  0  0
   38.9280   24.2940   42.1430 C   0  0  0  0  0  0  0  0  0  0  0  0
   38.0700   25.1220   41.4370 C   0  0  0  0  0  0  0  0  0  0  0  0
   37.8800   26.4660   41.7940 C   0  0  0  0  0  0  0  0  0  0  0  0
   37.0330   27.2870   41.0990 C   0  0  0  0  0  0  0  0  0  0  0  0
   37.5890   30.0670   43.0330 H   0  0  0  0  0  0  0  0  0  0  0  0
   39.0360   28.5090   44.1520 H   0  0  0  0  0  0  0  0  0  0  0  0
   40.2710   24.0990   43.7390 H   0  0  0  0  0  0  0  0  0  0  0  0
   38.9600   23.3060   41.7450 H   0  0  0  0  0  0  0  0  0  0  0  0
   37.4860   24.8150   40.5680 H   0  0  0  0  0  0  0  0  0  0  0  0
   36.4810   26.9250   40.2470 H   0  0  0  0  0  0  0  0  0  0  0  0
   36.6460   30.3920   39.2310 C   0  0  0  0  0  0  0  0  0  0  0  0
   37.4110   29.6530   38.8550 H   0  0  0  0  0  0  0  0  0  0  0  0
   35.9870   30.7540   38.4460 H   0  0  0  0  0  0  0  0  0  0  0  0
   37.7640   33.9010   39.8110 C   0  0  0  0  0  0  0  0  0  0  0  0
   38.9730   33.6750   40.5050 C   0  0  0  0  0  0  0  0  0  0  0  0
   39.3680   32.3500   40.7530 C   0  0  0  0  0  0  0  0  0  0  0  0
   38.5860   31.3140   40.3250 N   0  0  0  0  0  0  0  0  0  0  0  0
   37.4310   31.5760   39.6600 C   0  0  0  0  0  0  0  0  0  0  0  0
   37.0370   32.8400   39.4150 N   0  0  0  0  0  0  0  0  0  0  0  0
   37.4920   34.9330   39.6390 H   0  0  0  0  0  0  0  0  0  0  0  0
   39.6320   34.4360   40.8690 H   0  0  0  0  0  0  0  0  0  0  0  0
   40.5720   32.0340   41.4450 C   0  0  0  0  0  0  0  0  0  0  0  0
   40.7940   31.1710   42.4570 C   0  0  0  0  0  0  0  0  0  0  0  0
   39.9400   30.5940   42.8470 H   0  0  0  0  0  0  0  0  0  0  0  0
   42.0090   30.9820   43.0130 C   0  0  0  0  0  3  0  0  0  0  0  0
   43.0560   31.8060   42.4050 C   0  0  0  0  0  3  0  0  0  0  0  0
   42.1840   32.7570   41.1110 S   0  0  0  0  0  0  0  0  0  0  0  0
  1  2  1  0  0  0  0
  2  3  1  0  0  0  0
  3 12  1  0  0  0  0
  3  4  2  0  0  0  0
  4 13  1  0  0  0  0
  5  4  1  0  0  0  0
  5  6  1  0  0  0  0
  7  6  2  0  0  0  0
  7 14  1  0  0  0  0
  8  7  1  0  0  0  0
  9 10  1  0  0  0  0
  9  8  2  0  0  0  0
 10  5  2  0  0  0  0
 11  2  2  0  0  0  0
 11 10  1  0  0  0  0
 15  8  1  0  0  0  0
 16  9  1  0  0  0  0
 17 11  1  0  0  0  0
 18 25  1  0  0  0  0
 18  1  1  0  0  0  0
 19 18  1  0  0  0  0
 20 18  1  0  0  0  0
 21 22  1  0  0  0  0
 22 23  2  0  0  0  0
 22 28  1  0  0  0  0
 23 29  1  0  0  0  0
 24 23  1  0  0  0  0
 25 24  2  0  0  0  0
 26 25  1  0  0  0  0
 26 21  2  0  0  0  0
 27 21  1  0  0  0  0
 29 30  2  0  0  0  0
 30 31  1  0  0  0  0
 30 32  1  0  0  0  0
 33 32  2  0  0  0  0
 34 29  1  0  0  0  0
 34 33  1  0  0  0  0
M  END
>  <minimizedAffinity>
-5.65729809

$$$$

 OpenBabel03242523353D

 34 37  0  0  0  0  0  0  0  0999 V2000
   40.9650   31.3430   42.6190 S   0  0  0  0  0  0  0  0  0  0  0  0
   40.2170   29.7420   42.4480 C   0  0  0  0  0  0  0  0  0  0  0  0
   40.9690   28.7350   41.8850 C   0  0  0  0  0  0  0  0  0  0  0  0
   40.4000   27.4990   41.7500 C   0  0  0  0  0  0  0  0  0  0  0  0
   39.0970   27.2300   42.1600 C   0  0  0  0  0  0  0  0  0  0  0  0
   38.5710   26.0040   42.0120 N   0  0  0  0  0  0  0  0  0  0  0  0
   37.3140   25.7220   42.4020 C   0  0  0  0  0  0  0  0  0  0  0  0
   36.5570   26.7100   42.9620 C   0  0  0  0  0  0  0  0  0  0  0  0
   37.0860   27.9810   43.1220 C   0  0  0  0  0  0  0  0  0  0  0  0
   38.3940   28.2940   42.7200 C   0  0  0  0  0  0  0  0  0  0  0  0
   38.9200   29.5480   42.8780 C   0  0  0  0  0  0  0  0  0  0  0  0
   41.9850   28.8070   41.5260 H   0  0  0  0  0  0  0  0  0  0  0  0
   40.9280   26.6590   41.3160 H   0  0  0  0  0  0  0  0  0  0  0  0
   36.8630   24.7470   42.2960 H   0  0  0  0  0  0  0  0  0  0  0  0
   35.5560   26.6370   43.3160 H   0  0  0  0  0  0  0  0  0  0  0  0
   36.5510   28.8250   43.5590 H   0  0  0  0  0  0  0  0  0  0  0  0
   38.3400   30.3440   43.3180 H   0  0  0  0  0  0  0  0  0  0  0  0
   41.1780   32.1260   41.0160 C   0  0  0  0  0  0  0  0  0  0  0  0
   41.7910   33.0650   41.1450 H   0  0  0  0  0  0  0  0  0  0  0  0
   41.5450   31.4890   40.2160 H   0  0  0  0  0  0  0  0  0  0  0  0
   38.3230   34.3020   40.0120 C   0  0  0  0  0  0  0  0  0  0  0  0
   37.3440   33.3270   39.7230 C   0  0  0  0  0  0  0  0  0  0  0  0
   37.6800   31.9720   39.8770 C   0  0  0  0  0  0  0  0  0  0  0  0
   38.9330   31.6230   40.2970 N   0  0  0  0  0  0  0  0  0  0  0  0
   39.8450   32.5940   40.5640 C   0  0  0  0  0  0  0  0  0  0  0  0
   39.5390   33.8970   40.4220 N   0  0  0  0  0  0  0  0  0  0  0  0
   38.0290   35.3350   39.8820 H   0  0  0  0  0  0  0  0  0  0  0  0
   36.3470   33.5270   39.3900 H   0  0  0  0  0  0  0  0  0  0  0  0
   36.7530   30.9240   39.6080 C   0  0  0  0  0  0  0  0  0  0  0  0
   35.8920   30.2890   40.4290 C   0  0  0  0  0  0  0  0  0  0  0  0
   35.8630   30.5930   41.4880 H   0  0  0  0  0  0  0  0  0  0  0  0
   35.0690   29.3030   40.0160 C   0  0  0  0  0  3  0  0  0  0  0  0
   35.2040   28.9970   38.5910 C   0  0  0  0  0  3  0  0  0  0  0  0
   36.4940   30.1510   38.0050 S   0  0  0  0  0  0  0  0  0  0  0  0
  2  1  1  0  0  0  0
  2 11  1  0  0  0  0
  3  2  2  0  0  0  0
  4  3  1  0  0  0  0
  4  5  2  0  0  0  0
  5 10  1  0  0  0  0
  6  5  1  0  0  0  0
  6  7  2  0  0  0  0
  7  8  1  0  0  0  0
  8  9  2  0  0  0  0
  8 15  1  0  0  0  0
  9 16  1  0  0  0  0
 10 11  2  0  0  0  0
 10  9  1  0  0  0  0
 11 17  1  0  0  0  0
 12  3  1  0  0  0  0
 13  4  1  0  0  0  0
 14  7  1  0  0  0  0
 18 19  1  0  0  0  0
 18  1  1  0  0  0  0
 20 18  1  0  0  0  0
 21 26  1  0  0  0  0
 22 23  1  0  0  0  0
 22 21  2  0  0  0  0
 23 24  2  0  0  0  0
 24 25  1  0  0  0  0
 25 18  1  0  0  0  0
 26 25  2  0  0  0  0
 27 21  1  0  0  0  0
 28 22  1  0  0  0  0
 29 23  1  0  0  0  0
 29 30  2  0  0  0  0
 30 31  1  0  0  0  0
 32 30  1  0  0  0  0
 33 32  2  0  0  0  0
 34 33  1  0  0  0  0
 34 29  1  0  0  0  0
M  END
>  <minimizedAffinity>
-5.59641504

$$$$

 OpenBabel03242523353D

 34 37  0  0  0  0  0  0  0  0999 V2000
   36.5600   30.1860   39.2200 S   0  0  0  0  0  0  0  0  0  0  0  0
   37.8470   31.4090   39.2700 C   0  0  0  0  0  0  0  0  0  0  0  0
   37.7830   32.3720   40.2520 C   0  0  0  0  0  0  0  0  0  0  0  0
   38.7700   33.3180   40.2970 C   0  0  0  0  0  0  0  0  0  0  0  0
   39.8250   33.3370   39.3900 C   0  0  0  0  0  0  0  0  0  0  0  0
   40.7770   34.2800   39.4660 N   0  0  0  0  0  0  0  0  0  0  0  0
   41.8070   34.3170   38.6000 C   0  0  0  0  0  0  0  0  0  0  0  0
   41.8830   33.3680   37.6220 C   0  0  0  0  0  0  0  0  0  0  0  0
   40.9080   32.3870   37.5310 C   0  0  0  0  0  0  0  0  0  0  0  0
   39.8270   32.3340   38.4250 C   0  0  0  0  0  0  0  0  0  0  0  0
   38.8630   31.3660   38.3380 C   0  0  0  0  0  0  0  0  0  0  0  0
   37.0240   32.4740   41.0140 H   0  0  0  0  0  0  0  0  0  0  0  0
   38.7870   34.1060   41.0400 H   0  0  0  0  0  0  0  0  0  0  0  0
   42.5870   35.0620   38.6340 H   0  0  0  0  0  0  0  0  0  0  0  0
   42.6330   33.2700   36.8720 H   0  0  0  0  0  0  0  0  0  0  0  0
   40.8940   31.5950   36.7810 H   0  0  0  0  0  0  0  0  0  0  0  0
   38.9030   30.6070   37.5730 H   0  0  0  0  0  0  0  0  0  0  0  0
   35.8410   29.9440   40.8480 C   0  0  0  0  0  0  0  0  0  0  0  0
   35.8870   30.9160   41.4180 H   0  0  0  0  0  0  0  0  0  0  0  0
   34.8560   29.4860   40.8740 H   0  0  0  0  0  0  0  0  0  0  0  0
   38.2820   28.5520   43.2970 C   0  0  0  0  0  0  0  0  0  0  0  0
   38.3130   27.2000   42.8910 C   0  0  0  0  0  0  0  0  0  0  0  0
   37.5110   26.8050   41.8080 C   0  0  0  0  0  0  0  0  0  0  0  0
   36.7230   27.7240   41.1720 N   0  0  0  0  0  0  0  0  0  0  0  0
   36.7240   29.0150   41.5950 C   0  0  0  0  0  0  0  0  0  0  0  0
   37.4860   29.4100   42.6320 N   0  0  0  0  0  0  0  0  0  0  0  0
   38.9120   28.8190   44.1340 H   0  0  0  0  0  0  0  0  0  0  0  0
   38.9030   26.4290   43.3410 H   0  0  0  0  0  0  0  0  0  0  0  0
   37.4820   25.4620   41.3340 C   0  0  0  0  0  0  0  0  0  0  0  0
   36.5760   24.8300   40.5610 C   0  0  0  0  0  0  0  0  0  0  0  0
   35.6990   25.4010   40.2140 H   0  0  0  0  0  0  0  0  0  0  0  0
   36.6930   23.5370   40.1940 C   0  0  0  0  0  3  0  0  0  0  0  0
   37.9000   22.8950   40.7180 C   0  0  0  0  0  3  0  0  0  0  0  0
   38.7280   24.2120   41.6760 S   0  0  0  0  0  0  0  0  0  0  0  0
  1  2  1  0  0  0  0
  1 18  1  0  0  0  0
  2  3  1  0  0  0  0
  3  4  2  0  0  0  0
  3 12  1  0  0  0  0
  4 13  1  0  0  0  0
  5  6  1  0  0  0  0
  5  4  1  0  0  0  0
  7 14  1  0  0  0  0
  7  6  2  0  0  0  0
  8  7  1  0  0  0  0
  9  8  2  0  0  0  0
  9 10  1  0  0  0  0
 10  5  2  0  0  0  0
 11 10  1  0  0  0  0
 11  2  2  0  0  0  0
 15  8  1  0  0  0  0
 16  9  1  0  0  0  0
 17 11  1  0  0  0  0
 18 20  1  0  0  0  0
 18 19  1  0  0  0  0
 18 25  1  0  0  0  0
 21 27  1  0  0  0  0
 22 21  1  0  0  0  0
 22 28  1  0  0  0  0
 23 22  2  0  0  0  0
 24 25  2  0  0  0  0
 24 23  1  0  0  0  0
 25 26  1  0  0  0  0
 26 21  2  0  0  0  0
 29 34  1  0  0  0  0
 29 23  1  0  0  0  0
 30 29  2  0  0  0  0
 31 30  1  0  0  0  0
 32 30  1  0  0  0  0
 32 33  2  0  0  0  0
 33 34  1  0  0  0  0
M  END
>  <minimizedAffinity>
-5.56622505

$$$$

 OpenBabel03242523353D

 34 37  0  0  0  0  0  0  0  0999 V2000
   34.7070   27.5820   37.6920 S   0  0  0  0  0  0  0  0  0  0  0  0
   35.4620   28.9210   38.5800 C   0  0  0  0  0  0  0  0  0  0  0  0
   35.1340   29.0820   39.9070 C   0  0  0  0  0  0  0  0  0  0  0  0
   35.7120   30.1120   40.5970 C   0  0  0  0  0  0  0  0  0  0  0  0
   36.6110   30.9940   40.0050 C   0  0  0  0  0  0  0  0  0  0  0  0
   37.1590   31.9930   40.7140 N   0  0  0  0  0  0  0  0  0  0  0  0
   38.0310   32.8570   40.1610 C   0  0  0  0  0  0  0  0  0  0  0  0
   38.3660   32.7090   38.8470 C   0  0  0  0  0  0  0  0  0  0  0  0
   37.8090   31.6820   38.1020 C   0  0  0  0  0  0  0  0  0  0  0  0
   36.8970   30.7730   38.6610 C   0  0  0  0  0  0  0  0  0  0  0  0
   36.3460   29.7570   37.9270 C   0  0  0  0  0  0  0  0  0  0  0  0
   34.4550   28.4740   40.4860 H   0  0  0  0  0  0  0  0  0  0  0  0
   35.5020   30.3010   41.6430 H   0  0  0  0  0  0  0  0  0  0  0  0
   38.4890   33.6690   40.7050 H   0  0  0  0  0  0  0  0  0  0  0  0
   39.0370   33.3090   38.2780 H   0  0  0  0  0  0  0  0  0  0  0  0
   38.0220   31.4940   37.0480 H   0  0  0  0  0  0  0  0  0  0  0  0
   36.5960   29.6220   36.8860 H   0  0  0  0  0  0  0  0  0  0  0  0
   35.9150   26.3110   37.2980 C   0  0  0  0  0  0  0  0  0  0  0  0
   35.4790   25.6190   36.5210 H   0  0  0  0  0  0  0  0  0  0  0  0
   36.9120   26.6600   37.0410 H   0  0  0  0  0  0  0  0  0  0  0  0
   35.8260   23.4540   39.6900 C   0  0  0  0  0  0  0  0  0  0  0  0
   36.4840   24.0260   40.8000 C   0  0  0  0  0  0  0  0  0  0  0  0
   36.9350   25.3520   40.7040 C   0  0  0  0  0  0  0  0  0  0  0  0
   36.7320   26.0590   39.5520 N   0  0  0  0  0  0  0  0  0  0  0  0
   36.0930   25.4710   38.5070 C   0  0  0  0  0  0  0  0  0  0  0  0
   35.6560   24.2000   38.5830 N   0  0  0  0  0  0  0  0  0  0  0  0
   35.4930   22.4310   39.8000 H   0  0  0  0  0  0  0  0  0  0  0  0
   36.6780   23.5320   41.7300 H   0  0  0  0  0  0  0  0  0  0  0  0
   37.6080   26.0060   41.7760 C   0  0  0  0  0  0  0  0  0  0  0  0
   37.2110   27.0270   42.5610 C   0  0  0  0  0  0  0  0  0  0  0  0
   36.2120   27.4610   42.3860 H   0  0  0  0  0  0  0  0  0  0  0  0
   37.9750   27.5400   43.5470 C   0  0  0  0  0  3  0  0  0  0  0  0
   39.2740   26.8760   43.6770 C   0  0  0  0  0  3  0  0  0  0  0  0
   39.2540   25.5960   42.3730 S   0  0  0  0  0  0  0  0  0  0  0  0
  1  2  1  0  0  0  0
  2  3  1  0  0  0  0
  3 12  1  0  0  0  0
  3  4  2  0  0  0  0
  4 13  1  0  0  0  0
  5  4  1  0  0  0  0
  5  6  1  0  0  0  0
  7 14  1  0  0  0  0
  7  6  2  0  0  0  0
  8  7  1  0  0  0  0
  9 10  1  0  0  0  0
  9  8  2  0  0  0  0
 10  5  2  0  0  0  0
 11  2  2  0  0  0  0
 11 10  1  0  0  0  0
 15  8  1  0  0  0  0
 16  9  1  0  0  0  0
 17 11  1  0  0  0  0
 18  1  1  0  0  0  0
 18 25  1  0  0  0  0
 19 18  1  0  0  0  0
 20 18  1  0  0  0  0
 21 27  1  0  0  0  0
 21 22  1  0  0  0  0
 22 28  1  0  0  0  0
 23 22  2  0  0  0  0
 23 29  1  0  0  0  0
 24 23  1  0  0  0  0
 25 26  1  0  0  0  0
 25 24  2  0  0  0  0
 26 21  2  0  0  0  0
 29 34  1  0  0  0  0
 29 30  2  0  0  0  0
 30 32  1  0  0  0  0
 31 30  1  0  0  0  0
 32 33  2  0  0  0  0
 34 33  1  0  0  0  0
M  END
>  <minimizedAffinity>
-5.55334425

$$$$

 OpenBabel03242523353D

 34 37  0  0  0  0  0  0  0  0999 V2000
   39.3570   33.7090   39.8770 S   0  0  0  0  0  0  0  0  0  0  0  0
   38.2590   32.4230   39.3350 C   0  0  0  0  0  0  0  0  0  0  0  0
   38.2940   32.0610   38.0070 C   0  0  0  0  0  0  0  0  0  0  0  0
   37.4510   31.0730   37.5830 C   0  0  0  0  0  0  0  0  0  0  0  0
   36.5660   30.4280   38.4420 C   0  0  0  0  0  0  0  0  0  0  0  0
   35.7530   29.4600   37.9900 N   0  0  0  0  0  0  0  0  0  0  0  0
   34.8910   28.8230   38.8040 C   0  0  0  0  0  0  0  0  0  0  0  0
   34.8450   29.1720   40.1220 C   0  0  0  0  0  0  0  0  0  0  0  0
   35.6790   30.1680   40.6050 C   0  0  0  0  0  0  0  0  0  0  0  0
   36.5830   30.8440   39.7710 C   0  0  0  0  0  0  0  0  0  0  0  0
   37.4080   31.8280   40.2450 C   0  0  0  0  0  0  0  0  0  0  0  0
   38.9270   32.4780   37.2380 H   0  0  0  0  0  0  0  0  0  0  0  0
   37.4210   30.7350   36.5540 H   0  0  0  0  0  0  0  0  0  0  0  0
   34.2250   28.0420   38.4700 H   0  0  0  0  0  0  0  0  0  0  0  0
   34.2210   28.7590   40.8800 H   0  0  0  0  0  0  0  0  0  0  0  0
   35.7050   30.5060   41.6420 H   0  0  0  0  0  0  0  0  0  0  0  0
   37.3880   32.1190   41.2830 H   0  0  0  0  0  0  0  0  0  0  0  0
   41.0720   33.2210   39.6590 C   0  0  0  0  0  0  0  0  0  0  0  0
   41.1370   32.4690   38.8210 H   0  0  0  0  0  0  0  0  0  0  0  0
   41.7920   34.0290   39.5570 H   0  0  0  0  0  0  0  0  0  0  0  0
   42.9510   32.1060   42.6800 C   0  0  0  0  0  0  0  0  0  0  0  0
   42.1430   31.0300   43.1040 C   0  0  0  0  0  0  0  0  0  0  0  0
   40.9930   30.7180   42.3590 C   0  0  0  0  0  0  0  0  0  0  0  0
   40.6800   31.4520   41.2490 N   0  0  0  0  0  0  0  0  0  0  0  0
   41.4870   32.4800   40.8760 C   0  0  0  0  0  0  0  0  0  0  0  0
   42.5910   32.7920   41.5790 N   0  0  0  0  0  0  0  0  0  0  0  0
   43.8270   32.3170   43.2780 H   0  0  0  0  0  0  0  0  0  0  0  0
   42.3250   30.4150   43.9600 H   0  0  0  0  0  0  0  0  0  0  0  0
   40.1230   29.6490   42.7170 C   0  0  0  0  0  0  0  0  0  0  0  0
   38.7930   29.6450   42.9410 C   0  0  0  0  0  0  0  0  0  0  0  0
   38.2460   30.5970   42.8440 H   0  0  0  0  0  0  0  0  0  0  0  0
   38.1050   28.5350   43.2770 C   0  0  0  0  0  3  0  0  0  0  0  0
   38.9460   27.3390   43.3710 C   0  0  0  0  0  3  0  0  0  0  0  0
   40.6240   27.9410   42.9700 S   0  0  0  0  0  0  0  0  0  0  0  0
  2  1  1  0  0  0  0
  2 11  1  0  0  0  0
  3  2  2  0  0  0  0
  4  3  1  0  0  0  0
  4  5  2  0  0  0  0
  5 10  1  0  0  0  0
  6  5  1  0  0  0  0
  6  7  2  0  0  0  0
  7  8  1  0  0  0  0
  8  9  2  0  0  0  0
  8 15  1  0  0  0  0
  9 16  1  0  0  0  0
 10 11  2  0  0  0  0
 10  9  1  0  0  0  0
 11 17  1  0  0  0  0
 12  3  1  0  0  0  0
 13  4  1  0  0  0  0
 14  7  1  0  0  0  0
 18  1  1  0  0  0  0
 18 25  1  0  0  0  0
 19 18  1  0  0  0  0
 20 18  1  0  0  0  0
 21 22  1  0  0  0  0
 21 27  1  0  0  0  0
 22 28  1  0  0  0  0
 23 29  1  0  0  0  0
 23 22  2  0  0  0  0
 24 23  1  0  0  0  0
 25 24  2  0  0  0  0
 25 26  1  0  0  0  0
 26 21  2  0  0  0  0
 29 30  2  0  0  0  0
 29 34  1  0  0  0  0
 30 32  1  0  0  0  0
 31 30  1  0  0  0  0
 32 33  2  0  0  0  0
 34 33  1  0  0  0  0
M  END
>  <minimizedAffinity>
-5.51992989

$$$$

 OpenBabel03242523353D

 34 37  0  0  0  0  0  0  0  0999 V2000
   37.7720   29.0240   43.1480 S   0  0  0  0  0  0  0  0  0  0  0  0
   38.0230   27.3540   42.6010 C   0  0  0  0  0  0  0  0  0  0  0  0
   39.1330   26.6830   43.0640 C   0  0  0  0  0  0  0  0  0  0  0  0
   39.3330   25.3970   42.6460 C   0  0  0  0  0  0  0  0  0  0  0  0
   38.4590   24.7520   41.7760 C   0  0  0  0  0  0  0  0  0  0  0  0
   38.6870   23.4870   41.3870 N   0  0  0  0  0  0  0  0  0  0  0  0
   37.8550   22.8440   40.5470 C   0  0  0  0  0  0  0  0  0  0  0  0
   36.7510   23.4970   40.0810 C   0  0  0  0  0  0  0  0  0  0  0  0
   36.5010   24.8020   40.4730 C   0  0  0  0  0  0  0  0  0  0  0  0
   37.3590   25.4890   41.3470 C   0  0  0  0  0  0  0  0  0  0  0  0
   37.1140   26.7780   41.7370 C   0  0  0  0  0  0  0  0  0  0  0  0
   39.8870   27.0630   43.7370 H   0  0  0  0  0  0  0  0  0  0  0  0
   40.1830   24.8060   42.9670 H   0  0  0  0  0  0  0  0  0  0  0  0
   38.0110   21.8280   40.2170 H   0  0  0  0  0  0  0  0  0  0  0  0
   36.0080   23.1200   39.4170 H   0  0  0  0  0  0  0  0  0  0  0  0
   35.6450   25.3950   40.1480 H   0  0  0  0  0  0  0  0  0  0  0  0
   36.2480   27.3130   41.3800 H   0  0  0  0  0  0  0  0  0  0  0  0
   39.0110   30.1220   42.4490 C   0  0  0  0  0  0  0  0  0  0  0  0
   39.2480   30.9320   43.1980 H   0  0  0  0  0  0  0  0  0  0  0  0
   39.9010   29.6460   42.0460 H   0  0  0  0  0  0  0  0  0  0  0  0
   38.0290   32.7530   39.9980 C   0  0  0  0  0  0  0  0  0  0  0  0
   37.1810   32.0110   39.1480 C   0  0  0  0  0  0  0  0  0  0  0  0
   36.9700   30.6520   39.4300 C   0  0  0  0  0  0  0  0  0  0  0  0
   37.5820   30.0760   40.5080 N   0  0  0  0  0  0  0  0  0  0  0  0
   38.3900   30.8270   41.3010 C   0  0  0  0  0  0  0  0  0  0  0  0
   38.6040   32.1310   41.0450 N   0  0  0  0  0  0  0  0  0  0  0  0
   38.1690   33.7970   39.7500 H   0  0  0  0  0  0  0  0  0  0  0  0
   36.6720   32.3950   38.2890 H   0  0  0  0  0  0  0  0  0  0  0  0
   36.1300   29.8300   38.6250 C   0  0  0  0  0  0  0  0  0  0  0  0
   35.0380   29.1110   38.9550 C   0  0  0  0  0  0  0  0  0  0  0  0
   34.7010   29.1290   40.0050 H   0  0  0  0  0  0  0  0  0  0  0  0
   34.3430   28.3740   38.0650 C   0  0  0  0  0  3  0  0  0  0  0  0
   34.8920   28.4360   36.7090 C   0  0  0  0  0  3  0  0  0  0  0  0
   36.3410   29.5400   36.8630 S   0  0  0  0  0  0  0  0  0  0  0  0
  2  3  1  0  0  0  0
  2  1  1  0  0  0  0
  3 12  1  0  0  0  0
  4 13  1  0  0  0  0
  4  3  2  0  0  0  0
  5  4  1  0  0  0  0
  6  5  1  0  0  0  0
  7  6  2  0  0  0  0
  8  9  2  0  0  0  0
  8  7  1  0  0  0  0
  9 10  1  0  0  0  0
 10 11  1  0  0  0  0
 10  5  2  0  0  0  0
 11  2  2  0  0  0  0
 14  7  1  0  0  0  0
 15  8  1  0  0  0  0
 16  9  1  0  0  0  0
 17 11  1  0  0  0  0
 18  1  1  0  0  0  0
 18 19  1  0  0  0  0
 20 18  1  0  0  0  0
 21 26  1  0  0  0  0
 22 23  1  0  0  0  0
 22 21  2  0  0  0  0
 23 24  2  0  0  0  0
 24 25  1  0  0  0  0
 25 18  1  0  0  0  0
 26 25  2  0  0  0  0
 27 21  1  0  0  0  0
 28 22  1  0  0  0  0
 29 30  2  0  0  0  0
 29 23  1  0  0  0  0
 30 31  1  0  0  0  0
 32 30  1  0  0  0  0
 33 34  1  0  0  0  0
 33 32  2  0  0  0  0
 34 29  1  0  0  0  0
M  END
>  <minimizedAffinity>
-5.50805378

$$$$

 OpenBabel03242523353D

 34 37  0  0  0  0  0  0  0  0999 V2000
   37.3410   27.9070   43.3580 S   0  0  0  0  0  0  0  0  0  0  0  0
   37.9110   29.3740   42.5360 C   0  0  0  0  0  0  0  0  0  0  0  0
   39.1600   29.8520   42.8630 C   0  0  0  0  0  0  0  0  0  0  0  0
   39.6060   30.9820   42.2350 C   0  0  0  0  0  0  0  0  0  0  0  0
   38.8430   31.6560   41.2850 C   0  0  0  0  0  0  0  0  0  0  0  0
   39.3140   32.7630   40.6880 N   0  0  0  0  0  0  0  0  0  0  0  0
   38.5940   33.4300   39.7670 C   0  0  0  0  0  0  0  0  0  0  0  0
   37.3550   32.9670   39.4330 C   0  0  0  0  0  0  0  0  0  0  0  0
   36.8550   31.8260   40.0400 C   0  0  0  0  0  0  0  0  0  0  0  0
   37.5910   31.1180   41.0040 C   0  0  0  0  0  0  0  0  0  0  0  0
   37.1000   29.9900   41.6040 C   0  0  0  0  0  0  0  0  0  0  0  0
   39.8510   29.4300   43.5780 H   0  0  0  0  0  0  0  0  0  0  0  0
   40.5760   31.4170   42.4400 H   0  0  0  0  0  0  0  0  0  0  0  0
   38.9450   34.3210   39.2690 H   0  0  0  0  0  0  0  0  0  0  0  0
   36.6760   33.3850   38.7270 H   0  0  0  0  0  0  0  0  0  0  0  0
   35.8770   31.3900   39.8320 H   0  0  0  0  0  0  0  0  0  0  0  0
   36.1230   29.6070   41.3560 H   0  0  0  0  0  0  0  0  0  0  0  0
   38.3030   26.4750   42.8560 C   0  0  0  0  0  0  0  0  0  0  0  0
   39.2740   26.8260   42.4010 H   0  0  0  0  0  0  0  0  0  0  0  0
   38.4450   25.7040   43.6090 H   0  0  0  0  0  0  0  0  0  0  0  0
   36.6400   23.9080   40.7260 C   0  0  0  0  0  0  0  0  0  0  0  0
   36.2260   24.7050   39.6370 C   0  0  0  0  0  0  0  0  0  0  0  0
   36.5210   26.0780   39.6580 C   0  0  0  0  0  0  0  0  0  0  0  0
   37.1950   26.6140   40.7200 N   0  0  0  0  0  0  0  0  0  0  0  0
   37.5750   25.8100   41.7470 C   0  0  0  0  0  0  0  0  0  0  0  0
   37.3000   24.4930   41.7420 N   0  0  0  0  0  0  0  0  0  0  0  0
   36.3950   22.8560   40.6750 H   0  0  0  0  0  0  0  0  0  0  0  0
   35.6960   24.3540   38.7760 H   0  0  0  0  0  0  0  0  0  0  0  0
   36.1400   26.9540   38.6010 C   0  0  0  0  0  0  0  0  0  0  0  0
   35.6670   28.2160   38.6430 C   0  0  0  0  0  0  0  0  0  0  0  0
   35.5370   28.6910   39.6290 H   0  0  0  0  0  0  0  0  0  0  0  0
   35.3480   28.9210   37.5380 C   0  0  0  0  0  3  0  0  0  0  0  0
   35.5680   28.1780   36.2950 C   0  0  0  0  0  3  0  0  0  0  0  0
   36.2040   26.5560   36.8490 S   0  0  0  0  0  0  0  0  0  0  0  0
  2  3  1  0  0  0  0
  2  1  1  0  0  0  0
  3 12  1  0  0  0  0
  4 13  1  0  0  0  0
  4  3  2  0  0  0  0
  5  4  1  0  0  0  0
  6  5  2  0  0  0  0
  7  6  1  0  0  0  0
  8  7  2  0  0  0  0
  8  9  1  0  0  0  0
  9 10  2  0  0  0  0
 10  5  1  0  0  0  0
 10 11  1  0  0  0  0
 11  2  2  0  0  0  0
 14  7  1  0  0  0  0
 15  8  1  0  0  0  0
 16  9  1  0  0  0  0
 17 11  1  0  0  0  0
 18  1  1  0  0  0  0
 18 20  1  0  0  0  0
 19 18  1  0  0  0  0
 21 26  1  0  0  0  0
 22 23  1  0  0  0  0
 22 21  2  0  0  0  0
 23 24  2  0  0  0  0
 24 25  1  0  0  0  0
 25 18  1  0  0  0  0
 26 25  2  0  0  0  0
 27 21  1  0  0  0  0
 28 22  1  0  0  0  0
 29 30  2  0  0  0  0
 29 23  1  0  0  0  0
 30 31  1  0  0  0  0
 32 30  1  0  0  0  0
 33 34  1  0  0  0  0
 33 32  2  0  0  0  0
 34 29  1  0  0  0  0
M  END
>  <minimizedAffinity>
-5.50014782

$$$$
