
 OpenBabel03242513573D

 31 34  0  0  0  0  0  0  0  0999 V2000
   43.9280   35.1190   41.4470 C   0  0  0  0  0  0  0  0  0  0  0  0
   44.2730   34.3500   40.3660 C   0  0  0  0  0  0  0  0  0  0  0  0
   43.3070   33.9780   39.4530 C   0  0  0  0  0  0  0  0  0  0  0  0
   41.9860   34.3490   39.5810 C   0  0  0  0  0  0  0  0  0  0  0  0
   41.1260   33.9330   38.6380 N   0  0  0  0  0  0  0  0  0  0  0  0
   39.8180   34.2860   38.7400 C   0  0  0  0  0  0  0  0  0  0  0  0
   39.4250   35.0540   39.8040 C   0  0  0  0  0  0  0  0  0  0  0  0
   40.3290   35.4820   40.7840 C   0  0  0  0  0  0  0  0  0  0  0  0
   41.6630   35.1160   40.6690 C   0  0  0  0  0  0  0  0  0  0  0  0
   42.5960   35.5150   41.6100 C   0  0  0  0  0  0  0  0  0  0  0  0
   45.3200   34.0860   40.3110 H   0  0  0  0  0  0  0  0  0  0  0  0
   43.6660   33.3770   38.6370 H   0  0  0  0  0  0  0  0  0  0  0  0
   39.1320   33.9510   37.9830 H   0  0  0  0  0  0  0  0  0  0  0  0
   38.3890   35.3630   39.9330 H   0  0  0  0  0  0  0  0  0  0  0  0
   40.0440   36.0830   41.6250 H   0  0  0  0  0  0  0  0  0  0  0  0
   42.2450   36.1180   42.4330 H   0  0  0  0  0  0  0  0  0  0  0  0
   44.7640   35.5870   42.4660 O   0  0  0  0  0  0  0  0  0  0  0  0
   44.5780   35.4380   44.9160 C   0  0  0  0  0  0  0  0  0  0  0  0
   44.9730   34.9510   43.6560 C   0  0  0  0  0  0  0  0  0  0  0  0
   45.6380   33.7030   43.6380 C   0  0  0  0  0  0  0  0  0  0  0  0
   45.8470   33.0680   44.8170 N   0  0  0  0  0  0  0  0  0  0  0  0
   45.4540   33.5670   46.0020 C   0  0  0  0  0  0  0  0  0  0  0  0
   44.8140   34.7670   46.0290 N   0  0  0  0  0  0  0  0  0  0  0  0
   44.0810   36.3910   44.8300 H   0  0  0  0  0  0  0  0  0  0  0  0
   45.9480   33.3140   42.6790 H   0  0  0  0  0  0  0  0  0  0  0  0
   45.7620   32.7570   47.1210 C   0  0  0  0  0  0  0  0  0  0  0  0
   45.0200   32.4540   48.2370 C   0  0  0  0  0  0  0  0  0  0  0  0
   44.0290   32.8770   48.3250 H   0  0  0  0  0  0  0  0  0  0  0  0
   45.5350   31.6340   49.2080 C   0  0  0  0  0  0  0  0  0  0  0  0
   46.8630   31.1430   48.9620 C   0  0  0  0  0  0  0  0  0  0  0  0
   47.3220   31.8750   47.3490 S   0  0  0  0  0  0  0  0  0  0  0  0
  1 10  1  0  0  0  0
  1 17  1  0  0  0  0
  2  1  2  0  0  0  0
  3  4  2  0  0  0  0
  3  2  1  0  0  0  0
  4  9  1  0  0  0  0
  5  6  2  0  0  0  0
  5  4  1  0  0  0  0
  6  7  1  0  0  0  0
  7 14  1  0  0  0  0
  7  8  2  0  0  0  0
  8 15  1  0  0  0  0
  9  8  1  0  0  0  0
  9 10  2  0  0  0  0
 10 16  1  0  0  0  0
 11  2  1  0  0  0  0
 12  3  1  0  0  0  0
 13  6  1  0  0  0  0
 17 19  1  0  0  0  0
 18 23  1  0  0  0  0
 19 18  2  0  0  0  0
 20 19  1  0  0  0  0
 20 21  2  0  0  0  0
 21 22  1  0  0  0  0
 22 23  2  0  0  0  0
 22 26  1  0  0  0  0
 24 18  1  0  0  0  0
 25 20  1  0  0  0  0
 26 31  1  0  0  0  0
 26 27  2  0  0  0  0
 27 28  1  0  0  0  0
 27 29  1  0  0  0  0
 30 29  2  0  0  0  0
 31 30  1  0  0  0  0
M  END
>  <minimizedAffinity>
-6.59572935

>  <minimizedRMSD>
0.995154381

$$$$
