
 OpenBabel03252506423D

 37 40  0  0  1  0  0  0  0  0999 V2000
   49.4200   33.3440   41.4600 N   0  0  1  0  0  0  0  0  0  0  0  0
   50.7020   33.1430   42.1450 C   0  0  0  0  0  0  0  0  0  0  0  0
   51.3330   31.8340   41.7870 C   0  0  0  0  0  0  0  0  0  0  0  0
   50.5060   30.7430   42.4380 C   0  0  0  0  0  0  0  0  0  0  0  0
   49.0520   31.0630   42.3550 C   0  0  0  0  0  0  0  0  0  0  0  0
   48.7910   32.0670   41.2390 C   0  0  2  0  0  0  0  0  0  0  0  0
   50.5180   33.1190   43.2550 H   0  0  0  0  0  0  0  0  0  0  0  0
   51.3630   34.0190   41.9720 H   0  0  0  0  0  0  0  0  0  0  0  0
   51.5030   31.7020   40.7190 H   0  0  0  0  0  0  0  0  0  0  0  0
   52.3340   31.8290   42.2660 H   0  0  0  0  0  0  0  0  0  0  0  0
   50.7710   30.7200   43.5320 H   0  0  0  0  0  0  0  0  0  0  0  0
   50.7970   29.7690   42.0340 H   0  0  0  0  0  0  0  0  0  0  0  0
   48.6830   31.5570   43.2760 H   0  0  0  0  0  0  0  0  0  0  0  0
   48.4340   30.1710   42.0890 H   0  0  0  0  0  0  0  0  0  0  0  0
   47.6970   32.2620   41.3100 H   0  0  0  0  0  0  0  0  0  0  0  0
   47.2570   34.6360   42.0000 C   0  0  1  0  0  0  0  0  0  0  0  0
   48.3690   35.5670   41.7540 C   0  0  0  0  0  0  0  0  0  0  0  0
   48.6630   34.2170   42.2930 C   0  0  2  0  0  0  0  0  0  0  0  0
   46.8040   34.1790   41.0980 H   0  0  0  0  0  0  0  0  0  0  0  0
   48.4570   36.4500   42.4310 H   0  0  0  0  0  0  0  0  0  0  0  0
   48.6560   35.8290   40.6980 H   0  0  0  0  0  0  0  0  0  0  0  0
   48.9280   34.2060   43.3910 H   0  0  0  0  0  0  0  0  0  0  0  0
   45.5250   36.0410   43.1630 C   0  0  0  0  0  0  0  0  0  0  0  0
   46.3290   34.8840   43.1350 C   0  0  0  0  0  0  0  0  0  0  0  0
   46.2160   33.9760   44.2010 C   0  0  0  0  0  0  0  0  0  0  0  0
   45.3420   34.2630   45.2010 N   0  0  0  0  0  0  0  0  0  0  0  0
   44.5820   35.3890   45.1940 C   0  0  0  0  0  0  0  0  0  0  0  0
   44.6690   36.2900   44.1720 N   0  0  0  0  0  0  0  0  0  0  0  0
   45.6580   36.6970   42.3150 H   0  0  0  0  0  0  0  0  0  0  0  0
   46.8220   33.0750   44.2090 H   0  0  0  0  0  0  0  0  0  0  0  0
   43.8860   35.6180   45.9880 H   0  0  0  0  0  0  0  0  0  0  0  0
   49.0580   31.4850   39.9180 C   0  0  0  0  0  0  0  0  0  0  0  0
   49.5890   31.9800   38.8140 C   0  0  0  0  0  0  0  0  0  0  0  0
   49.9150   33.0100   38.8090 H   0  0  0  0  0  0  0  0  0  0  0  0
   49.7180   31.1870   37.7080 C   0  0  0  0  0  3  0  0  0  0  0  0
   49.2780   29.8810   37.7910 C   0  0  0  0  0  3  0  0  0  0  0  0
   48.6190   29.7020   39.5620 S   0  0  0  0  0  0  0  0  0  0  0  0
  1  2  1  1  0  0  0
  1 18  1  0  0  0  0
  2  7  1  0  0  0  0
  3  2  1  0  0  0  0
  3 10  1  0  0  0  0
  3  4  1  0  0  0  0
  4 11  1  0  0  0  0
  5  4  1  0  0  0  0
  5 13  1  0  0  0  0
  6 15  1  1  0  0  0
  6  1  1  0  0  0  0
  6  5  1  0  0  0  0
  8  2  1  0  0  0  0
  9  3  1  0  0  0  0
 12  4  1  0  0  0  0
 14  5  1  0  0  0  0
 16 19  1  6  0  0  0
 16 18  1  0  0  0  0
 16 24  1  0  0  0  0
 17 16  1  0  0  0  0
 17 18  1  0  0  0  0
 17 20  1  0  0  0  0
 18 22  1  1  0  0  0
 21 17  1  0  0  0  0
 23 28  1  0  0  0  0
 24 23  2  0  0  0  0
 24 25  1  0  0  0  0
 25 30  1  0  0  0  0
 25 26  2  0  0  0  0
 27 26  1  0  0  0  0
 27 31  1  0  0  0  0
 28 27  2  0  0  0  0
 29 23  1  0  0  0  0
 32  6  1  0  0  0  0
 33 32  2  0  0  0  0
 34 33  1  0  0  0  0
 35 36  2  0  0  0  0
 35 33  1  0  0  0  0
 36 37  1  0  0  0  0
 37 32  1  0  0  0  0
M  END
>  <minimizedAffinity>
-4.75720739

>  <minimizedRMSD>
0.583904684

$$$$
