
 OpenBabel03242510203D

 33 36  0  0  1  0  0  0  0  0999 V2000
   48.1630   33.4580   43.5490 N   0  0  0  0  0  0  0  0  0  0  0  0
   49.2750   33.4580   42.7220 C   0  0  0  0  0  0  0  0  0  0  0  0
   50.4440   33.0300   42.9240 O   0  0  0  0  0  0  0  0  0  0  0  0
   47.6120   34.3680   43.5690 H   0  0  0  0  0  0  0  0  0  0  0  0
   46.3440   32.3140   44.7850 C   0  0  1  0  0  0  0  0  0  0  0  0
   46.6550   31.4730   43.6900 C   0  0  0  0  0  0  0  0  0  0  0  0
   47.7670   32.3260   44.3270 C   0  0  1  0  0  0  0  0  0  0  0  0
   46.1370   31.9160   45.8050 H   0  0  0  0  0  0  0  0  0  0  0  0
   46.4550   31.7160   42.6300 H   0  0  0  0  0  0  0  0  0  0  0  0
   46.6920   30.3610   43.8350 H   0  0  0  0  0  0  0  0  0  0  0  0
   48.5550   31.6430   44.6630 H   0  0  0  0  0  0  0  0  0  0  0  0
   45.0290   33.9010   43.2250 C   0  0  0  0  0  0  0  0  0  0  0  0
   45.5260   33.5760   44.5090 C   0  0  0  0  0  0  0  0  0  0  0  0
   45.2670   34.4540   45.5350 C   0  0  0  0  0  0  0  0  0  0  0  0
   44.5600   35.5790   45.2790 N   0  0  0  0  0  0  0  0  0  0  0  0
   44.0900   35.8820   44.0450 C   0  0  0  0  0  0  0  0  0  0  0  0
   44.3370   35.0070   42.9820 N   0  0  0  0  0  0  0  0  0  0  0  0
   45.2130   33.2370   42.4150 H   0  0  0  0  0  0  0  0  0  0  0  0
   45.6370   34.2260   46.5260 H   0  0  0  0  0  0  0  0  0  0  0  0
   43.5560   36.8070   44.0330 H   0  0  0  0  0  0  0  0  0  0  0  0
   49.1760   34.0400   41.3200 C   0  0  2  0  0  0  0  0  0  0  0  0
   48.7570   35.5350   41.2100 C   0  0  0  0  0  0  0  0  0  0  0  0
   47.8840   34.4050   40.7350 C   0  0  1  0  0  0  0  0  0  0  0  0
   50.0710   33.9070   40.6750 H   0  0  0  0  0  0  0  0  0  0  0  0
   48.6270   36.0480   42.1530 H   0  0  0  0  0  0  0  0  0  0  0  0
   49.2110   36.1540   40.4230 H   0  0  0  0  0  0  0  0  0  0  0  0
   46.9300   34.4930   41.2750 H   0  0  0  0  0  0  0  0  0  0  0  0
   47.7090   34.1070   39.3330 C   0  0  0  0  0  0  0  0  0  0  0  0
   48.4130   34.5270   38.2640 C   0  0  0  0  0  0  0  0  0  0  0  0
   49.2570   35.1940   38.3910 H   0  0  0  0  0  0  0  0  0  0  0  0
   48.0700   34.1160   36.9960 C   0  0  0  0  0  0  0  0  0  0  0  0
   46.9880   33.2590   36.8270 C   0  0  0  0  0  0  0  0  0  0  0  0
   46.4260   33.0320   38.6100 S   0  0  0  0  0  0  0  0  0  0  0  0
  1  4  1  0  0  0  0
  1  7  1  0  0  0  0
  2  3  2  0  0  0  0
  2  1  1  0  0  0  0
  5  8  1  1  0  0  0
  6 10  1  0  0  0  0
  6  7  1  0  0  0  0
  6  5  1  0  0  0  0
  7 11  1  1  0  0  0
  7  5  1  0  0  0  0
  9  6  1  0  0  0  0
 12 13  1  0  0  0  0
 13  5  1  0  0  0  0
 13 14  2  0  0  0  0
 14 19  1  0  0  0  0
 15 14  1  0  0  0  0
 16 15  2  0  0  0  0
 17 12  2  0  0  0  0
 17 16  1  0  0  0  0
 18 12  1  0  0  0  0
 20 16  1  0  0  0  0
 21 24  1  6  0  0  0
 21  2  1  0  0  0  0
 22 21  1  0  0  0  0
 22 25  1  0  0  0  0
 23 22  1  0  0  0  0
 23 27  1  1  0  0  0
 23 21  1  0  0  0  0
 26 22  1  0  0  0  0
 28 23  1  0  0  0  0
 29 30  1  0  0  0  0
 29 28  2  0  0  0  0
 31 29  1  0  0  0  0
 32 31  2  0  0  0  0
 32 33  1  0  0  0  0
 33 28  1  0  0  0  0
M  END
>  <minimizedAffinity>
-4.99123764

>  <minimizedRMSD>
0.943067789

$$$$
