
 OpenBabel03242513353D

 18 19  0  0  0  0  0  0  0  0999 V2000
   38.5900   28.1880   41.8280 C   0  0  0  0  0  0  0  0  0  0  0  0
   37.3100   27.6430   41.9010 C   0  0  0  0  0  0  0  0  0  0  0  0
   36.2200   28.4480   41.5580 C   0  0  0  0  0  0  0  0  0  0  0  0
   36.4610   29.7310   41.1640 N   0  0  0  0  0  0  0  0  0  0  0  0
   37.7140   30.2290   41.1030 C   0  0  0  0  0  0  0  0  0  0  0  0
   38.7720   29.4700   41.4300 N   0  0  0  0  0  0  0  0  0  0  0  0
   39.4940   27.6350   42.0760 H   0  0  0  0  0  0  0  0  0  0  0  0
   35.2620   27.9880   41.6290 H   0  0  0  0  0  0  0  0  0  0  0  0
   37.9300   31.6210   40.6730 C   0  0  0  0  0  0  0  0  0  0  0  0
   37.0660   32.3500   39.8980 C   0  0  0  0  0  0  0  0  0  0  0  0
   36.1330   31.9420   39.5360 H   0  0  0  0  0  0  0  0  0  0  0  0
   37.3740   33.6420   39.5600 C   0  0  0  0  0  3  0  0  0  0  0  0
   38.6360   34.1610   40.0630 C   0  0  0  0  0  3  0  0  0  0  0  0
   39.2950   32.6630   41.0270 S   0  0  0  0  0  0  0  0  0  0  0  0
   37.2130   26.2280   42.3480 C   0  0  0  0  0  0  0  0  0  0  0  0
   38.4660   25.8790   42.8280 F   0  0  0  0  0  0  0  0  0  0  0  0
   36.8530   25.4450   41.2950 F   0  0  0  0  0  0  0  0  0  0  0  0
   36.2420   26.1740   43.3620 F   0  0  0  0  0  0  0  0  0  0  0  0
  1  2  1  0  0  0  0
  1  7  1  0  0  0  0
  2 15  1  0  0  0  0
  3  8  1  0  0  0  0
  3  2  2  0  0  0  0
  4  3  1  0  0  0  0
  5  4  2  0  0  0  0
  5  6  1  0  0  0  0
  6  1  2  0  0  0  0
  9 14  1  0  0  0  0
  9  5  1  0  0  0  0
 10  9  2  0  0  0  0
 11 10  1  0  0  0  0
 12 10  1  0  0  0  0
 12 13  2  0  0  0  0
 13 14  1  0  0  0  0
 15 16  1  0  0  0  0
 15 18  1  0  0  0  0
 17 15  1  0  0  0  0
M  END
>  <minimizedAffinity>
-4.46958876

$$$$

 OpenBabel03242513353D

 18 19  0  0  0  0  0  0  0  0999 V2000
   37.2430   27.7860   40.6070 C   0  0  0  0  0  0  0  0  0  0  0  0
   37.3660   27.4360   41.9510 C   0  0  0  0  0  0  0  0  0  0  0  0
   37.6600   28.4390   42.8780 C   0  0  0  0  0  0  0  0  0  0  0  0
   37.8130   29.7160   42.4250 N   0  0  0  0  0  0  0  0  0  0  0  0
   37.6860   30.0220   41.1170 C   0  0  0  0  0  0  0  0  0  0  0  0
   37.4050   29.0720   40.2130 N   0  0  0  0  0  0  0  0  0  0  0  0
   37.0170   27.0720   39.8190 H   0  0  0  0  0  0  0  0  0  0  0  0
   37.7440   28.1240   43.8930 H   0  0  0  0  0  0  0  0  0  0  0  0
   37.8590   31.4150   40.6690 C   0  0  0  0  0  0  0  0  0  0  0  0
   37.0010   32.0870   39.8370 C   0  0  0  0  0  0  0  0  0  0  0  0
   36.1080   31.6290   39.4390 H   0  0  0  0  0  0  0  0  0  0  0  0
   37.2660   33.3860   39.4880 C   0  0  0  0  0  3  0  0  0  0  0  0
   38.4750   33.9730   40.0410 C   0  0  0  0  0  3  0  0  0  0  0  0
   39.1550   32.5270   41.0670 S   0  0  0  0  0  0  0  0  0  0  0  0
   37.1710   26.0010   42.2860 C   0  0  0  0  0  0  0  0  0  0  0  0
   36.2210   25.9560   43.2940 F   0  0  0  0  0  0  0  0  0  0  0  0
   38.3540   25.4680   42.7000 F   0  0  0  0  0  0  0  0  0  0  0  0
   36.7160   25.3560   41.1230 F   0  0  0  0  0  0  0  0  0  0  0  0
  1  2  1  0  0  0  0
  2 15  1  0  0  0  0
  2  3  2  0  0  0  0
  3  8  1  0  0  0  0
  4  3  1  0  0  0  0
  5  4  2  0  0  0  0
  6  1  2  0  0  0  0
  6  5  1  0  0  0  0
  7  1  1  0  0  0  0
  9 14  1  0  0  0  0
  9  5  1  0  0  0  0
 10  9  2  0  0  0  0
 11 10  1  0  0  0  0
 12 10  1  0  0  0  0
 12 13  2  0  0  0  0
 13 14  1  0  0  0  0
 15 17  1  0  0  0  0
 15 16  1  0  0  0  0
 18 15  1  0  0  0  0
M  END
>  <minimizedAffinity>
-4.45420885

$$$$

 OpenBabel03242513353D

 18 19  0  0  0  0  0  0  0  0999 V2000
   39.0140   28.4920   42.2980 C   0  0  0  0  0  0  0  0  0  0  0  0
   37.6520   28.2050   42.2360 C   0  0  0  0  0  0  0  0  0  0  0  0
   36.7840   29.1800   41.7360 C   0  0  0  0  0  0  0  0  0  0  0  0
   37.3120   30.3700   41.3310 N   0  0  0  0  0  0  0  0  0  0  0  0
   38.6370   30.6180   41.4030 C   0  0  0  0  0  0  0  0  0  0  0  0
   39.4840   29.6930   41.8810 N   0  0  0  0  0  0  0  0  0  0  0  0
   39.7590   27.7940   42.6720 H   0  0  0  0  0  0  0  0  0  0  0  0
   35.7530   28.9140   41.7080 H   0  0  0  0  0  0  0  0  0  0  0  0
   39.1660   31.9170   40.9550 C   0  0  0  0  0  0  0  0  0  0  0  0
   38.4020   32.9990   40.6010 C   0  0  0  0  0  0  0  0  0  0  0  0
   37.3220   32.9750   40.6270 H   0  0  0  0  0  0  0  0  0  0  0  0
   39.0070   34.1610   40.1990 C   0  0  0  0  0  3  0  0  0  0  0  0
   40.4610   34.1600   40.1740 C   0  0  0  0  0  3  0  0  0  0  0  0
   40.8410   32.3960   40.7650 S   0  0  0  0  0  0  0  0  0  0  0  0
   37.2330   26.8610   42.7170 C   0  0  0  0  0  0  0  0  0  0  0  0
   36.2040   27.0690   43.6220 F   0  0  0  0  0  0  0  0  0  0  0  0
   38.2910   26.2420   43.3070 F   0  0  0  0  0  0  0  0  0  0  0  0
   36.7920   26.1340   41.5980 F   0  0  0  0  0  0  0  0  0  0  0  0
  1  7  1  0  0  0  0
  2  1  1  0  0  0  0
  2 15  1  0  0  0  0
  3  2  2  0  0  0  0
  4  5  2  0  0  0  0
  4  3  1  0  0  0  0
  5  6  1  0  0  0  0
  6  1  2  0  0  0  0
  8  3  1  0  0  0  0
  9  5  1  0  0  0  0
 10 11  1  0  0  0  0
 10  9  2  0  0  0  0
 12 10  1  0  0  0  0
 13 12  2  0  0  0  0
 13 14  1  0  0  0  0
 14  9  1  0  0  0  0
 15 17  1  0  0  0  0
 15 16  1  0  0  0  0
 18 15  1  0  0  0  0
M  END
>  <minimizedAffinity>
-4.38692141

$$$$

 OpenBabel03242513353D

 18 19  0  0  0  0  0  0  0  0999 V2000
   38.5680   30.5370   39.7150 C   0  0  0  0  0  0  0  0  0  0  0  0
   37.6740   31.4770   40.2230 C   0  0  0  0  0  0  0  0  0  0  0  0
   36.5840   31.0260   40.9720 C   0  0  0  0  0  0  0  0  0  0  0  0
   36.4460   29.6840   41.1720 N   0  0  0  0  0  0  0  0  0  0  0  0
   37.3310   28.7990   40.6670 C   0  0  0  0  0  0  0  0  0  0  0  0
   38.3830   29.2150   39.9450 N   0  0  0  0  0  0  0  0  0  0  0  0
   39.4420   30.7980   39.1220 H   0  0  0  0  0  0  0  0  0  0  0  0
   35.9280   31.7810   41.3400 H   0  0  0  0  0  0  0  0  0  0  0  0
   37.1450   27.3580   40.9070 C   0  0  0  0  0  0  0  0  0  0  0  0
   37.1690   26.7540   42.1370 C   0  0  0  0  0  0  0  0  0  0  0  0
   37.3320   27.3100   43.0490 H   0  0  0  0  0  0  0  0  0  0  0  0
   36.9830   25.4000   42.2370 C   0  0  0  0  0  3  0  0  0  0  0  0
   36.7670   24.6800   40.9930 C   0  0  0  0  0  3  0  0  0  0  0  0
   36.8560   26.0930   39.7270 S   0  0  0  0  0  0  0  0  0  0  0  0
   37.9630   32.9030   39.9170 C   0  0  0  0  0  0  0  0  0  0  0  0
   38.9800   32.9070   38.9750 F   0  0  0  0  0  0  0  0  0  0  0  0
   38.3440   33.5420   41.0570 F   0  0  0  0  0  0  0  0  0  0  0  0
   36.7840   33.4690   39.4020 F   0  0  0  0  0  0  0  0  0  0  0  0
  1  6  2  0  0  0  0
  1  2  1  0  0  0  0
  2  3  2  0  0  0  0
  3  4  1  0  0  0  0
  3  8  1  0  0  0  0
  5  9  1  0  0  0  0
  5  4  2  0  0  0  0
  6  5  1  0  0  0  0
  7  1  1  0  0  0  0
  9 10  2  0  0  0  0
 10 12  1  0  0  0  0
 10 11  1  0  0  0  0
 13 12  2  0  0  0  0
 14  9  1  0  0  0  0
 14 13  1  0  0  0  0
 15  2  1  0  0  0  0
 15 17  1  0  0  0  0
 16 15  1  0  0  0  0
 18 15  1  0  0  0  0
M  END
>  <minimizedAffinity>
-4.17020798

$$$$

 OpenBabel03242513353D

 18 19  0  0  0  0  0  0  0  0999 V2000
   38.1890   28.3430   40.9380 C   0  0  0  0  0  0  0  0  0  0  0  0
   37.9030   28.0580   42.2720 C   0  0  0  0  0  0  0  0  0  0  0  0
   38.2260   29.0100   43.2430 C   0  0  0  0  0  0  0  0  0  0  0  0
   38.8070   30.1760   42.8390 N   0  0  0  0  0  0  0  0  0  0  0  0
   39.0710   30.4220   41.5390 C   0  0  0  0  0  0  0  0  0  0  0  0
   38.7680   29.5190   40.5940 N   0  0  0  0  0  0  0  0  0  0  0  0
   37.9720   27.6620   40.1180 H   0  0  0  0  0  0  0  0  0  0  0  0
   37.9880   28.7480   44.2480 H   0  0  0  0  0  0  0  0  0  0  0  0
   39.7000   31.6940   41.1460 C   0  0  0  0  0  0  0  0  0  0  0  0
   41.0510   31.9110   41.0570 C   0  0  0  0  0  0  0  0  0  0  0  0
   41.7740   31.1380   41.2760 H   0  0  0  0  0  0  0  0  0  0  0  0
   41.5220   33.1400   40.6790 C   0  0  0  0  0  3  0  0  0  0  0  0
   40.5240   34.1580   40.3910 C   0  0  0  0  0  3  0  0  0  0  0  0
   38.9160   33.1990   40.7080 S   0  0  0  0  0  0  0  0  0  0  0  0
   37.2680   26.7430   42.5500 C   0  0  0  0  0  0  0  0  0  0  0  0
   38.2720   25.9130   43.0250 F   0  0  0  0  0  0  0  0  0  0  0  0
   36.7230   26.2510   41.4040 F   0  0  0  0  0  0  0  0  0  0  0  0
   36.2750   26.9530   43.5220 F   0  0  0  0  0  0  0  0  0  0  0  0
  1  2  1  0  0  0  0
  2 15  1  0  0  0  0
  2  3  2  0  0  0  0
  3  8  1  0  0  0  0
  4  3  1  0  0  0  0
  5  4  2  0  0  0  0
  6  1  2  0  0  0  0
  6  5  1  0  0  0  0
  7  1  1  0  0  0  0
  9  5  1  0  0  0  0
 10  9  2  0  0  0  0
 10 11  1  0  0  0  0
 12 10  1  0  0  0  0
 13 12  2  0  0  0  0
 13 14  1  0  0  0  0
 14  9  1  0  0  0  0
 15 16  1  0  0  0  0
 15 18  1  0  0  0  0
 17 15  1  0  0  0  0
M  END
>  <minimizedAffinity>
-4.15916204

$$$$

 OpenBabel03242513353D

 18 19  0  0  0  0  0  0  0  0999 V2000
   36.6860   27.1290   40.6600 C   0  0  0  0  0  0  0  0  0  0  0  0
   36.5710   28.1200   41.6340 C   0  0  0  0  0  0  0  0  0  0  0  0
   35.9880   29.3400   41.2810 C   0  0  0  0  0  0  0  0  0  0  0  0
   35.5570   29.5040   39.9970 N   0  0  0  0  0  0  0  0  0  0  0  0
   35.6820   28.5250   39.0780 C   0  0  0  0  0  0  0  0  0  0  0  0
   36.2400   27.3470   39.4000 N   0  0  0  0  0  0  0  0  0  0  0  0
   37.1250   26.1520   40.8470 H   0  0  0  0  0  0  0  0  0  0  0  0
   35.9210   30.0660   42.0580 H   0  0  0  0  0  0  0  0  0  0  0  0
   35.2030   28.7430   37.7030 C   0  0  0  0  0  0  0  0  0  0  0  0
   33.8850   28.8000   37.3260 C   0  0  0  0  0  0  0  0  0  0  0  0
   33.0790   28.6850   38.0350 H   0  0  0  0  0  0  0  0  0  0  0  0
   33.5590   29.0100   36.0120 C   0  0  0  0  0  3  0  0  0  0  0  0
   34.6680   29.1610   35.0830 C   0  0  0  0  0  3  0  0  0  0  0  0
   36.1550   28.9780   36.2500 S   0  0  0  0  0  0  0  0  0  0  0  0
   37.0890   27.7860   42.9870 C   0  0  0  0  0  0  0  0  0  0  0  0
   36.0620   27.1360   43.6540 F   0  0  0  0  0  0  0  0  0  0  0  0
   37.4450   28.9320   43.6300 F   0  0  0  0  0  0  0  0  0  0  0  0
   38.2020   26.9460   42.8160 F   0  0  0  0  0  0  0  0  0  0  0  0
  1  7  1  0  0  0  0
  1  2  1  0  0  0  0
  2 15  1  0  0  0  0
  3  2  2  0  0  0  0
  3  8  1  0  0  0  0
  4  3  1  0  0  0  0
  5  6  1  0  0  0  0
  5  4  2  0  0  0  0
  6  1  2  0  0  0  0
  9  5  1  0  0  0  0
 10  9  2  0  0  0  0
 10 11  1  0  0  0  0
 12 10  1  0  0  0  0
 13 12  2  0  0  0  0
 13 14  1  0  0  0  0
 14  9  1  0  0  0  0
 15 17  1  0  0  0  0
 15 16  1  0  0  0  0
 18 15  1  0  0  0  0
M  END
>  <minimizedAffinity>
-4.0810113

$$$$

 OpenBabel03242513353D

 18 19  0  0  0  0  0  0  0  0999 V2000
   37.6570   27.0180   41.7030 C   0  0  0  0  0  0  0  0  0  0  0  0
   37.0680   26.0140   40.9370 C   0  0  0  0  0  0  0  0  0  0  0  0
   36.5220   26.3530   39.6960 C   0  0  0  0  0  0  0  0  0  0  0  0
   36.5920   27.6530   39.2910 N   0  0  0  0  0  0  0  0  0  0  0  0
   37.1700   28.6020   40.0560 C   0  0  0  0  0  0  0  0  0  0  0  0
   37.6990   28.2940   41.2510 N   0  0  0  0  0  0  0  0  0  0  0  0
   38.1050   26.8450   42.6780 H   0  0  0  0  0  0  0  0  0  0  0  0
   36.0830   25.5520   39.1460 H   0  0  0  0  0  0  0  0  0  0  0  0
   37.2240   29.9950   39.5810 C   0  0  0  0  0  0  0  0  0  0  0  0
   37.4710   30.3780   38.2880 C   0  0  0  0  0  0  0  0  0  0  0  0
   37.6480   29.6620   37.4990 H   0  0  0  0  0  0  0  0  0  0  0  0
   37.4970   31.7090   37.9620 C   0  0  0  0  0  3  0  0  0  0  0  0
   37.2540   32.6480   39.0460 C   0  0  0  0  0  3  0  0  0  0  0  0
   36.9980   31.4650   40.5100 S   0  0  0  0  0  0  0  0  0  0  0  0
   37.0710   24.6450   41.5180 C   0  0  0  0  0  0  0  0  0  0  0  0
   36.4660   23.8190   40.5830 F   0  0  0  0  0  0  0  0  0  0  0  0
   36.3800   24.6500   42.6900 F   0  0  0  0  0  0  0  0  0  0  0  0
   38.4120   24.2830   41.7310 F   0  0  0  0  0  0  0  0  0  0  0  0
  1  7  1  0  0  0  0
  2 15  1  0  0  0  0
  2  1  2  0  0  0  0
  3  2  1  0  0  0  0
  4  3  2  0  0  0  0
  4  5  1  0  0  0  0
  5  6  2  0  0  0  0
  6  1  1  0  0  0  0
  8  3  1  0  0  0  0
  9  5  1  0  0  0  0
  9 14  1  0  0  0  0
 10  9  2  0  0  0  0
 11 10  1  0  0  0  0
 12 10  1  0  0  0  0
 12 13  2  0  0  0  0
 13 14  1  0  0  0  0
 15 18  1  0  0  0  0
 15 17  1  0  0  0  0
 16 15  1  0  0  0  0
M  END
>  <minimizedAffinity>
-4.07120752

$$$$

 OpenBabel03242513353D

 18 19  0  0  0  0  0  0  0  0999 V2000
   38.1700   26.3660   40.3650 C   0  0  0  0  0  0  0  0  0  0  0  0
   37.5370   25.8520   41.4950 C   0  0  0  0  0  0  0  0  0  0  0  0
   37.0400   26.7460   42.4480 C   0  0  0  0  0  0  0  0  0  0  0  0
   37.1970   28.0820   42.2260 N   0  0  0  0  0  0  0  0  0  0  0  0
   37.8140   28.5480   41.1210 C   0  0  0  0  0  0  0  0  0  0  0  0
   38.2980   27.7040   40.1960 N   0  0  0  0  0  0  0  0  0  0  0  0
   38.5860   25.7460   39.5750 H   0  0  0  0  0  0  0  0  0  0  0  0
   36.5640   26.3070   43.2940 H   0  0  0  0  0  0  0  0  0  0  0  0
   37.9630   30.0000   40.9200 C   0  0  0  0  0  0  0  0  0  0  0  0
   39.1320   30.7010   41.0720 C   0  0  0  0  0  0  0  0  0  0  0  0
   40.0570   30.2220   41.3580 H   0  0  0  0  0  0  0  0  0  0  0  0
   39.1500   32.0540   40.8570 C   0  0  0  0  0  3  0  0  0  0  0  0
   37.8890   32.6670   40.4720 C   0  0  0  0  0  3  0  0  0  0  0  0
   36.7340   31.1600   40.4550 S   0  0  0  0  0  0  0  0  0  0  0  0
   37.4450   24.3710   41.5910 C   0  0  0  0  0  0  0  0  0  0  0  0
   38.0620   24.0140   42.7810 F   0  0  0  0  0  0  0  0  0  0  0  0
   38.0730   23.8090   40.5230 F   0  0  0  0  0  0  0  0  0  0  0  0
   36.0810   24.0350   41.5990 F   0  0  0  0  0  0  0  0  0  0  0  0
  1  2  1  0  0  0  0
  2 15  1  0  0  0  0
  2  3  2  0  0  0  0
  3  8  1  0  0  0  0
  4  3  1  0  0  0  0
  5  4  2  0  0  0  0
  6  1  2  0  0  0  0
  6  5  1  0  0  0  0
  7  1  1  0  0  0  0
  9 10  2  0  0  0  0
  9  5  1  0  0  0  0
 10 11  1  0  0  0  0
 12 10  1  0  0  0  0
 13 12  2  0  0  0  0
 14 13  1  0  0  0  0
 14  9  1  0  0  0  0
 15 18  1  0  0  0  0
 15 16  1  0  0  0  0
 17 15  1  0  0  0  0
M  END
>  <minimizedAffinity>
-3.9452858

$$$$

 OpenBabel03242513353D

 18 19  0  0  0  0  0  0  0  0999 V2000
   37.9270   30.3290   41.5540 C   0  0  0  0  0  0  0  0  0  0  0  0
   37.9160   30.8870   40.2770 C   0  0  0  0  0  0  0  0  0  0  0  0
   37.6470   30.0560   39.1860 C   0  0  0  0  0  0  0  0  0  0  0  0
   37.4060   28.7350   39.4230 N   0  0  0  0  0  0  0  0  0  0  0  0
   37.4220   28.2250   40.6720 C   0  0  0  0  0  0  0  0  0  0  0  0
   37.6800   29.0090   41.7310 N   0  0  0  0  0  0  0  0  0  0  0  0
   38.1260   30.9000   42.4580 H   0  0  0  0  0  0  0  0  0  0  0  0
   37.6490   30.5280   38.2310 H   0  0  0  0  0  0  0  0  0  0  0  0
   37.1570   26.7920   40.8830 C   0  0  0  0  0  0  0  0  0  0  0  0
   37.1940   26.1540   42.0960 C   0  0  0  0  0  0  0  0  0  0  0  0
   37.4280   26.6750   43.0130 H   0  0  0  0  0  0  0  0  0  0  0  0
   36.9280   24.8120   42.1710 C   0  0  0  0  0  3  0  0  0  0  0  0
   36.6170   24.1410   40.9190 C   0  0  0  0  0  3  0  0  0  0  0  0
   36.7420   25.5800   39.6860 S   0  0  0  0  0  0  0  0  0  0  0  0
   38.1980   32.3440   40.1850 C   0  0  0  0  0  0  0  0  0  0  0  0
   36.9740   32.9740   40.0220 F   0  0  0  0  0  0  0  0  0  0  0  0
   39.0190   32.5800   39.1260 F   0  0  0  0  0  0  0  0  0  0  0  0
   38.8160   32.7290   41.3870 F   0  0  0  0  0  0  0  0  0  0  0  0
  1  6  1  0  0  0  0
  1  7  1  0  0  0  0
  2  1  2  0  0  0  0
  3  4  2  0  0  0  0
  3  2  1  0  0  0  0
  4  5  1  0  0  0  0
  5  9  1  0  0  0  0
  5  6  2  0  0  0  0
  8  3  1  0  0  0  0
  9 10  2  0  0  0  0
 10 12  1  0  0  0  0
 10 11  1  0  0  0  0
 13 12  2  0  0  0  0
 14  9  1  0  0  0  0
 14 13  1  0  0  0  0
 15  2  1  0  0  0  0
 15 18  1  0  0  0  0
 16 15  1  0  0  0  0
 17 15  1  0  0  0  0
M  END
>  <minimizedAffinity>
-3.94104171

$$$$
