
 OpenBabel03242523533D

 42 45  0  0  1  0  0  0  0  0999 V2000
   42.8000   34.4690   38.7970 C   0  0  1  0  0  0  0  0  0  0  0  0
   42.9570   35.1850   40.1290 C   0  0  1  0  0  0  0  0  0  0  0  0
   41.6760   35.4630   40.6380 O   0  0  0  0  0  0  0  0  0  0  0  0
   40.7570   35.7820   39.6350 C   0  0  0  0  0  0  0  0  0  0  0  0
   40.4200   34.5780   38.7750 C   0  0  2  0  0  0  0  0  0  0  0  0
   41.6140   33.5740   38.9440 C   0  0  1  0  0  0  0  0  0  0  0  0
   43.7330   33.9070   38.5410 H   0  0  0  0  0  0  0  0  0  0  0  0
   43.5730   36.0940   40.0630 H   0  0  0  0  0  0  0  0  0  0  0  0
   39.8380   36.0860   40.1480 H   0  0  0  0  0  0  0  0  0  0  0  0
   41.0880   36.6470   39.0280 H   0  0  0  0  0  0  0  0  0  0  0  0
   39.4800   34.0970   39.0830 H   0  0  0  0  0  0  0  0  0  0  0  0
   41.3960   33.3420   40.0400 H   0  0  0  0  0  0  0  0  0  0  0  0
   42.6030   35.3860   37.7540 O   0  0  0  0  0  0  0  0  0  0  0  0
   43.4250   35.8460   37.5220 H   0  0  0  0  0  0  0  0  0  0  0  0
   40.4420   34.9420   37.4360 O   0  0  0  0  0  0  0  0  0  0  0  0
   39.5260   35.1600   37.0980 H   0  0  0  0  0  0  0  0  0  0  0  0
   43.4720   34.2210   41.0100 O   0  0  0  0  0  0  0  0  0  0  0  0
   44.5900   34.3600   41.7340 C   0  0  0  0  0  0  0  0  0  0  0  0
   45.8440   34.4530   41.1130 C   0  0  0  0  0  0  0  0  0  0  0  0
   46.9680   34.5970   41.9100 C   0  0  0  0  0  0  0  0  0  0  0  0
   46.8210   34.6440   43.2850 N   0  0  0  0  0  0  0  0  0  0  0  0
   45.5940   34.5510   43.8470 C   0  0  0  0  0  0  0  0  0  0  0  0
   44.4850   34.4090   43.0750 N   0  0  0  0  0  0  0  0  0  0  0  0
   45.9670   34.4180   40.0440 H   0  0  0  0  0  0  0  0  0  0  0  0
   45.5550   34.5950   44.9280 H   0  0  0  0  0  0  0  0  0  0  0  0
   48.3400   34.6880   41.3240 C   0  0  0  0  0  0  0  0  0  0  0  0
   49.0740   36.0170   41.5030 C   0  0  0  0  0  0  0  0  0  0  0  0
   49.5020   34.6890   42.1560 C   0  0  0  0  0  0  0  0  0  0  0  0
   48.3890   34.3030   40.2670 H   0  0  0  0  0  0  0  0  0  0  0  0
   48.6410   36.7480   42.1850 H   0  0  0  0  0  0  0  0  0  0  0  0
   49.7510   36.3410   40.6900 H   0  0  0  0  0  0  0  0  0  0  0  0
   50.4500   34.2230   41.8180 H   0  0  0  0  0  0  0  0  0  0  0  0
   49.3670   34.6210   43.2630 H   0  0  0  0  0  0  0  0  0  0  0  0
   41.4540   32.5980   38.0290 O   0  0  0  0  0  0  0  0  0  0  0  0
   40.7320   31.4810   38.0690 C   0  0  0  0  0  0  0  0  0  0  0  0
   39.5730   31.3470   37.4470 O   0  0  0  0  0  0  0  0  0  0  0  0
   40.9460   30.0720   38.7670 C   0  0  0  0  0  0  0  0  0  0  0  0
   41.0640   28.8770   38.3090 C   0  0  0  0  0  0  0  0  0  0  0  0
   41.0160   28.7990   37.2300 H   0  0  0  0  0  0  0  0  0  0  0  0
   41.2340   27.8340   39.1640 C   0  0  0  0  0  3  0  0  0  0  0  0
   41.2690   28.1520   40.5260 C   0  0  0  0  0  3  0  0  0  0  0  0
   41.0390   30.0610   40.4750 S   0  0  0  0  0  0  0  0  0  0  0  0
  1  7  1  6  0  0  0
  1  6  1  0  0  0  0
  1  2  1  0  0  0  0
  2  8  1  6  0  0  0
  2  3  1  0  0  0  0
  2 17  1  0  0  0  0
  4  9  1  0  0  0  0
  4  3  1  0  0  0  0
  5  6  1  0  0  0  0
  5 11  1  1  0  0  0
  5  4  1  0  0  0  0
  6 12  1  1  0  0  0
 10  4  1  0  0  0  0
 13  1  1  0  0  0  0
 14 13  1  0  0  0  0
 15  5  1  0  0  0  0
 16 15  1  0  0  0  0
 17 18  1  0  0  0  0
 18 23  1  0  0  0  0
 19 18  2  0  0  0  0
 19 20  1  0  0  0  0
 20 21  2  0  0  0  0
 21 22  1  0  0  0  0
 22 25  1  0  0  0  0
 23 22  2  0  0  0  0
 24 19  1  0  0  0  0
 26 27  1  0  0  0  0
 26 20  1  0  0  0  0
 26 28  1  0  0  0  0
 27 28  1  0  0  0  0
 27 30  1  0  0  0  0
 28 33  1  0  0  0  0
 29 26  1  0  0  0  0
 31 27  1  0  0  0  0
 32 28  1  0  0  0  0
 34 35  1  0  0  0  0
 34  6  1  0  0  0  0
 35 37  1  0  0  0  0
 36 35  2  0  0  0  0
 37 42  1  0  0  0  0
 38 37  2  0  0  0  0
 38 40  1  0  0  0  0
 39 38  1  0  0  0  0
 40 41  2  0  0  0  0
 42 41  1  0  0  0  0
M  END
>  <minimizedAffinity>
-5.65313196

>  <minimizedRMSD>
0.414700001

$$$$
