
 OpenBabel03252508173D

 44 48  0  0  1  0  0  0  0  0999 V2000
   46.6630   31.1000   46.9710 C   0  0  0  0  0  0  0  0  0  0  0  0
   47.5880   30.6190   46.6960 H   0  0  0  0  0  0  0  0  0  0  0  0
   45.7850   30.4020   46.8870 H   0  0  0  0  0  0  0  0  0  0  0  0
   46.5860   31.7570   48.3070 C   0  0  1  0  0  0  0  0  0  0  0  0
   45.9140   30.9480   49.3640 C   0  0  0  0  0  0  0  0  0  0  0  0
   47.3500   31.2130   49.4480 C   0  0  1  0  0  0  0  0  0  0  0  0
   46.1300   32.7920   48.3090 H   0  0  0  0  0  0  0  0  0  0  0  0
   45.2630   31.3700   50.1280 H   0  0  0  0  0  0  0  0  0  0  0  0
   45.6560   29.8810   49.1360 H   0  0  0  0  0  0  0  0  0  0  0  0
   47.6790   31.9790   50.1820 H   0  0  0  0  0  0  0  0  0  0  0  0
   48.3580   30.1440   49.1700 C   0  0  2  0  0  0  0  0  0  0  0  0
   49.5240   30.0930   50.1840 C   0  0  0  0  0  0  0  0  0  0  0  0
   49.7770   30.5810   48.8160 C   0  0  1  0  0  0  0  0  0  0  0  0
   48.0350   29.1240   48.9370 H   0  0  0  0  0  0  0  0  0  0  0  0
   49.4940   30.7980   51.0160 H   0  0  0  0  0  0  0  0  0  0  0  0
   49.9960   29.1400   50.4370 H   0  0  0  0  0  0  0  0  0  0  0  0
   49.9620   31.6740   48.7540 H   0  0  0  0  0  0  0  0  0  0  0  0
   50.3330   29.8040   47.7530 C   0  0  0  0  0  0  0  0  0  0  0  0
   49.8060   29.1490   46.7350 C   0  0  0  0  0  0  0  0  0  0  0  0
   48.7520   29.1090   46.4950 H   0  0  0  0  0  0  0  0  0  0  0  0
   50.5310   28.4360   45.8230 C   0  0  0  0  0  3  0  0  0  0  0  0
   51.9310   28.4310   46.0280 C   0  0  0  0  0  3  0  0  0  0  0  0
   52.1870   29.5020   47.6000 S   0  0  0  0  0  0  0  0  0  0  0  0
   45.8870   33.1970   46.2200 C   0  0  0  0  0  3  0  0  0  0  0  0
   46.4290   32.1090   45.8680 C   0  0  0  0  0  3  0  0  0  0  0  0
   44.4960   36.0810   44.3920 C   0  0  0  0  0  0  0  0  0  0  0  0
   45.1470   36.0180   43.1660 C   0  0  0  0  0  0  0  0  0  0  0  0
   46.0300   34.9970   43.0050 C   0  0  0  0  0  0  0  0  0  0  0  0
   46.2410   34.1040   44.0130 N   0  0  0  0  0  0  0  0  0  0  0  0
   45.5920   34.1960   45.1900 C   0  0  0  0  0  0  0  0  0  0  0  0
   44.7310   35.1880   45.3500 N   0  0  0  0  0  0  0  0  0  0  0  0
   43.7790   36.8560   44.6110 H   0  0  0  0  0  0  0  0  0  0  0  0
   44.9610   36.7370   42.3870 H   0  0  0  0  0  0  0  0  0  0  0  0
   46.7860   34.8030   41.7710 C   0  0  0  0  0  0  0  0  0  0  0  0
   48.0200   35.3630   41.5230 C   0  0  0  0  0  0  0  0  0  0  0  0
   48.7180   35.1640   40.3480 C   0  0  0  0  0  0  0  0  0  0  0  0
   48.1910   34.3780   39.3560 C   0  0  0  0  0  0  0  0  0  0  0  0
   46.9650   33.7990   39.5570 C   0  0  0  0  0  0  0  0  0  0  0  0
   46.2940   34.0210   40.7480 C   0  0  0  0  0  0  0  0  0  0  0  0
   48.4500   35.9900   42.3030 H   0  0  0  0  0  0  0  0  0  0  0  0
   49.6690   35.6430   40.2550 H   0  0  0  0  0  0  0  0  0  0  0  0
   48.7080   34.2010   38.4270 H   0  0  0  0  0  0  0  0  0  0  0  0
   46.5030   33.1710   38.8080 H   0  0  0  0  0  0  0  0  0  0  0  0
   45.3240   33.5470   40.8720 H   0  0  0  0  0  0  0  0  0  0  0  0
  1  4  1  0  0  0  0
  2  1  1  0  0  0  0
  3  1  1  0  0  0  0
  4  7  1  1  0  0  0
  4  5  1  0  0  0  0
  4  6  1  0  0  0  0
  5  6  1  0  0  0  0
  5  8  1  0  0  0  0
  6 10  1  1  0  0  0
  9  5  1  0  0  0  0
 11 14  1  6  0  0  0
 11  6  1  0  0  0  0
 11 12  1  0  0  0  0
 12 16  1  0  0  0  0
 12 15  1  0  0  0  0
 13 17  1  6  0  0  0
 13 11  1  0  0  0  0
 13 12  1  0  0  0  0
 18 13  1  0  0  0  0
 19 18  2  0  0  0  0
 20 19  1  0  0  0  0
 21 22  2  0  0  0  0
 21 19  1  0  0  0  0
 22 23  1  0  0  0  0
 23 18  1  0  0  0  0
 25 24  2  0  0  0  0
 25  1  1  0  0  0  0
 26 32  1  0  0  0  0
 26 31  1  0  0  0  0
 27 26  2  0  0  0  0
 28 27  1  0  0  0  0
 28 29  2  0  0  0  0
 29 30  1  0  0  0  0
 30 31  2  0  0  0  0
 30 24  1  0  0  0  0
 33 27  1  0  0  0  0
 34 28  1  0  0  0  0
 35 34  1  0  0  0  0
 35 40  1  0  0  0  0
 36 35  2  0  0  0  0
 37 38  2  0  0  0  0
 37 36  1  0  0  0  0
 38 39  1  0  0  0  0
 39 44  1  0  0  0  0
 39 34  2  0  0  0  0
 41 36  1  0  0  0  0
 42 37  1  0  0  0  0
 43 38  1  0  0  0  0
M  END
>  <minimizedAffinity>
-6.07109118

>  <minimizedRMSD>
1.21600747

$$$$
