
 OpenBabel03242512193D

 30 32  0  0  0  0  0  0  0  0999 V2000
   36.7570   28.8980   41.7250 C   0  0  0  0  0  0  0  0  0  0  0  0
   36.8140   27.5220   41.5400 C   0  0  0  0  0  0  0  0  0  0  0  0
   36.7050   27.0290   40.2630 C   0  0  0  0  0  0  0  0  0  0  0  0
   36.5460   27.9040   39.2010 C   0  0  0  0  0  0  0  0  0  0  0  0
   36.4950   29.2640   39.4310 C   0  0  0  0  0  0  0  0  0  0  0  0
   36.6010   29.8090   40.7180 C   0  0  0  0  0  0  0  0  0  0  0  0
   36.7520   25.9490   40.1400 H   0  0  0  0  0  0  0  0  0  0  0  0
   36.4610   27.5030   38.1950 H   0  0  0  0  0  0  0  0  0  0  0  0
   36.3690   29.8960   38.5650 H   0  0  0  0  0  0  0  0  0  0  0  0
   36.9860   26.7150   42.7660 C   0  0  0  0  0  0  0  0  0  0  0  0
   36.6690   27.3960   43.6060 H   0  0  0  0  0  0  0  0  0  0  0  0
   36.3660   25.8370   42.7890 H   0  0  0  0  0  0  0  0  0  0  0  0
   38.4630   26.4280   42.9720 C   0  0  0  0  0  0  0  0  0  0  0  0
   38.9360   25.1920   42.5790 C   0  0  0  0  0  0  0  0  0  0  0  0
   40.2910   24.9330   42.7590 C   0  0  0  0  0  0  0  0  0  0  0  0
   41.0570   25.9020   43.3040 N   0  0  0  0  0  0  0  0  0  0  0  0
   40.5620   27.1050   43.6800 C   0  0  0  0  0  0  0  0  0  0  0  0
   39.2610   27.3680   43.5120 N   0  0  0  0  0  0  0  0  0  0  0  0
   38.2980   24.4300   42.1430 H   0  0  0  0  0  0  0  0  0  0  0  0
   40.6830   23.9650   42.4570 H   0  0  0  0  0  0  0  0  0  0  0  0
   41.2820   27.7960   44.1040 H   0  0  0  0  0  0  0  0  0  0  0  0
   36.8590   29.5050   42.9990 O   0  0  0  0  0  0  0  0  0  0  0  0
   36.1760   30.1290   43.3740 H   0  0  0  0  0  0  0  0  0  0  0  0
   36.5400   31.1750   40.8520 O   0  0  0  0  0  0  0  0  0  0  0  0
   37.5800   32.0240   40.6470 C   0  0  0  0  0  0  0  0  0  0  0  0
   37.5570   33.2680   39.9540 C   0  0  0  0  0  0  0  0  0  0  0  0
   36.6250   33.6010   39.5320 H   0  0  0  0  0  0  0  0  0  0  0  0
   38.7200   33.9340   39.8810 C   0  0  0  0  0  3  0  0  0  0  0  0
   39.8820   33.3640   40.4910 C   0  0  0  0  0  3  0  0  0  0  0  0
   39.2560   31.7320   41.2350 S   0  0  0  0  0  0  0  0  0  0  0  0
  1 22  1  0  0  0  0
  2  1  1  0  0  0  0
  2 10  1  0  0  0  0
  3  2  2  0  0  0  0
  4  5  2  0  0  0  0
  4  3  1  0  0  0  0
  5  6  1  0  0  0  0
  6 24  1  0  0  0  0
  6  1  2  0  0  0  0
  7  3  1  0  0  0  0
  8  4  1  0  0  0  0
  9  5  1  0  0  0  0
 10 12  1  0  0  0  0
 10 13  1  0  0  0  0
 10 11  1  0  0  0  0
 13 18  1  0  0  0  0
 14 15  1  0  0  0  0
 14 13  2  0  0  0  0
 15 16  2  0  0  0  0
 16 17  1  0  0  0  0
 17 21  1  0  0  0  0
 18 17  2  0  0  0  0
 19 14  1  0  0  0  0
 20 15  1  0  0  0  0
 22 23  1  0  0  0  0
 25 24  1  0  0  0  0
 25 30  1  0  0  0  0
 26 25  2  0  0  0  0
 27 26  1  0  0  0  0
 28 26  1  0  0  0  0
 28 29  2  0  0  0  0
 29 30  1  0  0  0  0
M  END
>  <minimizedAffinity>
-5.54928875

$$$$

 OpenBabel03242512193D

 30 32  0  0  0  0  0  0  0  0999 V2000
   36.6690   29.2840   41.2540 C   0  0  0  0  0  0  0  0  0  0  0  0
   36.6290   30.2120   40.2200 C   0  0  0  0  0  0  0  0  0  0  0  0
   36.6290   29.7520   38.9270 C   0  0  0  0  0  0  0  0  0  0  0  0
   36.6670   28.3880   38.6840 C   0  0  0  0  0  0  0  0  0  0  0  0
   36.7060   27.5030   39.7410 C   0  0  0  0  0  0  0  0  0  0  0  0
   36.7080   27.9300   41.0750 C   0  0  0  0  0  0  0  0  0  0  0  0
   36.5970   30.4960   38.1330 H   0  0  0  0  0  0  0  0  0  0  0  0
   36.6660   28.0360   37.6570 H   0  0  0  0  0  0  0  0  0  0  0  0
   36.7350   26.4530   39.4900 H   0  0  0  0  0  0  0  0  0  0  0  0
   36.5920   31.6320   40.6320 C   0  0  0  0  0  0  0  0  0  0  0  0
   35.9970   32.1500   39.8250 H   0  0  0  0  0  0  0  0  0  0  0  0
   36.0960   31.7910   41.5720 H   0  0  0  0  0  0  0  0  0  0  0  0
   37.9960   32.2050   40.5740 C   0  0  0  0  0  0  0  0  0  0  0  0
   38.1630   33.4290   39.9570 C   0  0  0  0  0  0  0  0  0  0  0  0
   39.4470   33.9600   39.9120 C   0  0  0  0  0  0  0  0  0  0  0  0
   40.4490   33.2480   40.4730 N   0  0  0  0  0  0  0  0  0  0  0  0
   40.2530   32.0500   41.0710 C   0  0  0  0  0  0  0  0  0  0  0  0
   39.0220   31.5280   41.1210 N   0  0  0  0  0  0  0  0  0  0  0  0
   37.3390   33.9810   39.5140 H   0  0  0  0  0  0  0  0  0  0  0  0
   39.6000   34.9220   39.4310 H   0  0  0  0  0  0  0  0  0  0  0  0
   41.1400   31.5800   41.4830 H   0  0  0  0  0  0  0  0  0  0  0  0
   36.6730   29.6560   42.6180 O   0  0  0  0  0  0  0  0  0  0  0  0
   37.3720   29.3710   43.2710 H   0  0  0  0  0  0  0  0  0  0  0  0
   36.7480   26.9750   42.0640 O   0  0  0  0  0  0  0  0  0  0  0  0
   37.8770   26.3740   42.5200 C   0  0  0  0  0  0  0  0  0  0  0  0
   38.8780   26.9390   43.3600 C   0  0  0  0  0  0  0  0  0  0  0  0
   38.7560   27.9570   43.6890 H   0  0  0  0  0  0  0  0  0  0  0  0
   39.9110   26.1440   43.6800 C   0  0  0  0  0  3  0  0  0  0  0  0
   39.9390   24.8090   43.1660 C   0  0  0  0  0  3  0  0  0  0  0  0
   38.3480   24.6800   42.1360 S   0  0  0  0  0  0  0  0  0  0  0  0
  1 22  1  0  0  0  0
  2 10  1  0  0  0  0
  2  1  2  0  0  0  0
  3  2  1  0  0  0  0
  4  3  2  0  0  0  0
  4  5  1  0  0  0  0
  5  6  2  0  0  0  0
  6  1  1  0  0  0  0
  6 24  1  0  0  0  0
  7  3  1  0  0  0  0
  8  4  1  0  0  0  0
  9  5  1  0  0  0  0
 10 12  1  0  0  0  0
 11 10  1  0  0  0  0
 13 10  1  0  0  0  0
 13 18  1  0  0  0  0
 14 13  2  0  0  0  0
 15 14  1  0  0  0  0
 15 16  2  0  0  0  0
 16 17  1  0  0  0  0
 17 18  2  0  0  0  0
 17 21  1  0  0  0  0
 19 14  1  0  0  0  0
 20 15  1  0  0  0  0
 22 23  1  0  0  0  0
 24 25  1  0  0  0  0
 25 26  2  0  0  0  0
 26 28  1  0  0  0  0
 26 27  1  0  0  0  0
 29 28  2  0  0  0  0
 30 25  1  0  0  0  0
 30 29  1  0  0  0  0
M  END
>  <minimizedAffinity>
-5.40177488

$$$$

 OpenBabel03242512193D

 30 32  0  0  0  0  0  0  0  0999 V2000
   38.2200   29.1870   42.5570 C   0  0  0  0  0  0  0  0  0  0  0  0
   38.4770   27.9050   43.0280 C   0  0  0  0  0  0  0  0  0  0  0  0
   39.7820   27.5300   43.2250 C   0  0  0  0  0  0  0  0  0  0  0  0
   40.8030   28.4290   42.9570 C   0  0  0  0  0  0  0  0  0  0  0  0
   40.5010   29.6920   42.4910 C   0  0  0  0  0  0  0  0  0  0  0  0
   39.1830   30.1150   42.2750 C   0  0  0  0  0  0  0  0  0  0  0  0
   39.9620   26.5220   43.5940 H   0  0  0  0  0  0  0  0  0  0  0  0
   41.8320   28.1210   43.1170 H   0  0  0  0  0  0  0  0  0  0  0  0
   41.3380   30.3480   42.2990 H   0  0  0  0  0  0  0  0  0  0  0  0
   37.2890   27.0590   43.2690 C   0  0  0  0  0  0  0  0  0  0  0  0
   37.5980   26.3590   44.0980 H   0  0  0  0  0  0  0  0  0  0  0  0
   36.4290   27.6130   43.5970 H   0  0  0  0  0  0  0  0  0  0  0  0
   37.0330   26.1970   42.0450 C   0  0  0  0  0  0  0  0  0  0  0  0
   37.0010   24.8280   42.2220 C   0  0  0  0  0  0  0  0  0  0  0  0
   36.7570   24.0380   41.1030 C   0  0  0  0  0  0  0  0  0  0  0  0
   36.5670   24.6570   39.9180 N   0  0  0  0  0  0  0  0  0  0  0  0
   36.6060   26.0020   39.7770 C   0  0  0  0  0  0  0  0  0  0  0  0
   36.8390   26.7740   40.8450 N   0  0  0  0  0  0  0  0  0  0  0  0
   37.1570   24.3560   43.1870 H   0  0  0  0  0  0  0  0  0  0  0  0
   36.7280   22.9580   41.2210 H   0  0  0  0  0  0  0  0  0  0  0  0
   36.4370   26.3740   38.7720 H   0  0  0  0  0  0  0  0  0  0  0  0
   36.9110   29.6690   42.3210 O   0  0  0  0  0  0  0  0  0  0  0  0
   36.6050   30.0410   41.4460 H   0  0  0  0  0  0  0  0  0  0  0  0
   38.9780   31.3920   41.8090 O   0  0  0  0  0  0  0  0  0  0  0  0
   38.4710   31.7030   40.5880 C   0  0  0  0  0  0  0  0  0  0  0  0
   37.5810   32.7670   40.2670 C   0  0  0  0  0  0  0  0  0  0  0  0
   37.2540   33.4170   41.0590 H   0  0  0  0  0  0  0  0  0  0  0  0
   37.2170   32.8750   38.9800 C   0  0  0  0  0  3  0  0  0  0  0  0
   37.7340   31.9330   38.0340 C   0  0  0  0  0  3  0  0  0  0  0  0
   38.8390   30.7950   39.0780 S   0  0  0  0  0  0  0  0  0  0  0  0
  1  2  1  0  0  0  0
  2  3  2  0  0  0  0
  2 10  1  0  0  0  0
  3  7  1  0  0  0  0
  4  8  1  0  0  0  0
  4  3  1  0  0  0  0
  5  4  2  0  0  0  0
  6  5  1  0  0  0  0
  6  1  2  0  0  0  0
  9  5  1  0  0  0  0
 10 12  1  0  0  0  0
 10 11  1  0  0  0  0
 13 14  1  0  0  0  0
 13 10  1  0  0  0  0
 14 19  1  0  0  0  0
 15 20  1  0  0  0  0
 15 14  2  0  0  0  0
 16 15  1  0  0  0  0
 17 16  2  0  0  0  0
 17 18  1  0  0  0  0
 18 13  2  0  0  0  0
 21 17  1  0  0  0  0
 22  1  1  0  0  0  0
 23 22  1  0  0  0  0
 24  6  1  0  0  0  0
 25 24  1  0  0  0  0
 26 25  2  0  0  0  0
 26 27  1  0  0  0  0
 28 26  1  0  0  0  0
 29 28  2  0  0  0  0
 29 30  1  0  0  0  0
 30 25  1  0  0  0  0
M  END
>  <minimizedAffinity>
-5.39517784

$$$$

 OpenBabel03242512193D

 30 32  0  0  0  0  0  0  0  0999 V2000
   37.1400   29.6320   41.8070 C   0  0  0  0  0  0  0  0  0  0  0  0
   38.0390   29.2470   42.7940 C   0  0  0  0  0  0  0  0  0  0  0  0
   39.2460   29.8970   42.8690 C   0  0  0  0  0  0  0  0  0  0  0  0
   39.5360   30.9120   41.9700 C   0  0  0  0  0  0  0  0  0  0  0  0
   38.6130   31.2600   41.0060 C   0  0  0  0  0  0  0  0  0  0  0  0
   37.3700   30.6230   40.8950 C   0  0  0  0  0  0  0  0  0  0  0  0
   39.9360   29.5810   43.6490 H   0  0  0  0  0  0  0  0  0  0  0  0
   40.4940   31.4190   42.0390 H   0  0  0  0  0  0  0  0  0  0  0  0
   38.8950   32.0570   40.3340 H   0  0  0  0  0  0  0  0  0  0  0  0
   37.5930   28.1510   43.6800 C   0  0  0  0  0  0  0  0  0  0  0  0
   38.1900   28.2850   44.6270 H   0  0  0  0  0  0  0  0  0  0  0  0
   36.5480   28.2020   43.9280 H   0  0  0  0  0  0  0  0  0  0  0  0
   38.0180   26.8220   43.0820 C   0  0  0  0  0  0  0  0  0  0  0  0
   39.2870   26.3650   43.3750 C   0  0  0  0  0  0  0  0  0  0  0  0
   39.6740   25.1420   42.8360 C   0  0  0  0  0  0  0  0  0  0  0  0
   38.7870   24.4800   42.0620 N   0  0  0  0  0  0  0  0  0  0  0  0
   37.5490   24.9560   41.7920 C   0  0  0  0  0  0  0  0  0  0  0  0
   37.1640   26.1300   42.3050 N   0  0  0  0  0  0  0  0  0  0  0  0
   39.9810   26.9180   44.0020 H   0  0  0  0  0  0  0  0  0  0  0  0
   40.6690   24.7650   43.0550 H   0  0  0  0  0  0  0  0  0  0  0  0
   36.9330   24.3280   41.1570 H   0  0  0  0  0  0  0  0  0  0  0  0
   35.8720   29.0250   41.6470 O   0  0  0  0  0  0  0  0  0  0  0  0
   35.5570   28.6130   40.7940 H   0  0  0  0  0  0  0  0  0  0  0  0
   36.5130   31.0370   39.9030 O   0  0  0  0  0  0  0  0  0  0  0  0
   36.4890   30.5430   38.6390 C   0  0  0  0  0  0  0  0  0  0  0  0
   35.6360   29.5260   38.1230 C   0  0  0  0  0  0  0  0  0  0  0  0
   34.9180   29.0770   38.7870 H   0  0  0  0  0  0  0  0  0  0  0  0
   35.8010   29.2040   36.8310 C   0  0  0  0  0  3  0  0  0  0  0  0
   36.8010   29.8890   36.0710 C   0  0  0  0  0  3  0  0  0  0  0  0
   37.5730   31.0990   37.3140 S   0  0  0  0  0  0  0  0  0  0  0  0
  1  2  1  0  0  0  0
  2  3  2  0  0  0  0
  2 10  1  0  0  0  0
  3  7  1  0  0  0  0
  4  8  1  0  0  0  0
  4  3  1  0  0  0  0
  5  4  2  0  0  0  0
  6  5  1  0  0  0  0
  6  1  2  0  0  0  0
  9  5  1  0  0  0  0
 10 12  1  0  0  0  0
 10 11  1  0  0  0  0
 13 14  1  0  0  0  0
 13 10  1  0  0  0  0
 14 19  1  0  0  0  0
 15 20  1  0  0  0  0
 15 14  2  0  0  0  0
 16 15  1  0  0  0  0
 17 16  2  0  0  0  0
 17 18  1  0  0  0  0
 18 13  2  0  0  0  0
 21 17  1  0  0  0  0
 22  1  1  0  0  0  0
 23 22  1  0  0  0  0
 24  6  1  0  0  0  0
 25 24  1  0  0  0  0
 26 25  2  0  0  0  0
 26 27  1  0  0  0  0
 28 26  1  0  0  0  0
 29 28  2  0  0  0  0
 29 30  1  0  0  0  0
 30 25  1  0  0  0  0
M  END
>  <minimizedAffinity>
-5.35131979

$$$$

 OpenBabel03242512193D

 30 32  0  0  0  0  0  0  0  0999 V2000
   37.4610   29.9320   41.8640 C   0  0  0  0  0  0  0  0  0  0  0  0
   37.7450   31.0350   41.0670 C   0  0  0  0  0  0  0  0  0  0  0  0
   39.0080   31.5690   41.1150 C   0  0  0  0  0  0  0  0  0  0  0  0
   39.9620   31.0030   41.9460 C   0  0  0  0  0  0  0  0  0  0  0  0
   39.6350   29.9080   42.7200 C   0  0  0  0  0  0  0  0  0  0  0  0
   38.3580   29.3320   42.7010 C   0  0  0  0  0  0  0  0  0  0  0  0
   39.2100   32.4320   40.4840 H   0  0  0  0  0  0  0  0  0  0  0  0
   40.9580   31.4330   41.9760 H   0  0  0  0  0  0  0  0  0  0  0  0
   40.4190   29.5100   43.3480 H   0  0  0  0  0  0  0  0  0  0  0  0
   36.6290   31.5300   40.2330 C   0  0  0  0  0  0  0  0  0  0  0  0
   35.6970   31.2320   40.7940 H   0  0  0  0  0  0  0  0  0  0  0  0
   36.6260   32.5980   40.1150 H   0  0  0  0  0  0  0  0  0  0  0  0
   36.6100   30.7680   38.9200 C   0  0  0  0  0  0  0  0  0  0  0  0
   37.3950   31.2460   37.8900 C   0  0  0  0  0  0  0  0  0  0  0  0
   37.3850   30.5430   36.6910 C   0  0  0  0  0  0  0  0  0  0  0  0
   36.6110   29.4390   36.6070 N   0  0  0  0  0  0  0  0  0  0  0  0
   35.8520   28.9960   37.6360 C   0  0  0  0  0  0  0  0  0  0  0  0
   35.8520   29.6630   38.7960 N   0  0  0  0  0  0  0  0  0  0  0  0
   38.0090   32.1370   37.9840 H   0  0  0  0  0  0  0  0  0  0  0  0
   37.9960   30.9030   35.8670 H   0  0  0  0  0  0  0  0  0  0  0  0
   35.2760   28.0970   37.4410 H   0  0  0  0  0  0  0  0  0  0  0  0
   36.1910   29.3100   41.8860 O   0  0  0  0  0  0  0  0  0  0  0  0
   35.6550   29.1710   42.7160 H   0  0  0  0  0  0  0  0  0  0  0  0
   38.1240   28.2420   43.5060 O   0  0  0  0  0  0  0  0  0  0  0  0
   38.5010   26.9700   43.2210 C   0  0  0  0  0  0  0  0  0  0  0  0
   39.6660   26.2900   43.6780 C   0  0  0  0  0  0  0  0  0  0  0  0
   40.3460   26.8170   44.3240 H   0  0  0  0  0  0  0  0  0  0  0  0
   39.8250   25.0250   43.2590 C   0  0  0  0  0  3  0  0  0  0  0  0
   38.8350   24.4540   42.3970 C   0  0  0  0  0  3  0  0  0  0  0  0
   37.5660   25.8480   42.1680 S   0  0  0  0  0  0  0  0  0  0  0  0
  1 22  1  0  0  0  0
  1  6  1  0  0  0  0
  2  3  1  0  0  0  0
  2  1  2  0  0  0  0
  3  4  2  0  0  0  0
  4  8  1  0  0  0  0
  4  5  1  0  0  0  0
  5  9  1  0  0  0  0
  6  5  2  0  0  0  0
  6 24  1  0  0  0  0
  7  3  1  0  0  0  0
 10 11  1  0  0  0  0
 10  2  1  0  0  0  0
 12 10  1  0  0  0  0
 13 10  1  0  0  0  0
 14 19  1  0  0  0  0
 14 13  2  0  0  0  0
 15 14  1  0  0  0  0
 16 15  2  0  0  0  0
 16 17  1  0  0  0  0
 17 18  2  0  0  0  0
 18 13  1  0  0  0  0
 20 15  1  0  0  0  0
 21 17  1  0  0  0  0
 22 23  1  0  0  0  0
 25 24  1  0  0  0  0
 25 26  2  0  0  0  0
 26 27  1  0  0  0  0
 28 26  1  0  0  0  0
 29 28  2  0  0  0  0
 30 29  1  0  0  0  0
 30 25  1  0  0  0  0
M  END
>  <minimizedAffinity>
-5.23216867

$$$$

 OpenBabel03242512193D

 30 32  0  0  0  0  0  0  0  0999 V2000
   36.6950   28.1160   41.5870 C   0  0  0  0  0  0  0  0  0  0  0  0
   36.0300   28.3000   40.3810 C   0  0  0  0  0  0  0  0  0  0  0  0
   36.0820   27.2970   39.4450 C   0  0  0  0  0  0  0  0  0  0  0  0
   36.7860   26.1360   39.7220 C   0  0  0  0  0  0  0  0  0  0  0  0
   37.4310   25.9960   40.9330 C   0  0  0  0  0  0  0  0  0  0  0  0
   37.4040   26.9940   41.9150 C   0  0  0  0  0  0  0  0  0  0  0  0
   35.5550   27.4620   38.5070 H   0  0  0  0  0  0  0  0  0  0  0  0
   36.8200   25.3490   38.9740 H   0  0  0  0  0  0  0  0  0  0  0  0
   37.9640   25.0700   41.0910 H   0  0  0  0  0  0  0  0  0  0  0  0
   35.3220   29.5890   40.2270 C   0  0  0  0  0  0  0  0  0  0  0  0
   34.6190   29.4290   39.3600 H   0  0  0  0  0  0  0  0  0  0  0  0
   34.7400   29.8610   41.0890 H   0  0  0  0  0  0  0  0  0  0  0  0
   36.3130   30.6540   39.7940 C   0  0  0  0  0  0  0  0  0  0  0  0
   36.6860   30.6790   38.4650 C   0  0  0  0  0  0  0  0  0  0  0  0
   37.5860   31.6610   38.0650 C   0  0  0  0  0  0  0  0  0  0  0  0
   38.0380   32.5270   38.9980 N   0  0  0  0  0  0  0  0  0  0  0  0
   37.6530   32.4760   40.2950 C   0  0  0  0  0  0  0  0  0  0  0  0
   36.7880   31.5360   40.6930 N   0  0  0  0  0  0  0  0  0  0  0  0
   36.3060   29.9700   37.7350 H   0  0  0  0  0  0  0  0  0  0  0  0
   37.8920   31.6980   37.0230 H   0  0  0  0  0  0  0  0  0  0  0  0
   38.0890   33.2280   40.9430 H   0  0  0  0  0  0  0  0  0  0  0  0
   36.7020   29.0870   42.6150 O   0  0  0  0  0  0  0  0  0  0  0  0
   37.5340   29.4660   43.0160 H   0  0  0  0  0  0  0  0  0  0  0  0
   38.0760   26.7670   43.0930 O   0  0  0  0  0  0  0  0  0  0  0  0
   39.4270   26.7450   43.2260 C   0  0  0  0  0  0  0  0  0  0  0  0
   40.2390   25.6430   43.6190 C   0  0  0  0  0  0  0  0  0  0  0  0
   39.7580   24.7070   43.8440 H   0  0  0  0  0  0  0  0  0  0  0  0
   41.5610   25.8650   43.6780 C   0  0  0  0  0  3  0  0  0  0  0  0
   42.0590   27.1660   43.3500 C   0  0  0  0  0  3  0  0  0  0  0  0
   40.4980   28.1580   42.9180 S   0  0  0  0  0  0  0  0  0  0  0  0
  1  6  1  0  0  0  0
  1 22  1  0  0  0  0
  2  1  2  0  0  0  0
  3  4  2  0  0  0  0
  3  2  1  0  0  0  0
  4  5  1  0  0  0  0
  5  9  1  0  0  0  0
  5  6  2  0  0  0  0
  6 24  1  0  0  0  0
  7  3  1  0  0  0  0
  8  4  1  0  0  0  0
 10  2  1  0  0  0  0
 10 12  1  0  0  0  0
 11 10  1  0  0  0  0
 13 10  1  0  0  0  0
 13 18  1  0  0  0  0
 14 13  2  0  0  0  0
 15 14  1  0  0  0  0
 15 16  2  0  0  0  0
 16 17  1  0  0  0  0
 17 18  2  0  0  0  0
 17 21  1  0  0  0  0
 19 14  1  0  0  0  0
 20 15  1  0  0  0  0
 22 23  1  0  0  0  0
 24 25  1  0  0  0  0
 25 26  2  0  0  0  0
 26 28  1  0  0  0  0
 26 27  1  0  0  0  0
 29 28  2  0  0  0  0
 30 25  1  0  0  0  0
 30 29  1  0  0  0  0
M  END
>  <minimizedAffinity>
-5.22912931

$$$$

 OpenBabel03242512193D

 30 32  0  0  0  0  0  0  0  0999 V2000
   37.4710   29.5530   42.1340 C   0  0  0  0  0  0  0  0  0  0  0  0
   36.5920   28.4940   41.9390 C   0  0  0  0  0  0  0  0  0  0  0  0
   35.8200   28.4850   40.8040 C   0  0  0  0  0  0  0  0  0  0  0  0
   35.9340   29.5190   39.8880 C   0  0  0  0  0  0  0  0  0  0  0  0
   36.8200   30.5500   40.1230 C   0  0  0  0  0  0  0  0  0  0  0  0
   37.6260   30.5980   41.2680 C   0  0  0  0  0  0  0  0  0  0  0  0
   35.1390   27.6470   40.6700 H   0  0  0  0  0  0  0  0  0  0  0  0
   35.3190   29.5010   38.9930 H   0  0  0  0  0  0  0  0  0  0  0  0
   36.8650   31.3270   39.3740 H   0  0  0  0  0  0  0  0  0  0  0  0
   36.5790   27.4650   43.0000 C   0  0  0  0  0  0  0  0  0  0  0  0
   37.0480   27.9680   43.8940 H   0  0  0  0  0  0  0  0  0  0  0  0
   35.5900   27.1460   43.2730 H   0  0  0  0  0  0  0  0  0  0  0  0
   37.5040   26.3280   42.6060 C   0  0  0  0  0  0  0  0  0  0  0  0
   36.9240   25.1570   42.1600 C   0  0  0  0  0  0  0  0  0  0  0  0
   37.7710   24.1180   41.7890 C   0  0  0  0  0  0  0  0  0  0  0  0
   39.1030   24.3170   41.8870 N   0  0  0  0  0  0  0  0  0  0  0  0
   39.6410   25.4780   42.3290 C   0  0  0  0  0  0  0  0  0  0  0  0
   38.8380   26.4860   42.6890 N   0  0  0  0  0  0  0  0  0  0  0  0
   35.8490   25.0220   42.0900 H   0  0  0  0  0  0  0  0  0  0  0  0
   37.3350   23.1870   41.4360 H   0  0  0  0  0  0  0  0  0  0  0  0
   40.7250   25.5110   42.3610 H   0  0  0  0  0  0  0  0  0  0  0  0
   38.3080   29.6540   43.2690 O   0  0  0  0  0  0  0  0  0  0  0  0
   38.3230   30.4430   43.8810 H   0  0  0  0  0  0  0  0  0  0  0  0
   38.4810   31.6650   41.4170 O   0  0  0  0  0  0  0  0  0  0  0  0
   39.4230   32.0390   40.5140 C   0  0  0  0  0  0  0  0  0  0  0  0
   40.3970   31.2110   39.8870 C   0  0  0  0  0  0  0  0  0  0  0  0
   40.4150   30.1640   40.1360 H   0  0  0  0  0  0  0  0  0  0  0  0
   41.2280   31.8120   39.0220 C   0  0  0  0  0  3  0  0  0  0  0  0
   41.0840   33.2180   38.7910 C   0  0  0  0  0  3  0  0  0  0  0  0
   39.6340   33.7210   39.9090 S   0  0  0  0  0  0  0  0  0  0  0  0
  1 22  1  0  0  0  0
  2  1  1  0  0  0  0
  2 10  1  0  0  0  0
  3  2  2  0  0  0  0
  4  5  2  0  0  0  0
  4  3  1  0  0  0  0
  5  6  1  0  0  0  0
  6 24  1  0  0  0  0
  6  1  2  0  0  0  0
  7  3  1  0  0  0  0
  8  4  1  0  0  0  0
  9  5  1  0  0  0  0
 10 12  1  0  0  0  0
 10 11  1  0  0  0  0
 13 18  1  0  0  0  0
 13 10  1  0  0  0  0
 14 13  2  0  0  0  0
 15 16  2  0  0  0  0
 15 14  1  0  0  0  0
 16 17  1  0  0  0  0
 17 21  1  0  0  0  0
 17 18  2  0  0  0  0
 19 14  1  0  0  0  0
 20 15  1  0  0  0  0
 22 23  1  0  0  0  0
 25 24  1  0  0  0  0
 26 27  1  0  0  0  0
 26 25  2  0  0  0  0
 28 26  1  0  0  0  0
 29 28  2  0  0  0  0
 29 30  1  0  0  0  0
 30 25  1  0  0  0  0
M  END
>  <minimizedAffinity>
-5.16119576

$$$$

 OpenBabel03242512193D

 30 32  0  0  0  0  0  0  0  0999 V2000
   39.3410   32.1580   41.1130 C   0  0  0  0  0  0  0  0  0  0  0  0
   38.9930   33.0850   40.1380 C   0  0  0  0  0  0  0  0  0  0  0  0
   37.7920   32.9330   39.4890 C   0  0  0  0  0  0  0  0  0  0  0  0
   36.9630   31.8730   39.8190 C   0  0  0  0  0  0  0  0  0  0  0  0
   37.3490   30.9760   40.7940 C   0  0  0  0  0  0  0  0  0  0  0  0
   38.5650   31.0940   41.4800 C   0  0  0  0  0  0  0  0  0  0  0  0
   37.5390   33.6700   38.7300 H   0  0  0  0  0  0  0  0  0  0  0  0
   36.0160   31.7630   39.3000 H   0  0  0  0  0  0  0  0  0  0  0  0
   36.6620   30.1700   41.0070 H   0  0  0  0  0  0  0  0  0  0  0  0
   39.9760   34.1610   39.8940 C   0  0  0  0  0  0  0  0  0  0  0  0
   39.4650   34.8590   39.1700 H   0  0  0  0  0  0  0  0  0  0  0  0
   40.2290   34.7170   40.7780 H   0  0  0  0  0  0  0  0  0  0  0  0
   41.1780   33.5840   39.1670 C   0  0  0  0  0  0  0  0  0  0  0  0
   40.9690   33.0430   37.9140 C   0  0  0  0  0  0  0  0  0  0  0  0
   42.0710   32.5230   37.2440 C   0  0  0  0  0  0  0  0  0  0  0  0
   43.2730   32.5790   37.8570 N   0  0  0  0  0  0  0  0  0  0  0  0
   43.4450   33.1160   39.0880 C   0  0  0  0  0  0  0  0  0  0  0  0
   42.3930   33.6200   39.7440 N   0  0  0  0  0  0  0  0  0  0  0  0
   39.9910   33.0120   37.4430 H   0  0  0  0  0  0  0  0  0  0  0  0
   41.9280   32.0930   36.2560 H   0  0  0  0  0  0  0  0  0  0  0  0
   44.4610   33.1000   39.4690 H   0  0  0  0  0  0  0  0  0  0  0  0
   40.5540   32.2260   41.8370 O   0  0  0  0  0  0  0  0  0  0  0  0
   41.2160   31.4800   41.8840 H   0  0  0  0  0  0  0  0  0  0  0  0
   38.8660   30.1530   42.4360 O   0  0  0  0  0  0  0  0  0  0  0  0
   38.2410   28.9560   42.5730 C   0  0  0  0  0  0  0  0  0  0  0  0
   37.2840   28.5880   43.5620 C   0  0  0  0  0  0  0  0  0  0  0  0
   37.0040   29.3200   44.3000 H   0  0  0  0  0  0  0  0  0  0  0  0
   36.8020   27.3380   43.4930 C   0  0  0  0  0  3  0  0  0  0  0  0
   37.2700   26.4740   42.4530 C   0  0  0  0  0  3  0  0  0  0  0  0
   38.5080   27.5440   41.4900 S   0  0  0  0  0  0  0  0  0  0  0  0
  1  6  1  0  0  0  0
  1 22  1  0  0  0  0
  2  1  2  0  0  0  0
  3  4  2  0  0  0  0
  3  2  1  0  0  0  0
  4  5  1  0  0  0  0
  5  9  1  0  0  0  0
  5  6  2  0  0  0  0
  6 24  1  0  0  0  0
  7  3  1  0  0  0  0
  8  4  1  0  0  0  0
 10  2  1  0  0  0  0
 10 12  1  0  0  0  0
 11 10  1  0  0  0  0
 13 18  1  0  0  0  0
 13 10  1  0  0  0  0
 14 13  2  0  0  0  0
 15 16  2  0  0  0  0
 15 14  1  0  0  0  0
 16 17  1  0  0  0  0
 17 21  1  0  0  0  0
 17 18  2  0  0  0  0
 19 14  1  0  0  0  0
 20 15  1  0  0  0  0
 22 23  1  0  0  0  0
 24 25  1  0  0  0  0
 25 26  2  0  0  0  0
 26 27  1  0  0  0  0
 28 26  1  0  0  0  0
 29 28  2  0  0  0  0
 30 29  1  0  0  0  0
 30 25  1  0  0  0  0
M  END
>  <minimizedAffinity>
-5.14475679

$$$$

 OpenBabel03242512193D

 30 32  0  0  0  0  0  0  0  0999 V2000
   35.1190   29.5460   39.2850 C   0  0  0  0  0  0  0  0  0  0  0  0
   36.2700   30.2080   39.6980 C   0  0  0  0  0  0  0  0  0  0  0  0
   37.2450   30.4690   38.7670 C   0  0  0  0  0  0  0  0  0  0  0  0
   37.0610   30.0720   37.4520 C   0  0  0  0  0  0  0  0  0  0  0  0
   35.9030   29.4180   37.0870 C   0  0  0  0  0  0  0  0  0  0  0  0
   34.8830   29.1320   38.0050 C   0  0  0  0  0  0  0  0  0  0  0  0
   38.1370   30.9880   39.1110 H   0  0  0  0  0  0  0  0  0  0  0  0
   37.8390   30.2840   36.7240 H   0  0  0  0  0  0  0  0  0  0  0  0
   35.8170   29.1330   36.0480 H   0  0  0  0  0  0  0  0  0  0  0  0
   36.3250   30.5690   41.1300 C   0  0  0  0  0  0  0  0  0  0  0  0
   36.9810   31.4860   41.1710 H   0  0  0  0  0  0  0  0  0  0  0  0
   35.3660   30.8200   41.5450 H   0  0  0  0  0  0  0  0  0  0  0  0
   37.0560   29.4770   41.8920 C   0  0  0  0  0  0  0  0  0  0  0  0
   38.3440   29.7430   42.3140 C   0  0  0  0  0  0  0  0  0  0  0  0
   39.0100   28.7480   43.0200 C   0  0  0  0  0  0  0  0  0  0  0  0
   38.3600   27.5860   43.2490 N   0  0  0  0  0  0  0  0  0  0  0  0
   37.0970   27.3560   42.8210 C   0  0  0  0  0  0  0  0  0  0  0  0
   36.4440   28.3050   42.1400 N   0  0  0  0  0  0  0  0  0  0  0  0
   38.8440   30.6870   42.1170 H   0  0  0  0  0  0  0  0  0  0  0  0
   40.0250   28.9370   43.3610 H   0  0  0  0  0  0  0  0  0  0  0  0
   36.6880   26.3820   43.0690 H   0  0  0  0  0  0  0  0  0  0  0  0
   34.0590   29.2320   40.1660 O   0  0  0  0  0  0  0  0  0  0  0  0
   33.7010   28.3090   40.2980 H   0  0  0  0  0  0  0  0  0  0  0  0
   33.7640   28.4760   37.5500 O   0  0  0  0  0  0  0  0  0  0  0  0
   32.7610   29.0510   36.8380 C   0  0  0  0  0  0  0  0  0  0  0  0
   31.6190   29.7330   37.3470 C   0  0  0  0  0  0  0  0  0  0  0  0
   31.5090   29.8190   38.4140 H   0  0  0  0  0  0  0  0  0  0  0  0
   30.7590   30.2210   36.4410 C   0  0  0  0  0  3  0  0  0  0  0  0
   31.0390   30.0280   35.0500 C   0  0  0  0  0  3  0  0  0  0  0  0
   32.6750   29.0660   35.0400 S   0  0  0  0  0  0  0  0  0  0  0  0
  1  2  1  0  0  0  0
  1 22  1  0  0  0  0
  2 10  1  0  0  0  0
  3  7  1  0  0  0  0
  3  2  2  0  0  0  0
  4  3  1  0  0  0  0
  5  4  2  0  0  0  0
  5  6  1  0  0  0  0
  6  1  2  0  0  0  0
  8  4  1  0  0  0  0
  9  5  1  0  0  0  0
 10 11  1  0  0  0  0
 10 12  1  0  0  0  0
 10 13  1  0  0  0  0
 13 18  2  0  0  0  0
 13 14  1  0  0  0  0
 14 15  2  0  0  0  0
 15 16  1  0  0  0  0
 15 20  1  0  0  0  0
 17 21  1  0  0  0  0
 17 16  2  0  0  0  0
 18 17  1  0  0  0  0
 19 14  1  0  0  0  0
 22 23  1  0  0  0  0
 24  6  1  0  0  0  0
 25 26  2  0  0  0  0
 25 24  1  0  0  0  0
 26 27  1  0  0  0  0
 28 26  1  0  0  0  0
 29 28  2  0  0  0  0
 30 29  1  0  0  0  0
 30 25  1  0  0  0  0
M  END
>  <minimizedAffinity>
-4.94870329

$$$$
