
 OpenBabel03242520413D

 36 39  0  0  1  0  0  0  0  0999 V2000
   45.8770   33.5230   45.7800 C   0  0  0  0  0  0  0  0  0  0  0  0
   46.6690   33.6650   44.6120 C   0  0  0  0  0  0  0  0  0  0  0  0
   47.3300   32.5050   44.1100 C   0  0  0  0  0  0  0  0  0  0  0  0
   47.1690   31.3190   44.7740 N   0  0  0  0  0  0  0  0  0  0  0  0
   46.4050   31.2460   45.8800 C   0  0  0  0  0  0  0  0  0  0  0  0
   45.7700   32.3380   46.3710 N   0  0  0  0  0  0  0  0  0  0  0  0
   46.3040   29.9880   46.4910 N   0  0  0  0  0  0  0  0  0  0  0  0
   47.4630   29.3150   46.9770 C   0  0  2  0  0  0  0  0  0  0  0  0
   47.2440   27.8940   47.3650 C   0  0  0  0  0  0  0  0  0  0  0  0
   45.9570   27.5410   47.8290 N   0  0  0  0  0  0  0  0  0  0  0  0
   45.0550   28.6300   47.9540 C   0  0  0  0  0  0  0  0  0  0  0  0
   45.0030   29.3610   46.6350 C   0  0  0  0  0  0  0  0  0  0  0  0
   45.4050   34.4340   46.1100 H   0  0  0  0  0  0  0  0  0  0  0  0
   46.8150   34.5850   44.0630 H   0  0  0  0  0  0  0  0  0  0  0  0
   47.9420   32.5500   43.2300 H   0  0  0  0  0  0  0  0  0  0  0  0
   48.1640   29.2480   46.0870 H   0  0  0  0  0  0  0  0  0  0  0  0
   47.5180   27.1770   46.5630 H   0  0  0  0  0  0  0  0  0  0  0  0
   47.9700   27.6700   48.2000 H   0  0  0  0  0  0  0  0  0  0  0  0
   45.9280   26.8390   48.5910 H   0  0  0  0  0  0  0  0  0  0  0  0
   45.1920   29.2830   48.8180 H   0  0  0  0  0  0  0  0  0  0  0  0
   44.0250   28.1810   48.0880 H   0  0  0  0  0  0  0  0  0  0  0  0
   44.8260   28.5920   45.8520 H   0  0  0  0  0  0  0  0  0  0  0  0
   44.2330   30.1630   46.6240 H   0  0  0  0  0  0  0  0  0  0  0  0
   48.1660   30.0980   48.0240 C   0  0  0  0  0  0  0  0  0  0  0  0
   47.7130   30.8990   49.0500 C   0  0  0  0  0  0  0  0  0  0  0  0
   48.7430   31.3980   49.7600 N   0  0  0  0  0  0  0  0  0  0  0  0
   49.8270   30.9170   49.1890 C   0  0  0  0  0  0  0  0  0  0  0  0
   49.5030   30.1440   48.1580 N   0  0  0  0  0  0  0  0  0  0  0  0
   46.6710   31.0970   49.2470 H   0  0  0  0  0  0  0  0  0  0  0  0
   48.6640   32.0310   50.5850 H   0  0  0  0  0  0  0  0  0  0  0  0
   51.1570   31.2440   49.6920 C   0  0  0  0  0  0  0  0  0  0  0  0
   52.3090   31.6190   49.1280 C   0  0  0  0  0  0  0  0  0  0  0  0
   52.2980   31.7140   48.0540 H   0  0  0  0  0  0  0  0  0  0  0  0
   53.3790   31.8420   49.9530 C   0  0  0  0  0  0  0  0  0  0  0  0
   53.2430   31.6800   51.3080 C   0  0  0  0  0  0  0  0  0  0  0  0
   51.4890   31.1670   51.5400 S   0  0  0  0  0  0  0  0  0  0  0  0
  1 13  1  0  0  0  0
  1  6  1  0  0  0  0
  2  1  2  0  0  0  0
  3  2  1  0  0  0  0
  3  4  2  0  0  0  0
  4  5  1  0  0  0  0
  5  6  2  0  0  0  0
  5  7  1  0  0  0  0
  7 12  1  0  0  0  0
  7  8  1  0  0  0  0
  8 16  1  6  0  0  0
  8  9  1  0  0  0  0
  8 24  1  0  0  0  0
  9 10  1  0  0  0  0
  9 18  1  0  0  0  0
 10 11  1  0  0  0  0
 10 19  1  0  0  0  0
 11 21  1  0  0  0  0
 11 20  1  0  0  0  0
 12 11  1  0  0  0  0
 14  2  1  0  0  0  0
 15  3  1  0  0  0  0
 17  9  1  0  0  0  0
 22 12  1  0  0  0  0
 23 12  1  0  0  0  0
 24 28  1  0  0  0  0
 24 25  2  0  0  0  0
 25 29  1  0  0  0  0
 25 26  1  0  0  0  0
 26 30  1  0  0  0  0
 27 31  1  0  0  0  0
 27 26  1  0  0  0  0
 28 27  2  0  0  0  0
 31 36  1  0  0  0  0
 32 31  2  0  0  0  0
 32 34  1  0  0  0  0
 33 32  1  0  0  0  0
 34 35  2  0  0  0  0
 35 36  1  0  0  0  0
M  END
>  <minimizedAffinity>
-4.95523453

>  <minimizedRMSD>
0.22371529

$$$$
