
 OpenBabel03242510063D

 15 16  0  0  0  0  0  0  0  0999 V2000
   37.7100   28.2100   43.5600 C   0  0  0  0  0  0  0  0  0  0  0  0
   36.8890   27.3460   42.8090 C   0  0  0  0  0  0  0  0  0  0  0  0
   36.4870   27.7760   41.5410 C   0  0  0  0  0  0  0  0  0  0  0  0
   36.9110   29.0070   41.1040 N   0  0  0  0  0  0  0  0  0  0  0  0
   37.7060   29.8050   41.8720 C   0  0  0  0  0  0  0  0  0  0  0  0
   38.0990   29.4010   43.0930 N   0  0  0  0  0  0  0  0  0  0  0  0
   38.0180   27.8850   44.5270 H   0  0  0  0  0  0  0  0  0  0  0  0
   36.5490   26.3850   43.1320 H   0  0  0  0  0  0  0  0  0  0  0  0
   35.8630   27.1560   40.9320 H   0  0  0  0  0  0  0  0  0  0  0  0
   38.0100   31.0530   41.1730 C   0  0  0  0  0  0  0  0  0  0  0  0
   37.0350   31.7280   40.3630 C   0  0  0  0  0  0  0  0  0  0  0  0
   36.0340   31.3520   40.2270 H   0  0  0  0  0  0  0  0  0  0  0  0
   37.4270   32.8900   39.7540 C   0  0  0  0  0  3  0  0  0  0  0  0
   38.7640   33.3760   39.9470 C   0  0  0  0  0  3  0  0  0  0  0  0
   39.4860   32.0970   41.0550 S   0  0  0  0  0  0  0  0  0  0  0  0
  1  7  1  0  0  0  0
  2  8  1  0  0  0  0
  2  1  2  0  0  0  0
  3  2  1  0  0  0  0
  4  3  2  0  0  0  0
  4  5  1  0  0  0  0
  5  6  2  0  0  0  0
  6  1  1  0  0  0  0
  9  3  1  0  0  0  0
 10  5  1  0  0  0  0
 11 10  2  0  0  0  0
 12 11  1  0  0  0  0
 13 14  2  0  0  0  0
 13 11  1  0  0  0  0
 14 15  1  0  0  0  0
 15 10  1  0  0  0  0
M  END
>  <minimizedAffinity>
-3.73984456

$$$$

 OpenBabel03242510063D

 15 16  0  0  0  0  0  0  0  0999 V2000
   39.2360   32.8390   40.7100 C   0  0  0  0  0  0  0  0  0  0  0  0
   38.2600   33.3120   39.8090 C   0  0  0  0  0  0  0  0  0  0  0  0
   37.1010   32.5470   39.6500 C   0  0  0  0  0  0  0  0  0  0  0  0
   36.9810   31.3860   40.3750 N   0  0  0  0  0  0  0  0  0  0  0  0
   37.9550   30.9730   41.2340 C   0  0  0  0  0  0  0  0  0  0  0  0
   39.0750   31.7020   41.3940 N   0  0  0  0  0  0  0  0  0  0  0  0
   40.1200   33.4200   40.8320 H   0  0  0  0  0  0  0  0  0  0  0  0
   38.3360   34.2120   39.2370 H   0  0  0  0  0  0  0  0  0  0  0  0
   36.3310   32.8630   38.9780 H   0  0  0  0  0  0  0  0  0  0  0  0
   37.5770   29.7140   41.8740 C   0  0  0  0  0  0  0  0  0  0  0  0
   38.1690   29.2810   43.1090 C   0  0  0  0  0  0  0  0  0  0  0  0
   38.9190   29.8580   43.6260 H   0  0  0  0  0  0  0  0  0  0  0  0
   37.7400   28.0850   43.6190 C   0  0  0  0  0  3  0  0  0  0  0  0
   36.7410   27.3310   42.9170 C   0  0  0  0  0  3  0  0  0  0  0  0
   36.4060   28.3960   41.4550 S   0  0  0  0  0  0  0  0  0  0  0  0
  1  7  1  0  0  0  0
  1  6  1  0  0  0  0
  2  1  2  0  0  0  0
  3  2  1  0  0  0  0
  3  4  2  0  0  0  0
  4  5  1  0  0  0  0
  5  6  2  0  0  0  0
  5 10  1  0  0  0  0
  8  2  1  0  0  0  0
  9  3  1  0  0  0  0
 10 11  2  0  0  0  0
 11 13  1  0  0  0  0
 11 12  1  0  0  0  0
 14 13  2  0  0  0  0
 15 10  1  0  0  0  0
 15 14  1  0  0  0  0
M  END
>  <minimizedAffinity>
-3.73647666

$$$$

 OpenBabel03242510063D

 15 16  0  0  0  0  0  0  0  0999 V2000
   37.0560   31.1100   38.3120 C   0  0  0  0  0  0  0  0  0  0  0  0
   37.3200   32.4300   38.7270 C   0  0  0  0  0  0  0  0  0  0  0  0
   37.5980   32.6390   40.0810 C   0  0  0  0  0  0  0  0  0  0  0  0
   37.5970   31.5540   40.9240 N   0  0  0  0  0  0  0  0  0  0  0  0
   37.3350   30.2960   40.4700 C   0  0  0  0  0  0  0  0  0  0  0  0
   37.0660   30.0830   39.1690 N   0  0  0  0  0  0  0  0  0  0  0  0
   36.8430   30.9470   37.2810 H   0  0  0  0  0  0  0  0  0  0  0  0
   37.3250   33.2860   38.0870 H   0  0  0  0  0  0  0  0  0  0  0  0
   37.8050   33.6240   40.4450 H   0  0  0  0  0  0  0  0  0  0  0  0
   37.3980   29.3310   41.5670 C   0  0  0  0  0  0  0  0  0  0  0  0
   36.4240   28.2850   41.7160 C   0  0  0  0  0  0  0  0  0  0  0  0
   35.6000   28.1580   41.0320 H   0  0  0  0  0  0  0  0  0  0  0  0
   36.5790   27.4360   42.7790 C   0  0  0  0  0  3  0  0  0  0  0  0
   37.6830   27.6210   43.6790 C   0  0  0  0  0  3  0  0  0  0  0  0
   38.5310   29.0840   42.9580 S   0  0  0  0  0  0  0  0  0  0  0  0
  1  2  2  0  0  0  0
  1  6  1  0  0  0  0
  2  3  1  0  0  0  0
  3  9  1  0  0  0  0
  3  4  2  0  0  0  0
  5  4  1  0  0  0  0
  5 10  1  0  0  0  0
  6  5  2  0  0  0  0
  7  1  1  0  0  0  0
  8  2  1  0  0  0  0
 10 11  2  0  0  0  0
 10 15  1  0  0  0  0
 11 13  1  0  0  0  0
 12 11  1  0  0  0  0
 13 14  2  0  0  0  0
 15 14  1  0  0  0  0
M  END
>  <minimizedAffinity>
-3.61519432

$$$$

 OpenBabel03242510063D

 15 16  0  0  0  0  0  0  0  0999 V2000
   40.1660   25.6180   43.4740 C   0  0  0  0  0  0  0  0  0  0  0  0
   39.6000   24.3920   43.0730 C   0  0  0  0  0  0  0  0  0  0  0  0
   38.4220   24.4380   42.3200 C   0  0  0  0  0  0  0  0  0  0  0  0
   37.8880   25.6680   42.0180 N   0  0  0  0  0  0  0  0  0  0  0  0
   38.4780   26.8250   42.4320 C   0  0  0  0  0  0  0  0  0  0  0  0
   39.6110   26.7920   43.1560 N   0  0  0  0  0  0  0  0  0  0  0  0
   41.0630   25.5850   44.0470 H   0  0  0  0  0  0  0  0  0  0  0  0
   40.0000   23.4260   43.2980 H   0  0  0  0  0  0  0  0  0  0  0  0
   37.9540   23.5340   41.9920 H   0  0  0  0  0  0  0  0  0  0  0  0
   37.7090   27.9830   41.9770 C   0  0  0  0  0  0  0  0  0  0  0  0
   36.4620   27.8420   41.2800 C   0  0  0  0  0  0  0  0  0  0  0  0
   36.0290   26.8810   41.0550 H   0  0  0  0  0  0  0  0  0  0  0  0
   35.8260   28.9950   40.9010 C   0  0  0  0  0  3  0  0  0  0  0  0
   36.4180   30.2660   41.2100 C   0  0  0  0  0  3  0  0  0  0  0  0
   37.9590   29.7750   42.0850 S   0  0  0  0  0  0  0  0  0  0  0  0
  1  7  1  0  0  0  0
  2  8  1  0  0  0  0
  2  1  2  0  0  0  0
  3  2  1  0  0  0  0
  4  3  2  0  0  0  0
  4  5  1  0  0  0  0
  5  6  2  0  0  0  0
  6  1  1  0  0  0  0
  9  3  1  0  0  0  0
 10 15  1  0  0  0  0
 10  5  1  0  0  0  0
 11 10  2  0  0  0  0
 12 11  1  0  0  0  0
 13 14  2  0  0  0  0
 13 11  1  0  0  0  0
 14 15  1  0  0  0  0
M  END
>  <minimizedAffinity>
-3.51145005

$$$$

 OpenBabel03242510063D

 15 16  0  0  0  0  0  0  0  0999 V2000
   37.2200   26.7690   41.8470 C   0  0  0  0  0  0  0  0  0  0  0  0
   37.3110   27.2010   43.1850 C   0  0  0  0  0  0  0  0  0  0  0  0
   37.4170   28.5760   43.4160 C   0  0  0  0  0  0  0  0  0  0  0  0
   37.4280   29.4210   42.3330 N   0  0  0  0  0  0  0  0  0  0  0  0
   37.3370   28.9510   41.0570 C   0  0  0  0  0  0  0  0  0  0  0  0
   37.2350   27.6300   40.8230 N   0  0  0  0  0  0  0  0  0  0  0  0
   37.1390   25.7230   41.6680 H   0  0  0  0  0  0  0  0  0  0  0  0
   37.3030   26.5590   44.0400 H   0  0  0  0  0  0  0  0  0  0  0  0
   37.4880   28.9530   44.4140 H   0  0  0  0  0  0  0  0  0  0  0  0
   37.3730   30.0550   40.0990 C   0  0  0  0  0  0  0  0  0  0  0  0
   37.0710   31.4050   40.4830 C   0  0  0  0  0  0  0  0  0  0  0  0
   36.8040   31.6750   41.4920 H   0  0  0  0  0  0  0  0  0  0  0  0
   37.1350   32.3610   39.5040 C   0  0  0  0  0  3  0  0  0  0  0  0
   37.4930   31.9840   38.1660 C   0  0  0  0  0  3  0  0  0  0  0  0
   37.7470   30.1690   38.3300 S   0  0  0  0  0  0  0  0  0  0  0  0
  1  2  1  0  0  0  0
  2  3  2  0  0  0  0
  2  8  1  0  0  0  0
  3  9  1  0  0  0  0
  4  3  1  0  0  0  0
  5  4  2  0  0  0  0
  6  5  1  0  0  0  0
  6  1  2  0  0  0  0
  7  1  1  0  0  0  0
 10 11  2  0  0  0  0
 10  5  1  0  0  0  0
 11 12  1  0  0  0  0
 13 11  1  0  0  0  0
 14 15  1  0  0  0  0
 14 13  2  0  0  0  0
 15 10  1  0  0  0  0
M  END
>  <minimizedAffinity>
-3.40848494

$$$$

 OpenBabel03242510063D

 15 16  0  0  0  0  0  0  0  0999 V2000
   38.4710   27.0330   42.0760 C   0  0  0  0  0  0  0  0  0  0  0  0
   38.0690   27.3440   43.3900 C   0  0  0  0  0  0  0  0  0  0  0  0
   37.5410   28.6170   43.6220 C   0  0  0  0  0  0  0  0  0  0  0  0
   37.4450   29.4870   42.5620 N   0  0  0  0  0  0  0  0  0  0  0  0
   37.8480   29.1350   41.3090 C   0  0  0  0  0  0  0  0  0  0  0  0
   38.3580   27.9130   41.0750 N   0  0  0  0  0  0  0  0  0  0  0  0
   38.8730   26.0640   41.8970 H   0  0  0  0  0  0  0  0  0  0  0  0
   38.1360   26.6810   44.2270 H   0  0  0  0  0  0  0  0  0  0  0  0
   37.2220   28.9010   44.6030 H   0  0  0  0  0  0  0  0  0  0  0  0
   37.6380   30.2390   40.3730 C   0  0  0  0  0  0  0  0  0  0  0  0
   37.1970   30.0180   39.0240 C   0  0  0  0  0  0  0  0  0  0  0  0
   36.9990   29.0340   38.6320 H   0  0  0  0  0  0  0  0  0  0  0  0
   37.0320   31.1250   38.2330 C   0  0  0  0  0  3  0  0  0  0  0  0
   37.3000   32.4280   38.7720 C   0  0  0  0  0  3  0  0  0  0  0  0
   37.8120   32.0380   40.4950 S   0  0  0  0  0  0  0  0  0  0  0  0
  1  2  1  0  0  0  0
  2  3  2  0  0  0  0
  2  8  1  0  0  0  0
  3  9  1  0  0  0  0
  4  3  1  0  0  0  0
  5  4  2  0  0  0  0
  6  5  1  0  0  0  0
  6  1  2  0  0  0  0
  7  1  1  0  0  0  0
 10 15  1  0  0  0  0
 10  5  1  0  0  0  0
 11 10  2  0  0  0  0
 12 11  1  0  0  0  0
 13 14  2  0  0  0  0
 13 11  1  0  0  0  0
 14 15  1  0  0  0  0
M  END
>  <minimizedAffinity>
-3.31535316

$$$$

 OpenBabel03242510063D

 15 16  0  0  0  0  0  0  0  0999 V2000
   38.3600   29.5130   42.8450 C   0  0  0  0  0  0  0  0  0  0  0  0
   37.8170   28.5170   43.6800 C   0  0  0  0  0  0  0  0  0  0  0  0
   36.7800   27.7340   43.1630 C   0  0  0  0  0  0  0  0  0  0  0  0
   36.3520   27.9810   41.8810 N   0  0  0  0  0  0  0  0  0  0  0  0
   36.9130   28.9590   41.1150 C   0  0  0  0  0  0  0  0  0  0  0  0
   37.9110   29.7180   41.6020 N   0  0  0  0  0  0  0  0  0  0  0  0
   39.1500   30.1110   43.2360 H   0  0  0  0  0  0  0  0  0  0  0  0
   38.1360   28.3100   44.6790 H   0  0  0  0  0  0  0  0  0  0  0  0
   36.3350   26.9640   43.7570 H   0  0  0  0  0  0  0  0  0  0  0  0
   36.2750   29.0100   39.8000 C   0  0  0  0  0  0  0  0  0  0  0  0
   34.8530   28.8910   39.6390 C   0  0  0  0  0  0  0  0  0  0  0  0
   34.1850   28.7570   40.4730 H   0  0  0  0  0  0  0  0  0  0  0  0
   34.3630   28.9540   38.3610 C   0  0  0  0  0  3  0  0  0  0  0  0
   35.2690   29.1330   37.2620 C   0  0  0  0  0  3  0  0  0  0  0  0
   36.8990   29.2130   38.1110 S   0  0  0  0  0  0  0  0  0  0  0  0
  1  7  1  0  0  0  0
  1  2  1  0  0  0  0
  2  8  1  0  0  0  0
  3  2  2  0  0  0  0
  3  9  1  0  0  0  0
  4  3  1  0  0  0  0
  5  6  1  0  0  0  0
  5  4  2  0  0  0  0
  6  1  2  0  0  0  0
 10  5  1  0  0  0  0
 11 10  2  0  0  0  0
 11 12  1  0  0  0  0
 13 11  1  0  0  0  0
 14 15  1  0  0  0  0
 14 13  2  0  0  0  0
 15 10  1  0  0  0  0
M  END
>  <minimizedAffinity>
-3.31222105

$$$$

 OpenBabel03242510063D

 15 16  0  0  0  0  0  0  0  0999 V2000
   35.4820   27.6600   38.1130 C   0  0  0  0  0  0  0  0  0  0  0  0
   34.4940   28.6370   38.3450 C   0  0  0  0  0  0  0  0  0  0  0  0
   34.4450   29.2200   39.6140 C   0  0  0  0  0  0  0  0  0  0  0  0
   35.3560   28.8090   40.5570 N   0  0  0  0  0  0  0  0  0  0  0  0
   36.2930   27.8580   40.2810 C   0  0  0  0  0  0  0  0  0  0  0  0
   36.3490   27.2900   39.0620 N   0  0  0  0  0  0  0  0  0  0  0  0
   35.5220   27.2140   37.1470 H   0  0  0  0  0  0  0  0  0  0  0  0
   33.7780   28.9700   37.6240 H   0  0  0  0  0  0  0  0  0  0  0  0
   33.7130   29.9670   39.8400 H   0  0  0  0  0  0  0  0  0  0  0  0
   37.1320   27.6070   41.4520 C   0  0  0  0  0  0  0  0  0  0  0  0
   37.0520   28.4210   42.6330 C   0  0  0  0  0  0  0  0  0  0  0  0
   36.3740   29.2550   42.7170 H   0  0  0  0  0  0  0  0  0  0  0  0
   37.8840   28.0960   43.6710 C   0  0  0  0  0  3  0  0  0  0  0  0
   38.7790   26.9810   43.5410 C   0  0  0  0  0  3  0  0  0  0  0  0
   38.4030   26.3780   41.8440 S   0  0  0  0  0  0  0  0  0  0  0  0
  1  2  2  0  0  0  0
  1  6  1  0  0  0  0
  2  3  1  0  0  0  0
  3  9  1  0  0  0  0
  3  4  2  0  0  0  0
  5  4  1  0  0  0  0
  5 10  1  0  0  0  0
  6  5  2  0  0  0  0
  7  1  1  0  0  0  0
  8  2  1  0  0  0  0
 10 15  1  0  0  0  0
 10 11  2  0  0  0  0
 11 12  1  0  0  0  0
 11 13  1  0  0  0  0
 14 13  2  0  0  0  0
 15 14  1  0  0  0  0
M  END
>  <minimizedAffinity>
-3.22464752

$$$$

 OpenBabel03242510063D

 15 16  0  0  0  0  0  0  0  0999 V2000
   36.9820   28.8950   41.9790 C   0  0  0  0  0  0  0  0  0  0  0  0
   37.6980   28.8480   43.1920 C   0  0  0  0  0  0  0  0  0  0  0  0
   38.2190   27.6130   43.5880 C   0  0  0  0  0  0  0  0  0  0  0  0
   38.0040   26.5230   42.7790 N   0  0  0  0  0  0  0  0  0  0  0  0
   37.3030   26.6240   41.6150 C   0  0  0  0  0  0  0  0  0  0  0  0
   36.7970   27.8070   41.2230 N   0  0  0  0  0  0  0  0  0  0  0  0
   36.5830   29.8350   41.6750 H   0  0  0  0  0  0  0  0  0  0  0  0
   37.8750   29.6840   43.8340 H   0  0  0  0  0  0  0  0  0  0  0  0
   38.7700   27.5250   44.5010 H   0  0  0  0  0  0  0  0  0  0  0  0
   37.2210   25.3240   40.9500 C   0  0  0  0  0  0  0  0  0  0  0  0
   37.9020   24.1660   41.4590 C   0  0  0  0  0  0  0  0  0  0  0  0
   38.5060   24.1940   42.3510 H   0  0  0  0  0  0  0  0  0  0  0  0
   37.7560   22.9990   40.7570 C   0  0  0  0  0  3  0  0  0  0  0  0
   36.9470   22.9800   39.5710 C   0  0  0  0  0  3  0  0  0  0  0  0
   36.3740   24.7250   39.4650 S   0  0  0  0  0  0  0  0  0  0  0  0
  1  2  1  0  0  0  0
  2  3  2  0  0  0  0
  2  8  1  0  0  0  0
  3  9  1  0  0  0  0
  4  3  1  0  0  0  0
  5  4  2  0  0  0  0
  6  5  1  0  0  0  0
  6  1  2  0  0  0  0
  7  1  1  0  0  0  0
 10 11  2  0  0  0  0
 10  5  1  0  0  0  0
 11 12  1  0  0  0  0
 13 11  1  0  0  0  0
 14 13  2  0  0  0  0
 15 14  1  0  0  0  0
 15 10  1  0  0  0  0
M  END
>  <minimizedAffinity>
-3.21193647

$$$$
