
 OpenBabel03242513303D

 34 37  0  0  0  0  0  0  0  0999 V2000
   46.4210   33.6230   41.1230 C   0  0  0  0  0  0  0  0  0  0  0  0
   46.8190   34.6250   41.9800 C   0  0  0  0  0  0  0  0  0  0  0  0
   47.8930   35.3700   41.6000 C   0  0  0  0  0  0  0  0  0  0  0  0
   48.5680   35.1450   40.4090 C   0  0  0  0  0  0  0  0  0  0  0  0
   48.1560   34.1420   39.5680 C   0  0  0  0  0  0  0  0  0  0  0  0
   47.0590   33.3520   39.9170 C   0  0  0  0  0  0  0  0  0  0  0  0
   48.2150   36.1620   42.2680 H   0  0  0  0  0  0  0  0  0  0  0  0
   49.4210   35.7470   40.1230 H   0  0  0  0  0  0  0  0  0  0  0  0
   48.6210   33.8950   38.6220 H   0  0  0  0  0  0  0  0  0  0  0  0
   44.5330   36.0420   44.6220 C   0  0  0  0  0  0  0  0  0  0  0  0
   45.2370   35.8850   43.4230 C   0  0  0  0  0  0  0  0  0  0  0  0
   46.0800   34.8150   43.2050 C   0  0  0  0  0  0  0  0  0  0  0  0
   46.1670   33.9340   44.2430 N   0  0  0  0  0  0  0  0  0  0  0  0
   45.4930   34.0810   45.3940 C   0  0  0  0  0  0  0  0  0  0  0  0
   44.6720   35.1400   45.5840 N   0  0  0  0  0  0  0  0  0  0  0  0
   43.8730   36.8770   44.7980 H   0  0  0  0  0  0  0  0  0  0  0  0
   45.1250   36.6250   42.6280 H   0  0  0  0  0  0  0  0  0  0  0  0
   45.5970   33.3550   46.1860 H   0  0  0  0  0  0  0  0  0  0  0  0
   45.3240   32.8280   41.4620 O   0  0  0  0  0  0  0  0  0  0  0  0
   45.4180   31.9020   41.8530 H   0  0  0  0  0  0  0  0  0  0  0  0
   46.5930   32.3340   39.1240 O   0  0  0  0  0  0  0  0  0  0  0  0
   46.5570   32.3350   37.7760 C   0  0  0  0  0  0  0  0  0  0  0  0
   45.5360   32.7270   36.9360 C   0  0  0  0  0  0  0  0  0  0  0  0
   45.7090   32.6460   35.6020 C   0  0  0  0  0  0  0  0  0  0  0  0
   46.9550   32.1530   35.1360 C   0  0  0  0  0  0  0  0  0  0  0  0
   47.8630   31.8120   36.6680 S   0  0  0  0  0  0  0  0  0  0  0  0
   44.6030   33.0970   37.3390 H   0  0  0  0  0  0  0  0  0  0  0  0
   45.0400   32.9010   34.8060 H   0  0  0  0  0  0  0  0  0  0  0  0
   47.5450   31.9070   33.8230 C   0  0  0  0  0  0  0  0  0  0  0  0
   48.2430   32.7720   33.0960 C   0  0  0  0  0  0  0  0  0  0  0  0
   48.4500   33.8030   33.4320 H   0  0  0  0  0  0  0  0  0  0  0  0
   48.7250   32.3710   31.8840 C   0  0  0  0  0  0  0  0  0  0  0  0
   48.4470   31.0640   31.4860 C   0  0  0  0  0  0  0  0  0  0  0  0
   47.4570   30.4410   32.9480 S   0  0  0  0  0  0  0  0  0  0  0  0
  1 19  1  0  0  0  0
  1  2  1  0  0  0  0
  2 12  1  0  0  0  0
  3  2  2  0  0  0  0
  3  7  1  0  0  0  0
  4  3  1  0  0  0  0
  5  6  1  0  0  0  0
  5  4  2  0  0  0  0
  6  1  2  0  0  0  0
  8  4  1  0  0  0  0
  9  5  1  0  0  0  0
 10 16  1  0  0  0  0
 10 15  1  0  0  0  0
 11 10  2  0  0  0  0
 12 11  1  0  0  0  0
 12 13  2  0  0  0  0
 13 14  1  0  0  0  0
 14 15  2  0  0  0  0
 14 18  1  0  0  0  0
 17 11  1  0  0  0  0
 19 20  1  0  0  0  0
 21  6  1  0  0  0  0
 22 21  1  0  0  0  0
 23 27  1  0  0  0  0
 23 22  2  0  0  0  0
 24 23  1  0  0  0  0
 25 24  2  0  0  0  0
 25 26  1  0  0  0  0
 26 22  1  0  0  0  0
 28 24  1  0  0  0  0
 29 25  1  0  0  0  0
 30 31  1  0  0  0  0
 30 29  2  0  0  0  0
 32 30  1  0  0  0  0
 33 32  2  0  0  0  0
 33 34  1  0  0  0  0
 34 29  1  0  0  0  0
M  END
>  <minimizedAffinity>
-6.16556168

>  <minimizedRMSD>
0.424128979

$$$$
