
 OpenBabel03242511543D

 31 33  0  0  1  0  0  0  0  0999 V2000
   45.9340   33.4860   41.4430 C   0  0  2  0  0  0  0  0  0  0  0  0
   46.5480   34.3140   42.5000 C   0  0  0  0  0  0  0  0  0  0  0  0
   47.4440   35.3970   41.9800 C   0  0  0  0  0  0  0  0  0  0  0  0
   48.5180   34.8780   41.0530 C   0  0  0  0  0  0  0  0  0  0  0  0
   48.0410   33.7690   40.1350 C   0  0  0  0  0  0  0  0  0  0  0  0
   46.5280   33.7570   40.0720 C   0  0  1  0  0  0  0  0  0  0  0  0
   46.0640   32.3850   41.6670 H   0  0  0  0  0  0  0  0  0  0  0  0
   47.1890   33.6510   43.1530 H   0  0  0  0  0  0  0  0  0  0  0  0
   45.8380   34.7880   43.2060 H   0  0  0  0  0  0  0  0  0  0  0  0
   46.9610   36.2870   41.5850 H   0  0  0  0  0  0  0  0  0  0  0  0
   48.0120   35.7720   42.8850 H   0  0  0  0  0  0  0  0  0  0  0  0
   48.8340   35.7310   40.4160 H   0  0  0  0  0  0  0  0  0  0  0  0
   49.4320   34.5650   41.6270 H   0  0  0  0  0  0  0  0  0  0  0  0
   48.4510   33.8530   39.1310 H   0  0  0  0  0  0  0  0  0  0  0  0
   48.3670   32.7930   40.5470 H   0  0  0  0  0  0  0  0  0  0  0  0
   46.2420   34.8100   39.8170 H   0  0  0  0  0  0  0  0  0  0  0  0
   44.4780   33.6900   41.3430 C   0  0  0  0  0  0  0  0  0  0  0  0
   44.0570   35.0160   41.1320 C   0  0  0  0  0  0  0  0  0  0  0  0
   42.6930   35.3180   41.0290 C   0  0  0  0  0  0  0  0  0  0  0  0
   41.8300   34.2440   41.1480 N   0  0  0  0  0  0  0  0  0  0  0  0
   42.2640   32.9990   41.3490 C   0  0  0  0  0  0  0  0  0  0  0  0
   43.5840   32.7110   41.4480 N   0  0  0  0  0  0  0  0  0  0  0  0
   44.6540   35.9100   41.0300 H   0  0  0  0  0  0  0  0  0  0  0  0
   42.2400   36.2620   40.8700 H   0  0  0  0  0  0  0  0  0  0  0  0
   41.5850   32.1510   41.4410 H   0  0  0  0  0  0  0  0  0  0  0  0
   46.0040   32.9130   39.0240 C   0  0  0  0  0  0  0  0  0  0  0  0
   45.3510   33.1340   37.8780 C   0  0  0  0  0  0  0  0  0  0  0  0
   45.1460   34.1850   37.6240 H   0  0  0  0  0  0  0  0  0  0  0  0
   44.9540   32.1470   37.0570 C   0  0  0  0  0  0  0  0  0  0  0  0
   45.2780   30.8370   37.4900 C   0  0  0  0  0  0  0  0  0  0  0  0
   46.1760   31.0820   39.1260 S   0  0  0  0  0  0  0  0  0  0  0  0
  1  7  1  1  0  0  0
  1  2  1  0  0  0  0
  2  8  1  0  0  0  0
  2  9  1  0  0  0  0
  3  2  1  0  0  0  0
  3 11  1  0  0  0  0
  4 13  1  0  0  0  0
  4  3  1  0  0  0  0
  5 15  1  0  0  0  0
  5  4  1  0  0  0  0
  6 16  1  6  0  0  0
  6  5  1  0  0  0  0
  6  1  1  0  0  0  0
 10  3  1  0  0  0  0
 12  4  1  0  0  0  0
 14  5  1  0  0  0  0
 17  1  1  0  0  0  0
 17 22  1  0  0  0  0
 18 17  2  0  0  0  0
 19 18  1  0  0  0  0
 19 20  2  0  0  0  0
 20 21  1  0  0  0  0
 21 25  1  0  0  0  0
 21 22  2  0  0  0  0
 23 18  1  0  0  0  0
 24 19  1  0  0  0  0
 26 31  1  0  0  0  0
 26  6  1  0  0  0  0
 27 26  2  0  0  0  0
 28 27  1  0  0  0  0
 29 30  2  0  0  0  0
 29 27  1  0  0  0  0
 30 31  1  0  0  0  0
M  END
>  <minimizedAffinity>
-3.90786767

>  <minimizedRMSD>
6.6250062

$$$$
