
 OpenBabel03252505183D

 31 34  0  0  0  0  0  0  0  0999 V2000
   44.5650   35.8900   44.5960 C   0  0  0  0  0  0  0  0  0  0  0  0
   45.2140   35.8370   43.3660 C   0  0  0  0  0  0  0  0  0  0  0  0
   46.1150   34.8100   43.2030 C   0  0  0  0  0  0  0  0  0  0  0  0
   46.3470   33.9020   44.2110 N   0  0  0  0  0  0  0  0  0  0  0  0
   45.6720   34.0070   45.4040 C   0  0  0  0  0  0  0  0  0  0  0  0
   44.7860   35.0030   45.5880 N   0  0  0  0  0  0  0  0  0  0  0  0
   43.8510   36.7120   44.7120 H   0  0  0  0  0  0  0  0  0  0  0  0
   45.0410   36.5410   42.5710 H   0  0  0  0  0  0  0  0  0  0  0  0
   45.9280   33.0180   46.4420 C   0  0  0  0  0  0  0  0  0  0  0  0
   45.1910   33.0320   47.5930 C   0  0  0  0  0  0  0  0  0  0  0  0
   45.4120   32.0950   48.5900 C   0  0  0  0  0  0  0  0  0  0  0  0
   46.3920   31.1520   48.3830 C   0  0  0  0  0  0  0  0  0  0  0  0
   47.1000   31.1840   47.2080 C   0  0  0  0  0  0  0  0  0  0  0  0
   46.8960   32.0920   46.2280 N   0  0  0  0  0  0  0  0  0  0  0  0
   44.4350   33.7760   47.7310 H   0  0  0  0  0  0  0  0  0  0  0  0
   44.8540   32.0840   49.4950 H   0  0  0  0  0  0  0  0  0  0  0  0
   46.5570   30.4300   49.1590 H   0  0  0  0  0  0  0  0  0  0  0  0
   48.1410   30.2170   46.9380 C   0  0  0  0  0  0  0  0  0  0  0  0
   48.6260   29.4610   45.8500 C   0  0  0  0  0  0  0  0  0  0  0  0
   48.0250   29.6970   44.9970 H   0  0  0  0  0  0  0  0  0  0  0  0
   49.6800   28.6360   46.0590 C   0  0  0  0  0  3  0  0  0  0  0  0
   50.3060   28.5100   47.3270 C   0  0  0  0  0  3  0  0  0  0  0  0
   49.2630   29.7210   48.3530 S   0  0  0  0  0  0  0  0  0  0  0  0
   46.8590   34.6300   41.9040 C   0  0  0  0  0  0  0  0  0  0  0  0
   48.2060   35.3570   41.9230 C   0  0  0  0  0  0  0  0  0  0  0  0
   48.0440   33.8110   41.8930 C   0  0  0  0  0  0  0  0  0  0  0  0
   46.2730   34.7660   40.9700 H   0  0  0  0  0  0  0  0  0  0  0  0
   48.5720   35.7990   42.8470 H   0  0  0  0  0  0  0  0  0  0  0  0
   48.4780   35.8420   40.9890 H   0  0  0  0  0  0  0  0  0  0  0  0
   48.3260   33.3240   42.8710 H   0  0  0  0  0  0  0  0  0  0  0  0
   48.4790   33.3000   41.0430 H   0  0  0  0  0  0  0  0  0  0  0  0
  1  7  1  0  0  0  0
  1  6  1  0  0  0  0
  2  1  2  0  0  0  0
  3  2  1  0  0  0  0
  3  4  2  0  0  0  0
  4  5  1  0  0  0  0
  5  6  2  0  0  0  0
  5  9  1  0  0  0  0
  8  2  1  0  0  0  0
  9 10  1  0  0  0  0
 10 15  1  0  0  0  0
 10 11  2  0  0  0  0
 11 16  1  0  0  0  0
 12 11  1  0  0  0  0
 12 17  1  0  0  0  0
 13 12  2  0  0  0  0
 14  9  2  0  0  0  0
 14 13  1  0  0  0  0
 18 13  1  0  0  0  0
 18 23  1  0  0  0  0
 19 21  1  0  0  0  0
 19 18  2  0  0  0  0
 20 19  1  0  0  0  0
 21 22  2  0  0  0  0
 22 23  1  0  0  0  0
 24 25  1  0  0  0  0
 24  3  1  0  0  0  0
 25 28  1  0  0  0  0
 26 24  1  0  0  0  0
 26 25  1  0  0  0  0
 26 30  1  0  0  0  0
 27 24  1  0  0  0  0
 29 25  1  0  0  0  0
 31 26  1  0  0  0  0
M  END
>  <minimizedAffinity>
-5.6671257

>  <minimizedRMSD>
0.281159848

$$$$
