
 OpenBabel03252505183D

 31 34  0  0  0  0  0  0  0  0999 V2000
   44.5640   35.8850   44.6020 C   0  0  0  0  0  0  0  0  0  0  0  0
   45.2110   35.8320   43.3710 C   0  0  0  0  0  0  0  0  0  0  0  0
   46.1130   34.8060   43.2080 C   0  0  0  0  0  0  0  0  0  0  0  0
   46.3450   33.8980   44.2160 N   0  0  0  0  0  0  0  0  0  0  0  0
   45.6720   34.0030   45.4090 C   0  0  0  0  0  0  0  0  0  0  0  0
   44.7850   34.9990   45.5940 N   0  0  0  0  0  0  0  0  0  0  0  0
   43.8490   36.7070   44.7190 H   0  0  0  0  0  0  0  0  0  0  0  0
   45.0370   36.5360   42.5770 H   0  0  0  0  0  0  0  0  0  0  0  0
   45.9280   33.0140   46.4470 C   0  0  0  0  0  0  0  0  0  0  0  0
   45.1930   33.0280   47.5990 C   0  0  0  0  0  0  0  0  0  0  0  0
   45.4150   32.0910   48.5950 C   0  0  0  0  0  0  0  0  0  0  0  0
   46.3950   31.1490   48.3880 C   0  0  0  0  0  0  0  0  0  0  0  0
   47.1030   31.1820   47.2130 C   0  0  0  0  0  0  0  0  0  0  0  0
   46.8980   32.0890   46.2330 N   0  0  0  0  0  0  0  0  0  0  0  0
   44.4360   33.7710   47.7370 H   0  0  0  0  0  0  0  0  0  0  0  0
   44.8570   32.0800   49.5010 H   0  0  0  0  0  0  0  0  0  0  0  0
   46.5610   30.4280   49.1640 H   0  0  0  0  0  0  0  0  0  0  0  0
   48.1440   30.2150   46.9420 C   0  0  0  0  0  0  0  0  0  0  0  0
   48.6280   29.4590   45.8550 C   0  0  0  0  0  0  0  0  0  0  0  0
   48.0260   29.6930   45.0020 H   0  0  0  0  0  0  0  0  0  0  0  0
   49.6830   28.6350   46.0630 C   0  0  0  0  0  3  0  0  0  0  0  0
   50.3110   28.5110   47.3290 C   0  0  0  0  0  3  0  0  0  0  0  0
   49.2680   29.7210   48.3570 S   0  0  0  0  0  0  0  0  0  0  0  0
   46.8550   34.6260   41.9080 C   0  0  0  0  0  0  0  0  0  0  0  0
   48.2010   35.3550   41.9250 C   0  0  0  0  0  0  0  0  0  0  0  0
   48.0410   33.8090   41.8960 C   0  0  0  0  0  0  0  0  0  0  0  0
   46.2680   34.7610   40.9740 H   0  0  0  0  0  0  0  0  0  0  0  0
   48.5670   35.7980   42.8480 H   0  0  0  0  0  0  0  0  0  0  0  0
   48.4710   35.8390   40.9910 H   0  0  0  0  0  0  0  0  0  0  0  0
   48.3250   33.3230   42.8740 H   0  0  0  0  0  0  0  0  0  0  0  0
   48.4750   33.2970   41.0460 H   0  0  0  0  0  0  0  0  0  0  0  0
  1  7  1  0  0  0  0
  1  6  1  0  0  0  0
  2  1  2  0  0  0  0
  3  2  1  0  0  0  0
  3  4  2  0  0  0  0
  4  5  1  0  0  0  0
  5  6  2  0  0  0  0
  5  9  1  0  0  0  0
  8  2  1  0  0  0  0
  9 10  1  0  0  0  0
 10 15  1  0  0  0  0
 10 11  2  0  0  0  0
 11 16  1  0  0  0  0
 12 11  1  0  0  0  0
 12 17  1  0  0  0  0
 13 12  2  0  0  0  0
 14  9  2  0  0  0  0
 14 13  1  0  0  0  0
 18 13  1  0  0  0  0
 18 23  1  0  0  0  0
 19 21  1  0  0  0  0
 19 18  2  0  0  0  0
 20 19  1  0  0  0  0
 21 22  2  0  0  0  0
 22 23  1  0  0  0  0
 24 25  1  0  0  0  0
 24  3  1  0  0  0  0
 25 28  1  0  0  0  0
 26 24  1  0  0  0  0
 26 25  1  0  0  0  0
 26 30  1  0  0  0  0
 27 24  1  0  0  0  0
 29 25  1  0  0  0  0
 31 26  1  0  0  0  0
M  END
>  <minimizedAffinity>
-5.67032957

>  <minimizedRMSD>
0.31544295

$$$$
