
 OpenBabel03252506263D

 42 46  0  0  0  0  0  0  0  0999 V2000
   46.1470   30.0310   48.3870 C   0  0  0  0  0  0  0  0  0  0  0  0
   46.3670   29.5990   49.4090 H   0  0  0  0  0  0  0  0  0  0  0  0
   45.4990   30.9070   48.5920 H   0  0  0  0  0  0  0  0  0  0  0  0
   45.6260   27.6300   47.6100 C   0  0  0  0  0  0  0  0  0  0  0  0
   45.4360   29.0050   47.6410 C   0  0  0  0  0  0  0  0  0  0  0  0
   44.4240   29.4850   46.8400 C   0  0  0  0  0  0  0  0  0  0  0  0
   43.6380   28.6710   46.0530 C   0  0  0  0  0  0  0  0  0  0  0  0
   42.6130   28.8520   45.2050 N   0  0  0  0  0  0  0  0  0  0  0  0
   42.1950   27.6980   44.6880 C   0  0  0  0  0  0  0  0  0  0  0  0
   42.9650   26.6840   45.2020 C   0  0  0  0  0  0  0  0  0  0  0  0
   43.8450   27.3030   46.0380 C   0  0  0  0  0  0  0  0  0  0  0  0
   44.8470   26.8080   46.8260 C   0  0  0  0  0  0  0  0  0  0  0  0
   46.4370   27.3830   48.2710 H   0  0  0  0  0  0  0  0  0  0  0  0
   44.1530   30.5260   46.7540 H   0  0  0  0  0  0  0  0  0  0  0  0
   42.1950   29.8030   44.9820 H   0  0  0  0  0  0  0  0  0  0  0  0
   41.3800   27.6240   43.9830 H   0  0  0  0  0  0  0  0  0  0  0  0
   42.7900   25.6790   44.9160 H   0  0  0  0  0  0  0  0  0  0  0  0
   45.2230   25.4170   46.9480 C   0  0  0  0  0  0  0  0  0  0  0  0
   46.3010   24.8120   47.4020 C   0  0  0  0  0  0  0  0  0  0  0  0
   47.2040   25.1980   47.8030 H   0  0  0  0  0  0  0  0  0  0  0  0
   46.4440   23.4710   47.4380 C   0  0  0  0  0  3  0  0  0  0  0  0
   45.3660   22.7020   46.9590 C   0  0  0  0  0  3  0  0  0  0  0  0
   44.1910   24.0810   46.4790 S   0  0  0  0  0  0  0  0  0  0  0  0
   47.4460   30.4860   47.8360 C   0  0  0  0  0  0  0  0  0  0  0  0
   47.8820   31.2130   48.5670 H   0  0  0  0  0  0  0  0  0  0  0  0
   48.1320   29.6550   47.6920 H   0  0  0  0  0  0  0  0  0  0  0  0
   46.5910   32.7560   45.2050 C   0  0  0  0  0  0  0  0  0  0  0  0
   47.2490   31.7360   44.5010 C   0  0  0  0  0  0  0  0  0  0  0  0
   47.6430   30.7810   45.3800 C   0  0  0  0  0  0  0  0  0  0  0  0
   47.2410   31.1960   46.5840 N   0  0  0  0  0  0  0  0  0  0  0  0
   46.6080   32.3820   46.4940 N   0  0  0  0  0  0  0  0  0  0  0  0
   47.4410   31.6710   43.4330 H   0  0  0  0  0  0  0  0  0  0  0  0
   48.1780   29.8520   45.1880 H   0  0  0  0  0  0  0  0  0  0  0  0
   44.5610   35.7440   44.7070 C   0  0  0  0  0  0  0  0  0  0  0  0
   44.9500   36.2080   43.4610 C   0  0  0  0  0  0  0  0  0  0  0  0
   45.9220   35.4800   42.7910 C   0  0  0  0  0  0  0  0  0  0  0  0
   46.4250   34.3700   43.3930 N   0  0  0  0  0  0  0  0  0  0  0  0
   46.0280   33.9510   44.5950 C   0  0  0  0  0  0  0  0  0  0  0  0
   45.0950   34.6420   45.2470 N   0  0  0  0  0  0  0  0  0  0  0  0
   43.8030   36.3250   45.2130 H   0  0  0  0  0  0  0  0  0  0  0  0
   44.5620   37.0760   42.9810 H   0  0  0  0  0  0  0  0  0  0  0  0
   46.3310   35.6990   41.8290 H   0  0  0  0  0  0  0  0  0  0  0  0
  1  3  1  0  0  0  0
  1  2  1  0  0  0  0
  4  5  1  0  0  0  0
  4 13  1  0  0  0  0
  5  1  1  0  0  0  0
  6  5  2  0  0  0  0
  7  6  1  0  0  0  0
  8  7  1  0  0  0  0
  9 10  2  0  0  0  0
  9  8  1  0  0  0  0
 10 11  1  0  0  0  0
 11  7  2  0  0  0  0
 11 12  1  0  0  0  0
 12 18  1  0  0  0  0
 12  4  2  0  0  0  0
 14  6  1  0  0  0  0
 15  8  1  0  0  0  0
 16  9  1  0  0  0  0
 17 10  1  0  0  0  0
 18 19  2  0  0  0  0
 19 21  1  0  0  0  0
 19 20  1  0  0  0  0
 22 21  2  0  0  0  0
 23 18  1  0  0  0  0
 23 22  1  0  0  0  0
 24  1  1  0  0  0  0
 24 25  1  0  0  0  0
 26 24  1  0  0  0  0
 27 31  2  0  0  0  0
 28 27  1  0  0  0  0
 28 29  2  0  0  0  0
 29 30  1  0  0  0  0
 30 24  1  0  0  0  0
 31 30  1  0  0  0  0
 32 28  1  0  0  0  0
 33 29  1  0  0  0  0
 34 40  1  0  0  0  0
 34 39  1  0  0  0  0
 35 34  2  0  0  0  0
 36 37  2  0  0  0  0
 36 35  1  0  0  0  0
 37 38  1  0  0  0  0
 38 27  1  0  0  0  0
 38 39  2  0  0  0  0
 41 35  1  0  0  0  0
 42 36  1  0  0  0  0
M  END
>  <minimizedAffinity>
-5.25154781

>  <minimizedRMSD>
0.700229704

$$$$
