
 OpenBabel03242523093D

 42 46  0  0  1  0  0  0  0  0999 V2000
   41.7740   33.9040   40.4710 C   0  0  0  0  0  0  0  0  0  0  0  0
   40.9170   32.8250   40.6580 C   0  0  0  0  0  0  0  0  0  0  0  0
   41.2560   31.8960   41.6070 C   0  0  0  0  0  0  0  0  0  0  0  0
   42.4120   32.0660   42.3210 N   0  0  0  0  0  0  0  0  0  0  0  0
   43.2230   33.1220   42.1170 C   0  0  0  0  0  0  0  0  0  0  0  0
   42.9030   34.0250   41.2030 N   0  0  0  0  0  0  0  0  0  0  0  0
   41.5380   34.6590   39.7310 H   0  0  0  0  0  0  0  0  0  0  0  0
   44.1480   33.3210   42.6400 H   0  0  0  0  0  0  0  0  0  0  0  0
   39.7790   32.7400   39.8580 N   0  0  0  0  0  0  0  0  0  0  0  0
   39.7280   31.9400   38.6940 C   0  0  0  0  0  0  0  0  0  0  0  0
   38.3710   31.8450   38.0450 C   0  0  0  0  0  0  0  0  0  0  0  0
   37.2760   31.7540   38.9270 N   0  0  0  0  0  0  0  0  0  0  0  0
   37.3330   32.5480   40.0780 C   0  0  0  0  0  0  0  0  0  0  0  0
   38.5610   33.4340   40.1010 C   0  0  0  0  0  0  0  0  0  0  0  0
   40.3800   32.4440   37.9260 H   0  0  0  0  0  0  0  0  0  0  0  0
   40.2000   30.9410   38.8290 H   0  0  0  0  0  0  0  0  0  0  0  0
   38.3960   30.9520   37.3830 H   0  0  0  0  0  0  0  0  0  0  0  0
   38.1830   32.6990   37.3490 H   0  0  0  0  0  0  0  0  0  0  0  0
   36.8780   30.7910   39.0610 H   0  0  0  0  0  0  0  0  0  0  0  0
   36.4560   33.2620   40.0450 H   0  0  0  0  0  0  0  0  0  0  0  0
   37.1910   32.0060   41.0350 H   0  0  0  0  0  0  0  0  0  0  0  0
   38.3810   34.2340   39.3400 H   0  0  0  0  0  0  0  0  0  0  0  0
   38.5740   33.9150   41.1210 H   0  0  0  0  0  0  0  0  0  0  0  0
   41.5450   29.7420   42.5160 C   0  0  0  0  0  0  0  0  0  0  0  0
   40.6340   30.7070   42.0350 C   0  0  0  0  0  0  0  0  0  0  0  0
   39.3460   30.2010   42.0470 C   0  0  0  0  0  0  0  0  0  0  0  0
   38.9660   28.9610   42.4500 C   0  0  0  0  0  0  0  0  0  0  0  0
   39.9270   28.0780   42.8990 C   0  0  0  0  0  0  0  0  0  0  0  0
   41.2320   28.4640   42.9390 C   0  0  0  0  0  0  0  0  0  0  0  0
   39.2330   26.9280   43.2130 O   0  0  0  0  0  0  0  0  0  0  0  0
   37.8480   27.1080   42.9890 C   0  0  1  0  0  0  0  0  0  0  0  0
   37.6850   28.4300   42.4800 O   0  0  0  0  0  0  0  0  0  0  0  0
   42.6450   29.8130   42.6550 H   0  0  0  0  0  0  0  0  0  0  0  0
   38.6700   30.9090   41.6880 H   0  0  0  0  0  0  0  0  0  0  0  0
   41.8850   27.7180   43.3020 H   0  0  0  0  0  0  0  0  0  0  0  0
   37.2810   26.9400   43.9050 H   0  0  0  0  0  0  0  0  0  0  0  0
   37.3330   26.1180   42.0000 C   0  0  0  0  0  0  0  0  0  0  0  0
   37.0040   24.7620   42.1980 C   0  0  0  0  0  0  0  0  0  0  0  0
   37.1300   24.3620   43.1900 H   0  0  0  0  0  0  0  0  0  0  0  0
   36.5520   24.0950   41.0870 C   0  0  0  0  0  3  0  0  0  0  0  0
   36.4400   24.7240   39.8890 C   0  0  0  0  0  3  0  0  0  0  0  0
   37.0090   26.4350   40.2720 S   0  0  0  0  0  0  0  0  0  0  0  0
  1  2  2  0  0  0  0
  1  6  1  0  0  0  0
  2  3  1  0  0  0  0
  3 25  1  0  0  0  0
  3  4  2  0  0  0  0
  5  4  1  0  0  0  0
  5  8  1  0  0  0  0
  6  5  2  0  0  0  0
  7  1  1  0  0  0  0
  9 14  1  0  0  0  0
  9  2  1  0  0  0  0
 10 16  1  0  0  0  0
 10  9  1  0  0  0  0
 11 10  1  0  0  0  0
 11 12  1  0  0  0  0
 12 19  1  0  0  0  0
 12 13  1  0  0  0  0
 13 14  1  0  0  0  0
 13 21  1  0  0  0  0
 14 23  1  0  0  0  0
 15 10  1  0  0  0  0
 17 11  1  0  0  0  0
 18 11  1  0  0  0  0
 20 13  1  0  0  0  0
 22 14  1  0  0  0  0
 24 33  1  0  0  0  0
 24 29  1  0  0  0  0
 25 26  1  0  0  0  0
 25 24  2  0  0  0  0
 26 27  2  0  0  0  0
 27 32  1  0  0  0  0
 27 28  1  0  0  0  0
 28 29  2  0  0  0  0
 28 30  1  0  0  0  0
 29 35  1  0  0  0  0
 31 30  1  0  0  0  0
 31 36  1  1  0  0  0
 32 31  1  0  0  0  0
 34 26  1  0  0  0  0
 37 38  2  0  0  0  0
 37 31  1  0  0  0  0
 38 39  1  0  0  0  0
 40 38  1  0  0  0  0
 41 42  1  0  0  0  0
 41 40  2  0  0  0  0
 42 37  1  0  0  0  0
M  END
>  <minimizedAffinity>
-6.15245724

$$$$

 OpenBabel03242523093D

 42 46  0  0  1  0  0  0  0  0999 V2000
   38.1890   29.8540   42.2180 C   0  0  0  0  0  0  0  0  0  0  0  0
   37.4480   30.0410   41.0580 C   0  0  0  0  0  0  0  0  0  0  0  0
   36.4780   29.1210   40.7610 C   0  0  0  0  0  0  0  0  0  0  0  0
   36.2820   28.0650   41.6110 N   0  0  0  0  0  0  0  0  0  0  0  0
   37.0170   27.9080   42.7300 C   0  0  0  0  0  0  0  0  0  0  0  0
   37.9560   28.7950   43.0230 N   0  0  0  0  0  0  0  0  0  0  0  0
   38.9650   30.5620   42.4850 H   0  0  0  0  0  0  0  0  0  0  0  0
   36.9200   27.1030   43.4440 H   0  0  0  0  0  0  0  0  0  0  0  0
   37.7490   31.1400   40.2540 N   0  0  0  0  0  0  0  0  0  0  0  0
   36.9830   32.3280   40.2740 C   0  0  0  0  0  0  0  0  0  0  0  0
   37.5480   33.4640   39.4610 C   0  0  0  0  0  0  0  0  0  0  0  0
   38.9480   33.6100   39.5020 N   0  0  0  0  0  0  0  0  0  0  0  0
   39.7010   32.4300   39.4810 C   0  0  0  0  0  0  0  0  0  0  0  0
   38.8300   31.2000   39.3310 C   0  0  0  0  0  0  0  0  0  0  0  0
   35.9970   32.0850   39.7870 H   0  0  0  0  0  0  0  0  0  0  0  0
   36.7000   32.6470   41.3020 H   0  0  0  0  0  0  0  0  0  0  0  0
   37.0620   34.3930   39.8300 H   0  0  0  0  0  0  0  0  0  0  0  0
   37.2390   33.3990   38.3880 H   0  0  0  0  0  0  0  0  0  0  0  0
   39.3090   34.3660   40.1370 H   0  0  0  0  0  0  0  0  0  0  0  0
   40.3440   32.4510   38.5510 H   0  0  0  0  0  0  0  0  0  0  0  0
   40.4360   32.3230   40.3040 H   0  0  0  0  0  0  0  0  0  0  0  0
   38.4710   31.2020   38.2710 H   0  0  0  0  0  0  0  0  0  0  0  0
   39.5190   30.3170   39.4670 H   0  0  0  0  0  0  0  0  0  0  0  0
   36.1950   28.6490   38.4710 C   0  0  0  0  0  0  0  0  0  0  0  0
   35.5740   29.0070   39.6870 C   0  0  0  0  0  0  0  0  0  0  0  0
   34.2210   29.2220   39.4920 C   0  0  0  0  0  0  0  0  0  0  0  0
   33.5450   29.1210   38.3180 C   0  0  0  0  0  0  0  0  0  0  0  0
   34.2360   28.7710   37.1760 C   0  0  0  0  0  0  0  0  0  0  0  0
   35.5730   28.5280   37.2430 C   0  0  0  0  0  0  0  0  0  0  0  0
   33.2860   28.7680   36.1750 O   0  0  0  0  0  0  0  0  0  0  0  0
   32.0110   29.0820   36.7010 C   0  0  1  0  0  0  0  0  0  0  0  0
   32.1920   29.3220   38.0940 O   0  0  0  0  0  0  0  0  0  0  0  0
   37.2560   28.3940   38.2650 H   0  0  0  0  0  0  0  0  0  0  0  0
   33.7590   29.4910   40.3870 H   0  0  0  0  0  0  0  0  0  0  0  0
   36.0040   28.2650   36.3150 H   0  0  0  0  0  0  0  0  0  0  0  0
   31.3010   28.2790   36.5030 H   0  0  0  0  0  0  0  0  0  0  0  0
   31.4470   30.2970   36.0460 C   0  0  0  0  0  0  0  0  0  0  0  0
   30.6460   31.3110   36.6060 C   0  0  0  0  0  0  0  0  0  0  0  0
   30.3920   31.2230   37.6490 H   0  0  0  0  0  0  0  0  0  0  0  0
   30.2740   32.3140   35.7460 C   0  0  0  0  0  3  0  0  0  0  0  0
   30.6650   32.3040   34.4450 C   0  0  0  0  0  3  0  0  0  0  0  0
   31.6640   30.7590   34.3330 S   0  0  0  0  0  0  0  0  0  0  0  0
  1  7  1  0  0  0  0
  1  6  1  0  0  0  0
  2  1  2  0  0  0  0
  3  2  1  0  0  0  0
  3  4  2  0  0  0  0
  4  5  1  0  0  0  0
  5  6  2  0  0  0  0
  5  8  1  0  0  0  0
  9 10  1  0  0  0  0
  9  2  1  0  0  0  0
 10 16  1  0  0  0  0
 11 12  1  0  0  0  0
 11 17  1  0  0  0  0
 11 10  1  0  0  0  0
 12 19  1  0  0  0  0
 13 12  1  0  0  0  0
 13 21  1  0  0  0  0
 14 23  1  0  0  0  0
 14 13  1  0  0  0  0
 14  9  1  0  0  0  0
 15 10  1  0  0  0  0
 18 11  1  0  0  0  0
 20 13  1  0  0  0  0
 22 14  1  0  0  0  0
 24 25  1  0  0  0  0
 25  3  1  0  0  0  0
 26 25  2  0  0  0  0
 26 34  1  0  0  0  0
 27 26  1  0  0  0  0
 28 29  1  0  0  0  0
 28 27  2  0  0  0  0
 29 24  2  0  0  0  0
 30 31  1  0  0  0  0
 30 28  1  0  0  0  0
 31 36  1  6  0  0  0
 31 32  1  0  0  0  0
 32 27  1  0  0  0  0
 33 24  1  0  0  0  0
 35 29  1  0  0  0  0
 37 38  2  0  0  0  0
 37 31  1  0  0  0  0
 38 39  1  0  0  0  0
 40 38  1  0  0  0  0
 41 40  2  0  0  0  0
 42 41  1  0  0  0  0
 42 37  1  0  0  0  0
M  END
>  <minimizedAffinity>
-6.14925718

$$$$

 OpenBabel03242523093D

 42 46  0  0  1  0  0  0  0  0999 V2000
   38.3170   22.7860   40.6270 C   0  0  0  0  0  0  0  0  0  0  0  0
   38.3010   24.1650   40.8030 C   0  0  0  0  0  0  0  0  0  0  0  0
   37.2410   24.8640   40.2860 C   0  0  0  0  0  0  0  0  0  0  0  0
   36.2550   24.1820   39.6250 N   0  0  0  0  0  0  0  0  0  0  0  0
   36.2970   22.8440   39.4700 C   0  0  0  0  0  0  0  0  0  0  0  0
   37.3180   22.1620   39.9660 N   0  0  0  0  0  0  0  0  0  0  0  0
   39.1380   22.2010   41.0220 H   0  0  0  0  0  0  0  0  0  0  0  0
   35.5580   22.2420   38.9610 H   0  0  0  0  0  0  0  0  0  0  0  0
   39.3700   24.7560   41.4720 N   0  0  0  0  0  0  0  0  0  0  0  0
   39.5050   24.7090   42.8790 C   0  0  0  0  0  0  0  0  0  0  0  0
   40.8020   25.2610   43.4140 C   0  0  0  0  0  0  0  0  0  0  0  0
   41.9510   24.9680   42.6550 N   0  0  0  0  0  0  0  0  0  0  0  0
   41.8110   25.0160   41.2630 C   0  0  0  0  0  0  0  0  0  0  0  0
   40.4290   25.4700   40.8430 C   0  0  0  0  0  0  0  0  0  0  0  0
   38.7070   25.3810   43.3030 H   0  0  0  0  0  0  0  0  0  0  0  0
   39.2660   23.7100   43.3070 H   0  0  0  0  0  0  0  0  0  0  0  0
   40.9180   24.8600   44.4440 H   0  0  0  0  0  0  0  0  0  0  0  0
   40.7530   26.3700   43.5530 H   0  0  0  0  0  0  0  0  0  0  0  0
   42.5530   24.1880   43.0230 H   0  0  0  0  0  0  0  0  0  0  0  0
   42.5130   25.8150   40.8760 H   0  0  0  0  0  0  0  0  0  0  0  0
   42.1330   24.1030   40.7220 H   0  0  0  0  0  0  0  0  0  0  0  0
   40.3800   26.5650   41.0670 H   0  0  0  0  0  0  0  0  0  0  0  0
   40.3880   25.3370   39.7240 H   0  0  0  0  0  0  0  0  0  0  0  0
   36.2620   26.6480   39.1010 C   0  0  0  0  0  0  0  0  0  0  0  0
   36.9240   26.2360   40.2770 C   0  0  0  0  0  0  0  0  0  0  0  0
   37.1540   27.3210   41.1050 C   0  0  0  0  0  0  0  0  0  0  0  0
   36.8140   28.6130   40.8610 C   0  0  0  0  0  0  0  0  0  0  0  0
   36.1740   28.9260   39.6790 C   0  0  0  0  0  0  0  0  0  0  0  0
   35.8880   27.9410   38.7850 C   0  0  0  0  0  0  0  0  0  0  0  0
   35.9840   30.2920   39.7300 O   0  0  0  0  0  0  0  0  0  0  0  0
   36.4740   30.8150   40.9490 C   0  0  1  0  0  0  0  0  0  0  0  0
   37.0240   29.7170   41.6730 O   0  0  0  0  0  0  0  0  0  0  0  0
   35.9140   26.0450   38.2350 H   0  0  0  0  0  0  0  0  0  0  0  0
   37.6470   27.0220   41.9740 H   0  0  0  0  0  0  0  0  0  0  0  0
   35.3950   28.2840   37.9170 H   0  0  0  0  0  0  0  0  0  0  0  0
   35.6830   31.3250   41.4990 H   0  0  0  0  0  0  0  0  0  0  0  0
   37.5290   31.8400   40.7040 C   0  0  0  0  0  0  0  0  0  0  0  0
   37.4330   33.0540   39.9960 C   0  0  0  0  0  0  0  0  0  0  0  0
   36.4780   33.3000   39.5620 H   0  0  0  0  0  0  0  0  0  0  0  0
   38.5860   33.7970   39.9370 C   0  0  0  0  0  3  0  0  0  0  0  0
   39.7280   33.3670   40.5310 C   0  0  0  0  0  3  0  0  0  0  0  0
   39.2210   31.7580   41.2730 S   0  0  0  0  0  0  0  0  0  0  0  0
  1  2  1  0  0  0  0
  1  7  1  0  0  0  0
  2  9  1  0  0  0  0
  3  2  2  0  0  0  0
  4  3  1  0  0  0  0
  5  4  2  0  0  0  0
  5  6  1  0  0  0  0
  6  1  2  0  0  0  0
  8  5  1  0  0  0  0
  9 10  1  0  0  0  0
 10 15  1  0  0  0  0
 10 16  1  0  0  0  0
 10 11  1  0  0  0  0
 11 18  1  0  0  0  0
 11 17  1  0  0  0  0
 12 19  1  0  0  0  0
 12 11  1  0  0  0  0
 13 12  1  0  0  0  0
 14 22  1  0  0  0  0
 14 13  1  0  0  0  0
 14  9  1  0  0  0  0
 20 13  1  0  0  0  0
 21 13  1  0  0  0  0
 23 14  1  0  0  0  0
 24 25  1  0  0  0  0
 25  3  1  0  0  0  0
 25 26  2  0  0  0  0
 26 34  1  0  0  0  0
 27 26  1  0  0  0  0
 27 32  1  0  0  0  0
 28 30  1  0  0  0  0
 28 27  2  0  0  0  0
 29 24  2  0  0  0  0
 29 28  1  0  0  0  0
 30 31  1  0  0  0  0
 31 36  1  1  0  0  0
 31 32  1  0  0  0  0
 33 24  1  0  0  0  0
 35 29  1  0  0  0  0
 37 31  1  0  0  0  0
 37 42  1  0  0  0  0
 38 37  2  0  0  0  0
 39 38  1  0  0  0  0
 40 38  1  0  0  0  0
 40 41  2  0  0  0  0
 41 42  1  0  0  0  0
M  END
>  <minimizedAffinity>
-5.9168911

$$$$

 OpenBabel03242523093D

 42 46  0  0  1  0  0  0  0  0999 V2000
   39.8330   31.1570   41.8180 C   0  0  0  0  0  0  0  0  0  0  0  0
   38.8610   30.3520   41.2360 C   0  0  0  0  0  0  0  0  0  0  0  0
   38.2970   30.7770   40.0620 C   0  0  0  0  0  0  0  0  0  0  0  0
   38.7100   31.9640   39.5180 N   0  0  0  0  0  0  0  0  0  0  0  0
   39.6560   32.7230   40.1050 C   0  0  0  0  0  0  0  0  0  0  0  0
   40.2050   32.3190   41.2400 N   0  0  0  0  0  0  0  0  0  0  0  0
   40.3010   30.8530   42.7470 H   0  0  0  0  0  0  0  0  0  0  0  0
   40.0290   33.6680   39.7350 H   0  0  0  0  0  0  0  0  0  0  0  0
   38.5010   29.1750   41.8900 N   0  0  0  0  0  0  0  0  0  0  0  0
   37.7050   29.1700   43.0590 C   0  0  0  0  0  0  0  0  0  0  0  0
   37.2830   27.8040   43.5360 C   0  0  0  0  0  0  0  0  0  0  0  0
   36.9380   26.8830   42.5280 N   0  0  0  0  0  0  0  0  0  0  0  0
   37.7290   26.8940   41.3730 C   0  0  0  0  0  0  0  0  0  0  0  0
   38.8840   27.8680   41.4810 C   0  0  0  0  0  0  0  0  0  0  0  0
   38.3460   29.5800   43.8890 H   0  0  0  0  0  0  0  0  0  0  0  0
   36.8490   29.8800   43.0090 H   0  0  0  0  0  0  0  0  0  0  0  0
   36.4180   27.9570   44.2180 H   0  0  0  0  0  0  0  0  0  0  0  0
   38.0640   27.3310   44.1820 H   0  0  0  0  0  0  0  0  0  0  0  0
   35.9070   26.7460   42.3690 H   0  0  0  0  0  0  0  0  0  0  0  0
   38.2110   25.8750   41.2790 H   0  0  0  0  0  0  0  0  0  0  0  0
   37.1740   27.0080   40.4190 H   0  0  0  0  0  0  0  0  0  0  0  0
   39.6120   27.4070   42.1940 H   0  0  0  0  0  0  0  0  0  0  0  0
   39.3590   27.8950   40.4590 H   0  0  0  0  0  0  0  0  0  0  0  0
   37.6870   30.1470   37.8760 C   0  0  0  0  0  0  0  0  0  0  0  0
   37.3030   30.2230   39.2320 C   0  0  0  0  0  0  0  0  0  0  0  0
   35.9990   29.7880   39.3880 C   0  0  0  0  0  0  0  0  0  0  0  0
   35.1690   29.3460   38.4080 C   0  0  0  0  0  0  0  0  0  0  0  0
   35.6280   29.3120   37.1070 C   0  0  0  0  0  0  0  0  0  0  0  0
   36.8980   29.7110   36.8280 C   0  0  0  0  0  0  0  0  0  0  0  0
   34.5630   28.8380   36.3680 O   0  0  0  0  0  0  0  0  0  0  0  0
   33.4640   28.5510   37.2110 C   0  0  1  0  0  0  0  0  0  0  0  0
   33.8640   28.8960   38.5350 O   0  0  0  0  0  0  0  0  0  0  0  0
   38.6580   30.3990   37.3980 H   0  0  0  0  0  0  0  0  0  0  0  0
   35.7100   29.8460   40.3880 H   0  0  0  0  0  0  0  0  0  0  0  0
   37.1510   29.6420   35.8050 H   0  0  0  0  0  0  0  0  0  0  0  0
   33.1690   27.5040   37.1230 H   0  0  0  0  0  0  0  0  0  0  0  0
   32.2670   29.3480   36.8180 C   0  0  0  0  0  0  0  0  0  0  0  0
   31.2450   29.8680   37.6360 C   0  0  0  0  0  0  0  0  0  0  0  0
   31.3140   29.6810   38.6950 H   0  0  0  0  0  0  0  0  0  0  0  0
   30.2610   30.5660   36.9820 C   0  0  0  0  0  3  0  0  0  0  0  0
   30.2950   30.7290   35.6340 C   0  0  0  0  0  3  0  0  0  0  0  0
   31.8360   29.8400   35.1550 S   0  0  0  0  0  0  0  0  0  0  0  0
  1  7  1  0  0  0  0
  2  1  2  0  0  0  0
  2  9  1  0  0  0  0
  3  2  1  0  0  0  0
  4  3  2  0  0  0  0
  4  5  1  0  0  0  0
  5  6  2  0  0  0  0
  6  1  1  0  0  0  0
  8  5  1  0  0  0  0
  9 10  1  0  0  0  0
 10 11  1  0  0  0  0
 10 15  1  0  0  0  0
 11 18  1  0  0  0  0
 11 17  1  0  0  0  0
 12 11  1  0  0  0  0
 13 14  1  0  0  0  0
 13 12  1  0  0  0  0
 14  9  1  0  0  0  0
 14 22  1  0  0  0  0
 16 10  1  0  0  0  0
 19 12  1  0  0  0  0
 20 13  1  0  0  0  0
 21 13  1  0  0  0  0
 23 14  1  0  0  0  0
 24 25  1  0  0  0  0
 25 26  2  0  0  0  0
 25  3  1  0  0  0  0
 26 34  1  0  0  0  0
 27 32  1  0  0  0  0
 27 26  1  0  0  0  0
 28 27  2  0  0  0  0
 29 28  1  0  0  0  0
 29 24  2  0  0  0  0
 30 28  1  0  0  0  0
 30 31  1  0  0  0  0
 31 36  1  6  0  0  0
 31 32  1  0  0  0  0
 33 24  1  0  0  0  0
 35 29  1  0  0  0  0
 37 31  1  0  0  0  0
 37 38  2  0  0  0  0
 38 39  1  0  0  0  0
 40 38  1  0  0  0  0
 41 40  2  0  0  0  0
 42 41  1  0  0  0  0
 42 37  1  0  0  0  0
M  END
>  <minimizedAffinity>
-5.65347958

$$$$

 OpenBabel03242523093D

 42 46  0  0  1  0  0  0  0  0999 V2000
   36.5650   24.2980   40.3210 C   0  0  0  0  0  0  0  0  0  0  0  0
   36.9550   25.6100   40.5620 C   0  0  0  0  0  0  0  0  0  0  0  0
   36.6840   26.5460   39.5980 C   0  0  0  0  0  0  0  0  0  0  0  0
   36.0480   26.1520   38.4500 N   0  0  0  0  0  0  0  0  0  0  0  0
   35.6820   24.8720   38.2440 C   0  0  0  0  0  0  0  0  0  0  0  0
   35.9410   23.9620   39.1720 N   0  0  0  0  0  0  0  0  0  0  0  0
   36.7620   23.5310   41.0610 H   0  0  0  0  0  0  0  0  0  0  0  0
   35.1810   24.4900   37.3670 H   0  0  0  0  0  0  0  0  0  0  0  0
   37.6160   25.8930   41.7550 N   0  0  0  0  0  0  0  0  0  0  0  0
   38.9780   25.5750   41.9630 C   0  0  0  0  0  0  0  0  0  0  0  0
   39.5660   26.0970   43.2480 C   0  0  0  0  0  0  0  0  0  0  0  0
   39.1500   27.3860   43.6320 N   0  0  0  0  0  0  0  0  0  0  0  0
   37.8010   27.6960   43.4250 C   0  0  0  0  0  0  0  0  0  0  0  0
   37.0200   26.5140   42.8880 C   0  0  0  0  0  0  0  0  0  0  0  0
   39.0380   24.4530   42.0520 H   0  0  0  0  0  0  0  0  0  0  0  0
   39.6200   25.8060   41.0830 H   0  0  0  0  0  0  0  0  0  0  0  0
   40.6710   26.0800   43.1240 H   0  0  0  0  0  0  0  0  0  0  0  0
   39.3740   25.4030   44.1040 H   0  0  0  0  0  0  0  0  0  0  0  0
   39.8290   28.1630   43.4310 H   0  0  0  0  0  0  0  0  0  0  0  0
   37.3410   27.9180   44.4340 H   0  0  0  0  0  0  0  0  0  0  0  0
   37.6110   28.6210   42.8430 H   0  0  0  0  0  0  0  0  0  0  0  0
   36.9110   25.8010   43.7430 H   0  0  0  0  0  0  0  0  0  0  0  0
   35.9970   26.9140   42.6300 H   0  0  0  0  0  0  0  0  0  0  0  0
   36.1440   28.5910   38.5620 C   0  0  0  0  0  0  0  0  0  0  0  0
   36.9430   27.9280   39.5170 C   0  0  0  0  0  0  0  0  0  0  0  0
   37.8390   28.8120   40.0920 C   0  0  0  0  0  0  0  0  0  0  0  0
   37.9700   30.1330   39.8070 C   0  0  0  0  0  0  0  0  0  0  0  0
   37.1490   30.6970   38.8520 C   0  0  0  0  0  0  0  0  0  0  0  0
   36.2220   29.9280   38.2190 C   0  0  0  0  0  0  0  0  0  0  0  0
   37.5340   32.0200   38.7900 O   0  0  0  0  0  0  0  0  0  0  0  0
   38.5650   32.2800   39.7230 C   0  0  1  0  0  0  0  0  0  0  0  0
   38.8500   31.0440   40.3720 O   0  0  0  0  0  0  0  0  0  0  0  0
   35.3220   28.1950   37.9280 H   0  0  0  0  0  0  0  0  0  0  0  0
   38.4350   28.3250   40.7960 H   0  0  0  0  0  0  0  0  0  0  0  0
   35.6430   30.4550   37.5110 H   0  0  0  0  0  0  0  0  0  0  0  0
   38.2670   33.0610   40.4230 H   0  0  0  0  0  0  0  0  0  0  0  0
   39.7890   32.7880   39.0390 C   0  0  0  0  0  0  0  0  0  0  0  0
   40.6140   33.8730   39.3960 C   0  0  0  0  0  0  0  0  0  0  0  0
   40.3490   34.4270   40.2810 H   0  0  0  0  0  0  0  0  0  0  0  0
   41.6800   34.1040   38.5640 C   0  0  0  0  0  3  0  0  0  0  0  0
   41.9010   33.3240   37.4740 C   0  0  0  0  0  3  0  0  0  0  0  0
   40.5130   32.1140   37.5510 S   0  0  0  0  0  0  0  0  0  0  0  0
  1  2  1  0  0  0  0
  1  7  1  0  0  0  0
  2  9  1  0  0  0  0
  3  2  2  0  0  0  0
  4  3  1  0  0  0  0
  5  4  2  0  0  0  0
  5  6  1  0  0  0  0
  6  1  2  0  0  0  0
  8  5  1  0  0  0  0
  9 10  1  0  0  0  0
  9 14  1  0  0  0  0
 10 15  1  0  0  0  0
 10 11  1  0  0  0  0
 11 12  1  0  0  0  0
 11 18  1  0  0  0  0
 13 12  1  0  0  0  0
 13 20  1  0  0  0  0
 14 13  1  0  0  0  0
 14 22  1  0  0  0  0
 16 10  1  0  0  0  0
 17 11  1  0  0  0  0
 19 12  1  0  0  0  0
 21 13  1  0  0  0  0
 23 14  1  0  0  0  0
 24 25  1  0  0  0  0
 25  3  1  0  0  0  0
 25 26  2  0  0  0  0
 26 34  1  0  0  0  0
 27 26  1  0  0  0  0
 27 32  1  0  0  0  0
 28 27  2  0  0  0  0
 29 24  2  0  0  0  0
 29 28  1  0  0  0  0
 30 28  1  0  0  0  0
 30 31  1  0  0  0  0
 31 32  1  0  0  0  0
 31 36  1  1  0  0  0
 33 24  1  0  0  0  0
 35 29  1  0  0  0  0
 37 38  2  0  0  0  0
 37 31  1  0  0  0  0
 38 39  1  0  0  0  0
 40 38  1  0  0  0  0
 41 42  1  0  0  0  0
 41 40  2  0  0  0  0
 42 37  1  0  0  0  0
M  END
>  <minimizedAffinity>
-5.63312674

$$$$

 OpenBabel03242523093D

 42 46  0  0  1  0  0  0  0  0999 V2000
   38.3240   29.6190   42.6960 C   0  0  0  0  0  0  0  0  0  0  0  0
   37.7980   29.9360   41.4490 C   0  0  0  0  0  0  0  0  0  0  0  0
   36.7910   29.1470   40.9590 C   0  0  0  0  0  0  0  0  0  0  0  0
   36.3510   28.0890   41.7090 N   0  0  0  0  0  0  0  0  0  0  0  0
   36.8800   27.8060   42.9160 C   0  0  0  0  0  0  0  0  0  0  0  0
   37.8540   28.5650   43.3960 N   0  0  0  0  0  0  0  0  0  0  0  0
   39.1210   30.2220   43.1150 H   0  0  0  0  0  0  0  0  0  0  0  0
   36.5860   26.9900   43.5610 H   0  0  0  0  0  0  0  0  0  0  0  0
   38.3390   31.0220   40.7620 N   0  0  0  0  0  0  0  0  0  0  0  0
   39.6310   30.9890   40.1870 C   0  0  0  0  0  0  0  0  0  0  0  0
   39.9860   32.1900   39.3480 C   0  0  0  0  0  0  0  0  0  0  0  0
   38.9470   32.7060   38.5490 N   0  0  0  0  0  0  0  0  0  0  0  0
   37.6710   32.7360   39.1230 C   0  0  0  0  0  0  0  0  0  0  0  0
   37.6820   32.2680   40.5630 C   0  0  0  0  0  0  0  0  0  0  0  0
   40.3650   31.0060   41.0420 H   0  0  0  0  0  0  0  0  0  0  0  0
   39.8530   30.0320   39.6650 H   0  0  0  0  0  0  0  0  0  0  0  0
   40.8410   31.8890   38.7060 H   0  0  0  0  0  0  0  0  0  0  0  0
   40.3900   33.0260   39.9720 H   0  0  0  0  0  0  0  0  0  0  0  0
   38.9810   32.4410   37.5320 H   0  0  0  0  0  0  0  0  0  0  0  0
   37.3400   33.8160   39.1670 H   0  0  0  0  0  0  0  0  0  0  0  0
   36.8730   32.2440   38.5300 H   0  0  0  0  0  0  0  0  0  0  0  0
   38.1630   33.0890   41.1520 H   0  0  0  0  0  0  0  0  0  0  0  0
   36.5990   32.2000   40.8720 H   0  0  0  0  0  0  0  0  0  0  0  0
   34.6620   29.1520   39.9520 C   0  0  0  0  0  0  0  0  0  0  0  0
   36.0590   29.1800   39.7560 C   0  0  0  0  0  0  0  0  0  0  0  0
   36.3560   29.1660   38.4040 C   0  0  0  0  0  0  0  0  0  0  0  0
   35.4660   29.1260   37.3790 C   0  0  0  0  0  0  0  0  0  0  0  0
   34.1160   29.0940   37.6650 C   0  0  0  0  0  0  0  0  0  0  0  0
   33.7000   29.1090   38.9610 C   0  0  0  0  0  0  0  0  0  0  0  0
   33.4940   29.0450   36.4340 O   0  0  0  0  0  0  0  0  0  0  0  0
   34.4520   29.0790   35.3940 C   0  0  1  0  0  0  0  0  0  0  0  0
   35.7320   29.1200   36.0190 O   0  0  0  0  0  0  0  0  0  0  0  0
   34.0780   29.1680   40.8970 H   0  0  0  0  0  0  0  0  0  0  0  0
   37.3880   29.1820   38.2550 H   0  0  0  0  0  0  0  0  0  0  0  0
   32.6500   29.0860   39.0700 H   0  0  0  0  0  0  0  0  0  0  0  0
   34.2800   29.9320   34.7360 H   0  0  0  0  0  0  0  0  0  0  0  0
   34.3470   27.8680   34.5310 C   0  0  0  0  0  0  0  0  0  0  0  0
   35.3690   27.1740   33.8540 C   0  0  0  0  0  0  0  0  0  0  0  0
   36.3740   27.5460   33.9600 H   0  0  0  0  0  0  0  0  0  0  0  0
   34.9620   26.0840   33.1270 C   0  0  0  0  0  3  0  0  0  0  0  0
   33.6550   25.7210   33.0790 C   0  0  0  0  0  3  0  0  0  0  0  0
   32.8410   26.9900   34.1380 S   0  0  0  0  0  0  0  0  0  0  0  0
  1  7  1  0  0  0  0
  1  6  1  0  0  0  0
  2  1  2  0  0  0  0
  3  2  1  0  0  0  0
  3  4  2  0  0  0  0
  4  5  1  0  0  0  0
  5  6  2  0  0  0  0
  5  8  1  0  0  0  0
  9  2  1  0  0  0  0
 10  9  1  0  0  0  0
 10 15  1  0  0  0  0
 11 18  1  0  0  0  0
 11 10  1  0  0  0  0
 12 13  1  0  0  0  0
 12 11  1  0  0  0  0
 13 20  1  0  0  0  0
 13 14  1  0  0  0  0
 14  9  1  0  0  0  0
 14 23  1  0  0  0  0
 14 22  1  0  0  0  0
 16 10  1  0  0  0  0
 17 11  1  0  0  0  0
 19 12  1  0  0  0  0
 21 13  1  0  0  0  0
 24 33  1  0  0  0  0
 25 24  1  0  0  0  0
 25  3  1  0  0  0  0
 26 25  2  0  0  0  0
 27 28  2  0  0  0  0
 27 26  1  0  0  0  0
 28 29  1  0  0  0  0
 29 35  1  0  0  0  0
 29 24  2  0  0  0  0
 30 28  1  0  0  0  0
 31 36  1  6  0  0  0
 31 32  1  0  0  0  0
 31 30  1  0  0  0  0
 32 27  1  0  0  0  0
 34 26  1  0  0  0  0
 37 31  1  0  0  0  0
 38 39  1  0  0  0  0
 38 37  2  0  0  0  0
 40 38  1  0  0  0  0
 41 40  2  0  0  0  0
 41 42  1  0  0  0  0
 42 37  1  0  0  0  0
M  END
>  <minimizedAffinity>
-5.55815363

$$$$

 OpenBabel03242523093D

 42 46  0  0  1  0  0  0  0  0999 V2000
   39.1190   27.9410   42.5360 C   0  0  0  0  0  0  0  0  0  0  0  0
   38.3640   27.6200   41.4150 C   0  0  0  0  0  0  0  0  0  0  0  0
   37.8160   28.6490   40.6950 C   0  0  0  0  0  0  0  0  0  0  0  0
   38.0320   29.9370   41.1080 N   0  0  0  0  0  0  0  0  0  0  0  0
   38.7690   30.2190   42.2000 C   0  0  0  0  0  0  0  0  0  0  0  0
   39.3020   29.2290   42.9010 N   0  0  0  0  0  0  0  0  0  0  0  0
   39.5680   27.1530   43.1290 H   0  0  0  0  0  0  0  0  0  0  0  0
   38.9810   31.2060   42.5850 H   0  0  0  0  0  0  0  0  0  0  0  0
   38.1890   26.2730   41.1010 N   0  0  0  0  0  0  0  0  0  0  0  0
   39.0950   25.5610   40.2820 C   0  0  0  0  0  0  0  0  0  0  0  0
   38.8360   24.0800   40.1820 C   0  0  0  0  0  0  0  0  0  0  0  0
   38.4240   23.4490   41.3720 N   0  0  0  0  0  0  0  0  0  0  0  0
   37.5280   24.1580   42.1790 C   0  0  0  0  0  0  0  0  0  0  0  0
   37.1040   25.4680   41.5470 C   0  0  0  0  0  0  0  0  0  0  0  0
   38.9580   25.9500   39.2340 H   0  0  0  0  0  0  0  0  0  0  0  0
   40.1610   25.7860   40.5110 H   0  0  0  0  0  0  0  0  0  0  0  0
   39.7770   23.6150   39.8150 H   0  0  0  0  0  0  0  0  0  0  0  0
   38.0840   23.8440   39.3880 H   0  0  0  0  0  0  0  0  0  0  0  0
   39.1700   22.9140   41.8850 H   0  0  0  0  0  0  0  0  0  0  0  0
   36.5790   23.5480   42.2550 H   0  0  0  0  0  0  0  0  0  0  0  0
   37.8400   24.2860   43.2350 H   0  0  0  0  0  0  0  0  0  0  0  0
   36.4160   25.1990   40.7070 H   0  0  0  0  0  0  0  0  0  0  0  0
   36.5050   26.0090   42.3340 H   0  0  0  0  0  0  0  0  0  0  0  0
   37.5910   29.3880   38.4700 C   0  0  0  0  0  0  0  0  0  0  0  0
   37.0090   28.6760   39.5410 C   0  0  0  0  0  0  0  0  0  0  0  0
   35.7430   28.2360   39.1960 C   0  0  0  0  0  0  0  0  0  0  0  0
   35.1100   28.4400   38.0120 C   0  0  0  0  0  0  0  0  0  0  0  0
   35.7530   29.1550   37.0220 C   0  0  0  0  0  0  0  0  0  0  0  0
   37.0070   29.6350   37.2420 C   0  0  0  0  0  0  0  0  0  0  0  0
   34.8560   29.1950   35.9740 O   0  0  0  0  0  0  0  0  0  0  0  0
   33.6790   28.4830   36.3020 C   0  0  1  0  0  0  0  0  0  0  0  0
   33.8480   28.0060   37.6350 O   0  0  0  0  0  0  0  0  0  0  0  0
   38.5930   29.8630   38.3960 H   0  0  0  0  0  0  0  0  0  0  0  0
   35.3080   27.7130   39.9860 H   0  0  0  0  0  0  0  0  0  0  0  0
   37.4100   30.1630   36.4210 H   0  0  0  0  0  0  0  0  0  0  0  0
   33.5000   27.6770   35.5890 H   0  0  0  0  0  0  0  0  0  0  0  0
   32.4810   29.3680   36.2290 C   0  0  0  0  0  0  0  0  0  0  0  0
   31.5730   29.7120   37.2490 C   0  0  0  0  0  0  0  0  0  0  0  0
   31.7450   29.2940   38.2270 H   0  0  0  0  0  0  0  0  0  0  0  0
   30.5560   30.5540   36.8770 C   0  0  0  0  0  3  0  0  0  0  0  0
   30.4550   31.0110   35.6020 C   0  0  0  0  0  3  0  0  0  0  0  0
   31.8990   30.2230   34.7710 S   0  0  0  0  0  0  0  0  0  0  0  0
  1  6  1  0  0  0  0
  1  7  1  0  0  0  0
  2  1  2  0  0  0  0
  3  4  2  0  0  0  0
  3  2  1  0  0  0  0
  4  5  1  0  0  0  0
  5  8  1  0  0  0  0
  5  6  2  0  0  0  0
  9  2  1  0  0  0  0
  9 14  1  0  0  0  0
 10 16  1  0  0  0  0
 10  9  1  0  0  0  0
 11 10  1  0  0  0  0
 11 12  1  0  0  0  0
 12 19  1  0  0  0  0
 12 13  1  0  0  0  0
 13 20  1  0  0  0  0
 13 21  1  0  0  0  0
 14 13  1  0  0  0  0
 14 23  1  0  0  0  0
 15 10  1  0  0  0  0
 17 11  1  0  0  0  0
 18 11  1  0  0  0  0
 22 14  1  0  0  0  0
 24 25  1  0  0  0  0
 25  3  1  0  0  0  0
 26 25  2  0  0  0  0
 26 34  1  0  0  0  0
 27 26  1  0  0  0  0
 28 29  1  0  0  0  0
 28 27  2  0  0  0  0
 29 24  2  0  0  0  0
 30 31  1  0  0  0  0
 30 28  1  0  0  0  0
 31 36  1  6  0  0  0
 31 32  1  0  0  0  0
 32 27  1  0  0  0  0
 33 24  1  0  0  0  0
 35 29  1  0  0  0  0
 37 31  1  0  0  0  0
 37 38  2  0  0  0  0
 38 39  1  0  0  0  0
 40 38  1  0  0  0  0
 41 40  2  0  0  0  0
 42 41  1  0  0  0  0
 42 37  1  0  0  0  0
M  END
>  <minimizedAffinity>
-5.36865282

$$$$

 OpenBabel03242523093D

 42 46  0  0  1  0  0  0  0  0999 V2000
   39.4520   29.2380   40.5610 C   0  0  0  0  0  0  0  0  0  0  0  0
   38.2510   28.8210   40.0010 C   0  0  0  0  0  0  0  0  0  0  0  0
   37.8040   29.4760   38.8830 C   0  0  0  0  0  0  0  0  0  0  0  0
   38.5510   30.5030   38.3720 N   0  0  0  0  0  0  0  0  0  0  0  0
   39.7130   30.8860   38.9380 C   0  0  0  0  0  0  0  0  0  0  0  0
   40.1510   30.2580   40.0180 N   0  0  0  0  0  0  0  0  0  0  0  0
   39.8370   28.7430   41.4450 H   0  0  0  0  0  0  0  0  0  0  0  0
   40.3520   31.6860   38.5920 H   0  0  0  0  0  0  0  0  0  0  0  0
   37.5620   27.7780   40.6180 N   0  0  0  0  0  0  0  0  0  0  0  0
   37.7020   26.4310   40.2140 C   0  0  0  0  0  0  0  0  0  0  0  0
   37.0080   25.4250   41.0960 C   0  0  0  0  0  0  0  0  0  0  0  0
   37.0630   25.6830   42.4790 N   0  0  0  0  0  0  0  0  0  0  0  0
   36.9240   27.0180   42.8730 C   0  0  0  0  0  0  0  0  0  0  0  0
   36.6500   27.9350   41.6990 C   0  0  0  0  0  0  0  0  0  0  0  0
   37.1930   26.3390   39.2130 H   0  0  0  0  0  0  0  0  0  0  0  0
   38.7570   26.1460   40.0020 H   0  0  0  0  0  0  0  0  0  0  0  0
   37.4690   24.4370   40.8780 H   0  0  0  0  0  0  0  0  0  0  0  0
   35.9340   25.2970   40.8110 H   0  0  0  0  0  0  0  0  0  0  0  0
   37.7710   25.1230   43.0190 H   0  0  0  0  0  0  0  0  0  0  0  0
   36.0010   27.0890   43.5230 H   0  0  0  0  0  0  0  0  0  0  0  0
   37.7320   27.4070   43.5260 H   0  0  0  0  0  0  0  0  0  0  0  0
   35.5960   27.7290   41.3850 H   0  0  0  0  0  0  0  0  0  0  0  0
   36.6970   28.9840   42.1100 H   0  0  0  0  0  0  0  0  0  0  0  0
   36.9320   29.2560   36.7060 C   0  0  0  0  0  0  0  0  0  0  0  0
   36.6520   29.3180   38.0880 C   0  0  0  0  0  0  0  0  0  0  0  0
   35.2860   29.2750   38.3050 C   0  0  0  0  0  0  0  0  0  0  0  0
   34.3170   29.1890   37.3570 C   0  0  0  0  0  0  0  0  0  0  0  0
   34.6830   29.1400   36.0280 C   0  0  0  0  0  0  0  0  0  0  0  0
   36.0000   29.1710   35.6880 C   0  0  0  0  0  0  0  0  0  0  0  0
   33.4920   29.0720   35.3350 O   0  0  0  0  0  0  0  0  0  0  0  0
   32.3980   29.0460   36.2320 C   0  0  1  0  0  0  0  0  0  0  0  0
   32.9440   29.1360   37.5450 O   0  0  0  0  0  0  0  0  0  0  0  0
   37.9100   29.2530   36.1800 H   0  0  0  0  0  0  0  0  0  0  0  0
   35.0750   29.3250   39.3250 H   0  0  0  0  0  0  0  0  0  0  0  0
   36.1730   29.1240   34.6480 H   0  0  0  0  0  0  0  0  0  0  0  0
   31.7990   28.1460   36.0880 H   0  0  0  0  0  0  0  0  0  0  0  0
   31.4790   30.1940   35.9850 C   0  0  0  0  0  0  0  0  0  0  0  0
   31.4140   31.0500   34.8690 C   0  0  0  0  0  0  0  0  0  0  0  0
   32.1120   30.8730   34.0680 H   0  0  0  0  0  0  0  0  0  0  0  0
   30.4540   32.0290   34.9280 C   0  0  0  0  0  3  0  0  0  0  0  0
   29.6340   32.1420   36.0050 C   0  0  0  0  0  3  0  0  0  0  0  0
   30.2020   30.7700   37.0960 S   0  0  0  0  0  0  0  0  0  0  0  0
  1  7  1  0  0  0  0
  2  1  2  0  0  0  0
  2  9  1  0  0  0  0
  3  2  1  0  0  0  0
  4  3  2  0  0  0  0
  4  5  1  0  0  0  0
  5  6  2  0  0  0  0
  6  1  1  0  0  0  0
  8  5  1  0  0  0  0
  9 14  1  0  0  0  0
 10  9  1  0  0  0  0
 10 11  1  0  0  0  0
 11 12  1  0  0  0  0
 12 13  1  0  0  0  0
 12 19  1  0  0  0  0
 13 20  1  0  0  0  0
 13 21  1  0  0  0  0
 14 23  1  0  0  0  0
 14 13  1  0  0  0  0
 15 10  1  0  0  0  0
 16 10  1  0  0  0  0
 17 11  1  0  0  0  0
 18 11  1  0  0  0  0
 22 14  1  0  0  0  0
 24 25  1  0  0  0  0
 25 26  2  0  0  0  0
 25  3  1  0  0  0  0
 26 34  1  0  0  0  0
 27 32  1  0  0  0  0
 27 26  1  0  0  0  0
 28 27  2  0  0  0  0
 29 28  1  0  0  0  0
 29 24  2  0  0  0  0
 30 28  1  0  0  0  0
 30 31  1  0  0  0  0
 31 36  1  6  0  0  0
 31 32  1  0  0  0  0
 33 24  1  0  0  0  0
 35 29  1  0  0  0  0
 37 31  1  0  0  0  0
 37 42  1  0  0  0  0
 38 40  1  0  0  0  0
 38 37  2  0  0  0  0
 39 38  1  0  0  0  0
 40 41  2  0  0  0  0
 41 42  1  0  0  0  0
M  END
>  <minimizedAffinity>
-5.29534435

$$$$

 OpenBabel03242523093D

 42 46  0  0  1  0  0  0  0  0999 V2000
   39.4500   31.6900   41.6010 C   0  0  0  0  0  0  0  0  0  0  0  0
   38.5840   30.7340   41.0850 C   0  0  0  0  0  0  0  0  0  0  0  0
   37.6720   31.1370   40.1440 C   0  0  0  0  0  0  0  0  0  0  0  0
   37.6520   32.4500   39.7580 N   0  0  0  0  0  0  0  0  0  0  0  0
   38.5050   33.3560   40.2760 C   0  0  0  0  0  0  0  0  0  0  0  0
   39.3890   32.9740   41.1850 N   0  0  0  0  0  0  0  0  0  0  0  0
   40.1850   31.4080   42.3450 H   0  0  0  0  0  0  0  0  0  0  0  0
   38.5460   34.4050   40.0210 H   0  0  0  0  0  0  0  0  0  0  0  0
   38.6770   29.4300   41.5680 N   0  0  0  0  0  0  0  0  0  0  0  0
   38.2880   29.0770   42.8810 C   0  0  0  0  0  0  0  0  0  0  0  0
   38.3080   27.5990   43.1760 C   0  0  0  0  0  0  0  0  0  0  0  0
   37.8650   26.7610   42.1350 N   0  0  0  0  0  0  0  0  0  0  0  0
   38.2530   27.1160   40.8380 C   0  0  0  0  0  0  0  0  0  0  0  0
   39.1700   28.3210   40.8250 C   0  0  0  0  0  0  0  0  0  0  0  0
   39.0550   29.5210   43.5760 H   0  0  0  0  0  0  0  0  0  0  0  0
   37.3340   29.5560   43.1970 H   0  0  0  0  0  0  0  0  0  0  0  0
   37.6760   27.4450   44.0780 H   0  0  0  0  0  0  0  0  0  0  0  0
   39.3240   27.2530   43.4890 H   0  0  0  0  0  0  0  0  0  0  0  0
   36.8830   26.3970   42.2300 H   0  0  0  0  0  0  0  0  0  0  0  0
   38.8760   26.2680   40.4230 H   0  0  0  0  0  0  0  0  0  0  0  0
   37.4260   27.2130   40.1050 H   0  0  0  0  0  0  0  0  0  0  0  0
   40.1560   27.9650   41.2170 H   0  0  0  0  0  0  0  0  0  0  0  0
   39.3010   28.5960   39.7400 H   0  0  0  0  0  0  0  0  0  0  0  0
   35.6560   29.9250   40.2780 C   0  0  0  0  0  0  0  0  0  0  0  0
   36.6660   30.4450   39.4400 C   0  0  0  0  0  0  0  0  0  0  0  0
   36.4390   30.0780   38.1260 C   0  0  0  0  0  0  0  0  0  0  0  0
   35.4090   29.3240   37.6620 C   0  0  0  0  0  0  0  0  0  0  0  0
   34.4690   28.8510   38.5550 C   0  0  0  0  0  0  0  0  0  0  0  0
   34.5830   29.1510   39.8770 C   0  0  0  0  0  0  0  0  0  0  0  0
   33.5830   28.1250   37.7860 O   0  0  0  0  0  0  0  0  0  0  0  0
   33.9550   28.1760   36.4220 C   0  0  1  0  0  0  0  0  0  0  0  0
   35.1510   28.9470   36.3520 O   0  0  0  0  0  0  0  0  0  0  0  0
   35.5180   30.0350   41.3750 H   0  0  0  0  0  0  0  0  0  0  0  0
   37.1850   30.4570   37.5040 H   0  0  0  0  0  0  0  0  0  0  0  0
   33.8120   28.7450   40.4740 H   0  0  0  0  0  0  0  0  0  0  0  0
   33.1510   28.5940   35.8150 H   0  0  0  0  0  0  0  0  0  0  0  0
   34.2030   26.8070   35.8840 C   0  0  0  0  0  0  0  0  0  0  0  0
   33.8660   25.5620   36.4500 C   0  0  0  0  0  0  0  0  0  0  0  0
   33.3570   25.5700   37.4000 H   0  0  0  0  0  0  0  0  0  0  0  0
   34.2290   24.4610   35.7160 C   0  0  0  0  0  3  0  0  0  0  0  0
   34.8700   24.5920   34.5260 C   0  0  0  0  0  3  0  0  0  0  0  0
   35.0190   26.4190   34.3430 S   0  0  0  0  0  0  0  0  0  0  0  0
  1  7  1  0  0  0  0
  2  9  1  0  0  0  0
  2  1  2  0  0  0  0
  3  2  1  0  0  0  0
  4  3  2  0  0  0  0
  4  5  1  0  0  0  0
  5  6  2  0  0  0  0
  6  1  1  0  0  0  0
  8  5  1  0  0  0  0
  9 10  1  0  0  0  0
 10 11  1  0  0  0  0
 10 16  1  0  0  0  0
 10 15  1  0  0  0  0
 11 18  1  0  0  0  0
 11 17  1  0  0  0  0
 12 19  1  0  0  0  0
 12 11  1  0  0  0  0
 13 12  1  0  0  0  0
 14 13  1  0  0  0  0
 14 22  1  0  0  0  0
 14  9  1  0  0  0  0
 20 13  1  0  0  0  0
 21 13  1  0  0  0  0
 23 14  1  0  0  0  0
 24 33  1  0  0  0  0
 25  3  1  0  0  0  0
 25 24  2  0  0  0  0
 26 25  1  0  0  0  0
 27 26  2  0  0  0  0
 27 28  1  0  0  0  0
 28 29  2  0  0  0  0
 29 24  1  0  0  0  0
 29 35  1  0  0  0  0
 30 28  1  0  0  0  0
 31 36  1  6  0  0  0
 31 30  1  0  0  0  0
 32 31  1  0  0  0  0
 32 27  1  0  0  0  0
 34 26  1  0  0  0  0
 37 31  1  0  0  0  0
 37 38  2  0  0  0  0
 38 39  1  0  0  0  0
 40 38  1  0  0  0  0
 41 40  2  0  0  0  0
 42 41  1  0  0  0  0
 42 37  1  0  0  0  0
M  END
>  <minimizedAffinity>
-5.27232265

$$$$
