
 OpenBabel03252505253D

 40 43  0  0  1  0  0  0  0  0999 V2000
   46.7180   33.3900   44.7370 F   0  0  0  0  0  0  0  0  0  0  0  0
   47.3770   32.2030   44.5620 C   0  0  0  0  0  0  0  0  0  0  0  0
   48.2010   32.0840   43.4820 C   0  0  0  0  0  0  0  0  0  0  0  0
   48.8620   30.8970   43.3030 C   0  0  0  0  0  0  0  0  0  0  0  0
   48.6780   29.8690   44.2080 C   0  0  0  0  0  0  0  0  0  0  0  0
   47.8570   29.9830   45.2880 C   0  0  0  0  0  0  0  0  0  0  0  0
   47.1820   31.2060   45.4630 C   0  0  0  0  0  0  0  0  0  0  0  0
   49.5320   30.7400   42.4660 H   0  0  0  0  0  0  0  0  0  0  0  0
   49.2070   28.9330   44.0590 H   0  0  0  0  0  0  0  0  0  0  0  0
   47.7170   29.1770   45.9910 H   0  0  0  0  0  0  0  0  0  0  0  0
   46.3340   31.2800   46.6030 N   0  0  0  0  0  0  0  0  0  0  0  0
   45.2500   30.4390   47.0300 C   0  0  0  0  0  0  0  0  0  0  0  0
   45.6030   30.1640   48.5060 C   0  0  0  0  0  0  0  0  0  0  0  0
   46.4880   31.3310   48.8830 C   0  0  0  0  0  0  0  0  0  0  0  0
   46.3200   32.2520   47.6930 C   0  0  2  0  0  0  0  0  0  0  0  0
   44.2730   30.9110   46.9170 H   0  0  0  0  0  0  0  0  0  0  0  0
   45.3090   29.4990   46.4480 H   0  0  0  0  0  0  0  0  0  0  0  0
   44.6390   30.1960   49.0520 H   0  0  0  0  0  0  0  0  0  0  0  0
   46.1150   29.1970   48.6300 H   0  0  0  0  0  0  0  0  0  0  0  0
   47.5250   31.0070   48.9770 H   0  0  0  0  0  0  0  0  0  0  0  0
   46.1850   31.8120   49.8300 H   0  0  0  0  0  0  0  0  0  0  0  0
   47.2430   32.8420   47.6090 H   0  0  0  0  0  0  0  0  0  0  0  0
   45.0910   33.0910   47.7320 C   0  0  0  0  0  0  0  0  0  0  0  0
   44.2350   32.5480   48.1740 H   0  0  0  0  0  0  0  0  0  0  0  0
   44.9160   33.5030   46.7320 H   0  0  0  0  0  0  0  0  0  0  0  0
   45.3030   33.9510   48.4010 H   0  0  0  0  0  0  0  0  0  0  0  0
   49.1290   35.3350   42.0790 C   0  0  0  0  0  0  0  0  0  0  0  0
   48.6670   35.2840   40.7630 C   0  0  0  0  0  0  0  0  0  0  0  0
   48.0370   34.0990   40.4040 C   0  0  0  0  0  0  0  0  0  0  0  0
   47.9100   33.1040   41.2990 N   0  0  0  0  0  0  0  0  0  0  0  0
   48.3650   33.1880   42.5530 C   0  0  0  0  0  0  0  0  0  0  0  0
   48.9710   34.3090   42.9240 N   0  0  0  0  0  0  0  0  0  0  0  0
   49.6130   36.2710   42.3240 H   0  0  0  0  0  0  0  0  0  0  0  0
   48.7140   36.0040   39.9810 H   0  0  0  0  0  0  0  0  0  0  0  0
   47.4760   33.7900   39.1250 C   0  0  0  0  0  0  0  0  0  0  0  0
   46.2800   33.1950   39.0100 C   0  0  0  0  0  0  0  0  0  0  0  0
   45.5020   32.8270   39.6980 H   0  0  0  0  0  0  0  0  0  0  0  0
   45.6310   32.8470   37.8710 C   0  0  0  0  0  3  0  0  0  0  0  0
   46.4510   33.2230   36.6720 C   0  0  0  0  0  3  0  0  0  0  0  0
   48.0160   34.0160   37.4440 S   0  0  0  0  0  0  0  0  0  0  0  0
  2  1  1  0  0  0  0
  2  7  1  0  0  0  0
  3  2  2  0  0  0  0
  4  3  1  0  0  0  0
  4  5  2  0  0  0  0
  5  6  1  0  0  0  0
  6  7  2  0  0  0  0
  6 10  1  0  0  0  0
  7 11  1  0  0  0  0
  8  4  1  0  0  0  0
  9  5  1  0  0  0  0
 11 12  1  0  0  0  0
 11 15  1  0  0  0  0
 12 13  1  0  0  0  0
 13 19  1  0  0  0  0
 13 14  1  0  0  0  0
 13 18  1  0  0  0  0
 14 20  1  0  0  0  0
 14 21  1  0  0  0  0
 15 22  1  6  0  0  0
 15 23  1  0  0  0  0
 15 14  1  0  0  0  0
 16 12  1  0  0  0  0
 17 12  1  0  0  0  0
 23 24  1  0  0  0  0
 23 26  1  0  0  0  0
 25 23  1  0  0  0  0
 27 33  1  0  0  0  0
 27 32  1  0  0  0  0
 28 27  2  0  0  0  0
 29 28  1  0  0  0  0
 29 30  2  0  0  0  0
 30 31  1  0  0  0  0
 31 32  2  0  0  0  0
 31  3  1  0  0  0  0
 34 28  1  0  0  0  0
 35 29  1  0  0  0  0
 36 35  2  0  0  0  0
 36 37  1  0  0  0  0
 38 36  1  0  0  0  0
 39 40  1  0  0  0  0
 39 38  2  0  0  0  0
 40 35  1  0  0  0  0
M  END
>  <minimizedAffinity>
-5.51502371

>  <minimizedRMSD>
0.811329126

$$$$
