
 OpenBabel03252504503D

 21 22  0  0  0  0  0  0  0  0999 V2000
   36.1550   28.4170   41.4380 C   0  0  0  0  0  0  0  0  0  0  0  0
   37.0130   27.9220   42.4200 C   0  0  0  0  0  0  0  0  0  0  0  0
   38.0850   28.7380   42.7950 C   0  0  0  0  0  0  0  0  0  0  0  0
   38.2280   29.9460   42.1900 N   0  0  0  0  0  0  0  0  0  0  0  0
   37.3650   30.3770   41.2430 C   0  0  0  0  0  0  0  0  0  0  0  0
   36.3230   29.6120   40.8610 N   0  0  0  0  0  0  0  0  0  0  0  0
   35.3040   27.8570   41.0870 H   0  0  0  0  0  0  0  0  0  0  0  0
   38.7540   28.3580   43.5580 H   0  0  0  0  0  0  0  0  0  0  0  0
   37.7160   31.7220   40.7230 C   0  0  0  0  0  0  0  0  0  0  0  0
   36.9650   32.5070   39.8830 C   0  0  0  0  0  0  0  0  0  0  0  0
   36.0060   32.1500   39.5340 H   0  0  0  0  0  0  0  0  0  0  0  0
   37.4550   33.7100   39.5180 C   0  0  0  0  0  3  0  0  0  0  0  0
   38.7120   34.0920   40.0200 C   0  0  0  0  0  3  0  0  0  0  0  0
   39.2070   32.6980   41.0410 S   0  0  0  0  0  0  0  0  0  0  0  0
   36.7580   26.6100   42.9970 C   0  0  0  0  0  0  0  0  0  0  0  0
   35.6970   26.4720   43.1820 H   0  0  0  0  0  0  0  0  0  0  0  0
   37.3120   26.4320   43.9400 H   0  0  0  0  0  0  0  0  0  0  0  0
   37.1790   25.5580   41.9940 C   0  0  0  0  0  0  0  0  0  0  0  0
   38.2230   25.2280   42.2570 H   0  0  0  0  0  0  0  0  0  0  0  0
   37.1410   25.9060   40.9600 H   0  0  0  0  0  0  0  0  0  0  0  0
   36.5400   24.6510   42.1310 H   0  0  0  0  0  0  0  0  0  0  0  0
  1  2  1  0  0  0  0
  2  3  2  0  0  0  0
  2 15  1  0  0  0  0
  3  8  1  0  0  0  0
  4  3  1  0  0  0  0
  5  4  2  0  0  0  0
  6  5  1  0  0  0  0
  6  1  2  0  0  0  0
  7  1  1  0  0  0  0
  9 14  1  0  0  0  0
  9  5  1  0  0  0  0
 10  9  2  0  0  0  0
 11 10  1  0  0  0  0
 12 10  1  0  0  0  0
 12 13  2  0  0  0  0
 13 14  1  0  0  0  0
 15 16  1  0  0  0  0
 15 17  1  0  0  0  0
 18 21  1  0  0  0  0
 18 19  1  0  0  0  0
 18 15  1  0  0  0  0
 20 18  1  0  0  0  0
M  END
>  <minimizedAffinity>
-4.1876936

$$$$

 OpenBabel03252504503D

 21 22  0  0  0  0  0  0  0  0999 V2000
   37.5990   28.1870   42.9330 C   0  0  0  0  0  0  0  0  0  0  0  0
   37.1760   27.2260   42.0150 C   0  0  0  0  0  0  0  0  0  0  0  0
   36.9730   27.6540   40.6990 C   0  0  0  0  0  0  0  0  0  0  0  0
   37.1950   28.9590   40.3950 N   0  0  0  0  0  0  0  0  0  0  0  0
   37.6060   29.8490   41.3270 C   0  0  0  0  0  0  0  0  0  0  0  0
   37.8100   29.4660   42.6030 N   0  0  0  0  0  0  0  0  0  0  0  0
   37.7800   27.9470   43.9680 H   0  0  0  0  0  0  0  0  0  0  0  0
   36.6430   26.9120   39.9810 H   0  0  0  0  0  0  0  0  0  0  0  0
   37.7850   31.2130   40.7710 C   0  0  0  0  0  0  0  0  0  0  0  0
   36.9410   31.8760   39.9150 C   0  0  0  0  0  0  0  0  0  0  0  0
   36.0330   31.3940   39.5800 H   0  0  0  0  0  0  0  0  0  0  0  0
   37.2760   33.1210   39.5160 C   0  0  0  0  0  3  0  0  0  0  0  0
   38.4760   33.6690   40.0030 C   0  0  0  0  0  3  0  0  0  0  0  0
   39.1430   32.3750   41.0560 S   0  0  0  0  0  0  0  0  0  0  0  0
   36.9700   25.8550   42.4580 C   0  0  0  0  0  0  0  0  0  0  0  0
   35.9850   25.7390   42.9000 H   0  0  0  0  0  0  0  0  0  0  0  0
   37.7310   25.5120   43.1860 H   0  0  0  0  0  0  0  0  0  0  0  0
   37.0280   24.9480   41.2480 C   0  0  0  0  0  0  0  0  0  0  0  0
   38.0720   24.5350   41.1760 H   0  0  0  0  0  0  0  0  0  0  0  0
   36.7530   25.4490   40.3180 H   0  0  0  0  0  0  0  0  0  0  0  0
   36.3720   24.0610   41.4280 H   0  0  0  0  0  0  0  0  0  0  0  0
  1  7  1  0  0  0  0
  2 15  1  0  0  0  0
  2  1  2  0  0  0  0
  3  2  1  0  0  0  0
  4  3  2  0  0  0  0
  4  5  1  0  0  0  0
  5  6  2  0  0  0  0
  6  1  1  0  0  0  0
  8  3  1  0  0  0  0
  9 14  1  0  0  0  0
  9  5  1  0  0  0  0
 10  9  2  0  0  0  0
 11 10  1  0  0  0  0
 12 10  1  0  0  0  0
 12 13  2  0  0  0  0
 13 14  1  0  0  0  0
 15 16  1  0  0  0  0
 15 17  1  0  0  0  0
 18 21  1  0  0  0  0
 18 15  1  0  0  0  0
 19 18  1  0  0  0  0
 20 18  1  0  0  0  0
M  END
>  <minimizedAffinity>
-4.07210875

$$$$

 OpenBabel03252504503D

 21 22  0  0  0  0  0  0  0  0999 V2000
   37.3690   26.7560   40.5390 C   0  0  0  0  0  0  0  0  0  0  0  0
   37.1120   26.4010   41.8630 C   0  0  0  0  0  0  0  0  0  0  0  0
   37.0970   27.4350   42.8040 C   0  0  0  0  0  0  0  0  0  0  0  0
   37.3300   28.7050   42.3830 N   0  0  0  0  0  0  0  0  0  0  0  0
   37.5730   28.9930   41.0850 C   0  0  0  0  0  0  0  0  0  0  0  0
   37.5940   28.0170   40.1540 N   0  0  0  0  0  0  0  0  0  0  0  0
   37.4000   26.0260   39.7470 H   0  0  0  0  0  0  0  0  0  0  0  0
   36.8990   27.1640   43.8350 H   0  0  0  0  0  0  0  0  0  0  0  0
   37.7980   30.4420   40.8550 C   0  0  0  0  0  0  0  0  0  0  0  0
   36.9550   31.3210   40.2230 C   0  0  0  0  0  0  0  0  0  0  0  0
   36.0110   30.9670   39.8310 H   0  0  0  0  0  0  0  0  0  0  0  0
   37.3370   32.6100   40.1090 C   0  0  0  0  0  3  0  0  0  0  0  0
   38.5810   32.9800   40.6490 C   0  0  0  0  0  3  0  0  0  0  0  0
   39.2240   31.4490   41.3350 S   0  0  0  0  0  0  0  0  0  0  0  0
   36.8770   25.0030   42.1960 C   0  0  0  0  0  0  0  0  0  0  0  0
   36.1660   24.5590   41.5050 H   0  0  0  0  0  0  0  0  0  0  0  0
   36.5100   24.8560   43.2310 H   0  0  0  0  0  0  0  0  0  0  0  0
   38.1810   24.2500   42.0440 C   0  0  0  0  0  0  0  0  0  0  0  0
   38.6610   24.1830   43.0600 H   0  0  0  0  0  0  0  0  0  0  0  0
   38.8660   24.7120   41.3300 H   0  0  0  0  0  0  0  0  0  0  0  0
   37.9580   23.1950   41.7540 H   0  0  0  0  0  0  0  0  0  0  0  0
  1  2  1  0  0  0  0
  2 15  1  0  0  0  0
  2  3  2  0  0  0  0
  3  8  1  0  0  0  0
  4  3  1  0  0  0  0
  5  4  2  0  0  0  0
  6  1  2  0  0  0  0
  6  5  1  0  0  0  0
  7  1  1  0  0  0  0
  9  5  1  0  0  0  0
  9 14  1  0  0  0  0
 10  9  2  0  0  0  0
 11 10  1  0  0  0  0
 12 10  1  0  0  0  0
 12 13  2  0  0  0  0
 13 14  1  0  0  0  0
 15 17  1  0  0  0  0
 16 15  1  0  0  0  0
 18 15  1  0  0  0  0
 18 19  1  0  0  0  0
 20 18  1  0  0  0  0
 21 18  1  0  0  0  0
M  END
>  <minimizedAffinity>
-3.92042065

$$$$

 OpenBabel03252504503D

 21 22  0  0  0  0  0  0  0  0999 V2000
   37.9760   30.6880   39.2390 C   0  0  0  0  0  0  0  0  0  0  0  0
   37.1250   31.5750   39.8990 C   0  0  0  0  0  0  0  0  0  0  0  0
   36.2960   31.0380   40.8900 C   0  0  0  0  0  0  0  0  0  0  0  0
   36.3670   29.7060   41.1480 N   0  0  0  0  0  0  0  0  0  0  0  0
   37.2130   28.8920   40.4770 C   0  0  0  0  0  0  0  0  0  0  0  0
   38.0230   29.3810   39.5170 N   0  0  0  0  0  0  0  0  0  0  0  0
   38.6480   31.0140   38.4620 H   0  0  0  0  0  0  0  0  0  0  0  0
   35.6320   31.7210   41.4050 H   0  0  0  0  0  0  0  0  0  0  0  0
   37.1200   27.4800   40.9260 C   0  0  0  0  0  0  0  0  0  0  0  0
   37.1260   27.0200   42.2190 C   0  0  0  0  0  0  0  0  0  0  0  0
   37.2050   27.7240   43.0360 H   0  0  0  0  0  0  0  0  0  0  0  0
   37.0330   25.6900   42.4290 C   0  0  0  0  0  3  0  0  0  0  0  0
   36.9340   24.8500   41.3060 C   0  0  0  0  0  3  0  0  0  0  0  0
   36.9760   25.9860   39.9140 S   0  0  0  0  0  0  0  0  0  0  0  0
   37.1370   32.9840   39.5340 C   0  0  0  0  0  0  0  0  0  0  0  0
   36.2570   33.4880   39.9250 H   0  0  0  0  0  0  0  0  0  0  0  0
   37.1880   33.1520   38.4400 H   0  0  0  0  0  0  0  0  0  0  0  0
   38.3470   33.6320   40.1710 C   0  0  0  0  0  0  0  0  0  0  0  0
   39.1700   33.6530   39.4050 H   0  0  0  0  0  0  0  0  0  0  0  0
   38.6830   33.1240   41.0760 H   0  0  0  0  0  0  0  0  0  0  0  0
   38.1130   34.7050   40.3830 H   0  0  0  0  0  0  0  0  0  0  0  0
  1  6  2  0  0  0  0
  1  2  1  0  0  0  0
  2  3  2  0  0  0  0
  3  4  1  0  0  0  0
  3  8  1  0  0  0  0
  5  9  1  0  0  0  0
  5  4  2  0  0  0  0
  6  5  1  0  0  0  0
  7  1  1  0  0  0  0
  9 10  2  0  0  0  0
 10 12  1  0  0  0  0
 10 11  1  0  0  0  0
 13 12  2  0  0  0  0
 14  9  1  0  0  0  0
 14 13  1  0  0  0  0
 15  2  1  0  0  0  0
 15 16  1  0  0  0  0
 15 18  1  0  0  0  0
 17 15  1  0  0  0  0
 18 21  1  0  0  0  0
 18 20  1  0  0  0  0
 19 18  1  0  0  0  0
M  END
>  <minimizedAffinity>
-3.823421

$$$$

 OpenBabel03252504503D

 21 22  0  0  0  0  0  0  0  0999 V2000
   40.2200   31.9920   41.1770 C   0  0  0  0  0  0  0  0  0  0  0  0
   39.3180   32.8140   40.5020 C   0  0  0  0  0  0  0  0  0  0  0  0
   38.0010   32.3540   40.3950 C   0  0  0  0  0  0  0  0  0  0  0  0
   37.6820   31.1530   40.9450 N   0  0  0  0  0  0  0  0  0  0  0  0
   38.5990   30.3970   41.5890 C   0  0  0  0  0  0  0  0  0  0  0  0
   39.8760   30.8140   41.7080 N   0  0  0  0  0  0  0  0  0  0  0  0
   41.2550   32.2650   41.3070 H   0  0  0  0  0  0  0  0  0  0  0  0
   37.2960   32.9880   39.8710 H   0  0  0  0  0  0  0  0  0  0  0  0
   38.0280   29.1290   42.1080 C   0  0  0  0  0  0  0  0  0  0  0  0
   37.5860   28.8810   43.3840 C   0  0  0  0  0  0  0  0  0  0  0  0
   37.6390   29.6630   44.1290 H   0  0  0  0  0  0  0  0  0  0  0  0
   37.0960   27.6570   43.6680 C   0  0  0  0  0  3  0  0  0  0  0  0
   37.0660   26.7010   42.6370 C   0  0  0  0  0  3  0  0  0  0  0  0
   37.7550   27.5740   41.2240 S   0  0  0  0  0  0  0  0  0  0  0  0
   39.7770   34.0810   39.9530 C   0  0  0  0  0  0  0  0  0  0  0  0
   39.5640   34.8960   40.6400 H   0  0  0  0  0  0  0  0  0  0  0  0
   39.3280   34.3190   38.9680 H   0  0  0  0  0  0  0  0  0  0  0  0
   41.2790   34.0140   39.7860 C   0  0  0  0  0  0  0  0  0  0  0  0
   41.4960   33.7260   38.7210 H   0  0  0  0  0  0  0  0  0  0  0  0
   41.7590   33.3150   40.4740 H   0  0  0  0  0  0  0  0  0  0  0  0
   41.7030   35.0420   39.9060 H   0  0  0  0  0  0  0  0  0  0  0  0
  1  7  1  0  0  0  0
  1  6  1  0  0  0  0
  2  1  2  0  0  0  0
  3  2  1  0  0  0  0
  3  4  2  0  0  0  0
  4  5  1  0  0  0  0
  5  6  2  0  0  0  0
  5  9  1  0  0  0  0
  8  3  1  0  0  0  0
  9 10  2  0  0  0  0
 10 12  1  0  0  0  0
 10 11  1  0  0  0  0
 13 12  2  0  0  0  0
 14  9  1  0  0  0  0
 14 13  1  0  0  0  0
 15  2  1  0  0  0  0
 15 16  1  0  0  0  0
 17 15  1  0  0  0  0
 18 21  1  0  0  0  0
 18 15  1  0  0  0  0
 18 20  1  0  0  0  0
 19 18  1  0  0  0  0
M  END
>  <minimizedAffinity>
-3.72979808

$$$$

 OpenBabel03252504503D

 21 22  0  0  0  0  0  0  0  0999 V2000
   37.8550   30.2620   41.5570 C   0  0  0  0  0  0  0  0  0  0  0  0
   37.1860   30.8410   40.4780 C   0  0  0  0  0  0  0  0  0  0  0  0
   36.4800   29.9770   39.6340 C   0  0  0  0  0  0  0  0  0  0  0  0
   36.4870   28.6470   39.9070 N   0  0  0  0  0  0  0  0  0  0  0  0
   37.1530   28.1400   40.9690 C   0  0  0  0  0  0  0  0  0  0  0  0
   37.8420   28.9470   41.8000 N   0  0  0  0  0  0  0  0  0  0  0  0
   38.4240   30.8500   42.2580 H   0  0  0  0  0  0  0  0  0  0  0  0
   35.9590   30.4210   38.7940 H   0  0  0  0  0  0  0  0  0  0  0  0
   37.0210   26.6650   41.0720 C   0  0  0  0  0  0  0  0  0  0  0  0
   37.1380   25.9010   42.2070 C   0  0  0  0  0  0  0  0  0  0  0  0
   37.3500   26.3790   43.1530 H   0  0  0  0  0  0  0  0  0  0  0  0
   36.9850   24.5640   42.1000 C   0  0  0  0  0  3  0  0  0  0  0  0
   36.7110   24.0300   40.8290 C   0  0  0  0  0  3  0  0  0  0  0  0
   36.6730   25.4710   39.7570 S   0  0  0  0  0  0  0  0  0  0  0  0
   37.2520   32.2820   40.2850 C   0  0  0  0  0  0  0  0  0  0  0  0
   38.1710   32.6830   40.7030 H   0  0  0  0  0  0  0  0  0  0  0  0
   36.3920   32.8220   40.7280 H   0  0  0  0  0  0  0  0  0  0  0  0
   37.2740   32.5650   38.7990 C   0  0  0  0  0  0  0  0  0  0  0  0
   36.2200   32.7910   38.4740 H   0  0  0  0  0  0  0  0  0  0  0  0
   37.6850   31.7430   38.2080 H   0  0  0  0  0  0  0  0  0  0  0  0
   37.8470   33.5070   38.6180 H   0  0  0  0  0  0  0  0  0  0  0  0
  1  6  1  0  0  0  0
  1  7  1  0  0  0  0
  2  1  2  0  0  0  0
  3  4  2  0  0  0  0
  3  2  1  0  0  0  0
  4  5  1  0  0  0  0
  5  9  1  0  0  0  0
  5  6  2  0  0  0  0
  8  3  1  0  0  0  0
  9 10  2  0  0  0  0
 10 11  1  0  0  0  0
 12 10  1  0  0  0  0
 13 12  2  0  0  0  0
 14 13  1  0  0  0  0
 14  9  1  0  0  0  0
 15  2  1  0  0  0  0
 15 16  1  0  0  0  0
 15 17  1  0  0  0  0
 18 15  1  0  0  0  0
 19 18  1  0  0  0  0
 20 18  1  0  0  0  0
 21 18  1  0  0  0  0
M  END
>  <minimizedAffinity>
-3.72600341

$$$$

 OpenBabel03252504503D

 21 22  0  0  0  0  0  0  0  0999 V2000
   37.2380   28.5460   41.1380 C   0  0  0  0  0  0  0  0  0  0  0  0
   37.4720   28.3460   42.4990 C   0  0  0  0  0  0  0  0  0  0  0  0
   38.3250   29.2540   43.1340 C   0  0  0  0  0  0  0  0  0  0  0  0
   38.8690   30.2610   42.4020 N   0  0  0  0  0  0  0  0  0  0  0  0
   38.6070   30.4070   41.0840 C   0  0  0  0  0  0  0  0  0  0  0  0
   37.7880   29.5480   40.4450 N   0  0  0  0  0  0  0  0  0  0  0  0
   36.5940   27.8960   40.5680 H   0  0  0  0  0  0  0  0  0  0  0  0
   38.5110   29.1030   44.1910 H   0  0  0  0  0  0  0  0  0  0  0  0
   39.3080   31.5730   40.4910 C   0  0  0  0  0  0  0  0  0  0  0  0
   40.3790   31.5470   39.6330 C   0  0  0  0  0  0  0  0  0  0  0  0
   40.7950   30.5970   39.3270 H   0  0  0  0  0  0  0  0  0  0  0  0
   40.8830   32.7200   39.1970 C   0  0  0  0  0  3  0  0  0  0  0  0
   40.2790   33.9070   39.6480 C   0  0  0  0  0  3  0  0  0  0  0  0
   38.9570   33.3340   40.7220 S   0  0  0  0  0  0  0  0  0  0  0  0
   36.8320   27.2290   43.1790 C   0  0  0  0  0  0  0  0  0  0  0  0
   35.7560   27.3710   43.2210 H   0  0  0  0  0  0  0  0  0  0  0  0
   37.2110   27.0690   44.2070 H   0  0  0  0  0  0  0  0  0  0  0  0
   37.0880   25.9720   42.3770 C   0  0  0  0  0  0  0  0  0  0  0  0
   37.9780   25.4510   42.8270 H   0  0  0  0  0  0  0  0  0  0  0  0
   37.2570   26.1630   41.3150 H   0  0  0  0  0  0  0  0  0  0  0  0
   36.2310   25.2700   42.5210 H   0  0  0  0  0  0  0  0  0  0  0  0
  1  2  1  0  0  0  0
  2  3  2  0  0  0  0
  2 15  1  0  0  0  0
  3  8  1  0  0  0  0
  4  3  1  0  0  0  0
  5  4  2  0  0  0  0
  6  5  1  0  0  0  0
  6  1  2  0  0  0  0
  7  1  1  0  0  0  0
  9 14  1  0  0  0  0
  9  5  1  0  0  0  0
 10  9  2  0  0  0  0
 11 10  1  0  0  0  0
 12 10  1  0  0  0  0
 12 13  2  0  0  0  0
 13 14  1  0  0  0  0
 15 16  1  0  0  0  0
 15 17  1  0  0  0  0
 18 21  1  0  0  0  0
 18 19  1  0  0  0  0
 18 15  1  0  0  0  0
 20 18  1  0  0  0  0
M  END
>  <minimizedAffinity>
-3.66687775

$$$$

 OpenBabel03252504503D

 21 22  0  0  0  0  0  0  0  0999 V2000
   35.5960   27.7690   37.9700 C   0  0  0  0  0  0  0  0  0  0  0  0
   34.4730   28.5870   38.0930 C   0  0  0  0  0  0  0  0  0  0  0  0
   34.2520   29.1750   39.3420 C   0  0  0  0  0  0  0  0  0  0  0  0
   35.1290   28.9210   40.3480 N   0  0  0  0  0  0  0  0  0  0  0  0
   36.2040   28.1200   40.1720 C   0  0  0  0  0  0  0  0  0  0  0  0
   36.4420   27.5380   38.9790 N   0  0  0  0  0  0  0  0  0  0  0  0
   35.8440   27.2750   37.0450 H   0  0  0  0  0  0  0  0  0  0  0  0
   33.3800   29.8100   39.4440 H   0  0  0  0  0  0  0  0  0  0  0  0
   37.0220   27.9860   41.4030 C   0  0  0  0  0  0  0  0  0  0  0  0
   36.5690   27.7400   42.6760 C   0  0  0  0  0  0  0  0  0  0  0  0
   35.5090   27.6220   42.8520 H   0  0  0  0  0  0  0  0  0  0  0  0
   37.4730   27.6520   43.6740 C   0  0  0  0  0  3  0  0  0  0  0  0
   38.8310   27.8180   43.3520 C   0  0  0  0  0  3  0  0  0  0  0  0
   38.8200   28.1080   41.5780 S   0  0  0  0  0  0  0  0  0  0  0  0
   33.6020   28.7840   36.9430 C   0  0  0  0  0  0  0  0  0  0  0  0
   33.3630   27.8330   36.4750 H   0  0  0  0  0  0  0  0  0  0  0  0
   34.0340   29.4600   36.1790 H   0  0  0  0  0  0  0  0  0  0  0  0
   32.3010   29.3860   37.4270 C   0  0  0  0  0  0  0  0  0  0  0  0
   32.3650   30.5020   37.2930 H   0  0  0  0  0  0  0  0  0  0  0  0
   32.0710   29.1410   38.4660 H   0  0  0  0  0  0  0  0  0  0  0  0
   31.4750   29.0540   36.7500 H   0  0  0  0  0  0  0  0  0  0  0  0
  1  2  2  0  0  0  0
  1  6  1  0  0  0  0
  2  3  1  0  0  0  0
  3  8  1  0  0  0  0
  3  4  2  0  0  0  0
  5  4  1  0  0  0  0
  5  9  1  0  0  0  0
  6  5  2  0  0  0  0
  7  1  1  0  0  0  0
  9 14  1  0  0  0  0
  9 10  2  0  0  0  0
 10 11  1  0  0  0  0
 10 12  1  0  0  0  0
 13 12  2  0  0  0  0
 14 13  1  0  0  0  0
 15 18  1  0  0  0  0
 15  2  1  0  0  0  0
 16 15  1  0  0  0  0
 17 15  1  0  0  0  0
 18 20  1  0  0  0  0
 19 18  1  0  0  0  0
 21 18  1  0  0  0  0
M  END
>  <minimizedAffinity>
-3.60916662

$$$$

 OpenBabel03252504503D

 21 22  0  0  0  0  0  0  0  0999 V2000
   38.2210   29.5720   39.5700 C   0  0  0  0  0  0  0  0  0  0  0  0
   37.3120   30.3570   40.2800 C   0  0  0  0  0  0  0  0  0  0  0  0
   36.9820   29.9310   41.5710 C   0  0  0  0  0  0  0  0  0  0  0  0
   37.5540   28.7960   42.0500 N   0  0  0  0  0  0  0  0  0  0  0  0
   38.4300   28.0740   41.3170 C   0  0  0  0  0  0  0  0  0  0  0  0
   38.7680   28.4590   40.0700 N   0  0  0  0  0  0  0  0  0  0  0  0
   38.5320   29.8240   38.5690 H   0  0  0  0  0  0  0  0  0  0  0  0
   36.2760   30.5370   42.1270 H   0  0  0  0  0  0  0  0  0  0  0  0
   38.9270   26.8770   42.0410 C   0  0  0  0  0  0  0  0  0  0  0  0
   39.7230   26.8570   43.1590 C   0  0  0  0  0  0  0  0  0  0  0  0
   40.0500   27.7890   43.5980 H   0  0  0  0  0  0  0  0  0  0  0  0
   40.0750   25.6620   43.6770 C   0  0  0  0  0  3  0  0  0  0  0  0
   39.6030   24.5010   43.0390 C   0  0  0  0  0  3  0  0  0  0  0  0
   38.6330   25.1310   41.6630 S   0  0  0  0  0  0  0  0  0  0  0  0
   36.7630   31.5540   39.6600 C   0  0  0  0  0  0  0  0  0  0  0  0
   35.7390   31.7180   39.9840 H   0  0  0  0  0  0  0  0  0  0  0  0
   36.7870   31.5230   38.5530 H   0  0  0  0  0  0  0  0  0  0  0  0
   37.5750   32.7450   40.1190 C   0  0  0  0  0  0  0  0  0  0  0  0
   38.3500   32.9590   39.3310 H   0  0  0  0  0  0  0  0  0  0  0  0
   38.0520   32.5950   41.0900 H   0  0  0  0  0  0  0  0  0  0  0  0
   36.9160   33.6480   40.1370 H   0  0  0  0  0  0  0  0  0  0  0  0
  1  6  2  0  0  0  0
  1  2  1  0  0  0  0
  2  3  2  0  0  0  0
  3  4  1  0  0  0  0
  3  8  1  0  0  0  0
  5  9  1  0  0  0  0
  5  4  2  0  0  0  0
  6  5  1  0  0  0  0
  7  1  1  0  0  0  0
  9 10  2  0  0  0  0
 10 11  1  0  0  0  0
 10 12  1  0  0  0  0
 13 12  2  0  0  0  0
 14  9  1  0  0  0  0
 14 13  1  0  0  0  0
 15 16  1  0  0  0  0
 15 18  1  0  0  0  0
 15  2  1  0  0  0  0
 17 15  1  0  0  0  0
 18 21  1  0  0  0  0
 18 20  1  0  0  0  0
 19 18  1  0  0  0  0
M  END
>  <minimizedAffinity>
-3.58864331

$$$$
