
 OpenBabel03252500163D

 35 38  0  0  0  0  0  0  0  0999 V2000
   40.4960   29.9830   39.6980 Cl  0  0  0  0  0  0  0  0  0  0  0  0
   39.4720   31.3850   39.8410 C   0  0  0  0  0  0  0  0  0  0  0  0
   38.1600   31.2530   40.2090 C   0  0  0  0  0  0  0  0  0  0  0  0
   37.3160   32.3620   40.3340 C   0  0  0  0  0  0  0  0  0  0  0  0
   37.8810   33.5870   40.0640 C   0  0  0  0  0  0  0  0  0  0  0  0
   39.2020   33.7150   39.6930 C   0  0  0  0  0  0  0  0  0  0  0  0
   39.9950   32.6470   39.5790 C   0  0  0  0  0  0  0  0  0  0  0  0
   36.2860   32.2240   40.6270 H   0  0  0  0  0  0  0  0  0  0  0  0
   37.2260   34.4440   40.1600 H   0  0  0  0  0  0  0  0  0  0  0  0
   39.6250   34.6950   39.4850 H   0  0  0  0  0  0  0  0  0  0  0  0
   36.5890   27.9620   39.7110 C   0  0  0  0  0  0  0  0  0  0  0  0
   36.5920   27.4210   41.0200 C   0  0  0  0  0  0  0  0  0  0  0  0
   37.1340   28.2000   42.0500 C   0  0  0  0  0  0  0  0  0  0  0  0
   37.6320   29.4370   41.7420 N   0  0  0  0  0  0  0  0  0  0  0  0
   37.6130   29.9200   40.4850 C   0  0  0  0  0  0  0  0  0  0  0  0
   37.0930   29.1790   39.4820 N   0  0  0  0  0  0  0  0  0  0  0  0
   36.1580   27.3160   38.9570 H   0  0  0  0  0  0  0  0  0  0  0  0
   36.2230   26.4730   41.3270 H   0  0  0  0  0  0  0  0  0  0  0  0
   37.1940   27.7430   43.4710 C   0  0  0  0  0  0  0  0  0  0  0  0
   36.0810   27.0370   43.8100 F   0  0  0  0  0  0  0  0  0  0  0  0
   38.3050   26.9200   43.6210 F   0  0  0  0  0  0  0  0  0  0  0  0
   37.3480   28.8680   44.2410 F   0  0  0  0  0  0  0  0  0  0  0  0
   41.3990   32.7480   39.1890 C   0  0  0  0  0  0  0  0  0  0  0  0
   42.3300   33.5540   39.8170 C   0  0  0  0  0  0  0  0  0  0  0  0
   43.5490   33.4230   39.2140 C   0  0  0  0  0  0  0  0  0  0  0  0
   43.2960   32.5140   38.2170 C   0  0  0  0  0  0  0  0  0  0  0  0
   42.0310   32.1380   38.2280 O   0  0  0  0  0  0  0  0  0  0  0  0
   42.2280   34.2400   40.6740 H   0  0  0  0  0  0  0  0  0  0  0  0
   44.5400   33.7980   39.3020 H   0  0  0  0  0  0  0  0  0  0  0  0
   44.0610   31.8410   37.1320 C   0  0  0  0  0  0  0  0  0  0  0  0
   43.3830   30.9290   36.4270 C   0  0  0  0  0  0  0  0  0  0  0  0
   42.3470   30.5390   36.4610 H   0  0  0  0  0  0  0  0  0  0  0  0
   43.7760   30.1510   35.3900 C   0  0  0  0  0  3  0  0  0  0  0  0
   45.2010   30.5060   35.1440 C   0  0  0  0  0  3  0  0  0  0  0  0
   45.6220   31.8580   36.4500 S   0  0  0  0  0  0  0  0  0  0  0  0
  1  2  1  0  0  0  0
  2  3  1  0  0  0  0
  3  4  2  0  0  0  0
  3 15  1  0  0  0  0
  4  8  1  0  0  0  0
  5  9  1  0  0  0  0
  5  4  1  0  0  0  0
  6  5  2  0  0  0  0
  7  6  1  0  0  0  0
  7  2  2  0  0  0  0
 10  6  1  0  0  0  0
 11 12  1  0  0  0  0
 12 18  1  0  0  0  0
 12 13  2  0  0  0  0
 13 19  1  0  0  0  0
 14 13  1  0  0  0  0
 15 14  2  0  0  0  0
 16 11  2  0  0  0  0
 16 15  1  0  0  0  0
 17 11  1  0  0  0  0
 19 21  1  0  0  0  0
 19 20  1  0  0  0  0
 19 22  1  0  0  0  0
 23  7  1  0  0  0  0
 23 24  2  0  0  0  0
 24 28  1  0  0  0  0
 25 29  1  0  0  0  0
 25 24  1  0  0  0  0
 26 27  1  0  0  0  0
 26 25  2  0  0  0  0
 27 23  1  0  0  0  0
 30 26  1  0  0  0  0
 31 32  1  0  0  0  0
 31 30  2  0  0  0  0
 33 31  1  0  0  0  0
 34 33  2  0  0  0  0
 34 35  1  0  0  0  0
 35 30  1  0  0  0  0
M  END
>  <minimizedAffinity>
-6.43244171

$$$$

 OpenBabel03252500163D

 35 38  0  0  0  0  0  0  0  0999 V2000
   40.7570   30.2340   41.1430 Cl  0  0  0  0  0  0  0  0  0  0  0  0
   39.2720   31.0490   40.7360 C   0  0  0  0  0  0  0  0  0  0  0  0
   39.2940   32.2320   40.0470 C   0  0  0  0  0  0  0  0  0  0  0  0
   38.1170   32.9060   39.7060 C   0  0  0  0  0  0  0  0  0  0  0  0
   36.9410   32.3130   40.1040 C   0  0  0  0  0  0  0  0  0  0  0  0
   36.9230   31.1230   40.7990 C   0  0  0  0  0  0  0  0  0  0  0  0
   38.0560   30.4910   41.1160 C   0  0  0  0  0  0  0  0  0  0  0  0
   38.1690   33.8370   39.1610 H   0  0  0  0  0  0  0  0  0  0  0  0
   36.0310   32.8370   39.8400 H   0  0  0  0  0  0  0  0  0  0  0  0
   35.9800   30.6740   41.1020 H   0  0  0  0  0  0  0  0  0  0  0  0
   42.0420   33.5000   37.9530 C   0  0  0  0  0  0  0  0  0  0  0  0
   42.9930   33.9170   38.9160 C   0  0  0  0  0  0  0  0  0  0  0  0
   42.6700   33.7530   40.2690 C   0  0  0  0  0  0  0  0  0  0  0  0
   41.4590   33.2020   40.5900 N   0  0  0  0  0  0  0  0  0  0  0  0
   40.5790   32.8170   39.6480 C   0  0  0  0  0  0  0  0  0  0  0  0
   40.8770   32.9690   38.3380 N   0  0  0  0  0  0  0  0  0  0  0  0
   42.3460   33.6510   36.9250 H   0  0  0  0  0  0  0  0  0  0  0  0
   43.9460   34.3500   38.7360 H   0  0  0  0  0  0  0  0  0  0  0  0
   43.5870   34.1530   41.3790 C   0  0  0  0  0  0  0  0  0  0  0  0
   42.9390   34.9110   42.3050 F   0  0  0  0  0  0  0  0  0  0  0  0
   44.0540   32.9990   41.9990 F   0  0  0  0  0  0  0  0  0  0  0  0
   44.6360   34.8220   40.8020 F   0  0  0  0  0  0  0  0  0  0  0  0
   38.0730   29.2280   41.8500 C   0  0  0  0  0  0  0  0  0  0  0  0
   38.0870   29.1230   43.2280 C   0  0  0  0  0  0  0  0  0  0  0  0
   38.1030   27.8090   43.6000 C   0  0  0  0  0  0  0  0  0  0  0  0
   38.0960   27.1540   42.3930 C   0  0  0  0  0  0  0  0  0  0  0  0
   38.0790   28.0100   41.3890 O   0  0  0  0  0  0  0  0  0  0  0  0
   38.0880   29.9000   44.0100 H   0  0  0  0  0  0  0  0  0  0  0  0
   38.1150   27.2180   44.4840 H   0  0  0  0  0  0  0  0  0  0  0  0
   38.1040   25.7440   41.9150 C   0  0  0  0  0  0  0  0  0  0  0  0
   36.9640   25.3160   41.3630 C   0  0  0  0  0  0  0  0  0  0  0  0
   35.9770   25.7780   41.1690 H   0  0  0  0  0  0  0  0  0  0  0  0
   36.6430   24.1090   40.8360 C   0  0  0  0  0  3  0  0  0  0  0  0
   37.8650   23.2720   40.9850 C   0  0  0  0  0  3  0  0  0  0  0  0
   39.1630   24.4120   41.8370 S   0  0  0  0  0  0  0  0  0  0  0  0
  2  7  1  0  0  0  0
  2  1  1  0  0  0  0
  3  2  2  0  0  0  0
  4  3  1  0  0  0  0
  4  5  2  0  0  0  0
  5  6  1  0  0  0  0
  6 10  1  0  0  0  0
  6  7  2  0  0  0  0
  7 23  1  0  0  0  0
  8  4  1  0  0  0  0
  9  5  1  0  0  0  0
 11 16  2  0  0  0  0
 11 12  1  0  0  0  0
 12 13  2  0  0  0  0
 13 14  1  0  0  0  0
 13 19  1  0  0  0  0
 15  3  1  0  0  0  0
 15 14  2  0  0  0  0
 16 15  1  0  0  0  0
 17 11  1  0  0  0  0
 18 12  1  0  0  0  0
 19 21  1  0  0  0  0
 19 20  1  0  0  0  0
 22 19  1  0  0  0  0
 23 24  2  0  0  0  0
 24 25  1  0  0  0  0
 24 28  1  0  0  0  0
 25 29  1  0  0  0  0
 26 25  2  0  0  0  0
 27 23  1  0  0  0  0
 27 26  1  0  0  0  0
 30 26  1  0  0  0  0
 31 30  2  0  0  0  0
 32 31  1  0  0  0  0
 33 34  2  0  0  0  0
 33 31  1  0  0  0  0
 34 35  1  0  0  0  0
 35 30  1  0  0  0  0
M  END
>  <minimizedAffinity>
-6.21752644

$$$$

 OpenBabel03252500163D

 35 38  0  0  0  0  0  0  0  0999 V2000
   37.9380   27.9120   39.4280 Cl  0  0  0  0  0  0  0  0  0  0  0  0
   37.7360   27.9510   41.1580 C   0  0  0  0  0  0  0  0  0  0  0  0
   37.6440   26.7880   41.8740 C   0  0  0  0  0  0  0  0  0  0  0  0
   37.4840   26.7910   43.2640 C   0  0  0  0  0  0  0  0  0  0  0  0
   37.4220   28.0270   43.8650 C   0  0  0  0  0  0  0  0  0  0  0  0
   37.5140   29.1950   43.1400 C   0  0  0  0  0  0  0  0  0  0  0  0
   37.6680   29.1760   41.8140 C   0  0  0  0  0  0  0  0  0  0  0  0
   37.4150   25.8550   43.7990 H   0  0  0  0  0  0  0  0  0  0  0  0
   37.2970   28.0270   44.9400 H   0  0  0  0  0  0  0  0  0  0  0  0
   37.4630   30.1600   43.6390 H   0  0  0  0  0  0  0  0  0  0  0  0
   38.9830   23.6660   40.4560 C   0  0  0  0  0  0  0  0  0  0  0  0
   37.8340   23.0800   39.8710 C   0  0  0  0  0  0  0  0  0  0  0  0
   36.6210   23.7700   39.9750 C   0  0  0  0  0  0  0  0  0  0  0  0
   36.6050   24.9700   40.6330 N   0  0  0  0  0  0  0  0  0  0  0  0
   37.7160   25.4990   41.1780 C   0  0  0  0  0  0  0  0  0  0  0  0
   38.8950   24.8430   41.0860 N   0  0  0  0  0  0  0  0  0  0  0  0
   39.8910   23.0880   40.3440 H   0  0  0  0  0  0  0  0  0  0  0  0
   37.7770   22.1560   39.3480 H   0  0  0  0  0  0  0  0  0  0  0  0
   35.3400   23.2580   39.4000 C   0  0  0  0  0  0  0  0  0  0  0  0
   34.9060   24.0490   38.3810 F   0  0  0  0  0  0  0  0  0  0  0  0
   35.5630   21.9780   38.9040 F   0  0  0  0  0  0  0  0  0  0  0  0
   34.4390   23.2000   40.4330 F   0  0  0  0  0  0  0  0  0  0  0  0
   37.7710   30.3950   41.0160 C   0  0  0  0  0  0  0  0  0  0  0  0
   36.6890   31.1180   40.5480 C   0  0  0  0  0  0  0  0  0  0  0  0
   37.1200   32.2010   39.8360 C   0  0  0  0  0  0  0  0  0  0  0  0
   38.4860   32.0850   39.9070 C   0  0  0  0  0  0  0  0  0  0  0  0
   38.8360   31.0200   40.6030 O   0  0  0  0  0  0  0  0  0  0  0  0
   35.6060   30.9480   40.6620 H   0  0  0  0  0  0  0  0  0  0  0  0
   36.7200   33.0270   39.2970 H   0  0  0  0  0  0  0  0  0  0  0  0
   39.6730   32.8340   39.4120 C   0  0  0  0  0  0  0  0  0  0  0  0
   39.9160   33.9990   40.0210 C   0  0  0  0  0  0  0  0  0  0  0  0
   39.4250   34.5620   40.8380 H   0  0  0  0  0  0  0  0  0  0  0  0
   40.8990   34.9090   39.8150 C   0  0  0  0  0  3  0  0  0  0  0  0
   41.7300   34.3540   38.7120 C   0  0  0  0  0  3  0  0  0  0  0  0
   40.9050   32.6770   38.2450 S   0  0  0  0  0  0  0  0  0  0  0  0
  1  2  1  0  0  0  0
  2  7  2  0  0  0  0
  2  3  1  0  0  0  0
  3  4  2  0  0  0  0
  4  8  1  0  0  0  0
  4  5  1  0  0  0  0
  5  9  1  0  0  0  0
  6 10  1  0  0  0  0
  6  5  2  0  0  0  0
  7  6  1  0  0  0  0
 11 16  1  0  0  0  0
 12 13  1  0  0  0  0
 12 11  2  0  0  0  0
 13 14  2  0  0  0  0
 14 15  1  0  0  0  0
 15  3  1  0  0  0  0
 16 15  2  0  0  0  0
 17 11  1  0  0  0  0
 18 12  1  0  0  0  0
 19 13  1  0  0  0  0
 19 22  1  0  0  0  0
 20 19  1  0  0  0  0
 21 19  1  0  0  0  0
 23  7  1  0  0  0  0
 24 28  1  0  0  0  0
 24 23  2  0  0  0  0
 25 26  2  0  0  0  0
 25 24  1  0  0  0  0
 26 27  1  0  0  0  0
 27 23  1  0  0  0  0
 29 25  1  0  0  0  0
 30 26  1  0  0  0  0
 30 31  2  0  0  0  0
 31 32  1  0  0  0  0
 33 31  1  0  0  0  0
 34 33  2  0  0  0  0
 35 34  1  0  0  0  0
 35 30  1  0  0  0  0
M  END
>  <minimizedAffinity>
-6.1960535

$$$$

 OpenBabel03252500163D

 35 38  0  0  0  0  0  0  0  0999 V2000
   40.4620   29.6990   40.9000 Cl  0  0  0  0  0  0  0  0  0  0  0  0
   39.1220   30.6880   40.3900 C   0  0  0  0  0  0  0  0  0  0  0  0
   37.8440   30.3740   40.7650 C   0  0  0  0  0  0  0  0  0  0  0  0
   36.7490   31.1520   40.3710 C   0  0  0  0  0  0  0  0  0  0  0  0
   37.0330   32.2460   39.5870 C   0  0  0  0  0  0  0  0  0  0  0  0
   38.3220   32.5580   39.2110 C   0  0  0  0  0  0  0  0  0  0  0  0
   39.3560   31.8060   39.5960 C   0  0  0  0  0  0  0  0  0  0  0  0
   35.7530   30.8770   40.6850 H   0  0  0  0  0  0  0  0  0  0  0  0
   36.1860   32.8460   39.2830 H   0  0  0  0  0  0  0  0  0  0  0  0
   38.5210   33.4290   38.5910 H   0  0  0  0  0  0  0  0  0  0  0  0
   37.3210   28.2560   43.7300 C   0  0  0  0  0  0  0  0  0  0  0  0
   37.1440   26.9720   43.1600 C   0  0  0  0  0  0  0  0  0  0  0  0
   37.2070   26.8590   41.7660 C   0  0  0  0  0  0  0  0  0  0  0  0
   37.4360   27.9890   41.0280 N   0  0  0  0  0  0  0  0  0  0  0  0
   37.6010   29.1950   41.6030 C   0  0  0  0  0  0  0  0  0  0  0  0
   37.5420   29.3190   42.9470 N   0  0  0  0  0  0  0  0  0  0  0  0
   37.2620   28.2830   44.8100 H   0  0  0  0  0  0  0  0  0  0  0  0
   36.9630   26.0590   43.6720 H   0  0  0  0  0  0  0  0  0  0  0  0
   37.0360   25.5610   41.0450 C   0  0  0  0  0  0  0  0  0  0  0  0
   36.2280   25.7020   39.9600 F   0  0  0  0  0  0  0  0  0  0  0  0
   38.2870   25.1310   40.6150 F   0  0  0  0  0  0  0  0  0  0  0  0
   36.5310   24.6680   41.9570 F   0  0  0  0  0  0  0  0  0  0  0  0
   40.7340   32.1090   39.2170 C   0  0  0  0  0  0  0  0  0  0  0  0
   41.5180   33.0760   39.8200 C   0  0  0  0  0  0  0  0  0  0  0  0
   42.7510   33.1130   39.2350 C   0  0  0  0  0  0  0  0  0  0  0  0
   42.6600   32.1370   38.2740 C   0  0  0  0  0  0  0  0  0  0  0  0
   41.4680   31.5690   38.2870 O   0  0  0  0  0  0  0  0  0  0  0  0
   41.2960   33.7700   40.6470 H   0  0  0  0  0  0  0  0  0  0  0  0
   43.6710   33.6410   39.3180 H   0  0  0  0  0  0  0  0  0  0  0  0
   43.5380   31.5500   37.2250 C   0  0  0  0  0  0  0  0  0  0  0  0
   42.9440   30.6930   36.3880 C   0  0  0  0  0  0  0  0  0  0  0  0
   41.9140   30.3010   36.2850 H   0  0  0  0  0  0  0  0  0  0  0  0
   43.4480   29.9970   35.3410 C   0  0  0  0  0  3  0  0  0  0  0  0
   44.8870   30.3710   35.2700 C   0  0  0  0  0  3  0  0  0  0  0  0
   45.1600   31.6210   36.7100 S   0  0  0  0  0  0  0  0  0  0  0  0
  2  3  1  0  0  0  0
  2  1  1  0  0  0  0
  3 15  1  0  0  0  0
  4  8  1  0  0  0  0
  4  3  2  0  0  0  0
  5  4  1  0  0  0  0
  6  5  2  0  0  0  0
  6  7  1  0  0  0  0
  7  2  2  0  0  0  0
  9  5  1  0  0  0  0
 10  6  1  0  0  0  0
 11 17  1  0  0  0  0
 12 18  1  0  0  0  0
 12 11  1  0  0  0  0
 13 12  2  0  0  0  0
 14 15  2  0  0  0  0
 14 13  1  0  0  0  0
 15 16  1  0  0  0  0
 16 11  2  0  0  0  0
 19 13  1  0  0  0  0
 19 22  1  0  0  0  0
 20 19  1  0  0  0  0
 21 19  1  0  0  0  0
 23  7  1  0  0  0  0
 23 24  2  0  0  0  0
 24 28  1  0  0  0  0
 25 29  1  0  0  0  0
 25 24  1  0  0  0  0
 26 27  1  0  0  0  0
 26 25  2  0  0  0  0
 27 23  1  0  0  0  0
 30 26  1  0  0  0  0
 31 30  2  0  0  0  0
 32 31  1  0  0  0  0
 33 31  1  0  0  0  0
 34 33  2  0  0  0  0
 34 35  1  0  0  0  0
 35 30  1  0  0  0  0
M  END
>  <minimizedAffinity>
-6.18526506

$$$$

 OpenBabel03252500163D

 35 38  0  0  0  0  0  0  0  0999 V2000
   40.6690   30.3720   41.5640 Cl  0  0  0  0  0  0  0  0  0  0  0  0
   39.2350   31.1400   40.9380 C   0  0  0  0  0  0  0  0  0  0  0  0
   39.3230   32.3180   40.2460 C   0  0  0  0  0  0  0  0  0  0  0  0
   38.1890   32.9550   39.7310 C   0  0  0  0  0  0  0  0  0  0  0  0
   36.9850   32.3300   39.9620 C   0  0  0  0  0  0  0  0  0  0  0  0
   36.9010   31.1440   40.6600 C   0  0  0  0  0  0  0  0  0  0  0  0
   37.9930   30.5480   41.1440 C   0  0  0  0  0  0  0  0  0  0  0  0
   38.2920   33.8840   39.1900 H   0  0  0  0  0  0  0  0  0  0  0  0
   36.1080   32.8240   39.5640 H   0  0  0  0  0  0  0  0  0  0  0  0
   35.9370   30.6690   40.8280 H   0  0  0  0  0  0  0  0  0  0  0  0
   42.2600   34.4940   40.6810 C   0  0  0  0  0  0  0  0  0  0  0  0
   43.0980   34.0910   39.6130 C   0  0  0  0  0  0  0  0  0  0  0  0
   42.6370   33.0780   38.7640 C   0  0  0  0  0  0  0  0  0  0  0  0
   41.4070   32.5310   39.0060 N   0  0  0  0  0  0  0  0  0  0  0  0
   40.6350   32.9380   40.0310 C   0  0  0  0  0  0  0  0  0  0  0  0
   41.0670   33.9150   40.8590 N   0  0  0  0  0  0  0  0  0  0  0  0
   42.6680   35.2790   41.3030 H   0  0  0  0  0  0  0  0  0  0  0  0
   44.0600   34.4720   39.3690 H   0  0  0  0  0  0  0  0  0  0  0  0
   43.4270   32.5660   37.6030 C   0  0  0  0  0  0  0  0  0  0  0  0
   44.3340   33.4880   37.1790 F   0  0  0  0  0  0  0  0  0  0  0  0
   44.1100   31.4240   38.0070 F   0  0  0  0  0  0  0  0  0  0  0  0
   42.5230   32.2390   36.6240 F   0  0  0  0  0  0  0  0  0  0  0  0
   37.9400   29.2910   41.8860 C   0  0  0  0  0  0  0  0  0  0  0  0
   37.7800   29.1960   43.2560 C   0  0  0  0  0  0  0  0  0  0  0  0
   37.7730   27.8850   43.6390 C   0  0  0  0  0  0  0  0  0  0  0  0
   37.9310   27.2220   42.4480 C   0  0  0  0  0  0  0  0  0  0  0  0
   38.0270   28.0700   41.4420 O   0  0  0  0  0  0  0  0  0  0  0  0
   37.6680   29.9790   44.0240 H   0  0  0  0  0  0  0  0  0  0  0  0
   37.6830   27.3010   44.5230 H   0  0  0  0  0  0  0  0  0  0  0  0
   38.0260   25.8090   41.9880 C   0  0  0  0  0  0  0  0  0  0  0  0
   36.8960   25.2820   41.5060 C   0  0  0  0  0  0  0  0  0  0  0  0
   35.8650   25.6610   41.3620 H   0  0  0  0  0  0  0  0  0  0  0  0
   36.6440   24.0450   41.0130 C   0  0  0  0  0  3  0  0  0  0  0  0
   37.9350   23.3100   41.1050 C   0  0  0  0  0  3  0  0  0  0  0  0
   39.1830   24.5640   41.8680 S   0  0  0  0  0  0  0  0  0  0  0  0
  2  7  1  0  0  0  0
  2  1  1  0  0  0  0
  3  2  2  0  0  0  0
  4  5  2  0  0  0  0
  4  3  1  0  0  0  0
  5  6  1  0  0  0  0
  6 10  1  0  0  0  0
  6  7  2  0  0  0  0
  7 23  1  0  0  0  0
  8  4  1  0  0  0  0
  9  5  1  0  0  0  0
 11 16  1  0  0  0  0
 11 17  1  0  0  0  0
 12 11  2  0  0  0  0
 13 14  2  0  0  0  0
 13 12  1  0  0  0  0
 14 15  1  0  0  0  0
 15  3  1  0  0  0  0
 15 16  2  0  0  0  0
 18 12  1  0  0  0  0
 19 21  1  0  0  0  0
 19 13  1  0  0  0  0
 20 19  1  0  0  0  0
 22 19  1  0  0  0  0
 23 24  2  0  0  0  0
 24 25  1  0  0  0  0
 24 28  1  0  0  0  0
 25 29  1  0  0  0  0
 26 25  2  0  0  0  0
 27 23  1  0  0  0  0
 27 26  1  0  0  0  0
 30 26  1  0  0  0  0
 31 30  2  0  0  0  0
 32 31  1  0  0  0  0
 33 34  2  0  0  0  0
 33 31  1  0  0  0  0
 34 35  1  0  0  0  0
 35 30  1  0  0  0  0
M  END
>  <minimizedAffinity>
-6.1398387

$$$$

 OpenBabel03252500163D

 35 38  0  0  0  0  0  0  0  0999 V2000
   39.0640   27.3870   40.4490 Cl  0  0  0  0  0  0  0  0  0  0  0  0
   38.1600   27.5670   41.9280 C   0  0  0  0  0  0  0  0  0  0  0  0
   38.2400   28.7230   42.6550 C   0  0  0  0  0  0  0  0  0  0  0  0
   37.5230   28.8950   43.8450 C   0  0  0  0  0  0  0  0  0  0  0  0
   36.7390   27.8350   44.2390 C   0  0  0  0  0  0  0  0  0  0  0  0
   36.6630   26.6720   43.5040 C   0  0  0  0  0  0  0  0  0  0  0  0
   37.3520   26.5240   42.3700 C   0  0  0  0  0  0  0  0  0  0  0  0
   37.6080   29.8200   44.3950 H   0  0  0  0  0  0  0  0  0  0  0  0
   36.1860   27.9690   45.1600 H   0  0  0  0  0  0  0  0  0  0  0  0
   36.0350   25.8490   43.8370 H   0  0  0  0  0  0  0  0  0  0  0  0
   41.2250   30.7610   41.9590 C   0  0  0  0  0  0  0  0  0  0  0  0
   40.6780   31.8860   41.2960 C   0  0  0  0  0  0  0  0  0  0  0  0
   39.2920   31.9230   41.1020 C   0  0  0  0  0  0  0  0  0  0  0  0
   38.5390   30.8760   41.5580 N   0  0  0  0  0  0  0  0  0  0  0  0
   39.0920   29.8200   42.1850 C   0  0  0  0  0  0  0  0  0  0  0  0
   40.4290   29.7710   42.3800 N   0  0  0  0  0  0  0  0  0  0  0  0
   42.3000   30.7870   42.0820 H   0  0  0  0  0  0  0  0  0  0  0  0
   41.2030   32.7300   40.9180 H   0  0  0  0  0  0  0  0  0  0  0  0
   38.5960   33.0550   40.4170 C   0  0  0  0  0  0  0  0  0  0  0  0
   37.2550   32.8350   40.3430 F   0  0  0  0  0  0  0  0  0  0  0  0
   38.8160   34.2140   41.1530 F   0  0  0  0  0  0  0  0  0  0  0  0
   39.1710   33.1790   39.1780 F   0  0  0  0  0  0  0  0  0  0  0  0
   37.2920   25.3050   41.5670 C   0  0  0  0  0  0  0  0  0  0  0  0
   38.0970   24.1990   41.7620 C   0  0  0  0  0  0  0  0  0  0  0  0
   37.7960   23.2300   40.8470 C   0  0  0  0  0  0  0  0  0  0  0  0
   36.7890   23.8100   40.1150 C   0  0  0  0  0  0  0  0  0  0  0  0
   36.5180   25.0230   40.5590 O   0  0  0  0  0  0  0  0  0  0  0  0
   38.8920   24.0070   42.5010 H   0  0  0  0  0  0  0  0  0  0  0  0
   38.1000   22.2470   40.5790 H   0  0  0  0  0  0  0  0  0  0  0  0
   35.9260   23.4400   38.9600 C   0  0  0  0  0  0  0  0  0  0  0  0
   34.6740   23.0860   39.2650 C   0  0  0  0  0  0  0  0  0  0  0  0
   34.1030   22.9970   40.2100 H   0  0  0  0  0  0  0  0  0  0  0  0
   33.6510   22.7000   38.4640 C   0  0  0  0  0  3  0  0  0  0  0  0
   34.1930   22.7390   37.0790 C   0  0  0  0  0  3  0  0  0  0  0  0
   36.0220   23.3150   37.2630 S   0  0  0  0  0  0  0  0  0  0  0  0
  1  2  1  0  0  0  0
  2  7  2  0  0  0  0
  2  3  1  0  0  0  0
  3  4  2  0  0  0  0
  4  5  1  0  0  0  0
  4  8  1  0  0  0  0
  5  9  1  0  0  0  0
  6 10  1  0  0  0  0
  6  5  2  0  0  0  0
  7  6  1  0  0  0  0
 11 17  1  0  0  0  0
 11 16  1  0  0  0  0
 12 11  2  0  0  0  0
 13 12  1  0  0  0  0
 13 14  2  0  0  0  0
 14 15  1  0  0  0  0
 15 16  2  0  0  0  0
 15  3  1  0  0  0  0
 18 12  1  0  0  0  0
 19 13  1  0  0  0  0
 19 21  1  0  0  0  0
 20 19  1  0  0  0  0
 22 19  1  0  0  0  0
 23 24  2  0  0  0  0
 23  7  1  0  0  0  0
 24 28  1  0  0  0  0
 25 24  1  0  0  0  0
 26 27  1  0  0  0  0
 26 25  2  0  0  0  0
 27 23  1  0  0  0  0
 29 25  1  0  0  0  0
 30 31  2  0  0  0  0
 30 26  1  0  0  0  0
 31 32  1  0  0  0  0
 33 31  1  0  0  0  0
 34 35  1  0  0  0  0
 34 33  2  0  0  0  0
 35 30  1  0  0  0  0
M  END
>  <minimizedAffinity>
-6.11227417

$$$$

 OpenBabel03252500163D

 35 38  0  0  0  0  0  0  0  0999 V2000
   38.9030   30.3070   41.5350 Cl  0  0  0  0  0  0  0  0  0  0  0  0
   37.8430   30.1960   40.1570 C   0  0  0  0  0  0  0  0  0  0  0  0
   37.0070   29.1230   40.0080 C   0  0  0  0  0  0  0  0  0  0  0  0
   36.1440   29.0100   38.9110 C   0  0  0  0  0  0  0  0  0  0  0  0
   36.1880   30.0360   37.9960 C   0  0  0  0  0  0  0  0  0  0  0  0
   37.0320   31.1150   38.1510 C   0  0  0  0  0  0  0  0  0  0  0  0
   37.8490   31.2080   39.2030 C   0  0  0  0  0  0  0  0  0  0  0  0
   35.4960   28.1500   38.8230 H   0  0  0  0  0  0  0  0  0  0  0  0
   35.5210   29.9470   37.1490 H   0  0  0  0  0  0  0  0  0  0  0  0
   37.0480   31.9140   37.4140 H   0  0  0  0  0  0  0  0  0  0  0  0
   36.5150   27.3440   43.1920 C   0  0  0  0  0  0  0  0  0  0  0  0
   37.0030   26.0480   42.8960 C   0  0  0  0  0  0  0  0  0  0  0  0
   37.4920   25.8110   41.6050 C   0  0  0  0  0  0  0  0  0  0  0  0
   37.4750   26.8370   40.7000 N   0  0  0  0  0  0  0  0  0  0  0  0
   37.0030   28.0580   41.0160 C   0  0  0  0  0  0  0  0  0  0  0  0
   36.5280   28.3010   42.2570 N   0  0  0  0  0  0  0  0  0  0  0  0
   36.1500   27.4680   44.2030 H   0  0  0  0  0  0  0  0  0  0  0  0
   37.0460   25.2100   43.5480 H   0  0  0  0  0  0  0  0  0  0  0  0
   38.0340   24.4870   41.1700 C   0  0  0  0  0  0  0  0  0  0  0  0
   38.8010   23.9240   42.1430 F   0  0  0  0  0  0  0  0  0  0  0  0
   36.9630   23.6410   40.9030 F   0  0  0  0  0  0  0  0  0  0  0  0
   38.7410   24.7120   40.0160 F   0  0  0  0  0  0  0  0  0  0  0  0
   38.7540   32.3380   39.3980 C   0  0  0  0  0  0  0  0  0  0  0  0
   38.4100   33.5180   40.0300 C   0  0  0  0  0  0  0  0  0  0  0  0
   39.4770   34.3710   40.0470 C   0  0  0  0  0  0  0  0  0  0  0  0
   40.4520   33.6480   39.4060 C   0  0  0  0  0  0  0  0  0  0  0  0
   39.9990   32.4640   39.0380 O   0  0  0  0  0  0  0  0  0  0  0  0
   37.4600   33.8400   40.4870 H   0  0  0  0  0  0  0  0  0  0  0  0
   39.7290   35.3460   40.3910 H   0  0  0  0  0  0  0  0  0  0  0  0
   41.8750   33.8400   39.0150 C   0  0  0  0  0  0  0  0  0  0  0  0
   42.7650   33.7440   40.0090 C   0  0  0  0  0  0  0  0  0  0  0  0
   42.6910   33.5490   41.0960 H   0  0  0  0  0  0  0  0  0  0  0  0
   44.1150   33.8630   39.9940 C   0  0  0  0  0  3  0  0  0  0  0  0
   44.4730   34.1400   38.5760 C   0  0  0  0  0  3  0  0  0  0  0  0
   42.8000   34.1610   37.6210 S   0  0  0  0  0  0  0  0  0  0  0  0
  2  1  1  0  0  0  0
  3  2  1  0  0  0  0
  3 15  1  0  0  0  0
  4  3  2  0  0  0  0
  5  6  2  0  0  0  0
  5  4  1  0  0  0  0
  6  7  1  0  0  0  0
  7 23  1  0  0  0  0
  7  2  2  0  0  0  0
  8  4  1  0  0  0  0
  9  5  1  0  0  0  0
 10  6  1  0  0  0  0
 11 17  1  0  0  0  0
 12 11  1  0  0  0  0
 12 18  1  0  0  0  0
 13 12  2  0  0  0  0
 14 15  2  0  0  0  0
 14 13  1  0  0  0  0
 15 16  1  0  0  0  0
 16 11  2  0  0  0  0
 19 13  1  0  0  0  0
 19 20  1  0  0  0  0
 21 19  1  0  0  0  0
 22 19  1  0  0  0  0
 23 24  2  0  0  0  0
 24 25  1  0  0  0  0
 24 28  1  0  0  0  0
 25 29  1  0  0  0  0
 26 25  2  0  0  0  0
 27 23  1  0  0  0  0
 27 26  1  0  0  0  0
 30 26  1  0  0  0  0
 30 31  2  0  0  0  0
 31 32  1  0  0  0  0
 33 31  1  0  0  0  0
 34 33  2  0  0  0  0
 35 34  1  0  0  0  0
 35 30  1  0  0  0  0
M  END
>  <minimizedAffinity>
-6.07602692

$$$$

 OpenBabel03252500163D

 35 38  0  0  0  0  0  0  0  0999 V2000
   40.6170   30.3110   39.8200 Cl  0  0  0  0  0  0  0  0  0  0  0  0
   39.3260   31.4800   39.8000 C   0  0  0  0  0  0  0  0  0  0  0  0
   38.0260   31.0840   39.9670 C   0  0  0  0  0  0  0  0  0  0  0  0
   36.9710   32.0030   39.9560 C   0  0  0  0  0  0  0  0  0  0  0  0
   37.3150   33.3220   39.7680 C   0  0  0  0  0  0  0  0  0  0  0  0
   38.6250   33.7150   39.5990 C   0  0  0  0  0  0  0  0  0  0  0  0
   39.6220   32.8270   39.6130 C   0  0  0  0  0  0  0  0  0  0  0  0
   35.9560   31.6580   40.0910 H   0  0  0  0  0  0  0  0  0  0  0  0
   36.4980   34.0300   39.7590 H   0  0  0  0  0  0  0  0  0  0  0  0
   38.8720   34.7640   39.4520 H   0  0  0  0  0  0  0  0  0  0  0  0
   37.1500   27.5800   39.2600 C   0  0  0  0  0  0  0  0  0  0  0  0
   37.1450   27.0010   40.5530 C   0  0  0  0  0  0  0  0  0  0  0  0
   37.4430   27.8270   41.6420 C   0  0  0  0  0  0  0  0  0  0  0  0
   37.7230   29.1460   41.4070 N   0  0  0  0  0  0  0  0  0  0  0  0
   37.7190   29.6640   40.1640 C   0  0  0  0  0  0  0  0  0  0  0  0
   37.4330   28.8780   39.1030 N   0  0  0  0  0  0  0  0  0  0  0  0
   36.9120   26.8950   38.4570 H   0  0  0  0  0  0  0  0  0  0  0  0
   36.9370   25.9900   40.8050 H   0  0  0  0  0  0  0  0  0  0  0  0
   37.4700   27.3360   43.0540 C   0  0  0  0  0  0  0  0  0  0  0  0
   38.0920   28.2260   43.8740 F   0  0  0  0  0  0  0  0  0  0  0  0
   36.1580   27.1740   43.4870 F   0  0  0  0  0  0  0  0  0  0  0  0
   38.1010   26.1180   43.0350 F   0  0  0  0  0  0  0  0  0  0  0  0
   41.0200   33.2110   39.4380 C   0  0  0  0  0  0  0  0  0  0  0  0
   41.6650   33.2900   38.2180 C   0  0  0  0  0  0  0  0  0  0  0  0
   42.9640   33.6730   38.3950 C   0  0  0  0  0  0  0  0  0  0  0  0
   43.0520   33.8160   39.7580 C   0  0  0  0  0  0  0  0  0  0  0  0
   41.9010   33.5380   40.3400 O   0  0  0  0  0  0  0  0  0  0  0  0
   41.2990   33.0970   37.1960 H   0  0  0  0  0  0  0  0  0  0  0  0
   43.8350   33.8730   37.8190 H   0  0  0  0  0  0  0  0  0  0  0  0
   44.0930   34.1970   40.7510 C   0  0  0  0  0  0  0  0  0  0  0  0
   43.6410   34.5240   41.9660 C   0  0  0  0  0  0  0  0  0  0  0  0
   42.6360   34.5830   42.4270 H   0  0  0  0  0  0  0  0  0  0  0  0
   44.3110   34.9110   43.0780 C   0  0  0  0  0  3  0  0  0  0  0  0
   45.7490   34.9110   42.6960 C   0  0  0  0  0  3  0  0  0  0  0  0
   45.7870   34.3610   40.8500 S   0  0  0  0  0  0  0  0  0  0  0  0
  2  1  1  0  0  0  0
  2  3  1  0  0  0  0
  3 15  1  0  0  0  0
  4  3  2  0  0  0  0
  4  8  1  0  0  0  0
  5  4  1  0  0  0  0
  6  7  1  0  0  0  0
  6  5  2  0  0  0  0
  7  2  2  0  0  0  0
  9  5  1  0  0  0  0
 10  6  1  0  0  0  0
 11 12  1  0  0  0  0
 12 18  1  0  0  0  0
 12 13  2  0  0  0  0
 13 19  1  0  0  0  0
 14 13  1  0  0  0  0
 15 14  2  0  0  0  0
 16 11  2  0  0  0  0
 16 15  1  0  0  0  0
 17 11  1  0  0  0  0
 19 21  1  0  0  0  0
 19 20  1  0  0  0  0
 22 19  1  0  0  0  0
 23  7  1  0  0  0  0
 23 27  1  0  0  0  0
 24 25  1  0  0  0  0
 24 23  2  0  0  0  0
 25 26  2  0  0  0  0
 26 27  1  0  0  0  0
 26 30  1  0  0  0  0
 28 24  1  0  0  0  0
 29 25  1  0  0  0  0
 30 35  1  0  0  0  0
 30 31  2  0  0  0  0
 31 32  1  0  0  0  0
 31 33  1  0  0  0  0
 34 33  2  0  0  0  0
 35 34  1  0  0  0  0
M  END
>  <minimizedAffinity>
-6.05862236

$$$$

 OpenBabel03252500163D

 35 38  0  0  0  0  0  0  0  0999 V2000
   37.6650   31.5780   37.0750 Cl  0  0  0  0  0  0  0  0  0  0  0  0
   36.9610   30.9220   38.5270 C   0  0  0  0  0  0  0  0  0  0  0  0
   36.0920   29.8670   38.4630 C   0  0  0  0  0  0  0  0  0  0  0  0
   35.5130   29.3210   39.6140 C   0  0  0  0  0  0  0  0  0  0  0  0
   35.8670   29.9050   40.8080 C   0  0  0  0  0  0  0  0  0  0  0  0
   36.7430   30.9690   40.8670 C   0  0  0  0  0  0  0  0  0  0  0  0
   37.2870   31.4780   39.7600 C   0  0  0  0  0  0  0  0  0  0  0  0
   34.8310   28.4870   39.5300 H   0  0  0  0  0  0  0  0  0  0  0  0
   35.4180   29.4820   41.6970 H   0  0  0  0  0  0  0  0  0  0  0  0
   37.0070   31.4130   41.8240 H   0  0  0  0  0  0  0  0  0  0  0  0
   36.4000   28.0850   35.2580 C   0  0  0  0  0  0  0  0  0  0  0  0
   35.0940   28.1940   34.7220 C   0  0  0  0  0  0  0  0  0  0  0  0
   34.1320   28.8790   35.4740 C   0  0  0  0  0  0  0  0  0  0  0  0
   34.4990   29.4060   36.6820 N   0  0  0  0  0  0  0  0  0  0  0  0
   35.7510   29.2840   37.1620 C   0  0  0  0  0  0  0  0  0  0  0  0
   36.6900   28.6250   36.4470 N   0  0  0  0  0  0  0  0  0  0  0  0
   37.1010   27.5460   34.6330 H   0  0  0  0  0  0  0  0  0  0  0  0
   34.7430   27.8100   33.7950 H   0  0  0  0  0  0  0  0  0  0  0  0
   32.7200   29.0610   35.0170 C   0  0  0  0  0  0  0  0  0  0  0  0
   31.8520   29.0050   36.0640 F   0  0  0  0  0  0  0  0  0  0  0  0
   32.6110   30.3120   34.4170 F   0  0  0  0  0  0  0  0  0  0  0  0
   32.4770   28.0820   34.0880 F   0  0  0  0  0  0  0  0  0  0  0  0
   38.2190   32.6030   39.7880 C   0  0  0  0  0  0  0  0  0  0  0  0
   37.8640   33.9070   40.0780 C   0  0  0  0  0  0  0  0  0  0  0  0
   38.9610   34.7180   40.0190 C   0  0  0  0  0  0  0  0  0  0  0  0
   39.9660   33.8430   39.6870 C   0  0  0  0  0  0  0  0  0  0  0  0
   39.5000   32.6140   39.5580 O   0  0  0  0  0  0  0  0  0  0  0  0
   36.8860   34.3490   40.3300 H   0  0  0  0  0  0  0  0  0  0  0  0
   39.2200   35.7410   40.1510 H   0  0  0  0  0  0  0  0  0  0  0  0
   41.4310   33.9060   39.4340 C   0  0  0  0  0  0  0  0  0  0  0  0
   41.7910   34.0110   38.1500 C   0  0  0  0  0  0  0  0  0  0  0  0
   41.2360   34.0640   37.1930 H   0  0  0  0  0  0  0  0  0  0  0  0
   43.0210   34.0910   37.5870 C   0  0  0  0  0  3  0  0  0  0  0  0
   43.9820   34.0370   38.7210 C   0  0  0  0  0  3  0  0  0  0  0  0
   42.8950   33.8880   40.3050 S   0  0  0  0  0  0  0  0  0  0  0  0
  1  2  1  0  0  0  0
  2  7  1  0  0  0  0
  3  2  2  0  0  0  0
  3  4  1  0  0  0  0
  4  5  2  0  0  0  0
  5  6  1  0  0  0  0
  5  9  1  0  0  0  0
  6 10  1  0  0  0  0
  7 23  1  0  0  0  0
  7  6  2  0  0  0  0
  8  4  1  0  0  0  0
 11 16  1  0  0  0  0
 12 11  2  0  0  0  0
 12 13  1  0  0  0  0
 13 14  2  0  0  0  0
 14 15  1  0  0  0  0
 15  3  1  0  0  0  0
 16 15  2  0  0  0  0
 17 11  1  0  0  0  0
 18 12  1  0  0  0  0
 19 13  1  0  0  0  0
 19 20  1  0  0  0  0
 21 19  1  0  0  0  0
 22 19  1  0  0  0  0
 23 24  2  0  0  0  0
 24 28  1  0  0  0  0
 25 24  1  0  0  0  0
 25 29  1  0  0  0  0
 26 25  2  0  0  0  0
 27 26  1  0  0  0  0
 27 23  1  0  0  0  0
 30 26  1  0  0  0  0
 30 35  1  0  0  0  0
 31 30  2  0  0  0  0
 32 31  1  0  0  0  0
 33 31  1  0  0  0  0
 33 34  2  0  0  0  0
 34 35  1  0  0  0  0
M  END
>  <minimizedAffinity>
-5.94239378

$$$$
