
 OpenBabel03252506263D

 42 46  0  0  0  0  0  0  0  0999 V2000
   46.1210   30.0990   48.3760 C   0  0  0  0  0  0  0  0  0  0  0  0
   46.3320   29.7130   49.4170 H   0  0  0  0  0  0  0  0  0  0  0  0
   45.4660   30.9800   48.5360 H   0  0  0  0  0  0  0  0  0  0  0  0
   45.6140   27.6640   47.7020 C   0  0  0  0  0  0  0  0  0  0  0  0
   45.4220   29.0380   47.6670 C   0  0  0  0  0  0  0  0  0  0  0  0
   44.4200   29.4790   46.8310 C   0  0  0  0  0  0  0  0  0  0  0  0
   43.6480   28.6280   46.0700 C   0  0  0  0  0  0  0  0  0  0  0  0
   42.6350   28.7680   45.2000 N   0  0  0  0  0  0  0  0  0  0  0  0
   42.2250   27.5900   44.7310 C   0  0  0  0  0  0  0  0  0  0  0  0
   42.9890   26.6020   45.3020 C   0  0  0  0  0  0  0  0  0  0  0  0
   43.8570   27.2610   46.1210 C   0  0  0  0  0  0  0  0  0  0  0  0
   44.8470   26.8050   46.9450 C   0  0  0  0  0  0  0  0  0  0  0  0
   46.4160   27.4500   48.3850 H   0  0  0  0  0  0  0  0  0  0  0  0
   44.1490   30.5140   46.6930 H   0  0  0  0  0  0  0  0  0  0  0  0
   42.2180   29.7060   44.9280 H   0  0  0  0  0  0  0  0  0  0  0  0
   41.4210   27.4820   44.0190 H   0  0  0  0  0  0  0  0  0  0  0  0
   42.8200   25.5850   45.0600 H   0  0  0  0  0  0  0  0  0  0  0  0
   45.2250   25.4220   47.1370 C   0  0  0  0  0  0  0  0  0  0  0  0
   44.6080   24.2810   46.9170 C   0  0  0  0  0  0  0  0  0  0  0  0
   43.6410   24.0710   46.5330 H   0  0  0  0  0  0  0  0  0  0  0  0
   45.1600   23.0750   47.1620 C   0  0  0  0  0  3  0  0  0  0  0  0
   46.4690   23.0680   47.6820 C   0  0  0  0  0  3  0  0  0  0  0  0
   46.7790   24.9140   47.7650 S   0  0  0  0  0  0  0  0  0  0  0  0
   47.4230   30.5370   47.8170 C   0  0  0  0  0  0  0  0  0  0  0  0
   47.8690   31.2620   48.5440 H   0  0  0  0  0  0  0  0  0  0  0  0
   48.0980   29.6980   47.6750 H   0  0  0  0  0  0  0  0  0  0  0  0
   46.5780   32.8030   45.1800 C   0  0  0  0  0  0  0  0  0  0  0  0
   47.2330   31.7790   44.4800 C   0  0  0  0  0  0  0  0  0  0  0  0
   47.6230   30.8240   45.3610 C   0  0  0  0  0  0  0  0  0  0  0  0
   47.2210   31.2440   46.5630 N   0  0  0  0  0  0  0  0  0  0  0  0
   46.5920   32.4320   46.4700 N   0  0  0  0  0  0  0  0  0  0  0  0
   47.4270   31.7100   43.4110 H   0  0  0  0  0  0  0  0  0  0  0  0
   48.1550   29.8940   45.1720 H   0  0  0  0  0  0  0  0  0  0  0  0
   44.5490   35.7900   44.6660 C   0  0  0  0  0  0  0  0  0  0  0  0
   44.9500   36.2560   43.4250 C   0  0  0  0  0  0  0  0  0  0  0  0
   45.9300   35.5310   42.7640 C   0  0  0  0  0  0  0  0  0  0  0  0
   46.4280   34.4200   43.3690 N   0  0  0  0  0  0  0  0  0  0  0  0
   46.0200   33.9980   44.5660 C   0  0  0  0  0  0  0  0  0  0  0  0
   45.0800   34.6880   45.2090 N   0  0  0  0  0  0  0  0  0  0  0  0
   43.7850   36.3690   45.1660 H   0  0  0  0  0  0  0  0  0  0  0  0
   44.5660   37.1240   42.9430 H   0  0  0  0  0  0  0  0  0  0  0  0
   46.3490   35.7510   41.8060 H   0  0  0  0  0  0  0  0  0  0  0  0
  1  3  1  0  0  0  0
  1  2  1  0  0  0  0
  4 13  1  0  0  0  0
  5  4  1  0  0  0  0
  5  1  1  0  0  0  0
  6  5  2  0  0  0  0
  7 11  2  0  0  0  0
  7  6  1  0  0  0  0
  8  7  1  0  0  0  0
  9  8  1  0  0  0  0
  9 10  2  0  0  0  0
 10 11  1  0  0  0  0
 11 12  1  0  0  0  0
 12 18  1  0  0  0  0
 12  4  2  0  0  0  0
 14  6  1  0  0  0  0
 15  8  1  0  0  0  0
 16  9  1  0  0  0  0
 17 10  1  0  0  0  0
 18 23  1  0  0  0  0
 19 18  2  0  0  0  0
 19 21  1  0  0  0  0
 20 19  1  0  0  0  0
 21 22  2  0  0  0  0
 22 23  1  0  0  0  0
 24  1  1  0  0  0  0
 24 25  1  0  0  0  0
 26 24  1  0  0  0  0
 27 31  2  0  0  0  0
 28 27  1  0  0  0  0
 28 29  2  0  0  0  0
 29 30  1  0  0  0  0
 30 24  1  0  0  0  0
 31 30  1  0  0  0  0
 32 28  1  0  0  0  0
 33 29  1  0  0  0  0
 34 40  1  0  0  0  0
 34 39  1  0  0  0  0
 35 34  2  0  0  0  0
 36 37  2  0  0  0  0
 36 35  1  0  0  0  0
 37 38  1  0  0  0  0
 38 27  1  0  0  0  0
 38 39  2  0  0  0  0
 41 35  1  0  0  0  0
 42 36  1  0  0  0  0
M  END
>  <minimizedAffinity>
-5.36059523

>  <minimizedRMSD>
0.648348808

$$$$
