
 OpenBabel03252504423D

 42 45  0  0  0  0  0  0  0  0999 V2000
   46.4150   32.1720   47.7840 C   0  0  0  0  0  0  0  0  0  0  0  0
   45.9400   31.8720   49.0250 C   0  0  0  0  0  0  0  0  0  0  0  0
   46.8940   31.1700   49.6370 N   0  0  0  0  0  0  0  0  0  0  0  0
   47.9500   31.0110   48.8450 C   0  0  0  0  0  0  0  0  0  0  0  0
   47.6500   31.6440   47.6700 N   0  0  0  0  0  0  0  0  0  0  0  0
   49.2030   30.3500   49.0430 N   0  0  0  0  0  0  0  0  0  0  0  0
   50.3000   31.1520   49.6320 C   0  0  0  0  0  0  0  0  0  0  0  0
   50.3920   30.6870   51.0800 C   0  0  0  0  0  0  0  0  0  0  0  0
   50.3930   29.1750   51.1340 C   0  0  0  0  0  0  0  0  0  0  0  0
   50.7290   28.6190   49.7590 C   0  0  0  0  0  0  0  0  0  0  0  0
   49.6400   29.0180   48.7810 C   0  0  0  0  0  0  0  0  0  0  0  0
   44.9660   32.1600   49.4190 H   0  0  0  0  0  0  0  0  0  0  0  0
   46.8390   30.7870   50.6110 H   0  0  0  0  0  0  0  0  0  0  0  0
   51.2590   30.9610   49.1250 H   0  0  0  0  0  0  0  0  0  0  0  0
   50.0250   32.2210   49.6560 H   0  0  0  0  0  0  0  0  0  0  0  0
   51.3160   31.0480   51.5840 H   0  0  0  0  0  0  0  0  0  0  0  0
   49.5170   31.0830   51.6570 H   0  0  0  0  0  0  0  0  0  0  0  0
   49.3770   28.8180   51.3840 H   0  0  0  0  0  0  0  0  0  0  0  0
   51.0750   28.7980   51.8980 H   0  0  0  0  0  0  0  0  0  0  0  0
   50.6770   27.5000   49.8690 H   0  0  0  0  0  0  0  0  0  0  0  0
   51.7360   28.9390   49.4160 H   0  0  0  0  0  0  0  0  0  0  0  0
   50.0880   28.9960   47.7670 H   0  0  0  0  0  0  0  0  0  0  0  0
   48.8190   28.2710   48.7870 H   0  0  0  0  0  0  0  0  0  0  0  0
   45.7090   32.9500   46.7330 C   0  0  0  0  0  0  0  0  0  0  0  0
   45.6390   34.0010   47.1210 H   0  0  0  0  0  0  0  0  0  0  0  0
   44.6830   32.5710   46.5950 H   0  0  0  0  0  0  0  0  0  0  0  0
   46.3500   33.9380   44.5590 C   0  0  0  0  0  3  0  0  0  0  0  0
   46.5030   33.0170   45.4850 C   0  0  0  0  0  3  0  0  0  0  0  0
   47.2030   33.8840   43.3760 C   0  0  0  0  0  0  0  0  0  0  0  0
   47.1390   34.8720   42.3710 C   0  0  0  0  0  0  0  0  0  0  0  0
   47.9950   34.7290   41.2850 C   0  0  0  0  0  0  0  0  0  0  0  0
   48.8420   33.6710   41.2250 N   0  0  0  0  0  0  0  0  0  0  0  0
   48.8810   32.7410   42.2010 C   0  0  0  0  0  0  0  0  0  0  0  0
   48.0800   32.8440   43.2520 N   0  0  0  0  0  0  0  0  0  0  0  0
   46.4440   35.6650   42.5050 H   0  0  0  0  0  0  0  0  0  0  0  0
   47.9180   35.5050   40.5350 H   0  0  0  0  0  0  0  0  0  0  0  0
   49.8470   31.7030   41.9430 C   0  0  0  0  0  0  0  0  0  0  0  0
   49.8980   30.4250   42.3690 C   0  0  0  0  0  0  0  0  0  0  0  0
   49.1100   30.0580   43.0130 H   0  0  0  0  0  0  0  0  0  0  0  0
   50.9400   29.6190   41.9790 C   0  0  0  0  0  3  0  0  0  0  0  0
   51.8990   30.2060   41.1430 C   0  0  0  0  0  3  0  0  0  0  0  0
   51.3010   31.9180   40.9180 S   0  0  0  0  0  0  0  0  0  0  0  0
  1  2  2  0  0  0  0
  2 12  1  0  0  0  0
  2  3  1  0  0  0  0
  3 13  1  0  0  0  0
  4  6  1  0  0  0  0
  4  3  1  0  0  0  0
  5  1  1  0  0  0  0
  5  4  2  0  0  0  0
  6  7  1  0  0  0  0
  7 15  1  0  0  0  0
  7  8  1  0  0  0  0
  8  9  1  0  0  0  0
  8 16  1  0  0  0  0
  8 17  1  0  0  0  0
  9 18  1  0  0  0  0
  9 19  1  0  0  0  0
 10 20  1  0  0  0  0
 10  9  1  0  0  0  0
 11 23  1  0  0  0  0
 11  6  1  0  0  0  0
 11 10  1  0  0  0  0
 14  7  1  0  0  0  0
 21 10  1  0  0  0  0
 22 11  1  0  0  0  0
 24 25  1  0  0  0  0
 24  1  1  0  0  0  0
 26 24  1  0  0  0  0
 27 28  2  0  0  0  0
 28 24  1  0  0  0  0
 29 27  1  0  0  0  0
 30 35  1  0  0  0  0
 30 29  2  0  0  0  0
 31 30  1  0  0  0  0
 32 31  2  0  0  0  0
 32 33  1  0  0  0  0
 33 34  2  0  0  0  0
 34 29  1  0  0  0  0
 36 31  1  0  0  0  0
 37 33  1  0  0  0  0
 37 38  2  0  0  0  0
 38 39  1  0  0  0  0
 40 38  1  0  0  0  0
 41 40  2  0  0  0  0
 42 41  1  0  0  0  0
 42 37  1  0  0  0  0
M  END
>  <minimizedAffinity>
-5.66321707

>  <minimizedRMSD>
0.654398382

$$$$
