
 OpenBabel03252503393D

 38 41  0  0  1  0  0  0  0  0999 V2000
   36.2350   28.5780   40.8420 C   0  0  1  0  0  0  0  0  0  0  0  0
   35.3070   29.6520   40.0910 C   0  0  0  0  0  0  0  0  0  0  0  0
   34.3130   28.9310   39.2380 C   0  0  0  0  0  0  0  0  0  0  0  0
   34.9530   28.2320   38.0770 C   0  0  0  0  0  0  0  0  0  0  0  0
   36.3860   27.8800   38.4380 C   0  0  0  0  0  0  0  0  0  0  0  0
   36.4360   27.4670   39.9230 C   0  0  1  0  0  0  0  0  0  0  0  0
   35.6300   28.4080   41.7350 H   0  0  0  0  0  0  0  0  0  0  0  0
   34.8300   30.2840   40.8300 H   0  0  0  0  0  0  0  0  0  0  0  0
   36.0120   30.2020   39.4340 H   0  0  0  0  0  0  0  0  0  0  0  0
   33.8060   28.1750   39.9010 H   0  0  0  0  0  0  0  0  0  0  0  0
   33.5410   29.6390   38.9490 H   0  0  0  0  0  0  0  0  0  0  0  0
   34.4410   27.2560   37.9280 H   0  0  0  0  0  0  0  0  0  0  0  0
   34.9190   28.8200   37.1470 H   0  0  0  0  0  0  0  0  0  0  0  0
   36.9800   28.8090   38.3020 H   0  0  0  0  0  0  0  0  0  0  0  0
   36.8150   27.0970   37.8130 H   0  0  0  0  0  0  0  0  0  0  0  0
   35.4660   26.8470   39.9850 H   0  0  0  0  0  0  0  0  0  0  0  0
   37.4480   29.3520   41.2430 C   0  0  0  0  0  0  0  0  0  0  0  0
   38.0860   29.4130   42.4780 C   0  0  0  0  0  0  0  0  0  0  0  0
   39.1820   30.2390   42.5650 C   0  0  0  0  0  0  0  0  0  0  0  0
   39.5940   30.9500   41.4580 N   0  0  0  0  0  0  0  0  0  0  0  0
   38.9400   30.8560   40.2720 C   0  0  0  0  0  0  0  0  0  0  0  0
   37.8530   30.0410   40.1800 N   0  0  0  0  0  0  0  0  0  0  0  0
   39.6940   30.3040   43.5160 H   0  0  0  0  0  0  0  0  0  0  0  0
   39.3760   31.4690   39.4920 H   0  0  0  0  0  0  0  0  0  0  0  0
   37.6910   28.5820   43.6560 C   0  0  0  0  0  0  0  0  0  0  0  0
   36.9430   27.4040   43.5530 C   0  0  0  0  0  0  0  0  0  0  0  0
   38.3730   27.1160   43.6780 C   0  0  0  0  0  0  0  0  0  0  0  0
   38.1910   29.0430   44.5770 H   0  0  0  0  0  0  0  0  0  0  0  0
   36.4450   27.1690   42.5640 H   0  0  0  0  0  0  0  0  0  0  0  0
   36.2320   27.0880   44.3780 H   0  0  0  0  0  0  0  0  0  0  0  0
   38.6950   26.7610   44.6610 H   0  0  0  0  0  0  0  0  0  0  0  0
   38.9950   26.9510   42.7840 H   0  0  0  0  0  0  0  0  0  0  0  0
   37.5000   26.5200   40.1540 C   0  0  0  0  0  0  0  0  0  0  0  0
   38.8300   26.4320   40.0620 C   0  0  0  0  0  0  0  0  0  0  0  0
   39.4080   27.2890   39.7480 H   0  0  0  0  0  0  0  0  0  0  0  0
   39.5060   25.2840   40.3690 C   0  0  0  0  0  3  0  0  0  0  0  0
   38.6970   24.1800   40.7960 C   0  0  0  0  0  3  0  0  0  0  0  0
   36.9720   24.9320   40.7110 S   0  0  0  0  0  0  0  0  0  0  0  0
  1 17  1  0  0  0  0
  1  7  1  1  0  0  0
  2  8  1  0  0  0  0
  2  1  1  0  0  0  0
  3 10  1  0  0  0  0
  3  2  1  0  0  0  0
  4  5  1  0  0  0  0
  4  3  1  0  0  0  0
  5  6  1  0  0  0  0
  6 16  1  1  0  0  0
  6 33  1  0  0  0  0
  6  1  1  0  0  0  0
  9  2  1  0  0  0  0
 11  3  1  0  0  0  0
 12  4  1  0  0  0  0
 13  4  1  0  0  0  0
 14  5  1  0  0  0  0
 15  5  1  0  0  0  0
 17 18  1  0  0  0  0
 18 19  2  0  0  0  0
 18 25  1  0  0  0  0
 19 23  1  0  0  0  0
 20 19  1  0  0  0  0
 21 20  2  0  0  0  0
 22 21  1  0  0  0  0
 22 17  2  0  0  0  0
 24 21  1  0  0  0  0
 25 27  1  0  0  0  0
 25 28  1  0  0  0  0
 26 25  1  0  0  0  0
 26 27  1  0  0  0  0
 26 30  1  0  0  0  0
 27 31  1  0  0  0  0
 29 26  1  0  0  0  0
 32 27  1  0  0  0  0
 33 38  1  0  0  0  0
 34 33  2  0  0  0  0
 34 36  1  0  0  0  0
 35 34  1  0  0  0  0
 36 37  2  0  0  0  0
 38 37  1  0  0  0  0
M  END
>  <minimizedAffinity>
-5.25033665

$$$$

 OpenBabel03252503393D

 38 41  0  0  1  0  0  0  0  0999 V2000
   36.7720   28.5690   40.7440 C   0  0  1  0  0  0  0  0  0  0  0  0
   36.9600   27.2270   41.6060 C   0  0  0  0  0  0  0  0  0  0  0  0
   36.6460   27.5140   43.0390 C   0  0  0  0  0  0  0  0  0  0  0  0
   37.6560   28.4180   43.6780 C   0  0  0  0  0  0  0  0  0  0  0  0
   38.2850   29.2940   42.6080 C   0  0  0  0  0  0  0  0  0  0  0  0
   37.2010   29.6790   41.5820 C   0  0  1  0  0  0  0  0  0  0  0  0
   35.7110   28.4830   40.5030 H   0  0  0  0  0  0  0  0  0  0  0  0
   36.3250   26.4520   41.1950 H   0  0  0  0  0  0  0  0  0  0  0  0
   38.0420   26.9990   41.5140 H   0  0  0  0  0  0  0  0  0  0  0  0
   35.6340   28.0080   43.0550 H   0  0  0  0  0  0  0  0  0  0  0  0
   36.5230   26.5650   43.5540 H   0  0  0  0  0  0  0  0  0  0  0  0
   37.1230   29.1210   44.3550 H   0  0  0  0  0  0  0  0  0  0  0  0
   38.4300   27.8720   44.2390 H   0  0  0  0  0  0  0  0  0  0  0  0
   39.0530   28.6700   42.1030 H   0  0  0  0  0  0  0  0  0  0  0  0
   38.7680   30.1880   43.0030 H   0  0  0  0  0  0  0  0  0  0  0  0
   36.3180   29.8750   42.2970 H   0  0  0  0  0  0  0  0  0  0  0  0
   37.5550   28.3210   39.4970 C   0  0  0  0  0  0  0  0  0  0  0  0
   37.2320   28.6300   38.1790 C   0  0  0  0  0  0  0  0  0  0  0  0
   38.1430   28.2580   37.2180 C   0  0  0  0  0  0  0  0  0  0  0  0
   39.3060   27.6150   37.5880 N   0  0  0  0  0  0  0  0  0  0  0  0
   39.5770   27.3370   38.8890 C   0  0  0  0  0  0  0  0  0  0  0  0
   38.6780   27.7010   39.8450 N   0  0  0  0  0  0  0  0  0  0  0  0
   37.9140   28.4850   36.1860 H   0  0  0  0  0  0  0  0  0  0  0  0
   40.5260   26.8300   39.0310 H   0  0  0  0  0  0  0  0  0  0  0  0
   36.0130   29.3990   37.7830 C   0  0  0  0  0  0  0  0  0  0  0  0
   35.3000   29.1600   36.6010 C   0  0  0  0  0  0  0  0  0  0  0  0
   34.6640   28.5090   37.7480 C   0  0  0  0  0  0  0  0  0  0  0  0
   35.7610   30.1020   38.6500 H   0  0  0  0  0  0  0  0  0  0  0  0
   35.7710   28.4960   35.8150 H   0  0  0  0  0  0  0  0  0  0  0  0
   34.7630   30.0000   36.0620 H   0  0  0  0  0  0  0  0  0  0  0  0
   33.7640   29.0030   38.1260 H   0  0  0  0  0  0  0  0  0  0  0  0
   34.8740   27.4540   37.9860 H   0  0  0  0  0  0  0  0  0  0  0  0
   37.4920   30.9620   40.9900 C   0  0  0  0  0  0  0  0  0  0  0  0
   36.9040   31.9050   40.2470 C   0  0  0  0  0  0  0  0  0  0  0  0
   35.8700   31.7930   39.9530 H   0  0  0  0  0  0  0  0  0  0  0  0
   37.5630   33.0340   39.8480 C   0  0  0  0  0  3  0  0  0  0  0  0
   38.9270   33.1430   40.2760 C   0  0  0  0  0  3  0  0  0  0  0  0
   39.1360   31.5460   41.2520 S   0  0  0  0  0  0  0  0  0  0  0  0
  1  7  1  6  0  0  0
  1  6  1  0  0  0  0
  1  2  1  0  0  0  0
  2  3  1  0  0  0  0
  3 10  1  0  0  0  0
  3 11  1  0  0  0  0
  3  4  1  0  0  0  0
  4 13  1  0  0  0  0
  4 12  1  0  0  0  0
  5 15  1  0  0  0  0
  5  4  1  0  0  0  0
  6 16  1  1  0  0  0
  6  5  1  0  0  0  0
  8  2  1  0  0  0  0
  9  2  1  0  0  0  0
 14  5  1  0  0  0  0
 17 22  1  0  0  0  0
 17  1  1  0  0  0  0
 18 17  2  0  0  0  0
 19 20  2  0  0  0  0
 19 18  1  0  0  0  0
 20 21  1  0  0  0  0
 21 24  1  0  0  0  0
 21 22  2  0  0  0  0
 23 19  1  0  0  0  0
 25 18  1  0  0  0  0
 25 28  1  0  0  0  0
 26 27  1  0  0  0  0
 26 25  1  0  0  0  0
 27 25  1  0  0  0  0
 27 32  1  0  0  0  0
 27 31  1  0  0  0  0
 29 26  1  0  0  0  0
 30 26  1  0  0  0  0
 33 38  1  0  0  0  0
 33  6  1  0  0  0  0
 34 33  2  0  0  0  0
 35 34  1  0  0  0  0
 36 34  1  0  0  0  0
 36 37  2  0  0  0  0
 37 38  1  0  0  0  0
M  END
>  <minimizedAffinity>
-5.17709684

$$$$

 OpenBabel03252503393D

 38 41  0  0  1  0  0  0  0  0999 V2000
   36.6890   30.1090   39.0490 C   0  0  1  0  0  0  0  0  0  0  0  0
   36.1760   29.7640   37.5670 C   0  0  0  0  0  0  0  0  0  0  0  0
   34.9300   28.9430   37.6570 C   0  0  0  0  0  0  0  0  0  0  0  0
   35.1840   27.5720   38.2070 C   0  0  0  0  0  0  0  0  0  0  0  0
   36.4060   27.6180   39.1080 C   0  0  0  0  0  0  0  0  0  0  0  0
   36.4010   28.9510   39.8830 C   0  0  1  0  0  0  0  0  0  0  0  0
   36.1270   31.0270   39.2280 H   0  0  0  0  0  0  0  0  0  0  0  0
   36.0180   30.6890   37.0240 H   0  0  0  0  0  0  0  0  0  0  0  0
   36.9870   29.1400   37.1400 H   0  0  0  0  0  0  0  0  0  0  0  0
   34.2260   29.4980   38.3390 H   0  0  0  0  0  0  0  0  0  0  0  0
   34.4570   28.9400   36.6790 H   0  0  0  0  0  0  0  0  0  0  0  0
   34.3390   27.2970   38.8740 H   0  0  0  0  0  0  0  0  0  0  0  0
   35.3060   26.8090   37.4220 H   0  0  0  0  0  0  0  0  0  0  0  0
   37.2910   27.5940   38.4370 H   0  0  0  0  0  0  0  0  0  0  0  0
   36.4710   26.7780   39.7990 H   0  0  0  0  0  0  0  0  0  0  0  0
   35.2780   29.0290   40.1280 H   0  0  0  0  0  0  0  0  0  0  0  0
   38.1270   30.4710   38.8680 C   0  0  0  0  0  0  0  0  0  0  0  0
   38.8350   31.5510   39.3880 C   0  0  0  0  0  0  0  0  0  0  0  0
   40.1590   31.6490   39.0300 C   0  0  0  0  0  0  0  0  0  0  0  0
   40.7160   30.7000   38.1980 N   0  0  0  0  0  0  0  0  0  0  0  0
   39.9840   29.6620   37.7180 C   0  0  0  0  0  0  0  0  0  0  0  0
   38.6720   29.5610   38.0670 N   0  0  0  0  0  0  0  0  0  0  0  0
   40.7310   32.4800   39.4190 H   0  0  0  0  0  0  0  0  0  0  0  0
   40.5520   28.9960   37.0780 H   0  0  0  0  0  0  0  0  0  0  0  0
   38.2570   32.5340   40.3540 C   0  0  0  0  0  0  0  0  0  0  0  0
   38.6510   33.8750   40.4200 C   0  0  0  0  0  0  0  0  0  0  0  0
   37.4140   33.7210   39.6500 C   0  0  0  0  0  0  0  0  0  0  0  0
   37.4120   32.0000   40.9130 H   0  0  0  0  0  0  0  0  0  0  0  0
   39.5820   34.1890   39.8570 H   0  0  0  0  0  0  0  0  0  0  0  0
   38.6360   34.4420   41.4010 H   0  0  0  0  0  0  0  0  0  0  0  0
   36.5000   34.0220   40.1710 H   0  0  0  0  0  0  0  0  0  0  0  0
   37.4390   33.6340   38.5530 H   0  0  0  0  0  0  0  0  0  0  0  0
   37.0520   28.8000   41.1610 C   0  0  0  0  0  0  0  0  0  0  0  0
   37.2660   29.4840   42.2890 C   0  0  0  0  0  0  0  0  0  0  0  0
   36.8450   30.4730   42.4090 H   0  0  0  0  0  0  0  0  0  0  0  0
   37.9960   28.9710   43.3240 C   0  0  0  0  0  3  0  0  0  0  0  0
   38.5190   27.6510   43.1240 C   0  0  0  0  0  3  0  0  0  0  0  0
   37.8820   27.2610   41.3950 S   0  0  0  0  0  0  0  0  0  0  0  0
  1  7  1  1  0  0  0
  1  6  1  0  0  0  0
  2  3  1  0  0  0  0
  2  1  1  0  0  0  0
  3  4  1  0  0  0  0
  3 10  1  0  0  0  0
  4 12  1  0  0  0  0
  4  5  1  0  0  0  0
  5 15  1  0  0  0  0
  5  6  1  0  0  0  0
  6 16  1  1  0  0  0
  6 33  1  0  0  0  0
  8  2  1  0  0  0  0
  9  2  1  0  0  0  0
 11  3  1  0  0  0  0
 13  4  1  0  0  0  0
 14  5  1  0  0  0  0
 17  1  1  0  0  0  0
 17 18  1  0  0  0  0
 18 25  1  0  0  0  0
 19 18  2  0  0  0  0
 19 23  1  0  0  0  0
 20 19  1  0  0  0  0
 21 22  1  0  0  0  0
 21 20  2  0  0  0  0
 22 17  2  0  0  0  0
 24 21  1  0  0  0  0
 25 26  1  0  0  0  0
 25 28  1  0  0  0  0
 26 30  1  0  0  0  0
 27 31  1  0  0  0  0
 27 25  1  0  0  0  0
 27 26  1  0  0  0  0
 29 26  1  0  0  0  0
 32 27  1  0  0  0  0
 33 38  1  0  0  0  0
 33 34  2  0  0  0  0
 34 35  1  0  0  0  0
 34 36  1  0  0  0  0
 37 36  2  0  0  0  0
 38 37  1  0  0  0  0
M  END
>  <minimizedAffinity>
-4.96961784

$$$$

 OpenBabel03252503393D

 38 41  0  0  1  0  0  0  0  0999 V2000
   37.9880   29.2050   39.0400 C   0  0  1  0  0  0  0  0  0  0  0  0
   37.6280   30.3160   37.9380 C   0  0  0  0  0  0  0  0  0  0  0  0
   37.8990   31.6740   38.5010 C   0  0  0  0  0  0  0  0  0  0  0  0
   36.9520   32.0370   39.6050 C   0  0  0  0  0  0  0  0  0  0  0  0
   36.4650   30.7650   40.2790 C   0  0  0  0  0  0  0  0  0  0  0  0
   37.6300   29.7580   40.3380 C   0  0  1  0  0  0  0  0  0  0  0  0
   39.0460   29.0610   38.8140 H   0  0  0  0  0  0  0  0  0  0  0  0
   38.2040   30.1230   37.0410 H   0  0  0  0  0  0  0  0  0  0  0  0
   36.5350   30.2010   37.7880 H   0  0  0  0  0  0  0  0  0  0  0  0
   38.9520   31.6550   38.8990 H   0  0  0  0  0  0  0  0  0  0  0  0
   37.9030   32.3850   37.6800 H   0  0  0  0  0  0  0  0  0  0  0  0
   37.5180   32.5840   40.3900 H   0  0  0  0  0  0  0  0  0  0  0  0
   36.1020   32.6460   39.2620 H   0  0  0  0  0  0  0  0  0  0  0  0
   35.6650   30.3530   39.6270 H   0  0  0  0  0  0  0  0  0  0  0  0
   36.0530   30.9280   41.2740 H   0  0  0  0  0  0  0  0  0  0  0  0
   38.4920   30.4730   40.6080 H   0  0  0  0  0  0  0  0  0  0  0  0
   37.2460   27.9880   38.5950 C   0  0  0  0  0  0  0  0  0  0  0  0
   35.9290   27.8690   38.1620 C   0  0  0  0  0  0  0  0  0  0  0  0
   35.5010   26.6040   37.8350 C   0  0  0  0  0  0  0  0  0  0  0  0
   36.3680   25.5370   37.9420 N   0  0  0  0  0  0  0  0  0  0  0  0
   37.6460   25.7040   38.3670 C   0  0  0  0  0  0  0  0  0  0  0  0
   38.0760   26.9540   38.6960 N   0  0  0  0  0  0  0  0  0  0  0  0
   34.4800   26.4850   37.4970 H   0  0  0  0  0  0  0  0  0  0  0  0
   38.2110   24.7790   38.4010 H   0  0  0  0  0  0  0  0  0  0  0  0
   35.0130   29.0330   37.9670 C   0  0  0  0  0  0  0  0  0  0  0  0
   33.6710   28.9040   37.5900 C   0  0  0  0  0  0  0  0  0  0  0  0
   33.8010   29.0960   39.0360 C   0  0  0  0  0  0  0  0  0  0  0  0
   35.5910   29.9730   38.2720 H   0  0  0  0  0  0  0  0  0  0  0  0
   33.3100   27.8950   37.2250 H   0  0  0  0  0  0  0  0  0  0  0  0
   33.1610   29.6970   36.9610 H   0  0  0  0  0  0  0  0  0  0  0  0
   33.5460   30.0950   39.3990 H   0  0  0  0  0  0  0  0  0  0  0  0
   33.8250   28.2330   39.7190 H   0  0  0  0  0  0  0  0  0  0  0  0
   37.4950   28.8890   41.4820 C   0  0  0  0  0  0  0  0  0  0  0  0
   36.5520   28.2270   42.1600 C   0  0  0  0  0  0  0  0  0  0  0  0
   35.5250   28.2580   41.8260 H   0  0  0  0  0  0  0  0  0  0  0  0
   36.8410   27.4870   43.2720 C   0  0  0  0  0  3  0  0  0  0  0  0
   38.2190   27.4640   43.6660 C   0  0  0  0  0  3  0  0  0  0  0  0
   38.9980   28.5550   42.3430 S   0  0  0  0  0  0  0  0  0  0  0  0
  1  7  1  6  0  0  0
  1  6  1  0  0  0  0
  2  3  1  0  0  0  0
  2  1  1  0  0  0  0
  3 10  1  0  0  0  0
  3  4  1  0  0  0  0
  4  5  1  0  0  0  0
  4 12  1  0  0  0  0
  5  6  1  0  0  0  0
  5 15  1  0  0  0  0
  6 16  1  1  0  0  0
  6 33  1  0  0  0  0
  8  2  1  0  0  0  0
  9  2  1  0  0  0  0
 11  3  1  0  0  0  0
 13  4  1  0  0  0  0
 14  5  1  0  0  0  0
 17 22  1  0  0  0  0
 17  1  1  0  0  0  0
 18 17  2  0  0  0  0
 19 20  2  0  0  0  0
 19 18  1  0  0  0  0
 20 21  1  0  0  0  0
 21 24  1  0  0  0  0
 21 22  2  0  0  0  0
 23 19  1  0  0  0  0
 25 18  1  0  0  0  0
 25 28  1  0  0  0  0
 25 27  1  0  0  0  0
 26 25  1  0  0  0  0
 26 27  1  0  0  0  0
 27 31  1  0  0  0  0
 27 32  1  0  0  0  0
 29 26  1  0  0  0  0
 30 26  1  0  0  0  0
 33 34  2  0  0  0  0
 33 38  1  0  0  0  0
 34 36  1  0  0  0  0
 35 34  1  0  0  0  0
 36 37  2  0  0  0  0
 38 37  1  0  0  0  0
M  END
>  <minimizedAffinity>
-4.86953211

$$$$

 OpenBabel03252503393D

 38 41  0  0  1  0  0  0  0  0999 V2000
   37.3700   30.2790   40.4760 C   0  0  1  0  0  0  0  0  0  0  0  0
   38.3500   31.5190   40.7630 C   0  0  0  0  0  0  0  0  0  0  0  0
   37.6370   32.7940   40.4480 C   0  0  0  0  0  0  0  0  0  0  0  0
   37.3770   32.9580   38.9810 C   0  0  0  0  0  0  0  0  0  0  0  0
   37.2820   31.5860   38.3370 C   0  0  0  0  0  0  0  0  0  0  0  0
   36.5680   30.6290   39.3120 C   0  0  1  0  0  0  0  0  0  0  0  0
   36.8730   30.2120   41.4450 H   0  0  0  0  0  0  0  0  0  0  0  0
   38.6780   31.4780   41.7950 H   0  0  0  0  0  0  0  0  0  0  0  0
   39.1770   31.3800   40.0370 H   0  0  0  0  0  0  0  0  0  0  0  0
   36.6570   32.7620   41.0030 H   0  0  0  0  0  0  0  0  0  0  0  0
   38.2010   33.6130   40.8850 H   0  0  0  0  0  0  0  0  0  0  0  0
   36.3710   33.4130   38.8490 H   0  0  0  0  0  0  0  0  0  0  0  0
   38.1360   33.5740   38.4750 H   0  0  0  0  0  0  0  0  0  0  0  0
   38.3260   31.2360   38.1880 H   0  0  0  0  0  0  0  0  0  0  0  0
   36.7760   31.5900   37.3710 H   0  0  0  0  0  0  0  0  0  0  0  0
   35.7490   31.3340   39.7120 H   0  0  0  0  0  0  0  0  0  0  0  0
   38.2850   29.1070   40.3390 C   0  0  0  0  0  0  0  0  0  0  0  0
   38.1370   27.8130   40.8290 C   0  0  0  0  0  0  0  0  0  0  0  0
   39.1630   26.9350   40.5690 C   0  0  0  0  0  0  0  0  0  0  0  0
   40.2630   27.3590   39.8530 N   0  0  0  0  0  0  0  0  0  0  0  0
   40.3610   28.6320   39.3930 C   0  0  0  0  0  0  0  0  0  0  0  0
   39.3490   29.5070   39.6490 N   0  0  0  0  0  0  0  0  0  0  0  0
   39.0730   25.9230   40.9400 H   0  0  0  0  0  0  0  0  0  0  0  0
   41.2780   28.8220   38.8470 H   0  0  0  0  0  0  0  0  0  0  0  0
   36.9110   27.3280   41.5330 C   0  0  0  0  0  0  0  0  0  0  0  0
   36.9310   26.3400   42.5250 C   0  0  0  0  0  0  0  0  0  0  0  0
   36.8840   27.6820   43.1110 C   0  0  0  0  0  0  0  0  0  0  0  0
   36.0380   27.9750   41.1730 H   0  0  0  0  0  0  0  0  0  0  0  0
   37.8800   25.7390   42.6660 H   0  0  0  0  0  0  0  0  0  0  0  0
   36.0550   25.6350   42.6650 H   0  0  0  0  0  0  0  0  0  0  0  0
   35.9110   27.9840   43.5090 H   0  0  0  0  0  0  0  0  0  0  0  0
   37.8080   28.1930   43.4230 H   0  0  0  0  0  0  0  0  0  0  0  0
   35.8560   29.6030   38.5900 C   0  0  0  0  0  0  0  0  0  0  0  0
   34.8450   28.7450   38.7600 C   0  0  0  0  0  0  0  0  0  0  0  0
   34.2900   28.7410   39.6870 H   0  0  0  0  0  0  0  0  0  0  0  0
   34.4660   27.8650   37.7850 C   0  0  0  0  0  3  0  0  0  0  0  0
   35.2220   27.9190   36.5680 C   0  0  0  0  0  3  0  0  0  0  0  0
   36.4550   29.2880   36.9610 S   0  0  0  0  0  0  0  0  0  0  0  0
  1  2  1  0  0  0  0
  1  7  1  1  0  0  0
  2  8  1  0  0  0  0
  3  2  1  0  0  0  0
  3 11  1  0  0  0  0
  3 10  1  0  0  0  0
  4  3  1  0  0  0  0
  5  4  1  0  0  0  0
  5  6  1  0  0  0  0
  6 16  1  1  0  0  0
  6  1  1  0  0  0  0
  9  2  1  0  0  0  0
 12  4  1  0  0  0  0
 13  4  1  0  0  0  0
 14  5  1  0  0  0  0
 15  5  1  0  0  0  0
 17  1  1  0  0  0  0
 17 18  1  0  0  0  0
 18 25  1  0  0  0  0
 19 18  2  0  0  0  0
 19 23  1  0  0  0  0
 20 19  1  0  0  0  0
 21 22  1  0  0  0  0
 21 20  2  0  0  0  0
 22 17  2  0  0  0  0
 24 21  1  0  0  0  0
 25 26  1  0  0  0  0
 25 27  1  0  0  0  0
 26 30  1  0  0  0  0
 26 29  1  0  0  0  0
 26 27  1  0  0  0  0
 27 32  1  0  0  0  0
 27 31  1  0  0  0  0
 28 25  1  0  0  0  0
 33 34  2  0  0  0  0
 33  6  1  0  0  0  0
 34 35  1  0  0  0  0
 36 34  1  0  0  0  0
 37 38  1  0  0  0  0
 37 36  2  0  0  0  0
 38 33  1  0  0  0  0
M  END
>  <minimizedAffinity>
-4.86083794

$$$$

 OpenBabel03252503393D

 38 41  0  0  1  0  0  0  0  0999 V2000
   36.1340   28.7230   40.8470 C   0  0  1  0  0  0  0  0  0  0  0  0
   35.0220   29.7440   40.3010 C   0  0  0  0  0  0  0  0  0  0  0  0
   34.0610   29.0030   39.4270 C   0  0  0  0  0  0  0  0  0  0  0  0
   34.6890   28.5400   38.1480 C   0  0  0  0  0  0  0  0  0  0  0  0
   36.1790   28.3440   38.3690 C   0  0  0  0  0  0  0  0  0  0  0  0
   36.3990   27.7680   39.7820 C   0  0  1  0  0  0  0  0  0  0  0  0
   35.6290   28.3680   41.7470 H   0  0  0  0  0  0  0  0  0  0  0  0
   34.5290   30.2140   41.1430 H   0  0  0  0  0  0  0  0  0  0  0  0
   35.5970   30.4590   39.6770 H   0  0  0  0  0  0  0  0  0  0  0  0
   33.7080   28.1120   40.0180 H   0  0  0  0  0  0  0  0  0  0  0  0
   33.1860   29.6300   39.2810 H   0  0  0  0  0  0  0  0  0  0  0  0
   34.2940   27.5290   37.9060 H   0  0  0  0  0  0  0  0  0  0  0  0
   34.5070   29.2250   37.3050 H   0  0  0  0  0  0  0  0  0  0  0  0
   36.6400   29.3530   38.3160 H   0  0  0  0  0  0  0  0  0  0  0  0
   36.6520   27.7060   37.6220 H   0  0  0  0  0  0  0  0  0  0  0  0
   35.5230   27.0190   39.8250 H   0  0  0  0  0  0  0  0  0  0  0  0
   37.2680   29.6010   41.2660 C   0  0  0  0  0  0  0  0  0  0  0  0
   37.6700   30.8280   40.7470 C   0  0  0  0  0  0  0  0  0  0  0  0
   38.7780   31.4060   41.3200 C   0  0  0  0  0  0  0  0  0  0  0  0
   39.4270   30.7660   42.3560 N   0  0  0  0  0  0  0  0  0  0  0  0
   38.9950   29.5690   42.8290 C   0  0  0  0  0  0  0  0  0  0  0  0
   37.8990   28.9910   42.2650 N   0  0  0  0  0  0  0  0  0  0  0  0
   39.1110   32.3590   40.9340 H   0  0  0  0  0  0  0  0  0  0  0  0
   39.6000   29.1870   43.6440 H   0  0  0  0  0  0  0  0  0  0  0  0
   36.9220   31.5620   39.6810 C   0  0  0  0  0  0  0  0  0  0  0  0
   37.3740   32.7540   39.1020 C   0  0  0  0  0  0  0  0  0  0  0  0
   37.6860   31.5990   38.2570 C   0  0  0  0  0  0  0  0  0  0  0  0
   36.0170   30.9180   39.4000 H   0  0  0  0  0  0  0  0  0  0  0  0
   38.2390   33.2940   39.5930 H   0  0  0  0  0  0  0  0  0  0  0  0
   36.6440   33.5390   38.7350 H   0  0  0  0  0  0  0  0  0  0  0  0
   37.0480   31.4790   37.3770 H   0  0  0  0  0  0  0  0  0  0  0  0
   38.6690   31.1060   38.3170 H   0  0  0  0  0  0  0  0  0  0  0  0
   37.5880   26.9520   39.8210 C   0  0  0  0  0  0  0  0  0  0  0  0
   38.8170   26.9060   39.2960 C   0  0  0  0  0  0  0  0  0  0  0  0
   39.1500   27.6920   38.6340 H   0  0  0  0  0  0  0  0  0  0  0  0
   39.6920   25.8960   39.5800 C   0  0  0  0  0  3  0  0  0  0  0  0
   39.2090   24.8860   40.4770 C   0  0  0  0  0  3  0  0  0  0  0  0
   37.4710   25.5160   40.8390 S   0  0  0  0  0  0  0  0  0  0  0  0
  1 17  1  0  0  0  0
  1  7  1  1  0  0  0
  2  1  1  0  0  0  0
  2  8  1  0  0  0  0
  3 10  1  0  0  0  0
  3  2  1  0  0  0  0
  4  5  1  0  0  0  0
  4  3  1  0  0  0  0
  5  6  1  0  0  0  0
  6 33  1  0  0  0  0
  6 16  1  1  0  0  0
  6  1  1  0  0  0  0
  9  2  1  0  0  0  0
 11  3  1  0  0  0  0
 12  4  1  0  0  0  0
 13  4  1  0  0  0  0
 14  5  1  0  0  0  0
 15  5  1  0  0  0  0
 17 22  1  0  0  0  0
 18 17  2  0  0  0  0
 18 19  1  0  0  0  0
 19 20  2  0  0  0  0
 20 21  1  0  0  0  0
 21 24  1  0  0  0  0
 22 21  2  0  0  0  0
 23 19  1  0  0  0  0
 25 18  1  0  0  0  0
 26 29  1  0  0  0  0
 26 25  1  0  0  0  0
 27 32  1  0  0  0  0
 27 26  1  0  0  0  0
 27 25  1  0  0  0  0
 28 25  1  0  0  0  0
 30 26  1  0  0  0  0
 31 27  1  0  0  0  0
 33 38  1  0  0  0  0
 34 36  1  0  0  0  0
 34 33  2  0  0  0  0
 35 34  1  0  0  0  0
 36 37  2  0  0  0  0
 37 38  1  0  0  0  0
M  END
>  <minimizedAffinity>
-4.79247236

$$$$

 OpenBabel03252503393D

 38 41  0  0  1  0  0  0  0  0999 V2000
   37.1040   24.9410   40.7620 C   0  0  1  0  0  0  0  0  0  0  0  0
   36.0820   24.3270   39.6860 C   0  0  0  0  0  0  0  0  0  0  0  0
   36.3010   22.8510   39.5870 C   0  0  0  0  0  0  0  0  0  0  0  0
   37.6220   22.5070   38.9690 C   0  0  0  0  0  0  0  0  0  0  0  0
   38.6020   23.6370   39.2320 C   0  0  0  0  0  0  0  0  0  0  0  0
   38.3480   24.1950   40.6460 C   0  0  1  0  0  0  0  0  0  0  0  0
   36.5090   24.8170   41.6690 H   0  0  0  0  0  0  0  0  0  0  0  0
   35.0690   24.5710   39.9820 H   0  0  0  0  0  0  0  0  0  0  0  0
   36.3840   24.8000   38.7290 H   0  0  0  0  0  0  0  0  0  0  0  0
   36.2590   22.4470   40.6380 H   0  0  0  0  0  0  0  0  0  0  0  0
   35.4500   22.4190   39.0670 H   0  0  0  0  0  0  0  0  0  0  0  0
   38.0420   21.6260   39.5010 H   0  0  0  0  0  0  0  0  0  0  0  0
   37.5510   22.2950   37.8910 H   0  0  0  0  0  0  0  0  0  0  0  0
   38.3750   24.4290   38.4860 H   0  0  0  0  0  0  0  0  0  0  0  0
   39.6460   23.3450   39.1220 H   0  0  0  0  0  0  0  0  0  0  0  0
   38.1610   23.2090   41.2130 H   0  0  0  0  0  0  0  0  0  0  0  0
   37.1550   26.3980   40.4340 C   0  0  0  0  0  0  0  0  0  0  0  0
   37.3430   27.4850   41.2830 C   0  0  0  0  0  0  0  0  0  0  0  0
   37.3200   28.7300   40.7010 C   0  0  0  0  0  0  0  0  0  0  0  0
   37.1210   28.8490   39.3410 N   0  0  0  0  0  0  0  0  0  0  0  0
   36.9450   27.7570   38.5540 C   0  0  0  0  0  0  0  0  0  0  0  0
   36.9640   26.5200   39.1240 N   0  0  0  0  0  0  0  0  0  0  0  0
   37.4620   29.5920   41.3390 H   0  0  0  0  0  0  0  0  0  0  0  0
   36.8010   28.0010   37.5070 H   0  0  0  0  0  0  0  0  0  0  0  0
   37.6400   27.3560   42.7420 C   0  0  0  0  0  0  0  0  0  0  0  0
   37.3950   28.3730   43.6720 C   0  0  0  0  0  0  0  0  0  0  0  0
   36.3230   27.3740   43.6800 C   0  0  0  0  0  0  0  0  0  0  0  0
   37.9920   26.2810   42.9210 H   0  0  0  0  0  0  0  0  0  0  0  0
   37.1460   29.4070   43.2840 H   0  0  0  0  0  0  0  0  0  0  0  0
   38.0520   28.5000   44.5870 H   0  0  0  0  0  0  0  0  0  0  0  0
   36.3370   26.6800   44.5250 H   0  0  0  0  0  0  0  0  0  0  0  0
   35.4090   27.5240   43.0840 H   0  0  0  0  0  0  0  0  0  0  0  0
   39.5650   24.7250   41.2120 C   0  0  0  0  0  0  0  0  0  0  0  0
   40.6520   25.4090   40.8440 C   0  0  0  0  0  0  0  0  0  0  0  0
   40.7550   25.7520   39.8240 H   0  0  0  0  0  0  0  0  0  0  0  0
   41.6530   25.7130   41.7240 C   0  0  0  0  0  3  0  0  0  0  0  0
   41.4620   25.2520   43.0680 C   0  0  0  0  0  3  0  0  0  0  0  0
   39.7940   24.3900   42.9290 S   0  0  0  0  0  0  0  0  0  0  0  0
  1  7  1  1  0  0  0
  2  8  1  0  0  0  0
  2  1  1  0  0  0  0
  3  2  1  0  0  0  0
  3 10  1  0  0  0  0
  4  5  1  0  0  0  0
  4 12  1  0  0  0  0
  4  3  1  0  0  0  0
  5  6  1  0  0  0  0
  6  1  1  0  0  0  0
  6 33  1  0  0  0  0
  6 16  1  1  0  0  0
  9  2  1  0  0  0  0
 11  3  1  0  0  0  0
 13  4  1  0  0  0  0
 14  5  1  0  0  0  0
 15  5  1  0  0  0  0
 17  1  1  0  0  0  0
 17 18  1  0  0  0  0
 18 25  1  0  0  0  0
 19 18  2  0  0  0  0
 19 23  1  0  0  0  0
 20 19  1  0  0  0  0
 21 22  1  0  0  0  0
 21 20  2  0  0  0  0
 22 17  2  0  0  0  0
 24 21  1  0  0  0  0
 25 28  1  0  0  0  0
 25 26  1  0  0  0  0
 25 27  1  0  0  0  0
 26 27  1  0  0  0  0
 26 30  1  0  0  0  0
 27 31  1  0  0  0  0
 29 26  1  0  0  0  0
 32 27  1  0  0  0  0
 33 38  1  0  0  0  0
 34 33  2  0  0  0  0
 34 36  1  0  0  0  0
 35 34  1  0  0  0  0
 36 37  2  0  0  0  0
 38 37  1  0  0  0  0
M  END
>  <minimizedAffinity>
-4.77642107

$$$$

 OpenBabel03252503393D

 38 41  0  0  1  0  0  0  0  0999 V2000
   36.5560   30.1510   40.3670 C   0  0  1  0  0  0  0  0  0  0  0  0
   37.0920   31.6530   40.5570 C   0  0  0  0  0  0  0  0  0  0  0  0
   37.0160   32.3720   39.2490 C   0  0  0  0  0  0  0  0  0  0  0  0
   37.9890   31.8370   38.2420 C   0  0  0  0  0  0  0  0  0  0  0  0
   38.2740   30.3780   38.5540 C   0  0  0  0  0  0  0  0  0  0  0  0
   36.9720   29.7120   39.0430 C   0  0  1  0  0  0  0  0  0  0  0  0
   35.4920   30.3140   40.5470 H   0  0  0  0  0  0  0  0  0  0  0  0
   36.5080   32.1410   41.3270 H   0  0  0  0  0  0  0  0  0  0  0  0
   38.1590   31.5230   40.8340 H   0  0  0  0  0  0  0  0  0  0  0  0
   35.9660   32.2370   38.8660 H   0  0  0  0  0  0  0  0  0  0  0  0
   37.1290   33.4350   39.4420 H   0  0  0  0  0  0  0  0  0  0  0  0
   37.4980   31.8320   37.2440 H   0  0  0  0  0  0  0  0  0  0  0  0
   38.9250   32.4160   38.1970 H   0  0  0  0  0  0  0  0  0  0  0  0
   39.0140   30.3730   39.3830 H   0  0  0  0  0  0  0  0  0  0  0  0
   38.6900   29.8240   37.7130 H   0  0  0  0  0  0  0  0  0  0  0  0
   36.2210   30.1970   38.3150 H   0  0  0  0  0  0  0  0  0  0  0  0
   37.1170   29.4060   41.5330 C   0  0  0  0  0  0  0  0  0  0  0  0
   38.3150   29.6080   42.2130 C   0  0  0  0  0  0  0  0  0  0  0  0
   38.5890   28.7440   43.2470 C   0  0  0  0  0  0  0  0  0  0  0  0
   37.6910   27.7450   43.5620 N   0  0  0  0  0  0  0  0  0  0  0  0
   36.5330   27.5900   42.8710 C   0  0  0  0  0  0  0  0  0  0  0  0
   36.2570   28.4410   41.8440 N   0  0  0  0  0  0  0  0  0  0  0  0
   39.5140   28.8780   43.7900 H   0  0  0  0  0  0  0  0  0  0  0  0
   35.9260   26.7660   43.2290 H   0  0  0  0  0  0  0  0  0  0  0  0
   39.2500   30.7380   41.9270 C   0  0  0  0  0  0  0  0  0  0  0  0
   40.4890   30.8930   42.5590 C   0  0  0  0  0  0  0  0  0  0  0  0
   40.6380   30.2780   41.2370 C   0  0  0  0  0  0  0  0  0  0  0  0
   38.7950   31.3420   41.0670 H   0  0  0  0  0  0  0  0  0  0  0  0
   40.7140   30.2510   43.4640 H   0  0  0  0  0  0  0  0  0  0  0  0
   40.9230   31.9220   42.7520 H   0  0  0  0  0  0  0  0  0  0  0  0
   41.0160   30.9400   40.4540 H   0  0  0  0  0  0  0  0  0  0  0  0
   40.6860   29.1840   41.1270 H   0  0  0  0  0  0  0  0  0  0  0  0
   36.9600   28.3090   38.7090 C   0  0  0  0  0  0  0  0  0  0  0  0
   36.0940   27.3210   38.4670 C   0  0  0  0  0  0  0  0  0  0  0  0
   35.0320   27.5210   38.4710 H   0  0  0  0  0  0  0  0  0  0  0  0
   36.5030   26.0450   38.1940 C   0  0  0  0  0  3  0  0  0  0  0  0
   37.9200   25.8330   38.1850 C   0  0  0  0  0  3  0  0  0  0  0  0
   38.5530   27.5610   38.5850 S   0  0  0  0  0  0  0  0  0  0  0  0
  1  7  1  1  0  0  0
  1  2  1  0  0  0  0
  1 17  1  0  0  0  0
  2  9  1  0  0  0  0
  2  8  1  0  0  0  0
  3 11  1  0  0  0  0
  3  2  1  0  0  0  0
  4  5  1  0  0  0  0
  4  3  1  0  0  0  0
  5  6  1  0  0  0  0
  5 14  1  0  0  0  0
  6 16  1  6  0  0  0
  6  1  1  0  0  0  0
 10  3  1  0  0  0  0
 12  4  1  0  0  0  0
 13  4  1  0  0  0  0
 15  5  1  0  0  0  0
 17 22  2  0  0  0  0
 17 18  1  0  0  0  0
 18 19  2  0  0  0  0
 19 20  1  0  0  0  0
 19 23  1  0  0  0  0
 21 24  1  0  0  0  0
 21 20  2  0  0  0  0
 22 21  1  0  0  0  0
 25 18  1  0  0  0  0
 25 26  1  0  0  0  0
 26 30  1  0  0  0  0
 26 29  1  0  0  0  0
 27 25  1  0  0  0  0
 27 26  1  0  0  0  0
 28 25  1  0  0  0  0
 31 27  1  0  0  0  0
 32 27  1  0  0  0  0
 33  6  1  0  0  0  0
 34 35  1  0  0  0  0
 34 33  2  0  0  0  0
 36 34  1  0  0  0  0
 37 36  2  0  0  0  0
 37 38  1  0  0  0  0
 38 33  1  0  0  0  0
M  END
>  <minimizedAffinity>
-4.76951599

$$$$

 OpenBabel03252503393D

 38 41  0  0  1  0  0  0  0  0999 V2000
   37.4790   29.2230   41.4330 C   0  0  1  0  0  0  0  0  0  0  0  0
   36.6710   27.8840   41.7990 C   0  0  0  0  0  0  0  0  0  0  0  0
   36.7880   27.6240   43.2660 C   0  0  0  0  0  0  0  0  0  0  0  0
   38.1800   27.2480   43.6730 C   0  0  0  0  0  0  0  0  0  0  0  0
   39.1670   27.8640   42.6960 C   0  0  0  0  0  0  0  0  0  0  0  0
   38.6550   29.2600   42.2900 C   0  0  1  0  0  0  0  0  0  0  0  0
   36.6930   29.9610   41.6020 H   0  0  0  0  0  0  0  0  0  0  0  0
   35.6400   27.9970   41.4840 H   0  0  0  0  0  0  0  0  0  0  0  0
   37.2100   27.0860   41.2480 H   0  0  0  0  0  0  0  0  0  0  0  0
   36.4870   28.5760   43.7880 H   0  0  0  0  0  0  0  0  0  0  0  0
   36.0400   26.8850   43.5380 H   0  0  0  0  0  0  0  0  0  0  0  0
   38.4030   27.7250   44.6530 H   0  0  0  0  0  0  0  0  0  0  0  0
   38.3300   26.1590   43.7430 H   0  0  0  0  0  0  0  0  0  0  0  0
   39.1710   27.2070   41.7990 H   0  0  0  0  0  0  0  0  0  0  0  0
   40.1830   27.9300   43.0830 H   0  0  0  0  0  0  0  0  0  0  0  0
   38.2720   29.6310   43.3110 H   0  0  0  0  0  0  0  0  0  0  0  0
   37.7160   29.1220   39.9620 C   0  0  0  0  0  0  0  0  0  0  0  0
   37.3710   30.0150   38.9520 C   0  0  0  0  0  0  0  0  0  0  0  0
   37.6970   29.6470   37.6680 C   0  0  0  0  0  0  0  0  0  0  0  0
   38.3350   28.4460   37.4390 N   0  0  0  0  0  0  0  0  0  0  0  0
   38.6530   27.6090   38.4590 C   0  0  0  0  0  0  0  0  0  0  0  0
   38.3320   27.9660   39.7340 N   0  0  0  0  0  0  0  0  0  0  0  0
   37.4380   30.3230   36.8640 H   0  0  0  0  0  0  0  0  0  0  0  0
   39.1530   26.7030   38.1320 H   0  0  0  0  0  0  0  0  0  0  0  0
   36.7540   31.3520   39.2030 C   0  0  0  0  0  0  0  0  0  0  0  0
   37.1270   32.1880   40.2620 C   0  0  0  0  0  0  0  0  0  0  0  0
   37.7780   32.5900   39.0130 C   0  0  0  0  0  0  0  0  0  0  0  0
   36.0340   31.5600   38.3360 H   0  0  0  0  0  0  0  0  0  0  0  0
   37.7810   31.7580   41.0800 H   0  0  0  0  0  0  0  0  0  0  0  0
   36.3760   32.8810   40.7530 H   0  0  0  0  0  0  0  0  0  0  0  0
   37.3590   33.4780   38.5320 H   0  0  0  0  0  0  0  0  0  0  0  0
   38.7910   32.2360   38.7660 H   0  0  0  0  0  0  0  0  0  0  0  0
   39.7580   30.1330   41.9660 C   0  0  0  0  0  0  0  0  0  0  0  0
   40.0340   31.4360   41.8550 C   0  0  0  0  0  0  0  0  0  0  0  0
   39.2730   32.1700   42.0750 H   0  0  0  0  0  0  0  0  0  0  0  0
   41.2690   31.8880   41.4800 C   0  0  0  0  0  3  0  0  0  0  0  0
   42.2490   30.8760   41.2140 C   0  0  0  0  0  3  0  0  0  0  0  0
   41.2590   29.3080   41.5430 S   0  0  0  0  0  0  0  0  0  0  0  0
  1  7  1  1  0  0  0
  1  2  1  0  0  0  0
  1  6  1  0  0  0  0
  2  3  1  0  0  0  0
  3 11  1  0  0  0  0
  3  4  1  0  0  0  0
  3 10  1  0  0  0  0
  4 13  1  0  0  0  0
  4 12  1  0  0  0  0
  5 15  1  0  0  0  0
  5  4  1  0  0  0  0
  6  5  1  0  0  0  0
  6 16  1  1  0  0  0
  8  2  1  0  0  0  0
  9  2  1  0  0  0  0
 14  5  1  0  0  0  0
 17  1  1  0  0  0  0
 18 25  1  0  0  0  0
 18 17  2  0  0  0  0
 19 18  1  0  0  0  0
 20 19  2  0  0  0  0
 20 21  1  0  0  0  0
 21 22  2  0  0  0  0
 22 17  1  0  0  0  0
 23 19  1  0  0  0  0
 24 21  1  0  0  0  0
 25 26  1  0  0  0  0
 26 30  1  0  0  0  0
 26 29  1  0  0  0  0
 27 25  1  0  0  0  0
 27 26  1  0  0  0  0
 28 25  1  0  0  0  0
 31 27  1  0  0  0  0
 32 27  1  0  0  0  0
 33  6  1  0  0  0  0
 34 33  2  0  0  0  0
 34 35  1  0  0  0  0
 36 34  1  0  0  0  0
 37 36  2  0  0  0  0
 37 38  1  0  0  0  0
 38 33  1  0  0  0  0
M  END
>  <minimizedAffinity>
-4.7622304

$$$$
