
 OpenBabel03252507013D

 34 36  0  0  0  0  0  0  0  0999 V2000
   49.0840   32.8930   42.1570 N   0  0  0  0  0  0  0  0  0  0  0  0
   49.8390   32.6920   40.9710 C   0  0  0  0  0  0  0  0  0  0  0  0
   51.2060   32.2890   41.5480 C   0  0  0  0  0  0  0  0  0  0  0  0
   51.1470   31.0850   42.4150 C   0  0  0  0  0  0  0  0  0  0  0  0
   49.8150   30.6910   42.9720 C   0  0  0  0  0  0  0  0  0  0  0  0
   48.7160   31.6830   42.8460 C   0  0  0  0  0  0  0  0  0  0  0  0
   49.5000   31.8320   40.4020 H   0  0  0  0  0  0  0  0  0  0  0  0
   49.9570   33.5010   40.2710 H   0  0  0  0  0  0  0  0  0  0  0  0
   51.8580   32.0840   40.6780 H   0  0  0  0  0  0  0  0  0  0  0  0
   51.6320   33.1890   42.0390 H   0  0  0  0  0  0  0  0  0  0  0  0
   51.5130   30.1920   41.8820 H   0  0  0  0  0  0  0  0  0  0  0  0
   51.8070   31.2630   43.2910 H   0  0  0  0  0  0  0  0  0  0  0  0
   49.6040   29.7840   43.4630 H   0  0  0  0  0  0  0  0  0  0  0  0
   47.5320   31.3140   43.4670 C   0  0  0  0  0  0  0  0  0  0  0  0
   46.2040   31.3580   43.1900 C   0  0  0  0  0  0  0  0  0  0  0  0
   45.9730   31.7860   42.2290 H   0  0  0  0  0  0  0  0  0  0  0  0
   45.3100   30.8830   44.1070 C   0  0  0  0  0  3  0  0  0  0  0  0
   45.6970   30.3460   45.3260 C   0  0  0  0  0  3  0  0  0  0  0  0
   47.5820   30.5310   45.1760 S   0  0  0  0  0  0  0  0  0  0  0  0
   48.8760   34.0510   42.8190 C   0  0  0  0  0  0  0  0  0  0  0  0
   48.1760   33.9470   43.6830 H   0  0  0  0  0  0  0  0  0  0  0  0
   49.7590   34.5840   43.2640 H   0  0  0  0  0  0  0  0  0  0  0  0
   48.2300   35.0760   41.9140 C   0  0  0  0  0  0  0  0  0  0  0  0
   48.3400   36.0580   42.4460 H   0  0  0  0  0  0  0  0  0  0  0  0
   48.6770   35.2380   40.9510 H   0  0  0  0  0  0  0  0  0  0  0  0
   46.7720   34.8380   41.9440 C   0  0  0  0  0  0  0  0  0  0  0  0
   46.0270   35.0960   43.0680 C   0  0  0  0  0  0  0  0  0  0  0  0
   44.6480   34.8580   43.0680 C   0  0  0  0  0  0  0  0  0  0  0  0
   44.1170   34.3680   41.9100 N   0  0  0  0  0  0  0  0  0  0  0  0
   44.8670   34.1290   40.8410 C   0  0  0  0  0  0  0  0  0  0  0  0
   46.1730   34.3650   40.8730 N   0  0  0  0  0  0  0  0  0  0  0  0
   46.4550   35.4780   43.9640 H   0  0  0  0  0  0  0  0  0  0  0  0
   44.0140   35.0440   43.9250 H   0  0  0  0  0  0  0  0  0  0  0  0
   44.4530   33.7350   39.9040 H   0  0  0  0  0  0  0  0  0  0  0  0
  1 20  1  0  0  0  0
  1  6  1  0  0  0  0
  2  3  1  0  0  0  0
  2  1  1  0  0  0  0
  3 10  1  0  0  0  0
  3  4  1  0  0  0  0
  4  5  1  0  0  0  0
  4 12  1  0  0  0  0
  5 13  1  0  0  0  0
  6  5  2  0  0  0  0
  6 14  1  0  0  0  0
  7  2  1  0  0  0  0
  8  2  1  0  0  0  0
  9  3  1  0  0  0  0
 11  4  1  0  0  0  0
 14 19  1  0  0  0  0
 15 14  2  0  0  0  0
 15 17  1  0  0  0  0
 16 15  1  0  0  0  0
 17 18  2  0  0  0  0
 19 18  1  0  0  0  0
 20 22  1  0  0  0  0
 20 21  1  0  0  0  0
 23 26  1  0  0  0  0
 23 24  1  0  0  0  0
 23 20  1  0  0  0  0
 25 23  1  0  0  0  0
 26 27  1  0  0  0  0
 27 28  2  0  0  0  0
 27 32  1  0  0  0  0
 28 33  1  0  0  0  0
 29 28  1  0  0  0  0
 30 31  1  0  0  0  0
 30 29  2  0  0  0  0
 31 26  2  0  0  0  0
 34 30  1  0  0  0  0
M  END
>  <minimizedAffinity>
-3.74095583

>  <minimizedRMSD>
4.48845577

$$$$
