
 OpenBabel03252505183D

 31 34  0  0  0  0  0  0  0  0999 V2000
   44.5560   35.8790   44.6090 C   0  0  0  0  0  0  0  0  0  0  0  0
   45.2020   35.8160   43.3790 C   0  0  0  0  0  0  0  0  0  0  0  0
   46.1030   34.7870   43.2230 C   0  0  0  0  0  0  0  0  0  0  0  0
   46.3350   33.8870   44.2380 N   0  0  0  0  0  0  0  0  0  0  0  0
   45.6630   34.0020   45.4310 C   0  0  0  0  0  0  0  0  0  0  0  0
   44.7770   35.0000   45.6090 N   0  0  0  0  0  0  0  0  0  0  0  0
   43.8420   36.7020   44.7200 H   0  0  0  0  0  0  0  0  0  0  0  0
   45.0290   36.5130   42.5790 H   0  0  0  0  0  0  0  0  0  0  0  0
   45.9190   33.0220   46.4770 C   0  0  0  0  0  0  0  0  0  0  0  0
   45.1750   33.0370   47.6230 C   0  0  0  0  0  0  0  0  0  0  0  0
   45.3970   32.1080   48.6270 C   0  0  0  0  0  0  0  0  0  0  0  0
   46.3850   31.1720   48.4320 C   0  0  0  0  0  0  0  0  0  0  0  0
   47.1010   31.2020   47.2620 C   0  0  0  0  0  0  0  0  0  0  0  0
   46.8960   32.1020   46.2750 N   0  0  0  0  0  0  0  0  0  0  0  0
   44.4120   33.7760   47.7520 H   0  0  0  0  0  0  0  0  0  0  0  0
   44.8320   32.0990   49.5290 H   0  0  0  0  0  0  0  0  0  0  0  0
   46.5500   30.4560   49.2140 H   0  0  0  0  0  0  0  0  0  0  0  0
   48.1510   30.2420   47.0050 C   0  0  0  0  0  0  0  0  0  0  0  0
   49.1550   29.5580   47.7200 C   0  0  0  0  0  0  0  0  0  0  0  0
   49.0920   29.8620   48.7430 H   0  0  0  0  0  0  0  0  0  0  0  0
   49.9610   28.7040   47.0410 C   0  0  0  0  0  3  0  0  0  0  0  0
   49.8250   28.4790   45.6470 C   0  0  0  0  0  3  0  0  0  0  0  0
   48.3670   29.6300   45.2480 S   0  0  0  0  0  0  0  0  0  0  0  0
   46.8450   34.5960   41.9250 C   0  0  0  0  0  0  0  0  0  0  0  0
   48.1910   35.3250   41.9340 C   0  0  0  0  0  0  0  0  0  0  0  0
   48.0300   33.7780   41.9190 C   0  0  0  0  0  0  0  0  0  0  0  0
   46.2570   34.7230   40.9900 H   0  0  0  0  0  0  0  0  0  0  0  0
   48.5580   35.7750   42.8540 H   0  0  0  0  0  0  0  0  0  0  0  0
   48.4610   35.8010   40.9960 H   0  0  0  0  0  0  0  0  0  0  0  0
   48.3150   33.3010   42.9010 H   0  0  0  0  0  0  0  0  0  0  0  0
   48.4640   33.2600   41.0730 H   0  0  0  0  0  0  0  0  0  0  0  0
  1  7  1  0  0  0  0
  1  6  1  0  0  0  0
  2  1  2  0  0  0  0
  3  2  1  0  0  0  0
  3  4  2  0  0  0  0
  4  5  1  0  0  0  0
  5  6  2  0  0  0  0
  5  9  1  0  0  0  0
  8  2  1  0  0  0  0
  9 10  1  0  0  0  0
 10 15  1  0  0  0  0
 10 11  2  0  0  0  0
 11 16  1  0  0  0  0
 12 11  1  0  0  0  0
 12 17  1  0  0  0  0
 13 12  2  0  0  0  0
 14  9  2  0  0  0  0
 14 13  1  0  0  0  0
 18 13  1  0  0  0  0
 18 19  2  0  0  0  0
 19 20  1  0  0  0  0
 21 19  1  0  0  0  0
 22 21  2  0  0  0  0
 23 22  1  0  0  0  0
 23 18  1  0  0  0  0
 24 25  1  0  0  0  0
 24  3  1  0  0  0  0
 25 28  1  0  0  0  0
 26 24  1  0  0  0  0
 26 25  1  0  0  0  0
 26 30  1  0  0  0  0
 27 24  1  0  0  0  0
 29 25  1  0  0  0  0
 31 26  1  0  0  0  0
M  END
>  <minimizedAffinity>
-5.60276604

>  <minimizedRMSD>
0.257892519

$$$$
