
 OpenBabel03252506253D

 42 46  0  0  0  0  0  0  0  0999 V2000
   46.4670   30.1220   48.2870 C   0  0  0  0  0  0  0  0  0  0  0  0
   46.7690   29.6860   49.2860 H   0  0  0  0  0  0  0  0  0  0  0  0
   45.8290   30.9910   48.5470 H   0  0  0  0  0  0  0  0  0  0  0  0
   45.9210   27.7250   47.5150 C   0  0  0  0  0  0  0  0  0  0  0  0
   45.7080   29.0950   47.5920 C   0  0  0  0  0  0  0  0  0  0  0  0
   44.6140   29.5660   46.9020 C   0  0  0  0  0  0  0  0  0  0  0  0
   43.7720   28.7500   46.1770 C   0  0  0  0  0  0  0  0  0  0  0  0
   42.6670   28.9240   45.4360 N   0  0  0  0  0  0  0  0  0  0  0  0
   42.2240   27.7700   44.9380 C   0  0  0  0  0  0  0  0  0  0  0  0
   43.0600   26.7640   45.3550 C   0  0  0  0  0  0  0  0  0  0  0  0
   44.0040   27.3870   46.1150 C   0  0  0  0  0  0  0  0  0  0  0  0
   45.0870   26.9000   46.7930 C   0  0  0  0  0  0  0  0  0  0  0  0
   46.7970   27.4840   48.0900 H   0  0  0  0  0  0  0  0  0  0  0  0
   44.3140   30.6030   46.8630 H   0  0  0  0  0  0  0  0  0  0  0  0
   42.2100   29.8690   45.2730 H   0  0  0  0  0  0  0  0  0  0  0  0
   41.3460   27.6910   44.3140 H   0  0  0  0  0  0  0  0  0  0  0  0
   42.8780   25.7610   45.0680 H   0  0  0  0  0  0  0  0  0  0  0  0
   45.5010   25.5160   46.8510 C   0  0  0  0  0  0  0  0  0  0  0  0
   46.0440   24.6990   45.9730 C   0  0  0  0  0  0  0  0  0  0  0  0
   46.3240   24.8470   44.9600 H   0  0  0  0  0  0  0  0  0  0  0  0
   46.3690   23.4190   46.2460 C   0  0  0  0  0  3  0  0  0  0  0  0
   46.1030   22.9590   47.5490 C   0  0  0  0  0  3  0  0  0  0  0  0
   45.3680   24.5170   48.2840 S   0  0  0  0  0  0  0  0  0  0  0  0
   47.7150   30.5920   47.6380 C   0  0  0  0  0  0  0  0  0  0  0  0
   48.1950   31.3260   48.3340 H   0  0  0  0  0  0  0  0  0  0  0  0
   48.3970   29.7690   47.4450 H   0  0  0  0  0  0  0  0  0  0  0  0
   46.6450   32.8500   45.0770 C   0  0  0  0  0  0  0  0  0  0  0  0
   47.2430   31.8270   44.3260 C   0  0  0  0  0  0  0  0  0  0  0  0
   47.7090   30.8750   45.1730 C   0  0  0  0  0  0  0  0  0  0  0  0
   47.4070   31.2960   46.4040 N   0  0  0  0  0  0  0  0  0  0  0  0
   46.7680   32.4820   46.3620 N   0  0  0  0  0  0  0  0  0  0  0  0
   47.3470   31.7570   43.2450 H   0  0  0  0  0  0  0  0  0  0  0  0
   48.2250   29.9460   44.9420 H   0  0  0  0  0  0  0  0  0  0  0  0
   44.5220   35.7920   44.7020 C   0  0  0  0  0  0  0  0  0  0  0  0
   44.8650   36.2940   43.4580 C   0  0  0  0  0  0  0  0  0  0  0  0
   45.8380   35.6090   42.7460 C   0  0  0  0  0  0  0  0  0  0  0  0
   46.3870   34.4990   43.3080 N   0  0  0  0  0  0  0  0  0  0  0  0
   46.0340   34.0420   44.5100 C   0  0  0  0  0  0  0  0  0  0  0  0
   45.1010   34.6930   45.2020 N   0  0  0  0  0  0  0  0  0  0  0  0
   43.7630   36.3400   45.2420 H   0  0  0  0  0  0  0  0  0  0  0  0
   44.4410   37.1610   43.0090 H   0  0  0  0  0  0  0  0  0  0  0  0
   46.2150   35.8610   41.7790 H   0  0  0  0  0  0  0  0  0  0  0  0
  1  3  1  0  0  0  0
  1  2  1  0  0  0  0
  4  5  1  0  0  0  0
  4 13  1  0  0  0  0
  5  1  1  0  0  0  0
  6  5  2  0  0  0  0
  7  6  1  0  0  0  0
  8  7  1  0  0  0  0
  9 10  2  0  0  0  0
  9  8  1  0  0  0  0
 10 11  1  0  0  0  0
 11  7  2  0  0  0  0
 11 12  1  0  0  0  0
 12 18  1  0  0  0  0
 12  4  2  0  0  0  0
 14  6  1  0  0  0  0
 15  8  1  0  0  0  0
 16  9  1  0  0  0  0
 17 10  1  0  0  0  0
 18 23  1  0  0  0  0
 19 21  1  0  0  0  0
 19 18  2  0  0  0  0
 20 19  1  0  0  0  0
 21 22  2  0  0  0  0
 22 23  1  0  0  0  0
 24  1  1  0  0  0  0
 24 25  1  0  0  0  0
 26 24  1  0  0  0  0
 27 31  2  0  0  0  0
 28 27  1  0  0  0  0
 28 29  2  0  0  0  0
 29 30  1  0  0  0  0
 30 24  1  0  0  0  0
 31 30  1  0  0  0  0
 32 28  1  0  0  0  0
 33 29  1  0  0  0  0
 34 39  1  0  0  0  0
 34 40  1  0  0  0  0
 35 34  2  0  0  0  0
 36 37  2  0  0  0  0
 36 35  1  0  0  0  0
 37 38  1  0  0  0  0
 38 27  1  0  0  0  0
 38 39  2  0  0  0  0
 41 35  1  0  0  0  0
 42 36  1  0  0  0  0
M  END
>  <minimizedAffinity>
-5.17884731

>  <minimizedRMSD>
0.906891882

$$$$
