
 OpenBabel03242511553D

 31 33  0  0  1  0  0  0  0  0999 V2000
   37.3400   28.3850   40.7250 C   0  0  2  0  0  0  0  0  0  0  0  0
   37.0110   27.1900   41.5270 C   0  0  0  0  0  0  0  0  0  0  0  0
   36.5600   27.5000   42.9220 C   0  0  0  0  0  0  0  0  0  0  0  0
   37.5390   28.3670   43.6790 C   0  0  0  0  0  0  0  0  0  0  0  0
   38.1830   29.4400   42.8230 C   0  0  0  0  0  0  0  0  0  0  0  0
   37.3780   29.6530   41.5580 C   0  0  1  0  0  0  0  0  0  0  0  0
   38.3460   28.2680   40.2210 H   0  0  0  0  0  0  0  0  0  0  0  0
   37.9390   26.5520   41.6220 H   0  0  0  0  0  0  0  0  0  0  0  0
   36.2570   26.5110   41.0830 H   0  0  0  0  0  0  0  0  0  0  0  0
   35.5360   27.8430   43.0420 H   0  0  0  0  0  0  0  0  0  0  0  0
   36.5830   26.5080   43.4680 H   0  0  0  0  0  0  0  0  0  0  0  0
   36.9660   28.8740   44.4830 H   0  0  0  0  0  0  0  0  0  0  0  0
   38.3160   27.7410   44.1980 H   0  0  0  0  0  0  0  0  0  0  0  0
   38.2950   30.3840   43.3520 H   0  0  0  0  0  0  0  0  0  0  0  0
   39.1960   29.1050   42.5240 H   0  0  0  0  0  0  0  0  0  0  0  0
   36.3280   29.8220   41.9100 H   0  0  0  0  0  0  0  0  0  0  0  0
   36.3820   28.6050   39.6260 C   0  0  0  0  0  0  0  0  0  0  0  0
   35.0540   28.8620   40.0120 C   0  0  0  0  0  0  0  0  0  0  0  0
   34.0640   29.0790   39.0440 C   0  0  0  0  0  0  0  0  0  0  0  0
   34.4890   29.0220   37.7300 N   0  0  0  0  0  0  0  0  0  0  0  0
   35.7570   28.7760   37.3990 C   0  0  0  0  0  0  0  0  0  0  0  0
   36.7100   28.5660   38.3380 N   0  0  0  0  0  0  0  0  0  0  0  0
   34.6350   28.9230   41.0060 H   0  0  0  0  0  0  0  0  0  0  0  0
   33.0360   29.2830   39.1920 H   0  0  0  0  0  0  0  0  0  0  0  0
   36.0930   28.7320   36.3630 H   0  0  0  0  0  0  0  0  0  0  0  0
   37.7690   30.8330   40.8220 C   0  0  0  0  0  0  0  0  0  0  0  0
   37.1460   31.9540   40.4440 C   0  0  0  0  0  0  0  0  0  0  0  0
   36.0920   32.0550   40.7450 H   0  0  0  0  0  0  0  0  0  0  0  0
   37.7470   32.9250   39.7370 C   0  0  0  0  0  3  0  0  0  0  0  0
   39.1040   32.6820   39.4120 C   0  0  0  0  0  3  0  0  0  0  0  0
   39.4820   30.9990   40.1650 S   0  0  0  0  0  0  0  0  0  0  0  0
  1  7  1  6  0  0  0
  1  2  1  0  0  0  0
  1  6  1  0  0  0  0
  2  8  1  0  0  0  0
  2  3  1  0  0  0  0
  3 10  1  0  0  0  0
  3 11  1  0  0  0  0
  3  4  1  0  0  0  0
  4 13  1  0  0  0  0
  4 12  1  0  0  0  0
  5 14  1  0  0  0  0
  5  4  1  0  0  0  0
  6 16  1  1  0  0  0
  6  5  1  0  0  0  0
  9  2  1  0  0  0  0
 15  5  1  0  0  0  0
 17 18  1  0  0  0  0
 17  1  1  0  0  0  0
 18 23  1  0  0  0  0
 19 24  1  0  0  0  0
 19 18  2  0  0  0  0
 20 19  1  0  0  0  0
 21 20  2  0  0  0  0
 21 22  1  0  0  0  0
 22 17  2  0  0  0  0
 25 21  1  0  0  0  0
 26  6  1  0  0  0  0
 27 28  1  0  0  0  0
 27 26  2  0  0  0  0
 29 27  1  0  0  0  0
 30 29  2  0  0  0  0
 30 31  1  0  0  0  0
 31 26  1  0  0  0  0
M  END
>  <minimizedAffinity>
-4.9085803

$$$$

 OpenBabel03242511553D

 31 33  0  0  1  0  0  0  0  0999 V2000
   37.4650   29.8380   41.8570 C   0  0  2  0  0  0  0  0  0  0  0  0
   38.4520   29.6920   42.9450 C   0  0  0  0  0  0  0  0  0  0  0  0
   38.9830   28.3000   43.1020 C   0  0  0  0  0  0  0  0  0  0  0  0
   37.8910   27.2680   43.2660 C   0  0  0  0  0  0  0  0  0  0  0  0
   36.6740   27.5340   42.4000 C   0  0  0  0  0  0  0  0  0  0  0  0
   37.0240   28.5010   41.2880 C   0  0  1  0  0  0  0  0  0  0  0  0
   36.5430   30.3840   42.2190 H   0  0  0  0  0  0  0  0  0  0  0  0
   37.9540   29.9610   43.9230 H   0  0  0  0  0  0  0  0  0  0  0  0
   39.3260   30.3710   42.8890 H   0  0  0  0  0  0  0  0  0  0  0  0
   39.7410   27.9800   42.3930 H   0  0  0  0  0  0  0  0  0  0  0  0
   39.5210   28.2990   44.0990 H   0  0  0  0  0  0  0  0  0  0  0  0
   38.3200   26.2930   42.9550 H   0  0  0  0  0  0  0  0  0  0  0  0
   37.6030   27.1510   44.3460 H   0  0  0  0  0  0  0  0  0  0  0  0
   36.2560   26.6230   41.9780 H   0  0  0  0  0  0  0  0  0  0  0  0
   35.8850   28.0060   43.0200 H   0  0  0  0  0  0  0  0  0  0  0  0
   37.9310   28.0610   40.7990 H   0  0  0  0  0  0  0  0  0  0  0  0
   37.9780   30.6480   40.7370 C   0  0  0  0  0  0  0  0  0  0  0  0
   37.3040   31.8600   40.4980 C   0  0  0  0  0  0  0  0  0  0  0  0
   37.7090   32.7010   39.4530 C   0  0  0  0  0  0  0  0  0  0  0  0
   38.7850   32.2560   38.7080 N   0  0  0  0  0  0  0  0  0  0  0  0
   39.4000   31.1000   38.9620 C   0  0  0  0  0  0  0  0  0  0  0  0
   39.0050   30.2900   39.9730 N   0  0  0  0  0  0  0  0  0  0  0  0
   36.4610   32.2840   41.0230 H   0  0  0  0  0  0  0  0  0  0  0  0
   37.2980   33.6330   39.1650 H   0  0  0  0  0  0  0  0  0  0  0  0
   40.2490   30.7490   38.3750 H   0  0  0  0  0  0  0  0  0  0  0  0
   36.0030   28.5990   40.2720 C   0  0  0  0  0  0  0  0  0  0  0  0
   34.7780   29.1300   40.2190 C   0  0  0  0  0  0  0  0  0  0  0  0
   34.4170   29.6270   41.1330 H   0  0  0  0  0  0  0  0  0  0  0  0
   34.0020   29.0800   39.1230 C   0  0  0  0  0  3  0  0  0  0  0  0
   34.5750   28.4180   38.0090 C   0  0  0  0  0  3  0  0  0  0  0  0
   36.2760   27.8700   38.6020 S   0  0  0  0  0  0  0  0  0  0  0  0
  1  7  1  1  0  0  0
  1  2  1  0  0  0  0
  2  3  1  0  0  0  0
  2  8  1  0  0  0  0
  3  4  1  0  0  0  0
  3 11  1  0  0  0  0
  4 13  1  0  0  0  0
  5 15  1  0  0  0  0
  5  4  1  0  0  0  0
  6 16  1  6  0  0  0
  6  1  1  0  0  0  0
  6  5  1  0  0  0  0
  9  2  1  0  0  0  0
 10  3  1  0  0  0  0
 12  4  1  0  0  0  0
 14  5  1  0  0  0  0
 17  1  1  0  0  0  0
 18 17  1  0  0  0  0
 18 23  1  0  0  0  0
 19 18  2  0  0  0  0
 20 21  2  0  0  0  0
 20 19  1  0  0  0  0
 21 22  1  0  0  0  0
 22 17  2  0  0  0  0
 24 19  1  0  0  0  0
 25 21  1  0  0  0  0
 26  6  1  0  0  0  0
 27 26  2  0  0  0  0
 27 28  1  0  0  0  0
 29 27  1  0  0  0  0
 30 31  1  0  0  0  0
 30 29  2  0  0  0  0
 31 26  1  0  0  0  0
M  END
>  <minimizedAffinity>
-4.90691853

$$$$

 OpenBabel03242511553D

 31 33  0  0  1  0  0  0  0  0999 V2000
   37.2720   31.5000   40.7140 C   0  0  2  0  0  0  0  0  0  0  0  0
   37.4950   32.7770   40.0070 C   0  0  0  0  0  0  0  0  0  0  0  0
   38.9030   32.9720   39.5330 C   0  0  0  0  0  0  0  0  0  0  0  0
   39.9230   32.8160   40.6380 C   0  0  0  0  0  0  0  0  0  0  0  0
   39.5880   31.7100   41.6190 C   0  0  0  0  0  0  0  0  0  0  0  0
   38.5660   30.7680   41.0160 C   0  0  1  0  0  0  0  0  0  0  0  0
   36.7300   31.6700   41.6920 H   0  0  0  0  0  0  0  0  0  0  0  0
   37.2730   33.6270   40.7180 H   0  0  0  0  0  0  0  0  0  0  0  0
   36.8300   32.9660   39.1420 H   0  0  0  0  0  0  0  0  0  0  0  0
   39.1960   32.4400   38.6320 H   0  0  0  0  0  0  0  0  0  0  0  0
   38.9700   34.0640   39.2420 H   0  0  0  0  0  0  0  0  0  0  0  0
   40.8870   32.5570   40.1520 H   0  0  0  0  0  0  0  0  0  0  0  0
   40.0960   33.7920   41.1690 H   0  0  0  0  0  0  0  0  0  0  0  0
   40.4660   31.1490   41.9310 H   0  0  0  0  0  0  0  0  0  0  0  0
   39.1380   32.1560   42.5280 H   0  0  0  0  0  0  0  0  0  0  0  0
   38.9940   30.4770   40.0220 H   0  0  0  0  0  0  0  0  0  0  0  0
   36.4090   30.5790   39.9510 C   0  0  0  0  0  0  0  0  0  0  0  0
   36.7270   30.4270   38.5890 C   0  0  0  0  0  0  0  0  0  0  0  0
   35.9650   29.5790   37.7750 C   0  0  0  0  0  0  0  0  0  0  0  0
   34.9160   28.9310   38.4000 N   0  0  0  0  0  0  0  0  0  0  0  0
   34.6430   29.0990   39.6940 C   0  0  0  0  0  0  0  0  0  0  0  0
   35.3820   29.9200   40.4780 N   0  0  0  0  0  0  0  0  0  0  0  0
   37.5190   30.8910   38.0210 H   0  0  0  0  0  0  0  0  0  0  0  0
   36.0920   29.3710   36.7450 H   0  0  0  0  0  0  0  0  0  0  0  0
   33.8160   28.5870   40.1880 H   0  0  0  0  0  0  0  0  0  0  0  0
   38.3940   29.5490   41.7720 C   0  0  0  0  0  0  0  0  0  0  0  0
   37.9960   29.2640   43.0160 C   0  0  0  0  0  0  0  0  0  0  0  0
   37.7170   30.1190   43.6510 H   0  0  0  0  0  0  0  0  0  0  0  0
   37.9280   28.0110   43.4960 C   0  0  0  0  0  3  0  0  0  0  0  0
   38.3090   26.9960   42.5850 C   0  0  0  0  0  3  0  0  0  0  0  0
   38.7700   27.9160   41.0080 S   0  0  0  0  0  0  0  0  0  0  0  0
  1  6  1  0  0  0  0
  1  7  1  1  0  0  0
  2  1  1  0  0  0  0
  2  8  1  0  0  0  0
  3  2  1  0  0  0  0
  3  4  1  0  0  0  0
  4 13  1  0  0  0  0
  4  5  1  0  0  0  0
  5 14  1  0  0  0  0
  5 15  1  0  0  0  0
  6 16  1  6  0  0  0
  6  5  1  0  0  0  0
  6 26  1  0  0  0  0
  9  2  1  0  0  0  0
 10  3  1  0  0  0  0
 11  3  1  0  0  0  0
 12  4  1  0  0  0  0
 17 22  1  0  0  0  0
 17  1  1  0  0  0  0
 18 17  2  0  0  0  0
 19 20  2  0  0  0  0
 19 18  1  0  0  0  0
 20 21  1  0  0  0  0
 21 25  1  0  0  0  0
 21 22  2  0  0  0  0
 23 18  1  0  0  0  0
 24 19  1  0  0  0  0
 26 27  2  0  0  0  0
 27 29  1  0  0  0  0
 27 28  1  0  0  0  0
 30 29  2  0  0  0  0
 31 26  1  0  0  0  0
 31 30  1  0  0  0  0
M  END
>  <minimizedAffinity>
-4.81991577

$$$$

 OpenBabel03242511553D

 31 33  0  0  1  0  0  0  0  0999 V2000
   37.0260   29.1590   41.9120 C   0  0  2  0  0  0  0  0  0  0  0  0
   37.5730   28.8150   43.2400 C   0  0  0  0  0  0  0  0  0  0  0  0
   38.4610   27.6080   43.2370 C   0  0  0  0  0  0  0  0  0  0  0  0
   37.8000   26.3930   42.6290 C   0  0  0  0  0  0  0  0  0  0  0  0
   36.9350   26.7130   41.4260 C   0  0  0  0  0  0  0  0  0  0  0  0
   37.2870   28.0800   40.8770 C   0  0  1  0  0  0  0  0  0  0  0  0
   35.9080   29.3260   41.9680 H   0  0  0  0  0  0  0  0  0  0  0  0
   36.7140   28.5830   43.9360 H   0  0  0  0  0  0  0  0  0  0  0  0
   38.1270   29.6270   43.7510 H   0  0  0  0  0  0  0  0  0  0  0  0
   39.4750   27.7450   42.8710 H   0  0  0  0  0  0  0  0  0  0  0  0
   38.5970   27.3370   44.3280 H   0  0  0  0  0  0  0  0  0  0  0  0
   38.6150   25.7190   42.2900 H   0  0  0  0  0  0  0  0  0  0  0  0
   37.2230   25.8170   43.4030 H   0  0  0  0  0  0  0  0  0  0  0  0
   37.0210   25.9670   40.6390 H   0  0  0  0  0  0  0  0  0  0  0  0
   35.8730   26.7420   41.7410 H   0  0  0  0  0  0  0  0  0  0  0  0
   38.3980   28.0550   40.7340 H   0  0  0  0  0  0  0  0  0  0  0  0
   37.5770   30.4210   41.3860 C   0  0  0  0  0  0  0  0  0  0  0  0
   38.9670   30.5890   41.5270 C   0  0  0  0  0  0  0  0  0  0  0  0
   39.5890   31.7560   41.0650 C   0  0  0  0  0  0  0  0  0  0  0  0
   38.7540   32.6910   40.4830 N   0  0  0  0  0  0  0  0  0  0  0  0
   37.4390   32.4990   40.3660 C   0  0  0  0  0  0  0  0  0  0  0  0
   36.8420   31.3690   40.8140 N   0  0  0  0  0  0  0  0  0  0  0  0
   39.6910   29.9190   41.9660 H   0  0  0  0  0  0  0  0  0  0  0  0
   40.6160   32.0110   41.1040 H   0  0  0  0  0  0  0  0  0  0  0  0
   36.7800   33.2360   39.9060 H   0  0  0  0  0  0  0  0  0  0  0  0
   36.7020   28.3470   39.5840 C   0  0  0  0  0  0  0  0  0  0  0  0
   35.4520   28.4620   39.1240 C   0  0  0  0  0  0  0  0  0  0  0  0
   34.6440   28.3410   39.8620 H   0  0  0  0  0  0  0  0  0  0  0  0
   35.1640   28.7140   37.8360 C   0  0  0  0  0  3  0  0  0  0  0  0
   36.2870   28.8520   36.9830 C   0  0  0  0  0  3  0  0  0  0  0  0
   37.7760   28.6060   38.1090 S   0  0  0  0  0  0  0  0  0  0  0  0
  1  7  1  1  0  0  0
  1  2  1  0  0  0  0
  2  9  1  0  0  0  0
  2  8  1  0  0  0  0
  3  2  1  0  0  0  0
  3 11  1  0  0  0  0
  4  3  1  0  0  0  0
  4 13  1  0  0  0  0
  5 15  1  0  0  0  0
  5  4  1  0  0  0  0
  6 16  1  6  0  0  0
  6  5  1  0  0  0  0
  6  1  1  0  0  0  0
 10  3  1  0  0  0  0
 12  4  1  0  0  0  0
 14  5  1  0  0  0  0
 17 18  1  0  0  0  0
 17  1  1  0  0  0  0
 18 23  1  0  0  0  0
 19 24  1  0  0  0  0
 19 18  2  0  0  0  0
 20 19  1  0  0  0  0
 21 20  2  0  0  0  0
 21 22  1  0  0  0  0
 22 17  2  0  0  0  0
 25 21  1  0  0  0  0
 26  6  1  0  0  0  0
 27 26  2  0  0  0  0
 27 28  1  0  0  0  0
 29 27  1  0  0  0  0
 30 29  2  0  0  0  0
 30 31  1  0  0  0  0
 31 26  1  0  0  0  0
M  END
>  <minimizedAffinity>
-4.67757416

$$$$

 OpenBabel03242511553D

 31 33  0  0  1  0  0  0  0  0999 V2000
   38.5530   27.4800   42.9510 C   0  0  2  0  0  0  0  0  0  0  0  0
   39.3460   26.4710   43.6790 C   0  0  0  0  0  0  0  0  0  0  0  0
   39.5970   25.2160   42.9000 C   0  0  0  0  0  0  0  0  0  0  0  0
   38.3270   24.5840   42.3780 C   0  0  0  0  0  0  0  0  0  0  0  0
   37.3010   25.5940   41.9010 C   0  0  0  0  0  0  0  0  0  0  0  0
   37.9600   26.9370   41.6640 C   0  0  1  0  0  0  0  0  0  0  0  0
   37.7030   27.8640   43.5910 H   0  0  0  0  0  0  0  0  0  0  0  0
   38.7800   26.1670   44.6090 H   0  0  0  0  0  0  0  0  0  0  0  0
   40.3270   26.8200   44.0600 H   0  0  0  0  0  0  0  0  0  0  0  0
   40.3720   25.2560   42.1410 H   0  0  0  0  0  0  0  0  0  0  0  0
   39.9900   24.4710   43.6570 H   0  0  0  0  0  0  0  0  0  0  0  0
   38.6140   23.9570   41.5090 H   0  0  0  0  0  0  0  0  0  0  0  0
   37.8840   23.8820   43.1360 H   0  0  0  0  0  0  0  0  0  0  0  0
   36.7870   25.2710   40.9990 H   0  0  0  0  0  0  0  0  0  0  0  0
   36.5340   25.7310   42.6890 H   0  0  0  0  0  0  0  0  0  0  0  0
   38.8300   26.7150   40.9940 H   0  0  0  0  0  0  0  0  0  0  0  0
   39.3440   28.6750   42.6050 C   0  0  0  0  0  0  0  0  0  0  0  0
   40.5300   28.4390   41.8850 C   0  0  0  0  0  0  0  0  0  0  0  0
   41.3560   29.5070   41.5130 C   0  0  0  0  0  0  0  0  0  0  0  0
   40.9240   30.7620   41.8970 N   0  0  0  0  0  0  0  0  0  0  0  0
   39.7940   30.9500   42.5800 C   0  0  0  0  0  0  0  0  0  0  0  0
   38.9970   29.9150   42.9380 N   0  0  0  0  0  0  0  0  0  0  0  0
   40.9430   27.5000   41.5470 H   0  0  0  0  0  0  0  0  0  0  0  0
   42.2670   29.4740   40.9730 H   0  0  0  0  0  0  0  0  0  0  0  0
   39.4510   31.9400   42.8820 H   0  0  0  0  0  0  0  0  0  0  0  0
   37.1150   27.8730   40.9600 C   0  0  0  0  0  0  0  0  0  0  0  0
   35.9620   28.4890   41.2370 C   0  0  0  0  0  0  0  0  0  0  0  0
   35.5130   28.2740   42.2180 H   0  0  0  0  0  0  0  0  0  0  0  0
   35.3580   29.3340   40.3840 C   0  0  0  0  0  3  0  0  0  0  0  0
   36.0320   29.5350   39.1550 C   0  0  0  0  0  3  0  0  0  0  0  0
   37.5720   28.4570   39.2730 S   0  0  0  0  0  0  0  0  0  0  0  0
  1  7  1  1  0  0  0
  1  2  1  0  0  0  0
  2  9  1  0  0  0  0
  2  8  1  0  0  0  0
  3 11  1  0  0  0  0
  3  2  1  0  0  0  0
  4  3  1  0  0  0  0
  4 13  1  0  0  0  0
  5  4  1  0  0  0  0
  5 15  1  0  0  0  0
  6 16  1  6  0  0  0
  6  5  1  0  0  0  0
  6  1  1  0  0  0  0
 10  3  1  0  0  0  0
 12  4  1  0  0  0  0
 14  5  1  0  0  0  0
 17 22  1  0  0  0  0
 17  1  1  0  0  0  0
 18 17  2  0  0  0  0
 19 18  1  0  0  0  0
 19 20  2  0  0  0  0
 20 21  1  0  0  0  0
 21 25  1  0  0  0  0
 21 22  2  0  0  0  0
 23 18  1  0  0  0  0
 24 19  1  0  0  0  0
 26 27  2  0  0  0  0
 26  6  1  0  0  0  0
 27 28  1  0  0  0  0
 29 27  1  0  0  0  0
 30 31  1  0  0  0  0
 30 29  2  0  0  0  0
 31 26  1  0  0  0  0
M  END
>  <minimizedAffinity>
-4.64464045

$$$$

 OpenBabel03242511553D

 31 33  0  0  1  0  0  0  0  0999 V2000
   36.2690   29.6310   40.5380 C   0  0  2  0  0  0  0  0  0  0  0  0
   34.9780   29.0560   40.1090 C   0  0  0  0  0  0  0  0  0  0  0  0
   34.9990   28.4800   38.7260 C   0  0  0  0  0  0  0  0  0  0  0  0
   35.4890   29.4620   37.6870 C   0  0  0  0  0  0  0  0  0  0  0  0
   36.6270   30.3380   38.1720 C   0  0  0  0  0  0  0  0  0  0  0  0
   37.2690   29.7290   39.4010 C   0  0  1  0  0  0  0  0  0  0  0  0
   36.1250   30.6680   40.9670 H   0  0  0  0  0  0  0  0  0  0  0  0
   34.2000   29.8760   40.1060 H   0  0  0  0  0  0  0  0  0  0  0  0
   34.5550   28.2820   40.7800 H   0  0  0  0  0  0  0  0  0  0  0  0
   35.4560   27.5020   38.6080 H   0  0  0  0  0  0  0  0  0  0  0  0
   33.9110   28.3090   38.4600 H   0  0  0  0  0  0  0  0  0  0  0  0
   35.8630   28.8630   36.8310 H   0  0  0  0  0  0  0  0  0  0  0  0
   34.6410   30.0820   37.2850 H   0  0  0  0  0  0  0  0  0  0  0  0
   37.3820   30.5030   37.4060 H   0  0  0  0  0  0  0  0  0  0  0  0
   36.2240   31.3290   38.4600 H   0  0  0  0  0  0  0  0  0  0  0  0
   37.5060   28.6740   39.1090 H   0  0  0  0  0  0  0  0  0  0  0  0
   36.9000   28.8520   41.6190 C   0  0  0  0  0  0  0  0  0  0  0  0
   36.9770   27.4630   41.4090 C   0  0  0  0  0  0  0  0  0  0  0  0
   37.5540   26.6310   42.3780 C   0  0  0  0  0  0  0  0  0  0  0  0
   38.0220   27.2680   43.5120 N   0  0  0  0  0  0  0  0  0  0  0  0
   37.9320   28.5880   43.6780 C   0  0  0  0  0  0  0  0  0  0  0  0
   37.3730   29.3880   42.7390 N   0  0  0  0  0  0  0  0  0  0  0  0
   36.6390   26.8840   40.5620 H   0  0  0  0  0  0  0  0  0  0  0  0
   37.6780   25.5810   42.3500 H   0  0  0  0  0  0  0  0  0  0  0  0
   38.3020   29.0910   44.5720 H   0  0  0  0  0  0  0  0  0  0  0  0
   38.5180   30.3550   39.7650 C   0  0  0  0  0  0  0  0  0  0  0  0
   39.7950   29.9580   39.7920 C   0  0  0  0  0  0  0  0  0  0  0  0
   39.9960   28.9270   39.4630 H   0  0  0  0  0  0  0  0  0  0  0  0
   40.8020   30.7530   40.1910 C   0  0  0  0  0  3  0  0  0  0  0  0
   40.4200   32.0580   40.5880 C   0  0  0  0  0  3  0  0  0  0  0  0
   38.5500   32.0970   40.3640 S   0  0  0  0  0  0  0  0  0  0  0  0
  1  7  1  1  0  0  0
  1 17  1  0  0  0  0
  2  1  1  0  0  0  0
  2  9  1  0  0  0  0
  3  2  1  0  0  0  0
  4  5  1  0  0  0  0
  4  3  1  0  0  0  0
  5 15  1  0  0  0  0
  5  6  1  0  0  0  0
  6 16  1  6  0  0  0
  6 26  1  0  0  0  0
  6  1  1  0  0  0  0
  8  2  1  0  0  0  0
 10  3  1  0  0  0  0
 11  3  1  0  0  0  0
 12  4  1  0  0  0  0
 13  4  1  0  0  0  0
 14  5  1  0  0  0  0
 17 22  1  0  0  0  0
 18 17  2  0  0  0  0
 18 19  1  0  0  0  0
 19 20  2  0  0  0  0
 20 21  1  0  0  0  0
 21 25  1  0  0  0  0
 22 21  2  0  0  0  0
 23 18  1  0  0  0  0
 24 19  1  0  0  0  0
 26 27  2  0  0  0  0
 26 31  1  0  0  0  0
 27 29  1  0  0  0  0
 28 27  1  0  0  0  0
 29 30  2  0  0  0  0
 31 30  1  0  0  0  0
M  END
>  <minimizedAffinity>
-4.58486843

$$$$

 OpenBabel03242511553D

 31 33  0  0  1  0  0  0  0  0999 V2000
   38.7570   30.9900   39.9710 C   0  0  2  0  0  0  0  0  0  0  0  0
   39.6860   32.0570   40.3920 C   0  0  0  0  0  0  0  0  0  0  0  0
   39.0050   33.2860   40.9130 C   0  0  0  0  0  0  0  0  0  0  0  0
   37.9880   33.8490   39.9470 C   0  0  0  0  0  0  0  0  0  0  0  0
   37.1960   32.7840   39.2140 C   0  0  0  0  0  0  0  0  0  0  0  0
   37.3130   31.4570   39.9340 C   0  0  1  0  0  0  0  0  0  0  0  0
   39.0260   30.6040   38.9430 H   0  0  0  0  0  0  0  0  0  0  0  0
   40.2950   32.3800   39.4970 H   0  0  0  0  0  0  0  0  0  0  0  0
   40.4440   31.7600   41.1440 H   0  0  0  0  0  0  0  0  0  0  0  0
   38.6210   33.2420   41.9280 H   0  0  0  0  0  0  0  0  0  0  0  0
   39.8150   34.0760   40.9600 H   0  0  0  0  0  0  0  0  0  0  0  0
   37.2720   34.4490   40.5480 H   0  0  0  0  0  0  0  0  0  0  0  0
   38.4670   34.5670   39.2280 H   0  0  0  0  0  0  0  0  0  0  0  0
   36.1480   33.0490   39.0980 H   0  0  0  0  0  0  0  0  0  0  0  0
   37.6200   32.6530   38.1980 H   0  0  0  0  0  0  0  0  0  0  0  0
   37.0350   31.6800   40.9960 H   0  0  0  0  0  0  0  0  0  0  0  0
   38.8190   29.8100   40.8540 C   0  0  0  0  0  0  0  0  0  0  0  0
   38.4990   30.0370   42.2050 C   0  0  0  0  0  0  0  0  0  0  0  0
   38.5340   28.9830   43.1270 C   0  0  0  0  0  0  0  0  0  0  0  0
   38.8940   27.7510   42.6160 N   0  0  0  0  0  0  0  0  0  0  0  0
   39.1910   27.5710   41.3280 C   0  0  0  0  0  0  0  0  0  0  0  0
   39.1560   28.5930   40.4400 N   0  0  0  0  0  0  0  0  0  0  0  0
   38.2110   30.9590   42.6890 H   0  0  0  0  0  0  0  0  0  0  0  0
   38.3170   29.0110   44.1630 H   0  0  0  0  0  0  0  0  0  0  0  0
   39.4740   26.5990   40.9240 H   0  0  0  0  0  0  0  0  0  0  0  0
   36.3820   30.4610   39.4560 C   0  0  0  0  0  0  0  0  0  0  0  0
   35.3560   29.7980   39.9980 C   0  0  0  0  0  0  0  0  0  0  0  0
   35.1180   30.0320   41.0470 H   0  0  0  0  0  0  0  0  0  0  0  0
   34.6320   28.8880   39.3240 C   0  0  0  0  0  3  0  0  0  0  0  0
   35.0300   28.6750   37.9810 C   0  0  0  0  0  3  0  0  0  0  0  0
   36.4910   29.8360   37.7260 S   0  0  0  0  0  0  0  0  0  0  0  0
  1  7  1  6  0  0  0
  1  2  1  0  0  0  0
  1 17  1  0  0  0  0
  2  3  1  0  0  0  0
  2  9  1  0  0  0  0
  3 11  1  0  0  0  0
  3 10  1  0  0  0  0
  4 12  1  0  0  0  0
  4  3  1  0  0  0  0
  5  6  1  0  0  0  0
  5  4  1  0  0  0  0
  6  1  1  0  0  0  0
  6 16  1  1  0  0  0
  8  2  1  0  0  0  0
 13  4  1  0  0  0  0
 14  5  1  0  0  0  0
 15  5  1  0  0  0  0
 17 18  1  0  0  0  0
 18 23  1  0  0  0  0
 18 19  2  0  0  0  0
 19 24  1  0  0  0  0
 20 19  1  0  0  0  0
 21 20  2  0  0  0  0
 22 17  2  0  0  0  0
 22 21  1  0  0  0  0
 25 21  1  0  0  0  0
 26  6  1  0  0  0  0
 26 27  2  0  0  0  0
 27 28  1  0  0  0  0
 29 27  1  0  0  0  0
 30 29  2  0  0  0  0
 31 30  1  0  0  0  0
 31 26  1  0  0  0  0
M  END
>  <minimizedAffinity>
-4.56936789

$$$$

 OpenBabel03242511553D

 31 33  0  0  1  0  0  0  0  0999 V2000
   38.7380   30.9890   39.9370 C   0  0  2  0  0  0  0  0  0  0  0  0
   39.5690   32.0730   40.4980 C   0  0  0  0  0  0  0  0  0  0  0  0
   38.7850   33.2640   40.9600 C   0  0  0  0  0  0  0  0  0  0  0  0
   37.8770   33.8220   39.8880 C   0  0  0  0  0  0  0  0  0  0  0  0
   37.2210   32.7540   39.0340 C   0  0  0  0  0  0  0  0  0  0  0  0
   37.2940   31.4100   39.7290 C   0  0  1  0  0  0  0  0  0  0  0  0
   39.1470   30.6430   38.9400 H   0  0  0  0  0  0  0  0  0  0  0  0
   40.2730   32.4420   39.6950 H   0  0  0  0  0  0  0  0  0  0  0  0
   40.2370   31.7780   41.3310 H   0  0  0  0  0  0  0  0  0  0  0  0
   38.2780   33.1770   41.9170 H   0  0  0  0  0  0  0  0  0  0  0  0
   39.5530   34.0780   41.1280 H   0  0  0  0  0  0  0  0  0  0  0  0
   37.0710   34.3800   40.4090 H   0  0  0  0  0  0  0  0  0  0  0  0
   38.4160   34.5760   39.2530 H   0  0  0  0  0  0  0  0  0  0  0  0
   36.1870   32.9880   38.7940 H   0  0  0  0  0  0  0  0  0  0  0  0
   37.7730   32.6670   38.0770 H   0  0  0  0  0  0  0  0  0  0  0  0
   36.8780   31.5930   40.7530 H   0  0  0  0  0  0  0  0  0  0  0  0
   38.7310   29.7870   40.7890 C   0  0  0  0  0  0  0  0  0  0  0  0
   38.4340   30.0000   42.1480 C   0  0  0  0  0  0  0  0  0  0  0  0
   38.4070   28.9230   43.0440 C   0  0  0  0  0  0  0  0  0  0  0  0
   38.6870   27.6840   42.5010 N   0  0  0  0  0  0  0  0  0  0  0  0
   38.9660   27.5180   41.2070 C   0  0  0  0  0  0  0  0  0  0  0  0
   38.9900   28.5610   40.3440 N   0  0  0  0  0  0  0  0  0  0  0  0
   38.2060   30.9250   42.6570 H   0  0  0  0  0  0  0  0  0  0  0  0
   38.1980   28.9390   44.0820 H   0  0  0  0  0  0  0  0  0  0  0  0
   39.1850   26.5400   40.7770 H   0  0  0  0  0  0  0  0  0  0  0  0
   36.4670   30.4000   39.1120 C   0  0  0  0  0  0  0  0  0  0  0  0
   36.3390   29.9190   37.8720 C   0  0  0  0  0  0  0  0  0  0  0  0
   36.9990   30.3540   37.1060 H   0  0  0  0  0  0  0  0  0  0  0  0
   35.4630   28.9550   37.5440 C   0  0  0  0  0  3  0  0  0  0  0  0
   34.6710   28.4720   38.6150 C   0  0  0  0  0  3  0  0  0  0  0  0
   35.2370   29.4620   40.1130 S   0  0  0  0  0  0  0  0  0  0  0  0
  1  7  1  6  0  0  0
  1  2  1  0  0  0  0
  1 17  1  0  0  0  0
  2  3  1  0  0  0  0
  2  9  1  0  0  0  0
  3 11  1  0  0  0  0
  3 10  1  0  0  0  0
  4 12  1  0  0  0  0
  4  3  1  0  0  0  0
  5  6  1  0  0  0  0
  5  4  1  0  0  0  0
  6  1  1  0  0  0  0
  6 16  1  1  0  0  0
  8  2  1  0  0  0  0
 13  4  1  0  0  0  0
 14  5  1  0  0  0  0
 15  5  1  0  0  0  0
 17 18  1  0  0  0  0
 18 23  1  0  0  0  0
 18 19  2  0  0  0  0
 19 24  1  0  0  0  0
 20 19  1  0  0  0  0
 21 20  2  0  0  0  0
 22 17  2  0  0  0  0
 22 21  1  0  0  0  0
 25 21  1  0  0  0  0
 26  6  1  0  0  0  0
 26 31  1  0  0  0  0
 27 26  2  0  0  0  0
 28 27  1  0  0  0  0
 29 27  1  0  0  0  0
 29 30  2  0  0  0  0
 30 31  1  0  0  0  0
M  END
>  <minimizedAffinity>
-4.56011915

$$$$

 OpenBabel03242511553D

 31 33  0  0  1  0  0  0  0  0999 V2000
   37.5460   29.6510   38.6490 C   0  0  2  0  0  0  0  0  0  0  0  0
   36.7650   29.7030   37.3970 C   0  0  0  0  0  0  0  0  0  0  0  0
   35.3090   29.4000   37.5750 C   0  0  0  0  0  0  0  0  0  0  0  0
   35.0630   28.0820   38.2730 C   0  0  0  0  0  0  0  0  0  0  0  0
   36.0500   27.7950   39.3880 C   0  0  0  0  0  0  0  0  0  0  0  0
   36.7530   29.0700   39.8060 C   0  0  1  0  0  0  0  0  0  0  0  0
   38.4790   29.0260   38.5170 H   0  0  0  0  0  0  0  0  0  0  0  0
   37.1730   28.9270   36.6840 H   0  0  0  0  0  0  0  0  0  0  0  0
   36.8340   30.6540   36.8320 H   0  0  0  0  0  0  0  0  0  0  0  0
   34.6870   30.1950   37.9780 H   0  0  0  0  0  0  0  0  0  0  0  0
   34.9080   29.2420   36.5280 H   0  0  0  0  0  0  0  0  0  0  0  0
   34.0510   28.1410   38.7250 H   0  0  0  0  0  0  0  0  0  0  0  0
   35.0250   27.2350   37.5360 H   0  0  0  0  0  0  0  0  0  0  0  0
   35.5800   27.3330   40.2530 H   0  0  0  0  0  0  0  0  0  0  0  0
   36.8230   27.0930   39.0150 H   0  0  0  0  0  0  0  0  0  0  0  0
   35.9280   29.7990   40.0100 H   0  0  0  0  0  0  0  0  0  0  0  0
   38.0290   30.9800   39.0670 C   0  0  0  0  0  0  0  0  0  0  0  0
   37.0370   31.9570   39.2730 C   0  0  0  0  0  0  0  0  0  0  0  0
   37.3920   33.2540   39.6650 C   0  0  0  0  0  0  0  0  0  0  0  0
   38.7450   33.4830   39.8260 N   0  0  0  0  0  0  0  0  0  0  0  0
   39.6590   32.5330   39.6220 C   0  0  0  0  0  0  0  0  0  0  0  0
   39.3120   31.2800   39.2420 N   0  0  0  0  0  0  0  0  0  0  0  0
   35.9660   31.8690   39.1700 H   0  0  0  0  0  0  0  0  0  0  0  0
   36.7550   34.0780   39.8560 H   0  0  0  0  0  0  0  0  0  0  0  0
   40.7270   32.7130   39.7500 H   0  0  0  0  0  0  0  0  0  0  0  0
   37.5070   28.9340   41.0300 C   0  0  0  0  0  0  0  0  0  0  0  0
   37.3820   29.4210   42.2690 C   0  0  0  0  0  0  0  0  0  0  0  0
   36.5180   30.0770   42.4540 H   0  0  0  0  0  0  0  0  0  0  0  0
   38.2480   29.1420   43.2580 C   0  0  0  0  0  3  0  0  0  0  0  0
   39.3170   28.2850   42.8990 C   0  0  0  0  0  3  0  0  0  0  0  0
   39.0270   27.8960   41.0800 S   0  0  0  0  0  0  0  0  0  0  0  0
  1  7  1  6  0  0  0
  1 17  1  0  0  0  0
  1  6  1  0  0  0  0
  2  3  1  0  0  0  0
  2  1  1  0  0  0  0
  3 10  1  0  0  0  0
  3  4  1  0  0  0  0
  4 12  1  0  0  0  0
  4  5  1  0  0  0  0
  5  6  1  0  0  0  0
  5 14  1  0  0  0  0
  6 16  1  1  0  0  0
  6 26  1  0  0  0  0
  8  2  1  0  0  0  0
  9  2  1  0  0  0  0
 11  3  1  0  0  0  0
 13  4  1  0  0  0  0
 15  5  1  0  0  0  0
 17 22  2  0  0  0  0
 17 18  1  0  0  0  0
 18 19  2  0  0  0  0
 19 20  1  0  0  0  0
 19 24  1  0  0  0  0
 21 25  1  0  0  0  0
 21 20  2  0  0  0  0
 22 21  1  0  0  0  0
 23 18  1  0  0  0  0
 26 31  1  0  0  0  0
 26 27  2  0  0  0  0
 27 28  1  0  0  0  0
 27 29  1  0  0  0  0
 30 29  2  0  0  0  0
 31 30  1  0  0  0  0
M  END
>  <minimizedAffinity>
-4.51491308

$$$$
