
 OpenBabel03252504493D

 21 22  0  0  0  0  0  0  0  0999 V2000
   45.4260   34.7770   44.3340 C   0  0  0  0  0  0  0  0  0  0  0  0
   46.3920   34.4370   43.3860 C   0  0  0  0  0  0  0  0  0  0  0  0
   47.2940   33.4270   43.7370 C   0  0  0  0  0  0  0  0  0  0  0  0
   47.1800   32.8450   44.9590 N   0  0  0  0  0  0  0  0  0  0  0  0
   46.2220   33.2130   45.8380 C   0  0  0  0  0  0  0  0  0  0  0  0
   45.3380   34.1840   45.5290 N   0  0  0  0  0  0  0  0  0  0  0  0
   44.6910   35.5430   44.1500 H   0  0  0  0  0  0  0  0  0  0  0  0
   48.0470   33.1600   43.0050 H   0  0  0  0  0  0  0  0  0  0  0  0
   46.2860   32.4440   47.1060 C   0  0  0  0  0  0  0  0  0  0  0  0
   47.4130   32.0890   47.8030 C   0  0  0  0  0  0  0  0  0  0  0  0
   48.3860   32.3790   47.4290 H   0  0  0  0  0  0  0  0  0  0  0  0
   47.2690   31.3830   48.9440 C   0  0  0  0  0  0  0  0  0  0  0  0
   45.9660   31.0490   49.3540 C   0  0  0  0  0  0  0  0  0  0  0  0
   44.9190   31.7620   48.0780 S   0  0  0  0  0  0  0  0  0  0  0  0
   46.4170   35.1340   42.1080 C   0  0  0  0  0  0  0  0  0  0  0  0
   46.1690   36.1830   42.2390 H   0  0  0  0  0  0  0  0  0  0  0  0
   45.7310   34.6940   41.3580 H   0  0  0  0  0  0  0  0  0  0  0  0
   47.8250   35.0700   41.5570 C   0  0  0  0  0  0  0  0  0  0  0  0
   47.8760   34.2060   40.8380 H   0  0  0  0  0  0  0  0  0  0  0  0
   48.5880   34.9660   42.3310 H   0  0  0  0  0  0  0  0  0  0  0  0
   48.0120   35.9820   40.9380 H   0  0  0  0  0  0  0  0  0  0  0  0
  1  6  1  0  0  0  0
  2  3  1  0  0  0  0
  2  1  2  0  0  0  0
  3  4  2  0  0  0  0
  4  5  1  0  0  0  0
  5  9  1  0  0  0  0
  6  5  2  0  0  0  0
  7  1  1  0  0  0  0
  8  3  1  0  0  0  0
  9 10  2  0  0  0  0
  9 14  1  0  0  0  0
 10 12  1  0  0  0  0
 11 10  1  0  0  0  0
 12 13  2  0  0  0  0
 14 13  1  0  0  0  0
 15 16  1  0  0  0  0
 15  2  1  0  0  0  0
 17 15  1  0  0  0  0
 18 15  1  0  0  0  0
 18 20  1  0  0  0  0
 19 18  1  0  0  0  0
 21 18  1  0  0  0  0
M  END
>  <minimizedAffinity>
-4.25863314

>  <minimizedRMSD>
1.25920761

$$$$
