
 OpenBabel03252506253D

 42 46  0  0  0  0  0  0  0  0999 V2000
   45.9500   30.3190   48.5040 C   0  0  0  0  0  0  0  0  0  0  0  0
   46.1120   30.0060   49.5790 H   0  0  0  0  0  0  0  0  0  0  0  0
   45.2780   31.1980   48.5710 H   0  0  0  0  0  0  0  0  0  0  0  0
   45.4760   27.8360   48.0030 C   0  0  0  0  0  0  0  0  0  0  0  0
   45.3010   29.2030   47.8340 C   0  0  0  0  0  0  0  0  0  0  0  0
   44.3760   29.5720   46.8830 C   0  0  0  0  0  0  0  0  0  0  0  0
   43.6600   28.6600   46.1370 C   0  0  0  0  0  0  0  0  0  0  0  0
   42.7230   28.7280   45.1780 N   0  0  0  0  0  0  0  0  0  0  0  0
   42.3420   27.5140   44.7800 C   0  0  0  0  0  0  0  0  0  0  0  0
   43.0470   26.5780   45.4940 C   0  0  0  0  0  0  0  0  0  0  0  0
   43.8510   27.3030   46.3220 C   0  0  0  0  0  0  0  0  0  0  0  0
   44.7660   26.9170   47.2620 C   0  0  0  0  0  0  0  0  0  0  0  0
   46.2170   27.6790   48.7650 H   0  0  0  0  0  0  0  0  0  0  0  0
   44.1270   30.5920   46.6350 H   0  0  0  0  0  0  0  0  0  0  0  0
   42.3400   29.6400   44.7920 H   0  0  0  0  0  0  0  0  0  0  0  0
   41.5980   27.3470   44.0160 H   0  0  0  0  0  0  0  0  0  0  0  0
   42.8880   25.5440   45.3280 H   0  0  0  0  0  0  0  0  0  0  0  0
   45.1120   25.5550   47.6020 C   0  0  0  0  0  0  0  0  0  0  0  0
   45.1210   24.4290   46.9200 C   0  0  0  0  0  0  0  0  0  0  0  0
   44.8640   24.2200   45.9120 H   0  0  0  0  0  0  0  0  0  0  0  0
   45.5000   23.2440   47.4400 C   0  0  0  0  0  0  0  0  0  0  0  0
   45.9030   23.2410   48.7900 C   0  0  0  0  0  0  0  0  0  0  0  0
   45.6790   25.0590   49.1840 S   0  0  0  0  0  0  0  0  0  0  0  0
   47.2740   30.7380   47.9840 C   0  0  0  0  0  0  0  0  0  0  0  0
   47.6890   31.4910   48.7010 H   0  0  0  0  0  0  0  0  0  0  0  0
   47.9550   29.8960   47.9010 H   0  0  0  0  0  0  0  0  0  0  0  0
   46.5340   32.9010   45.2310 C   0  0  0  0  0  0  0  0  0  0  0  0
   47.2240   31.8570   44.5980 C   0  0  0  0  0  0  0  0  0  0  0  0
   47.5800   30.9370   45.5300 C   0  0  0  0  0  0  0  0  0  0  0  0
   47.1240   31.3980   46.6970 N   0  0  0  0  0  0  0  0  0  0  0  0
   46.4940   32.5780   46.5330 N   0  0  0  0  0  0  0  0  0  0  0  0
   47.4640   31.7500   43.5420 H   0  0  0  0  0  0  0  0  0  0  0  0
   48.1230   30.0040   45.3980 H   0  0  0  0  0  0  0  0  0  0  0  0
   44.5390   35.8740   44.5350 C   0  0  0  0  0  0  0  0  0  0  0  0
   44.9690   36.2780   43.2820 C   0  0  0  0  0  0  0  0  0  0  0  0
   45.9560   35.5150   42.6760 C   0  0  0  0  0  0  0  0  0  0  0  0
   46.4330   34.4310   43.3430 N   0  0  0  0  0  0  0  0  0  0  0  0
   45.9970   34.0700   44.5500 C   0  0  0  0  0  0  0  0  0  0  0  0
   45.0500   34.7950   45.1410 N   0  0  0  0  0  0  0  0  0  0  0  0
   43.7700   36.4810   44.9910 H   0  0  0  0  0  0  0  0  0  0  0  0
   44.6010   37.1250   42.7510 H   0  0  0  0  0  0  0  0  0  0  0  0
   46.3960   35.6880   41.7170 H   0  0  0  0  0  0  0  0  0  0  0  0
  1  3  1  0  0  0  0
  1  2  1  0  0  0  0
  4 13  1  0  0  0  0
  5  4  1  0  0  0  0
  5  1  1  0  0  0  0
  6  5  2  0  0  0  0
  7 11  2  0  0  0  0
  7  6  1  0  0  0  0
  8  7  1  0  0  0  0
  9  8  1  0  0  0  0
  9 10  2  0  0  0  0
 10 11  1  0  0  0  0
 11 12  1  0  0  0  0
 12 18  1  0  0  0  0
 12  4  2  0  0  0  0
 14  6  1  0  0  0  0
 15  8  1  0  0  0  0
 16  9  1  0  0  0  0
 17 10  1  0  0  0  0
 18 23  1  0  0  0  0
 19 21  1  0  0  0  0
 19 18  2  0  0  0  0
 20 19  1  0  0  0  0
 21 22  2  0  0  0  0
 22 23  1  0  0  0  0
 24  1  1  0  0  0  0
 24 25  1  0  0  0  0
 26 24  1  0  0  0  0
 27 31  2  0  0  0  0
 28 27  1  0  0  0  0
 28 29  2  0  0  0  0
 29 30  1  0  0  0  0
 30 24  1  0  0  0  0
 31 30  1  0  0  0  0
 32 28  1  0  0  0  0
 33 29  1  0  0  0  0
 34 40  1  0  0  0  0
 34 39  1  0  0  0  0
 35 34  2  0  0  0  0
 36 35  1  0  0  0  0
 36 37  2  0  0  0  0
 37 38  1  0  0  0  0
 38 39  2  0  0  0  0
 38 27  1  0  0  0  0
 41 35  1  0  0  0  0
 42 36  1  0  0  0  0
M  END
>  <minimizedAffinity>
-5.44344044

>  <minimizedRMSD>
0.575405836

$$$$
