
 OpenBabel03252504413D

 42 45  0  0  0  0  0  0  0  0999 V2000
   46.3330   32.2160   47.8300 C   0  0  0  0  0  0  0  0  0  0  0  0
   45.8780   31.8190   49.0510 C   0  0  0  0  0  0  0  0  0  0  0  0
   46.8710   31.1410   49.6240 N   0  0  0  0  0  0  0  0  0  0  0  0
   47.9340   31.0890   48.8280 C   0  0  0  0  0  0  0  0  0  0  0  0
   47.5960   31.7690   47.6890 N   0  0  0  0  0  0  0  0  0  0  0  0
   49.2240   30.4910   48.9910 N   0  0  0  0  0  0  0  0  0  0  0  0
   50.2720   31.3210   49.6270 C   0  0  0  0  0  0  0  0  0  0  0  0
   50.3930   30.7800   51.0470 C   0  0  0  0  0  0  0  0  0  0  0  0
   50.4810   29.2700   51.0160 C   0  0  0  0  0  0  0  0  0  0  0  0
   50.8480   28.8140   49.6120 C   0  0  0  0  0  0  0  0  0  0  0  0
   49.7370   29.2040   48.6550 C   0  0  0  0  0  0  0  0  0  0  0  0
   44.8890   32.0270   49.4580 H   0  0  0  0  0  0  0  0  0  0  0  0
   46.8390   30.7010   50.5760 H   0  0  0  0  0  0  0  0  0  0  0  0
   51.2400   31.2150   49.1130 H   0  0  0  0  0  0  0  0  0  0  0  0
   49.9360   32.3690   49.7120 H   0  0  0  0  0  0  0  0  0  0  0  0
   51.2940   31.1650   51.5730 H   0  0  0  0  0  0  0  0  0  0  0  0
   49.4960   31.0920   51.6430 H   0  0  0  0  0  0  0  0  0  0  0  0
   49.4880   28.8410   51.2420 H   0  0  0  0  0  0  0  0  0  0  0  0
   51.1850   28.8910   51.7590 H   0  0  0  0  0  0  0  0  0  0  0  0
   50.8620   27.6890   49.6580 H   0  0  0  0  0  0  0  0  0  0  0  0
   51.8340   29.2110   49.2900 H   0  0  0  0  0  0  0  0  0  0  0  0
   50.1850   29.2650   47.6430 H   0  0  0  0  0  0  0  0  0  0  0  0
   48.9610   28.4110   48.6160 H   0  0  0  0  0  0  0  0  0  0  0  0
   45.5820   33.0100   46.8230 C   0  0  0  0  0  0  0  0  0  0  0  0
   45.4650   34.0360   47.2640 H   0  0  0  0  0  0  0  0  0  0  0  0
   44.5750   32.5890   46.6720 H   0  0  0  0  0  0  0  0  0  0  0  0
   46.0090   33.9620   44.5810 C   0  0  0  0  0  3  0  0  0  0  0  0
   46.3630   33.1790   45.5770 C   0  0  0  0  0  3  0  0  0  0  0  0
   46.8750   34.0330   43.4090 C   0  0  0  0  0  0  0  0  0  0  0  0
   46.7450   35.0620   42.4530 C   0  0  0  0  0  0  0  0  0  0  0  0
   47.6190   35.0390   41.3730 C   0  0  0  0  0  0  0  0  0  0  0  0
   48.5470   34.0530   41.2730 N   0  0  0  0  0  0  0  0  0  0  0  0
   48.6480   33.0820   42.2020 C   0  0  0  0  0  0  0  0  0  0  0  0
   47.8310   33.0710   43.2460 N   0  0  0  0  0  0  0  0  0  0  0  0
   45.9890   35.7920   42.6150 H   0  0  0  0  0  0  0  0  0  0  0  0
   47.4900   35.8430   40.6600 H   0  0  0  0  0  0  0  0  0  0  0  0
   49.6940   32.1350   41.9070 C   0  0  0  0  0  0  0  0  0  0  0  0
   50.9690   32.3310   41.5130 C   0  0  0  0  0  0  0  0  0  0  0  0
   51.3240   33.3440   41.3790 H   0  0  0  0  0  0  0  0  0  0  0  0
   51.7860   31.2480   41.2920 C   0  0  0  0  0  3  0  0  0  0  0  0
   51.2130   29.9870   41.4980 C   0  0  0  0  0  3  0  0  0  0  0  0
   49.4980   30.3570   42.0110 S   0  0  0  0  0  0  0  0  0  0  0  0
  1  2  2  0  0  0  0
  2 12  1  0  0  0  0
  2  3  1  0  0  0  0
  3 13  1  0  0  0  0
  4  6  1  0  0  0  0
  4  3  1  0  0  0  0
  5  1  1  0  0  0  0
  5  4  2  0  0  0  0
  6  7  1  0  0  0  0
  7 15  1  0  0  0  0
  7  8  1  0  0  0  0
  8 16  1  0  0  0  0
  8 17  1  0  0  0  0
  9  8  1  0  0  0  0
  9 18  1  0  0  0  0
  9 19  1  0  0  0  0
 10 20  1  0  0  0  0
 10  9  1  0  0  0  0
 11  6  1  0  0  0  0
 11 10  1  0  0  0  0
 14  7  1  0  0  0  0
 21 10  1  0  0  0  0
 22 11  1  0  0  0  0
 23 11  1  0  0  0  0
 24 25  1  0  0  0  0
 24  1  1  0  0  0  0
 26 24  1  0  0  0  0
 27 28  2  0  0  0  0
 28 24  1  0  0  0  0
 29 27  1  0  0  0  0
 30 35  1  0  0  0  0
 30 29  2  0  0  0  0
 31 30  1  0  0  0  0
 32 31  2  0  0  0  0
 32 33  1  0  0  0  0
 33 34  2  0  0  0  0
 34 29  1  0  0  0  0
 36 31  1  0  0  0  0
 37 42  1  0  0  0  0
 37 33  1  0  0  0  0
 38 37  2  0  0  0  0
 39 38  1  0  0  0  0
 40 41  2  0  0  0  0
 40 38  1  0  0  0  0
 41 42  1  0  0  0  0
M  END
>  <minimizedAffinity>
-5.85889244

>  <minimizedRMSD>
0.509654164

$$$$
