
 OpenBabel03252504423D

 42 45  0  0  0  0  0  0  0  0999 V2000
   46.4220   32.1910   47.7690 C   0  0  0  0  0  0  0  0  0  0  0  0
   45.9550   31.8370   48.9990 C   0  0  0  0  0  0  0  0  0  0  0  0
   46.9310   31.1530   49.5930 N   0  0  0  0  0  0  0  0  0  0  0  0
   47.9950   31.0560   48.8020 C   0  0  0  0  0  0  0  0  0  0  0  0
   47.6760   31.7120   47.6440 N   0  0  0  0  0  0  0  0  0  0  0  0
   49.2710   30.4350   48.9850 N   0  0  0  0  0  0  0  0  0  0  0  0
   50.3360   31.2580   49.6020 C   0  0  0  0  0  0  0  0  0  0  0  0
   50.4410   30.7530   51.0360 C   0  0  0  0  0  0  0  0  0  0  0  0
   50.4960   29.2410   51.0460 C   0  0  0  0  0  0  0  0  0  0  0  0
   50.8560   28.7390   49.6560 C   0  0  0  0  0  0  0  0  0  0  0  0
   49.7560   29.1270   48.6860 C   0  0  0  0  0  0  0  0  0  0  0  0
   44.9700   32.0780   49.3970 H   0  0  0  0  0  0  0  0  0  0  0  0
   46.8870   30.7390   50.5560 H   0  0  0  0  0  0  0  0  0  0  0  0
   51.3020   31.1160   49.0940 H   0  0  0  0  0  0  0  0  0  0  0  0
   50.0230   32.3150   49.6580 H   0  0  0  0  0  0  0  0  0  0  0  0
   51.3490   31.1320   51.5550 H   0  0  0  0  0  0  0  0  0  0  0  0
   49.5500   31.1000   51.6210 H   0  0  0  0  0  0  0  0  0  0  0  0
   49.4930   28.8400   51.2800 H   0  0  0  0  0  0  0  0  0  0  0  0
   51.1890   28.8660   51.8010 H   0  0  0  0  0  0  0  0  0  0  0  0
   50.8440   27.6160   49.7330 H   0  0  0  0  0  0  0  0  0  0  0  0
   51.8510   29.1060   49.3270 H   0  0  0  0  0  0  0  0  0  0  0  0
   50.2080   29.1520   47.6730 H   0  0  0  0  0  0  0  0  0  0  0  0
   48.9630   28.3510   48.6660 H   0  0  0  0  0  0  0  0  0  0  0  0
   45.6920   32.9740   46.7390 C   0  0  0  0  0  0  0  0  0  0  0  0
   45.5430   33.9970   47.1760 H   0  0  0  0  0  0  0  0  0  0  0  0
   44.6970   32.5370   46.5540 H   0  0  0  0  0  0  0  0  0  0  0  0
   46.1490   33.8890   44.4870 C   0  0  0  0  0  3  0  0  0  0  0  0
   46.5100   33.1570   45.5180 C   0  0  0  0  0  3  0  0  0  0  0  0
   47.0550   33.9820   43.3480 C   0  0  0  0  0  0  0  0  0  0  0  0
   46.9780   35.0470   42.4250 C   0  0  0  0  0  0  0  0  0  0  0  0
   47.8880   35.0430   41.3750 C   0  0  0  0  0  0  0  0  0  0  0  0
   48.7980   34.0410   41.2700 N   0  0  0  0  0  0  0  0  0  0  0  0
   48.8480   33.0360   42.1670 C   0  0  0  0  0  0  0  0  0  0  0  0
   47.9960   33.0060   43.1830 N   0  0  0  0  0  0  0  0  0  0  0  0
   46.2320   35.7860   42.5880 H   0  0  0  0  0  0  0  0  0  0  0  0
   47.8000   35.8740   40.6870 H   0  0  0  0  0  0  0  0  0  0  0  0
   49.8840   32.0780   41.8730 C   0  0  0  0  0  0  0  0  0  0  0  0
   50.6820   31.3680   42.6960 C   0  0  0  0  0  0  0  0  0  0  0  0
   50.5740   31.4940   43.7650 H   0  0  0  0  0  0  0  0  0  0  0  0
   51.6100   30.5030   42.1650 C   0  0  0  0  0  3  0  0  0  0  0  0
   51.6560   30.4270   40.7670 C   0  0  0  0  0  3  0  0  0  0  0  0
   50.3650   31.5960   40.2160 S   0  0  0  0  0  0  0  0  0  0  0  0
  1  2  2  0  0  0  0
  2 12  1  0  0  0  0
  2  3  1  0  0  0  0
  3 13  1  0  0  0  0
  4  6  1  0  0  0  0
  4  3  1  0  0  0  0
  5  1  1  0  0  0  0
  5  4  2  0  0  0  0
  6  7  1  0  0  0  0
  7 15  1  0  0  0  0
  7  8  1  0  0  0  0
  8  9  1  0  0  0  0
  8 16  1  0  0  0  0
  8 17  1  0  0  0  0
  9 18  1  0  0  0  0
  9 19  1  0  0  0  0
 10 20  1  0  0  0  0
 10  9  1  0  0  0  0
 11  6  1  0  0  0  0
 11 10  1  0  0  0  0
 14  7  1  0  0  0  0
 21 10  1  0  0  0  0
 22 11  1  0  0  0  0
 23 11  1  0  0  0  0
 24 25  1  0  0  0  0
 24  1  1  0  0  0  0
 26 24  1  0  0  0  0
 27 28  2  0  0  0  0
 28 24  1  0  0  0  0
 29 27  1  0  0  0  0
 30 35  1  0  0  0  0
 30 29  2  0  0  0  0
 31 30  1  0  0  0  0
 32 31  2  0  0  0  0
 32 33  1  0  0  0  0
 33 34  2  0  0  0  0
 34 29  1  0  0  0  0
 36 31  1  0  0  0  0
 37 33  1  0  0  0  0
 37 38  2  0  0  0  0
 38 39  1  0  0  0  0
 40 38  1  0  0  0  0
 41 40  2  0  0  0  0
 42 41  1  0  0  0  0
 42 37  1  0  0  0  0
M  END
>  <minimizedAffinity>
-5.82560492

>  <minimizedRMSD>
0.553883672

$$$$
