
 OpenBabel03252507013D

 34 36  0  0  0  0  0  0  0  0999 V2000
   37.1770   28.7890   42.3520 N   0  0  0  0  0  0  0  0  0  0  0  0
   37.3550   28.3170   43.6800 C   0  0  0  0  0  0  0  0  0  0  0  0
   38.6050   27.4340   43.5210 C   0  0  0  0  0  0  0  0  0  0  0  0
   39.7830   28.1720   42.9990 C   0  0  0  0  0  0  0  0  0  0  0  0
   39.5390   29.4730   42.2990 C   0  0  0  0  0  0  0  0  0  0  0  0
   38.1330   29.7840   41.9360 C   0  0  0  0  0  0  0  0  0  0  0  0
   37.6440   29.1060   44.3670 H   0  0  0  0  0  0  0  0  0  0  0  0
   36.5680   27.7600   44.1570 H   0  0  0  0  0  0  0  0  0  0  0  0
   38.8330   27.0420   44.5290 H   0  0  0  0  0  0  0  0  0  0  0  0
   38.3090   26.5530   42.9150 H   0  0  0  0  0  0  0  0  0  0  0  0
   40.4950   28.4080   43.8070 H   0  0  0  0  0  0  0  0  0  0  0  0
   40.2970   27.5170   42.2620 H   0  0  0  0  0  0  0  0  0  0  0  0
   40.2820   30.1650   42.0250 H   0  0  0  0  0  0  0  0  0  0  0  0
   37.9710   30.9480   41.1990 C   0  0  0  0  0  0  0  0  0  0  0  0
   36.9850   31.5480   40.4850 C   0  0  0  0  0  0  0  0  0  0  0  0
   36.0580   31.0000   40.4750 H   0  0  0  0  0  0  0  0  0  0  0  0
   37.2330   32.7420   39.8680 C   0  0  0  0  0  3  0  0  0  0  0  0
   38.4640   33.3800   39.9350 C   0  0  0  0  0  3  0  0  0  0  0  0
   39.4140   32.1390   41.0150 S   0  0  0  0  0  0  0  0  0  0  0  0
   36.3900   28.2670   41.3870 C   0  0  0  0  0  0  0  0  0  0  0  0
   35.7420   27.4330   41.7490 H   0  0  0  0  0  0  0  0  0  0  0  0
   35.6680   28.9450   40.8550 H   0  0  0  0  0  0  0  0  0  0  0  0
   37.2270   27.6610   40.2840 C   0  0  0  0  0  0  0  0  0  0  0  0
   36.8620   28.1360   39.3350 H   0  0  0  0  0  0  0  0  0  0  0  0
   38.2820   27.8580   40.2970 H   0  0  0  0  0  0  0  0  0  0  0  0
   36.8100   26.2510   40.1360 C   0  0  0  0  0  0  0  0  0  0  0  0
   36.9800   25.3430   41.1520 C   0  0  0  0  0  0  0  0  0  0  0  0
   36.5780   24.0130   40.9820 C   0  0  0  0  0  0  0  0  0  0  0  0
   36.0250   23.6960   39.7750 N   0  0  0  0  0  0  0  0  0  0  0  0
   35.8750   24.6000   38.8130 C   0  0  0  0  0  0  0  0  0  0  0  0
   36.2680   25.8540   39.0050 N   0  0  0  0  0  0  0  0  0  0  0  0
   37.4130   25.6060   42.0880 H   0  0  0  0  0  0  0  0  0  0  0  0
   36.6880   23.2590   41.7490 H   0  0  0  0  0  0  0  0  0  0  0  0
   35.4330   24.3580   37.8390 H   0  0  0  0  0  0  0  0  0  0  0  0
  1  2  1  0  0  0  0
  2  8  1  0  0  0  0
  2  7  1  0  0  0  0
  3  2  1  0  0  0  0
  3  9  1  0  0  0  0
  4  3  1  0  0  0  0
  4 11  1  0  0  0  0
  5  4  1  0  0  0  0
  6  5  2  0  0  0  0
  6  1  1  0  0  0  0
 10  3  1  0  0  0  0
 12  4  1  0  0  0  0
 13  5  1  0  0  0  0
 14  6  1  0  0  0  0
 15 14  2  0  0  0  0
 16 15  1  0  0  0  0
 17 18  2  0  0  0  0
 17 15  1  0  0  0  0
 18 19  1  0  0  0  0
 19 14  1  0  0  0  0
 20 21  1  0  0  0  0
 20  1  1  0  0  0  0
 22 20  1  0  0  0  0
 23 25  1  0  0  0  0
 23 20  1  0  0  0  0
 24 23  1  0  0  0  0
 26 23  1  0  0  0  0
 26 27  1  0  0  0  0
 27 32  1  0  0  0  0
 28 27  2  0  0  0  0
 28 33  1  0  0  0  0
 29 28  1  0  0  0  0
 30 31  1  0  0  0  0
 30 29  2  0  0  0  0
 31 26  2  0  0  0  0
 34 30  1  0  0  0  0
M  END
>  <minimizedAffinity>
-4.9374547

$$$$

 OpenBabel03252507013D

 34 36  0  0  0  0  0  0  0  0999 V2000
   37.2310   31.2450   40.2380 N   0  0  0  0  0  0  0  0  0  0  0  0
   37.1220   31.9930   39.0340 C   0  0  0  0  0  0  0  0  0  0  0  0
   37.2560   33.4320   39.5590 C   0  0  0  0  0  0  0  0  0  0  0  0
   38.5280   33.6760   40.2870 C   0  0  0  0  0  0  0  0  0  0  0  0
   39.2780   32.4870   40.8000 C   0  0  0  0  0  0  0  0  0  0  0  0
   38.5610   31.1860   40.7890 C   0  0  0  0  0  0  0  0  0  0  0  0
   37.9720   31.8450   38.3740 H   0  0  0  0  0  0  0  0  0  0  0  0
   36.2380   31.9020   38.4290 H   0  0  0  0  0  0  0  0  0  0  0  0
   37.2100   34.0880   38.6710 H   0  0  0  0  0  0  0  0  0  0  0  0
   36.3410   33.6530   40.1460 H   0  0  0  0  0  0  0  0  0  0  0  0
   39.2480   34.2230   39.6570 H   0  0  0  0  0  0  0  0  0  0  0  0
   38.2970   34.3020   41.1760 H   0  0  0  0  0  0  0  0  0  0  0  0
   40.2560   32.5050   41.1880 H   0  0  0  0  0  0  0  0  0  0  0  0
   39.2590   30.1370   41.3680 C   0  0  0  0  0  0  0  0  0  0  0  0
   39.6400   29.7590   42.6140 C   0  0  0  0  0  0  0  0  0  0  0  0
   39.3190   30.4320   43.3910 H   0  0  0  0  0  0  0  0  0  0  0  0
   40.3610   28.6100   42.7790 C   0  0  0  0  0  3  0  0  0  0  0  0
   40.7310   27.7980   41.7150 C   0  0  0  0  0  3  0  0  0  0  0  0
   39.9630   28.7760   40.2790 S   0  0  0  0  0  0  0  0  0  0  0  0
   36.2310   30.7950   41.0240 C   0  0  0  0  0  0  0  0  0  0  0  0
   36.5880   30.3740   41.9950 H   0  0  0  0  0  0  0  0  0  0  0  0
   35.4240   31.5130   41.3350 H   0  0  0  0  0  0  0  0  0  0  0  0
   35.4920   29.6590   40.3540 C   0  0  0  0  0  0  0  0  0  0  0  0
   34.4800   29.6320   40.8370 H   0  0  0  0  0  0  0  0  0  0  0  0
   35.2880   29.7530   39.3040 H   0  0  0  0  0  0  0  0  0  0  0  0
   36.1150   28.3980   40.8050 C   0  0  0  0  0  0  0  0  0  0  0  0
   36.4340   27.3990   39.9200 C   0  0  0  0  0  0  0  0  0  0  0  0
   37.0210   26.2130   40.3770 C   0  0  0  0  0  0  0  0  0  0  0  0
   37.2460   26.1270   41.7210 N   0  0  0  0  0  0  0  0  0  0  0  0
   36.9250   27.1130   42.5500 C   0  0  0  0  0  0  0  0  0  0  0  0
   36.3680   28.2250   42.0850 N   0  0  0  0  0  0  0  0  0  0  0  0
   36.2530   27.4810   38.8750 H   0  0  0  0  0  0  0  0  0  0  0  0
   37.2920   25.3960   39.7230 H   0  0  0  0  0  0  0  0  0  0  0  0
   37.1000   27.0560   43.6320 H   0  0  0  0  0  0  0  0  0  0  0  0
  1  6  1  0  0  0  0
  1 20  1  0  0  0  0
  2  3  1  0  0  0  0
  2  1  1  0  0  0  0
  3 10  1  0  0  0  0
  3  4  1  0  0  0  0
  4  5  1  0  0  0  0
  4 12  1  0  0  0  0
  5 13  1  0  0  0  0
  6  5  2  0  0  0  0
  6 14  1  0  0  0  0
  7  2  1  0  0  0  0
  8  2  1  0  0  0  0
  9  3  1  0  0  0  0
 11  4  1  0  0  0  0
 14 15  2  0  0  0  0
 15 17  1  0  0  0  0
 15 16  1  0  0  0  0
 18 17  2  0  0  0  0
 19 14  1  0  0  0  0
 19 18  1  0  0  0  0
 20 22  1  0  0  0  0
 20 21  1  0  0  0  0
 23 26  1  0  0  0  0
 23 24  1  0  0  0  0
 23 20  1  0  0  0  0
 25 23  1  0  0  0  0
 26 31  1  0  0  0  0
 27 28  1  0  0  0  0
 27 26  2  0  0  0  0
 28 29  2  0  0  0  0
 29 30  1  0  0  0  0
 30 34  1  0  0  0  0
 31 30  2  0  0  0  0
 32 27  1  0  0  0  0
 33 28  1  0  0  0  0
M  END
>  <minimizedAffinity>
-4.83968639

$$$$

 OpenBabel03252507013D

 34 36  0  0  0  0  0  0  0  0999 V2000
   37.3100   26.7260   41.6570 N   0  0  0  0  0  0  0  0  0  0  0  0
   38.2620   25.7370   42.0280 C   0  0  0  0  0  0  0  0  0  0  0  0
   37.3710   24.4900   42.1470 C   0  0  0  0  0  0  0  0  0  0  0  0
   36.6460   24.1630   40.8920 C   0  0  0  0  0  0  0  0  0  0  0  0
   36.5000   25.2450   39.8680 C   0  0  0  0  0  0  0  0  0  0  0  0
   36.8400   26.6250   40.2990 C   0  0  0  0  0  0  0  0  0  0  0  0
   38.9650   25.5160   41.2310 H   0  0  0  0  0  0  0  0  0  0  0  0
   38.8400   25.8650   42.9260 H   0  0  0  0  0  0  0  0  0  0  0  0
   38.0460   23.6550   42.4090 H   0  0  0  0  0  0  0  0  0  0  0  0
   36.7160   24.6380   43.0300 H   0  0  0  0  0  0  0  0  0  0  0  0
   37.1280   23.3250   40.3610 H   0  0  0  0  0  0  0  0  0  0  0  0
   35.6130   23.8550   41.1650 H   0  0  0  0  0  0  0  0  0  0  0  0
   36.1540   25.1090   38.8840 H   0  0  0  0  0  0  0  0  0  0  0  0
   36.5910   27.6040   39.3490 C   0  0  0  0  0  0  0  0  0  0  0  0
   35.5070   28.1690   38.7580 C   0  0  0  0  0  0  0  0  0  0  0  0
   34.5670   27.7780   39.1080 H   0  0  0  0  0  0  0  0  0  0  0  0
   35.6850   29.1420   37.8160 C   0  0  0  0  0  3  0  0  0  0  0  0
   36.9410   29.5870   37.4250 C   0  0  0  0  0  3  0  0  0  0  0  0
   38.0310   28.4940   38.5300 S   0  0  0  0  0  0  0  0  0  0  0  0
   36.6430   27.5750   42.4660 C   0  0  0  0  0  0  0  0  0  0  0  0
   35.8910   28.2000   41.9260 H   0  0  0  0  0  0  0  0  0  0  0  0
   36.0580   27.1520   43.3270 H   0  0  0  0  0  0  0  0  0  0  0  0
   37.5920   28.5670   43.1010 C   0  0  0  0  0  0  0  0  0  0  0  0
   37.0470   28.9740   43.9930 H   0  0  0  0  0  0  0  0  0  0  0  0
   38.5130   28.1850   43.4980 H   0  0  0  0  0  0  0  0  0  0  0  0
   37.6820   29.7330   42.1990 C   0  0  0  0  0  0  0  0  0  0  0  0
   38.8830   30.3460   41.9380 C   0  0  0  0  0  0  0  0  0  0  0  0
   38.9370   31.4520   41.0810 C   0  0  0  0  0  0  0  0  0  0  0  0
   37.7520   31.8610   40.5430 N   0  0  0  0  0  0  0  0  0  0  0  0
   36.6070   31.2450   40.8170 C   0  0  0  0  0  0  0  0  0  0  0  0
   36.5890   30.1980   41.6350 N   0  0  0  0  0  0  0  0  0  0  0  0
   39.7990   30.0150   42.3650 H   0  0  0  0  0  0  0  0  0  0  0  0
   39.8550   31.9710   40.8420 H   0  0  0  0  0  0  0  0  0  0  0  0
   35.6480   31.5640   40.3910 H   0  0  0  0  0  0  0  0  0  0  0  0
  1  2  1  0  0  0  0
  1 20  1  0  0  0  0
  2  3  1  0  0  0  0
  2  8  1  0  0  0  0
  3  9  1  0  0  0  0
  3 10  1  0  0  0  0
  4 12  1  0  0  0  0
  4  3  1  0  0  0  0
  5  6  2  0  0  0  0
  5  4  1  0  0  0  0
  6  1  1  0  0  0  0
  7  2  1  0  0  0  0
 11  4  1  0  0  0  0
 13  5  1  0  0  0  0
 14  6  1  0  0  0  0
 15 16  1  0  0  0  0
 15 14  2  0  0  0  0
 17 15  1  0  0  0  0
 18 17  2  0  0  0  0
 18 19  1  0  0  0  0
 19 14  1  0  0  0  0
 20 23  1  0  0  0  0
 20 22  1  0  0  0  0
 21 20  1  0  0  0  0
 23 25  1  0  0  0  0
 23 24  1  0  0  0  0
 26 23  1  0  0  0  0
 27 26  1  0  0  0  0
 27 32  1  0  0  0  0
 28 27  2  0  0  0  0
 29 30  2  0  0  0  0
 29 28  1  0  0  0  0
 30 31  1  0  0  0  0
 31 26  2  0  0  0  0
 33 28  1  0  0  0  0
 34 30  1  0  0  0  0
M  END
>  <minimizedAffinity>
-4.80632973

$$$$

 OpenBabel03252507013D

 34 36  0  0  0  0  0  0  0  0999 V2000
   36.8680   27.2500   41.7570 N   0  0  0  0  0  0  0  0  0  0  0  0
   36.5670   27.3670   43.1410 C   0  0  0  0  0  0  0  0  0  0  0  0
   37.8630   27.9940   43.6800 C   0  0  0  0  0  0  0  0  0  0  0  0
   38.1980   29.2930   43.0420 C   0  0  0  0  0  0  0  0  0  0  0  0
   37.5560   29.6110   41.7280 C   0  0  0  0  0  0  0  0  0  0  0  0
   36.8600   28.4960   41.0350 C   0  0  0  0  0  0  0  0  0  0  0  0
   35.7880   28.0970   43.3380 H   0  0  0  0  0  0  0  0  0  0  0  0
   36.3190   26.4870   43.7080 H   0  0  0  0  0  0  0  0  0  0  0  0
   37.7030   28.1470   44.7630 H   0  0  0  0  0  0  0  0  0  0  0  0
   38.6580   27.2230   43.5980 H   0  0  0  0  0  0  0  0  0  0  0  0
   37.9420   30.1380   43.7010 H   0  0  0  0  0  0  0  0  0  0  0  0
   39.2950   29.3110   42.8610 H   0  0  0  0  0  0  0  0  0  0  0  0
   37.5800   30.5480   41.2500 H   0  0  0  0  0  0  0  0  0  0  0  0
   36.3710   28.8140   39.7760 C   0  0  0  0  0  0  0  0  0  0  0  0
   35.1730   28.7990   39.1380 C   0  0  0  0  0  0  0  0  0  0  0  0
   34.3560   28.4610   39.7520 H   0  0  0  0  0  0  0  0  0  0  0  0
   35.1020   29.1970   37.8330 C   0  0  0  0  0  3  0  0  0  0  0  0
   36.2120   29.6210   37.1150 C   0  0  0  0  0  3  0  0  0  0  0  0
   37.5500   29.4400   38.4520 S   0  0  0  0  0  0  0  0  0  0  0  0
   37.3700   26.1780   41.1080 C   0  0  0  0  0  0  0  0  0  0  0  0
   36.9080   26.0140   40.1040 H   0  0  0  0  0  0  0  0  0  0  0  0
   38.4730   26.1470   40.8940 H   0  0  0  0  0  0  0  0  0  0  0  0
   37.0950   24.9070   41.8790 C   0  0  0  0  0  0  0  0  0  0  0  0
   38.0590   24.6550   42.3950 H   0  0  0  0  0  0  0  0  0  0  0  0
   36.3690   24.9550   42.6680 H   0  0  0  0  0  0  0  0  0  0  0  0
   36.9450   23.8160   40.8940 C   0  0  0  0  0  0  0  0  0  0  0  0
   35.8370   23.7250   40.0890 C   0  0  0  0  0  0  0  0  0  0  0  0
   35.7210   22.6780   39.1670 C   0  0  0  0  0  0  0  0  0  0  0  0
   36.7530   21.7870   39.1290 N   0  0  0  0  0  0  0  0  0  0  0  0
   37.8110   21.9040   39.9220 C   0  0  0  0  0  0  0  0  0  0  0  0
   37.8910   22.9090   40.7870 N   0  0  0  0  0  0  0  0  0  0  0  0
   35.0400   24.4280   40.1300 H   0  0  0  0  0  0  0  0  0  0  0  0
   34.8700   22.5600   38.5090 H   0  0  0  0  0  0  0  0  0  0  0  0
   38.6480   21.1940   39.9020 H   0  0  0  0  0  0  0  0  0  0  0  0
  1  2  1  0  0  0  0
  2  7  1  0  0  0  0
  2  3  1  0  0  0  0
  2  8  1  0  0  0  0
  3  9  1  0  0  0  0
  4  3  1  0  0  0  0
  4 11  1  0  0  0  0
  5  4  1  0  0  0  0
  6  5  2  0  0  0  0
  6  1  1  0  0  0  0
 10  3  1  0  0  0  0
 12  4  1  0  0  0  0
 13  5  1  0  0  0  0
 14  6  1  0  0  0  0
 15 16  1  0  0  0  0
 15 14  2  0  0  0  0
 17 15  1  0  0  0  0
 18 17  2  0  0  0  0
 18 19  1  0  0  0  0
 19 14  1  0  0  0  0
 20  1  1  0  0  0  0
 20 23  1  0  0  0  0
 21 20  1  0  0  0  0
 22 20  1  0  0  0  0
 23 24  1  0  0  0  0
 23 25  1  0  0  0  0
 26 23  1  0  0  0  0
 27 32  1  0  0  0  0
 27 26  2  0  0  0  0
 28 27  1  0  0  0  0
 29 28  2  0  0  0  0
 29 30  1  0  0  0  0
 30 31  2  0  0  0  0
 31 26  1  0  0  0  0
 33 28  1  0  0  0  0
 34 30  1  0  0  0  0
M  END
>  <minimizedAffinity>
-4.69467926

$$$$

 OpenBabel03252507013D

 34 36  0  0  0  0  0  0  0  0999 V2000
   37.0730   28.7790   42.3710 N   0  0  0  0  0  0  0  0  0  0  0  0
   37.2740   28.2640   43.6800 C   0  0  0  0  0  0  0  0  0  0  0  0
   38.4500   27.3010   43.4480 C   0  0  0  0  0  0  0  0  0  0  0  0
   39.6540   27.9680   42.8900 C   0  0  0  0  0  0  0  0  0  0  0  0
   39.4730   29.2980   42.2280 C   0  0  0  0  0  0  0  0  0  0  0  0
   38.0770   29.7150   41.9340 C   0  0  0  0  0  0  0  0  0  0  0  0
   37.6460   29.0140   44.3700 H   0  0  0  0  0  0  0  0  0  0  0  0
   36.4700   27.7520   44.1800 H   0  0  0  0  0  0  0  0  0  0  0  0
   38.6930   26.8700   44.4360 H   0  0  0  0  0  0  0  0  0  0  0  0
   38.0670   26.4570   42.8370 H   0  0  0  0  0  0  0  0  0  0  0  0
   40.4150   28.1340   43.6700 H   0  0  0  0  0  0  0  0  0  0  0  0
   40.0890   27.2960   42.1180 H   0  0  0  0  0  0  0  0  0  0  0  0
   40.2500   29.9430   41.9360 H   0  0  0  0  0  0  0  0  0  0  0  0
   37.9670   30.9040   41.2300 C   0  0  0  0  0  0  0  0  0  0  0  0
   37.0120   31.5610   40.5230 C   0  0  0  0  0  0  0  0  0  0  0  0
   36.0660   31.0480   40.4870 H   0  0  0  0  0  0  0  0  0  0  0  0
   37.3110   32.7620   39.9430 C   0  0  0  0  0  3  0  0  0  0  0  0
   38.5630   33.3520   40.0420 C   0  0  0  0  0  3  0  0  0  0  0  0
   39.4540   32.0460   41.0950 S   0  0  0  0  0  0  0  0  0  0  0  0
   36.2110   28.3370   41.4310 C   0  0  0  0  0  0  0  0  0  0  0  0
   35.4490   27.6250   41.8310 H   0  0  0  0  0  0  0  0  0  0  0  0
   35.5930   29.0890   40.8700 H   0  0  0  0  0  0  0  0  0  0  0  0
   36.9410   27.5650   40.3560 C   0  0  0  0  0  0  0  0  0  0  0  0
   38.0280   27.7980   40.5050 H   0  0  0  0  0  0  0  0  0  0  0  0
   36.8870   26.4930   40.3930 H   0  0  0  0  0  0  0  0  0  0  0  0
   36.6310   28.2070   39.0620 C   0  0  0  0  0  0  0  0  0  0  0  0
   37.6260   28.6280   38.2150 C   0  0  0  0  0  0  0  0  0  0  0  0
   37.3030   29.2360   36.9960 C   0  0  0  0  0  0  0  0  0  0  0  0
   35.9730   29.3750   36.7220 N   0  0  0  0  0  0  0  0  0  0  0  0
   35.0360   28.9560   37.5640 C   0  0  0  0  0  0  0  0  0  0  0  0
   35.3750   28.3840   38.7140 N   0  0  0  0  0  0  0  0  0  0  0  0
   38.6590   28.5120   38.4420 H   0  0  0  0  0  0  0  0  0  0  0  0
   38.0470   29.5840   36.2920 H   0  0  0  0  0  0  0  0  0  0  0  0
   33.9640   29.0620   37.3560 H   0  0  0  0  0  0  0  0  0  0  0  0
  1  2  1  0  0  0  0
  2  8  1  0  0  0  0
  2  7  1  0  0  0  0
  3  2  1  0  0  0  0
  3  9  1  0  0  0  0
  4  3  1  0  0  0  0
  4 11  1  0  0  0  0
  5  4  1  0  0  0  0
  6  5  2  0  0  0  0
  6  1  1  0  0  0  0
 10  3  1  0  0  0  0
 12  4  1  0  0  0  0
 13  5  1  0  0  0  0
 14  6  1  0  0  0  0
 15 14  2  0  0  0  0
 16 15  1  0  0  0  0
 17 18  2  0  0  0  0
 17 15  1  0  0  0  0
 18 19  1  0  0  0  0
 19 14  1  0  0  0  0
 20 21  1  0  0  0  0
 20  1  1  0  0  0  0
 22 20  1  0  0  0  0
 23 25  1  0  0  0  0
 23 24  1  0  0  0  0
 23 20  1  0  0  0  0
 26 23  1  0  0  0  0
 27 32  1  0  0  0  0
 27 26  2  0  0  0  0
 28 27  1  0  0  0  0
 29 28  2  0  0  0  0
 29 30  1  0  0  0  0
 30 31  2  0  0  0  0
 31 26  1  0  0  0  0
 33 28  1  0  0  0  0
 34 30  1  0  0  0  0
M  END
>  <minimizedAffinity>
-4.66615582

$$$$

 OpenBabel03252507013D

 34 36  0  0  0  0  0  0  0  0999 V2000
   36.2670   28.1900   38.9100 N   0  0  0  0  0  0  0  0  0  0  0  0
   35.0690   27.8690   38.2170 C   0  0  0  0  0  0  0  0  0  0  0  0
   35.5180   26.6600   37.3810 C   0  0  0  0  0  0  0  0  0  0  0  0
   36.0380   25.5370   38.2030 C   0  0  0  0  0  0  0  0  0  0  0  0
   36.4720   25.8390   39.6030 C   0  0  0  0  0  0  0  0  0  0  0  0
   36.6130   27.2730   39.9660 C   0  0  0  0  0  0  0  0  0  0  0  0
   34.2940   27.4930   38.8780 H   0  0  0  0  0  0  0  0  0  0  0  0
   34.6070   28.6050   37.5830 H   0  0  0  0  0  0  0  0  0  0  0  0
   34.6250   26.3240   36.8230 H   0  0  0  0  0  0  0  0  0  0  0  0
   36.2290   27.0360   36.6160 H   0  0  0  0  0  0  0  0  0  0  0  0
   35.2880   24.7340   38.3000 H   0  0  0  0  0  0  0  0  0  0  0  0
   36.9300   25.1200   37.6870 H   0  0  0  0  0  0  0  0  0  0  0  0
   36.7080   25.1220   40.3360 H   0  0  0  0  0  0  0  0  0  0  0  0
   37.1160   27.5000   41.2380 C   0  0  0  0  0  0  0  0  0  0  0  0
   36.6250   27.8150   42.4640 C   0  0  0  0  0  0  0  0  0  0  0  0
   35.5530   27.9140   42.4920 H   0  0  0  0  0  0  0  0  0  0  0  0
   37.4850   27.9700   43.5140 C   0  0  0  0  0  3  0  0  0  0  0  0
   38.8600   27.8220   43.3860 C   0  0  0  0  0  3  0  0  0  0  0  0
   38.9700   27.4040   41.5360 S   0  0  0  0  0  0  0  0  0  0  0  0
   37.2100   29.0890   38.5580 C   0  0  0  0  0  0  0  0  0  0  0  0
   37.9950   29.2350   39.3390 H   0  0  0  0  0  0  0  0  0  0  0  0
   37.8060   28.9070   37.6230 H   0  0  0  0  0  0  0  0  0  0  0  0
   36.5980   30.4570   38.3590 C   0  0  0  0  0  0  0  0  0  0  0  0
   36.9130   30.7800   37.3320 H   0  0  0  0  0  0  0  0  0  0  0  0
   35.5270   30.5230   38.3470 H   0  0  0  0  0  0  0  0  0  0  0  0
   37.3180   31.3970   39.2430 C   0  0  0  0  0  0  0  0  0  0  0  0
   37.1940   32.7570   39.0960 C   0  0  0  0  0  0  0  0  0  0  0  0
   37.8900   33.6230   39.9470 C   0  0  0  0  0  0  0  0  0  0  0  0
   38.6730   33.0380   40.8990 N   0  0  0  0  0  0  0  0  0  0  0  0
   38.7700   31.7190   41.0140 C   0  0  0  0  0  0  0  0  0  0  0  0
   38.0970   30.9230   40.1910 N   0  0  0  0  0  0  0  0  0  0  0  0
   36.5790   33.1980   38.3490 H   0  0  0  0  0  0  0  0  0  0  0  0
   37.8270   34.7000   39.8750 H   0  0  0  0  0  0  0  0  0  0  0  0
   39.3970   31.2360   41.7750 H   0  0  0  0  0  0  0  0  0  0  0  0
  1  6  1  0  0  0  0
  2  7  1  0  0  0  0
  2  1  1  0  0  0  0
  3  4  1  0  0  0  0
  3  2  1  0  0  0  0
  4 11  1  0  0  0  0
  4  5  1  0  0  0  0
  5  6  2  0  0  0  0
  5 13  1  0  0  0  0
  6 14  1  0  0  0  0
  8  2  1  0  0  0  0
  9  3  1  0  0  0  0
 10  3  1  0  0  0  0
 12  4  1  0  0  0  0
 14 19  1  0  0  0  0
 14 15  2  0  0  0  0
 15 16  1  0  0  0  0
 15 17  1  0  0  0  0
 18 17  2  0  0  0  0
 19 18  1  0  0  0  0
 20  1  1  0  0  0  0
 20 21  1  0  0  0  0
 22 20  1  0  0  0  0
 23 20  1  0  0  0  0
 23 26  1  0  0  0  0
 24 23  1  0  0  0  0
 25 23  1  0  0  0  0
 26 31  1  0  0  0  0
 27 26  2  0  0  0  0
 27 28  1  0  0  0  0
 28 29  2  0  0  0  0
 29 30  1  0  0  0  0
 30 34  1  0  0  0  0
 31 30  2  0  0  0  0
 32 27  1  0  0  0  0
 33 28  1  0  0  0  0
M  END
>  <minimizedAffinity>
-4.61455011

$$$$

 OpenBabel03252507013D

 34 36  0  0  0  0  0  0  0  0999 V2000
   38.8940   27.7220   41.5740 N   0  0  0  0  0  0  0  0  0  0  0  0
   39.5420   28.3230   42.6860 C   0  0  0  0  0  0  0  0  0  0  0  0
   38.4200   29.2150   43.2430 C   0  0  0  0  0  0  0  0  0  0  0  0
   37.1970   28.4590   43.6160 C   0  0  0  0  0  0  0  0  0  0  0  0
   37.0160   27.0930   43.0320 C   0  0  0  0  0  0  0  0  0  0  0  0
   37.9220   26.7150   41.9170 C   0  0  0  0  0  0  0  0  0  0  0  0
   39.7620   27.6090   43.4750 H   0  0  0  0  0  0  0  0  0  0  0  0
   40.4340   28.9030   42.5330 H   0  0  0  0  0  0  0  0  0  0  0  0
   38.8370   29.7060   44.1420 H   0  0  0  0  0  0  0  0  0  0  0  0
   38.2510   30.0270   42.5060 H   0  0  0  0  0  0  0  0  0  0  0  0
   37.1340   28.3180   44.7070 H   0  0  0  0  0  0  0  0  0  0  0  0
   36.3160   29.0530   43.2890 H   0  0  0  0  0  0  0  0  0  0  0  0
   36.2870   26.3950   43.3300 H   0  0  0  0  0  0  0  0  0  0  0  0
   37.6480   25.4830   41.3430 C   0  0  0  0  0  0  0  0  0  0  0  0
   36.6530   24.9220   40.6100 C   0  0  0  0  0  0  0  0  0  0  0  0
   35.8420   25.5960   40.3890 H   0  0  0  0  0  0  0  0  0  0  0  0
   36.7530   23.6150   40.2280 C   0  0  0  0  0  3  0  0  0  0  0  0
   37.8400   22.8170   40.5590 C   0  0  0  0  0  3  0  0  0  0  0  0
   38.8720   24.0700   41.5450 S   0  0  0  0  0  0  0  0  0  0  0  0
   38.9110   28.1310   40.2880 C   0  0  0  0  0  0  0  0  0  0  0  0
   39.7000   28.8920   40.0770 H   0  0  0  0  0  0  0  0  0  0  0  0
   39.0670   27.3650   39.4810 H   0  0  0  0  0  0  0  0  0  0  0  0
   37.6080   28.8070   39.9240 C   0  0  0  0  0  0  0  0  0  0  0  0
   37.3770   28.4700   38.8780 H   0  0  0  0  0  0  0  0  0  0  0  0
   36.7370   28.5410   40.4920 H   0  0  0  0  0  0  0  0  0  0  0  0
   37.8880   30.2480   39.7600 C   0  0  0  0  0  0  0  0  0  0  0  0
   36.9940   31.2030   40.1760 C   0  0  0  0  0  0  0  0  0  0  0  0
   37.2850   32.5620   40.0050 C   0  0  0  0  0  0  0  0  0  0  0  0
   38.4800   32.8560   39.4150 N   0  0  0  0  0  0  0  0  0  0  0  0
   39.3220   31.9070   39.0240 C   0  0  0  0  0  0  0  0  0  0  0  0
   39.0160   30.6270   39.2000 N   0  0  0  0  0  0  0  0  0  0  0  0
   36.0660   30.9580   40.6350 H   0  0  0  0  0  0  0  0  0  0  0  0
   36.6170   33.3540   40.3150 H   0  0  0  0  0  0  0  0  0  0  0  0
   40.2850   32.1300   38.5480 H   0  0  0  0  0  0  0  0  0  0  0  0
  1  6  1  0  0  0  0
  1  2  1  0  0  0  0
  2  3  1  0  0  0  0
  2  7  1  0  0  0  0
  3  4  1  0  0  0  0
  3  9  1  0  0  0  0
  4 11  1  0  0  0  0
  5 13  1  0  0  0  0
  5  4  1  0  0  0  0
  6  5  2  0  0  0  0
  8  2  1  0  0  0  0
 10  3  1  0  0  0  0
 12  4  1  0  0  0  0
 14 19  1  0  0  0  0
 14  6  1  0  0  0  0
 15 14  2  0  0  0  0
 16 15  1  0  0  0  0
 17 18  2  0  0  0  0
 17 15  1  0  0  0  0
 18 19  1  0  0  0  0
 20  1  1  0  0  0  0
 21 20  1  0  0  0  0
 22 20  1  0  0  0  0
 23 20  1  0  0  0  0
 23 25  1  0  0  0  0
 24 23  1  0  0  0  0
 26 23  1  0  0  0  0
 26 27  1  0  0  0  0
 27 32  1  0  0  0  0
 28 27  2  0  0  0  0
 28 33  1  0  0  0  0
 29 28  1  0  0  0  0
 30 31  1  0  0  0  0
 30 29  2  0  0  0  0
 31 26  2  0  0  0  0
 34 30  1  0  0  0  0
M  END
>  <minimizedAffinity>
-4.60727119

$$$$

 OpenBabel03252507013D

 34 36  0  0  0  0  0  0  0  0999 V2000
   36.6490   25.2570   39.9160 N   0  0  0  0  0  0  0  0  0  0  0  0
   35.9080   24.0580   39.7400 C   0  0  0  0  0  0  0  0  0  0  0  0
   37.0370   23.0250   39.5840 C   0  0  0  0  0  0  0  0  0  0  0  0
   37.9560   22.9790   40.7490 C   0  0  0  0  0  0  0  0  0  0  0  0
   37.9720   24.1560   41.6730 C   0  0  0  0  0  0  0  0  0  0  0  0
   37.2830   25.3860   41.2030 C   0  0  0  0  0  0  0  0  0  0  0  0
   35.3690   23.7650   40.6360 H   0  0  0  0  0  0  0  0  0  0  0  0
   35.2160   23.9750   38.9200 H   0  0  0  0  0  0  0  0  0  0  0  0
   36.5410   22.0440   39.4670 H   0  0  0  0  0  0  0  0  0  0  0  0
   37.5350   23.2290   38.6130 H   0  0  0  0  0  0  0  0  0  0  0  0
   37.7400   22.1100   41.3920 H   0  0  0  0  0  0  0  0  0  0  0  0
   38.9930   22.8770   40.3620 H   0  0  0  0  0  0  0  0  0  0  0  0
   38.4510   24.1890   42.6100 H   0  0  0  0  0  0  0  0  0  0  0  0
   37.4130   26.4780   42.0470 C   0  0  0  0  0  0  0  0  0  0  0  0
   36.7210   27.0360   43.0740 C   0  0  0  0  0  0  0  0  0  0  0  0
   35.8230   26.5010   43.3350 H   0  0  0  0  0  0  0  0  0  0  0  0
   37.1940   28.1720   43.6660 C   0  0  0  0  0  3  0  0  0  0  0  0
   38.3670   28.7960   43.2630 C   0  0  0  0  0  3  0  0  0  0  0  0
   38.8860   27.6310   41.8550 S   0  0  0  0  0  0  0  0  0  0  0  0
   37.0100   26.1520   38.9730 C   0  0  0  0  0  0  0  0  0  0  0  0
   37.8570   26.8080   39.2890 H   0  0  0  0  0  0  0  0  0  0  0  0
   37.3360   25.7730   37.9670 H   0  0  0  0  0  0  0  0  0  0  0  0
   35.8720   27.1010   38.6720 C   0  0  0  0  0  0  0  0  0  0  0  0
   35.9050   27.2660   37.5630 H   0  0  0  0  0  0  0  0  0  0  0  0
   34.8740   26.7550   38.8650 H   0  0  0  0  0  0  0  0  0  0  0  0
   36.2410   28.4230   39.2200 C   0  0  0  0  0  0  0  0  0  0  0  0
   35.5050   29.0160   40.2170 C   0  0  0  0  0  0  0  0  0  0  0  0
   35.8770   30.2700   40.7140 C   0  0  0  0  0  0  0  0  0  0  0  0
   36.9840   30.8400   40.1570 N   0  0  0  0  0  0  0  0  0  0  0  0
   37.6740   30.2390   39.1940 C   0  0  0  0  0  0  0  0  0  0  0  0
   37.2940   29.0480   38.7420 N   0  0  0  0  0  0  0  0  0  0  0  0
   34.6440   28.5590   40.6420 H   0  0  0  0  0  0  0  0  0  0  0  0
   35.3340   30.7810   41.4980 H   0  0  0  0  0  0  0  0  0  0  0  0
   38.5650   30.6860   38.7370 H   0  0  0  0  0  0  0  0  0  0  0  0
  1  6  1  0  0  0  0
  2  1  1  0  0  0  0
  2  7  1  0  0  0  0
  3  2  1  0  0  0  0
  3  4  1  0  0  0  0
  4 11  1  0  0  0  0
  4  5  1  0  0  0  0
  5 13  1  0  0  0  0
  6  5  2  0  0  0  0
  6 14  1  0  0  0  0
  8  2  1  0  0  0  0
  9  3  1  0  0  0  0
 10  3  1  0  0  0  0
 12  4  1  0  0  0  0
 14 15  2  0  0  0  0
 15 16  1  0  0  0  0
 15 17  1  0  0  0  0
 18 17  2  0  0  0  0
 19 14  1  0  0  0  0
 19 18  1  0  0  0  0
 20 21  1  0  0  0  0
 20  1  1  0  0  0  0
 22 20  1  0  0  0  0
 23 25  1  0  0  0  0
 23 20  1  0  0  0  0
 23 26  1  0  0  0  0
 24 23  1  0  0  0  0
 26 27  1  0  0  0  0
 27 32  1  0  0  0  0
 27 28  2  0  0  0  0
 28 33  1  0  0  0  0
 29 28  1  0  0  0  0
 30 29  2  0  0  0  0
 31 30  1  0  0  0  0
 31 26  2  0  0  0  0
 34 30  1  0  0  0  0
M  END
>  <minimizedAffinity>
-4.6053381

$$$$

 OpenBabel03252507013D

 34 36  0  0  0  0  0  0  0  0999 V2000
   37.0620   29.6650   40.9290 N   0  0  0  0  0  0  0  0  0  0  0  0
   36.1990   30.7870   41.0570 C   0  0  0  0  0  0  0  0  0  0  0  0
   36.9860   31.8620   40.2900 C   0  0  0  0  0  0  0  0  0  0  0  0
   37.2610   31.4940   38.8770 C   0  0  0  0  0  0  0  0  0  0  0  0
   37.1660   30.0480   38.5020 C   0  0  0  0  0  0  0  0  0  0  0  0
   37.0810   29.0700   39.6170 C   0  0  0  0  0  0  0  0  0  0  0  0
   35.2700   30.6620   40.5100 H   0  0  0  0  0  0  0  0  0  0  0  0
   35.9380   31.1490   42.0360 H   0  0  0  0  0  0  0  0  0  0  0  0
   36.3640   32.7760   40.3160 H   0  0  0  0  0  0  0  0  0  0  0  0
   37.8910   32.0960   40.8880 H   0  0  0  0  0  0  0  0  0  0  0  0
   36.5780   32.0170   38.1890 H   0  0  0  0  0  0  0  0  0  0  0  0
   38.3020   31.8060   38.6400 H   0  0  0  0  0  0  0  0  0  0  0  0
   37.1800   29.6720   37.5190 H   0  0  0  0  0  0  0  0  0  0  0  0
   37.0990   27.7410   39.2220 C   0  0  0  0  0  0  0  0  0  0  0  0
   36.1990   26.7390   39.0500 C   0  0  0  0  0  0  0  0  0  0  0  0
   35.1820   27.0250   39.2600 H   0  0  0  0  0  0  0  0  0  0  0  0
   36.6320   25.5100   38.6400 C   0  0  0  0  0  3  0  0  0  0  0  0
   37.9690   25.2290   38.3900 C   0  0  0  0  0  3  0  0  0  0  0  0
   38.7330   26.9240   38.7810 S   0  0  0  0  0  0  0  0  0  0  0  0
   38.0090   29.2470   41.7960 C   0  0  0  0  0  0  0  0  0  0  0  0
   38.7760   28.5860   41.3260 H   0  0  0  0  0  0  0  0  0  0  0  0
   38.6250   30.0180   42.3340 H   0  0  0  0  0  0  0  0  0  0  0  0
   37.3960   28.4130   42.8970 C   0  0  0  0  0  0  0  0  0  0  0  0
   37.7000   28.9100   43.8560 H   0  0  0  0  0  0  0  0  0  0  0  0
   36.3240   28.3670   42.9450 H   0  0  0  0  0  0  0  0  0  0  0  0
   38.1240   27.1280   42.9370 C   0  0  0  0  0  0  0  0  0  0  0  0
   39.2800   26.9820   43.6630 C   0  0  0  0  0  0  0  0  0  0  0  0
   39.9500   25.7530   43.6800 C   0  0  0  0  0  0  0  0  0  0  0  0
   39.3890   24.7470   42.9480 N   0  0  0  0  0  0  0  0  0  0  0  0
   38.2690   24.9220   42.2570 C   0  0  0  0  0  0  0  0  0  0  0  0
   37.6570   26.1010   42.2610 N   0  0  0  0  0  0  0  0  0  0  0  0
   39.7050   27.7760   44.2290 H   0  0  0  0  0  0  0  0  0  0  0  0
   40.8630   25.5840   44.2350 H   0  0  0  0  0  0  0  0  0  0  0  0
   37.8080   24.1210   41.6650 H   0  0  0  0  0  0  0  0  0  0  0  0
  1  2  1  0  0  0  0
  1 20  1  0  0  0  0
  2  8  1  0  0  0  0
  3  9  1  0  0  0  0
  3 10  1  0  0  0  0
  3  2  1  0  0  0  0
  4  3  1  0  0  0  0
  5  4  1  0  0  0  0
  5  6  2  0  0  0  0
  6  1  1  0  0  0  0
  7  2  1  0  0  0  0
 11  4  1  0  0  0  0
 12  4  1  0  0  0  0
 13  5  1  0  0  0  0
 14  6  1  0  0  0  0
 15 14  2  0  0  0  0
 15 16  1  0  0  0  0
 17 15  1  0  0  0  0
 18 17  2  0  0  0  0
 18 19  1  0  0  0  0
 19 14  1  0  0  0  0
 20 22  1  0  0  0  0
 20 23  1  0  0  0  0
 21 20  1  0  0  0  0
 23 26  1  0  0  0  0
 23 25  1  0  0  0  0
 23 24  1  0  0  0  0
 26 27  1  0  0  0  0
 27 28  2  0  0  0  0
 27 32  1  0  0  0  0
 28 33  1  0  0  0  0
 29 28  1  0  0  0  0
 30 31  1  0  0  0  0
 30 29  2  0  0  0  0
 31 26  2  0  0  0  0
 34 30  1  0  0  0  0
M  END
>  <minimizedAffinity>
-4.57461739

$$$$
