
 OpenBabel03252505193D

 31 34  0  0  0  0  0  0  0  0999 V2000
   44.5840   35.9870   44.4970 C   0  0  0  0  0  0  0  0  0  0  0  0
   45.2260   35.9860   43.2630 C   0  0  0  0  0  0  0  0  0  0  0  0
   46.1080   34.9530   43.0430 C   0  0  0  0  0  0  0  0  0  0  0  0
   46.3260   33.9900   44.0010 N   0  0  0  0  0  0  0  0  0  0  0  0
   45.6590   34.0450   45.2010 C   0  0  0  0  0  0  0  0  0  0  0  0
   44.7910   35.0460   45.4410 N   0  0  0  0  0  0  0  0  0  0  0  0
   43.8850   36.8150   44.6590 H   0  0  0  0  0  0  0  0  0  0  0  0
   45.0630   36.7330   42.5070 H   0  0  0  0  0  0  0  0  0  0  0  0
   45.8990   32.9990   46.1860 C   0  0  0  0  0  0  0  0  0  0  0  0
   45.3010   33.0670   47.4130 C   0  0  0  0  0  0  0  0  0  0  0  0
   45.5100   32.0780   48.3600 C   0  0  0  0  0  0  0  0  0  0  0  0
   46.3350   31.0290   48.0270 C   0  0  0  0  0  0  0  0  0  0  0  0
   46.9080   31.0110   46.7800 C   0  0  0  0  0  0  0  0  0  0  0  0
   46.7140   31.9680   45.8470 N   0  0  0  0  0  0  0  0  0  0  0  0
   44.6650   33.8930   47.6490 H   0  0  0  0  0  0  0  0  0  0  0  0
   45.0580   32.1070   49.3230 H   0  0  0  0  0  0  0  0  0  0  0  0
   46.4910   30.2670   48.7660 H   0  0  0  0  0  0  0  0  0  0  0  0
   47.7830   29.9320   46.3770 C   0  0  0  0  0  0  0  0  0  0  0  0
   48.7010   29.6460   45.3460 C   0  0  0  0  0  0  0  0  0  0  0  0
   48.7340   30.4920   44.6930 H   0  0  0  0  0  0  0  0  0  0  0  0
   49.3320   28.4460   45.3610 C   0  0  0  0  0  3  0  0  0  0  0  0
   49.0980   27.4780   46.3710 C   0  0  0  0  0  3  0  0  0  0  0  0
   47.8190   28.3900   47.4390 S   0  0  0  0  0  0  0  0  0  0  0  0
   46.8430   34.8260   41.7330 C   0  0  0  0  0  0  0  0  0  0  0  0
   48.2440   35.4380   41.8140 C   0  0  0  0  0  0  0  0  0  0  0  0
   47.9580   33.9190   41.6500 C   0  0  0  0  0  0  0  0  0  0  0  0
   46.2770   35.0900   40.8140 H   0  0  0  0  0  0  0  0  0  0  0  0
   48.6380   35.7670   42.7730 H   0  0  0  0  0  0  0  0  0  0  0  0
   48.5600   35.9790   40.9260 H   0  0  0  0  0  0  0  0  0  0  0  0
   48.1950   33.3280   42.5810 H   0  0  0  0  0  0  0  0  0  0  0  0
   48.3560   33.4500   40.7580 H   0  0  0  0  0  0  0  0  0  0  0  0
  1  7  1  0  0  0  0
  1  6  1  0  0  0  0
  2  1  2  0  0  0  0
  3  2  1  0  0  0  0
  3  4  2  0  0  0  0
  4  5  1  0  0  0  0
  5  6  2  0  0  0  0
  5  9  1  0  0  0  0
  8  2  1  0  0  0  0
  9 10  1  0  0  0  0
 10 15  1  0  0  0  0
 10 11  2  0  0  0  0
 11 16  1  0  0  0  0
 12 11  1  0  0  0  0
 12 17  1  0  0  0  0
 13 12  2  0  0  0  0
 14  9  2  0  0  0  0
 14 13  1  0  0  0  0
 18 13  1  0  0  0  0
 18 23  1  0  0  0  0
 19 21  1  0  0  0  0
 19 18  2  0  0  0  0
 20 19  1  0  0  0  0
 21 22  2  0  0  0  0
 22 23  1  0  0  0  0
 24 25  1  0  0  0  0
 24  3  1  0  0  0  0
 25 28  1  0  0  0  0
 26 24  1  0  0  0  0
 26 25  1  0  0  0  0
 26 30  1  0  0  0  0
 27 24  1  0  0  0  0
 29 25  1  0  0  0  0
 31 26  1  0  0  0  0
M  END
>  <minimizedAffinity>
-5.43439293

>  <minimizedRMSD>
0.7763623

$$$$
