
 OpenBabel03242517073D

 31 33  0  0  1  0  0  0  0  0999 V2000
   46.3310   33.9140   43.2060 C   0  0  2  0  0  0  0  0  0  0  0  0
   45.7440   35.0460   42.4570 C   0  0  2  0  0  0  0  0  0  0  0  0
   45.4130   36.2160   43.3420 C   0  0  0  0  0  0  0  0  0  0  0  0
   44.5540   35.8530   44.5270 C   0  0  0  0  0  0  0  0  0  0  0  0
   44.9710   34.5780   45.1970 C   0  0  0  0  0  0  0  0  0  0  0  0
   46.3190   34.0960   44.7160 C   0  0  0  0  0  0  0  0  0  0  0  0
   45.8030   32.9230   43.0700 H   0  0  0  0  0  0  0  0  0  0  0  0
   46.5480   35.4630   41.7680 H   0  0  0  0  0  0  0  0  0  0  0  0
   46.2610   36.7810   43.7290 H   0  0  0  0  0  0  0  0  0  0  0  0
   44.8130   36.9390   42.7440 H   0  0  0  0  0  0  0  0  0  0  0  0
   43.4780   35.7970   44.2560 H   0  0  0  0  0  0  0  0  0  0  0  0
   44.6310   36.6570   45.2900 H   0  0  0  0  0  0  0  0  0  0  0  0
   44.2520   33.7450   45.0610 H   0  0  0  0  0  0  0  0  0  0  0  0
   45.0370   34.6930   46.3090 H   0  0  0  0  0  0  0  0  0  0  0  0
   46.5310   33.1410   45.1970 H   0  0  0  0  0  0  0  0  0  0  0  0
   47.0620   34.8700   45.0340 H   0  0  0  0  0  0  0  0  0  0  0  0
   47.7370   33.6720   42.8180 C   0  0  0  0  0  0  0  0  0  0  0  0
   48.5570   34.8380   42.7400 C   0  0  0  0  0  0  0  0  0  0  0  0
   49.8990   34.7070   42.3700 C   0  0  0  0  0  0  0  0  0  0  0  0
   50.3460   33.4360   42.1020 N   0  0  0  0  0  0  0  0  0  0  0  0
   49.5400   32.3460   42.1870 C   0  0  0  0  0  0  0  0  0  0  0  0
   48.2560   32.4770   42.5400 N   0  0  0  0  0  0  0  0  0  0  0  0
   48.2960   35.8460   42.9350 H   0  0  0  0  0  0  0  0  0  0  0  0
   50.5820   35.5400   42.2880 H   0  0  0  0  0  0  0  0  0  0  0  0
   49.9620   31.3790   41.9620 H   0  0  0  0  0  0  0  0  0  0  0  0
   44.5700   34.6610   41.6620 C   0  0  0  0  0  0  0  0  0  0  0  0
   43.5580   35.3850   40.9690 C   0  0  0  0  0  0  0  0  0  0  0  0
   43.5800   36.4580   40.9790 H   0  0  0  0  0  0  0  0  0  0  0  0
   42.6110   34.6510   40.3300 C   0  0  0  0  0  0  0  0  0  0  0  0
   42.5990   33.2450   40.3290 C   0  0  0  0  0  0  0  0  0  0  0  0
   44.1420   32.8920   41.3810 S   0  0  0  0  0  0  0  0  0  0  0  0
  1  7  1  6  0  0  0
  1  6  1  0  0  0  0
  2  8  1  6  0  0  0
  2  1  1  0  0  0  0
  2  3  1  0  0  0  0
  3  9  1  0  0  0  0
  3  4  1  0  0  0  0
  4  5  1  0  0  0  0
  4 12  1  0  0  0  0
  5 14  1  0  0  0  0
  6 16  1  0  0  0  0
  6 15  1  0  0  0  0
  6  5  1  0  0  0  0
 10  3  1  0  0  0  0
 11  4  1  0  0  0  0
 13  5  1  0  0  0  0
 17  1  1  0  0  0  0
 18 17  1  0  0  0  0
 18 23  1  0  0  0  0
 19 18  2  0  0  0  0
 20 21  2  0  0  0  0
 20 19  1  0  0  0  0
 21 22  1  0  0  0  0
 22 17  2  0  0  0  0
 24 19  1  0  0  0  0
 25 21  1  0  0  0  0
 26  2  1  0  0  0  0
 27 28  1  0  0  0  0
 27 26  2  0  0  0  0
 29 27  1  0  0  0  0
 30 29  2  0  0  0  0
 30 31  1  0  0  0  0
 31 26  1  0  0  0  0
M  END
>  <minimizedAffinity>
-4.94621325

>  <minimizedRMSD>
2.34815764

$$$$
