
 OpenBabel03252505253D

 40 43  0  0  1  0  0  0  0  0999 V2000
   46.9190   31.3470   44.7810 F   0  0  0  0  0  0  0  0  0  0  0  0
   47.6610   30.4170   45.4560 C   0  0  0  0  0  0  0  0  0  0  0  0
   48.6880   29.8150   44.7900 C   0  0  0  0  0  0  0  0  0  0  0  0
   49.4340   28.8820   45.4620 C   0  0  0  0  0  0  0  0  0  0  0  0
   49.1300   28.5820   46.7760 C   0  0  0  0  0  0  0  0  0  0  0  0
   48.1070   29.1800   47.4460 C   0  0  0  0  0  0  0  0  0  0  0  0
   47.3470   30.1360   46.7470 C   0  0  0  0  0  0  0  0  0  0  0  0
   50.2630   28.3690   44.9890 H   0  0  0  0  0  0  0  0  0  0  0  0
   49.7270   27.8420   47.3000 H   0  0  0  0  0  0  0  0  0  0  0  0
   47.8750   28.9410   48.4710 H   0  0  0  0  0  0  0  0  0  0  0  0
   46.2880   30.7350   47.4850 N   0  0  0  0  0  0  0  0  0  0  0  0
   44.9930   30.2330   47.8550 C   0  0  0  0  0  0  0  0  0  0  0  0
   44.9330   30.5460   49.3640 C   0  0  0  0  0  0  0  0  0  0  0  0
   45.9140   31.6850   49.5290 C   0  0  0  0  0  0  0  0  0  0  0  0
   46.2070   32.0600   48.0930 C   0  0  2  0  0  0  0  0  0  0  0  0
   44.1780   30.7010   47.3010 H   0  0  0  0  0  0  0  0  0  0  0  0
   45.0040   29.1360   47.6980 H   0  0  0  0  0  0  0  0  0  0  0  0
   43.8930   30.8760   49.5580 H   0  0  0  0  0  0  0  0  0  0  0  0
   45.2080   29.6700   49.9740 H   0  0  0  0  0  0  0  0  0  0  0  0
   46.8180   31.3390   50.0300 H   0  0  0  0  0  0  0  0  0  0  0  0
   45.4980   32.5300   50.1060 H   0  0  0  0  0  0  0  0  0  0  0  0
   47.2200   32.4860   48.0700 H   0  0  0  0  0  0  0  0  0  0  0  0
   45.1870   32.9460   47.4660 C   0  0  0  0  0  0  0  0  0  0  0  0
   44.1640   32.7020   47.8080 H   0  0  0  0  0  0  0  0  0  0  0  0
   45.3320   32.9350   46.3810 H   0  0  0  0  0  0  0  0  0  0  0  0
   45.3990   33.9810   47.8070 H   0  0  0  0  0  0  0  0  0  0  0  0
   49.5460   29.5190   41.2440 C   0  0  0  0  0  0  0  0  0  0  0  0
   49.5150   30.8320   40.7730 C   0  0  0  0  0  0  0  0  0  0  0  0
   49.1910   31.7920   41.7240 C   0  0  0  0  0  0  0  0  0  0  0  0
   48.9340   31.4260   42.9920 N   0  0  0  0  0  0  0  0  0  0  0  0
   48.9730   30.1570   43.4070 C   0  0  0  0  0  0  0  0  0  0  0  0
   49.2800   29.2180   42.5200 N   0  0  0  0  0  0  0  0  0  0  0  0
   49.8010   28.7990   40.4770 H   0  0  0  0  0  0  0  0  0  0  0  0
   49.6990   31.2290   39.8030 H   0  0  0  0  0  0  0  0  0  0  0  0
   49.0920   33.2030   41.5060 C   0  0  0  0  0  0  0  0  0  0  0  0
   49.7130   34.0810   42.3070 C   0  0  0  0  0  0  0  0  0  0  0  0
   50.3590   34.0290   43.1980 H   0  0  0  0  0  0  0  0  0  0  0  0
   49.7070   35.4340   42.2210 C   0  0  0  0  0  3  0  0  0  0  0  0
   48.8740   35.8740   41.0520 C   0  0  0  0  0  3  0  0  0  0  0  0
   48.2610   34.2190   40.3050 S   0  0  0  0  0  0  0  0  0  0  0  0
  1  2  1  0  0  0  0
  2  7  1  0  0  0  0
  3  2  2  0  0  0  0
  3  4  1  0  0  0  0
  4  5  2  0  0  0  0
  5  9  1  0  0  0  0
  5  6  1  0  0  0  0
  6 10  1  0  0  0  0
  7  6  2  0  0  0  0
  7 11  1  0  0  0  0
  8  4  1  0  0  0  0
 11 12  1  0  0  0  0
 11 15  1  0  0  0  0
 12 13  1  0  0  0  0
 13 14  1  0  0  0  0
 13 18  1  0  0  0  0
 13 19  1  0  0  0  0
 14 20  1  0  0  0  0
 14 21  1  0  0  0  0
 15 22  1  6  0  0  0
 15 14  1  0  0  0  0
 16 12  1  0  0  0  0
 17 12  1  0  0  0  0
 23 26  1  0  0  0  0
 23 24  1  0  0  0  0
 23 15  1  0  0  0  0
 25 23  1  0  0  0  0
 27 32  1  0  0  0  0
 28 27  2  0  0  0  0
 28 29  1  0  0  0  0
 29 30  2  0  0  0  0
 30 31  1  0  0  0  0
 31  3  1  0  0  0  0
 32 31  2  0  0  0  0
 33 27  1  0  0  0  0
 34 28  1  0  0  0  0
 35 29  1  0  0  0  0
 35 36  2  0  0  0  0
 36 37  1  0  0  0  0
 38 36  1  0  0  0  0
 39 38  2  0  0  0  0
 40 39  1  0  0  0  0
 40 35  1  0  0  0  0
M  END
>  <minimizedAffinity>
-4.9345293

>  <minimizedRMSD>
3.34815693

$$$$
