
 OpenBabel03252505363D

 30 32  0  0  0  0  0  0  0  0999 V2000
   45.0990   33.8210   46.0100 C   0  0  0  0  0  0  0  0  0  0  0  0
   45.8000   33.7860   44.7840 C   0  0  0  0  0  0  0  0  0  0  0  0
   46.9820   33.0840   44.7250 C   0  0  0  0  0  0  0  0  0  0  0  0
   47.4120   32.4640   45.8520 N   0  0  0  0  0  0  0  0  0  0  0  0
   46.7120   32.5220   47.0150 C   0  0  0  0  0  0  0  0  0  0  0  0
   45.5550   33.2000   47.0930 N   0  0  0  0  0  0  0  0  0  0  0  0
   47.2100   31.8770   48.1870 N   0  0  0  0  0  0  0  0  0  0  0  0
   44.1660   34.3620   46.0880 H   0  0  0  0  0  0  0  0  0  0  0  0
   46.6530   31.8150   49.0380 H   0  0  0  0  0  0  0  0  0  0  0  0
   48.1690   31.4520   48.1850 H   0  0  0  0  0  0  0  0  0  0  0  0
   47.7810   32.9680   43.5440 C   0  0  0  0  0  0  0  0  0  0  0  0
   48.5030   34.0920   43.1390 C   0  0  0  0  0  0  0  0  0  0  0  0
   49.3170   34.0770   42.0020 C   0  0  0  0  0  0  0  0  0  0  0  0
   49.4200   32.9330   41.2530 C   0  0  0  0  0  0  0  0  0  0  0  0
   48.7150   31.8450   41.6550 C   0  0  0  0  0  0  0  0  0  0  0  0
   47.9010   31.8400   42.7810 C   0  0  0  0  0  0  0  0  0  0  0  0
   48.4470   35.0280   43.7120 H   0  0  0  0  0  0  0  0  0  0  0  0
   49.8560   34.9830   41.7350 H   0  0  0  0  0  0  0  0  0  0  0  0
   50.0560   32.9490   40.3800 H   0  0  0  0  0  0  0  0  0  0  0  0
   48.8030   30.9440   41.0560 H   0  0  0  0  0  0  0  0  0  0  0  0
   47.1510   30.6380   43.1960 C   0  0  0  0  0  0  0  0  0  0  0  0
   47.2540   29.6910   42.1810 F   0  0  0  0  0  0  0  0  0  0  0  0
   45.8250   30.9690   43.4050 F   0  0  0  0  0  0  0  0  0  0  0  0
   47.5890   30.0720   44.3700 F   0  0  0  0  0  0  0  0  0  0  0  0
   45.2180   34.5380   43.7070 C   0  0  0  0  0  0  0  0  0  0  0  0
   45.1590   35.8870   43.3680 C   0  0  0  0  0  0  0  0  0  0  0  0
   45.6670   36.5160   44.0760 H   0  0  0  0  0  0  0  0  0  0  0  0
   44.4950   36.2330   42.2350 C   0  0  0  0  0  3  0  0  0  0  0  0
   43.9140   35.1990   41.4820 C   0  0  0  0  0  3  0  0  0  0  0  0
   44.3560   33.7030   42.4650 S   0  0  0  0  0  0  0  0  0  0  0  0
  1  8  1  0  0  0  0
  1  6  1  0  0  0  0
  2  1  2  0  0  0  0
  3  2  1  0  0  0  0
  3  4  2  0  0  0  0
  4  5  1  0  0  0  0
  5  6  2  0  0  0  0
  5  7  1  0  0  0  0
  7  9  1  0  0  0  0
 10  7  1  0  0  0  0
 11  3  1  0  0  0  0
 12 11  1  0  0  0  0
 12 17  1  0  0  0  0
 13 12  2  0  0  0  0
 14 15  2  0  0  0  0
 14 13  1  0  0  0  0
 15 16  1  0  0  0  0
 16 21  1  0  0  0  0
 16 11  2  0  0  0  0
 18 13  1  0  0  0  0
 19 14  1  0  0  0  0
 20 15  1  0  0  0  0
 21 23  1  0  0  0  0
 21 24  1  0  0  0  0
 22 21  1  0  0  0  0
 25  2  1  0  0  0  0
 26 25  2  0  0  0  0
 26 27  1  0  0  0  0
 28 26  1  0  0  0  0
 29 28  2  0  0  0  0
 29 30  1  0  0  0  0
 30 25  1  0  0  0  0
M  END
>  <minimizedAffinity>
-4.37689543

>  <minimizedRMSD>
3.28354478

$$$$
