
 OpenBabel03242516213D

 25 27  0  0  0  0  0  0  0  0999 V2000
   37.5380   28.2690   41.6290 C   0  0  0  0  0  0  0  0  0  0  0  0
   38.0360   29.5210   41.3900 C   0  0  0  0  0  0  0  0  0  0  0  0
   37.2750   30.5200   40.8120 C   0  0  0  0  0  0  0  0  0  0  0  0
   35.9730   30.3040   40.4480 C   0  0  0  0  0  0  0  0  0  0  0  0
   35.4500   29.0470   40.6800 C   0  0  0  0  0  0  0  0  0  0  0  0
   36.2190   28.0580   41.2560 C   0  0  0  0  0  0  0  0  0  0  0  0
   39.0770   29.6910   41.6820 H   0  0  0  0  0  0  0  0  0  0  0  0
   35.3880   31.0960   39.9960 H   0  0  0  0  0  0  0  0  0  0  0  0
   34.4190   28.8340   40.4040 H   0  0  0  0  0  0  0  0  0  0  0  0
   35.7990   27.0750   41.4340 H   0  0  0  0  0  0  0  0  0  0  0  0
   40.1140   26.6840   43.6800 C   0  0  0  0  0  0  0  0  0  0  0  0
   39.9340   25.3110   43.4320 C   0  0  0  0  0  0  0  0  0  0  0  0
   38.9150   24.9360   42.5500 C   0  0  0  0  0  0  0  0  0  0  0  0
   38.1500   25.9060   41.9770 N   0  0  0  0  0  0  0  0  0  0  0  0
   38.3500   27.2200   42.2380 C   0  0  0  0  0  0  0  0  0  0  0  0
   39.3300   27.5960   43.0860 N   0  0  0  0  0  0  0  0  0  0  0  0
   40.9060   26.9720   44.3640 H   0  0  0  0  0  0  0  0  0  0  0  0
   40.5810   24.5920   43.9230 H   0  0  0  0  0  0  0  0  0  0  0  0
   38.7590   23.8830   42.3450 H   0  0  0  0  0  0  0  0  0  0  0  0
   37.8650   31.7990   40.5950 C   0  0  0  0  0  0  0  0  0  0  0  0
   37.3290   32.9390   39.9950 C   0  0  0  0  0  0  0  0  0  0  0  0
   36.3160   32.8890   39.6250 H   0  0  0  0  0  0  0  0  0  0  0  0
   38.1310   34.0510   39.9180 C   0  0  0  0  0  3  0  0  0  0  0  0
   39.4200   33.9640   40.4410 C   0  0  0  0  0  3  0  0  0  0  0  0
   39.4920   32.2840   41.0500 S   0  0  0  0  0  0  0  0  0  0  0  0
  1 15  1  0  0  0  0
  2  1  1  0  0  0  0
  2  7  1  0  0  0  0
  3  2  2  0  0  0  0
  4  5  2  0  0  0  0
  4  3  1  0  0  0  0
  5  6  1  0  0  0  0
  6 10  1  0  0  0  0
  6  1  2  0  0  0  0
  8  4  1  0  0  0  0
  9  5  1  0  0  0  0
 11 17  1  0  0  0  0
 12 11  1  0  0  0  0
 12 18  1  0  0  0  0
 13 12  2  0  0  0  0
 14 15  2  0  0  0  0
 14 13  1  0  0  0  0
 15 16  1  0  0  0  0
 16 11  2  0  0  0  0
 19 13  1  0  0  0  0
 20  3  1  0  0  0  0
 20 25  1  0  0  0  0
 21 20  2  0  0  0  0
 22 21  1  0  0  0  0
 23 21  1  0  0  0  0
 23 24  2  0  0  0  0
 24 25  1  0  0  0  0
M  END
>  <minimizedAffinity>
-5.15301561

$$$$

 OpenBabel03242516213D

 25 27  0  0  0  0  0  0  0  0999 V2000
   37.6100   30.5730   40.8800 C   0  0  0  0  0  0  0  0  0  0  0  0
   38.2430   29.5010   41.4460 C   0  0  0  0  0  0  0  0  0  0  0  0
   37.5920   28.3060   41.6930 C   0  0  0  0  0  0  0  0  0  0  0  0
   36.2700   28.1370   41.3780 C   0  0  0  0  0  0  0  0  0  0  0  0
   35.6120   29.2080   40.8060 C   0  0  0  0  0  0  0  0  0  0  0  0
   36.2720   30.3950   40.5650 C   0  0  0  0  0  0  0  0  0  0  0  0
   39.2990   29.6380   41.6960 H   0  0  0  0  0  0  0  0  0  0  0  0
   35.7720   27.1950   41.5760 H   0  0  0  0  0  0  0  0  0  0  0  0
   34.5610   29.1140   40.5420 H   0  0  0  0  0  0  0  0  0  0  0  0
   35.7460   31.2290   40.1150 H   0  0  0  0  0  0  0  0  0  0  0  0
   40.3460   32.9790   40.5820 C   0  0  0  0  0  0  0  0  0  0  0  0
   39.7020   34.1600   40.1700 C   0  0  0  0  0  0  0  0  0  0  0  0
   38.3150   34.1200   39.9950 C   0  0  0  0  0  0  0  0  0  0  0  0
   37.6560   32.9520   40.2290 N   0  0  0  0  0  0  0  0  0  0  0  0
   38.3060   31.8310   40.6250 C   0  0  0  0  0  0  0  0  0  0  0  0
   39.6440   31.8560   40.7980 N   0  0  0  0  0  0  0  0  0  0  0  0
   41.4220   33.0140   40.7180 H   0  0  0  0  0  0  0  0  0  0  0  0
   40.2900   35.0560   40.0020 H   0  0  0  0  0  0  0  0  0  0  0  0
   37.7990   35.0190   39.6770 H   0  0  0  0  0  0  0  0  0  0  0  0
   38.3190   27.2330   42.2860 C   0  0  0  0  0  0  0  0  0  0  0  0
   39.2880   27.2590   43.2870 C   0  0  0  0  0  0  0  0  0  0  0  0
   39.5610   28.2160   43.7060 H   0  0  0  0  0  0  0  0  0  0  0  0
   39.8320   26.0580   43.6740 C   0  0  0  0  0  3  0  0  0  0  0  0
   39.3790   24.9020   43.0410 C   0  0  0  0  0  3  0  0  0  0  0  0
   38.1670   25.5280   41.8840 S   0  0  0  0  0  0  0  0  0  0  0  0
  1  2  1  0  0  0  0
  2  3  2  0  0  0  0
  2  7  1  0  0  0  0
  3 20  1  0  0  0  0
  4  8  1  0  0  0  0
  4  3  1  0  0  0  0
  5  4  2  0  0  0  0
  6  5  1  0  0  0  0
  6  1  2  0  0  0  0
  9  5  1  0  0  0  0
 10  6  1  0  0  0  0
 11 17  1  0  0  0  0
 11 16  1  0  0  0  0
 12 11  2  0  0  0  0
 13 12  1  0  0  0  0
 13 14  2  0  0  0  0
 14 15  1  0  0  0  0
 15 16  2  0  0  0  0
 15  1  1  0  0  0  0
 18 12  1  0  0  0  0
 19 13  1  0  0  0  0
 20 21  2  0  0  0  0
 21 23  1  0  0  0  0
 21 22  1  0  0  0  0
 24 23  2  0  0  0  0
 25 20  1  0  0  0  0
 25 24  1  0  0  0  0
M  END
>  <minimizedAffinity>
-5.03126335

$$$$

 OpenBabel03242516213D

 25 27  0  0  0  0  0  0  0  0999 V2000
   37.6180   29.4330   41.6960 C   0  0  0  0  0  0  0  0  0  0  0  0
   37.3430   28.3040   40.9740 C   0  0  0  0  0  0  0  0  0  0  0  0
   37.1590   27.0720   41.5730 C   0  0  0  0  0  0  0  0  0  0  0  0
   37.2440   26.9200   42.9310 C   0  0  0  0  0  0  0  0  0  0  0  0
   37.5220   28.0480   43.6800 C   0  0  0  0  0  0  0  0  0  0  0  0
   37.7040   29.2720   43.0700 C   0  0  0  0  0  0  0  0  0  0  0  0
   37.2750   28.4280   39.8890 H   0  0  0  0  0  0  0  0  0  0  0  0
   37.0980   25.9490   43.3880 H   0  0  0  0  0  0  0  0  0  0  0  0
   37.5980   27.9700   44.7620 H   0  0  0  0  0  0  0  0  0  0  0  0
   37.9210   30.1500   43.6660 H   0  0  0  0  0  0  0  0  0  0  0  0
   37.0150   32.3020   39.5120 C   0  0  0  0  0  0  0  0  0  0  0  0
   38.0970   33.1590   39.7880 C   0  0  0  0  0  0  0  0  0  0  0  0
   39.0370   32.7370   40.7350 C   0  0  0  0  0  0  0  0  0  0  0  0
   38.8660   31.5310   41.3410 N   0  0  0  0  0  0  0  0  0  0  0  0
   37.8120   30.7300   41.0530 C   0  0  0  0  0  0  0  0  0  0  0  0
   36.8980   31.1230   40.1410 N   0  0  0  0  0  0  0  0  0  0  0  0
   36.2880   32.6310   38.7770 H   0  0  0  0  0  0  0  0  0  0  0  0
   38.1710   34.1070   39.2670 H   0  0  0  0  0  0  0  0  0  0  0  0
   39.8780   33.3830   40.9620 H   0  0  0  0  0  0  0  0  0  0  0  0
   36.8750   25.9410   40.7540 C   0  0  0  0  0  0  0  0  0  0  0  0
   36.7570   24.5950   41.1010 C   0  0  0  0  0  0  0  0  0  0  0  0
   36.8930   24.3240   42.1370 H   0  0  0  0  0  0  0  0  0  0  0  0
   36.4730   23.7040   40.0950 C   0  0  0  0  0  3  0  0  0  0  0  0
   36.3240   24.2040   38.8030 C   0  0  0  0  0  3  0  0  0  0  0  0
   36.5890   25.9600   39.0200 S   0  0  0  0  0  0  0  0  0  0  0  0
  1  6  1  0  0  0  0
  2  3  1  0  0  0  0
  2  1  2  0  0  0  0
  3  4  2  0  0  0  0
  4  8  1  0  0  0  0
  4  5  1  0  0  0  0
  5  9  1  0  0  0  0
  6 10  1  0  0  0  0
  6  5  2  0  0  0  0
  7  2  1  0  0  0  0
 11 12  2  0  0  0  0
 11 16  1  0  0  0  0
 12 13  1  0  0  0  0
 13 19  1  0  0  0  0
 13 14  2  0  0  0  0
 15 14  1  0  0  0  0
 15  1  1  0  0  0  0
 16 15  2  0  0  0  0
 17 11  1  0  0  0  0
 18 12  1  0  0  0  0
 20 21  2  0  0  0  0
 20  3  1  0  0  0  0
 21 22  1  0  0  0  0
 23 21  1  0  0  0  0
 24 25  1  0  0  0  0
 24 23  2  0  0  0  0
 25 20  1  0  0  0  0
M  END
>  <minimizedAffinity>
-4.96848869

$$$$

 OpenBabel03242516213D

 25 27  0  0  0  0  0  0  0  0999 V2000
   37.3120   27.1350   41.5450 C   0  0  0  0  0  0  0  0  0  0  0  0
   37.4240   28.4000   41.0360 C   0  0  0  0  0  0  0  0  0  0  0  0
   37.8120   29.4760   41.8140 C   0  0  0  0  0  0  0  0  0  0  0  0
   38.1060   29.3260   43.1430 C   0  0  0  0  0  0  0  0  0  0  0  0
   37.9980   28.0560   43.6770 C   0  0  0  0  0  0  0  0  0  0  0  0
   37.6090   26.9910   42.8920 C   0  0  0  0  0  0  0  0  0  0  0  0
   37.1890   28.5180   39.9750 H   0  0  0  0  0  0  0  0  0  0  0  0
   38.4090   30.1770   43.7410 H   0  0  0  0  0  0  0  0  0  0  0  0
   38.2220   27.8940   44.7290 H   0  0  0  0  0  0  0  0  0  0  0  0
   37.5290   25.9990   43.3200 H   0  0  0  0  0  0  0  0  0  0  0  0
   36.5650   23.6950   40.5630 C   0  0  0  0  0  0  0  0  0  0  0  0
   36.1430   23.8180   39.2260 C   0  0  0  0  0  0  0  0  0  0  0  0
   36.1190   25.1000   38.6660 C   0  0  0  0  0  0  0  0  0  0  0  0
   36.4990   26.1600   39.4300 N   0  0  0  0  0  0  0  0  0  0  0  0
   36.9000   26.0060   40.7160 C   0  0  0  0  0  0  0  0  0  0  0  0
   36.9290   24.7760   41.2680 N   0  0  0  0  0  0  0  0  0  0  0  0
   36.5830   22.6990   40.9940 H   0  0  0  0  0  0  0  0  0  0  0  0
   35.8540   22.9300   38.6750 H   0  0  0  0  0  0  0  0  0  0  0  0
   35.7960   25.2170   37.6370 H   0  0  0  0  0  0  0  0  0  0  0  0
   37.9060   30.7650   41.2130 C   0  0  0  0  0  0  0  0  0  0  0  0
   36.9410   31.5030   40.5290 C   0  0  0  0  0  0  0  0  0  0  0  0
   35.9580   31.0710   40.4150 H   0  0  0  0  0  0  0  0  0  0  0  0
   37.3090   32.7350   40.0470 C   0  0  0  0  0  3  0  0  0  0  0  0
   38.6170   33.1610   40.2730 C   0  0  0  0  0  3  0  0  0  0  0  0
   39.3310   31.7950   41.1810 S   0  0  0  0  0  0  0  0  0  0  0  0
  1  6  1  0  0  0  0
  2  1  2  0  0  0  0
  2  3  1  0  0  0  0
  3  4  2  0  0  0  0
  4  5  1  0  0  0  0
  4  8  1  0  0  0  0
  5  9  1  0  0  0  0
  6 10  1  0  0  0  0
  6  5  2  0  0  0  0
  7  2  1  0  0  0  0
 11 17  1  0  0  0  0
 11 16  1  0  0  0  0
 12 11  2  0  0  0  0
 13 12  1  0  0  0  0
 13 14  2  0  0  0  0
 14 15  1  0  0  0  0
 15 16  2  0  0  0  0
 15  1  1  0  0  0  0
 18 12  1  0  0  0  0
 19 13  1  0  0  0  0
 20  3  1  0  0  0  0
 21 20  2  0  0  0  0
 22 21  1  0  0  0  0
 23 24  2  0  0  0  0
 23 21  1  0  0  0  0
 24 25  1  0  0  0  0
 25 20  1  0  0  0  0
M  END
>  <minimizedAffinity>
-4.92523003

$$$$

 OpenBabel03242516213D

 25 27  0  0  0  0  0  0  0  0999 V2000
   37.3130   29.0820   41.2160 C   0  0  0  0  0  0  0  0  0  0  0  0
   37.2830   27.7910   40.7640 C   0  0  0  0  0  0  0  0  0  0  0  0
   37.2830   26.7080   41.6240 C   0  0  0  0  0  0  0  0  0  0  0  0
   37.3120   26.8760   42.9820 C   0  0  0  0  0  0  0  0  0  0  0  0
   37.3440   28.1720   43.4610 C   0  0  0  0  0  0  0  0  0  0  0  0
   37.3450   29.2440   42.5930 C   0  0  0  0  0  0  0  0  0  0  0  0
   37.2590   27.6590   39.6780 H   0  0  0  0  0  0  0  0  0  0  0  0
   37.3110   26.0190   43.6450 H   0  0  0  0  0  0  0  0  0  0  0  0
   37.3690   28.3490   44.5330 H   0  0  0  0  0  0  0  0  0  0  0  0
   37.3690   30.2570   42.9780 H   0  0  0  0  0  0  0  0  0  0  0  0
   37.3530   32.5450   40.0500 C   0  0  0  0  0  0  0  0  0  0  0  0
   37.3180   32.4210   38.6490 C   0  0  0  0  0  0  0  0  0  0  0  0
   37.2810   31.1310   38.1090 C   0  0  0  0  0  0  0  0  0  0  0  0
   37.2800   30.0640   38.9540 N   0  0  0  0  0  0  0  0  0  0  0  0
   37.3150   30.2190   40.3000 C   0  0  0  0  0  0  0  0  0  0  0  0
   37.3500   31.4570   40.8340 N   0  0  0  0  0  0  0  0  0  0  0  0
   37.3810   33.5480   40.4660 H   0  0  0  0  0  0  0  0  0  0  0  0
   37.3200   33.3160   38.0350 H   0  0  0  0  0  0  0  0  0  0  0  0
   37.2540   31.0130   37.0320 H   0  0  0  0  0  0  0  0  0  0  0  0
   37.2500   25.3920   41.0770 C   0  0  0  0  0  0  0  0  0  0  0  0
   36.4710   24.8750   40.0430 C   0  0  0  0  0  0  0  0  0  0  0  0
   35.7720   25.5370   39.5530 H   0  0  0  0  0  0  0  0  0  0  0  0
   36.6470   23.5530   39.7170 C   0  0  0  0  0  3  0  0  0  0  0  0
   37.5880   22.8220   40.4390 C   0  0  0  0  0  3  0  0  0  0  0  0
   38.2300   24.0270   41.5940 S   0  0  0  0  0  0  0  0  0  0  0  0
  1  6  1  0  0  0  0
  2  1  2  0  0  0  0
  2  3  1  0  0  0  0
  3  4  2  0  0  0  0
  4  5  1  0  0  0  0
  4  8  1  0  0  0  0
  5  9  1  0  0  0  0
  6 10  1  0  0  0  0
  6  5  2  0  0  0  0
  7  2  1  0  0  0  0
 11 17  1  0  0  0  0
 11 16  1  0  0  0  0
 12 11  2  0  0  0  0
 13 12  1  0  0  0  0
 13 14  2  0  0  0  0
 14 15  1  0  0  0  0
 15 16  2  0  0  0  0
 15  1  1  0  0  0  0
 18 12  1  0  0  0  0
 19 13  1  0  0  0  0
 20 25  1  0  0  0  0
 20  3  1  0  0  0  0
 21 20  2  0  0  0  0
 22 21  1  0  0  0  0
 23 21  1  0  0  0  0
 23 24  2  0  0  0  0
 24 25  1  0  0  0  0
M  END
>  <minimizedAffinity>
-4.92309141

$$$$

 OpenBabel03242516213D

 25 27  0  0  0  0  0  0  0  0999 V2000
   37.3130   27.1370   41.5460 C   0  0  0  0  0  0  0  0  0  0  0  0
   37.4170   28.3990   41.0270 C   0  0  0  0  0  0  0  0  0  0  0  0
   37.8150   29.4800   41.7920 C   0  0  0  0  0  0  0  0  0  0  0  0
   38.1290   29.3390   43.1170 C   0  0  0  0  0  0  0  0  0  0  0  0
   38.0300   28.0730   43.6610 C   0  0  0  0  0  0  0  0  0  0  0  0
   37.6300   27.0020   42.8890 C   0  0  0  0  0  0  0  0  0  0  0  0
   37.1660   28.5090   39.9680 H   0  0  0  0  0  0  0  0  0  0  0  0
   38.4400   30.1940   43.7040 H   0  0  0  0  0  0  0  0  0  0  0  0
   38.2700   27.9180   44.7110 H   0  0  0  0  0  0  0  0  0  0  0  0
   37.5560   26.0130   43.3250 H   0  0  0  0  0  0  0  0  0  0  0  0
   36.0680   25.2560   38.6690 C   0  0  0  0  0  0  0  0  0  0  0  0
   36.0700   23.9240   39.1220 C   0  0  0  0  0  0  0  0  0  0  0  0
   36.5040   23.6800   40.4290 C   0  0  0  0  0  0  0  0  0  0  0  0
   36.9020   24.7300   41.1980 N   0  0  0  0  0  0  0  0  0  0  0  0
   36.8890   26.0020   40.7310 C   0  0  0  0  0  0  0  0  0  0  0  0
   36.4720   26.2520   39.4720 N   0  0  0  0  0  0  0  0  0  0  0  0
   35.7300   25.4430   37.6550 H   0  0  0  0  0  0  0  0  0  0  0  0
   35.7390   23.1350   38.4550 H   0  0  0  0  0  0  0  0  0  0  0  0
   36.5130   22.6600   40.7970 H   0  0  0  0  0  0  0  0  0  0  0  0
   37.9000   30.7640   41.1800 C   0  0  0  0  0  0  0  0  0  0  0  0
   36.9440   31.4700   40.4500 C   0  0  0  0  0  0  0  0  0  0  0  0
   35.9780   31.0110   40.3010 H   0  0  0  0  0  0  0  0  0  0  0  0
   37.2990   32.7060   39.9690 C   0  0  0  0  0  3  0  0  0  0  0  0
   38.5850   33.1690   40.2420 C   0  0  0  0  0  3  0  0  0  0  0  0
   39.2970   31.8320   41.1940 S   0  0  0  0  0  0  0  0  0  0  0  0
  1  6  1  0  0  0  0
  2  1  2  0  0  0  0
  2  3  1  0  0  0  0
  3  4  2  0  0  0  0
  4  5  1  0  0  0  0
  4  8  1  0  0  0  0
  5  9  1  0  0  0  0
  6 10  1  0  0  0  0
  6  5  2  0  0  0  0
  7  2  1  0  0  0  0
 11 12  2  0  0  0  0
 11 16  1  0  0  0  0
 12 13  1  0  0  0  0
 13 19  1  0  0  0  0
 13 14  2  0  0  0  0
 15 14  1  0  0  0  0
 15  1  1  0  0  0  0
 16 15  2  0  0  0  0
 17 11  1  0  0  0  0
 18 12  1  0  0  0  0
 20 25  1  0  0  0  0
 20  3  1  0  0  0  0
 21 20  2  0  0  0  0
 22 21  1  0  0  0  0
 23 24  2  0  0  0  0
 23 21  1  0  0  0  0
 24 25  1  0  0  0  0
M  END
>  <minimizedAffinity>
-4.90639973

$$$$

 OpenBabel03242516213D

 25 27  0  0  0  0  0  0  0  0999 V2000
   38.2510   29.4570   42.0860 C   0  0  0  0  0  0  0  0  0  0  0  0
   39.4760   28.8920   42.3100 C   0  0  0  0  0  0  0  0  0  0  0  0
   39.6350   27.7570   43.0840 C   0  0  0  0  0  0  0  0  0  0  0  0
   38.5630   27.1370   43.6680 C   0  0  0  0  0  0  0  0  0  0  0  0
   37.3160   27.6920   43.4550 C   0  0  0  0  0  0  0  0  0  0  0  0
   37.1700   28.8250   42.6820 C   0  0  0  0  0  0  0  0  0  0  0  0
   40.3320   29.3880   41.8420 H   0  0  0  0  0  0  0  0  0  0  0  0
   38.7010   26.2480   44.2720 H   0  0  0  0  0  0  0  0  0  0  0  0
   36.4380   27.2300   43.9020 H   0  0  0  0  0  0  0  0  0  0  0  0
   36.1880   29.2520   42.5210 H   0  0  0  0  0  0  0  0  0  0  0  0
   36.8720   31.7590   39.6040 C   0  0  0  0  0  0  0  0  0  0  0  0
   37.7230   32.8770   39.6830 C   0  0  0  0  0  0  0  0  0  0  0  0
   38.7780   32.8290   40.6010 C   0  0  0  0  0  0  0  0  0  0  0  0
   38.9330   31.7160   41.3690 N   0  0  0  0  0  0  0  0  0  0  0  0
   38.0940   30.6570   41.2680 C   0  0  0  0  0  0  0  0  0  0  0  0
   37.0730   30.6890   40.3870 N   0  0  0  0  0  0  0  0  0  0  0  0
   36.0550   31.7990   38.8910 H   0  0  0  0  0  0  0  0  0  0  0  0
   37.5410   33.7310   39.0400 H   0  0  0  0  0  0  0  0  0  0  0  0
   39.4460   33.6800   40.6780 H   0  0  0  0  0  0  0  0  0  0  0  0
   40.9440   27.2260   43.2720 C   0  0  0  0  0  0  0  0  0  0  0  0
   41.3780   25.9010   43.2720 C   0  0  0  0  0  0  0  0  0  0  0  0
   40.6450   25.1260   43.1090 H   0  0  0  0  0  0  0  0  0  0  0  0
   42.7170   25.6730   43.4800 C   0  0  0  0  0  3  0  0  0  0  0  0
   43.5450   26.7760   43.6770 C   0  0  0  0  0  3  0  0  0  0  0  0
   42.4090   28.1540   43.5630 S   0  0  0  0  0  0  0  0  0  0  0  0
  1  2  2  0  0  0  0
  1  6  1  0  0  0  0
  2  3  1  0  0  0  0
  3 20  1  0  0  0  0
  3  4  2  0  0  0  0
  4  8  1  0  0  0  0
  5  4  1  0  0  0  0
  5  9  1  0  0  0  0
  6  5  2  0  0  0  0
  7  2  1  0  0  0  0
 10  6  1  0  0  0  0
 11 12  2  0  0  0  0
 11 16  1  0  0  0  0
 12 13  1  0  0  0  0
 13 19  1  0  0  0  0
 13 14  2  0  0  0  0
 15 14  1  0  0  0  0
 15  1  1  0  0  0  0
 16 15  2  0  0  0  0
 17 11  1  0  0  0  0
 18 12  1  0  0  0  0
 20 21  2  0  0  0  0
 20 25  1  0  0  0  0
 21 23  1  0  0  0  0
 22 21  1  0  0  0  0
 23 24  2  0  0  0  0
 25 24  1  0  0  0  0
M  END
>  <minimizedAffinity>
-4.77549553

$$$$

 OpenBabel03242516213D

 25 27  0  0  0  0  0  0  0  0999 V2000
   39.3950   30.2650   41.5810 C   0  0  0  0  0  0  0  0  0  0  0  0
   38.8040   29.0310   41.6040 C   0  0  0  0  0  0  0  0  0  0  0  0
   39.3950   27.9410   42.2160 C   0  0  0  0  0  0  0  0  0  0  0  0
   40.6120   28.0440   42.8340 C   0  0  0  0  0  0  0  0  0  0  0  0
   41.2280   29.2810   42.8220 C   0  0  0  0  0  0  0  0  0  0  0  0
   40.6280   30.3610   42.2080 C   0  0  0  0  0  0  0  0  0  0  0  0
   37.8320   28.9510   41.1090 H   0  0  0  0  0  0  0  0  0  0  0  0
   41.0640   27.1820   43.3100 H   0  0  0  0  0  0  0  0  0  0  0  0
   42.1960   29.4050   43.3020 H   0  0  0  0  0  0  0  0  0  0  0  0
   41.1190   31.3270   42.2050 H   0  0  0  0  0  0  0  0  0  0  0  0
   37.0890   32.1760   39.4860 C   0  0  0  0  0  0  0  0  0  0  0  0
   37.5110   33.5060   39.6610 C   0  0  0  0  0  0  0  0  0  0  0  0
   38.5990   33.7390   40.5080 C   0  0  0  0  0  0  0  0  0  0  0  0
   39.1960   32.6790   41.1210 N   0  0  0  0  0  0  0  0  0  0  0  0
   38.7630   31.4090   40.9310 C   0  0  0  0  0  0  0  0  0  0  0  0
   37.7150   31.1700   40.1160 N   0  0  0  0  0  0  0  0  0  0  0  0
   36.2450   31.9980   38.8280 H   0  0  0  0  0  0  0  0  0  0  0  0
   36.9890   34.3020   39.1410 H   0  0  0  0  0  0  0  0  0  0  0  0
   38.9400   34.7570   40.6570 H   0  0  0  0  0  0  0  0  0  0  0  0
   38.7170   26.6870   42.1990 C   0  0  0  0  0  0  0  0  0  0  0  0
   37.3530   26.4130   42.1130 C   0  0  0  0  0  0  0  0  0  0  0  0
   36.6700   27.2460   42.0490 H   0  0  0  0  0  0  0  0  0  0  0  0
   36.9710   25.0930   42.1170 C   0  0  0  0  0  3  0  0  0  0  0  0
   37.9690   24.1250   42.2060 C   0  0  0  0  0  3  0  0  0  0  0  0
   39.4670   25.1000   42.2830 S   0  0  0  0  0  0  0  0  0  0  0  0
  1  2  2  0  0  0  0
  1  6  1  0  0  0  0
  2  3  1  0  0  0  0
  3  4  2  0  0  0  0
  4  8  1  0  0  0  0
  5  4  1  0  0  0  0
  5  9  1  0  0  0  0
  6  5  2  0  0  0  0
  7  2  1  0  0  0  0
 10  6  1  0  0  0  0
 11 12  2  0  0  0  0
 11 16  1  0  0  0  0
 12 13  1  0  0  0  0
 13 19  1  0  0  0  0
 13 14  2  0  0  0  0
 15 14  1  0  0  0  0
 15  1  1  0  0  0  0
 16 15  2  0  0  0  0
 17 11  1  0  0  0  0
 18 12  1  0  0  0  0
 20  3  1  0  0  0  0
 20 25  1  0  0  0  0
 21 23  1  0  0  0  0
 21 20  2  0  0  0  0
 22 21  1  0  0  0  0
 23 24  2  0  0  0  0
 24 25  1  0  0  0  0
M  END
>  <minimizedAffinity>
-4.72494888

$$$$

 OpenBabel03242516213D

 25 27  0  0  0  0  0  0  0  0999 V2000
   36.9810   30.1060   39.3470 C   0  0  0  0  0  0  0  0  0  0  0  0
   37.1350   28.9290   40.0280 C   0  0  0  0  0  0  0  0  0  0  0  0
   36.5530   27.7490   39.6020 C   0  0  0  0  0  0  0  0  0  0  0  0
   35.7870   27.7010   38.4680 C   0  0  0  0  0  0  0  0  0  0  0  0
   35.6180   28.8790   37.7660 C   0  0  0  0  0  0  0  0  0  0  0  0
   36.2030   30.0490   38.2010 C   0  0  0  0  0  0  0  0  0  0  0  0
   37.7480   28.9700   40.9330 H   0  0  0  0  0  0  0  0  0  0  0  0
   35.3360   26.7700   38.1460 H   0  0  0  0  0  0  0  0  0  0  0  0
   35.0160   28.8840   36.8600 H   0  0  0  0  0  0  0  0  0  0  0  0
   36.0650   30.9680   37.6430 H   0  0  0  0  0  0  0  0  0  0  0  0
   37.6140   33.6860   39.7260 C   0  0  0  0  0  0  0  0  0  0  0  0
   38.7030   33.7360   40.6150 C   0  0  0  0  0  0  0  0  0  0  0  0
   39.2180   32.5220   41.0830 C   0  0  0  0  0  0  0  0  0  0  0  0
   38.6490   31.3590   40.6630 N   0  0  0  0  0  0  0  0  0  0  0  0
   37.6000   31.3470   39.8060 C   0  0  0  0  0  0  0  0  0  0  0  0
   37.0930   32.5100   39.3460 N   0  0  0  0  0  0  0  0  0  0  0  0
   37.2160   34.6290   39.3640 H   0  0  0  0  0  0  0  0  0  0  0  0
   39.1080   34.6980   40.9080 H   0  0  0  0  0  0  0  0  0  0  0  0
   40.0580   32.5380   41.7690 H   0  0  0  0  0  0  0  0  0  0  0  0
   36.7590   26.5630   40.3640 C   0  0  0  0  0  0  0  0  0  0  0  0
   37.0740   26.4140   41.7140 C   0  0  0  0  0  0  0  0  0  0  0  0
   37.1880   27.3060   42.3110 H   0  0  0  0  0  0  0  0  0  0  0  0
   37.2170   25.1340   42.1940 C   0  0  0  0  0  3  0  0  0  0  0  0
   37.0390   24.0790   41.3020 C   0  0  0  0  0  3  0  0  0  0  0  0
   36.6630   24.9130   39.7650 S   0  0  0  0  0  0  0  0  0  0  0  0
  1 15  1  0  0  0  0
  1  2  1  0  0  0  0
  2  7  1  0  0  0  0
  3  2  2  0  0  0  0
  3 20  1  0  0  0  0
  4  3  1  0  0  0  0
  5  6  1  0  0  0  0
  5  4  2  0  0  0  0
  6  1  2  0  0  0  0
  8  4  1  0  0  0  0
  9  5  1  0  0  0  0
 10  6  1  0  0  0  0
 11 12  1  0  0  0  0
 12 18  1  0  0  0  0
 12 13  2  0  0  0  0
 13 19  1  0  0  0  0
 14 13  1  0  0  0  0
 15 14  2  0  0  0  0
 16 11  2  0  0  0  0
 16 15  1  0  0  0  0
 17 11  1  0  0  0  0
 20 21  2  0  0  0  0
 21 23  1  0  0  0  0
 21 22  1  0  0  0  0
 24 23  2  0  0  0  0
 25 20  1  0  0  0  0
 25 24  1  0  0  0  0
M  END
>  <minimizedAffinity>
-4.70216084

$$$$
