
 OpenBabel03242522503D

 23 24  0  0  0  0  0  0  0  0999 V2000
   45.5990   30.7100   47.6250 O   0  0  0  0  0  0  0  0  0  0  0  0
   45.9510   32.0290   48.3660 P   0  0  2  0  0  0  0  0  0  0  0  0
   45.3430   31.8340   49.9190 O   0  0  0  0  0  0  0  0  0  0  0  0
   45.4260   32.6300   50.4920 H   0  0  0  0  0  0  0  0  0  0  0  0
   45.1540   33.2860   47.5740 O   0  0  0  0  0  0  0  0  0  0  0  0
   46.9210   33.3040   44.3980 C   0  0  0  0  0  0  0  0  0  0  0  0
   46.5280   32.9520   45.7040 C   0  0  0  0  0  0  0  0  0  0  0  0
   45.5100   33.6620   46.2960 C   0  0  0  0  0  0  0  0  0  0  0  0
   44.9430   34.6620   45.5870 N   0  0  0  0  0  0  0  0  0  0  0  0
   45.3090   35.0010   44.3500 C   0  0  0  0  0  0  0  0  0  0  0  0
   46.3010   34.3240   43.7480 N   0  0  0  0  0  0  0  0  0  0  0  0
   47.7080   32.8110   43.8460 H   0  0  0  0  0  0  0  0  0  0  0  0
   47.1040   32.1380   46.0680 H   0  0  0  0  0  0  0  0  0  0  0  0
   44.7520   35.8290   43.9170 H   0  0  0  0  0  0  0  0  0  0  0  0
   47.5930   32.2200   48.3440 O   0  0  0  0  0  0  0  0  0  0  0  0
   48.6060   31.4980   48.8250 C   0  0  0  0  0  0  0  0  0  0  0  0
   49.5430   32.1970   49.4120 O   0  0  0  0  0  0  0  0  0  0  0  0
   49.1980   30.0330   48.9900 C   0  0  0  0  0  0  0  0  0  0  0  0
   49.9540   29.5600   49.9510 C   0  0  0  0  0  0  0  0  0  0  0  0
   50.2460   30.2520   50.7620 H   0  0  0  0  0  0  0  0  0  0  0  0
   50.3670   28.2960   49.9680 C   0  0  0  0  0  3  0  0  0  0  0  0
   49.8850   27.5340   48.8210 C   0  0  0  0  0  3  0  0  0  0  0  0
   48.8700   28.8730   47.8840 S   0  0  0  0  0  0  0  0  0  0  0  0
  2  1  2  6  0  0  0
  2  3  1  0  0  0  0
  3  4  1  0  0  0  0
  5  2  1  0  0  0  0
  6  7  1  0  0  0  0
  7 13  1  0  0  0  0
  7  8  2  0  0  0  0
  8  5  1  0  0  0  0
  9  8  1  0  0  0  0
 10  9  2  0  0  0  0
 11 10  1  0  0  0  0
 11  6  2  0  0  0  0
 12  6  1  0  0  0  0
 14 10  1  0  0  0  0
 15  2  1  0  0  0  0
 15 16  1  0  0  0  0
 16 18  1  0  0  0  0
 16 17  2  0  0  0  0
 18 19  2  0  0  0  0
 19 21  1  0  0  0  0
 19 20  1  0  0  0  0
 22 21  2  0  0  0  0
 23 22  1  0  0  0  0
 23 18  1  0  0  0  0
M  END
>  <minimizedAffinity>
-4.66665459

>  <minimizedRMSD>
0.739138007

$$$$
