
 OpenBabel03242522503D

 23 24  0  0  0  0  0  0  0  0999 V2000
   45.5060   30.7890   47.5640 O   0  0  0  0  0  0  0  0  0  0  0  0
   45.8660   32.0670   48.3700 P   0  0  2  0  0  0  0  0  0  0  0  0
   45.2900   31.7830   49.9220 O   0  0  0  0  0  0  0  0  0  0  0  0
   45.3800   32.5470   50.5350 H   0  0  0  0  0  0  0  0  0  0  0  0
   45.0480   33.3610   47.6630 O   0  0  0  0  0  0  0  0  0  0  0  0
   46.6920   33.5060   44.4260 C   0  0  0  0  0  0  0  0  0  0  0  0
   46.3490   33.1020   45.7310 C   0  0  0  0  0  0  0  0  0  0  0  0
   45.3550   33.7870   46.3890 C   0  0  0  0  0  0  0  0  0  0  0  0
   44.7610   34.8140   45.7430 N   0  0  0  0  0  0  0  0  0  0  0  0
   45.0800   35.2020   44.5070 C   0  0  0  0  0  0  0  0  0  0  0  0
   46.0480   34.5500   43.8410 N   0  0  0  0  0  0  0  0  0  0  0  0
   47.4570   33.0360   43.8250 H   0  0  0  0  0  0  0  0  0  0  0  0
   46.9390   32.2750   46.0400 H   0  0  0  0  0  0  0  0  0  0  0  0
   44.5080   36.0460   44.1290 H   0  0  0  0  0  0  0  0  0  0  0  0
   47.5060   32.2690   48.3270 O   0  0  0  0  0  0  0  0  0  0  0  0
   48.5300   31.5520   48.7930 C   0  0  0  0  0  0  0  0  0  0  0  0
   49.4850   32.2590   49.3410 O   0  0  0  0  0  0  0  0  0  0  0  0
   49.1220   30.0880   48.9710 C   0  0  0  0  0  0  0  0  0  0  0  0
   49.8920   29.6280   49.9270 C   0  0  0  0  0  0  0  0  0  0  0  0
   50.1960   30.3300   50.7240 H   0  0  0  0  0  0  0  0  0  0  0  0
   50.3020   28.3630   49.9550 C   0  0  0  0  0  3  0  0  0  0  0  0
   49.8040   27.5860   48.8260 C   0  0  0  0  0  3  0  0  0  0  0  0
   48.7760   28.9140   47.8860 S   0  0  0  0  0  0  0  0  0  0  0  0
  2  1  2  6  0  0  0
  2  3  1  0  0  0  0
  3  4  1  0  0  0  0
  5  2  1  0  0  0  0
  6  7  1  0  0  0  0
  7 13  1  0  0  0  0
  7  8  2  0  0  0  0
  8  5  1  0  0  0  0
  9  8  1  0  0  0  0
 10  9  2  0  0  0  0
 11  6  2  0  0  0  0
 11 10  1  0  0  0  0
 12  6  1  0  0  0  0
 14 10  1  0  0  0  0
 15  2  1  0  0  0  0
 15 16  1  0  0  0  0
 16 18  1  0  0  0  0
 16 17  2  0  0  0  0
 18 19  2  0  0  0  0
 19 21  1  0  0  0  0
 19 20  1  0  0  0  0
 22 21  2  0  0  0  0
 23 22  1  0  0  0  0
 23 18  1  0  0  0  0
M  END
>  <minimizedAffinity>
-4.66240788

>  <minimizedRMSD>
0.560503364

$$$$
