
 OpenBabel03242522523D

 23 24  0  0  0  0  0  0  0  0999 V2000
   35.5490   28.9090   40.1680 O   0  0  0  0  0  0  0  0  0  0  0  0
   36.4980   29.7980   41.0170 P   0  0  2  0  0  0  0  0  0  0  0  0
   35.5810   31.1410   41.4370 O   0  0  0  0  0  0  0  0  0  0  0  0
   36.0780   31.8390   41.9200 H   0  0  0  0  0  0  0  0  0  0  0  0
   37.7890   30.2500   40.0300 O   0  0  0  0  0  0  0  0  0  0  0  0
   40.4540   32.6690   40.5320 C   0  0  0  0  0  0  0  0  0  0  0  0
   39.7770   31.4450   40.3680 C   0  0  0  0  0  0  0  0  0  0  0  0
   38.4140   31.4690   40.1880 C   0  0  0  0  0  0  0  0  0  0  0  0
   37.7990   32.6710   40.1790 N   0  0  0  0  0  0  0  0  0  0  0  0
   38.4330   33.8350   40.3340 C   0  0  0  0  0  0  0  0  0  0  0  0
   39.7650   33.8410   40.5110 N   0  0  0  0  0  0  0  0  0  0  0  0
   41.5200   32.7600   40.6800 H   0  0  0  0  0  0  0  0  0  0  0  0
   40.4540   30.6280   40.4050 H   0  0  0  0  0  0  0  0  0  0  0  0
   37.7930   34.7140   40.3020 H   0  0  0  0  0  0  0  0  0  0  0  0
   36.9940   28.9290   42.3320 O   0  0  0  0  0  0  0  0  0  0  0  0
   37.0050   27.6260   42.6190 C   0  0  0  0  0  0  0  0  0  0  0  0
   36.2430   27.2840   43.6250 O   0  0  0  0  0  0  0  0  0  0  0  0
   37.6050   26.2100   42.2220 C   0  0  0  0  0  0  0  0  0  0  0  0
   36.9810   25.0650   42.0920 C   0  0  0  0  0  0  0  0  0  0  0  0
   35.8940   25.0460   42.2920 H   0  0  0  0  0  0  0  0  0  0  0  0
   37.6160   23.9520   41.7350 C   0  0  0  0  0  3  0  0  0  0  0  0
   39.0400   24.1660   41.5130 C   0  0  0  0  0  3  0  0  0  0  0  0
   39.1990   26.0450   41.8880 S   0  0  0  0  0  0  0  0  0  0  0  0
  2  1  2  6  0  0  0
  2  3  1  0  0  0  0
  2 15  1  0  0  0  0
  3  4  1  0  0  0  0
  5  8  1  0  0  0  0
  5  2  1  0  0  0  0
  6 12  1  0  0  0  0
  7 13  1  0  0  0  0
  7  6  2  0  0  0  0
  8  7  1  0  0  0  0
  9  8  2  0  0  0  0
  9 10  1  0  0  0  0
 10 11  2  0  0  0  0
 11  6  1  0  0  0  0
 14 10  1  0  0  0  0
 15 16  1  0  0  0  0
 16 17  2  0  0  0  0
 18 16  1  0  0  0  0
 19 18  2  0  0  0  0
 19 20  1  0  0  0  0
 21 19  1  0  0  0  0
 22 21  2  0  0  0  0
 22 23  1  0  0  0  0
 23 18  1  0  0  0  0
M  END
>  <minimizedAffinity>
-4.90931463

$$$$

 OpenBabel03242522523D

 23 24  0  0  0  0  0  0  0  0999 V2000
   37.8520   31.6700   38.7080 O   0  0  0  0  0  0  0  0  0  0  0  0
   37.4940   32.2150   40.1180 P   0  0  2  0  0  0  0  0  0  0  0  0
   36.9750   33.7910   39.8600 O   0  0  0  0  0  0  0  0  0  0  0  0
   36.7830   34.2960   40.6820 H   0  0  0  0  0  0  0  0  0  0  0  0
   38.9050   32.2010   41.0410 O   0  0  0  0  0  0  0  0  0  0  0  0
   42.4710   32.7710   40.6330 C   0  0  0  0  0  0  0  0  0  0  0  0
   41.2480   32.2570   41.1050 C   0  0  0  0  0  0  0  0  0  0  0  0
   40.0810   32.7300   40.5530 C   0  0  0  0  0  0  0  0  0  0  0  0
   40.1750   33.6660   39.5840 N   0  0  0  0  0  0  0  0  0  0  0  0
   41.3300   34.1580   39.1310 C   0  0  0  0  0  0  0  0  0  0  0  0
   42.4850   33.7130   39.6530 N   0  0  0  0  0  0  0  0  0  0  0  0
   43.4410   32.4670   40.9990 H   0  0  0  0  0  0  0  0  0  0  0  0
   41.4080   31.5300   41.8630 H   0  0  0  0  0  0  0  0  0  0  0  0
   41.2340   34.9060   38.3480 H   0  0  0  0  0  0  0  0  0  0  0  0
   36.3160   31.2550   40.7670 O   0  0  0  0  0  0  0  0  0  0  0  0
   36.2780   29.9730   41.1370 C   0  0  0  0  0  0  0  0  0  0  0  0
   35.3160   29.2770   40.5880 O   0  0  0  0  0  0  0  0  0  0  0  0
   36.9610   28.8560   42.0370 C   0  0  0  0  0  0  0  0  0  0  0  0
   36.5910   27.6110   42.2160 C   0  0  0  0  0  0  0  0  0  0  0  0
   35.6790   27.2670   41.6960 H   0  0  0  0  0  0  0  0  0  0  0  0
   37.2760   26.7780   42.9930 C   0  0  0  0  0  3  0  0  0  0  0  0
   38.4460   27.4050   43.5940 C   0  0  0  0  0  3  0  0  0  0  0  0
   38.3240   29.1850   42.8800 S   0  0  0  0  0  0  0  0  0  0  0  0
  2  1  2  6  0  0  0
  2 15  1  0  0  0  0
  2  5  1  0  0  0  0
  3  2  1  0  0  0  0
  3  4  1  0  0  0  0
  6 12  1  0  0  0  0
  6  7  1  0  0  0  0
  7 13  1  0  0  0  0
  8  5  1  0  0  0  0
  8  7  2  0  0  0  0
  9  8  1  0  0  0  0
 10  9  2  0  0  0  0
 10 11  1  0  0  0  0
 11  6  2  0  0  0  0
 14 10  1  0  0  0  0
 15 16  1  0  0  0  0
 16 18  1  0  0  0  0
 17 16  2  0  0  0  0
 18 19  2  0  0  0  0
 18 23  1  0  0  0  0
 19 21  1  0  0  0  0
 20 19  1  0  0  0  0
 21 22  2  0  0  0  0
 23 22  1  0  0  0  0
M  END
>  <minimizedAffinity>
-4.8197999

$$$$

 OpenBabel03242522523D

 23 24  0  0  0  0  0  0  0  0999 V2000
   36.4140   30.8530   39.0220 O   0  0  0  0  0  0  0  0  0  0  0  0
   36.9390   31.0390   40.4720 P   0  0  2  0  0  0  0  0  0  0  0  0
   35.5640   31.0650   41.4360 O   0  0  0  0  0  0  0  0  0  0  0  0
   35.7360   31.2540   42.3860 H   0  0  0  0  0  0  0  0  0  0  0  0
   37.7350   32.5240   40.5390 O   0  0  0  0  0  0  0  0  0  0  0  0
   40.7790   34.1340   39.3780 C   0  0  0  0  0  0  0  0  0  0  0  0
   39.6200   33.8560   40.1270 C   0  0  0  0  0  0  0  0  0  0  0  0
   38.8620   32.7630   39.7800 C   0  0  0  0  0  0  0  0  0  0  0  0
   39.2750   32.0140   38.7350 N   0  0  0  0  0  0  0  0  0  0  0  0
   40.3720   32.2700   38.0200 C   0  0  0  0  0  0  0  0  0  0  0  0
   41.1310   33.3320   38.3380 N   0  0  0  0  0  0  0  0  0  0  0  0
   41.4410   34.9670   39.5670 H   0  0  0  0  0  0  0  0  0  0  0  0
   39.4880   34.5700   40.9020 H   0  0  0  0  0  0  0  0  0  0  0  0
   40.5660   31.5710   37.2110 H   0  0  0  0  0  0  0  0  0  0  0  0
   37.9440   29.7770   40.8310 O   0  0  0  0  0  0  0  0  0  0  0  0
   37.8000   28.6700   41.5630 C   0  0  0  0  0  0  0  0  0  0  0  0
   37.3900   28.8760   42.7870 O   0  0  0  0  0  0  0  0  0  0  0  0
   37.9340   27.0870   41.5700 C   0  0  0  0  0  0  0  0  0  0  0  0
   37.1980   26.2070   42.2050 C   0  0  0  0  0  0  0  0  0  0  0  0
   36.3760   26.5870   42.8380 H   0  0  0  0  0  0  0  0  0  0  0  0
   37.4180   24.9000   42.1040 C   0  0  0  0  0  3  0  0  0  0  0  0
   38.5400   24.5860   41.2280 C   0  0  0  0  0  3  0  0  0  0  0  0
   39.0950   26.3450   40.6870 S   0  0  0  0  0  0  0  0  0  0  0  0
  2  1  2  6  0  0  0
  2  5  1  0  0  0  0
  2 15  1  0  0  0  0
  2  3  1  0  0  0  0
  3  4  1  0  0  0  0
  6 12  1  0  0  0  0
  6  7  1  0  0  0  0
  7 13  1  0  0  0  0
  8  7  2  0  0  0  0
  8  5  1  0  0  0  0
  9  8  1  0  0  0  0
 10 11  1  0  0  0  0
 10  9  2  0  0  0  0
 11  6  2  0  0  0  0
 14 10  1  0  0  0  0
 15 16  1  0  0  0  0
 16 18  1  0  0  0  0
 16 17  2  0  0  0  0
 18 19  2  0  0  0  0
 19 20  1  0  0  0  0
 21 19  1  0  0  0  0
 22 21  2  0  0  0  0
 23 22  1  0  0  0  0
 23 18  1  0  0  0  0
M  END
>  <minimizedAffinity>
-4.74592066

$$$$

 OpenBabel03242522523D

 23 24  0  0  0  0  0  0  0  0999 V2000
   36.5940   29.1360   39.2370 O   0  0  0  0  0  0  0  0  0  0  0  0
   35.7940   29.4810   40.5230 P   0  0  2  0  0  0  0  0  0  0  0  0
   34.1800   29.3010   40.0960 O   0  0  0  0  0  0  0  0  0  0  0  0
   33.5420   29.5620   40.7980 H   0  0  0  0  0  0  0  0  0  0  0  0
   36.1260   31.0880   40.9130 O   0  0  0  0  0  0  0  0  0  0  0  0
   38.7940   33.3010   39.8220 C   0  0  0  0  0  0  0  0  0  0  0  0
   37.5150   32.7370   39.9940 C   0  0  0  0  0  0  0  0  0  0  0  0
   37.3950   31.6080   40.7690 C   0  0  0  0  0  0  0  0  0  0  0  0
   38.5160   31.1020   41.3240 N   0  0  0  0  0  0  0  0  0  0  0  0
   39.7320   31.6300   41.1670 C   0  0  0  0  0  0  0  0  0  0  0  0
   39.8780   32.7330   40.4140 N   0  0  0  0  0  0  0  0  0  0  0  0
   38.9950   34.1850   39.2340 H   0  0  0  0  0  0  0  0  0  0  0  0
   36.7790   33.2980   39.4720 H   0  0  0  0  0  0  0  0  0  0  0  0
   40.5310   31.1020   41.6810 H   0  0  0  0  0  0  0  0  0  0  0  0
   36.2550   28.4410   41.7220 O   0  0  0  0  0  0  0  0  0  0  0  0
   36.9980   27.3320   41.7380 C   0  0  0  0  0  0  0  0  0  0  0  0
   38.0780   27.4120   42.4720 O   0  0  0  0  0  0  0  0  0  0  0  0
   37.1330   25.8460   41.1940 C   0  0  0  0  0  0  0  0  0  0  0  0
   37.5850   24.7850   41.8170 C   0  0  0  0  0  0  0  0  0  0  0  0
   37.9410   24.9120   42.8550 H   0  0  0  0  0  0  0  0  0  0  0  0
   37.6240   23.5900   41.2350 C   0  0  0  0  0  3  0  0  0  0  0  0
   37.1170   23.6130   39.8690 C   0  0  0  0  0  3  0  0  0  0  0  0
   36.6530   25.4690   39.6750 S   0  0  0  0  0  0  0  0  0  0  0  0
  2  1  2  6  0  0  0
  2  5  1  0  0  0  0
  2 15  1  0  0  0  0
  3  2  1  0  0  0  0
  3  4  1  0  0  0  0
  6  7  2  0  0  0  0
  6 11  1  0  0  0  0
  7  8  1  0  0  0  0
  8  5  1  0  0  0  0
  8  9  2  0  0  0  0
 10  9  1  0  0  0  0
 10 14  1  0  0  0  0
 11 10  2  0  0  0  0
 12  6  1  0  0  0  0
 13  7  1  0  0  0  0
 15 16  1  0  0  0  0
 16 17  2  0  0  0  0
 18 16  1  0  0  0  0
 18 19  2  0  0  0  0
 19 20  1  0  0  0  0
 21 19  1  0  0  0  0
 22 21  2  0  0  0  0
 23 22  1  0  0  0  0
 23 18  1  0  0  0  0
M  END
>  <minimizedAffinity>
-4.47943163

$$$$

 OpenBabel03242522523D

 23 24  0  0  0  0  0  0  0  0999 V2000
   37.2690   32.7590   40.3020 O   0  0  0  0  0  0  0  0  0  0  0  0
   37.0050   31.2340   40.4430 P   0  0  2  0  0  0  0  0  0  0  0  0
   35.6350   31.1140   41.4070 O   0  0  0  0  0  0  0  0  0  0  0  0
   35.3870   30.1930   41.6490 H   0  0  0  0  0  0  0  0  0  0  0  0
   38.3380   30.5580   41.2250 O   0  0  0  0  0  0  0  0  0  0  0  0
   39.2870   27.7410   43.3150 C   0  0  0  0  0  0  0  0  0  0  0  0
   39.3660   28.9220   42.5520 C   0  0  0  0  0  0  0  0  0  0  0  0
   38.2190   29.4000   41.9620 C   0  0  0  0  0  0  0  0  0  0  0  0
   37.0760   28.7060   42.1510 N   0  0  0  0  0  0  0  0  0  0  0  0
   36.9930   27.5870   42.8730 C   0  0  0  0  0  0  0  0  0  0  0  0
   38.0980   27.0980   43.4600 N   0  0  0  0  0  0  0  0  0  0  0  0
   40.1270   27.2840   43.8170 H   0  0  0  0  0  0  0  0  0  0  0  0
   40.3580   29.3010   42.5400 H   0  0  0  0  0  0  0  0  0  0  0  0
   35.9990   27.1490   42.9280 H   0  0  0  0  0  0  0  0  0  0  0  0
   36.7800   30.6000   38.9340 O   0  0  0  0  0  0  0  0  0  0  0  0
   35.8750   29.7680   38.4150 C   0  0  0  0  0  0  0  0  0  0  0  0
   35.1490   29.1330   39.2990 O   0  0  0  0  0  0  0  0  0  0  0  0
   35.2680   29.1770   37.0710 C   0  0  0  0  0  0  0  0  0  0  0  0
   34.0490   28.7540   36.8420 C   0  0  0  0  0  0  0  0  0  0  0  0
   33.3280   28.7870   37.6790 H   0  0  0  0  0  0  0  0  0  0  0  0
   33.6740   28.2960   35.6510 C   0  0  0  0  0  3  0  0  0  0  0  0
   34.7540   28.3270   34.6730 C   0  0  0  0  0  3  0  0  0  0  0  0
   36.1900   29.0540   35.7250 S   0  0  0  0  0  0  0  0  0  0  0  0
  2  1  2  6  0  0  0
  2  5  1  0  0  0  0
  2  3  1  0  0  0  0
  3  4  1  0  0  0  0
  5  8  1  0  0  0  0
  6 11  1  0  0  0  0
  6 12  1  0  0  0  0
  7  6  2  0  0  0  0
  8  9  2  0  0  0  0
  8  7  1  0  0  0  0
  9 10  1  0  0  0  0
 10 14  1  0  0  0  0
 10 11  2  0  0  0  0
 13  7  1  0  0  0  0
 15  2  1  0  0  0  0
 16 15  1  0  0  0  0
 16 17  2  0  0  0  0
 18 16  1  0  0  0  0
 19 18  2  0  0  0  0
 19 20  1  0  0  0  0
 21 19  1  0  0  0  0
 22 21  2  0  0  0  0
 22 23  1  0  0  0  0
 23 18  1  0  0  0  0
M  END
>  <minimizedAffinity>
-4.42397642

$$$$

 OpenBabel03242522523D

 23 24  0  0  0  0  0  0  0  0999 V2000
   37.0570   32.6440   40.2960 O   0  0  0  0  0  0  0  0  0  0  0  0
   37.0020   31.1130   40.5540 P   0  0  2  0  0  0  0  0  0  0  0  0
   35.5330   30.8510   41.3230 O   0  0  0  0  0  0  0  0  0  0  0  0
   35.3890   29.9240   41.6200 H   0  0  0  0  0  0  0  0  0  0  0  0
   38.2830   30.7240   41.5800 O   0  0  0  0  0  0  0  0  0  0  0  0
   39.5510   27.5360   42.7770 C   0  0  0  0  0  0  0  0  0  0  0  0
   39.4710   28.7740   42.1120 C   0  0  0  0  0  0  0  0  0  0  0  0
   38.3220   29.5170   42.2450 C   0  0  0  0  0  0  0  0  0  0  0  0
   37.3300   29.0140   43.0110 N   0  0  0  0  0  0  0  0  0  0  0  0
   37.3980   27.8410   43.6450 C   0  0  0  0  0  0  0  0  0  0  0  0
   38.5100   27.0950   43.5310 N   0  0  0  0  0  0  0  0  0  0  0  0
   40.4070   26.8770   42.7360 H   0  0  0  0  0  0  0  0  0  0  0  0
   40.3630   28.9740   41.5720 H   0  0  0  0  0  0  0  0  0  0  0  0
   36.5140   27.5790   44.2210 H   0  0  0  0  0  0  0  0  0  0  0  0
   37.1090   30.3330   39.1010 O   0  0  0  0  0  0  0  0  0  0  0  0
   37.1880   29.0460   38.7550 C   0  0  0  0  0  0  0  0  0  0  0  0
   37.0610   28.8190   37.4730 O   0  0  0  0  0  0  0  0  0  0  0  0
   37.3830   27.5630   39.2900 C   0  0  0  0  0  0  0  0  0  0  0  0
   36.6350   26.8930   40.1320 C   0  0  0  0  0  0  0  0  0  0  0  0
   35.7520   27.4060   40.5550 H   0  0  0  0  0  0  0  0  0  0  0  0
   36.9130   25.6400   40.4790 C   0  0  0  0  0  3  0  0  0  0  0  0
   38.1110   25.1300   39.8250 C   0  0  0  0  0  3  0  0  0  0  0  0
   38.6370   26.6490   38.7710 S   0  0  0  0  0  0  0  0  0  0  0  0
  2  1  2  6  0  0  0
  2  3  1  0  0  0  0
  2  5  1  0  0  0  0
  3  4  1  0  0  0  0
  5  8  1  0  0  0  0
  6 11  1  0  0  0  0
  7  8  1  0  0  0  0
  7  6  2  0  0  0  0
  8  9  2  0  0  0  0
  9 10  1  0  0  0  0
 10 14  1  0  0  0  0
 11 10  2  0  0  0  0
 12  6  1  0  0  0  0
 13  7  1  0  0  0  0
 15  2  1  0  0  0  0
 16 15  1  0  0  0  0
 16 18  1  0  0  0  0
 17 16  2  0  0  0  0
 18 19  2  0  0  0  0
 19 21  1  0  0  0  0
 19 20  1  0  0  0  0
 22 21  2  0  0  0  0
 23 18  1  0  0  0  0
 23 22  1  0  0  0  0
M  END
>  <minimizedAffinity>
-4.37424517

$$$$

 OpenBabel03242522523D

 23 24  0  0  0  0  0  0  0  0999 V2000
   40.1520   30.4620   40.3670 O   0  0  0  0  0  0  0  0  0  0  0  0
   39.4810   31.3900   41.4160 P   0  0  2  0  0  0  0  0  0  0  0  0
   40.5100   32.7090   41.5570 O   0  0  0  0  0  0  0  0  0  0  0  0
   40.2510   33.3550   42.2510 H   0  0  0  0  0  0  0  0  0  0  0  0
   39.4060   30.5410   42.8710 O   0  0  0  0  0  0  0  0  0  0  0  0
   39.0940   26.9260   43.0740 C   0  0  0  0  0  0  0  0  0  0  0  0
   39.6580   28.2140   43.0000 C   0  0  0  0  0  0  0  0  0  0  0  0
   38.8140   29.2970   42.9410 C   0  0  0  0  0  0  0  0  0  0  0  0
   37.4850   29.0630   42.9570 N   0  0  0  0  0  0  0  0  0  0  0  0
   36.9410   27.8460   43.0270 C   0  0  0  0  0  0  0  0  0  0  0  0
   37.7430   26.7700   43.0860 N   0  0  0  0  0  0  0  0  0  0  0  0
   39.6680   26.0110   43.1230 H   0  0  0  0  0  0  0  0  0  0  0  0
   40.7190   28.1640   43.0040 H   0  0  0  0  0  0  0  0  0  0  0  0
   35.8540   27.8280   43.0310 H   0  0  0  0  0  0  0  0  0  0  0  0
   37.9810   31.8090   40.8620 O   0  0  0  0  0  0  0  0  0  0  0  0
   37.0800   31.1890   40.0970 C   0  0  0  0  0  0  0  0  0  0  0  0
   35.9380   30.9490   40.6870 O   0  0  0  0  0  0  0  0  0  0  0  0
   36.7950   30.5690   38.6620 C   0  0  0  0  0  0  0  0  0  0  0  0
   35.8860   29.6900   38.3180 C   0  0  0  0  0  0  0  0  0  0  0  0
   35.2230   29.2990   39.1100 H   0  0  0  0  0  0  0  0  0  0  0  0
   35.7510   29.2710   37.0630 C   0  0  0  0  0  3  0  0  0  0  0  0
   36.7090   29.8930   36.1570 C   0  0  0  0  0  3  0  0  0  0  0  0
   37.6780   31.0320   37.3650 S   0  0  0  0  0  0  0  0  0  0  0  0
  2  1  2  6  0  0  0
  2  3  1  0  0  0  0
  2  5  1  0  0  0  0
  3  4  1  0  0  0  0
  5  8  1  0  0  0  0
  6 11  1  0  0  0  0
  6 12  1  0  0  0  0
  7 13  1  0  0  0  0
  7  6  2  0  0  0  0
  8  9  2  0  0  0  0
  8  7  1  0  0  0  0
  9 10  1  0  0  0  0
 10 14  1  0  0  0  0
 10 11  2  0  0  0  0
 15  2  1  0  0  0  0
 16 17  2  0  0  0  0
 16 15  1  0  0  0  0
 18 16  1  0  0  0  0
 19 18  2  0  0  0  0
 19 20  1  0  0  0  0
 21 19  1  0  0  0  0
 22 21  2  0  0  0  0
 22 23  1  0  0  0  0
 23 18  1  0  0  0  0
M  END
>  <minimizedAffinity>
-4.36163378

$$$$

 OpenBabel03242522523D

 23 24  0  0  0  0  0  0  0  0999 V2000
   40.5920   30.6940   38.1590 O   0  0  0  0  0  0  0  0  0  0  0  0
   39.4380   31.7270   38.2790 P   0  0  2  0  0  0  0  0  0  0  0  0
   39.2400   32.3430   36.7290 O   0  0  0  0  0  0  0  0  0  0  0  0
   38.5850   33.0740   36.6630 H   0  0  0  0  0  0  0  0  0  0  0  0
   39.9480   32.9380   39.3360 O   0  0  0  0  0  0  0  0  0  0  0  0
   42.9000   33.2050   41.4390 C   0  0  0  0  0  0  0  0  0  0  0  0
   41.9670   33.4490   40.4120 C   0  0  0  0  0  0  0  0  0  0  0  0
   40.8370   32.6670   40.3540 C   0  0  0  0  0  0  0  0  0  0  0  0
   40.6850   31.7060   41.2900 N   0  0  0  0  0  0  0  0  0  0  0  0
   41.5640   31.4690   42.2660 C   0  0  0  0  0  0  0  0  0  0  0  0
   42.6770   32.2170   42.3460 N   0  0  0  0  0  0  0  0  0  0  0  0
   43.8170   33.7600   41.5720 H   0  0  0  0  0  0  0  0  0  0  0  0
   42.2850   34.2510   39.7930 H   0  0  0  0  0  0  0  0  0  0  0  0
   41.2950   30.6590   42.9390 H   0  0  0  0  0  0  0  0  0  0  0  0
   38.0910   30.9460   38.8310 O   0  0  0  0  0  0  0  0  0  0  0  0
   37.5830   30.7430   40.0490 C   0  0  0  0  0  0  0  0  0  0  0  0
   37.0250   31.7950   40.5880 O   0  0  0  0  0  0  0  0  0  0  0  0
   37.3610   29.6770   41.2060 C   0  0  0  0  0  0  0  0  0  0  0  0
   37.9190   29.6290   42.3910 C   0  0  0  0  0  0  0  0  0  0  0  0
   38.6570   30.4120   42.6430 H   0  0  0  0  0  0  0  0  0  0  0  0
   37.6210   28.6790   43.2720 C   0  0  0  0  0  3  0  0  0  0  0  0
   36.6310   27.7360   42.7670 C   0  0  0  0  0  3  0  0  0  0  0  0
   36.3010   28.4450   41.0110 S   0  0  0  0  0  0  0  0  0  0  0  0
  2  1  2  6  0  0  0
  2 15  1  0  0  0  0
  2  5  1  0  0  0  0
  3  2  1  0  0  0  0
  4  3  1  0  0  0  0
  5  8  1  0  0  0  0
  6 12  1  0  0  0  0
  6 11  1  0  0  0  0
  7  6  2  0  0  0  0
  8  7  1  0  0  0  0
  8  9  2  0  0  0  0
  9 10  1  0  0  0  0
 10 11  2  0  0  0  0
 10 14  1  0  0  0  0
 13  7  1  0  0  0  0
 15 16  1  0  0  0  0
 16 17  2  0  0  0  0
 16 18  1  0  0  0  0
 18 19  2  0  0  0  0
 19 20  1  0  0  0  0
 19 21  1  0  0  0  0
 22 21  2  0  0  0  0
 23 18  1  0  0  0  0
 23 22  1  0  0  0  0
M  END
>  <minimizedAffinity>
-4.26264906

$$$$

 OpenBabel03242522523D

 23 24  0  0  0  0  0  0  0  0999 V2000
   36.5660   31.0200   39.0840 O   0  0  0  0  0  0  0  0  0  0  0  0
   36.9070   30.5590   40.5280 P   0  0  2  0  0  0  0  0  0  0  0  0
   35.5760   30.9960   41.4540 O   0  0  0  0  0  0  0  0  0  0  0  0
   35.6810   30.8330   42.4180 H   0  0  0  0  0  0  0  0  0  0  0  0
   38.2770   31.4100   41.0230 O   0  0  0  0  0  0  0  0  0  0  0  0
   41.1500   29.8450   42.6040 C   0  0  0  0  0  0  0  0  0  0  0  0
   39.9090   30.4870   42.4290 C   0  0  0  0  0  0  0  0  0  0  0  0
   39.4980   30.7820   41.1510 C   0  0  0  0  0  0  0  0  0  0  0  0
   40.3110   30.4360   40.1300 N   0  0  0  0  0  0  0  0  0  0  0  0
   41.4880   29.8270   40.2870 C   0  0  0  0  0  0  0  0  0  0  0  0
   41.9150   29.5280   41.5260 N   0  0  0  0  0  0  0  0  0  0  0  0
   41.5640   29.5710   43.5640 H   0  0  0  0  0  0  0  0  0  0  0  0
   39.4370   30.6610   43.3650 H   0  0  0  0  0  0  0  0  0  0  0  0
   42.0220   29.6170   39.3640 H   0  0  0  0  0  0  0  0  0  0  0  0
   37.1620   28.9260   40.5100 O   0  0  0  0  0  0  0  0  0  0  0  0
   37.2560   28.0020   41.4680 C   0  0  0  0  0  0  0  0  0  0  0  0
   36.7080   28.3410   42.6060 O   0  0  0  0  0  0  0  0  0  0  0  0
   37.8020   26.5560   41.8340 C   0  0  0  0  0  0  0  0  0  0  0  0
   37.1620   25.4120   41.8140 C   0  0  0  0  0  0  0  0  0  0  0  0
   36.0970   25.4240   41.5200 H   0  0  0  0  0  0  0  0  0  0  0  0
   37.7570   24.2660   42.1330 C   0  0  0  0  0  3  0  0  0  0  0  0
   39.1590   24.4430   42.4930 C   0  0  0  0  0  3  0  0  0  0  0  0
   39.3590   26.3440   42.2900 S   0  0  0  0  0  0  0  0  0  0  0  0
  2  1  2  6  0  0  0
  2  5  1  0  0  0  0
  2  3  1  0  0  0  0
  3  4  1  0  0  0  0
  5  8  1  0  0  0  0
  6 12  1  0  0  0  0
  7  6  1  0  0  0  0
  7 13  1  0  0  0  0
  8  7  2  0  0  0  0
  9 10  2  0  0  0  0
  9  8  1  0  0  0  0
 10 11  1  0  0  0  0
 11  6  2  0  0  0  0
 14 10  1  0  0  0  0
 15  2  1  0  0  0  0
 15 16  1  0  0  0  0
 16 18  1  0  0  0  0
 16 17  2  0  0  0  0
 18 23  1  0  0  0  0
 19 18  2  0  0  0  0
 19 21  1  0  0  0  0
 20 19  1  0  0  0  0
 21 22  2  0  0  0  0
 23 22  1  0  0  0  0
M  END
>  <minimizedAffinity>
-4.23007584

$$$$
