
 OpenBabel03242522503D

 23 24  0  0  0  0  0  0  0  0999 V2000
   45.4490   30.8140   47.5580 O   0  0  0  0  0  0  0  0  0  0  0  0
   45.8000   32.0830   48.3820 P   0  0  2  0  0  0  0  0  0  0  0  0
   45.1850   31.7910   49.9180 O   0  0  0  0  0  0  0  0  0  0  0  0
   45.2660   32.5490   50.5390 H   0  0  0  0  0  0  0  0  0  0  0  0
   45.0090   33.3890   47.6670 O   0  0  0  0  0  0  0  0  0  0  0  0
   46.6870   33.5070   44.4460 C   0  0  0  0  0  0  0  0  0  0  0  0
   46.3290   33.1130   45.7500 C   0  0  0  0  0  0  0  0  0  0  0  0
   45.3310   33.8060   46.3930 C   0  0  0  0  0  0  0  0  0  0  0  0
   44.7480   34.8310   45.7350 N   0  0  0  0  0  0  0  0  0  0  0  0
   45.0810   35.2100   44.4990 C   0  0  0  0  0  0  0  0  0  0  0  0
   46.0530   34.5500   43.8470 N   0  0  0  0  0  0  0  0  0  0  0  0
   47.4560   33.0300   43.8560 H   0  0  0  0  0  0  0  0  0  0  0  0
   46.9120   32.2850   46.0700 H   0  0  0  0  0  0  0  0  0  0  0  0
   44.5160   36.0530   44.1100 H   0  0  0  0  0  0  0  0  0  0  0  0
   47.4420   32.2710   48.3800 O   0  0  0  0  0  0  0  0  0  0  0  0
   48.4610   31.4360   48.5910 C   0  0  0  0  0  0  0  0  0  0  0  0
   49.3530   31.8710   49.4430 O   0  0  0  0  0  0  0  0  0  0  0  0
   49.0940   30.0300   48.2090 C   0  0  0  0  0  0  0  0  0  0  0  0
   49.0150   29.3810   47.0720 C   0  0  0  0  0  0  0  0  0  0  0  0
   48.4270   29.8410   46.2570 H   0  0  0  0  0  0  0  0  0  0  0  0
   49.6150   28.2090   46.8870 C   0  0  0  0  0  3  0  0  0  0  0  0
   50.3430   27.7580   48.0670 C   0  0  0  0  0  3  0  0  0  0  0  0
   49.9990   29.2020   49.2900 S   0  0  0  0  0  0  0  0  0  0  0  0
  2  1  2  6  0  0  0
  2  3  1  0  0  0  0
  3  4  1  0  0  0  0
  5  2  1  0  0  0  0
  6  7  1  0  0  0  0
  7 13  1  0  0  0  0
  7  8  2  0  0  0  0
  8  5  1  0  0  0  0
  9  8  1  0  0  0  0
 10  9  2  0  0  0  0
 11  6  2  0  0  0  0
 11 10  1  0  0  0  0
 12  6  1  0  0  0  0
 14 10  1  0  0  0  0
 15  2  1  0  0  0  0
 15 16  1  0  0  0  0
 16 17  2  0  0  0  0
 18 16  1  0  0  0  0
 18 23  1  0  0  0  0
 19 18  2  0  0  0  0
 20 19  1  0  0  0  0
 21 19  1  0  0  0  0
 21 22  2  0  0  0  0
 22 23  1  0  0  0  0
M  END
>  <minimizedAffinity>
-4.47085333

>  <minimizedRMSD>
0.467978626

$$$$
