
 OpenBabel03242522503D

 23 24  0  0  0  0  0  0  0  0999 V2000
   45.4830   30.8150   47.5550 O   0  0  0  0  0  0  0  0  0  0  0  0
   45.8330   32.0990   48.3560 P   0  0  2  0  0  0  0  0  0  0  0  0
   45.2510   31.8200   49.9060 O   0  0  0  0  0  0  0  0  0  0  0  0
   45.3340   32.5880   50.5160 H   0  0  0  0  0  0  0  0  0  0  0  0
   45.0100   33.3850   47.6390 O   0  0  0  0  0  0  0  0  0  0  0  0
   46.6740   33.5310   44.4120 C   0  0  0  0  0  0  0  0  0  0  0  0
   46.3200   33.1240   45.7130 C   0  0  0  0  0  0  0  0  0  0  0  0
   45.3280   33.8140   46.3680 C   0  0  0  0  0  0  0  0  0  0  0  0
   44.7460   34.8480   45.7220 N   0  0  0  0  0  0  0  0  0  0  0  0
   45.0750   35.2390   44.4900 C   0  0  0  0  0  0  0  0  0  0  0  0
   46.0420   34.5820   43.8270 N   0  0  0  0  0  0  0  0  0  0  0  0
   47.4390   33.0570   43.8130 H   0  0  0  0  0  0  0  0  0  0  0  0
   46.9020   32.2910   46.0220 H   0  0  0  0  0  0  0  0  0  0  0  0
   44.5120   36.0890   44.1120 H   0  0  0  0  0  0  0  0  0  0  0  0
   47.4710   32.3100   48.3180 O   0  0  0  0  0  0  0  0  0  0  0  0
   48.5040   31.5150   48.6050 C   0  0  0  0  0  0  0  0  0  0  0  0
   49.4250   32.0680   49.3520 O   0  0  0  0  0  0  0  0  0  0  0  0
   49.1340   30.0720   48.3980 C   0  0  0  0  0  0  0  0  0  0  0  0
   48.5800   29.0050   47.8740 C   0  0  0  0  0  0  0  0  0  0  0  0
   47.5330   29.0860   47.5330 H   0  0  0  0  0  0  0  0  0  0  0  0
   49.2390   27.8580   47.7490 C   0  0  0  0  0  3  0  0  0  0  0  0
   50.6060   27.9370   48.2510 C   0  0  0  0  0  3  0  0  0  0  0  0
   50.6780   29.7670   48.8430 S   0  0  0  0  0  0  0  0  0  0  0  0
  2  1  2  6  0  0  0
  2  3  1  0  0  0  0
  3  4  1  0  0  0  0
  5  2  1  0  0  0  0
  6  7  1  0  0  0  0
  7 13  1  0  0  0  0
  7  8  2  0  0  0  0
  8  5  1  0  0  0  0
  9  8  1  0  0  0  0
 10  9  2  0  0  0  0
 11  6  2  0  0  0  0
 11 10  1  0  0  0  0
 12  6  1  0  0  0  0
 14 10  1  0  0  0  0
 15  2  1  0  0  0  0
 15 16  1  0  0  0  0
 16 17  2  0  0  0  0
 18 16  1  0  0  0  0
 18 23  1  0  0  0  0
 19 18  2  0  0  0  0
 20 19  1  0  0  0  0
 21 19  1  0  0  0  0
 21 22  2  0  0  0  0
 22 23  1  0  0  0  0
M  END
>  <minimizedAffinity>
-4.47210073

>  <minimizedRMSD>
0.163137943

$$$$
