
 OpenBabel03242514343D

 23 24  0  0  0  0  0  0  0  0999 V2000
   38.0900   30.2220   42.3800 O   0  0  0  0  0  0  0  0  0  0  0  0
   37.0760   29.8520   41.3410 P   0  0  1  0  0  0  0  0  0  0  0  0
   35.7850   30.9190   41.4730 O   0  0  0  0  0  0  0  0  0  0  0  0
   35.7230   31.2320   42.4100 H   0  0  0  0  0  0  0  0  0  0  0  0
   37.7700   29.9310   39.7730 O   0  0  0  0  0  0  0  0  0  0  0  0
   40.0900   30.3280   39.3330 C   0  0  0  0  0  0  0  0  0  0  0  0
   38.8080   30.8270   39.5020 C   0  0  0  0  0  0  0  0  0  0  0  0
   38.6000   32.2110   39.3970 C   0  0  0  0  0  0  0  0  0  0  0  0
   39.6930   32.9930   39.1290 N   0  0  0  0  0  0  0  0  0  0  0  0
   40.9130   32.4770   38.9720 C   0  0  0  0  0  0  0  0  0  0  0  0
   41.1060   31.1600   39.0740 N   0  0  0  0  0  0  0  0  0  0  0  0
   40.3460   29.2920   39.3940 H   0  0  0  0  0  0  0  0  0  0  0  0
   37.5980   32.5450   39.5350 H   0  0  0  0  0  0  0  0  0  0  0  0
   41.7320   33.1580   38.7620 H   0  0  0  0  0  0  0  0  0  0  0  0
   36.5350   28.3050   41.6470 O   0  0  0  0  0  0  0  0  0  0  0  0
   37.0190   27.4360   42.5500 C   0  0  0  0  0  0  0  0  0  0  0  0
   36.2680   27.3770   43.6020 O   0  0  0  0  0  0  0  0  0  0  0  0
   38.1280   26.4860   42.7930 C   0  0  0  0  0  0  0  0  0  0  0  0
   39.2570   26.7120   43.6580 C   0  0  0  0  0  0  0  0  0  0  0  0
   39.3330   27.6440   44.1880 H   0  0  0  0  0  0  0  0  0  0  0  0
   40.1150   25.6490   43.6790 C   0  0  0  0  0  3  0  0  0  0  0  0
   39.9470   24.5020   42.9760 C   0  0  0  0  0  3  0  0  0  0  0  0
   38.2870   24.8870   42.0750 S   0  0  0  0  0  0  0  0  0  0  0  0
  2  3  1  0  0  0  0
  2 15  1  0  0  0  0
  2  1  2  1  0  0  0
  3  4  1  0  0  0  0
  5  2  1  0  0  0  0
  6 12  1  0  0  0  0
  6  7  1  0  0  0  0
  7  5  1  0  0  0  0
  8  7  2  0  0  0  0
  8 13  1  0  0  0  0
  9  8  1  0  0  0  0
 10 11  1  0  0  0  0
 10  9  2  0  0  0  0
 11  6  2  0  0  0  0
 14 10  1  0  0  0  0
 15 16  1  0  0  0  0
 16 18  1  0  0  0  0
 16 17  2  0  0  0  0
 18 19  2  0  0  0  0
 19 21  1  0  0  0  0
 19 20  1  0  0  0  0
 22 21  2  0  0  0  0
 23 18  1  0  0  0  0
 23 22  1  0  0  0  0
M  END
>  <minimizedAffinity>
-4.73128939

$$$$

 OpenBabel03242514343D

 23 24  0  0  0  0  0  0  0  0999 V2000
   36.5570   30.6650   39.0690 O   0  0  0  0  0  0  0  0  0  0  0  0
   36.9340   31.1880   40.4220 P   0  0  1  0  0  0  0  0  0  0  0  0
   35.5700   31.1280   41.4000 O   0  0  0  0  0  0  0  0  0  0  0  0
   34.7640   31.2160   40.8320 H   0  0  0  0  0  0  0  0  0  0  0  0
   38.2050   30.2500   41.0940 O   0  0  0  0  0  0  0  0  0  0  0  0
   37.8870   27.8860   40.8890 C   0  0  0  0  0  0  0  0  0  0  0  0
   37.9340   29.0150   41.6900 C   0  0  0  0  0  0  0  0  0  0  0  0
   37.7070   28.8780   43.0690 C   0  0  0  0  0  0  0  0  0  0  0  0
   37.4500   27.6180   43.5420 N   0  0  0  0  0  0  0  0  0  0  0  0
   37.4140   26.5530   42.7390 C   0  0  0  0  0  0  0  0  0  0  0  0
   37.6290   26.6890   41.4290 N   0  0  0  0  0  0  0  0  0  0  0  0
   38.0460   27.8900   39.8320 H   0  0  0  0  0  0  0  0  0  0  0  0
   37.7540   29.7750   43.6410 H   0  0  0  0  0  0  0  0  0  0  0  0
   37.2040   25.5850   43.1850 H   0  0  0  0  0  0  0  0  0  0  0  0
   37.4200   32.7760   40.2650 O   0  0  0  0  0  0  0  0  0  0  0  0
   38.6590   33.2280   40.0120 C   0  0  0  0  0  0  0  0  0  0  0  0
   39.0010   34.1610   40.8400 O   0  0  0  0  0  0  0  0  0  0  0  0
   39.8170   33.0450   39.1090 C   0  0  0  0  0  0  0  0  0  0  0  0
   39.8660   32.1670   37.9690 C   0  0  0  0  0  0  0  0  0  0  0  0
   39.0020   31.5760   37.7240 H   0  0  0  0  0  0  0  0  0  0  0  0
   41.0720   32.2150   37.3280 C   0  0  0  0  0  3  0  0  0  0  0  0
   42.1200   32.9910   37.7030 C   0  0  0  0  0  3  0  0  0  0  0  0
   41.3680   33.8660   39.2470 S   0  0  0  0  0  0  0  0  0  0  0  0
  2  1  2  6  0  0  0
  2  5  1  0  0  0  0
  2  3  1  0  0  0  0
  4  3  1  0  0  0  0
  5  7  1  0  0  0  0
  6 11  2  0  0  0  0
  6  7  1  0  0  0  0
  7  8  2  0  0  0  0
  8  9  1  0  0  0  0
  8 13  1  0  0  0  0
 10 14  1  0  0  0  0
 10  9  2  0  0  0  0
 11 10  1  0  0  0  0
 12  6  1  0  0  0  0
 15  2  1  0  0  0  0
 16 15  1  0  0  0  0
 16 17  2  0  0  0  0
 18 23  1  0  0  0  0
 18 16  1  0  0  0  0
 19 18  2  0  0  0  0
 20 19  1  0  0  0  0
 21 22  2  0  0  0  0
 21 19  1  0  0  0  0
 22 23  1  0  0  0  0
M  END
>  <minimizedAffinity>
-4.68415737

$$$$

 OpenBabel03242514343D

 23 24  0  0  0  0  0  0  0  0999 V2000
   37.1930   29.3440   40.1250 O   0  0  0  0  0  0  0  0  0  0  0  0
   37.1200   30.2050   41.3500 P   0  0  1  0  0  0  0  0  0  0  0  0
   35.6600   31.0370   41.3130 O   0  0  0  0  0  0  0  0  0  0  0  0
   35.3870   31.1620   40.3700 H   0  0  0  0  0  0  0  0  0  0  0  0
   37.2340   29.2420   42.7660 O   0  0  0  0  0  0  0  0  0  0  0  0
   39.3880   28.2280   43.0180 C   0  0  0  0  0  0  0  0  0  0  0  0
   38.0300   28.0930   42.7790 C   0  0  0  0  0  0  0  0  0  0  0  0
   37.5050   26.8100   42.5580 C   0  0  0  0  0  0  0  0  0  0  0  0
   38.3810   25.7570   42.5930 N   0  0  0  0  0  0  0  0  0  0  0  0
   39.6830   25.9250   42.8270 C   0  0  0  0  0  0  0  0  0  0  0  0
   40.1780   27.1470   43.0370 N   0  0  0  0  0  0  0  0  0  0  0  0
   39.8780   29.1610   43.1980 H   0  0  0  0  0  0  0  0  0  0  0  0
   36.4560   26.7600   42.3780 H   0  0  0  0  0  0  0  0  0  0  0  0
   40.3180   25.0450   42.8400 H   0  0  0  0  0  0  0  0  0  0  0  0
   38.3730   31.3050   41.3070 O   0  0  0  0  0  0  0  0  0  0  0  0
   38.6640   32.1700   40.3210 C   0  0  0  0  0  0  0  0  0  0  0  0
   37.7260   33.0490   40.1700 O   0  0  0  0  0  0  0  0  0  0  0  0
   39.6960   32.5040   39.3140 C   0  0  0  0  0  0  0  0  0  0  0  0
   39.9580   31.7710   38.1020 C   0  0  0  0  0  0  0  0  0  0  0  0
   39.3720   30.8980   37.8790 H   0  0  0  0  0  0  0  0  0  0  0  0
   40.9720   32.3240   37.3710 C   0  0  0  0  0  3  0  0  0  0  0  0
   41.6680   33.4330   37.7240 C   0  0  0  0  0  3  0  0  0  0  0  0
   40.8080   33.8650   39.3940 S   0  0  0  0  0  0  0  0  0  0  0  0
  2  1  2  6  0  0  0
  2  5  1  0  0  0  0
  3  2  1  0  0  0  0
  4  3  1  0  0  0  0
  5  7  1  0  0  0  0
  6 11  1  0  0  0  0
  6 12  1  0  0  0  0
  7  6  2  0  0  0  0
  8  9  2  0  0  0  0
  8  7  1  0  0  0  0
  9 10  1  0  0  0  0
 10 14  1  0  0  0  0
 10 11  2  0  0  0  0
 13  8  1  0  0  0  0
 15  2  1  0  0  0  0
 16 15  1  0  0  0  0
 17 16  2  0  0  0  0
 18 23  1  0  0  0  0
 18 16  1  0  0  0  0
 19 18  2  0  0  0  0
 20 19  1  0  0  0  0
 21 22  2  0  0  0  0
 21 19  1  0  0  0  0
 22 23  1  0  0  0  0
M  END
>  <minimizedAffinity>
-4.60528517

$$$$

 OpenBabel03242514343D

 23 24  0  0  0  0  0  0  0  0999 V2000
   37.2460   29.4280   40.1470 O   0  0  0  0  0  0  0  0  0  0  0  0
   37.1980   30.2820   41.3780 P   0  0  1  0  0  0  0  0  0  0  0  0
   35.7560   31.1440   41.3550 O   0  0  0  0  0  0  0  0  0  0  0  0
   35.4810   31.2830   40.4150 H   0  0  0  0  0  0  0  0  0  0  0  0
   37.2990   29.3060   42.7870 O   0  0  0  0  0  0  0  0  0  0  0  0
   37.4680   26.9230   42.6280 C   0  0  0  0  0  0  0  0  0  0  0  0
   38.0870   28.1510   42.7930 C   0  0  0  0  0  0  0  0  0  0  0  0
   39.4800   28.1910   42.9610 C   0  0  0  0  0  0  0  0  0  0  0  0
   40.1490   26.9950   42.9510 N   0  0  0  0  0  0  0  0  0  0  0  0
   39.5190   25.8310   42.7880 C   0  0  0  0  0  0  0  0  0  0  0  0
   38.1940   25.7990   42.6290 N   0  0  0  0  0  0  0  0  0  0  0  0
   36.4150   26.7920   42.4920 H   0  0  0  0  0  0  0  0  0  0  0  0
   39.9080   29.1590   43.0850 H   0  0  0  0  0  0  0  0  0  0  0  0
   40.1140   24.9230   42.7920 H   0  0  0  0  0  0  0  0  0  0  0  0
   38.4730   31.3560   41.3360 O   0  0  0  0  0  0  0  0  0  0  0  0
   38.7290   32.2810   40.3960 C   0  0  0  0  0  0  0  0  0  0  0  0
   37.7110   33.0560   40.2060 O   0  0  0  0  0  0  0  0  0  0  0  0
   39.7790   32.7600   39.4710 C   0  0  0  0  0  0  0  0  0  0  0  0
   40.5190   33.9880   39.6000 C   0  0  0  0  0  0  0  0  0  0  0  0
   40.3140   34.6400   40.4300 H   0  0  0  0  0  0  0  0  0  0  0  0
   41.4250   34.1570   38.5910 C   0  0  0  0  0  3  0  0  0  0  0  0
   41.6250   33.2840   37.5730 C   0  0  0  0  0  3  0  0  0  0  0  0
   40.3380   31.9220   38.0270 S   0  0  0  0  0  0  0  0  0  0  0  0
  2  1  2  6  0  0  0
  2  5  1  0  0  0  0
  3  2  1  0  0  0  0
  4  3  1  0  0  0  0
  5  7  1  0  0  0  0
  6 11  2  0  0  0  0
  6  7  1  0  0  0  0
  7  8  2  0  0  0  0
  8 13  1  0  0  0  0
  9  8  1  0  0  0  0
 10 14  1  0  0  0  0
 10  9  2  0  0  0  0
 11 10  1  0  0  0  0
 12  6  1  0  0  0  0
 15  2  1  0  0  0  0
 16 15  1  0  0  0  0
 17 16  2  0  0  0  0
 18 19  2  0  0  0  0
 18 16  1  0  0  0  0
 19 20  1  0  0  0  0
 21 19  1  0  0  0  0
 22 23  1  0  0  0  0
 22 21  2  0  0  0  0
 23 18  1  0  0  0  0
M  END
>  <minimizedAffinity>
-4.56205177

$$$$

 OpenBabel03242514343D

 23 24  0  0  0  0  0  0  0  0999 V2000
   37.5600   29.7230   42.2470 O   0  0  0  0  0  0  0  0  0  0  0  0
   36.7280   30.0090   41.0340 P   0  0  1  0  0  0  0  0  0  0  0  0
   35.5720   31.1530   41.4570 O   0  0  0  0  0  0  0  0  0  0  0  0
   35.3690   31.0620   42.4220 H   0  0  0  0  0  0  0  0  0  0  0  0
   37.7140   30.5880   39.7540 O   0  0  0  0  0  0  0  0  0  0  0  0
   39.9040   31.5100   40.0430 C   0  0  0  0  0  0  0  0  0  0  0  0
   38.5360   31.7030   39.9420 C   0  0  0  0  0  0  0  0  0  0  0  0
   38.0260   33.0080   40.0330 C   0  0  0  0  0  0  0  0  0  0  0  0
   38.9270   34.0230   40.2180 N   0  0  0  0  0  0  0  0  0  0  0  0
   40.2390   33.8000   40.3100 C   0  0  0  0  0  0  0  0  0  0  0  0
   40.7190   32.5580   40.2230 N   0  0  0  0  0  0  0  0  0  0  0  0
   40.3850   30.5570   39.9850 H   0  0  0  0  0  0  0  0  0  0  0  0
   36.9680   33.1030   39.9500 H   0  0  0  0  0  0  0  0  0  0  0  0
   40.8930   34.6540   40.4570 H   0  0  0  0  0  0  0  0  0  0  0  0
   35.9570   28.6050   40.5700 O   0  0  0  0  0  0  0  0  0  0  0  0
   36.5270   27.4530   40.1810 C   0  0  0  0  0  0  0  0  0  0  0  0
   36.8510   27.4840   38.9290 O   0  0  0  0  0  0  0  0  0  0  0  0
   36.9400   26.1190   40.6710 C   0  0  0  0  0  0  0  0  0  0  0  0
   37.3570   25.8070   42.0140 C   0  0  0  0  0  0  0  0  0  0  0  0
   37.3840   26.5900   42.7500 H   0  0  0  0  0  0  0  0  0  0  0  0
   37.6770   24.4870   42.1640 C   0  0  0  0  0  3  0  0  0  0  0  0
   37.6180   23.5570   41.1790 C   0  0  0  0  0  3  0  0  0  0  0  0
   37.0030   24.6450   39.7120 S   0  0  0  0  0  0  0  0  0  0  0  0
  2  3  1  0  0  0  0
  2  1  2  1  0  0  0
  3  4  1  0  0  0  0
  5  7  1  0  0  0  0
  5  2  1  0  0  0  0
  6 11  1  0  0  0  0
  7  8  1  0  0  0  0
  7  6  2  0  0  0  0
  8  9  2  0  0  0  0
  9 10  1  0  0  0  0
 10 14  1  0  0  0  0
 11 10  2  0  0  0  0
 12  6  1  0  0  0  0
 13  8  1  0  0  0  0
 15  2  1  0  0  0  0
 16 15  1  0  0  0  0
 16 18  1  0  0  0  0
 17 16  2  0  0  0  0
 18 19  2  0  0  0  0
 19 21  1  0  0  0  0
 19 20  1  0  0  0  0
 22 21  2  0  0  0  0
 23 18  1  0  0  0  0
 23 22  1  0  0  0  0
M  END
>  <minimizedAffinity>
-4.55494452

$$$$

 OpenBabel03242514343D

 23 24  0  0  0  0  0  0  0  0999 V2000
   40.2570   31.2250   39.9100 O   0  0  0  0  0  0  0  0  0  0  0  0
   39.5890   32.0830   40.9420 P   0  0  1  0  0  0  0  0  0  0  0  0
   40.4880   33.4930   41.1050 O   0  0  0  0  0  0  0  0  0  0  0  0
   41.4320   33.2980   40.8840 H   0  0  0  0  0  0  0  0  0  0  0  0
   37.9780   32.4410   40.4700 O   0  0  0  0  0  0  0  0  0  0  0  0
   36.2910   30.8190   40.9770 C   0  0  0  0  0  0  0  0  0  0  0  0
   37.1210   31.4210   40.0450 C   0  0  0  0  0  0  0  0  0  0  0  0
   37.0730   30.9850   38.7120 C   0  0  0  0  0  0  0  0  0  0  0  0
   36.1940   29.9770   38.4110 N   0  0  0  0  0  0  0  0  0  0  0  0
   35.4090   29.4220   39.3350 C   0  0  0  0  0  0  0  0  0  0  0  0
   35.4590   29.8390   40.6020 N   0  0  0  0  0  0  0  0  0  0  0  0
   36.2560   31.0830   42.0130 H   0  0  0  0  0  0  0  0  0  0  0  0
   37.7310   31.4790   38.0350 H   0  0  0  0  0  0  0  0  0  0  0  0
   34.7380   28.6270   39.0240 H   0  0  0  0  0  0  0  0  0  0  0  0
   39.5890   31.2680   42.3970 O   0  0  0  0  0  0  0  0  0  0  0  0
   39.5150   29.9400   42.5880 C   0  0  0  0  0  0  0  0  0  0  0  0
   40.6770   29.4350   42.8520 O   0  0  0  0  0  0  0  0  0  0  0  0
   38.5660   28.8050   42.6130 C   0  0  0  0  0  0  0  0  0  0  0  0
   37.6260   28.5170   43.6650 C   0  0  0  0  0  0  0  0  0  0  0  0
   37.5850   29.1620   44.5230 H   0  0  0  0  0  0  0  0  0  0  0  0
   36.8810   27.4010   43.4030 C   0  0  0  0  0  3  0  0  0  0  0  0
   36.9950   26.6360   42.2890 C   0  0  0  0  0  3  0  0  0  0  0  0
   38.3930   27.5810   41.3600 S   0  0  0  0  0  0  0  0  0  0  0  0
  2  1  2  6  0  0  0
  2  3  1  0  0  0  0
  2 15  1  0  0  0  0
  4  3  1  0  0  0  0
  5  2  1  0  0  0  0
  6 12  1  0  0  0  0
  7  5  1  0  0  0  0
  7  6  2  0  0  0  0
  8  7  1  0  0  0  0
  9  8  2  0  0  0  0
  9 10  1  0  0  0  0
 10 11  2  0  0  0  0
 11  6  1  0  0  0  0
 13  8  1  0  0  0  0
 14 10  1  0  0  0  0
 15 16  1  0  0  0  0
 16 18  1  0  0  0  0
 16 17  2  0  0  0  0
 18 19  2  0  0  0  0
 19 20  1  0  0  0  0
 21 19  1  0  0  0  0
 22 21  2  0  0  0  0
 23 22  1  0  0  0  0
 23 18  1  0  0  0  0
M  END
>  <minimizedAffinity>
-4.46951866

$$$$

 OpenBabel03242514343D

 23 24  0  0  0  0  0  0  0  0999 V2000
   38.2290   30.5010   42.0730 O   0  0  0  0  0  0  0  0  0  0  0  0
   37.1940   30.1530   41.0460 P   0  0  1  0  0  0  0  0  0  0  0  0
   35.8050   31.0330   41.3900 O   0  0  0  0  0  0  0  0  0  0  0  0
   35.7710   31.2110   42.3630 H   0  0  0  0  0  0  0  0  0  0  0  0
   37.7690   30.5180   39.4700 O   0  0  0  0  0  0  0  0  0  0  0  0
   35.9740   29.7620   38.0770 C   0  0  0  0  0  0  0  0  0  0  0  0
   37.3290   29.7800   38.3680 C   0  0  0  0  0  0  0  0  0  0  0  0
   38.2080   29.0560   37.5460 C   0  0  0  0  0  0  0  0  0  0  0  0
   37.6630   28.3690   36.4940 N   0  0  0  0  0  0  0  0  0  0  0  0
   36.3530   28.3760   36.2440 C   0  0  0  0  0  0  0  0  0  0  0  0
   35.5210   29.0640   37.0280 N   0  0  0  0  0  0  0  0  0  0  0  0
   35.2300   30.2810   38.6420 H   0  0  0  0  0  0  0  0  0  0  0  0
   39.2390   29.1010   37.8120 H   0  0  0  0  0  0  0  0  0  0  0  0
   35.9920   27.8070   35.3920 H   0  0  0  0  0  0  0  0  0  0  0  0
   36.8480   28.5250   41.1640 O   0  0  0  0  0  0  0  0  0  0  0  0
   37.1960   27.6890   42.1550 C   0  0  0  0  0  0  0  0  0  0  0  0
   36.3140   27.6850   43.1020 O   0  0  0  0  0  0  0  0  0  0  0  0
   38.2450   26.7340   42.5770 C   0  0  0  0  0  0  0  0  0  0  0  0
   39.3330   27.0210   43.4760 C   0  0  0  0  0  0  0  0  0  0  0  0
   39.4210   28.0070   43.8950 H   0  0  0  0  0  0  0  0  0  0  0  0
   40.1400   25.9370   43.6770 C   0  0  0  0  0  3  0  0  0  0  0  0
   39.9600   24.7190   43.1070 C   0  0  0  0  0  3  0  0  0  0  0  0
   38.3730   25.0550   42.0670 S   0  0  0  0  0  0  0  0  0  0  0  0
  2 15  1  0  0  0  0
  2  3  1  0  0  0  0
  2  1  2  1  0  0  0
  3  4  1  0  0  0  0
  5  2  1  0  0  0  0
  6  7  1  0  0  0  0
  6 12  1  0  0  0  0
  7  5  1  0  0  0  0
  8 13  1  0  0  0  0
  8  7  2  0  0  0  0
  9  8  1  0  0  0  0
 10  9  2  0  0  0  0
 10 11  1  0  0  0  0
 11  6  2  0  0  0  0
 14 10  1  0  0  0  0
 15 16  1  0  0  0  0
 16 18  1  0  0  0  0
 16 17  2  0  0  0  0
 18 19  2  0  0  0  0
 19 21  1  0  0  0  0
 19 20  1  0  0  0  0
 22 21  2  0  0  0  0
 23 18  1  0  0  0  0
 23 22  1  0  0  0  0
M  END
>  <minimizedAffinity>
-4.44716549

$$$$

 OpenBabel03242514343D

 23 24  0  0  0  0  0  0  0  0999 V2000
   39.4380   32.3300   40.8250 O   0  0  0  0  0  0  0  0  0  0  0  0
   38.3350   32.2700   39.8120 P   0  0  1  0  0  0  0  0  0  0  0  0
   37.1950   33.4370   40.2160 O   0  0  0  0  0  0  0  0  0  0  0  0
   37.2190   33.5830   41.1950 H   0  0  0  0  0  0  0  0  0  0  0  0
   38.9540   32.5470   38.2360 O   0  0  0  0  0  0  0  0  0  0  0  0
   41.2470   32.9750   37.6970 C   0  0  0  0  0  0  0  0  0  0  0  0
   40.2170   32.0660   37.8770 C   0  0  0  0  0  0  0  0  0  0  0  0
   40.4780   30.6990   37.6910 C   0  0  0  0  0  0  0  0  0  0  0  0
   41.7540   30.3450   37.3390 N   0  0  0  0  0  0  0  0  0  0  0  0
   42.7210   31.2480   37.1760 C   0  0  0  0  0  0  0  0  0  0  0  0
   42.4680   32.5470   37.3530 N   0  0  0  0  0  0  0  0  0  0  0  0
   41.1460   34.0330   37.8160 H   0  0  0  0  0  0  0  0  0  0  0  0
   39.6530   30.0420   37.8400 H   0  0  0  0  0  0  0  0  0  0  0  0
   43.7090   30.8940   36.8960 H   0  0  0  0  0  0  0  0  0  0  0  0
   37.6200   30.7650   39.8880 O   0  0  0  0  0  0  0  0  0  0  0  0
   37.1440   30.1430   40.9790 C   0  0  0  0  0  0  0  0  0  0  0  0
   36.0360   30.6760   41.3820 O   0  0  0  0  0  0  0  0  0  0  0  0
   37.4230   29.0350   41.9190 C   0  0  0  0  0  0  0  0  0  0  0  0
   36.5120   27.9730   42.2640 C   0  0  0  0  0  0  0  0  0  0  0  0
   35.5340   27.9560   41.8190 H   0  0  0  0  0  0  0  0  0  0  0  0
   37.0550   27.0940   43.1590 C   0  0  0  0  0  3  0  0  0  0  0  0
   38.3050   27.1880   43.6780 C   0  0  0  0  0  3  0  0  0  0  0  0
   38.9250   28.7890   42.8030 S   0  0  0  0  0  0  0  0  0  0  0  0
  2 15  1  0  0  0  0
  2  3  1  0  0  0  0
  2  1  2  1  0  0  0
  3  4  1  0  0  0  0
  5  2  1  0  0  0  0
  6 12  1  0  0  0  0
  6  7  1  0  0  0  0
  7  5  1  0  0  0  0
  8 13  1  0  0  0  0
  8  7  2  0  0  0  0
  9  8  1  0  0  0  0
 10  9  2  0  0  0  0
 10 11  1  0  0  0  0
 11  6  2  0  0  0  0
 14 10  1  0  0  0  0
 15 16  1  0  0  0  0
 16 17  2  0  0  0  0
 16 18  1  0  0  0  0
 18 19  2  0  0  0  0
 18 23  1  0  0  0  0
 19 21  1  0  0  0  0
 20 19  1  0  0  0  0
 21 22  2  0  0  0  0
 23 22  1  0  0  0  0
M  END
>  <minimizedAffinity>
-4.33741474

$$$$

 OpenBabel03242514343D

 23 24  0  0  0  0  0  0  0  0999 V2000
   38.6880   31.6270   40.2240 O   0  0  0  0  0  0  0  0  0  0  0  0
   37.2440   31.8420   39.8850 P   0  0  1  0  0  0  0  0  0  0  0  0
   36.9080   33.4790   40.0600 O   0  0  0  0  0  0  0  0  0  0  0  0
   37.5150   33.8590   40.7440 H   0  0  0  0  0  0  0  0  0  0  0  0
   36.9230   31.3260   38.2800 O   0  0  0  0  0  0  0  0  0  0  0  0
   35.6390   29.4230   37.5980 C   0  0  0  0  0  0  0  0  0  0  0  0
   36.8580   29.9630   37.9740 C   0  0  0  0  0  0  0  0  0  0  0  0
   37.9820   29.1230   38.0350 C   0  0  0  0  0  0  0  0  0  0  0  0
   37.7990   27.8040   37.7140 N   0  0  0  0  0  0  0  0  0  0  0  0
   36.6090   27.3200   37.3550 C   0  0  0  0  0  0  0  0  0  0  0  0
   35.5440   28.1220   37.2990 N   0  0  0  0  0  0  0  0  0  0  0  0
   34.7300   29.9820   37.5220 H   0  0  0  0  0  0  0  0  0  0  0  0
   38.8950   29.5860   38.3300 H   0  0  0  0  0  0  0  0  0  0  0  0
   36.5390   26.2630   37.1150 H   0  0  0  0  0  0  0  0  0  0  0  0
   36.3070   30.9770   40.9600 O   0  0  0  0  0  0  0  0  0  0  0  0
   36.5040   29.7180   41.3830 C   0  0  0  0  0  0  0  0  0  0  0  0
   35.5320   28.9420   41.0280 O   0  0  0  0  0  0  0  0  0  0  0  0
   37.4550   28.8600   42.1240 C   0  0  0  0  0  0  0  0  0  0  0  0
   38.8820   28.8230   41.9310 C   0  0  0  0  0  0  0  0  0  0  0  0
   39.3280   29.4600   41.1900 H   0  0  0  0  0  0  0  0  0  0  0  0
   39.4950   27.9310   42.7660 C   0  0  0  0  0  3  0  0  0  0  0  0
   38.8570   27.1580   43.6790 C   0  0  0  0  0  3  0  0  0  0  0  0
   37.0340   27.7150   43.3930 S   0  0  0  0  0  0  0  0  0  0  0  0
  2  3  1  0  0  0  0
  2  1  2  1  0  0  0
  2 15  1  0  0  0  0
  3  4  1  0  0  0  0
  5  2  1  0  0  0  0
  6  7  1  0  0  0  0
  7  8  2  0  0  0  0
  7  5  1  0  0  0  0
  8 13  1  0  0  0  0
  9  8  1  0  0  0  0
 10  9  2  0  0  0  0
 11 10  1  0  0  0  0
 11  6  2  0  0  0  0
 12  6  1  0  0  0  0
 14 10  1  0  0  0  0
 15 16  1  0  0  0  0
 16 18  1  0  0  0  0
 17 16  2  0  0  0  0
 18 23  1  0  0  0  0
 19 18  2  0  0  0  0
 19 21  1  0  0  0  0
 20 19  1  0  0  0  0
 21 22  2  0  0  0  0
 23 22  1  0  0  0  0
M  END
>  <minimizedAffinity>
-4.31330824

$$$$
