
 OpenBabel03242519403D

 26 27  0  0  0  0  0  0  0  0999 V2000
   48.0340   32.9130   41.8280 O   0  0  0  0  0  0  0  0  0  0  0  0
   47.1800   34.1060   41.3240 P   0  0  2  0  0  0  0  0  0  0  0  0
   45.5800   33.9060   41.9070 O   0  0  0  0  0  0  0  0  0  0  0  0
   44.3840   35.9340   44.6920 C   0  0  0  0  0  0  0  0  0  0  0  0
   44.6710   35.5200   43.3690 C   0  0  0  0  0  0  0  0  0  0  0  0
   45.3120   34.2820   43.2080 C   0  0  0  0  0  0  0  0  0  0  0  0
   45.6150   33.5620   44.3080 N   0  0  0  0  0  0  0  0  0  0  0  0
   45.3270   33.9890   45.5570 C   0  0  0  0  0  0  0  0  0  0  0  0
   44.7160   35.1660   45.7580 N   0  0  0  0  0  0  0  0  0  0  0  0
   43.8910   36.8940   44.7700 H   0  0  0  0  0  0  0  0  0  0  0  0
   44.3970   36.1500   42.5400 H   0  0  0  0  0  0  0  0  0  0  0  0
   45.5870   33.3820   46.4170 H   0  0  0  0  0  0  0  0  0  0  0  0
   47.1550   34.0990   39.6670 O   0  0  0  0  0  0  0  0  0  0  0  0
   46.5950   33.2160   38.8150 C   0  0  0  0  0  0  0  0  0  0  0  0
   46.6770   33.3510   37.4830 O   0  0  0  0  0  0  0  0  0  0  0  0
   45.7470   31.8460   38.6650 C   0  0  0  0  0  0  0  0  0  0  0  0
   45.2110   31.0980   39.7330 C   0  0  0  0  0  0  0  0  0  0  0  0
   45.3570   31.4890   40.7630 H   0  0  0  0  0  0  0  0  0  0  0  0
   44.5670   29.9850   39.4940 C   0  0  0  0  0  3  0  0  0  0  0  0
   44.4970   29.6740   38.1190 C   0  0  0  0  0  3  0  0  0  0  0  0
   45.4530   31.1690   37.3550 S   0  0  0  0  0  0  0  0  0  0  0  0
   47.8320   35.4740   41.9860 O   0  0  0  0  0  0  0  0  0  0  0  0
   49.0700   35.8020   41.4510 C   0  0  0  0  0  0  0  0  0  0  0  0
   49.4830   37.0780   41.7940 F   0  0  0  0  0  0  0  0  0  0  0  0
   49.9820   34.8490   41.7680 F   0  0  0  0  0  0  0  0  0  0  0  0
   48.8980   35.8040   40.0650 F   0  0  0  0  0  0  0  0  0  0  0  0
  2  1  2  1  0  0  0
  2  3  1  0  0  0  0
  2 22  1  0  0  0  0
  3  6  1  0  0  0  0
  4 10  1  0  0  0  0
  4  9  1  0  0  0  0
  5  4  2  0  0  0  0
  6  5  1  0  0  0  0
  6  7  2  0  0  0  0
  7  8  1  0  0  0  0
  8  9  2  0  0  0  0
  8 12  1  0  0  0  0
 11  5  1  0  0  0  0
 13  2  1  0  0  0  0
 14 13  1  0  0  0  0
 15 14  2  0  0  0  0
 16 14  1  0  0  0  0
 16 17  2  0  0  0  0
 17 18  1  0  0  0  0
 19 17  1  0  0  0  0
 20 19  2  0  0  0  0
 21 20  1  0  0  0  0
 21 16  1  0  0  0  0
 23 25  1  0  0  0  0
 23 24  1  0  0  0  0
 23 22  1  0  0  0  0
 26 23  1  0  0  0  0
M  END
>  <minimizedAffinity>
-4.78432417

>  <minimizedRMSD>
0.710062325

$$$$
