
 OpenBabel03242519403D

 26 27  0  0  0  0  0  0  0  0999 V2000
   48.0120   32.9000   41.7540 O   0  0  0  0  0  0  0  0  0  0  0  0
   47.1570   34.1090   41.2910 P   0  0  2  0  0  0  0  0  0  0  0  0
   45.5640   33.9010   41.8890 O   0  0  0  0  0  0  0  0  0  0  0  0
   44.3940   35.9240   44.6890 C   0  0  0  0  0  0  0  0  0  0  0  0
   44.6690   35.5120   43.3630 C   0  0  0  0  0  0  0  0  0  0  0  0
   45.3070   34.2740   43.1940 C   0  0  0  0  0  0  0  0  0  0  0  0
   45.6180   33.5510   44.2890 N   0  0  0  0  0  0  0  0  0  0  0  0
   45.3410   33.9750   45.5420 C   0  0  0  0  0  0  0  0  0  0  0  0
   44.7330   35.1530   45.7500 N   0  0  0  0  0  0  0  0  0  0  0  0
   43.9020   36.8840   44.7730 H   0  0  0  0  0  0  0  0  0  0  0  0
   44.3890   36.1450   42.5370 H   0  0  0  0  0  0  0  0  0  0  0  0
   45.6070   33.3660   46.3980 H   0  0  0  0  0  0  0  0  0  0  0  0
   47.1110   34.1430   39.6350 O   0  0  0  0  0  0  0  0  0  0  0  0
   46.7250   33.1910   38.7610 C   0  0  0  0  0  0  0  0  0  0  0  0
   46.7050   33.3970   37.4360 O   0  0  0  0  0  0  0  0  0  0  0  0
   46.2100   31.6690   38.5740 C   0  0  0  0  0  0  0  0  0  0  0  0
   46.3850   30.8840   37.4160 C   0  0  0  0  0  0  0  0  0  0  0  0
   46.9440   31.3320   36.5680 H   0  0  0  0  0  0  0  0  0  0  0  0
   45.8980   29.6710   37.3680 C   0  0  0  0  0  3  0  0  0  0  0  0
   45.2260   29.3000   38.5520 C   0  0  0  0  0  3  0  0  0  0  0  0
   45.4360   30.9020   39.6120 S   0  0  0  0  0  0  0  0  0  0  0  0
   47.8240   35.4570   41.9790 O   0  0  0  0  0  0  0  0  0  0  0  0
   49.0620   35.7850   41.4460 C   0  0  0  0  0  0  0  0  0  0  0  0
   49.4780   37.0590   41.7950 F   0  0  0  0  0  0  0  0  0  0  0  0
   49.9730   34.8290   41.7590 F   0  0  0  0  0  0  0  0  0  0  0  0
   48.8910   35.7940   40.0600 F   0  0  0  0  0  0  0  0  0  0  0  0
  2  1  2  1  0  0  0
  2  3  1  0  0  0  0
  2 22  1  0  0  0  0
  3  6  1  0  0  0  0
  4 10  1  0  0  0  0
  4  9  1  0  0  0  0
  5  4  2  0  0  0  0
  6  5  1  0  0  0  0
  6  7  2  0  0  0  0
  7  8  1  0  0  0  0
  8  9  2  0  0  0  0
  8 12  1  0  0  0  0
 11  5  1  0  0  0  0
 13  2  1  0  0  0  0
 14 13  1  0  0  0  0
 15 14  2  0  0  0  0
 16 14  1  0  0  0  0
 16 21  1  0  0  0  0
 17 16  2  0  0  0  0
 18 17  1  0  0  0  0
 19 17  1  0  0  0  0
 19 20  2  0  0  0  0
 20 21  1  0  0  0  0
 23 25  1  0  0  0  0
 23 24  1  0  0  0  0
 23 22  1  0  0  0  0
 26 23  1  0  0  0  0
M  END
>  <minimizedAffinity>
-4.78634501

>  <minimizedRMSD>
0.410105467

$$$$
