
 OpenBabel03242519403D

 26 27  0  0  0  0  0  0  0  0999 V2000
   48.0140   32.8910   41.7720 O   0  0  0  0  0  0  0  0  0  0  0  0
   47.1610   34.0960   41.2980 P   0  0  2  0  0  0  0  0  0  0  0  0
   45.5660   33.8930   41.8910 O   0  0  0  0  0  0  0  0  0  0  0  0
   44.3880   35.9290   44.6790 C   0  0  0  0  0  0  0  0  0  0  0  0
   44.6670   35.5110   43.3550 C   0  0  0  0  0  0  0  0  0  0  0  0
   45.3050   34.2720   43.1930 C   0  0  0  0  0  0  0  0  0  0  0  0
   45.6120   33.5540   44.2930 N   0  0  0  0  0  0  0  0  0  0  0  0
   45.3320   33.9830   45.5430 C   0  0  0  0  0  0  0  0  0  0  0  0
   44.7230   35.1620   45.7440 N   0  0  0  0  0  0  0  0  0  0  0  0
   43.8960   36.8890   44.7570 H   0  0  0  0  0  0  0  0  0  0  0  0
   44.3890   36.1400   42.5260 H   0  0  0  0  0  0  0  0  0  0  0  0
   45.5950   33.3770   46.4020 H   0  0  0  0  0  0  0  0  0  0  0  0
   47.1220   34.1190   39.6410 O   0  0  0  0  0  0  0  0  0  0  0  0
   46.5690   33.2420   38.7780 C   0  0  0  0  0  0  0  0  0  0  0  0
   46.6980   33.3630   37.4480 O   0  0  0  0  0  0  0  0  0  0  0  0
   45.6940   31.8910   38.6110 C   0  0  0  0  0  0  0  0  0  0  0  0
   44.5640   31.5500   39.3820 C   0  0  0  0  0  0  0  0  0  0  0  0
   44.2270   32.2750   40.1540 H   0  0  0  0  0  0  0  0  0  0  0  0
   43.9510   30.4120   39.1780 C   0  0  0  0  0  3  0  0  0  0  0  0
   44.5440   29.6450   38.1530 C   0  0  0  0  0  3  0  0  0  0  0  0
   46.0010   30.7980   37.6250 S   0  0  0  0  0  0  0  0  0  0  0  0
   47.8260   35.4500   41.9780 O   0  0  0  0  0  0  0  0  0  0  0  0
   49.0620   35.7790   41.4410 C   0  0  0  0  0  0  0  0  0  0  0  0
   49.4770   37.0540   41.7870 F   0  0  0  0  0  0  0  0  0  0  0  0
   49.9750   34.8240   41.7540 F   0  0  0  0  0  0  0  0  0  0  0  0
   48.8880   35.7840   40.0560 F   0  0  0  0  0  0  0  0  0  0  0  0
  2  1  2  1  0  0  0
  2  3  1  0  0  0  0
  2 22  1  0  0  0  0
  3  6  1  0  0  0  0
  4 10  1  0  0  0  0
  4  9  1  0  0  0  0
  5  4  2  0  0  0  0
  6  5  1  0  0  0  0
  6  7  2  0  0  0  0
  7  8  1  0  0  0  0
  8  9  2  0  0  0  0
  8 12  1  0  0  0  0
 11  5  1  0  0  0  0
 13  2  1  0  0  0  0
 14 13  1  0  0  0  0
 15 14  2  0  0  0  0
 16 14  1  0  0  0  0
 16 17  2  0  0  0  0
 17 18  1  0  0  0  0
 19 17  1  0  0  0  0
 20 19  2  0  0  0  0
 21 20  1  0  0  0  0
 21 16  1  0  0  0  0
 23 25  1  0  0  0  0
 23 24  1  0  0  0  0
 23 22  1  0  0  0  0
 26 23  1  0  0  0  0
M  END
>  <minimizedAffinity>
-4.80672646

>  <minimizedRMSD>
0.686573148

$$$$
