
 OpenBabel03242519403D

 26 27  0  0  0  0  0  0  0  0999 V2000
   48.0360   32.9080   41.8340 O   0  0  0  0  0  0  0  0  0  0  0  0
   47.1780   34.0960   41.3250 P   0  0  2  0  0  0  0  0  0  0  0  0
   45.5790   33.8940   41.9100 O   0  0  0  0  0  0  0  0  0  0  0  0
   44.3850   35.9360   44.6860 C   0  0  0  0  0  0  0  0  0  0  0  0
   44.6720   35.5150   43.3650 C   0  0  0  0  0  0  0  0  0  0  0  0
   45.3110   34.2760   43.2100 C   0  0  0  0  0  0  0  0  0  0  0  0
   45.6130   33.5600   44.3130 N   0  0  0  0  0  0  0  0  0  0  0  0
   45.3250   33.9930   45.5600 C   0  0  0  0  0  0  0  0  0  0  0  0
   44.7150   35.1720   45.7560 N   0  0  0  0  0  0  0  0  0  0  0  0
   43.8930   36.8960   44.7600 H   0  0  0  0  0  0  0  0  0  0  0  0
   44.3990   36.1420   42.5330 H   0  0  0  0  0  0  0  0  0  0  0  0
   45.5840   33.3890   46.4220 H   0  0  0  0  0  0  0  0  0  0  0  0
   47.1520   34.0800   39.6680 O   0  0  0  0  0  0  0  0  0  0  0  0
   46.5130   33.2450   38.8220 C   0  0  0  0  0  0  0  0  0  0  0  0
   46.6510   33.3280   37.4900 O   0  0  0  0  0  0  0  0  0  0  0  0
   45.5100   31.9840   38.6810 C   0  0  0  0  0  0  0  0  0  0  0  0
   44.2350   31.8850   39.2750 C   0  0  0  0  0  0  0  0  0  0  0  0
   43.8740   32.7500   39.8690 H   0  0  0  0  0  0  0  0  0  0  0  0
   43.5220   30.8000   39.1160 C   0  0  0  0  0  3  0  0  0  0  0  0
   44.1700   29.8260   38.3260 C   0  0  0  0  0  3  0  0  0  0  0  0
   45.8300   30.7260   37.9210 S   0  0  0  0  0  0  0  0  0  0  0  0
   47.8260   35.4700   41.9790 O   0  0  0  0  0  0  0  0  0  0  0  0
   49.0650   35.7950   41.4450 C   0  0  0  0  0  0  0  0  0  0  0  0
   49.4820   37.0700   41.7910 F   0  0  0  0  0  0  0  0  0  0  0  0
   49.9750   34.8390   41.7610 F   0  0  0  0  0  0  0  0  0  0  0  0
   48.8940   35.8000   40.0590 F   0  0  0  0  0  0  0  0  0  0  0  0
  2  1  2  1  0  0  0
  2  3  1  0  0  0  0
  2 22  1  0  0  0  0
  3  6  1  0  0  0  0
  4 10  1  0  0  0  0
  4  9  1  0  0  0  0
  5  4  2  0  0  0  0
  6  5  1  0  0  0  0
  6  7  2  0  0  0  0
  7  8  1  0  0  0  0
  8  9  2  0  0  0  0
  8 12  1  0  0  0  0
 11  5  1  0  0  0  0
 13  2  1  0  0  0  0
 14 13  1  0  0  0  0
 15 14  2  0  0  0  0
 16 14  1  0  0  0  0
 16 17  2  0  0  0  0
 17 18  1  0  0  0  0
 19 17  1  0  0  0  0
 20 19  2  0  0  0  0
 21 20  1  0  0  0  0
 21 16  1  0  0  0  0
 23 25  1  0  0  0  0
 23 24  1  0  0  0  0
 23 22  1  0  0  0  0
 26 23  1  0  0  0  0
M  END
>  <minimizedAffinity>
-4.80624676

>  <minimizedRMSD>
0.816576242

$$$$
