
 OpenBabel03242519403D

 26 27  0  0  0  0  0  0  0  0999 V2000
   48.0410   32.8810   41.9840 O   0  0  0  0  0  0  0  0  0  0  0  0
   47.1610   34.0140   41.3920 P   0  0  2  0  0  0  0  0  0  0  0  0
   45.5640   33.8190   41.9830 O   0  0  0  0  0  0  0  0  0  0  0  0
   44.3760   35.9610   44.6850 C   0  0  0  0  0  0  0  0  0  0  0  0
   44.6660   35.4960   43.3800 C   0  0  0  0  0  0  0  0  0  0  0  0
   45.2920   34.2450   43.2680 C   0  0  0  0  0  0  0  0  0  0  0  0
   45.5770   33.5600   44.3950 N   0  0  0  0  0  0  0  0  0  0  0  0
   45.2860   34.0350   45.6260 C   0  0  0  0  0  0  0  0  0  0  0  0
   44.6890   35.2260   45.7800 N   0  0  0  0  0  0  0  0  0  0  0  0
   43.8950   36.9290   44.7250 H   0  0  0  0  0  0  0  0  0  0  0  0
   44.4070   36.1000   42.5270 H   0  0  0  0  0  0  0  0  0  0  0  0
   45.5310   33.4550   46.5080 H   0  0  0  0  0  0  0  0  0  0  0  0
   47.1450   33.8850   39.7400 O   0  0  0  0  0  0  0  0  0  0  0  0
   46.2340   33.3110   38.9260 C   0  0  0  0  0  0  0  0  0  0  0  0
   46.4280   33.1840   37.6050 O   0  0  0  0  0  0  0  0  0  0  0  0
   44.7940   32.5810   38.8270 C   0  0  0  0  0  0  0  0  0  0  0  0
   43.6340   33.1380   38.2510 C   0  0  0  0  0  0  0  0  0  0  0  0
   43.7150   34.1520   37.8050 H   0  0  0  0  0  0  0  0  0  0  0  0
   42.5130   32.4640   38.2530 C   0  0  0  0  0  3  0  0  0  0  0  0
   42.6330   31.2000   38.8680 C   0  0  0  0  0  3  0  0  0  0  0  0
   44.4970   31.2120   39.3750 S   0  0  0  0  0  0  0  0  0  0  0  0
   47.7780   35.4420   41.9540 O   0  0  0  0  0  0  0  0  0  0  0  0
   49.0210   35.7480   41.4170 C   0  0  0  0  0  0  0  0  0  0  0  0
   49.4630   37.0120   41.7700 F   0  0  0  0  0  0  0  0  0  0  0  0
   49.9130   34.7720   41.7200 F   0  0  0  0  0  0  0  0  0  0  0  0
   48.8430   35.7670   40.0320 F   0  0  0  0  0  0  0  0  0  0  0  0
  2 22  1  0  0  0  0
  2  3  1  0  0  0  0
  2  1  2  1  0  0  0
  3  6  1  0  0  0  0
  4 10  1  0  0  0  0
  4  9  1  0  0  0  0
  5  4  2  0  0  0  0
  6  5  1  0  0  0  0
  6  7  2  0  0  0  0
  7  8  1  0  0  0  0
  8  9  2  0  0  0  0
  8 12  1  0  0  0  0
 11  5  1  0  0  0  0
 13  2  1  0  0  0  0
 14 13  1  0  0  0  0
 15 14  2  0  0  0  0
 16 14  1  0  0  0  0
 16 21  1  0  0  0  0
 17 19  1  0  0  0  0
 17 16  2  0  0  0  0
 18 17  1  0  0  0  0
 19 20  2  0  0  0  0
 20 21  1  0  0  0  0
 23 25  1  0  0  0  0
 23 24  1  0  0  0  0
 23 22  1  0  0  0  0
 26 23  1  0  0  0  0
M  END
>  <minimizedAffinity>
-4.98035049

>  <minimizedRMSD>
1.54977226

$$$$
