
 OpenBabel03242519403D

 26 27  0  0  0  0  0  0  0  0999 V2000
   48.0080   32.8850   41.6950 O   0  0  0  0  0  0  0  0  0  0  0  0
   47.1480   34.1040   41.2710 P   0  0  2  0  0  0  0  0  0  0  0  0
   45.5610   33.8820   41.8810 O   0  0  0  0  0  0  0  0  0  0  0  0
   44.3960   35.9170   44.6740 C   0  0  0  0  0  0  0  0  0  0  0  0
   44.6680   35.4990   43.3490 C   0  0  0  0  0  0  0  0  0  0  0  0
   45.3080   34.2610   43.1840 C   0  0  0  0  0  0  0  0  0  0  0  0
   45.6250   33.5450   44.2820 N   0  0  0  0  0  0  0  0  0  0  0  0
   45.3520   33.9750   45.5340 C   0  0  0  0  0  0  0  0  0  0  0  0
   44.7420   35.1520   45.7380 N   0  0  0  0  0  0  0  0  0  0  0  0
   43.9030   36.8760   44.7550 H   0  0  0  0  0  0  0  0  0  0  0  0
   44.3830   36.1260   42.5220 H   0  0  0  0  0  0  0  0  0  0  0  0
   45.6230   33.3710   46.3920 H   0  0  0  0  0  0  0  0  0  0  0  0
   47.0840   34.1780   39.6170 O   0  0  0  0  0  0  0  0  0  0  0  0
   46.7960   33.2140   38.7180 C   0  0  0  0  0  0  0  0  0  0  0  0
   46.7730   33.4450   37.3980 O   0  0  0  0  0  0  0  0  0  0  0  0
   46.4210   31.6560   38.4950 C   0  0  0  0  0  0  0  0  0  0  0  0
   46.6970   30.9090   37.3300 C   0  0  0  0  0  0  0  0  0  0  0  0
   47.2370   31.4200   36.5050 H   0  0  0  0  0  0  0  0  0  0  0  0
   46.3200   29.6590   37.2500 C   0  0  0  0  0  3  0  0  0  0  0  0
   45.6500   29.2120   38.4080 C   0  0  0  0  0  3  0  0  0  0  0  0
   45.6890   30.8060   39.4970 S   0  0  0  0  0  0  0  0  0  0  0  0
   47.8220   35.4360   41.9840 O   0  0  0  0  0  0  0  0  0  0  0  0
   49.0580   35.7720   41.4510 C   0  0  0  0  0  0  0  0  0  0  0  0
   49.4600   37.0530   41.7900 F   0  0  0  0  0  0  0  0  0  0  0  0
   49.9780   34.8280   41.7730 F   0  0  0  0  0  0  0  0  0  0  0  0
   48.8900   35.7670   40.0640 F   0  0  0  0  0  0  0  0  0  0  0  0
  2  1  2  1  0  0  0
  2  3  1  0  0  0  0
  2 22  1  0  0  0  0
  3  6  1  0  0  0  0
  4 10  1  0  0  0  0
  4  9  1  0  0  0  0
  5  4  2  0  0  0  0
  6  5  1  0  0  0  0
  6  7  2  0  0  0  0
  7  8  1  0  0  0  0
  8  9  2  0  0  0  0
  8 12  1  0  0  0  0
 11  5  1  0  0  0  0
 13  2  1  0  0  0  0
 14 13  1  0  0  0  0
 15 14  2  0  0  0  0
 16 14  1  0  0  0  0
 16 21  1  0  0  0  0
 17 16  2  0  0  0  0
 18 17  1  0  0  0  0
 19 17  1  0  0  0  0
 19 20  2  0  0  0  0
 20 21  1  0  0  0  0
 23 25  1  0  0  0  0
 23 24  1  0  0  0  0
 23 22  1  0  0  0  0
 26 23  1  0  0  0  0
M  END
>  <minimizedAffinity>
-4.78497362

>  <minimizedRMSD>
0.332704097

$$$$
