
 OpenBabel03242519403D

 26 27  0  0  0  0  0  0  0  0999 V2000
   48.0200   32.8930   41.6830 O   0  0  0  0  0  0  0  0  0  0  0  0
   47.1540   34.1100   41.2650 P   0  0  2  0  0  0  0  0  0  0  0  0
   45.5690   33.8780   41.8760 O   0  0  0  0  0  0  0  0  0  0  0  0
   44.3960   35.9140   44.6650 C   0  0  0  0  0  0  0  0  0  0  0  0
   44.6690   35.4950   43.3410 C   0  0  0  0  0  0  0  0  0  0  0  0
   45.3140   34.2590   43.1790 C   0  0  0  0  0  0  0  0  0  0  0  0
   45.6340   33.5460   44.2790 N   0  0  0  0  0  0  0  0  0  0  0  0
   45.3580   33.9780   45.5290 C   0  0  0  0  0  0  0  0  0  0  0  0
   44.7430   35.1530   45.7310 N   0  0  0  0  0  0  0  0  0  0  0  0
   43.8980   36.8720   44.7440 H   0  0  0  0  0  0  0  0  0  0  0  0
   44.3820   36.1190   42.5120 H   0  0  0  0  0  0  0  0  0  0  0  0
   45.6310   33.3760   46.3890 H   0  0  0  0  0  0  0  0  0  0  0  0
   47.0880   34.1910   39.6110 O   0  0  0  0  0  0  0  0  0  0  0  0
   46.8340   33.2220   38.7080 C   0  0  0  0  0  0  0  0  0  0  0  0
   46.7800   33.4630   37.3900 O   0  0  0  0  0  0  0  0  0  0  0  0
   46.5320   31.6490   38.4740 C   0  0  0  0  0  0  0  0  0  0  0  0
   46.0750   30.7500   39.4600 C   0  0  0  0  0  0  0  0  0  0  0  0
   45.8800   31.1530   40.4760 H   0  0  0  0  0  0  0  0  0  0  0  0
   45.8940   29.4890   39.1620 C   0  0  0  0  0  3  0  0  0  0  0  0
   46.2000   29.1920   37.8180 C   0  0  0  0  0  3  0  0  0  0  0  0
   46.7400   30.9300   37.1690 S   0  0  0  0  0  0  0  0  0  0  0  0
   47.8230   35.4420   41.9820 O   0  0  0  0  0  0  0  0  0  0  0  0
   49.0610   35.7810   41.4550 C   0  0  0  0  0  0  0  0  0  0  0  0
   49.4590   37.0630   41.7960 F   0  0  0  0  0  0  0  0  0  0  0  0
   49.9810   34.8380   41.7810 F   0  0  0  0  0  0  0  0  0  0  0  0
   48.8990   35.7770   40.0680 F   0  0  0  0  0  0  0  0  0  0  0  0
  2  1  2  1  0  0  0
  2  3  1  0  0  0  0
  2 22  1  0  0  0  0
  3  6  1  0  0  0  0
  4 10  1  0  0  0  0
  4  9  1  0  0  0  0
  5  4  2  0  0  0  0
  6  5  1  0  0  0  0
  6  7  2  0  0  0  0
  7  8  1  0  0  0  0
  8  9  2  0  0  0  0
  8 12  1  0  0  0  0
 11  5  1  0  0  0  0
 13  2  1  0  0  0  0
 14 13  1  0  0  0  0
 15 14  2  0  0  0  0
 16 14  1  0  0  0  0
 16 17  2  0  0  0  0
 17 18  1  0  0  0  0
 19 17  1  0  0  0  0
 20 19  2  0  0  0  0
 21 20  1  0  0  0  0
 21 16  1  0  0  0  0
 23 25  1  0  0  0  0
 23 24  1  0  0  0  0
 23 22  1  0  0  0  0
 26 23  1  0  0  0  0
M  END
>  <minimizedAffinity>
-4.7639761

>  <minimizedRMSD>
0.319024742

$$$$
