
 OpenBabel03242519403D

 26 27  0  0  0  0  0  0  0  0999 V2000
   48.0320   32.9110   41.8110 O   0  0  0  0  0  0  0  0  0  0  0  0
   47.1750   34.1060   41.3160 P   0  0  2  0  0  0  0  0  0  0  0  0
   45.5770   33.9020   41.9040 O   0  0  0  0  0  0  0  0  0  0  0  0
   44.3880   35.9330   44.6900 C   0  0  0  0  0  0  0  0  0  0  0  0
   44.6720   35.5170   43.3660 C   0  0  0  0  0  0  0  0  0  0  0  0
   45.3120   34.2790   43.2050 C   0  0  0  0  0  0  0  0  0  0  0  0
   45.6160   33.5590   44.3050 N   0  0  0  0  0  0  0  0  0  0  0  0
   45.3310   33.9870   45.5540 C   0  0  0  0  0  0  0  0  0  0  0  0
   44.7200   35.1650   45.7550 N   0  0  0  0  0  0  0  0  0  0  0  0
   43.8950   36.8930   44.7680 H   0  0  0  0  0  0  0  0  0  0  0  0
   44.3970   36.1470   42.5370 H   0  0  0  0  0  0  0  0  0  0  0  0
   45.5910   33.3810   46.4140 H   0  0  0  0  0  0  0  0  0  0  0  0
   47.1450   34.1070   39.6600 O   0  0  0  0  0  0  0  0  0  0  0  0
   46.6410   33.1930   38.8040 C   0  0  0  0  0  0  0  0  0  0  0  0
   46.6700   33.3610   37.4730 O   0  0  0  0  0  0  0  0  0  0  0  0
   45.9160   31.7550   38.6480 C   0  0  0  0  0  0  0  0  0  0  0  0
   45.5350   31.1620   37.4270 C   0  0  0  0  0  0  0  0  0  0  0  0
   45.7680   31.7110   36.4900 H   0  0  0  0  0  0  0  0  0  0  0  0
   44.9260   30.0030   37.4230 C   0  0  0  0  0  3  0  0  0  0  0  0
   44.7290   29.4830   38.7200 C   0  0  0  0  0  3  0  0  0  0  0  0
   45.5220   30.8740   39.8010 S   0  0  0  0  0  0  0  0  0  0  0  0
   47.8290   35.4710   41.9830 O   0  0  0  0  0  0  0  0  0  0  0  0
   49.0670   35.7990   41.4500 C   0  0  0  0  0  0  0  0  0  0  0  0
   49.4800   37.0750   41.7930 F   0  0  0  0  0  0  0  0  0  0  0  0
   49.9790   34.8450   41.7690 F   0  0  0  0  0  0  0  0  0  0  0  0
   48.8980   35.8000   40.0640 F   0  0  0  0  0  0  0  0  0  0  0  0
  2  1  2  1  0  0  0
  2  3  1  0  0  0  0
  2 22  1  0  0  0  0
  3  6  1  0  0  0  0
  4 10  1  0  0  0  0
  4  9  1  0  0  0  0
  5  4  2  0  0  0  0
  6  5  1  0  0  0  0
  6  7  2  0  0  0  0
  7  8  1  0  0  0  0
  8  9  2  0  0  0  0
  8 12  1  0  0  0  0
 11  5  1  0  0  0  0
 13  2  1  0  0  0  0
 14 13  1  0  0  0  0
 15 14  2  0  0  0  0
 16 14  1  0  0  0  0
 16 21  1  0  0  0  0
 17 16  2  0  0  0  0
 18 17  1  0  0  0  0
 19 17  1  0  0  0  0
 19 20  2  0  0  0  0
 20 21  1  0  0  0  0
 23 25  1  0  0  0  0
 23 24  1  0  0  0  0
 23 22  1  0  0  0  0
 26 23  1  0  0  0  0
M  END
>  <minimizedAffinity>
-4.79715586

>  <minimizedRMSD>
0.493072838

$$$$
