
 OpenBabel03242519403D

 26 27  0  0  0  0  0  0  0  0999 V2000
   48.1350   32.8880   41.6330 O   0  0  0  0  0  0  0  0  0  0  0  0
   47.2000   34.0610   41.2380 P   0  0  2  0  0  0  0  0  0  0  0  0
   45.6410   33.7460   41.8760 O   0  0  0  0  0  0  0  0  0  0  0  0
   44.4090   35.8610   44.5800 C   0  0  0  0  0  0  0  0  0  0  0  0
   44.7000   35.3980   43.2750 C   0  0  0  0  0  0  0  0  0  0  0  0
   45.3690   34.1690   43.1630 C   0  0  0  0  0  0  0  0  0  0  0  0
   45.6930   33.5030   44.2900 N   0  0  0  0  0  0  0  0  0  0  0  0
   45.4000   33.9750   45.5210 C   0  0  0  0  0  0  0  0  0  0  0  0
   44.7620   35.1450   45.6760 N   0  0  0  0  0  0  0  0  0  0  0  0
   43.8940   36.8110   44.6210 H   0  0  0  0  0  0  0  0  0  0  0  0
   44.4090   35.9860   42.4210 H   0  0  0  0  0  0  0  0  0  0  0  0
   45.6760   33.4100   46.4040 H   0  0  0  0  0  0  0  0  0  0  0  0
   47.1000   34.1460   39.5860 O   0  0  0  0  0  0  0  0  0  0  0  0
   46.8230   33.1790   38.6860 C   0  0  0  0  0  0  0  0  0  0  0  0
   46.6200   33.4430   37.3870 O   0  0  0  0  0  0  0  0  0  0  0  0
   46.6080   31.5950   38.4410 C   0  0  0  0  0  0  0  0  0  0  0  0
   46.9860   30.5710   39.3350 C   0  0  0  0  0  0  0  0  0  0  0  0
   47.4470   30.8720   40.2990 H   0  0  0  0  0  0  0  0  0  0  0  0
   46.7890   29.3190   39.0150 C   0  0  0  0  0  3  0  0  0  0  0  0
   46.1920   29.1600   37.7460 C   0  0  0  0  0  3  0  0  0  0  0  0
   46.0060   31.0030   37.1960 S   0  0  0  0  0  0  0  0  0  0  0  0
   47.8140   35.4220   41.9500 O   0  0  0  0  0  0  0  0  0  0  0  0
   49.0570   35.7860   41.4500 C   0  0  0  0  0  0  0  0  0  0  0  0
   49.4280   37.0700   41.8130 F   0  0  0  0  0  0  0  0  0  0  0  0
   49.9840   34.8540   41.7840 F   0  0  0  0  0  0  0  0  0  0  0  0
   48.9220   35.7940   40.0600 F   0  0  0  0  0  0  0  0  0  0  0  0
  2  1  2  1  0  0  0
  2  3  1  0  0  0  0
  2 22  1  0  0  0  0
  3  6  1  0  0  0  0
  4 10  1  0  0  0  0
  4  9  1  0  0  0  0
  5  4  2  0  0  0  0
  6  5  1  0  0  0  0
  6  7  2  0  0  0  0
  7  8  1  0  0  0  0
  8  9  2  0  0  0  0
  8 12  1  0  0  0  0
 11  5  1  0  0  0  0
 13  2  1  0  0  0  0
 14 13  1  0  0  0  0
 15 14  2  0  0  0  0
 16 14  1  0  0  0  0
 16 17  2  0  0  0  0
 17 18  1  0  0  0  0
 19 17  1  0  0  0  0
 20 19  2  0  0  0  0
 21 20  1  0  0  0  0
 21 16  1  0  0  0  0
 23 25  1  0  0  0  0
 23 24  1  0  0  0  0
 23 22  1  0  0  0  0
 26 23  1  0  0  0  0
M  END
>  <minimizedAffinity>
-4.76280022

>  <minimizedRMSD>
0.342082888

$$$$
