
 OpenBabel03242519433D

 26 27  0  0  0  0  0  0  0  0999 V2000
   37.8180   29.6290   39.7680 O   0  0  0  0  0  0  0  0  0  0  0  0
   37.0470   30.3370   40.9130 P   0  0  2  0  0  0  0  0  0  0  0  0
   37.6220   31.9480   41.0320 O   0  0  0  0  0  0  0  0  0  0  0  0
   40.5690   33.2080   39.2900 C   0  0  0  0  0  0  0  0  0  0  0  0
   39.2130   32.9500   39.6050 C   0  0  0  0  0  0  0  0  0  0  0  0
   38.9540   32.1840   40.7520 C   0  0  0  0  0  0  0  0  0  0  0  0
   39.9970   31.7410   41.4830 N   0  0  0  0  0  0  0  0  0  0  0  0
   41.2800   32.0050   41.1530 C   0  0  0  0  0  0  0  0  0  0  0  0
   41.5740   32.7330   40.0650 N   0  0  0  0  0  0  0  0  0  0  0  0
   40.7220   33.8010   38.3980 H   0  0  0  0  0  0  0  0  0  0  0  0
   38.4330   33.3390   38.9720 H   0  0  0  0  0  0  0  0  0  0  0  0
   42.0920   31.6320   41.7660 H   0  0  0  0  0  0  0  0  0  0  0  0
   37.3460   29.5510   42.3410 O   0  0  0  0  0  0  0  0  0  0  0  0
   38.0590   28.4310   42.5780 C   0  0  0  0  0  0  0  0  0  0  0  0
   39.2200   28.4450   43.2490 O   0  0  0  0  0  0  0  0  0  0  0  0
   38.1380   26.8250   42.3940 C   0  0  0  0  0  0  0  0  0  0  0  0
   37.0290   25.9600   42.2950 C   0  0  0  0  0  0  0  0  0  0  0  0
   36.0150   26.4140   42.3200 H   0  0  0  0  0  0  0  0  0  0  0  0
   37.2130   24.6700   42.1770 C   0  0  0  0  0  3  0  0  0  0  0  0
   38.5770   24.3080   42.1660 C   0  0  0  0  0  3  0  0  0  0  0  0
   39.4180   26.0390   42.3410 S   0  0  0  0  0  0  0  0  0  0  0  0
   35.4530   30.3610   40.4730 O   0  0  0  0  0  0  0  0  0  0  0  0
   35.0660   29.2320   39.7650 C   0  0  0  0  0  0  0  0  0  0  0  0
   35.3830   29.3060   38.4190 F   0  0  0  0  0  0  0  0  0  0  0  0
   35.5570   28.1160   40.3620 F   0  0  0  0  0  0  0  0  0  0  0  0
   33.6720   29.1930   39.8390 F   0  0  0  0  0  0  0  0  0  0  0  0
  2  1  2  6  0  0  0
  2  3  1  0  0  0  0
  2 13  1  0  0  0  0
  4  5  2  0  0  0  0
  4  9  1  0  0  0  0
  5  6  1  0  0  0  0
  6  3  1  0  0  0  0
  6  7  2  0  0  0  0
  8  7  1  0  0  0  0
  8 12  1  0  0  0  0
  9  8  2  0  0  0  0
 10  4  1  0  0  0  0
 11  5  1  0  0  0  0
 13 14  1  0  0  0  0
 14 15  2  0  0  0  0
 16 14  1  0  0  0  0
 17 18  1  0  0  0  0
 17 16  2  0  0  0  0
 19 17  1  0  0  0  0
 20 19  2  0  0  0  0
 20 21  1  0  0  0  0
 21 16  1  0  0  0  0
 22  2  1  0  0  0  0
 23 26  1  0  0  0  0
 23 25  1  0  0  0  0
 23 22  1  0  0  0  0
 24 23  1  0  0  0  0
M  END
>  <minimizedAffinity>
-4.70525885

$$$$

 OpenBabel03242519433D

 26 27  0  0  0  0  0  0  0  0999 V2000
   38.2680   30.1220   39.8160 O   0  0  0  0  0  0  0  0  0  0  0  0
   37.0130   30.6200   40.5810 P   0  0  2  0  0  0  0  0  0  0  0  0
   37.0800   30.0080   42.1800 O   0  0  0  0  0  0  0  0  0  0  0  0
   39.1390   27.2420   43.3700 C   0  0  0  0  0  0  0  0  0  0  0  0
   38.6600   28.5590   43.1670 C   0  0  0  0  0  0  0  0  0  0  0  0
   37.5220   28.7120   42.3610 C   0  0  0  0  0  0  0  0  0  0  0  0
   36.9510   27.6110   41.8300 N   0  0  0  0  0  0  0  0  0  0  0  0
   37.4350   26.3680   42.0440 C   0  0  0  0  0  0  0  0  0  0  0  0
   38.5210   26.1740   42.8080 N   0  0  0  0  0  0  0  0  0  0  0  0
   40.0170   27.1700   43.9970 H   0  0  0  0  0  0  0  0  0  0  0  0
   39.1700   29.3890   43.6260 H   0  0  0  0  0  0  0  0  0  0  0  0
   36.9490   25.5070   41.6000 H   0  0  0  0  0  0  0  0  0  0  0  0
   35.6530   30.0380   39.8360 O   0  0  0  0  0  0  0  0  0  0  0  0
   35.5330   29.2460   38.7500 C   0  0  0  0  0  0  0  0  0  0  0  0
   35.3260   27.9240   38.8440 O   0  0  0  0  0  0  0  0  0  0  0  0
   35.5110   29.1770   37.1340 C   0  0  0  0  0  0  0  0  0  0  0  0
   36.5590   29.5890   36.2860 C   0  0  0  0  0  0  0  0  0  0  0  0
   37.4880   29.9710   36.7600 H   0  0  0  0  0  0  0  0  0  0  0  0
   36.4180   29.5150   34.9870 C   0  0  0  0  0  3  0  0  0  0  0  0
   35.1620   29.0010   34.5990 C   0  0  0  0  0  3  0  0  0  0  0  0
   34.3420   28.6930   36.3210 S   0  0  0  0  0  0  0  0  0  0  0  0
   37.1060   32.2720   40.6270 O   0  0  0  0  0  0  0  0  0  0  0  0
   37.4700   32.8310   39.4100 C   0  0  0  0  0  0  0  0  0  0  0  0
   38.8420   32.9240   39.2490 F   0  0  0  0  0  0  0  0  0  0  0  0
   36.8620   32.1690   38.3930 F   0  0  0  0  0  0  0  0  0  0  0  0
   36.9870   34.1410   39.4330 F   0  0  0  0  0  0  0  0  0  0  0  0
  2  1  2  6  0  0  0
  2 22  1  0  0  0  0
  2  3  1  0  0  0  0
  3  6  1  0  0  0  0
  4 10  1  0  0  0  0
  5  4  1  0  0  0  0
  5 11  1  0  0  0  0
  6  5  2  0  0  0  0
  7  8  2  0  0  0  0
  7  6  1  0  0  0  0
  8  9  1  0  0  0  0
  9  4  2  0  0  0  0
 12  8  1  0  0  0  0
 13  2  1  0  0  0  0
 14 15  2  0  0  0  0
 14 13  1  0  0  0  0
 16 14  1  0  0  0  0
 17 18  1  0  0  0  0
 17 16  2  0  0  0  0
 19 17  1  0  0  0  0
 20 19  2  0  0  0  0
 20 21  1  0  0  0  0
 21 16  1  0  0  0  0
 23 26  1  0  0  0  0
 23 22  1  0  0  0  0
 24 23  1  0  0  0  0
 25 23  1  0  0  0  0
M  END
>  <minimizedAffinity>
-4.61595488

$$$$

 OpenBabel03242519433D

 26 27  0  0  0  0  0  0  0  0999 V2000
   38.9280   29.9060   40.0320 O   0  0  0  0  0  0  0  0  0  0  0  0
   37.8150   30.8590   40.5410 P   0  0  2  0  0  0  0  0  0  0  0  0
   37.0200   30.1040   41.8580 O   0  0  0  0  0  0  0  0  0  0  0  0
   37.1850   26.4670   42.0800 C   0  0  0  0  0  0  0  0  0  0  0  0
   36.7630   27.7630   41.6980 C   0  0  0  0  0  0  0  0  0  0  0  0
   37.4560   28.8530   42.2480 C   0  0  0  0  0  0  0  0  0  0  0  0
   38.4750   28.6100   43.0980 N   0  0  0  0  0  0  0  0  0  0  0  0
   38.8510   27.3590   43.4420 C   0  0  0  0  0  0  0  0  0  0  0  0
   38.2160   26.2880   42.9410 N   0  0  0  0  0  0  0  0  0  0  0  0
   36.6240   25.6570   41.6340 H   0  0  0  0  0  0  0  0  0  0  0  0
   35.9410   27.8780   41.0120 H   0  0  0  0  0  0  0  0  0  0  0  0
   39.6750   27.2030   44.1290 H   0  0  0  0  0  0  0  0  0  0  0  0
   36.7190   31.1170   39.3250 O   0  0  0  0  0  0  0  0  0  0  0  0
   36.5110   30.4230   38.1870 C   0  0  0  0  0  0  0  0  0  0  0  0
   37.2670   30.5930   37.0930 O   0  0  0  0  0  0  0  0  0  0  0  0
   35.6230   29.2900   37.4480 C   0  0  0  0  0  0  0  0  0  0  0  0
   34.5270   28.6110   38.0190 C   0  0  0  0  0  0  0  0  0  0  0  0
   34.2280   28.8900   39.0520 H   0  0  0  0  0  0  0  0  0  0  0  0
   33.8990   27.6890   37.3350 C   0  0  0  0  0  3  0  0  0  0  0  0
   34.4430   27.4950   36.0480 C   0  0  0  0  0  3  0  0  0  0  0  0
   35.8800   28.7850   36.0550 S   0  0  0  0  0  0  0  0  0  0  0  0
   38.5690   32.2310   41.0760 O   0  0  0  0  0  0  0  0  0  0  0  0
   38.5940   33.2440   40.1270 C   0  0  0  0  0  0  0  0  0  0  0  0
   37.3490   33.8100   39.9110 F   0  0  0  0  0  0  0  0  0  0  0  0
   39.5410   34.1610   40.4500 F   0  0  0  0  0  0  0  0  0  0  0  0
   38.9620   32.6340   38.9270 F   0  0  0  0  0  0  0  0  0  0  0  0
  2  1  2  6  0  0  0
  2 22  1  0  0  0  0
  2  3  1  0  0  0  0
  3  6  1  0  0  0  0
  4  9  1  0  0  0  0
  5  4  2  0  0  0  0
  5  6  1  0  0  0  0
  6  7  2  0  0  0  0
  7  8  1  0  0  0  0
  8 12  1  0  0  0  0
  9  8  2  0  0  0  0
 10  4  1  0  0  0  0
 11  5  1  0  0  0  0
 13  2  1  0  0  0  0
 14 13  1  0  0  0  0
 15 14  2  0  0  0  0
 16 17  2  0  0  0  0
 16 14  1  0  0  0  0
 17 18  1  0  0  0  0
 19 17  1  0  0  0  0
 20 21  1  0  0  0  0
 20 19  2  0  0  0  0
 21 16  1  0  0  0  0
 23 25  1  0  0  0  0
 23 22  1  0  0  0  0
 24 23  1  0  0  0  0
 26 23  1  0  0  0  0
M  END
>  <minimizedAffinity>
-4.50294495

$$$$

 OpenBabel03242519433D

 26 27  0  0  0  0  0  0  0  0999 V2000
   37.9530   29.0340   38.2530 O   0  0  0  0  0  0  0  0  0  0  0  0
   36.8140   30.0010   38.6720 P   0  0  2  0  0  0  0  0  0  0  0  0
   37.1950   31.5670   38.0880 O   0  0  0  0  0  0  0  0  0  0  0  0
   38.4240   34.1600   40.3380 C   0  0  0  0  0  0  0  0  0  0  0  0
   37.5320   33.3590   39.5860 C   0  0  0  0  0  0  0  0  0  0  0  0
   38.0900   32.3290   38.8130 C   0  0  0  0  0  0  0  0  0  0  0  0
   39.4280   32.1590   38.8290 N   0  0  0  0  0  0  0  0  0  0  0  0
   40.2510   32.9430   39.5590 C   0  0  0  0  0  0  0  0  0  0  0  0
   39.7610   33.9400   40.3120 N   0  0  0  0  0  0  0  0  0  0  0  0
   37.9530   34.9420   40.9190 H   0  0  0  0  0  0  0  0  0  0  0  0
   36.4740   33.5560   39.6250 H   0  0  0  0  0  0  0  0  0  0  0  0
   41.3210   32.7760   39.5460 H   0  0  0  0  0  0  0  0  0  0  0  0
   36.7210   30.0490   40.3260 O   0  0  0  0  0  0  0  0  0  0  0  0
   37.6340   29.6960   41.2540 C   0  0  0  0  0  0  0  0  0  0  0  0
   38.4000   30.5950   41.8890 O   0  0  0  0  0  0  0  0  0  0  0  0
   38.3090   28.4780   42.0780 C   0  0  0  0  0  0  0  0  0  0  0  0
   39.5910   28.5010   42.6640 C   0  0  0  0  0  0  0  0  0  0  0  0
   40.1820   29.4370   42.5770 H   0  0  0  0  0  0  0  0  0  0  0  0
   40.0470   27.4420   43.2850 C   0  0  0  0  0  3  0  0  0  0  0  0
   39.1340   26.3660   43.2770 C   0  0  0  0  0  3  0  0  0  0  0  0
   37.6600   27.1390   42.2950 S   0  0  0  0  0  0  0  0  0  0  0  0
   35.4350   29.4650   37.9310 O   0  0  0  0  0  0  0  0  0  0  0  0
   34.7240   28.5530   38.6980 C   0  0  0  0  0  0  0  0  0  0  0  0
   35.5320   27.5860   39.2710 F   0  0  0  0  0  0  0  0  0  0  0  0
   33.9560   29.2070   39.6070 F   0  0  0  0  0  0  0  0  0  0  0  0
   33.8790   27.8840   37.8100 F   0  0  0  0  0  0  0  0  0  0  0  0
  2  1  2  6  0  0  0
  2 13  1  0  0  0  0
  3  2  1  0  0  0  0
  3  6  1  0  0  0  0
  4 10  1  0  0  0  0
  5 11  1  0  0  0  0
  5  4  2  0  0  0  0
  6  7  2  0  0  0  0
  6  5  1  0  0  0  0
  7  8  1  0  0  0  0
  8  9  2  0  0  0  0
  9  4  1  0  0  0  0
 12  8  1  0  0  0  0
 13 14  1  0  0  0  0
 14 15  2  0  0  0  0
 14 16  1  0  0  0  0
 16 21  1  0  0  0  0
 16 17  2  0  0  0  0
 17 19  1  0  0  0  0
 18 17  1  0  0  0  0
 20 19  2  0  0  0  0
 21 20  1  0  0  0  0
 22  2  1  0  0  0  0
 22 23  1  0  0  0  0
 23 24  1  0  0  0  0
 23 25  1  0  0  0  0
 26 23  1  0  0  0  0
M  END
>  <minimizedAffinity>
-4.47620964

$$$$

 OpenBabel03242519433D

 26 27  0  0  0  0  0  0  0  0999 V2000
   36.5350   31.1970   41.0740 O   0  0  0  0  0  0  0  0  0  0  0  0
   36.5790   29.6500   40.9790 P   0  0  2  0  0  0  0  0  0  0  0  0
   36.9750   29.0260   42.5260 O   0  0  0  0  0  0  0  0  0  0  0  0
   39.3980   26.4560   43.4320 C   0  0  0  0  0  0  0  0  0  0  0  0
   38.7550   27.7140   43.3490 C   0  0  0  0  0  0  0  0  0  0  0  0
   37.5770   27.7850   42.5900 C   0  0  0  0  0  0  0  0  0  0  0  0
   37.1240   26.6650   41.9910 N   0  0  0  0  0  0  0  0  0  0  0  0
   37.7630   25.4790   42.0920 C   0  0  0  0  0  0  0  0  0  0  0  0
   38.8940   25.3650   42.8060 N   0  0  0  0  0  0  0  0  0  0  0  0
   40.3020   26.4460   44.0260 H   0  0  0  0  0  0  0  0  0  0  0  0
   39.1780   28.5650   43.8570 H   0  0  0  0  0  0  0  0  0  0  0  0
   37.3680   24.5990   41.5960 H   0  0  0  0  0  0  0  0  0  0  0  0
   37.7540   29.2020   39.9000 O   0  0  0  0  0  0  0  0  0  0  0  0
   39.0150   29.6590   39.7560 C   0  0  0  0  0  0  0  0  0  0  0  0
   40.0710   29.0390   40.3010 O   0  0  0  0  0  0  0  0  0  0  0  0
   39.9660   30.7940   39.1030 C   0  0  0  0  0  0  0  0  0  0  0  0
   39.7750   31.3900   37.8400 C   0  0  0  0  0  0  0  0  0  0  0  0
   38.8890   31.0760   37.2480 H   0  0  0  0  0  0  0  0  0  0  0  0
   40.6280   32.2800   37.4000 C   0  0  0  0  0  3  0  0  0  0  0  0
   41.6780   32.5300   38.3090 C   0  0  0  0  0  3  0  0  0  0  0  0
   41.2070   31.3380   39.7540 S   0  0  0  0  0  0  0  0  0  0  0  0
   35.0550   29.1530   40.5670 O   0  0  0  0  0  0  0  0  0  0  0  0
   34.9060   28.9250   39.2060 C   0  0  0  0  0  0  0  0  0  0  0  0
   35.4770   29.9190   38.4290 F   0  0  0  0  0  0  0  0  0  0  0  0
   35.3530   27.6840   38.8890 F   0  0  0  0  0  0  0  0  0  0  0  0
   33.5320   28.9750   38.9600 F   0  0  0  0  0  0  0  0  0  0  0  0
  2  1  2  1  0  0  0
  2  3  1  0  0  0  0
  3  6  1  0  0  0  0
  4 10  1  0  0  0  0
  5  4  1  0  0  0  0
  5 11  1  0  0  0  0
  6  5  2  0  0  0  0
  7  8  2  0  0  0  0
  7  6  1  0  0  0  0
  8  9  1  0  0  0  0
  9  4  2  0  0  0  0
 12  8  1  0  0  0  0
 13  2  1  0  0  0  0
 14 13  1  0  0  0  0
 14 15  2  0  0  0  0
 16 21  1  0  0  0  0
 16 14  1  0  0  0  0
 17 16  2  0  0  0  0
 18 17  1  0  0  0  0
 19 17  1  0  0  0  0
 19 20  2  0  0  0  0
 20 21  1  0  0  0  0
 22  2  1  0  0  0  0
 23 22  1  0  0  0  0
 24 23  1  0  0  0  0
 25 23  1  0  0  0  0
 26 23  1  0  0  0  0
M  END
>  <minimizedAffinity>
-4.36474276

$$$$

 OpenBabel03242519433D

 26 27  0  0  0  0  0  0  0  0999 V2000
   38.7690   30.0330   39.7860 O   0  0  0  0  0  0  0  0  0  0  0  0
   37.5920   30.2980   40.7600 P   0  0  2  0  0  0  0  0  0  0  0  0
   38.1380   30.0000   42.3580 O   0  0  0  0  0  0  0  0  0  0  0  0
   41.5940   31.0430   42.8800 C   0  0  0  0  0  0  0  0  0  0  0  0
   40.1960   31.1130   42.6650 C   0  0  0  0  0  0  0  0  0  0  0  0
   39.4990   29.8990   42.5700 C   0  0  0  0  0  0  0  0  0  0  0  0
   40.1880   28.7460   42.6890 N   0  0  0  0  0  0  0  0  0  0  0  0
   41.5230   28.7160   42.8940 C   0  0  0  0  0  0  0  0  0  0  0  0
   42.2300   29.8520   42.9900 N   0  0  0  0  0  0  0  0  0  0  0  0
   42.0910   32.0010   42.9460 H   0  0  0  0  0  0  0  0  0  0  0  0
   39.7160   32.0740   42.5810 H   0  0  0  0  0  0  0  0  0  0  0  0
   42.0420   27.7680   42.9840 H   0  0  0  0  0  0  0  0  0  0  0  0
   36.3500   29.2580   40.4120 O   0  0  0  0  0  0  0  0  0  0  0  0
   36.3750   27.9300   40.1770 C   0  0  0  0  0  0  0  0  0  0  0  0
   35.8960   27.3900   39.0460 O   0  0  0  0  0  0  0  0  0  0  0  0
   36.8070   26.4750   40.7380 C   0  0  0  0  0  0  0  0  0  0  0  0
   36.5710   25.2470   40.0880 C   0  0  0  0  0  0  0  0  0  0  0  0
   36.0680   25.2740   39.0980 H   0  0  0  0  0  0  0  0  0  0  0  0
   36.9410   24.1250   40.6520 C   0  0  0  0  0  3  0  0  0  0  0  0
   37.5600   24.3190   41.9050 C   0  0  0  0  0  3  0  0  0  0  0  0
   37.4920   26.2440   42.0560 S   0  0  0  0  0  0  0  0  0  0  0  0
   37.1980   31.8980   40.6100 O   0  0  0  0  0  0  0  0  0  0  0  0
   37.3650   32.3820   39.3200 C   0  0  0  0  0  0  0  0  0  0  0  0
   38.6950   32.5520   38.9770 F   0  0  0  0  0  0  0  0  0  0  0  0
   36.6880   31.6030   38.4390 F   0  0  0  0  0  0  0  0  0  0  0  0
   36.7910   33.6550   39.3130 F   0  0  0  0  0  0  0  0  0  0  0  0
  2  1  2  6  0  0  0
  2  3  1  0  0  0  0
  3  6  1  0  0  0  0
  4 10  1  0  0  0  0
  4  9  1  0  0  0  0
  5  4  2  0  0  0  0
  6  5  1  0  0  0  0
  6  7  2  0  0  0  0
  7  8  1  0  0  0  0
  8 12  1  0  0  0  0
  8  9  2  0  0  0  0
 11  5  1  0  0  0  0
 13  2  1  0  0  0  0
 14 13  1  0  0  0  0
 14 16  1  0  0  0  0
 15 14  2  0  0  0  0
 16 21  1  0  0  0  0
 17 19  1  0  0  0  0
 17 16  2  0  0  0  0
 18 17  1  0  0  0  0
 19 20  2  0  0  0  0
 20 21  1  0  0  0  0
 22  2  1  0  0  0  0
 23 22  1  0  0  0  0
 24 23  1  0  0  0  0
 25 23  1  0  0  0  0
 26 23  1  0  0  0  0
M  END
>  <minimizedAffinity>
-4.3590188

$$$$

 OpenBabel03242519433D

 26 27  0  0  0  0  0  0  0  0999 V2000
   39.4220   30.2390   37.6760 O   0  0  0  0  0  0  0  0  0  0  0  0
   39.1650   30.9850   39.0120 P   0  0  2  0  0  0  0  0  0  0  0  0
   39.5080   32.6470   38.7740 O   0  0  0  0  0  0  0  0  0  0  0  0
   43.0640   33.4420   38.6180 C   0  0  0  0  0  0  0  0  0  0  0  0
   41.7840   32.9710   38.2400 C   0  0  0  0  0  0  0  0  0  0  0  0
   40.7440   33.1180   39.1710 C   0  0  0  0  0  0  0  0  0  0  0  0
   41.0160   33.6940   40.3590 N   0  0  0  0  0  0  0  0  0  0  0  0
   42.2510   34.1330   40.6880 C   0  0  0  0  0  0  0  0  0  0  0  0
   43.2750   34.0110   39.8290 N   0  0  0  0  0  0  0  0  0  0  0  0
   43.8360   33.3080   37.8710 H   0  0  0  0  0  0  0  0  0  0  0  0
   41.6440   32.5220   37.2710 H   0  0  0  0  0  0  0  0  0  0  0  0
   42.4320   34.5910   41.6540 H   0  0  0  0  0  0  0  0  0  0  0  0
   40.1810   30.3850   40.1760 O   0  0  0  0  0  0  0  0  0  0  0  0
   39.9190   29.5580   41.2090 C   0  0  0  0  0  0  0  0  0  0  0  0
   40.8490   29.2230   42.1150 O   0  0  0  0  0  0  0  0  0  0  0  0
   38.8010   28.6640   41.9640 C   0  0  0  0  0  0  0  0  0  0  0  0
   38.1150   29.0360   43.1380 C   0  0  0  0  0  0  0  0  0  0  0  0
   38.3380   30.0340   43.5730 H   0  0  0  0  0  0  0  0  0  0  0  0
   37.2500   28.2170   43.6780 C   0  0  0  0  0  3  0  0  0  0  0  0
   37.1200   27.0060   42.9650 C   0  0  0  0  0  3  0  0  0  0  0  0
   38.3740   27.2920   41.5230 S   0  0  0  0  0  0  0  0  0  0  0  0
   37.5570   30.8060   39.3580 O   0  0  0  0  0  0  0  0  0  0  0  0
   37.0910   31.7360   40.2760 C   0  0  0  0  0  0  0  0  0  0  0  0
   36.0070   31.2770   41.0040 F   0  0  0  0  0  0  0  0  0  0  0  0
   38.1100   32.1680   41.0610 F   0  0  0  0  0  0  0  0  0  0  0  0
   36.6280   32.8170   39.5220 F   0  0  0  0  0  0  0  0  0  0  0  0
  2  1  2  6  0  0  0
  2 22  1  0  0  0  0
  2 13  1  0  0  0  0
  3  2  1  0  0  0  0
  3  6  1  0  0  0  0
  4  9  1  0  0  0  0
  5  4  2  0  0  0  0
  5  6  1  0  0  0  0
  6  7  2  0  0  0  0
  7  8  1  0  0  0  0
  8 12  1  0  0  0  0
  9  8  2  0  0  0  0
 10  4  1  0  0  0  0
 11  5  1  0  0  0  0
 13 14  1  0  0  0  0
 14 16  1  0  0  0  0
 14 15  2  0  0  0  0
 16 17  2  0  0  0  0
 17 18  1  0  0  0  0
 17 19  1  0  0  0  0
 20 19  2  0  0  0  0
 21 16  1  0  0  0  0
 21 20  1  0  0  0  0
 22 23  1  0  0  0  0
 23 24  1  0  0  0  0
 23 25  1  0  0  0  0
 26 23  1  0  0  0  0
M  END
>  <minimizedAffinity>
-4.31731987

$$$$

 OpenBabel03242519433D

 26 27  0  0  0  0  0  0  0  0999 V2000
   38.5670   29.8330   39.2290 O   0  0  0  0  0  0  0  0  0  0  0  0
   37.1840   30.0960   39.8810 P   0  0  2  0  0  0  0  0  0  0  0  0
   37.4130   30.2800   41.5700 O   0  0  0  0  0  0  0  0  0  0  0  0
   38.0900   27.3820   43.6790 C   0  0  0  0  0  0  0  0  0  0  0  0
   37.3800   28.3890   42.9820 C   0  0  0  0  0  0  0  0  0  0  0  0
   38.1340   29.3090   42.2370 C   0  0  0  0  0  0  0  0  0  0  0  0
   39.4770   29.1850   42.2240 N   0  0  0  0  0  0  0  0  0  0  0  0
   40.1230   28.2110   42.9020 C   0  0  0  0  0  0  0  0  0  0  0  0
   39.4420   27.3110   43.6270 N   0  0  0  0  0  0  0  0  0  0  0  0
   37.4710   26.6960   44.2400 H   0  0  0  0  0  0  0  0  0  0  0  0
   36.3050   28.4230   43.0400 H   0  0  0  0  0  0  0  0  0  0  0  0
   41.2040   28.1440   42.8670 H   0  0  0  0  0  0  0  0  0  0  0  0
   36.1960   28.7940   39.6090 O   0  0  0  0  0  0  0  0  0  0  0  0
   36.4950   27.4800   39.5430 C   0  0  0  0  0  0  0  0  0  0  0  0
   35.8800   26.6440   38.6950 O   0  0  0  0  0  0  0  0  0  0  0  0
   37.4230   26.2840   40.1150 C   0  0  0  0  0  0  0  0  0  0  0  0
   36.9680   25.1980   40.8910 C   0  0  0  0  0  0  0  0  0  0  0  0
   35.8820   25.1400   41.1120 H   0  0  0  0  0  0  0  0  0  0  0  0
   37.8180   24.3020   41.3240 C   0  0  0  0  0  3  0  0  0  0  0  0
   39.1460   24.5670   40.9280 C   0  0  0  0  0  3  0  0  0  0  0  0
   38.9110   26.1970   39.9180 S   0  0  0  0  0  0  0  0  0  0  0  0
   36.6210   31.5180   39.2510 O   0  0  0  0  0  0  0  0  0  0  0  0
   37.5100   32.5720   39.4060 C   0  0  0  0  0  0  0  0  0  0  0  0
   36.9070   33.8100   39.2580 F   0  0  0  0  0  0  0  0  0  0  0  0
   38.1810   32.4480   40.5790 F   0  0  0  0  0  0  0  0  0  0  0  0
   38.4270   32.4550   38.3590 F   0  0  0  0  0  0  0  0  0  0  0  0
  2  1  2  6  0  0  0
  2  3  1  0  0  0  0
  3  6  1  0  0  0  0
  4 10  1  0  0  0  0
  5 11  1  0  0  0  0
  5  4  2  0  0  0  0
  6  5  1  0  0  0  0
  7  6  2  0  0  0  0
  7  8  1  0  0  0  0
  8  9  2  0  0  0  0
  9  4  1  0  0  0  0
 12  8  1  0  0  0  0
 13  2  1  0  0  0  0
 14 13  1  0  0  0  0
 14 16  1  0  0  0  0
 15 14  2  0  0  0  0
 16 17  2  0  0  0  0
 17 18  1  0  0  0  0
 17 19  1  0  0  0  0
 20 19  2  0  0  0  0
 21 16  1  0  0  0  0
 21 20  1  0  0  0  0
 22 23  1  0  0  0  0
 22  2  1  0  0  0  0
 23 25  1  0  0  0  0
 24 23  1  0  0  0  0
 26 23  1  0  0  0  0
M  END
>  <minimizedAffinity>
-4.31112337

$$$$

 OpenBabel03242519433D

 26 27  0  0  0  0  0  0  0  0999 V2000
   38.4130   29.7790   38.7560 O   0  0  0  0  0  0  0  0  0  0  0  0
   38.6170   30.4430   40.1420 P   0  0  2  0  0  0  0  0  0  0  0  0
   40.1870   30.0440   40.7040 O   0  0  0  0  0  0  0  0  0  0  0  0
   40.7120   26.4850   41.3070 C   0  0  0  0  0  0  0  0  0  0  0  0
   40.5480   27.7130   40.6220 C   0  0  0  0  0  0  0  0  0  0  0  0
   40.3450   28.8620   41.4010 C   0  0  0  0  0  0  0  0  0  0  0  0
   40.3170   28.7370   42.7440 N   0  0  0  0  0  0  0  0  0  0  0  0
   40.4760   27.5480   43.3660 C   0  0  0  0  0  0  0  0  0  0  0  0
   40.6730   26.4240   42.6600 N   0  0  0  0  0  0  0  0  0  0  0  0
   40.8650   25.6260   40.6680 H   0  0  0  0  0  0  0  0  0  0  0  0
   40.5840   27.7330   39.5460 H   0  0  0  0  0  0  0  0  0  0  0  0
   40.4480   27.4870   44.4480 H   0  0  0  0  0  0  0  0  0  0  0  0
   37.4950   29.8460   41.2050 O   0  0  0  0  0  0  0  0  0  0  0  0
   36.8080   28.6850   41.1750 C   0  0  0  0  0  0  0  0  0  0  0  0
   35.4700   28.6420   41.1000 O   0  0  0  0  0  0  0  0  0  0  0  0
   36.9010   27.0690   41.1740 C   0  0  0  0  0  0  0  0  0  0  0  0
   37.0510   26.2600   42.3190 C   0  0  0  0  0  0  0  0  0  0  0  0
   37.0860   26.7650   43.3080 H   0  0  0  0  0  0  0  0  0  0  0  0
   37.1450   24.9610   42.1960 C   0  0  0  0  0  3  0  0  0  0  0  0
   37.0780   24.5310   40.8530 C   0  0  0  0  0  3  0  0  0  0  0  0
   36.8750   26.2190   39.9350 S   0  0  0  0  0  0  0  0  0  0  0  0
   38.5250   32.0780   39.9070 O   0  0  0  0  0  0  0  0  0  0  0  0
   37.3430   32.4750   39.2980 C   0  0  0  0  0  0  0  0  0  0  0  0
   37.4230   32.4760   37.9160 F   0  0  0  0  0  0  0  0  0  0  0  0
   36.3060   31.7350   39.7670 F   0  0  0  0  0  0  0  0  0  0  0  0
   37.1440   33.8030   39.6810 F   0  0  0  0  0  0  0  0  0  0  0  0
  2  1  2  6  0  0  0
  2  3  1  0  0  0  0
  2 13  1  0  0  0  0
  3  6  1  0  0  0  0
  4  9  1  0  0  0  0
  5  4  2  0  0  0  0
  5  6  1  0  0  0  0
  6  7  2  0  0  0  0
  7  8  1  0  0  0  0
  8 12  1  0  0  0  0
  9  8  2  0  0  0  0
 10  4  1  0  0  0  0
 11  5  1  0  0  0  0
 14 13  1  0  0  0  0
 15 14  2  0  0  0  0
 16 14  1  0  0  0  0
 16 17  2  0  0  0  0
 17 18  1  0  0  0  0
 19 17  1  0  0  0  0
 20 19  2  0  0  0  0
 21 20  1  0  0  0  0
 21 16  1  0  0  0  0
 22  2  1  0  0  0  0
 23 26  1  0  0  0  0
 23 25  1  0  0  0  0
 23 22  1  0  0  0  0
 24 23  1  0  0  0  0
M  END
>  <minimizedAffinity>
-4.27952147

$$$$
