
 OpenBabel03242519433D

 31 34  0  0  1  0  0  0  0  0999 V2000
   46.7260   33.7090   39.7640 N   0  0  0  0  0  0  0  0  0  0  0  0
   48.0020   34.3230   39.8250 C   0  0  0  0  0  0  0  0  0  0  0  0
   48.4730   34.6060   41.2170 C   0  0  0  0  0  0  0  0  0  0  0  0
   47.5280   35.2070   42.0910 N   0  0  0  0  0  0  0  0  0  0  0  0
   46.1750   34.8930   41.8640 C   0  0  0  0  0  0  0  0  0  0  0  0
   45.8380   33.8800   40.8610 C   0  0  1  0  0  0  0  0  0  0  0  0
   48.0030   35.2820   39.2650 H   0  0  0  0  0  0  0  0  0  0  0  0
   48.8210   33.7270   39.3400 H   0  0  0  0  0  0  0  0  0  0  0  0
   48.8980   33.6950   41.6860 H   0  0  0  0  0  0  0  0  0  0  0  0
   49.3350   35.3300   41.1190 H   0  0  0  0  0  0  0  0  0  0  0  0
   47.8240   35.0120   43.0740 H   0  0  0  0  0  0  0  0  0  0  0  0
   45.6490   35.8500   41.5950 H   0  0  0  0  0  0  0  0  0  0  0  0
   45.7010   34.5980   42.8420 H   0  0  0  0  0  0  0  0  0  0  0  0
   45.9110   32.8560   41.4150 H   0  0  0  0  0  0  0  0  0  0  0  0
   45.8040   32.5690   36.3550 C   0  0  0  0  0  0  0  0  0  0  0  0
   46.2170   33.4310   37.3860 C   0  0  0  0  0  0  0  0  0  0  0  0
   46.3080   32.9280   38.6660 C   0  0  0  0  0  0  0  0  0  0  0  0
   45.9830   31.6000   38.8530 N   0  0  0  0  0  0  0  0  0  0  0  0
   45.5880   30.7920   37.8430 C   0  0  0  0  0  0  0  0  0  0  0  0
   45.4950   31.2720   36.5800 N   0  0  0  0  0  0  0  0  0  0  0  0
   45.7640   33.0630   35.3770 H   0  0  0  0  0  0  0  0  0  0  0  0
   46.4630   34.4660   37.1970 H   0  0  0  0  0  0  0  0  0  0  0  0
   45.3480   29.7600   38.0540 H   0  0  0  0  0  0  0  0  0  0  0  0
   44.4710   33.9510   40.4330 C   0  0  2  0  0  0  0  0  0  0  0  0
   43.5700   33.7750   41.2220 O   0  0  0  0  0  0  0  0  0  0  0  0
   43.1710   34.0800   39.6930 C   0  0  1  0  0  0  0  0  0  0  0  0
   42.4530   35.1830   39.7850 C   0  0  0  0  0  0  0  0  0  0  0  0
   42.5000   36.1310   40.2780 H   0  0  0  0  0  0  0  0  0  0  0  0
   41.3140   35.4510   39.1650 C   0  0  0  0  0  0  0  0  0  0  0  0
   40.9070   34.3880   38.3400 C   0  0  0  0  0  0  0  0  0  0  0  0
   42.3230   33.0930   38.6120 S   0  0  0  0  0  0  0  0  0  0  0  0
  1  2  1  0  0  0  0
  1  6  1  0  0  0  0
  2  3  1  0  0  0  0
  3  9  1  0  0  0  0
  3  4  1  0  0  0  0
  4 11  1  0  0  0  0
  5  4  1  0  0  0  0
  5 13  1  0  0  0  0
  6 14  1  1  0  0  0
  6  5  1  0  0  0  0
  7  2  1  0  0  0  0
  8  2  1  0  0  0  0
 10  3  1  0  0  0  0
 12  5  1  0  0  0  0
 15 20  2  0  0  0  0
 15 16  1  0  0  0  0
 16 17  2  0  0  0  0
 17 18  1  0  0  0  0
 17  1  1  0  0  0  0
 19 23  1  0  0  0  0
 19 18  2  0  0  0  0
 20 19  1  0  0  0  0
 21 15  1  0  0  0  0
 22 16  1  0  0  0  0
 24  6  1  0  0  0  0
 24 25  1  6  0  0  0
 26 31  1  6  0  0  0
 26 27  1  0  0  0  0
 26 24  1  0  0  0  0
 26 25  1  0  0  0  0
 27 28  1  0  0  0  0
 29 27  2  0  0  0  0
 30 31  1  0  0  0  0
 30 29  1  0  0  0  0
M  END
>  <minimizedAffinity>
-4.06509447

>  <minimizedRMSD>
6.73177719

$$$$
