
 OpenBabel03242510523D

 19 20  0  0  0  0  0  0  0  0999 V2000
   37.0020   25.3440   40.3700 C   0  0  0  0  0  0  0  0  0  0  0  0
   37.0180   25.0890   41.7560 C   0  0  0  0  0  0  0  0  0  0  0  0
   37.1420   26.1940   42.6150 C   0  0  0  0  0  0  0  0  0  0  0  0
   37.2390   27.4440   42.0850 N   0  0  0  0  0  0  0  0  0  0  0  0
   37.2200   27.6470   40.7500 C   0  0  0  0  0  0  0  0  0  0  0  0
   37.1010   26.5860   39.9070 N   0  0  0  0  0  0  0  0  0  0  0  0
   37.7820   29.9460   41.1820 C   0  0  0  0  0  0  0  0  0  0  0  0
   38.0970   29.7620   42.3630 O   0  0  0  0  0  0  0  0  0  0  0  0
   37.3250   28.9840   40.2520 N   0  0  0  0  0  0  0  0  0  0  0  0
   36.9140   24.5890   39.6100 H   0  0  0  0  0  0  0  0  0  0  0  0
   36.9350   24.0630   42.0710 H   0  0  0  0  0  0  0  0  0  0  0  0
   37.1540   25.9980   43.6710 H   0  0  0  0  0  0  0  0  0  0  0  0
   37.0790   29.2110   39.2720 H   0  0  0  0  0  0  0  0  0  0  0  0
   37.9050   31.3550   40.6960 C   0  0  0  0  0  0  0  0  0  0  0  0
   36.9510   32.0620   39.8350 C   0  0  0  0  0  0  0  0  0  0  0  0
   36.0670   31.5500   39.4990 H   0  0  0  0  0  0  0  0  0  0  0  0
   37.3590   33.3430   39.5740 C   0  0  0  0  0  3  0  0  0  0  0  0
   38.5020   33.8810   40.0560 C   0  0  0  0  0  3  0  0  0  0  0  0
   39.2050   32.4870   41.0390 S   0  0  0  0  0  0  0  0  0  0  0  0
  1  2  1  0  0  0  0
  2 11  1  0  0  0  0
  2  3  2  0  0  0  0
  3 12  1  0  0  0  0
  4  3  1  0  0  0  0
  5  4  2  0  0  0  0
  6  1  2  0  0  0  0
  6  5  1  0  0  0  0
  7  8  2  0  0  0  0
  9  5  1  0  0  0  0
  9  7  1  0  0  0  0
 10  1  1  0  0  0  0
 13  9  1  0  0  0  0
 14 19  1  0  0  0  0
 14  7  1  0  0  0  0
 15 14  2  0  0  0  0
 16 15  1  0  0  0  0
 17 15  1  0  0  0  0
 17 18  2  0  0  0  0
 18 19  1  0  0  0  0
M  END
>  <minimizedAffinity>
-4.13043737

$$$$

 OpenBabel03242510523D

 19 20  0  0  0  0  0  0  0  0999 V2000
   37.3360   33.5050   39.5290 C   0  0  0  0  0  0  0  0  0  0  0  0
   38.4050   34.1520   40.1800 C   0  0  0  0  0  0  0  0  0  0  0  0
   39.2300   33.3680   41.0040 C   0  0  0  0  0  0  0  0  0  0  0  0
   38.9700   32.0380   41.1370 N   0  0  0  0  0  0  0  0  0  0  0  0
   37.9340   31.4550   40.4960 C   0  0  0  0  0  0  0  0  0  0  0  0
   37.1280   32.2030   39.6960 N   0  0  0  0  0  0  0  0  0  0  0  0
   38.3820   29.4650   41.7720 C   0  0  0  0  0  0  0  0  0  0  0  0
   39.1310   30.0210   42.5830 O   0  0  0  0  0  0  0  0  0  0  0  0
   37.7110   30.0530   40.6750 N   0  0  0  0  0  0  0  0  0  0  0  0
   36.6350   33.9900   38.8750 H   0  0  0  0  0  0  0  0  0  0  0  0
   38.5230   35.2080   40.0070 H   0  0  0  0  0  0  0  0  0  0  0  0
   40.0440   33.8630   41.5000 H   0  0  0  0  0  0  0  0  0  0  0  0
   37.0950   29.5230   40.0330 H   0  0  0  0  0  0  0  0  0  0  0  0
   38.1720   28.0010   41.9900 C   0  0  0  0  0  0  0  0  0  0  0  0
   36.9070   27.3490   42.3470 C   0  0  0  0  0  0  0  0  0  0  0  0
   36.0240   27.9500   42.4720 H   0  0  0  0  0  0  0  0  0  0  0  0
   37.0550   25.9930   42.4730 C   0  0  0  0  0  3  0  0  0  0  0  0
   38.2270   25.3440   42.2890 C   0  0  0  0  0  3  0  0  0  0  0  0
   39.3760   26.7260   41.8720 S   0  0  0  0  0  0  0  0  0  0  0  0
  1  6  2  0  0  0  0
  1  2  1  0  0  0  0
  2  3  2  0  0  0  0
  3  4  1  0  0  0  0
  3 12  1  0  0  0  0
  5  9  1  0  0  0  0
  5  4  2  0  0  0  0
  6  5  1  0  0  0  0
  7 14  1  0  0  0  0
  7  8  2  0  0  0  0
  9  7  1  0  0  0  0
 10  1  1  0  0  0  0
 11  2  1  0  0  0  0
 13  9  1  0  0  0  0
 14 15  2  0  0  0  0
 15 16  1  0  0  0  0
 15 17  1  0  0  0  0
 18 17  2  0  0  0  0
 19 14  1  0  0  0  0
 19 18  1  0  0  0  0
M  END
>  <minimizedAffinity>
-4.12476587

$$$$

 OpenBabel03242510523D

 19 20  0  0  0  0  0  0  0  0999 V2000
   37.2900   32.2700   38.4440 C   0  0  0  0  0  0  0  0  0  0  0  0
   37.7230   33.0000   39.5700 C   0  0  0  0  0  0  0  0  0  0  0  0
   37.9920   32.2770   40.7440 C   0  0  0  0  0  0  0  0  0  0  0  0
   37.8280   30.9250   40.7480 N   0  0  0  0  0  0  0  0  0  0  0  0
   37.4110   30.2630   39.6480 C   0  0  0  0  0  0  0  0  0  0  0  0
   37.1460   30.9510   38.5050 N   0  0  0  0  0  0  0  0  0  0  0  0
   37.2270   28.2910   41.0150 C   0  0  0  0  0  0  0  0  0  0  0  0
   37.3160   28.8940   42.0900 O   0  0  0  0  0  0  0  0  0  0  0  0
   37.2570   28.8420   39.7130 N   0  0  0  0  0  0  0  0  0  0  0  0
   37.0510   32.7030   37.4900 H   0  0  0  0  0  0  0  0  0  0  0  0
   37.8200   34.0660   39.4610 H   0  0  0  0  0  0  0  0  0  0  0  0
   38.3220   32.8330   41.6020 H   0  0  0  0  0  0  0  0  0  0  0  0
   37.1760   28.2720   38.8520 H   0  0  0  0  0  0  0  0  0  0  0  0
   37.0670   26.8090   41.1220 C   0  0  0  0  0  0  0  0  0  0  0  0
   37.1440   26.0140   42.3530 C   0  0  0  0  0  0  0  0  0  0  0  0
   37.3330   26.5110   43.2880 H   0  0  0  0  0  0  0  0  0  0  0  0
   36.9540   24.6800   42.1060 C   0  0  0  0  0  3  0  0  0  0  0  0
   36.7230   24.1680   40.8750 C   0  0  0  0  0  3  0  0  0  0  0  0
   36.7530   25.6770   39.8140 S   0  0  0  0  0  0  0  0  0  0  0  0
  1  6  2  0  0  0  0
  1  2  1  0  0  0  0
  2  3  2  0  0  0  0
  3  4  1  0  0  0  0
  3 12  1  0  0  0  0
  5  9  1  0  0  0  0
  5  4  2  0  0  0  0
  6  5  1  0  0  0  0
  7 14  1  0  0  0  0
  7  8  2  0  0  0  0
  9  7  1  0  0  0  0
 10  1  1  0  0  0  0
 11  2  1  0  0  0  0
 13  9  1  0  0  0  0
 14 15  2  0  0  0  0
 15 16  1  0  0  0  0
 17 15  1  0  0  0  0
 18 17  2  0  0  0  0
 19 18  1  0  0  0  0
 19 14  1  0  0  0  0
M  END
>  <minimizedAffinity>
-4.01135683

$$$$

 OpenBabel03242510523D

 19 20  0  0  0  0  0  0  0  0999 V2000
   36.9590   26.9700   41.5580 C   0  0  0  0  0  0  0  0  0  0  0  0
   36.8260   26.9920   42.9610 C   0  0  0  0  0  0  0  0  0  0  0  0
   37.3310   28.1130   43.6410 C   0  0  0  0  0  0  0  0  0  0  0  0
   37.9180   29.1160   42.9300 N   0  0  0  0  0  0  0  0  0  0  0  0
   38.0270   29.0560   41.5860 C   0  0  0  0  0  0  0  0  0  0  0  0
   37.5430   27.9760   40.9160 N   0  0  0  0  0  0  0  0  0  0  0  0
   39.4100   31.0210   41.7010 C   0  0  0  0  0  0  0  0  0  0  0  0
   39.5870   30.9600   42.9230 O   0  0  0  0  0  0  0  0  0  0  0  0
   38.6540   30.1400   40.8940 N   0  0  0  0  0  0  0  0  0  0  0  0
   36.6170   26.1730   40.9240 H   0  0  0  0  0  0  0  0  0  0  0  0
   36.3450   26.1480   43.4260 H   0  0  0  0  0  0  0  0  0  0  0  0
   37.2290   28.1290   44.7100 H   0  0  0  0  0  0  0  0  0  0  0  0
   38.5490   30.2540   39.8700 H   0  0  0  0  0  0  0  0  0  0  0  0
   40.0790   32.1670   41.0120 C   0  0  0  0  0  0  0  0  0  0  0  0
   39.4110   33.2720   40.3160 C   0  0  0  0  0  0  0  0  0  0  0  0
   38.3360   33.2940   40.2760 H   0  0  0  0  0  0  0  0  0  0  0  0
   40.3130   34.1590   39.7920 C   0  0  0  0  0  3  0  0  0  0  0  0
   41.6540   34.0240   39.9070 C   0  0  0  0  0  3  0  0  0  0  0  0
   41.8070   32.4600   40.8740 S   0  0  0  0  0  0  0  0  0  0  0  0
  1  2  1  0  0  0  0
  2 11  1  0  0  0  0
  2  3  2  0  0  0  0
  3 12  1  0  0  0  0
  4  3  1  0  0  0  0
  5  4  2  0  0  0  0
  6  1  2  0  0  0  0
  6  5  1  0  0  0  0
  7  8  2  0  0  0  0
  9  5  1  0  0  0  0
  9  7  1  0  0  0  0
 10  1  1  0  0  0  0
 13  9  1  0  0  0  0
 14  7  1  0  0  0  0
 15 14  2  0  0  0  0
 16 15  1  0  0  0  0
 17 18  2  0  0  0  0
 17 15  1  0  0  0  0
 18 19  1  0  0  0  0
 19 14  1  0  0  0  0
M  END
>  <minimizedAffinity>
-3.96378064

$$$$

 OpenBabel03242510523D

 19 20  0  0  0  0  0  0  0  0999 V2000
   37.8660   31.4490   38.2320 C   0  0  0  0  0  0  0  0  0  0  0  0
   37.1850   32.3370   39.0900 C   0  0  0  0  0  0  0  0  0  0  0  0
   37.0800   31.9750   40.4430 C   0  0  0  0  0  0  0  0  0  0  0  0
   37.6290   30.8020   40.8660 N   0  0  0  0  0  0  0  0  0  0  0  0
   38.2730   29.9780   40.0120 C   0  0  0  0  0  0  0  0  0  0  0  0
   38.3820   30.3170   38.6990 N   0  0  0  0  0  0  0  0  0  0  0  0
   38.3650   28.3580   41.7880 C   0  0  0  0  0  0  0  0  0  0  0  0
   37.5410   28.9350   42.5070 O   0  0  0  0  0  0  0  0  0  0  0  0
   38.8300   28.7600   40.5140 N   0  0  0  0  0  0  0  0  0  0  0  0
   38.0150   31.6080   37.1800 H   0  0  0  0  0  0  0  0  0  0  0  0
   36.7890   33.2380   38.6550 H   0  0  0  0  0  0  0  0  0  0  0  0
   36.5610   32.6520   41.0960 H   0  0  0  0  0  0  0  0  0  0  0  0
   39.5250   28.2230   39.9660 H   0  0  0  0  0  0  0  0  0  0  0  0
   38.9250   27.0890   42.3450 C   0  0  0  0  0  0  0  0  0  0  0  0
   39.9420   26.9770   43.3980 C   0  0  0  0  0  0  0  0  0  0  0  0
   40.3470   27.8740   43.8340 H   0  0  0  0  0  0  0  0  0  0  0  0
   40.2360   25.6700   43.6800 C   0  0  0  0  0  3  0  0  0  0  0  0
   39.6560   24.6180   43.0580 C   0  0  0  0  0  3  0  0  0  0  0  0
   38.5050   25.4470   41.8800 S   0  0  0  0  0  0  0  0  0  0  0  0
  1  6  2  0  0  0  0
  1  2  1  0  0  0  0
  2  3  2  0  0  0  0
  3  4  1  0  0  0  0
  3 12  1  0  0  0  0
  5  9  1  0  0  0  0
  5  4  2  0  0  0  0
  6  5  1  0  0  0  0
  7 14  1  0  0  0  0
  7  8  2  0  0  0  0
  9  7  1  0  0  0  0
 10  1  1  0  0  0  0
 11  2  1  0  0  0  0
 13  9  1  0  0  0  0
 14 15  2  0  0  0  0
 15 17  1  0  0  0  0
 15 16  1  0  0  0  0
 18 17  2  0  0  0  0
 19 14  1  0  0  0  0
 19 18  1  0  0  0  0
M  END
>  <minimizedAffinity>
-3.93890262

$$$$

 OpenBabel03242510523D

 19 20  0  0  0  0  0  0  0  0999 V2000
   41.5280   31.6740   37.3370 C   0  0  0  0  0  0  0  0  0  0  0  0
   41.4280   33.0340   37.6930 C   0  0  0  0  0  0  0  0  0  0  0  0
   40.7010   33.3460   38.8550 C   0  0  0  0  0  0  0  0  0  0  0  0
   40.1330   32.3400   39.5770 N   0  0  0  0  0  0  0  0  0  0  0  0
   40.2520   31.0490   39.2010 C   0  0  0  0  0  0  0  0  0  0  0  0
   40.9530   30.7330   38.0790 N   0  0  0  0  0  0  0  0  0  0  0  0
   38.6670   30.4960   40.9240 C   0  0  0  0  0  0  0  0  0  0  0  0
   38.3000   31.6610   41.1140 O   0  0  0  0  0  0  0  0  0  0  0  0
   39.6350   30.0370   40.0010 N   0  0  0  0  0  0  0  0  0  0  0  0
   42.0540   31.3050   36.4750 H   0  0  0  0  0  0  0  0  0  0  0  0
   41.9140   33.7500   37.0540 H   0  0  0  0  0  0  0  0  0  0  0  0
   40.6250   34.3830   39.1250 H   0  0  0  0  0  0  0  0  0  0  0  0
   39.8920   29.0390   39.8960 H   0  0  0  0  0  0  0  0  0  0  0  0
   37.9990   29.4660   41.7770 C   0  0  0  0  0  0  0  0  0  0  0  0
   38.2820   29.1930   43.1910 C   0  0  0  0  0  0  0  0  0  0  0  0
   39.0370   29.7700   43.6960 H   0  0  0  0  0  0  0  0  0  0  0  0
   37.4950   28.1850   43.6800 C   0  0  0  0  0  3  0  0  0  0  0  0
   36.5720   27.5270   42.9410 C   0  0  0  0  0  3  0  0  0  0  0  0
   36.7310   28.3480   41.2970 S   0  0  0  0  0  0  0  0  0  0  0  0
  1  2  2  0  0  0  0
  1  6  1  0  0  0  0
  2  3  1  0  0  0  0
  3 12  1  0  0  0  0
  3  4  2  0  0  0  0
  5  4  1  0  0  0  0
  5  9  1  0  0  0  0
  6  5  2  0  0  0  0
  7  8  2  0  0  0  0
  7 14  1  0  0  0  0
  9  7  1  0  0  0  0
 10  1  1  0  0  0  0
 11  2  1  0  0  0  0
 13  9  1  0  0  0  0
 14 15  2  0  0  0  0
 15 17  1  0  0  0  0
 15 16  1  0  0  0  0
 18 17  2  0  0  0  0
 19 14  1  0  0  0  0
 19 18  1  0  0  0  0
M  END
>  <minimizedAffinity>
-3.89655137

$$$$

 OpenBabel03242510523D

 19 20  0  0  0  0  0  0  0  0999 V2000
   38.4210   33.5220   40.4900 C   0  0  0  0  0  0  0  0  0  0  0  0
   37.4040   33.2580   39.5500 C   0  0  0  0  0  0  0  0  0  0  0  0
   36.9580   31.9300   39.4370 C   0  0  0  0  0  0  0  0  0  0  0  0
   37.5160   30.9690   40.2250 N   0  0  0  0  0  0  0  0  0  0  0  0
   38.4890   31.2640   41.1130 C   0  0  0  0  0  0  0  0  0  0  0  0
   38.9300   32.5450   41.2320 N   0  0  0  0  0  0  0  0  0  0  0  0
   38.7550   28.8990   41.4690 C   0  0  0  0  0  0  0  0  0  0  0  0
   38.0960   28.5640   40.4780 O   0  0  0  0  0  0  0  0  0  0  0  0
   39.0360   30.2120   41.9140 N   0  0  0  0  0  0  0  0  0  0  0  0
   38.8480   34.4910   40.6720 H   0  0  0  0  0  0  0  0  0  0  0  0
   37.0310   34.0890   38.9770 H   0  0  0  0  0  0  0  0  0  0  0  0
   36.1830   31.7290   38.7210 H   0  0  0  0  0  0  0  0  0  0  0  0
   39.5990   30.4190   42.7580 H   0  0  0  0  0  0  0  0  0  0  0  0
   39.3100   27.7740   42.2820 C   0  0  0  0  0  0  0  0  0  0  0  0
   40.5640   27.7900   43.0440 C   0  0  0  0  0  0  0  0  0  0  0  0
   41.1680   28.6800   43.0420 H   0  0  0  0  0  0  0  0  0  0  0  0
   40.7850   26.5970   43.6800 C   0  0  0  0  0  3  0  0  0  0  0  0
   39.9440   25.5390   43.6060 C   0  0  0  0  0  3  0  0  0  0  0  0
   38.6030   26.1820   42.5150 S   0  0  0  0  0  0  0  0  0  0  0  0
  1 10  1  0  0  0  0
  1  6  1  0  0  0  0
  2  1  2  0  0  0  0
  3  2  1  0  0  0  0
  3  4  2  0  0  0  0
  4  5  1  0  0  0  0
  5  6  2  0  0  0  0
  5  9  1  0  0  0  0
  7  9  1  0  0  0  0
  7 14  1  0  0  0  0
  8  7  2  0  0  0  0
  9 13  1  0  0  0  0
 11  2  1  0  0  0  0
 12  3  1  0  0  0  0
 14 19  1  0  0  0  0
 14 15  2  0  0  0  0
 15 17  1  0  0  0  0
 16 15  1  0  0  0  0
 18 17  2  0  0  0  0
 19 18  1  0  0  0  0
M  END
>  <minimizedAffinity>
-3.89545488

$$$$

 OpenBabel03242510523D

 19 20  0  0  0  0  0  0  0  0999 V2000
   37.2890   31.9920   38.3720 C   0  0  0  0  0  0  0  0  0  0  0  0
   37.4890   32.6940   39.5780 C   0  0  0  0  0  0  0  0  0  0  0  0
   38.8120   33.0140   39.9270 C   0  0  0  0  0  0  0  0  0  0  0  0
   39.8290   32.6420   39.1010 N   0  0  0  0  0  0  0  0  0  0  0  0
   39.5950   31.9700   37.9540 C   0  0  0  0  0  0  0  0  0  0  0  0
   38.3190   31.6530   37.6050 N   0  0  0  0  0  0  0  0  0  0  0  0
   41.9740   31.6800   37.7450 C   0  0  0  0  0  0  0  0  0  0  0  0
   42.2290   32.0190   38.9060 O   0  0  0  0  0  0  0  0  0  0  0  0
   40.7040   31.6070   37.1270 N   0  0  0  0  0  0  0  0  0  0  0  0
   36.3300   31.6880   37.9940 H   0  0  0  0  0  0  0  0  0  0  0  0
   36.6160   32.9400   40.1580 H   0  0  0  0  0  0  0  0  0  0  0  0
   38.9640   33.5490   40.8460 H   0  0  0  0  0  0  0  0  0  0  0  0
   40.5660   31.3120   36.1440 H   0  0  0  0  0  0  0  0  0  0  0  0
   43.1580   31.3070   36.9110 C   0  0  0  0  0  0  0  0  0  0  0  0
   43.1780   30.3210   35.8250 C   0  0  0  0  0  0  0  0  0  0  0  0
   42.2730   29.7950   35.5760 H   0  0  0  0  0  0  0  0  0  0  0  0
   44.4220   30.2150   35.2610 C   0  0  0  0  0  3  0  0  0  0  0  0
   45.4930   30.9350   35.6640 C   0  0  0  0  0  3  0  0  0  0  0  0
   44.7880   31.9530   37.0310 S   0  0  0  0  0  0  0  0  0  0  0  0
  1  2  1  0  0  0  0
  2  3  2  0  0  0  0
  2 11  1  0  0  0  0
  3 12  1  0  0  0  0
  4  3  1  0  0  0  0
  5  4  2  0  0  0  0
  6  5  1  0  0  0  0
  6  1  2  0  0  0  0
  7  8  2  0  0  0  0
  9  7  1  0  0  0  0
  9  5  1  0  0  0  0
 10  1  1  0  0  0  0
 13  9  1  0  0  0  0
 14 19  1  0  0  0  0
 14  7  1  0  0  0  0
 15 14  2  0  0  0  0
 16 15  1  0  0  0  0
 17 18  2  0  0  0  0
 17 15  1  0  0  0  0
 18 19  1  0  0  0  0
M  END
>  <minimizedAffinity>
-3.84993505

$$$$

 OpenBabel03242510523D

 19 20  0  0  0  0  0  0  0  0999 V2000
   41.8350   33.8080   40.2710 C   0  0  0  0  0  0  0  0  0  0  0  0
   41.5400   33.8240   38.8930 C   0  0  0  0  0  0  0  0  0  0  0  0
   40.5540   32.9340   38.4330 C   0  0  0  0  0  0  0  0  0  0  0  0
   39.9340   32.1080   39.3200 N   0  0  0  0  0  0  0  0  0  0  0  0
   40.2460   32.1240   40.6330 C   0  0  0  0  0  0  0  0  0  0  0  0
   41.1980   32.9800   41.0920 N   0  0  0  0  0  0  0  0  0  0  0  0
   38.8590   30.1750   40.8930 C   0  0  0  0  0  0  0  0  0  0  0  0
   38.7750   29.9370   39.6830 O   0  0  0  0  0  0  0  0  0  0  0  0
   39.5600   31.2320   41.5180 N   0  0  0  0  0  0  0  0  0  0  0  0
   42.5650   34.4360   40.7470 H   0  0  0  0  0  0  0  0  0  0  0  0
   42.0880   34.5160   38.2770 H   0  0  0  0  0  0  0  0  0  0  0  0
   40.3300   32.9470   37.3820 H   0  0  0  0  0  0  0  0  0  0  0  0
   39.5870   31.3700   42.5440 H   0  0  0  0  0  0  0  0  0  0  0  0
   38.1300   29.2230   41.7860 C   0  0  0  0  0  0  0  0  0  0  0  0
   38.5460   28.7990   43.1280 C   0  0  0  0  0  0  0  0  0  0  0  0
   39.4590   29.1890   43.5420 H   0  0  0  0  0  0  0  0  0  0  0  0
   37.6540   27.9180   43.6790 C   0  0  0  0  0  3  0  0  0  0  0  0
   36.5310   27.4960   43.0550 C   0  0  0  0  0  3  0  0  0  0  0  0
   36.6170   28.3950   41.4470 S   0  0  0  0  0  0  0  0  0  0  0  0
  1 10  1  0  0  0  0
  1  6  1  0  0  0  0
  2  1  2  0  0  0  0
  3  2  1  0  0  0  0
  3  4  2  0  0  0  0
  4  5  1  0  0  0  0
  5  6  2  0  0  0  0
  5  9  1  0  0  0  0
  7  9  1  0  0  0  0
  7 14  1  0  0  0  0
  8  7  2  0  0  0  0
  9 13  1  0  0  0  0
 11  2  1  0  0  0  0
 12  3  1  0  0  0  0
 14 15  2  0  0  0  0
 15 16  1  0  0  0  0
 15 17  1  0  0  0  0
 18 17  2  0  0  0  0
 19 14  1  0  0  0  0
 19 18  1  0  0  0  0
M  END
>  <minimizedAffinity>
-3.75159574

$$$$
