
 OpenBabel03242519433D

 31 34  0  0  1  0  0  0  0  0999 V2000
   37.5540   31.4890   40.0710 N   0  0  0  0  0  0  0  0  0  0  0  0
   37.3290   32.8880   40.0460 C   0  0  0  0  0  0  0  0  0  0  0  0
   38.5770   33.7050   40.1520 C   0  0  0  0  0  0  0  0  0  0  0  0
   39.5030   33.3120   41.1550 N   0  0  0  0  0  0  0  0  0  0  0  0
   39.5380   31.9420   41.4750 C   0  0  0  0  0  0  0  0  0  0  0  0
   38.7450   31.0040   40.6760 C   0  0  1  0  0  0  0  0  0  0  0  0
   36.6530   33.1920   40.8720 H   0  0  0  0  0  0  0  0  0  0  0  0
   36.8030   33.2510   39.1210 H   0  0  0  0  0  0  0  0  0  0  0  0
   39.0900   33.7780   39.1710 H   0  0  0  0  0  0  0  0  0  0  0  0
   38.2480   34.7560   40.4030 H   0  0  0  0  0  0  0  0  0  0  0  0
   40.4440   33.6860   40.8950 H   0  0  0  0  0  0  0  0  0  0  0  0
   39.2320   31.8400   42.5520 H   0  0  0  0  0  0  0  0  0  0  0  0
   40.6090   31.5950   41.4720 H   0  0  0  0  0  0  0  0  0  0  0  0
   39.4120   30.7360   39.7570 H   0  0  0  0  0  0  0  0  0  0  0  0
   35.8490   29.1260   37.7730 C   0  0  0  0  0  0  0  0  0  0  0  0
   36.7960   30.0560   38.2370 C   0  0  0  0  0  0  0  0  0  0  0  0
   36.6500   30.5610   39.5110 C   0  0  0  0  0  0  0  0  0  0  0  0
   35.5740   30.1170   40.2530 N   0  0  0  0  0  0  0  0  0  0  0  0
   34.6790   29.2200   39.7820 C   0  0  0  0  0  0  0  0  0  0  0  0
   34.8090   28.7140   38.5330 N   0  0  0  0  0  0  0  0  0  0  0  0
   36.0520   28.7840   36.7510 H   0  0  0  0  0  0  0  0  0  0  0  0
   37.6240   30.3780   37.6230 H   0  0  0  0  0  0  0  0  0  0  0  0
   33.8570   28.9120   40.4140 H   0  0  0  0  0  0  0  0  0  0  0  0
   38.5350   29.7480   41.3350 C   0  0  2  0  0  3  0  0  0  0  0  0
   38.4410   29.6940   42.5410 O   0  0  0  0  0  0  0  0  0  0  0  0
   38.3280   28.3120   41.7220 C   0  0  1  0  0  0  0  0  0  0  0  0
   37.2550   27.9460   42.3970 C   0  0  0  0  0  0  0  0  0  0  0  0
   36.3770   28.3960   42.8110 H   0  0  0  0  0  0  0  0  0  0  0  0
   36.9240   26.7210   42.7720 C   0  0  0  0  0  3  0  0  0  0  0  0
   37.8790   25.7740   42.3600 C   0  0  0  0  0  2  0  0  0  0  0  0
   39.1790   26.8770   41.4400 S   0  0  0  0  0  0  0  0  0  0  0  0
  1  6  1  0  0  0  0
  2  1  1  0  0  0  0
  2  3  1  0  0  0  0
  2  7  1  0  0  0  0
  3 10  1  0  0  0  0
  3  4  1  0  0  0  0
  4  5  1  0  0  0  0
  5 12  1  0  0  0  0
  6 14  1  6  0  0  0
  6 24  1  0  0  0  0
  6  5  1  0  0  0  0
  8  2  1  0  0  0  0
  9  3  1  0  0  0  0
 11  4  1  0  0  0  0
 13  5  1  0  0  0  0
 15 16  2  0  0  0  0
 15 20  1  0  0  0  0
 16 17  1  0  0  0  0
 17  1  1  0  0  0  0
 17 18  2  0  0  0  0
 19 18  1  0  0  0  0
 19 23  1  0  0  0  0
 20 19  2  0  0  0  0
 21 15  1  0  0  0  0
 22 16  1  0  0  0  0
 24 26  1  0  0  0  0
 24 25  1  1  0  0  0
 26 31  1  6  0  0  0
 26 27  1  0  0  0  0
 26 25  1  0  0  0  0
 27 29  2  0  0  0  0
 27 28  1  0  0  0  0
 30 29  1  0  0  0  0
 31 30  1  0  0  0  0
M  END
>  <minimizedAffinity>
-4.88067532

$$$$

 OpenBabel03242519433D

 31 34  0  0  1  0  0  0  0  0999 V2000
   39.4580   29.9760   42.1470 N   0  0  0  0  0  0  0  0  0  0  0  0
   40.8550   29.9480   42.3840 C   0  0  0  0  0  0  0  0  0  0  0  0
   41.4690   31.3020   42.5510 C   0  0  0  0  0  0  0  0  0  0  0  0
   41.0890   32.2870   41.6000 N   0  0  0  0  0  0  0  0  0  0  0  0
   39.7950   32.1710   41.0590 C   0  0  0  0  0  0  0  0  0  0  0  0
   38.8860   31.1560   41.5990 C   0  0  1  0  0  0  0  0  0  0  0  0
   41.3840   29.4360   41.5540 H   0  0  0  0  0  0  0  0  0  0  0  0
   41.1530   29.3620   43.2950 H   0  0  0  0  0  0  0  0  0  0  0  0
   41.3100   31.6870   43.5800 H   0  0  0  0  0  0  0  0  0  0  0  0
   42.5840   31.1600   42.4480 H   0  0  0  0  0  0  0  0  0  0  0  0
   41.2640   33.2290   42.0190 H   0  0  0  0  0  0  0  0  0  0  0  0
   39.9070   31.9970   39.9540 H   0  0  0  0  0  0  0  0  0  0  0  0
   39.2850   33.1730   41.1170 H   0  0  0  0  0  0  0  0  0  0  0  0
   38.3790   31.6530   42.5250 H   0  0  0  0  0  0  0  0  0  0  0  0
   36.8910   27.7780   43.6800 C   0  0  0  0  0  0  0  0  0  0  0  0
   37.6980   28.9110   43.4730 C   0  0  0  0  0  0  0  0  0  0  0  0
   38.6130   28.8860   42.4430 C   0  0  0  0  0  0  0  0  0  0  0  0
   38.6780   27.7400   41.6760 N   0  0  0  0  0  0  0  0  0  0  0  0
   37.8880   26.6640   41.8960 C   0  0  0  0  0  0  0  0  0  0  0  0
   36.9830   26.6750   42.9040 N   0  0  0  0  0  0  0  0  0  0  0  0
   36.1970   27.8970   44.5210 H   0  0  0  0  0  0  0  0  0  0  0  0
   37.6150   29.7880   44.0970 H   0  0  0  0  0  0  0  0  0  0  0  0
   37.9870   25.7970   41.2590 H   0  0  0  0  0  0  0  0  0  0  0  0
   37.7930   30.8600   40.7180 C   0  0  2  0  0  3  0  0  0  0  0  0
   36.9640   31.7040   40.4630 O   0  0  0  0  0  0  0  0  0  0  0  0
   36.7860   30.2540   39.7860 C   0  0  2  0  0  0  0  0  0  0  0  0
   35.6870   29.6940   40.2550 C   0  0  0  0  0  0  0  0  0  0  0  0
   35.2260   29.5060   41.2020 H   0  0  0  0  0  0  0  0  0  0  0  0
   34.7000   29.1570   39.5560 C   0  0  0  0  0  3  0  0  0  0  0  0
   34.9360   29.2410   38.1720 C   0  0  0  0  0  2  0  0  0  0  0  0
   36.6510   30.1380   38.1030 S   0  0  0  0  0  0  0  0  0  0  0  0
  1  2  1  0  0  0  0
  1 17  1  0  0  0  0
  2  3  1  0  0  0  0
  2  8  1  0  0  0  0
  3  9  1  0  0  0  0
  4 11  1  0  0  0  0
  4  3  1  0  0  0  0
  5 13  1  0  0  0  0
  5  6  1  0  0  0  0
  5  4  1  0  0  0  0
  6  1  1  0  0  0  0
  6 14  1  1  0  0  0
  7  2  1  0  0  0  0
 10  3  1  0  0  0  0
 12  5  1  0  0  0  0
 15 21  1  0  0  0  0
 16 15  1  0  0  0  0
 16 22  1  0  0  0  0
 17 16  2  0  0  0  0
 18 19  2  0  0  0  0
 18 17  1  0  0  0  0
 19 20  1  0  0  0  0
 20 15  2  0  0  0  0
 23 19  1  0  0  0  0
 24 25  1  1  0  0  0
 24  6  1  0  0  0  0
 26 31  1  6  0  0  0
 26 27  1  0  0  0  0
 26 25  1  0  0  0  0
 26 24  1  0  0  0  0
 27 28  1  0  0  0  0
 29 27  2  0  0  0  0
 30 29  1  0  0  0  0
 31 30  1  0  0  0  0
M  END
>  <minimizedAffinity>
-4.81524134

$$$$

 OpenBabel03242519433D

 31 34  0  0  1  0  0  0  0  0999 V2000
   36.8470   27.9120   40.4950 N   0  0  0  0  0  0  0  0  0  0  0  0
   37.3290   26.5980   40.7220 C   0  0  0  0  0  0  0  0  0  0  0  0
   37.1540   26.1230   42.1300 C   0  0  0  0  0  0  0  0  0  0  0  0
   37.5300   27.0340   43.1520 N   0  0  0  0  0  0  0  0  0  0  0  0
   37.3890   28.4030   42.8570 C   0  0  0  0  0  0  0  0  0  0  0  0
   36.7440   28.7970   41.6020 C   0  0  1  0  0  0  0  0  0  0  0  0
   38.4080   26.5270   40.4710 H   0  0  0  0  0  0  0  0  0  0  0  0
   36.8500   25.8160   40.0730 H   0  0  0  0  0  0  0  0  0  0  0  0
   36.1190   25.7640   42.3030 H   0  0  0  0  0  0  0  0  0  0  0  0
   37.8150   25.2140   42.2420 H   0  0  0  0  0  0  0  0  0  0  0  0
   37.0330   26.7620   44.0310 H   0  0  0  0  0  0  0  0  0  0  0  0
   38.4150   28.8620   42.8890 H   0  0  0  0  0  0  0  0  0  0  0  0
   36.8490   28.9050   43.7080 H   0  0  0  0  0  0  0  0  0  0  0  0
   35.5990   28.7990   41.8260 H   0  0  0  0  0  0  0  0  0  0  0  0
   34.8520   29.0460   37.5790 C   0  0  0  0  0  0  0  0  0  0  0  0
   35.1390   28.5730   38.8720 C   0  0  0  0  0  0  0  0  0  0  0  0
   36.4570   28.3700   39.2190 C   0  0  0  0  0  0  0  0  0  0  0  0
   37.4170   28.6450   38.2650 N   0  0  0  0  0  0  0  0  0  0  0  0
   37.1120   29.1000   37.0290 C   0  0  0  0  0  0  0  0  0  0  0  0
   35.8210   29.3050   36.6730 N   0  0  0  0  0  0  0  0  0  0  0  0
   33.7770   29.1750   37.4010 H   0  0  0  0  0  0  0  0  0  0  0  0
   34.3570   28.3700   39.5890 H   0  0  0  0  0  0  0  0  0  0  0  0
   37.9100   29.2970   36.3270 H   0  0  0  0  0  0  0  0  0  0  0  0
   37.0300   30.1530   41.2290 C   0  0  2  0  0  3  0  0  0  0  0  0
   36.1850   31.0120   41.3420 O   0  0  0  0  0  0  0  0  0  0  0  0
   37.6190   31.4500   40.7560 C   0  0  2  0  0  0  0  0  0  0  0  0
   36.9740   32.2030   39.8860 C   0  0  0  0  0  0  0  0  0  0  0  0
   36.0560   32.1870   39.3380 H   0  0  0  0  0  0  0  0  0  0  0  0
   37.3520   33.3790   39.4110 C   0  0  0  0  0  3  0  0  0  0  0  0
   38.5830   33.7890   39.9520 C   0  0  0  0  0  2  0  0  0  0  0  0
   39.0230   32.3160   41.1320 S   0  0  0  0  0  0  0  0  0  0  0  0
  1  2  1  0  0  0  0
  1  6  1  0  0  0  0
  2  3  1  0  0  0  0
  3 10  1  0  0  0  0
  3  9  1  0  0  0  0
  3  4  1  0  0  0  0
  4 11  1  0  0  0  0
  5 12  1  0  0  0  0
  5  4  1  0  0  0  0
  5 13  1  0  0  0  0
  6 14  1  1  0  0  0
  6  5  1  0  0  0  0
  7  2  1  0  0  0  0
  8  2  1  0  0  0  0
 15 16  1  0  0  0  0
 16 17  2  0  0  0  0
 16 22  1  0  0  0  0
 17  1  1  0  0  0  0
 18 17  1  0  0  0  0
 19 18  2  0  0  0  0
 20 19  1  0  0  0  0
 20 15  2  0  0  0  0
 21 15  1  0  0  0  0
 23 19  1  0  0  0  0
 24 25  1  6  0  0  0
 24  6  1  0  0  0  0
 26 27  1  6  0  0  0
 26 31  1  0  0  0  0
 26 24  1  0  0  0  0
 26 25  1  0  0  0  0
 28 27  1  0  0  0  0
 29 27  2  0  0  0  0
 29 30  1  0  0  0  0
 30 31  1  0  0  0  0
M  END
>  <minimizedAffinity>
-4.80145836

$$$$

 OpenBabel03242519433D

 31 34  0  0  1  0  0  0  0  0999 V2000
   37.1060   30.5110   38.0800 N   0  0  0  0  0  0  0  0  0  0  0  0
   37.4140   30.2680   36.7180 C   0  0  0  0  0  0  0  0  0  0  0  0
   36.2770   29.6940   35.9330 C   0  0  0  0  0  0  0  0  0  0  0  0
   35.5700   28.6220   36.5410 N   0  0  0  0  0  0  0  0  0  0  0  0
   35.5140   28.6230   37.9470 C   0  0  0  0  0  0  0  0  0  0  0  0
   36.0480   29.7750   38.6790 C   0  0  1  0  0  0  0  0  0  0  0  0
   38.2730   29.5710   36.6280 H   0  0  0  0  0  0  0  0  0  0  0  0
   37.7460   31.1800   36.1530 H   0  0  0  0  0  0  0  0  0  0  0  0
   35.5670   30.4880   35.6220 H   0  0  0  0  0  0  0  0  0  0  0  0
   36.7230   29.2920   34.9770 H   0  0  0  0  0  0  0  0  0  0  0  0
   34.6220   28.5660   36.1040 H   0  0  0  0  0  0  0  0  0  0  0  0
   36.0430   27.6980   38.3060 H   0  0  0  0  0  0  0  0  0  0  0  0
   34.4480   28.4590   38.2690 H   0  0  0  0  0  0  0  0  0  0  0  0
   35.1790   30.5530   38.7130 H   0  0  0  0  0  0  0  0  0  0  0  0
   38.0100   33.5350   40.0330 C   0  0  0  0  0  0  0  0  0  0  0  0
   37.2420   32.6600   39.2440 C   0  0  0  0  0  0  0  0  0  0  0  0
   37.8010   31.4600   38.8600 C   0  0  0  0  0  0  0  0  0  0  0  0
   39.0890   31.1940   39.2790 N   0  0  0  0  0  0  0  0  0  0  0  0
   39.8050   32.0530   40.0380 C   0  0  0  0  0  0  0  0  0  0  0  0
   39.2700   33.2360   40.4240 N   0  0  0  0  0  0  0  0  0  0  0  0
   37.4790   34.4600   40.2850 H   0  0  0  0  0  0  0  0  0  0  0  0
   36.2370   32.9070   38.9370 H   0  0  0  0  0  0  0  0  0  0  0  0
   40.8100   31.7860   40.3340 H   0  0  0  0  0  0  0  0  0  0  0  0
   36.3130   29.4870   40.0590 C   0  0  2  0  0  3  0  0  0  0  0  0
   35.6510   30.0000   40.9320 O   0  0  0  0  0  0  0  0  0  0  0  0
   36.8290   28.9990   41.3810 C   0  0  1  0  0  0  0  0  0  0  0  0
   36.3200   27.9200   41.9440 C   0  0  0  0  0  0  0  0  0  0  0  0
   35.5650   27.1910   41.7410 H   0  0  0  0  0  0  0  0  0  0  0  0
   36.6970   27.3570   43.0810 C   0  0  0  0  0  3  0  0  0  0  0  0
   37.7630   28.0520   43.6800 C   0  0  0  0  0  2  0  0  0  0  0  0
   38.0650   29.4970   42.4240 S   0  0  0  0  0  0  0  0  0  0  0  0
  1  6  1  0  0  0  0
  1 17  1  0  0  0  0
  2  1  1  0  0  0  0
  3  4  1  0  0  0  0
  3  2  1  0  0  0  0
  4  5  1  0  0  0  0
  5 13  1  0  0  0  0
  5 12  1  0  0  0  0
  5  6  1  0  0  0  0
  6 14  1  1  0  0  0
  6 24  1  0  0  0  0
  7  2  1  0  0  0  0
  8  2  1  0  0  0  0
  9  3  1  0  0  0  0
 10  3  1  0  0  0  0
 11  4  1  0  0  0  0
 15 21  1  0  0  0  0
 15 20  1  0  0  0  0
 16 15  2  0  0  0  0
 17 16  1  0  0  0  0
 17 18  2  0  0  0  0
 18 19  1  0  0  0  0
 19 23  1  0  0  0  0
 19 20  2  0  0  0  0
 22 16  1  0  0  0  0
 24 25  1  1  0  0  0
 24 26  1  0  0  0  0
 26 25  1  1  0  0  0
 26 27  1  0  0  0  0
 26 31  1  0  0  0  0
 27 29  2  0  0  0  0
 28 27  1  0  0  0  0
 29 30  1  0  0  0  0
 31 30  1  0  0  0  0
M  END
>  <minimizedAffinity>
-4.75941229

$$$$

 OpenBabel03242519433D

 31 34  0  0  1  0  0  0  0  0999 V2000
   38.2110   31.3600   40.7590 N   0  0  0  0  0  0  0  0  0  0  0  0
   39.2110   32.3440   40.9640 C   0  0  0  0  0  0  0  0  0  0  0  0
   38.7330   33.7470   40.7580 C   0  0  0  0  0  0  0  0  0  0  0  0
   37.9560   33.9820   39.5930 N   0  0  0  0  0  0  0  0  0  0  0  0
   37.1760   32.9060   39.1290 C   0  0  0  0  0  0  0  0  0  0  0  0
   37.0990   31.6850   39.9350 C   0  0  1  0  0  0  0  0  0  0  0  0
   40.0710   32.1760   40.2830 H   0  0  0  0  0  0  0  0  0  0  0  0
   39.6700   32.3240   41.9890 H   0  0  0  0  0  0  0  0  0  0  0  0
   38.1940   34.1190   41.6550 H   0  0  0  0  0  0  0  0  0  0  0  0
   39.6580   34.3870   40.6700 H   0  0  0  0  0  0  0  0  0  0  0  0
   37.3900   34.8480   39.7470 H   0  0  0  0  0  0  0  0  0  0  0  0
   37.5530   32.6340   38.1050 H   0  0  0  0  0  0  0  0  0  0  0  0
   36.1290   33.2720   38.9360 H   0  0  0  0  0  0  0  0  0  0  0  0
   36.2490   31.8760   40.7110 H   0  0  0  0  0  0  0  0  0  0  0  0
   39.2330   27.9160   41.6880 C   0  0  0  0  0  0  0  0  0  0  0  0
   39.2510   29.1630   41.0380 C   0  0  0  0  0  0  0  0  0  0  0  0
   38.2700   30.0790   41.3470 C   0  0  0  0  0  0  0  0  0  0  0  0
   37.3250   29.7100   42.2830 N   0  0  0  0  0  0  0  0  0  0  0  0
   37.3320   28.5040   42.8950 C   0  0  0  0  0  0  0  0  0  0  0  0
   38.2900   27.5930   42.6020 N   0  0  0  0  0  0  0  0  0  0  0  0
   40.0530   27.2590   41.3740 H   0  0  0  0  0  0  0  0  0  0  0  0
   40.0100   29.4120   40.3100 H   0  0  0  0  0  0  0  0  0  0  0  0
   36.5640   28.2750   43.6200 H   0  0  0  0  0  0  0  0  0  0  0  0
   36.6410   30.5500   39.1870 C   0  0  2  0  0  3  0  0  0  0  0  0
   36.8850   30.4540   38.0050 O   0  0  0  0  0  0  0  0  0  0  0  0
   36.0300   29.2730   38.6880 C   0  0  2  0  0  0  0  0  0  0  0  0
   34.9560   29.2960   37.9210 C   0  0  0  0  0  0  0  0  0  0  0  0
   34.2970   30.0180   37.4880 H   0  0  0  0  0  0  0  0  0  0  0  0
   34.3350   28.2590   37.3820 C   0  0  0  0  0  3  0  0  0  0  0  0
   34.9600   27.0450   37.7160 C   0  0  0  0  0  2  0  0  0  0  0  0
   36.4360   27.6360   38.8240 S   0  0  0  0  0  0  0  0  0  0  0  0
  1  2  1  0  0  0  0
  1 17  1  0  0  0  0
  2  8  1  0  0  0  0
  3  2  1  0  0  0  0
  3  9  1  0  0  0  0
  4 11  1  0  0  0  0
  4  3  1  0  0  0  0
  5  4  1  0  0  0  0
  5  6  1  0  0  0  0
  6 14  1  1  0  0  0
  6  1  1  0  0  0  0
  7  2  1  0  0  0  0
 10  3  1  0  0  0  0
 12  5  1  0  0  0  0
 13  5  1  0  0  0  0
 15 20  1  0  0  0  0
 16 17  1  0  0  0  0
 16 15  2  0  0  0  0
 17 18  2  0  0  0  0
 18 19  1  0  0  0  0
 19 23  1  0  0  0  0
 20 19  2  0  0  0  0
 21 15  1  0  0  0  0
 22 16  1  0  0  0  0
 24 25  1  6  0  0  0
 24  6  1  0  0  0  0
 25 26  1  0  0  0  0
 26 27  1  6  0  0  0
 26 31  1  0  0  0  0
 26 24  1  0  0  0  0
 28 27  1  0  0  0  0
 29 30  1  0  0  0  0
 29 27  2  0  0  0  0
 30 31  1  0  0  0  0
M  END
>  <minimizedAffinity>
-4.63995838

$$$$

 OpenBabel03242519433D

 31 34  0  0  1  0  0  0  0  0999 V2000
   36.9570   30.3280   37.9810 N   0  0  0  0  0  0  0  0  0  0  0  0
   37.2300   30.0160   36.6250 C   0  0  0  0  0  0  0  0  0  0  0  0
   36.0720   29.4090   35.8970 C   0  0  0  0  0  0  0  0  0  0  0  0
   35.3770   28.3720   36.5740 N   0  0  0  0  0  0  0  0  0  0  0  0
   35.3550   28.4430   37.9800 C   0  0  0  0  0  0  0  0  0  0  0  0
   35.9100   29.6280   38.6410 C   0  0  1  0  0  0  0  0  0  0  0  0
   38.0840   29.3120   36.5490 H   0  0  0  0  0  0  0  0  0  0  0  0
   37.5520   30.8980   36.0080 H   0  0  0  0  0  0  0  0  0  0  0  0
   35.3570   30.1910   35.5650 H   0  0  0  0  0  0  0  0  0  0  0  0
   36.4930   28.9590   34.9520 H   0  0  0  0  0  0  0  0  0  0  0  0
   34.4180   28.3000   36.1640 H   0  0  0  0  0  0  0  0  0  0  0  0
   35.8890   27.5340   38.3710 H   0  0  0  0  0  0  0  0  0  0  0  0
   34.2960   28.3010   38.3350 H   0  0  0  0  0  0  0  0  0  0  0  0
   35.0450   30.4100   38.6570 H   0  0  0  0  0  0  0  0  0  0  0  0
   39.6420   32.2290   39.6970 C   0  0  0  0  0  0  0  0  0  0  0  0
   39.0130   31.1880   38.9920 C   0  0  0  0  0  0  0  0  0  0  0  0
   37.6730   31.3110   38.6960 C   0  0  0  0  0  0  0  0  0  0  0  0
   37.0310   32.4590   39.1150 N   0  0  0  0  0  0  0  0  0  0  0  0
   37.6600   33.4450   39.7920 C   0  0  0  0  0  0  0  0  0  0  0  0
   38.9770   33.3390   40.0900 N   0  0  0  0  0  0  0  0  0  0  0  0
   40.7050   32.0360   39.8840 H   0  0  0  0  0  0  0  0  0  0  0  0
   39.5530   30.3050   38.6820 H   0  0  0  0  0  0  0  0  0  0  0  0
   37.1010   34.3200   40.0930 H   0  0  0  0  0  0  0  0  0  0  0  0
   36.2080   29.4060   40.0260 C   0  0  2  0  0  3  0  0  0  0  0  0
   35.5040   29.8800   40.8890 O   0  0  0  0  0  0  0  0  0  0  0  0
   36.7740   29.0090   41.3580 C   0  0  1  0  0  0  0  0  0  0  0  0
   36.3230   27.9410   41.9890 C   0  0  0  0  0  0  0  0  0  0  0  0
   35.5930   27.1730   41.8420 H   0  0  0  0  0  0  0  0  0  0  0  0
   36.7490   27.4530   43.1430 C   0  0  0  0  0  3  0  0  0  0  0  0
   37.7990   28.2210   43.6780 C   0  0  0  0  0  2  0  0  0  0  0  0
   38.0120   29.6090   42.3430 S   0  0  0  0  0  0  0  0  0  0  0  0
  1  6  1  0  0  0  0
  1 17  1  0  0  0  0
  2  1  1  0  0  0  0
  3  4  1  0  0  0  0
  3  2  1  0  0  0  0
  4  5  1  0  0  0  0
  5 13  1  0  0  0  0
  5 12  1  0  0  0  0
  5  6  1  0  0  0  0
  6 14  1  1  0  0  0
  6 24  1  0  0  0  0
  7  2  1  0  0  0  0
  8  2  1  0  0  0  0
  9  3  1  0  0  0  0
 10  3  1  0  0  0  0
 11  4  1  0  0  0  0
 15 21  1  0  0  0  0
 15 20  1  0  0  0  0
 16 15  2  0  0  0  0
 17 16  1  0  0  0  0
 17 18  2  0  0  0  0
 18 19  1  0  0  0  0
 19 20  2  0  0  0  0
 19 23  1  0  0  0  0
 22 16  1  0  0  0  0
 24 25  1  1  0  0  0
 24 26  1  0  0  0  0
 26 25  1  1  0  0  0
 26 27  1  0  0  0  0
 26 31  1  0  0  0  0
 27 29  2  0  0  0  0
 28 27  1  0  0  0  0
 29 30  1  0  0  0  0
 31 30  1  0  0  0  0
M  END
>  <minimizedAffinity>
-4.63690901

$$$$

 OpenBabel03242519433D

 31 34  0  0  1  0  0  0  0  0999 V2000
   37.2040   26.4620   40.9260 N   0  0  0  0  0  0  0  0  0  0  0  0
   36.9580   25.3140   40.1320 C   0  0  0  0  0  0  0  0  0  0  0  0
   36.8520   24.0450   40.9180 C   0  0  0  0  0  0  0  0  0  0  0  0
   37.8520   23.8310   41.9040 N   0  0  0  0  0  0  0  0  0  0  0  0
   38.3950   24.9800   42.5080 C   0  0  0  0  0  0  0  0  0  0  0  0
   37.8130   26.2890   42.1990 C   0  0  1  0  0  0  0  0  0  0  0  0
   37.7590   25.1790   39.3770 H   0  0  0  0  0  0  0  0  0  0  0  0
   36.0180   25.3730   39.5200 H   0  0  0  0  0  0  0  0  0  0  0  0
   35.8450   23.9390   41.3700 H   0  0  0  0  0  0  0  0  0  0  0  0
   36.9420   23.2020   40.1720 H   0  0  0  0  0  0  0  0  0  0  0  0
   37.4790   23.1510   42.6050 H   0  0  0  0  0  0  0  0  0  0  0  0
   39.4900   25.0090   42.2530 H   0  0  0  0  0  0  0  0  0  0  0  0
   38.3880   24.8420   43.6250 H   0  0  0  0  0  0  0  0  0  0  0  0
   36.9140   26.4120   42.9340 H   0  0  0  0  0  0  0  0  0  0  0  0
   35.5990   29.7940   40.6220 C   0  0  0  0  0  0  0  0  0  0  0  0
   35.8570   28.4970   41.1020 C   0  0  0  0  0  0  0  0  0  0  0  0
   36.8610   27.7650   40.5080 C   0  0  0  0  0  0  0  0  0  0  0  0
   37.5540   28.3580   39.4710 N   0  0  0  0  0  0  0  0  0  0  0  0
   37.2860   29.6070   39.0300 C   0  0  0  0  0  0  0  0  0  0  0  0
   36.3020   30.3400   39.6040 N   0  0  0  0  0  0  0  0  0  0  0  0
   34.7840   30.2930   41.1590 H   0  0  0  0  0  0  0  0  0  0  0  0
   35.2900   28.0700   41.9160 H   0  0  0  0  0  0  0  0  0  0  0  0
   37.8650   30.0150   38.2130 H   0  0  0  0  0  0  0  0  0  0  0  0
   38.6840   27.3800   42.5260 C   0  0  2  0  0  3  0  0  0  0  0  0
   38.8510   27.7090   43.6790 O   0  0  0  0  0  0  0  0  0  0  0  0
   39.6340   28.5420   42.5450 C   0  0  2  0  0  0  0  0  0  0  0  0
   39.1800   29.7810   42.5600 C   0  0  0  0  0  0  0  0  0  0  0  0
   38.2390   30.2890   42.5610 H   0  0  0  0  0  0  0  0  0  0  0  0
   39.8930   30.8940   42.6150 C   0  0  0  0  0  3  0  0  0  0  0  0
   41.2730   30.6280   42.6600 C   0  0  0  0  0  2  0  0  0  0  0  0
   41.3180   28.6910   42.6150 S   0  0  0  0  0  0  0  0  0  0  0  0
  1  6  1  0  0  0  0
  2  3  1  0  0  0  0
  2  1  1  0  0  0  0
  3  9  1  0  0  0  0
  3  4  1  0  0  0  0
  4  5  1  0  0  0  0
  4 11  1  0  0  0  0
  5 13  1  0  0  0  0
  6  5  1  0  0  0  0
  6 24  1  0  0  0  0
  6 14  1  1  0  0  0
  7  2  1  0  0  0  0
  8  2  1  0  0  0  0
 10  3  1  0  0  0  0
 12  5  1  0  0  0  0
 15 16  1  0  0  0  0
 15 21  1  0  0  0  0
 16 22  1  0  0  0  0
 17  1  1  0  0  0  0
 17 16  2  0  0  0  0
 18 17  1  0  0  0  0
 19 18  2  0  0  0  0
 19 20  1  0  0  0  0
 20 15  2  0  0  0  0
 23 19  1  0  0  0  0
 24 26  1  0  0  0  0
 24 25  1  6  0  0  0
 26 27  1  6  0  0  0
 26 31  1  0  0  0  0
 26 25  1  0  0  0  0
 27 28  1  0  0  0  0
 27 29  2  0  0  0  0
 29 30  1  0  0  0  0
 31 30  1  0  0  0  0
M  END
>  <minimizedAffinity>
-4.54632521

$$$$

 OpenBabel03242519433D

 31 34  0  0  1  0  0  0  0  0999 V2000
   38.1340   29.2160   41.2850 N   0  0  0  0  0  0  0  0  0  0  0  0
   37.8790   30.4300   40.5980 C   0  0  0  0  0  0  0  0  0  0  0  0
   36.5270   31.0090   40.8720 C   0  0  0  0  0  0  0  0  0  0  0  0
   35.4320   30.1050   40.8220 N   0  0  0  0  0  0  0  0  0  0  0  0
   35.7030   28.7710   41.1790 C   0  0  0  0  0  0  0  0  0  0  0  0
   37.0270   28.4300   41.7070 C   0  0  1  0  0  0  0  0  0  0  0  0
   37.9700   30.2860   39.5010 H   0  0  0  0  0  0  0  0  0  0  0  0
   38.6140   31.2480   40.8240 H   0  0  0  0  0  0  0  0  0  0  0  0
   36.5180   31.5620   41.8340 H   0  0  0  0  0  0  0  0  0  0  0  0
   36.3470   31.7860   40.0720 H   0  0  0  0  0  0  0  0  0  0  0  0
   34.6460   30.5140   41.3750 H   0  0  0  0  0  0  0  0  0  0  0  0
   35.5070   28.1340   40.2730 H   0  0  0  0  0  0  0  0  0  0  0  0
   34.9260   28.4260   41.9170 H   0  0  0  0  0  0  0  0  0  0  0  0
   36.9730   28.6530   42.8510 H   0  0  0  0  0  0  0  0  0  0  0  0
   41.2120   28.1280   43.0490 C   0  0  0  0  0  0  0  0  0  0  0  0
   39.8990   28.5960   42.8620 C   0  0  0  0  0  0  0  0  0  0  0  0
   39.4390   28.7650   41.5750 C   0  0  0  0  0  0  0  0  0  0  0  0
   40.3050   28.4620   40.5430 N   0  0  0  0  0  0  0  0  0  0  0  0
   41.5630   28.0120   40.7510 C   0  0  0  0  0  0  0  0  0  0  0  0
   42.0290   27.8400   42.0110 N   0  0  0  0  0  0  0  0  0  0  0  0
   41.4830   28.0280   44.1060 H   0  0  0  0  0  0  0  0  0  0  0  0
   39.2530   28.8230   43.6980 H   0  0  0  0  0  0  0  0  0  0  0  0
   42.1920   27.7910   39.9000 H   0  0  0  0  0  0  0  0  0  0  0  0
   37.3130   27.0270   41.6360 C   0  0  2  0  0  3  0  0  0  0  0  0
   36.9890   26.2870   42.5380 O   0  0  0  0  0  0  0  0  0  0  0  0
   37.7500   25.6360   41.2770 C   0  0  1  0  0  0  0  0  0  0  0  0
   36.8590   24.7060   40.9880 C   0  0  0  0  0  0  0  0  0  0  0  0
   35.7970   24.6090   40.9190 H   0  0  0  0  0  0  0  0  0  0  0  0
   37.0970   23.4570   40.6210 C   0  0  0  0  0  3  0  0  0  0  0  0
   38.4750   23.1840   40.5590 C   0  0  0  0  0  2  0  0  0  0  0  0
   39.2510   24.8840   41.0730 S   0  0  0  0  0  0  0  0  0  0  0  0
  1 17  1  0  0  0  0
  1  6  1  0  0  0  0
  2  8  1  0  0  0  0
  2  3  1  0  0  0  0
  2  1  1  0  0  0  0
  3  9  1  0  0  0  0
  4  3  1  0  0  0  0
  4  5  1  0  0  0  0
  4 11  1  0  0  0  0
  5  6  1  0  0  0  0
  5 13  1  0  0  0  0
  6 14  1  1  0  0  0
  7  2  1  0  0  0  0
 10  3  1  0  0  0  0
 12  5  1  0  0  0  0
 15 21  1  0  0  0  0
 16 15  1  0  0  0  0
 16 22  1  0  0  0  0
 17 16  2  0  0  0  0
 18 19  2  0  0  0  0
 18 17  1  0  0  0  0
 19 20  1  0  0  0  0
 20 15  2  0  0  0  0
 23 19  1  0  0  0  0
 24  6  1  0  0  0  0
 24 25  1  1  0  0  0
 26 27  1  6  0  0  0
 26 24  1  0  0  0  0
 26 25  1  0  0  0  0
 28 27  1  0  0  0  0
 29 27  2  0  0  0  0
 30 29  1  0  0  0  0
 30 31  1  0  0  0  0
 31 26  1  0  0  0  0
M  END
>  <minimizedAffinity>
-4.54410362

$$$$

 OpenBabel03242519433D

 31 34  0  0  1  0  0  0  0  0999 V2000
   37.8730   30.8340   40.4970 N   0  0  0  0  0  0  0  0  0  0  0  0
   37.7270   32.2410   40.5900 C   0  0  0  0  0  0  0  0  0  0  0  0
   39.0240   32.9790   40.7030 C   0  0  0  0  0  0  0  0  0  0  0  0
   39.9660   32.4580   41.6290 N   0  0  0  0  0  0  0  0  0  0  0  0
   39.9360   31.0670   41.8410 C   0  0  0  0  0  0  0  0  0  0  0  0
   39.0580   30.2400   41.0090 C   0  0  1  0  0  0  0  0  0  0  0  0
   37.1050   32.5140   41.4680 H   0  0  0  0  0  0  0  0  0  0  0  0
   37.1860   32.7050   39.7220 H   0  0  0  0  0  0  0  0  0  0  0  0
   39.4990   33.1020   39.7070 H   0  0  0  0  0  0  0  0  0  0  0  0
   38.7660   34.0220   41.0490 H   0  0  0  0  0  0  0  0  0  0  0  0
   40.9150   32.8000   41.3560 H   0  0  0  0  0  0  0  0  0  0  0  0
   39.6690   30.8960   42.9190 H   0  0  0  0  0  0  0  0  0  0  0  0
   40.9850   30.6640   41.7620 H   0  0  0  0  0  0  0  0  0  0  0  0
   39.6710   30.0100   40.0420 H   0  0  0  0  0  0  0  0  0  0  0  0
   34.7050   29.0580   39.7360 C   0  0  0  0  0  0  0  0  0  0  0  0
   35.6120   29.9020   40.4000 C   0  0  0  0  0  0  0  0  0  0  0  0
   36.8950   30.0040   39.9090 C   0  0  0  0  0  0  0  0  0  0  0  0
   37.2090   29.2650   38.7860 N   0  0  0  0  0  0  0  0  0  0  0  0
   36.3160   28.4600   38.1660 C   0  0  0  0  0  0  0  0  0  0  0  0
   35.0510   28.3500   38.6360 N   0  0  0  0  0  0  0  0  0  0  0  0
   33.7130   29.0450   40.2020 H   0  0  0  0  0  0  0  0  0  0  0  0
   35.3260   30.4640   41.2770 H   0  0  0  0  0  0  0  0  0  0  0  0
   36.6240   27.9070   37.2900 H   0  0  0  0  0  0  0  0  0  0  0  0
   38.8040   28.9480   41.5770 C   0  0  2  0  0  3  0  0  0  0  0  0
   38.5110   28.8380   42.7470 O   0  0  0  0  0  0  0  0  0  0  0  0
   38.6080   27.4890   41.8730 C   0  0  1  0  0  0  0  0  0  0  0  0
   37.3940   26.9800   41.9670 C   0  0  0  0  0  0  0  0  0  0  0  0
   36.3800   27.3100   41.8950 H   0  0  0  0  0  0  0  0  0  0  0  0
   37.0710   25.7160   42.1850 C   0  0  0  0  0  3  0  0  0  0  0  0
   38.2100   24.9010   42.3140 C   0  0  0  0  0  2  0  0  0  0  0  0
   39.6520   26.1750   42.0860 S   0  0  0  0  0  0  0  0  0  0  0  0
  1  2  1  0  0  0  0
  1  6  1  0  0  0  0
  2  3  1  0  0  0  0
  2  7  1  0  0  0  0
  3 10  1  0  0  0  0
  3  4  1  0  0  0  0
  4  5  1  0  0  0  0
  5 12  1  0  0  0  0
  6 14  1  6  0  0  0
  6 24  1  0  0  0  0
  6  5  1  0  0  0  0
  8  2  1  0  0  0  0
  9  3  1  0  0  0  0
 11  4  1  0  0  0  0
 13  5  1  0  0  0  0
 15 21  1  0  0  0  0
 15 16  1  0  0  0  0
 16 22  1  0  0  0  0
 17 16  2  0  0  0  0
 17  1  1  0  0  0  0
 18 17  1  0  0  0  0
 19 20  1  0  0  0  0
 19 18  2  0  0  0  0
 20 15  2  0  0  0  0
 23 19  1  0  0  0  0
 24 26  1  0  0  0  0
 24 25  1  1  0  0  0
 26 27  1  6  0  0  0
 26 31  1  0  0  0  0
 26 25  1  0  0  0  0
 27 29  2  0  0  0  0
 28 27  1  0  0  0  0
 29 30  1  0  0  0  0
 31 30  1  0  0  0  0
M  END
>  <minimizedAffinity>
-4.48440981

$$$$
