
 OpenBabel03242510503D

 19 20  0  0  0  0  0  0  0  0999 V2000
   44.5890   36.3340   44.5080 C   0  0  0  0  0  0  0  0  0  0  0  0
   45.2420   36.3960   43.2610 C   0  0  0  0  0  0  0  0  0  0  0  0
   45.9770   35.2670   42.8590 C   0  0  0  0  0  0  0  0  0  0  0  0
   46.0270   34.1780   43.6750 N   0  0  0  0  0  0  0  0  0  0  0  0
   45.3870   34.1590   44.8640 C   0  0  0  0  0  0  0  0  0  0  0  0
   44.6720   35.2440   45.2650 N   0  0  0  0  0  0  0  0  0  0  0  0
   46.5010   32.0780   45.3280 C   0  0  0  0  0  0  0  0  0  0  0  0
   47.3210   32.1840   44.4080 O   0  0  0  0  0  0  0  0  0  0  0  0
   45.4750   32.9850   45.6780 N   0  0  0  0  0  0  0  0  0  0  0  0
   43.9980   37.1260   44.9290 H   0  0  0  0  0  0  0  0  0  0  0  0
   45.1390   37.3040   42.6930 H   0  0  0  0  0  0  0  0  0  0  0  0
   46.4750   35.3160   41.9090 H   0  0  0  0  0  0  0  0  0  0  0  0
   44.8220   32.8300   46.4660 H   0  0  0  0  0  0  0  0  0  0  0  0
   46.6250   30.8400   46.1570 C   0  0  0  0  0  0  0  0  0  0  0  0
   45.5980   30.2830   47.0450 C   0  0  0  0  0  0  0  0  0  0  0  0
   44.6510   30.7870   47.1330 H   0  0  0  0  0  0  0  0  0  0  0  0
   46.0280   29.1380   47.6610 C   0  0  0  0  0  3  0  0  0  0  0  0
   47.2530   28.5950   47.4680 C   0  0  0  0  0  3  0  0  0  0  0  0
   48.0140   29.7680   46.2650 S   0  0  0  0  0  0  0  0  0  0  0  0
  1 10  1  0  0  0  0
  1  6  1  0  0  0  0
  2  1  2  0  0  0  0
  3  2  1  0  0  0  0
  3  4  2  0  0  0  0
  4  5  1  0  0  0  0
  5  6  2  0  0  0  0
  5  9  1  0  0  0  0
  7  9  1  0  0  0  0
  7 14  1  0  0  0  0
  8  7  2  0  0  0  0
  9 13  1  0  0  0  0
 11  2  1  0  0  0  0
 12  3  1  0  0  0  0
 14 19  1  0  0  0  0
 14 15  2  0  0  0  0
 15 16  1  0  0  0  0
 15 17  1  0  0  0  0
 18 17  2  0  0  0  0
 19 18  1  0  0  0  0
M  END
>  <minimizedAffinity>
-4.23527288

>  <minimizedRMSD>
2.16230178

$$$$
