
 OpenBabel03252508013D

 26 28  0  0  1  0  0  0  0  0999 V2000
   37.7510   28.5280   42.1790 C   0  0  0  0  0  0  0  0  0  0  0  0
   38.5920   29.1810   43.1260 C   0  0  0  0  0  0  0  0  0  0  0  0
   39.2360   30.3580   42.6930 C   0  0  0  0  0  0  0  0  0  0  0  0
   39.0120   30.7800   41.4210 N   0  0  0  0  0  0  0  0  0  0  0  0
   38.1860   30.0900   40.5730 C   0  0  0  0  0  0  0  0  0  0  0  0
   37.5550   28.9820   40.9200 N   0  0  0  0  0  0  0  0  0  0  0  0
   38.7440   28.8230   44.1100 H   0  0  0  0  0  0  0  0  0  0  0  0
   39.8850   30.9050   43.3480 H   0  0  0  0  0  0  0  0  0  0  0  0
   37.9770   30.6250   39.1890 C   0  0  1  0  0  0  0  0  0  0  0  0
   36.5660   30.7890   38.6740 C   0  0  0  0  0  0  0  0  0  0  0  0
   37.3670   31.9720   39.1400 C   0  0  1  0  0  0  0  0  0  0  0  0
   38.7390   30.3090   38.4580 H   0  0  0  0  0  0  0  0  0  0  0  0
   36.4330   30.5570   37.6160 H   0  0  0  0  0  0  0  0  0  0  0  0
   35.8180   30.3060   39.3370 H   0  0  0  0  0  0  0  0  0  0  0  0
   37.6450   32.7370   38.4060 H   0  0  0  0  0  0  0  0  0  0  0  0
   36.8030   32.5490   40.3670 N   0  0  0  0  0  0  0  0  0  0  0  0
   37.3850   33.3780   40.5910 H   0  0  0  0  0  0  0  0  0  0  0  0
   35.7930   32.7890   40.1560 H   0  0  0  0  0  0  0  0  0  0  0  0
   37.1240   27.3550   42.6940 C   0  0  0  0  0  0  0  0  0  0  0  0
   36.2670   27.3180   43.6040 O   0  0  0  0  0  0  0  0  0  0  0  0
   37.4530   25.9840   42.1620 C   0  0  0  0  0  0  0  0  0  0  0  0
   36.8350   24.8080   41.9830 C   0  0  0  0  0  0  0  0  0  0  0  0
   35.8150   24.8500   42.3110 H   0  0  0  0  0  0  0  0  0  0  0  0
   37.5050   23.7530   41.4440 C   0  0  0  0  0  3  0  0  0  0  0  0
   38.8820   23.8790   41.0590 C   0  0  0  0  0  3  0  0  0  0  0  0
   39.2100   25.6910   41.5270 S   0  0  0  0  0  0  0  0  0  0  0  0
  1 19  1  0  0  0  0
  1  2  1  0  0  0  0
  2  7  1  0  0  0  0
  3  2  2  0  0  0  0
  3  8  1  0  0  0  0
  4  3  1  0  0  0  0
  5  6  1  0  0  0  0
  5  4  2  0  0  0  0
  6  1  2  0  0  0  0
  9 12  1  6  0  0  0
  9  5  1  0  0  0  0
 10 11  1  0  0  0  0
 10  9  1  0  0  0  0
 10 14  1  0  0  0  0
 11 15  1  6  0  0  0
 11  9  1  0  0  0  0
 11 16  1  0  0  0  0
 13 10  1  0  0  0  0
 16 17  1  0  0  0  0
 18 16  1  0  0  0  0
 19 20  2  0  0  0  0
 21 19  1  0  0  0  0
 22 21  2  0  0  0  0
 22 23  1  0  0  0  0
 24 22  1  0  0  0  0
 25 24  2  0  0  0  0
 25 26  1  0  0  0  0
 26 21  1  0  0  0  0
M  END
>  <minimizedAffinity>
-5.03341866

$$$$

 OpenBabel03252508013D

 26 28  0  0  1  0  0  0  0  0999 V2000
   37.1820   28.6040   41.5230 C   0  0  0  0  0  0  0  0  0  0  0  0
   36.2740   28.3140   40.4640 C   0  0  0  0  0  0  0  0  0  0  0  0
   36.3010   29.1820   39.3530 C   0  0  0  0  0  0  0  0  0  0  0  0
   37.1790   30.2180   39.3710 N   0  0  0  0  0  0  0  0  0  0  0  0
   38.0200   30.4260   40.4330 C   0  0  0  0  0  0  0  0  0  0  0  0
   38.0420   29.6490   41.5020 N   0  0  0  0  0  0  0  0  0  0  0  0
   35.6020   27.4970   40.4840 H   0  0  0  0  0  0  0  0  0  0  0  0
   35.6470   29.0280   38.5170 H   0  0  0  0  0  0  0  0  0  0  0  0
   38.9700   31.5820   40.3740 C   0  0  1  0  0  0  0  0  0  0  0  0
   38.9740   32.4650   39.1470 C   0  0  0  0  0  0  0  0  0  0  0  0
   38.3210   32.9100   40.4250 C   0  0  1  0  0  0  0  0  0  0  0  0
   39.9450   31.3970   40.8540 H   0  0  0  0  0  0  0  0  0  0  0  0
   39.9580   32.8230   38.8400 H   0  0  0  0  0  0  0  0  0  0  0  0
   38.3750   32.0340   38.3180 H   0  0  0  0  0  0  0  0  0  0  0  0
   38.7440   33.7720   40.9550 H   0  0  0  0  0  0  0  0  0  0  0  0
   36.8630   33.0020   40.2770 N   0  0  0  0  0  0  0  0  0  0  0  0
   36.5010   33.3550   41.1830 H   0  0  0  0  0  0  0  0  0  0  0  0
   36.6790   33.6580   39.4660 H   0  0  0  0  0  0  0  0  0  0  0  0
   37.1060   27.6760   42.6030 C   0  0  0  0  0  0  0  0  0  0  0  0
   36.1400   27.5350   43.3850 O   0  0  0  0  0  0  0  0  0  0  0  0
   38.2380   26.7330   42.9180 C   0  0  0  0  0  0  0  0  0  0  0  0
   39.3600   26.7290   43.6520 C   0  0  0  0  0  0  0  0  0  0  0  0
   39.4930   27.6620   44.1650 H   0  0  0  0  0  0  0  0  0  0  0  0
   40.1620   25.6310   43.6800 C   0  0  0  0  0  3  0  0  0  0  0  0
   39.8230   24.4580   42.9230 C   0  0  0  0  0  3  0  0  0  0  0  0
   38.1990   25.0220   42.1140 S   0  0  0  0  0  0  0  0  0  0  0  0
  1 19  1  0  0  0  0
  2  7  1  0  0  0  0
  2  1  2  0  0  0  0
  3  4  2  0  0  0  0
  3  2  1  0  0  0  0
  4  5  1  0  0  0  0
  5  6  2  0  0  0  0
  6  1  1  0  0  0  0
  8  3  1  0  0  0  0
  9 11  1  0  0  0  0
  9  5  1  0  0  0  0
  9 12  1  1  0  0  0
 10  9  1  0  0  0  0
 10 11  1  0  0  0  0
 11 15  1  1  0  0  0
 13 10  1  0  0  0  0
 14 10  1  0  0  0  0
 16 11  1  0  0  0  0
 16 17  1  0  0  0  0
 18 16  1  0  0  0  0
 19 21  1  0  0  0  0
 19 20  2  0  0  0  0
 21 22  2  0  0  0  0
 22 24  1  0  0  0  0
 22 23  1  0  0  0  0
 25 24  2  0  0  0  0
 26 21  1  0  0  0  0
 26 25  1  0  0  0  0
M  END
>  <minimizedAffinity>
-4.88987494

$$$$

 OpenBabel03252508013D

 26 28  0  0  1  0  0  0  0  0999 V2000
   38.0840   31.3600   40.5460 C   0  0  0  0  0  0  0  0  0  0  0  0
   37.8190   32.7560   40.6360 C   0  0  0  0  0  0  0  0  0  0  0  0
   38.7750   33.6200   40.0620 C   0  0  0  0  0  0  0  0  0  0  0  0
   39.8660   33.0650   39.4710 N   0  0  0  0  0  0  0  0  0  0  0  0
   40.0440   31.7070   39.4290 C   0  0  0  0  0  0  0  0  0  0  0  0
   39.1850   30.8480   39.9490 N   0  0  0  0  0  0  0  0  0  0  0  0
   36.9570   33.1540   41.1050 H   0  0  0  0  0  0  0  0  0  0  0  0
   38.6450   34.6830   40.0900 H   0  0  0  0  0  0  0  0  0  0  0  0
   41.2650   31.1700   38.7490 C   0  0  1  0  0  0  0  0  0  0  0  0
   41.0960   30.2070   37.5950 C   0  0  0  0  0  0  0  0  0  0  0  0
   41.4530   31.6480   37.3620 C   0  0  1  0  0  0  0  0  0  0  0  0
   42.1220   30.9940   39.4190 H   0  0  0  0  0  0  0  0  0  0  0  0
   41.8390   29.4090   37.5500 H   0  0  0  0  0  0  0  0  0  0  0  0
   40.0500   29.8520   37.4950 H   0  0  0  0  0  0  0  0  0  0  0  0
   42.4330   31.8800   36.9270 H   0  0  0  0  0  0  0  0  0  0  0  0
   40.3590   32.3680   36.6960 N   0  0  0  0  0  0  0  0  0  0  0  0
   40.7030   33.3330   36.5350 H   0  0  0  0  0  0  0  0  0  0  0  0
   40.1460   31.8420   35.8020 H   0  0  0  0  0  0  0  0  0  0  0  0
   37.0680   30.5520   41.1360 C   0  0  0  0  0  0  0  0  0  0  0  0
   35.8350   30.7410   41.0490 O   0  0  0  0  0  0  0  0  0  0  0  0
   37.4030   29.3340   41.9580 C   0  0  0  0  0  0  0  0  0  0  0  0
   37.9740   29.0520   43.1380 C   0  0  0  0  0  0  0  0  0  0  0  0
   38.2820   29.9450   43.6450 H   0  0  0  0  0  0  0  0  0  0  0  0
   38.1000   27.7620   43.5510 C   0  0  0  0  0  3  0  0  0  0  0  0
   37.6250   26.6810   42.7330 C   0  0  0  0  0  3  0  0  0  0  0  0
   36.9420   27.6440   41.2450 S   0  0  0  0  0  0  0  0  0  0  0  0
  1  2  1  0  0  0  0
  1 19  1  0  0  0  0
  2  7  1  0  0  0  0
  3  8  1  0  0  0  0
  3  2  2  0  0  0  0
  4  3  1  0  0  0  0
  5  4  2  0  0  0  0
  5  6  1  0  0  0  0
  6  1  2  0  0  0  0
  9 12  1  1  0  0  0
  9  5  1  0  0  0  0
 10  9  1  0  0  0  0
 11 15  1  6  0  0  0
 11 10  1  0  0  0  0
 11  9  1  0  0  0  0
 13 10  1  0  0  0  0
 14 10  1  0  0  0  0
 16 11  1  0  0  0  0
 17 16  1  0  0  0  0
 18 16  1  0  0  0  0
 19 21  1  0  0  0  0
 20 19  2  0  0  0  0
 21 22  2  0  0  0  0
 22 24  1  0  0  0  0
 22 23  1  0  0  0  0
 25 24  2  0  0  0  0
 26 21  1  0  0  0  0
 26 25  1  0  0  0  0
M  END
>  <minimizedAffinity>
-4.82979155

$$$$

 OpenBabel03252508013D

 26 28  0  0  1  0  0  0  0  0999 V2000
   37.9910   26.9620   41.7420 C   0  0  0  0  0  0  0  0  0  0  0  0
   37.5560   26.9700   43.0980 C   0  0  0  0  0  0  0  0  0  0  0  0
   37.3110   28.2330   43.6760 C   0  0  0  0  0  0  0  0  0  0  0  0
   37.5040   29.3370   42.9080 N   0  0  0  0  0  0  0  0  0  0  0  0
   37.9260   29.2390   41.6080 C   0  0  0  0  0  0  0  0  0  0  0  0
   38.1720   28.0860   41.0110 N   0  0  0  0  0  0  0  0  0  0  0  0
   37.4160   26.0890   43.6680 H   0  0  0  0  0  0  0  0  0  0  0  0
   36.9810   28.3200   44.6920 H   0  0  0  0  0  0  0  0  0  0  0  0
   38.1040   30.5010   40.8200 C   0  0  1  0  0  0  0  0  0  0  0  0
   37.3090   30.6870   39.5470 C   0  0  0  0  0  0  0  0  0  0  0  0
   36.9230   31.3920   40.8180 C   0  0  1  0  0  0  0  0  0  0  0  0
   39.1300   30.9030   40.8260 H   0  0  0  0  0  0  0  0  0  0  0  0
   37.8430   31.1910   38.7410 H   0  0  0  0  0  0  0  0  0  0  0  0
   36.7970   29.7540   39.2320 H   0  0  0  0  0  0  0  0  0  0  0  0
   36.9880   32.4860   40.8480 H   0  0  0  0  0  0  0  0  0  0  0  0
   35.6440   30.8900   41.3390 N   0  0  0  0  0  0  0  0  0  0  0  0
   35.4350   31.4560   42.1840 H   0  0  0  0  0  0  0  0  0  0  0  0
   34.9310   31.0080   40.5660 H   0  0  0  0  0  0  0  0  0  0  0  0
   38.2040   25.6500   41.2240 C   0  0  0  0  0  0  0  0  0  0  0  0
   39.2630   24.9900   41.3070 O   0  0  0  0  0  0  0  0  0  0  0  0
   37.1190   24.9020   40.4940 C   0  0  0  0  0  0  0  0  0  0  0  0
   36.3490   23.8220   40.6860 C   0  0  0  0  0  0  0  0  0  0  0  0
   36.5620   23.3530   41.6280 H   0  0  0  0  0  0  0  0  0  0  0  0
   35.4390   23.4470   39.7460 C   0  0  0  0  0  3  0  0  0  0  0  0
   35.2890   24.2010   38.5330 C   0  0  0  0  0  3  0  0  0  0  0  0
   36.5870   25.5620   38.8040 S   0  0  0  0  0  0  0  0  0  0  0  0
  1  2  1  0  0  0  0
  2  7  1  0  0  0  0
  2  3  2  0  0  0  0
  3  8  1  0  0  0  0
  4  3  1  0  0  0  0
  5  4  2  0  0  0  0
  6  5  1  0  0  0  0
  6  1  2  0  0  0  0
  9 12  1  1  0  0  0
  9  5  1  0  0  0  0
 10 11  1  0  0  0  0
 10  9  1  0  0  0  0
 11  9  1  0  0  0  0
 11 15  1  1  0  0  0
 11 16  1  0  0  0  0
 13 10  1  0  0  0  0
 14 10  1  0  0  0  0
 16 17  1  0  0  0  0
 18 16  1  0  0  0  0
 19 20  2  0  0  0  0
 19  1  1  0  0  0  0
 21 22  2  0  0  0  0
 21 19  1  0  0  0  0
 22 23  1  0  0  0  0
 24 22  1  0  0  0  0
 25 26  1  0  0  0  0
 25 24  2  0  0  0  0
 26 21  1  0  0  0  0
M  END
>  <minimizedAffinity>
-4.82099915

$$$$

 OpenBabel03252508013D

 26 28  0  0  1  0  0  0  0  0999 V2000
   36.8990   28.7380   41.7150 C   0  0  0  0  0  0  0  0  0  0  0  0
   37.9910   29.2380   42.4820 C   0  0  0  0  0  0  0  0  0  0  0  0
   38.7260   28.2930   43.2270 C   0  0  0  0  0  0  0  0  0  0  0  0
   38.3470   26.9910   43.1610 N   0  0  0  0  0  0  0  0  0  0  0  0
   37.2810   26.5930   42.3960 C   0  0  0  0  0  0  0  0  0  0  0  0
   36.5540   27.4300   41.6770 N   0  0  0  0  0  0  0  0  0  0  0  0
   38.2580   30.2620   42.5100 H   0  0  0  0  0  0  0  0  0  0  0  0
   39.5610   28.5940   43.8280 H   0  0  0  0  0  0  0  0  0  0  0  0
   36.9310   25.1370   42.3630 C   0  0  1  0  0  0  0  0  0  0  0  0
   36.8780   24.4280   41.0290 C   0  0  0  0  0  0  0  0  0  0  0  0
   38.0440   24.2500   41.9610 C   0  0  1  0  0  0  0  0  0  0  0  0
   36.1910   24.8280   43.1190 H   0  0  0  0  0  0  0  0  0  0  0  0
   36.0880   23.6810   40.9360 H   0  0  0  0  0  0  0  0  0  0  0  0
   36.9290   25.1350   40.1750 H   0  0  0  0  0  0  0  0  0  0  0  0
   38.2180   23.2590   42.3960 H   0  0  0  0  0  0  0  0  0  0  0  0
   39.2680   24.8420   41.4030 N   0  0  0  0  0  0  0  0  0  0  0  0
   40.0240   24.6370   42.0830 H   0  0  0  0  0  0  0  0  0  0  0  0
   39.4210   24.3930   40.4560 H   0  0  0  0  0  0  0  0  0  0  0  0
   36.2140   29.7490   40.9790 C   0  0  0  0  0  0  0  0  0  0  0  0
   36.1830   30.9680   41.2580 O   0  0  0  0  0  0  0  0  0  0  0  0
   35.4270   29.4270   39.7360 C   0  0  0  0  0  0  0  0  0  0  0  0
   34.1760   29.0710   39.4100 C   0  0  0  0  0  0  0  0  0  0  0  0
   33.5540   28.9920   40.2800 H   0  0  0  0  0  0  0  0  0  0  0  0
   33.8360   28.8590   38.1090 C   0  0  0  0  0  3  0  0  0  0  0  0
   34.8090   29.0130   37.0640 C   0  0  0  0  0  3  0  0  0  0  0  0
   36.3370   29.5070   38.0800 S   0  0  0  0  0  0  0  0  0  0  0  0
  1  2  1  0  0  0  0
  2  7  1  0  0  0  0
  2  3  2  0  0  0  0
  3  8  1  0  0  0  0
  4  3  1  0  0  0  0
  5  4  2  0  0  0  0
  6  1  2  0  0  0  0
  6  5  1  0  0  0  0
  9  5  1  0  0  0  0
  9 12  1  1  0  0  0
 10 11  1  0  0  0  0
 10  9  1  0  0  0  0
 11  9  1  0  0  0  0
 11 15  1  1  0  0  0
 13 10  1  0  0  0  0
 14 10  1  0  0  0  0
 16 11  1  0  0  0  0
 16 17  1  0  0  0  0
 18 16  1  0  0  0  0
 19 20  2  0  0  0  0
 19  1  1  0  0  0  0
 21 19  1  0  0  0  0
 22 21  2  0  0  0  0
 22 23  1  0  0  0  0
 24 22  1  0  0  0  0
 25 26  1  0  0  0  0
 25 24  2  0  0  0  0
 26 21  1  0  0  0  0
M  END
>  <minimizedAffinity>
-4.77680779

$$$$

 OpenBabel03252508013D

 26 28  0  0  1  0  0  0  0  0999 V2000
   40.0590   30.2570   41.5630 C   0  0  0  0  0  0  0  0  0  0  0  0
   41.0550   31.2280   41.8730 C   0  0  0  0  0  0  0  0  0  0  0  0
   41.1100   32.3650   41.0410 C   0  0  0  0  0  0  0  0  0  0  0  0
   40.2210   32.4540   40.0170 N   0  0  0  0  0  0  0  0  0  0  0  0
   39.2930   31.4720   39.7890 C   0  0  0  0  0  0  0  0  0  0  0  0
   39.1920   30.3840   40.5320 N   0  0  0  0  0  0  0  0  0  0  0  0
   41.7320   31.1260   42.6790 H   0  0  0  0  0  0  0  0  0  0  0  0
   41.8320   33.1380   41.2110 H   0  0  0  0  0  0  0  0  0  0  0  0
   38.3370   31.6460   38.6490 C   0  0  1  0  0  0  0  0  0  0  0  0
   36.9180   31.1460   38.8010 C   0  0  0  0  0  0  0  0  0  0  0  0
   37.2450   32.6090   38.9090 C   0  0  1  0  0  0  0  0  0  0  0  0
   38.7930   31.5470   37.6500 H   0  0  0  0  0  0  0  0  0  0  0  0
   36.4850   30.7120   37.8980 H   0  0  0  0  0  0  0  0  0  0  0  0
   36.7890   30.5190   39.7070 H   0  0  0  0  0  0  0  0  0  0  0  0
   36.8430   33.2910   38.1500 H   0  0  0  0  0  0  0  0  0  0  0  0
   37.0340   33.1030   40.2760 N   0  0  0  0  0  0  0  0  0  0  0  0
   37.2380   34.1210   40.2500 H   0  0  0  0  0  0  0  0  0  0  0  0
   36.0300   32.8820   40.5300 H   0  0  0  0  0  0  0  0  0  0  0  0
   40.0560   29.1450   42.4550 C   0  0  0  0  0  0  0  0  0  0  0  0
   41.0440   28.7030   43.0820 O   0  0  0  0  0  0  0  0  0  0  0  0
   38.8010   28.3610   42.7390 C   0  0  0  0  0  0  0  0  0  0  0  0
   37.7180   28.4590   43.5230 C   0  0  0  0  0  0  0  0  0  0  0  0
   37.7500   29.3490   44.1210 H   0  0  0  0  0  0  0  0  0  0  0  0
   36.7550   27.4990   43.4910 C   0  0  0  0  0  3  0  0  0  0  0  0
   36.8800   26.3650   42.6190 C   0  0  0  0  0  3  0  0  0  0  0  0
   38.5440   26.7480   41.7850 S   0  0  0  0  0  0  0  0  0  0  0  0
  1  2  1  0  0  0  0
  1 19  1  0  0  0  0
  2  7  1  0  0  0  0
  3  8  1  0  0  0  0
  3  2  2  0  0  0  0
  4  3  1  0  0  0  0
  5  4  2  0  0  0  0
  5  6  1  0  0  0  0
  6  1  2  0  0  0  0
  9 12  1  6  0  0  0
  9 10  1  0  0  0  0
  9 11  1  0  0  0  0
  9  5  1  0  0  0  0
 10 11  1  0  0  0  0
 10 14  1  0  0  0  0
 11 15  1  6  0  0  0
 11 16  1  0  0  0  0
 13 10  1  0  0  0  0
 16 18  1  0  0  0  0
 17 16  1  0  0  0  0
 19 21  1  0  0  0  0
 19 20  2  0  0  0  0
 21 22  2  0  0  0  0
 22 23  1  0  0  0  0
 24 22  1  0  0  0  0
 25 24  2  0  0  0  0
 26 25  1  0  0  0  0
 26 21  1  0  0  0  0
M  END
>  <minimizedAffinity>
-4.68029213

$$$$

 OpenBabel03252508013D

 26 28  0  0  1  0  0  0  0  0999 V2000
   36.5590   28.4500   41.4170 C   0  0  0  0  0  0  0  0  0  0  0  0
   37.3430   29.1830   42.3540 C   0  0  0  0  0  0  0  0  0  0  0  0
   38.1140   28.4270   43.2620 C   0  0  0  0  0  0  0  0  0  0  0  0
   38.0550   27.0730   43.1800 N   0  0  0  0  0  0  0  0  0  0  0  0
   37.2720   26.4460   42.2460 C   0  0  0  0  0  0  0  0  0  0  0  0
   36.5280   27.0980   41.3700 N   0  0  0  0  0  0  0  0  0  0  0  0
   37.3650   30.2410   42.3900 H   0  0  0  0  0  0  0  0  0  0  0  0
   38.7300   28.9080   43.9960 H   0  0  0  0  0  0  0  0  0  0  0  0
   37.2700   24.9480   42.2080 C   0  0  1  0  0  0  0  0  0  0  0  0
   37.6610   24.2490   40.9260 C   0  0  0  0  0  0  0  0  0  0  0  0
   38.6110   24.3380   42.0870 C   0  0  1  0  0  0  0  0  0  0  0  0
   36.4720   24.4780   42.8060 H   0  0  0  0  0  0  0  0  0  0  0  0
   37.0950   23.3420   40.7050 H   0  0  0  0  0  0  0  0  0  0  0  0
   37.7350   24.9510   40.0700 H   0  0  0  0  0  0  0  0  0  0  0  0
   38.9040   23.4110   42.5950 H   0  0  0  0  0  0  0  0  0  0  0  0
   39.7630   25.1920   41.7700 N   0  0  0  0  0  0  0  0  0  0  0  0
   40.3830   25.1620   42.6020 H   0  0  0  0  0  0  0  0  0  0  0  0
   40.2100   24.7920   40.8980 H   0  0  0  0  0  0  0  0  0  0  0  0
   35.8190   29.2810   40.5260 C   0  0  0  0  0  0  0  0  0  0  0  0
   34.5920   29.2050   40.2970 O   0  0  0  0  0  0  0  0  0  0  0  0
   36.4810   30.3820   39.7390 C   0  0  0  0  0  0  0  0  0  0  0  0
   36.8170   31.6690   39.9100 C   0  0  0  0  0  0  0  0  0  0  0  0
   36.5360   32.0190   40.8850 H   0  0  0  0  0  0  0  0  0  0  0  0
   37.4330   32.3590   38.9120 C   0  0  0  0  0  3  0  0  0  0  0  0
   37.7330   31.7240   37.6600 C   0  0  0  0  0  3  0  0  0  0  0  0
   37.0560   29.9780   37.9830 S   0  0  0  0  0  0  0  0  0  0  0  0
  1  2  1  0  0  0  0
  2  7  1  0  0  0  0
  2  3  2  0  0  0  0
  3  8  1  0  0  0  0
  4  3  1  0  0  0  0
  5  4  2  0  0  0  0
  6  1  2  0  0  0  0
  6  5  1  0  0  0  0
  9  5  1  0  0  0  0
  9 12  1  1  0  0  0
 10 11  1  0  0  0  0
 10  9  1  0  0  0  0
 11  9  1  0  0  0  0
 11 15  1  1  0  0  0
 13 10  1  0  0  0  0
 14 10  1  0  0  0  0
 16 11  1  0  0  0  0
 16 17  1  0  0  0  0
 18 16  1  0  0  0  0
 19  1  1  0  0  0  0
 20 19  2  0  0  0  0
 21 22  2  0  0  0  0
 21 19  1  0  0  0  0
 22 23  1  0  0  0  0
 24 22  1  0  0  0  0
 25 26  1  0  0  0  0
 25 24  2  0  0  0  0
 26 21  1  0  0  0  0
M  END
>  <minimizedAffinity>
-4.65620565

$$$$

 OpenBabel03252508013D

 26 28  0  0  1  0  0  0  0  0999 V2000
   38.0890   31.6060   40.8190 C   0  0  0  0  0  0  0  0  0  0  0  0
   36.8630   31.4720   40.1060 C   0  0  0  0  0  0  0  0  0  0  0  0
   36.0350   30.3900   40.4700 C   0  0  0  0  0  0  0  0  0  0  0  0
   36.4590   29.5640   41.4610 N   0  0  0  0  0  0  0  0  0  0  0  0
   37.6560   29.7640   42.0970 C   0  0  0  0  0  0  0  0  0  0  0  0
   38.4750   30.7580   41.8020 N   0  0  0  0  0  0  0  0  0  0  0  0
   36.5640   32.1350   39.3380 H   0  0  0  0  0  0  0  0  0  0  0  0
   35.0970   30.2240   39.9780 H   0  0  0  0  0  0  0  0  0  0  0  0
   38.0490   28.8180   43.1900 C   0  0  1  0  0  0  0  0  0  0  0  0
   37.5450   27.3940   43.1420 C   0  0  0  0  0  0  0  0  0  0  0  0
   38.9590   27.7340   42.7620 C   0  0  1  0  0  0  0  0  0  0  0  0
   38.1320   29.2810   44.1870 H   0  0  0  0  0  0  0  0  0  0  0  0
   37.2910   26.9630   44.1110 H   0  0  0  0  0  0  0  0  0  0  0  0
   36.7620   27.2520   42.3680 H   0  0  0  0  0  0  0  0  0  0  0  0
   39.7750   27.3450   43.3830 H   0  0  0  0  0  0  0  0  0  0  0  0
   39.1930   27.5180   41.3280 N   0  0  0  0  0  0  0  0  0  0  0  0
   40.1950   27.7320   41.1630 H   0  0  0  0  0  0  0  0  0  0  0  0
   38.9390   26.5100   41.1250 H   0  0  0  0  0  0  0  0  0  0  0  0
   38.8640   32.7280   40.4060 C   0  0  0  0  0  0  0  0  0  0  0  0
   38.8650   33.8590   40.9410 O   0  0  0  0  0  0  0  0  0  0  0  0
   39.8020   32.6520   39.2290 C   0  0  0  0  0  0  0  0  0  0  0  0
   39.9850   31.8830   38.1460 C   0  0  0  0  0  0  0  0  0  0  0  0
   39.2590   31.0950   38.1010 H   0  0  0  0  0  0  0  0  0  0  0  0
   40.9950   32.1500   37.2740 C   0  0  0  0  0  3  0  0  0  0  0  0
   41.8800   33.2580   37.4960 C   0  0  0  0  0  3  0  0  0  0  0  0
   41.1670   33.9560   39.1130 S   0  0  0  0  0  0  0  0  0  0  0  0
  1  6  1  0  0  0  0
  2  3  1  0  0  0  0
  2  1  2  0  0  0  0
  3  4  2  0  0  0  0
  4  5  1  0  0  0  0
  5  9  1  0  0  0  0
  6  5  2  0  0  0  0
  7  2  1  0  0  0  0
  8  3  1  0  0  0  0
  9 12  1  1  0  0  0
 10  9  1  0  0  0  0
 10 13  1  0  0  0  0
 11 10  1  0  0  0  0
 11  9  1  0  0  0  0
 11 15  1  1  0  0  0
 14 10  1  0  0  0  0
 16 11  1  0  0  0  0
 17 16  1  0  0  0  0
 18 16  1  0  0  0  0
 19  1  1  0  0  0  0
 19 20  2  0  0  0  0
 21 19  1  0  0  0  0
 22 21  2  0  0  0  0
 23 22  1  0  0  0  0
 24 25  2  0  0  0  0
 24 22  1  0  0  0  0
 25 26  1  0  0  0  0
 26 21  1  0  0  0  0
M  END
>  <minimizedAffinity>
-4.65429544

$$$$

 OpenBabel03252508013D

 26 28  0  0  1  0  0  0  0  0999 V2000
   36.2740   30.2370   39.3750 C   0  0  0  0  0  0  0  0  0  0  0  0
   36.5230   29.8890   38.0170 C   0  0  0  0  0  0  0  0  0  0  0  0
   37.2790   30.8060   37.2570 C   0  0  0  0  0  0  0  0  0  0  0  0
   37.7110   31.9400   37.8670 N   0  0  0  0  0  0  0  0  0  0  0  0
   37.4260   32.1990   39.1820 C   0  0  0  0  0  0  0  0  0  0  0  0
   36.7230   31.3800   39.9450 N   0  0  0  0  0  0  0  0  0  0  0  0
   36.1700   28.9950   37.5730 H   0  0  0  0  0  0  0  0  0  0  0  0
   37.5070   30.6130   36.2270 H   0  0  0  0  0  0  0  0  0  0  0  0
   37.9470   33.4650   39.7890 C   0  0  1  0  0  0  0  0  0  0  0  0
   38.8410   33.3790   41.0060 C   0  0  0  0  0  0  0  0  0  0  0  0
   39.4070   33.6570   39.6410 C   0  0  1  0  0  0  0  0  0  0  0  0
   37.2460   34.3140   39.7490 H   0  0  0  0  0  0  0  0  0  0  0  0
   38.6890   34.1670   41.7450 H   0  0  0  0  0  0  0  0  0  0  0  0
   38.8640   32.3570   41.4380 H   0  0  0  0  0  0  0  0  0  0  0  0
   39.8750   34.6320   39.4590 H   0  0  0  0  0  0  0  0  0  0  0  0
   40.2340   32.5400   39.1680 N   0  0  0  0  0  0  0  0  0  0  0  0
   40.6160   32.8320   38.2480 H   0  0  0  0  0  0  0  0  0  0  0  0
   40.9800   32.3790   39.9020 H   0  0  0  0  0  0  0  0  0  0  0  0
   35.5170   29.2570   40.0810 C   0  0  0  0  0  0  0  0  0  0  0  0
   34.2720   29.1360   40.0640 O   0  0  0  0  0  0  0  0  0  0  0  0
   36.1790   28.2230   40.9540 C   0  0  0  0  0  0  0  0  0  0  0  0
   36.4810   28.0550   42.2500 C   0  0  0  0  0  0  0  0  0  0  0  0
   36.1610   28.8950   42.8360 H   0  0  0  0  0  0  0  0  0  0  0  0
   37.1150   26.9270   42.6700 C   0  0  0  0  0  3  0  0  0  0  0  0
   37.4720   25.8970   41.7340 C   0  0  0  0  0  3  0  0  0  0  0  0
   36.8220   26.6530   40.1170 S   0  0  0  0  0  0  0  0  0  0  0  0
  1  6  1  0  0  0  0
  1 19  1  0  0  0  0
  2  1  2  0  0  0  0
  3  4  2  0  0  0  0
  3  2  1  0  0  0  0
  4  5  1  0  0  0  0
  5  9  1  0  0  0  0
  5  6  2  0  0  0  0
  7  2  1  0  0  0  0
  8  3  1  0  0  0  0
  9 12  1  6  0  0  0
  9 10  1  0  0  0  0
 10 14  1  0  0  0  0
 10 13  1  0  0  0  0
 11 15  1  6  0  0  0
 11  9  1  0  0  0  0
 11 10  1  0  0  0  0
 16 11  1  0  0  0  0
 16 18  1  0  0  0  0
 17 16  1  0  0  0  0
 19 21  1  0  0  0  0
 20 19  2  0  0  0  0
 21 22  2  0  0  0  0
 22 24  1  0  0  0  0
 22 23  1  0  0  0  0
 25 24  2  0  0  0  0
 26 21  1  0  0  0  0
 26 25  1  0  0  0  0
M  END
>  <minimizedAffinity>
-4.63657808

$$$$
