
 OpenBabel03242519093D

 44 47  0  0  1  0  0  0  0  0999 V2000
   48.6300   33.5050   39.2260 N   0  0  0  0  0  0  0  0  0  0  0  0
   49.5670   33.9600   39.0020 H   0  0  0  0  0  0  0  0  0  0  0  0
   47.5150   34.4720   42.4640 N   0  0  0  0  0  0  0  0  0  0  0  0
   47.5240   34.7460   41.0300 C   0  0  0  0  0  0  0  0  0  0  0  0
   48.1120   33.4450   40.5620 C   0  0  2  0  0  0  0  0  0  0  0  0
   49.2940   33.2750   41.4970 C   0  0  0  0  0  0  0  0  0  0  0  0
   48.7820   33.8790   42.7780 C   0  0  0  0  0  0  0  0  0  0  0  0
   46.5080   34.9540   40.6490 H   0  0  0  0  0  0  0  0  0  0  0  0
   48.2350   35.5610   40.8610 H   0  0  0  0  0  0  0  0  0  0  0  0
   47.4030   32.6120   40.6350 H   0  0  0  0  0  0  0  0  0  0  0  0
   49.4930   32.1870   41.5730 H   0  0  0  0  0  0  0  0  0  0  0  0
   50.2000   33.7740   41.1100 H   0  0  0  0  0  0  0  0  0  0  0  0
   48.6470   33.0440   43.5020 H   0  0  0  0  0  0  0  0  0  0  0  0
   49.5030   34.6520   43.1630 H   0  0  0  0  0  0  0  0  0  0  0  0
   44.5870   35.8510   44.3310 C   0  0  0  0  0  0  0  0  0  0  0  0
   45.5310   35.7110   43.3240 C   0  0  0  0  0  0  0  0  0  0  0  0
   46.5110   34.7090   43.4160 C   0  0  0  0  0  0  0  0  0  0  0  0
   46.4630   33.9220   44.5160 N   0  0  0  0  0  0  0  0  0  0  0  0
   45.5570   34.0440   45.4960 C   0  0  0  0  0  0  0  0  0  0  0  0
   44.6130   35.0230   45.3920 N   0  0  0  0  0  0  0  0  0  0  0  0
   43.8370   36.6280   44.2480 H   0  0  0  0  0  0  0  0  0  0  0  0
   45.5660   36.3450   42.4430 H   0  0  0  0  0  0  0  0  0  0  0  0
   45.6030   33.3670   46.3330 H   0  0  0  0  0  0  0  0  0  0  0  0
   48.8500   32.3180   37.0400 C   0  0  0  0  0  0  0  0  0  0  0  0
   48.1140   33.0400   37.9990 C   0  0  0  0  0  0  0  0  0  0  0  0
   46.8250   33.2510   37.6200 C   0  0  0  0  0  0  0  0  0  0  0  0
   46.2280   32.8390   36.4470 C   0  0  0  0  0  0  0  0  0  0  0  0
   47.0060   32.1340   35.5480 C   0  0  0  0  0  0  0  0  0  0  0  0
   48.3100   31.8880   35.8690 C   0  0  0  0  0  0  0  0  0  0  0  0
   46.1700   33.8060   38.3040 H   0  0  0  0  0  0  0  0  0  0  0  0
   45.1900   33.0520   36.2270 H   0  0  0  0  0  0  0  0  0  0  0  0
   46.5190   31.8200   34.6340 H   0  0  0  0  0  0  0  0  0  0  0  0
   49.5540   31.8420   33.7560 C   0  0  0  0  0  0  0  0  0  0  0  0
   49.2160   33.0410   33.5320 O   0  0  0  0  0  0  0  0  0  0  0  0
   49.0670   31.1570   34.9040 N   0  0  0  0  0  0  0  0  0  0  0  0
   49.1750   30.1670   35.1680 H   0  0  0  0  0  0  0  0  0  0  0  0
   50.4540   30.9360   32.9620 C   0  0  0  0  0  0  0  0  0  0  0  0
   51.7210   30.6080   33.4750 C   0  0  0  0  0  0  0  0  0  0  0  0
   52.1310   30.9490   34.4130 H   0  0  0  0  0  0  0  0  0  0  0  0
   52.5280   29.7960   32.7630 C   0  0  0  0  0  0  0  0  0  0  0  0
   52.0770   29.2710   31.4710 C   0  0  0  0  0  0  0  0  0  0  0  0
   50.3560   30.0630   31.3700 S   0  0  0  0  0  0  0  0  0  0  0  0
   51.3560   31.8280   37.6220 N   0  0  0  0  0  0  0  0  0  0  0  0
   50.2500   32.0480   37.3720 C   0  0  0  0  0  0  0  0  0  0  0  0
  1  5  1  0  0  0  0
  2  1  1  0  0  0  0
  3  7  1  0  0  0  0
  3 17  1  0  0  0  0
  4  3  1  0  0  0  0
  5 10  1  1  0  0  0
  5  4  1  0  0  0  0
  5  6  1  0  0  0  0
  6 11  1  0  0  0  0
  6  7  1  0  0  0  0
  7 14  1  0  0  0  0
  7 13  1  0  0  0  0
  8  4  1  0  0  0  0
  9  4  1  0  0  0  0
 12  6  1  0  0  0  0
 15 20  1  0  0  0  0
 16 17  1  0  0  0  0
 16 15  2  0  0  0  0
 17 18  2  0  0  0  0
 18 19  1  0  0  0  0
 19 23  1  0  0  0  0
 20 19  2  0  0  0  0
 21 15  1  0  0  0  0
 22 16  1  0  0  0  0
 24 44  1  0  0  0  0
 24 25  1  0  0  0  0
 25  1  1  0  0  0  0
 26 25  2  0  0  0  0
 26 30  1  0  0  0  0
 27 26  1  0  0  0  0
 28 29  1  0  0  0  0
 28 27  2  0  0  0  0
 29 24  2  0  0  0  0
 31 27  1  0  0  0  0
 32 28  1  0  0  0  0
 33 35  1  0  0  0  0
 34 33  2  0  0  0  0
 35 36  1  0  0  0  0
 35 29  1  0  0  0  0
 37 38  2  0  0  0  0
 37 33  1  0  0  0  0
 38 39  1  0  0  0  0
 40 38  1  0  0  0  0
 41 40  2  0  0  0  0
 42 41  1  0  0  0  0
 42 37  1  0  0  0  0
 44 43  3  0  0  0  0
M  END
>  <minimizedAffinity>
-5.56695747

>  <minimizedRMSD>
0.1044994

$$$$
