
 OpenBabel03252507153D

 26 28  0  0  0  0  0  0  0  0999 V2000
   45.2930   33.8110   43.4980 C   0  0  0  0  0  0  0  0  0  0  0  0
   45.7110   33.0510   44.6100 C   0  0  0  0  0  0  0  0  0  0  0  0
   45.5060   33.6020   45.8730 C   0  0  0  0  0  0  0  0  0  0  0  0
   44.9320   34.8080   45.9970 N   0  0  0  0  0  0  0  0  0  0  0  0
   44.5350   35.5260   44.8960 C   0  0  0  0  0  0  0  0  0  0  0  0
   44.7230   35.0160   43.6890 N   0  0  0  0  0  0  0  0  0  0  0  0
   45.4260   33.4370   42.4850 H   0  0  0  0  0  0  0  0  0  0  0  0
   44.0760   36.4940   45.0240 H   0  0  0  0  0  0  0  0  0  0  0  0
   45.9330   32.8250   47.0280 C   0  0  0  0  0  0  0  0  0  0  0  0
   44.9930   32.2800   47.8760 C   0  0  0  0  0  0  0  0  0  0  0  0
   45.4250   31.5520   48.9570 C   0  0  0  0  0  0  0  0  0  0  0  0
   46.7620   31.3260   49.2560 C   0  0  0  0  0  0  0  0  0  0  0  0
   47.6430   31.9010   48.3650 C   0  0  0  0  0  0  0  0  0  0  0  0
   47.2210   32.6180   47.3000 N   0  0  0  0  0  0  0  0  0  0  0  0
   43.9440   32.4340   47.6750 H   0  0  0  0  0  0  0  0  0  0  0  0
   44.6460   31.1370   49.6050 H   0  0  0  0  0  0  0  0  0  0  0  0
   47.0300   30.7510   50.1120 H   0  0  0  0  0  0  0  0  0  0  0  0
   48.7060   31.7470   48.5640 H   0  0  0  0  0  0  0  0  0  0  0  0
   46.3120   31.7840   44.4040 C   0  0  0  0  0  0  0  0  0  0  0  0
   47.5300   31.7330   44.1070 O   0  0  0  0  0  0  0  0  0  0  0  0
   45.5280   30.5230   44.5330 C   0  0  0  0  0  0  0  0  0  0  0  0
   45.5260   29.6110   45.4950 C   0  0  0  0  0  0  0  0  0  0  0  0
   46.1830   29.7660   46.3420 H   0  0  0  0  0  0  0  0  0  0  0  0
   44.7270   28.5130   45.4280 C   0  0  0  0  0  0  0  0  0  0  0  0
   43.9030   28.4280   44.2500 C   0  0  0  0  0  0  0  0  0  0  0  0
   44.3970   30.0130   43.3350 S   0  0  0  0  0  0  0  0  0  0  0  0
  1  6  2  0  0  0  0
  1  2  1  0  0  0  0
  2  3  2  0  0  0  0
  3  4  1  0  0  0  0
  3  9  1  0  0  0  0
  5  8  1  0  0  0  0
  5  4  2  0  0  0  0
  6  5  1  0  0  0  0
  7  1  1  0  0  0  0
  9 14  2  0  0  0  0
  9 10  1  0  0  0  0
 10 11  2  0  0  0  0
 11 12  1  0  0  0  0
 11 16  1  0  0  0  0
 12 17  1  0  0  0  0
 13 18  1  0  0  0  0
 13 12  2  0  0  0  0
 14 13  1  0  0  0  0
 15 10  1  0  0  0  0
 19 21  1  0  0  0  0
 19  2  1  0  0  0  0
 20 19  2  0  0  0  0
 21 22  2  0  0  0  0
 22 23  1  0  0  0  0
 24 22  1  0  0  0  0
 25 24  2  0  0  0  0
 26 25  1  0  0  0  0
 26 21  1  0  0  0  0
M  END
>  <minimizedAffinity>
-4.58489704

>  <minimizedRMSD>
4.72054958

$$$$
