
 OpenBabel03252507593D

 26 28  0  0  1  0  0  0  0  0999 V2000
   46.4440   34.6560   43.2370 C   0  0  0  0  0  0  0  0  0  0  0  0
   45.4370   35.6280   43.5010 C   0  0  0  0  0  0  0  0  0  0  0  0
   44.7080   35.4750   44.6990 C   0  0  0  0  0  0  0  0  0  0  0  0
   45.0150   34.4260   45.5050 N   0  0  0  0  0  0  0  0  0  0  0  0
   46.0010   33.5340   45.1750 C   0  0  0  0  0  0  0  0  0  0  0  0
   46.7170   33.6240   44.0680 N   0  0  0  0  0  0  0  0  0  0  0  0
   45.2240   36.4350   42.8490 H   0  0  0  0  0  0  0  0  0  0  0  0
   43.9340   36.1680   44.9660 H   0  0  0  0  0  0  0  0  0  0  0  0
   46.2910   32.4090   46.1210 C   0  0  1  0  0  0  0  0  0  0  0  0
   46.9940   32.7130   47.4240 C   0  0  0  0  0  0  0  0  0  0  0  0
   45.5140   32.4530   47.3780 C   0  0  1  0  0  0  0  0  0  0  0  0
   46.5450   31.4550   45.6320 H   0  0  0  0  0  0  0  0  0  0  0  0
   47.7080   31.9550   47.7500 H   0  0  0  0  0  0  0  0  0  0  0  0
   47.3930   33.7480   47.4550 H   0  0  0  0  0  0  0  0  0  0  0  0
   45.1250   31.5600   47.8830 H   0  0  0  0  0  0  0  0  0  0  0  0
   44.7490   33.6630   47.7080 N   0  0  0  0  0  0  0  0  0  0  0  0
   43.7490   33.3850   47.6960 H   0  0  0  0  0  0  0  0  0  0  0  0
   45.0840   33.9870   48.6580 H   0  0  0  0  0  0  0  0  0  0  0  0
   47.1450   34.8850   42.0170 C   0  0  0  0  0  0  0  0  0  0  0  0
   48.1270   35.6450   41.8640 O   0  0  0  0  0  0  0  0  0  0  0  0
   46.7490   34.1990   40.7360 C   0  0  0  0  0  0  0  0  0  0  0  0
   45.6710   33.5900   40.2200 C   0  0  0  0  0  0  0  0  0  0  0  0
   44.8540   33.5900   40.9160 H   0  0  0  0  0  0  0  0  0  0  0  0
   45.7080   33.0700   38.9640 C   0  0  0  0  0  0  0  0  0  0  0  0
   46.8990   33.1630   38.1680 C   0  0  0  0  0  0  0  0  0  0  0  0
   48.0480   34.0870   39.3660 S   0  0  0  0  0  0  0  0  0  0  0  0
  1  2  2  0  0  0  0
  1  6  1  0  0  0  0
  2  3  1  0  0  0  0
  3  8  1  0  0  0  0
  3  4  2  0  0  0  0
  5  4  1  0  0  0  0
  5  9  1  0  0  0  0
  6  5  2  0  0  0  0
  7  2  1  0  0  0  0
  9 12  1  6  0  0  0
  9 11  1  0  0  0  0
  9 10  1  0  0  0  0
 10 14  1  0  0  0  0
 10 13  1  0  0  0  0
 11 10  1  0  0  0  0
 11 16  1  0  0  0  0
 11 15  1  1  0  0  0
 16 18  1  0  0  0  0
 17 16  1  0  0  0  0
 19  1  1  0  0  0  0
 20 19  2  0  0  0  0
 21 19  1  0  0  0  0
 22 21  2  0  0  0  0
 22 23  1  0  0  0  0
 24 22  1  0  0  0  0
 25 24  2  0  0  0  0
 25 26  1  0  0  0  0
 26 21  1  0  0  0  0
M  END
>  <minimizedAffinity>
-5.42000723

>  <minimizedRMSD>
0.670689166

$$$$
