
 OpenBabel03242512033D

 17 18  0  0  0  0  0  0  0  0999 V2000
   45.4450   36.0580   43.2040 C   0  0  0  0  0  0  0  0  0  0  0  0
   46.3520   34.9930   43.0480 C   0  0  0  0  0  0  0  0  0  0  0  0
   46.3700   34.0140   44.0510 C   0  0  0  0  0  0  0  0  0  0  0  0
   45.5310   34.1340   45.1070 N   0  0  0  0  0  0  0  0  0  0  0  0
   44.6710   35.1840   45.2140 C   0  0  0  0  0  0  0  0  0  0  0  0
   44.6270   36.1450   44.2650 N   0  0  0  0  0  0  0  0  0  0  0  0
   45.3930   36.8420   42.4510 H   0  0  0  0  0  0  0  0  0  0  0  0
   47.0500   33.1810   43.9710 H   0  0  0  0  0  0  0  0  0  0  0  0
   44.0570   35.1670   46.0970 H   0  0  0  0  0  0  0  0  0  0  0  0
   47.2000   34.9390   41.9110 C   0  0  0  0  0  0  0  0  0  0  0  0
   48.3020   35.5130   41.9750 O   0  0  0  0  0  0  0  0  0  0  0  0
   46.8210   34.2450   40.7020 C   0  0  0  0  0  0  0  0  0  0  0  0
   47.5160   33.9370   39.5880 C   0  0  0  0  0  0  0  0  0  0  0  0
   48.5620   34.2550   39.5600 H   0  0  0  0  0  0  0  0  0  0  0  0
   46.9530   33.2690   38.5590 C   0  0  0  0  0  0  0  0  0  0  0  0
   45.5700   32.9240   38.7590 C   0  0  0  0  0  0  0  0  0  0  0  0
   45.1960   33.6010   40.4340 S   0  0  0  0  0  0  0  0  0  0  0  0
  1  6  1  0  0  0  0
  2  1  2  0  0  0  0
  2  3  1  0  0  0  0
  3  4  2  0  0  0  0
  4  5  1  0  0  0  0
  5  9  1  0  0  0  0
  6  5  2  0  0  0  0
  7  1  1  0  0  0  0
  8  3  1  0  0  0  0
 10 11  2  0  0  0  0
 10  2  1  0  0  0  0
 12 10  1  0  0  0  0
 13 12  2  0  0  0  0
 14 13  1  0  0  0  0
 15 16  2  0  0  0  0
 15 13  1  0  0  0  0
 16 17  1  0  0  0  0
 17 12  1  0  0  0  0
M  END
>  <minimizedAffinity>
-3.99762797

>  <minimizedRMSD>
1.03445196

$$$$
