
 OpenBabel03252508493D

 25 27  0  0  0  0  0  0  0  0999 V2000
   45.9160   34.1540   41.0220 C   0  0  0  0  0  0  0  0  0  0  0  0
   46.5150   34.7930   42.1070 C   0  0  0  0  0  0  0  0  0  0  0  0
   47.8500   35.1560   41.9580 C   0  0  0  0  0  0  0  0  0  0  0  0
   48.4800   34.8690   40.7740 N   0  0  0  0  0  0  0  0  0  0  0  0
   47.8690   34.2570   39.7650 C   0  0  0  0  0  0  0  0  0  0  0  0
   46.5730   33.8920   39.8820 N   0  0  0  0  0  0  0  0  0  0  0  0
   48.3400   35.6550   42.7890 H   0  0  0  0  0  0  0  0  0  0  0  0
   48.3780   34.0380   38.8370 H   0  0  0  0  0  0  0  0  0  0  0  0
   45.7470   35.0420   43.3130 C   0  0  0  0  0  0  0  0  0  0  0  0
   45.0640   36.2310   43.5350 C   0  0  0  0  0  0  0  0  0  0  0  0
   44.4890   36.0220   44.7830 C   0  0  0  0  0  0  0  0  0  0  0  0
   44.8060   34.7930   45.2730 N   0  0  0  0  0  0  0  0  0  0  0  0
   45.5650   34.2240   44.3660 N   0  0  0  0  0  0  0  0  0  0  0  0
   44.9690   37.1220   42.9310 H   0  0  0  0  0  0  0  0  0  0  0  0
   43.8630   36.7400   45.3120 H   0  0  0  0  0  0  0  0  0  0  0  0
   44.4960   34.4000   46.1890 H   0  0  0  0  0  0  0  0  0  0  0  0
   44.5940   33.7780   41.1340 O   0  0  0  0  0  0  0  0  0  0  0  0
   43.5090   34.3860   40.5710 C   0  0  0  0  0  0  0  0  0  0  0  0
   43.1760   35.6190   40.6470 O   0  0  0  0  0  0  0  0  0  0  0  0
   42.4750   33.6460   39.7210 C   0  0  0  0  0  0  0  0  0  0  0  0
   42.6380   32.9090   38.6190 C   0  0  0  0  0  0  0  0  0  0  0  0
   43.6500   32.8050   38.2530 H   0  0  0  0  0  0  0  0  0  0  0  0
   41.5750   32.3280   38.0100 C   0  0  0  0  0  3  0  0  0  0  0  0
   40.3060   32.5740   38.6370 C   0  0  0  0  0  3  0  0  0  0  0  0
   40.7890   33.6590   40.1010 S   0  0  0  0  0  0  0  0  0  0  0  0
  1 17  1  0  0  0  0
  1  2  1  0  0  0  0
  2  9  1  0  0  0  0
  3  2  2  0  0  0  0
  3  7  1  0  0  0  0
  4  3  1  0  0  0  0
  5  6  1  0  0  0  0
  5  4  2  0  0  0  0
  6  1  2  0  0  0  0
  8  5  1  0  0  0  0
  9 10  1  0  0  0  0
  9 13  2  0  0  0  0
 10 11  2  0  0  0  0
 11 12  1  0  0  0  0
 11 15  1  0  0  0  0
 12 16  1  0  0  0  0
 13 12  1  0  0  0  0
 14 10  1  0  0  0  0
 18 19  2  0  0  0  0
 18 17  1  0  0  0  0
 20 25  1  0  0  0  0
 20 18  1  0  0  0  0
 21 20  2  0  0  0  0
 22 21  1  0  0  0  0
 23 21  1  0  0  0  0
 23 24  2  0  0  0  0
 24 25  1  0  0  0  0
M  END
>  <minimizedAffinity>
-4.9999156

>  <minimizedRMSD>
0.366856933

$$$$
