
 OpenBabel03252508493D

 25 27  0  0  0  0  0  0  0  0999 V2000
   45.9880   34.1890   41.0470 C   0  0  0  0  0  0  0  0  0  0  0  0
   46.5640   34.8260   42.1450 C   0  0  0  0  0  0  0  0  0  0  0  0
   47.8980   35.2020   42.0190 C   0  0  0  0  0  0  0  0  0  0  0  0
   48.5490   34.9290   40.8440 N   0  0  0  0  0  0  0  0  0  0  0  0
   47.9600   34.3190   39.8220 C   0  0  0  0  0  0  0  0  0  0  0  0
   46.6650   33.9410   39.9160 N   0  0  0  0  0  0  0  0  0  0  0  0
   48.3700   35.7010   42.8620 H   0  0  0  0  0  0  0  0  0  0  0  0
   48.4860   34.1090   38.9000 H   0  0  0  0  0  0  0  0  0  0  0  0
   45.7750   35.0610   43.3400 C   0  0  0  0  0  0  0  0  0  0  0  0
   45.0610   36.2330   43.5500 C   0  0  0  0  0  0  0  0  0  0  0  0
   44.4740   36.0140   44.7900 C   0  0  0  0  0  0  0  0  0  0  0  0
   44.8140   34.7950   45.2890 N   0  0  0  0  0  0  0  0  0  0  0  0
   45.5980   34.2420   44.3930 N   0  0  0  0  0  0  0  0  0  0  0  0
   44.9530   37.1200   42.9410 H   0  0  0  0  0  0  0  0  0  0  0  0
   43.8250   36.7190   45.3090 H   0  0  0  0  0  0  0  0  0  0  0  0
   44.5020   34.3970   46.2020 H   0  0  0  0  0  0  0  0  0  0  0  0
   44.6680   33.8010   41.1350 O   0  0  0  0  0  0  0  0  0  0  0  0
   43.5910   34.3810   40.5290 C   0  0  0  0  0  0  0  0  0  0  0  0
   43.1710   35.5820   40.6640 O   0  0  0  0  0  0  0  0  0  0  0  0
   42.6780   33.6450   39.5480 C   0  0  0  0  0  0  0  0  0  0  0  0
   41.4740   33.9820   39.0770 C   0  0  0  0  0  0  0  0  0  0  0  0
   41.0600   34.9160   39.4320 H   0  0  0  0  0  0  0  0  0  0  0  0
   40.8220   33.1790   38.2000 C   0  0  0  0  0  3  0  0  0  0  0  0
   41.5240   31.9780   37.8400 C   0  0  0  0  0  3  0  0  0  0  0  0
   43.1140   32.1310   38.8390 S   0  0  0  0  0  0  0  0  0  0  0  0
  1 17  1  0  0  0  0
  1  2  1  0  0  0  0
  2  9  1  0  0  0  0
  3  2  2  0  0  0  0
  3  7  1  0  0  0  0
  4  3  1  0  0  0  0
  5  6  1  0  0  0  0
  5  4  2  0  0  0  0
  6  1  2  0  0  0  0
  8  5  1  0  0  0  0
  9 10  1  0  0  0  0
  9 13  2  0  0  0  0
 10 11  2  0  0  0  0
 11 12  1  0  0  0  0
 11 15  1  0  0  0  0
 12 16  1  0  0  0  0
 13 12  1  0  0  0  0
 14 10  1  0  0  0  0
 18 19  2  0  0  0  0
 18 17  1  0  0  0  0
 20 18  1  0  0  0  0
 21 22  1  0  0  0  0
 21 20  2  0  0  0  0
 23 21  1  0  0  0  0
 24 23  2  0  0  0  0
 24 25  1  0  0  0  0
 25 20  1  0  0  0  0
M  END
>  <minimizedAffinity>
-5.04698563

>  <minimizedRMSD>
0.27379024

$$$$
