
 OpenBabel03242517013D

 29 31  0  0  0  0  0  0  0  0999 V2000
   37.3370   31.2640   39.9280 C   0  0  0  0  0  0  0  0  0  0  0  0
   37.3180   32.5920   39.4990 C   0  0  0  0  0  0  0  0  0  0  0  0
   38.2430   33.4740   40.0130 C   0  0  0  0  0  0  0  0  0  0  0  0
   39.1710   33.0330   40.9420 C   0  0  0  0  0  0  0  0  0  0  0  0
   39.2180   31.7450   41.3830 C   0  0  0  0  0  0  0  0  0  0  0  0
   38.2660   30.8750   40.8400 C   0  0  0  0  0  0  0  0  0  0  0  0
   36.5960   32.9250   38.7790 H   0  0  0  0  0  0  0  0  0  0  0  0
   38.2980   34.5180   39.7360 H   0  0  0  0  0  0  0  0  0  0  0  0
   39.8960   33.7280   41.3440 H   0  0  0  0  0  0  0  0  0  0  0  0
   39.9220   31.3620   42.1010 H   0  0  0  0  0  0  0  0  0  0  0  0
   35.2680   29.1650   37.5770 C   0  0  0  0  0  0  0  0  0  0  0  0
   36.2750   30.0260   38.0340 C   0  0  0  0  0  0  0  0  0  0  0  0
   36.3460   30.3870   39.3550 C   0  0  0  0  0  0  0  0  0  0  0  0
   35.3840   29.8620   40.1840 N   0  0  0  0  0  0  0  0  0  0  0  0
   34.4140   29.0310   39.7410 C   0  0  0  0  0  0  0  0  0  0  0  0
   34.3560   28.6810   38.4310 N   0  0  0  0  0  0  0  0  0  0  0  0
   35.2850   28.9330   36.5280 H   0  0  0  0  0  0  0  0  0  0  0  0
   37.0140   30.4260   37.3780 H   0  0  0  0  0  0  0  0  0  0  0  0
   33.6950   28.6600   40.4580 H   0  0  0  0  0  0  0  0  0  0  0  0
   38.1060   28.7960   42.4340 C   0  0  0  0  0  0  0  0  0  0  0  0
   38.0690   29.2780   43.5680 O   0  0  0  0  0  0  0  0  0  0  0  0
   38.2030   29.5090   41.2130 N   0  0  0  0  0  0  0  0  0  0  0  0
   38.2490   29.0230   40.2690 H   0  0  0  0  0  0  0  0  0  0  0  0
   38.0460   27.3060   42.2850 C   0  0  0  0  0  0  0  0  0  0  0  0
   37.0820   26.4380   42.2190 C   0  0  0  0  0  0  0  0  0  0  0  0
   36.0800   26.8410   42.2810 H   0  0  0  0  0  0  0  0  0  0  0  0
   37.3310   25.0980   42.0790 C   0  0  0  0  0  3  0  0  0  0  0  0
   38.7320   24.7660   42.0160 C   0  0  0  0  0  3  0  0  0  0  0  0
   39.5470   26.4520   42.1680 S   0  0  0  0  0  0  0  0  0  0  0  0
  1  6  1  0  0  0  0
  2  1  2  0  0  0  0
  2  3  1  0  0  0  0
  3  4  2  0  0  0  0
  4  9  1  0  0  0  0
  4  5  1  0  0  0  0
  5 10  1  0  0  0  0
  6 22  1  0  0  0  0
  6  5  2  0  0  0  0
  7  2  1  0  0  0  0
  8  3  1  0  0  0  0
 11 12  2  0  0  0  0
 11 16  1  0  0  0  0
 12 13  1  0  0  0  0
 13  1  1  0  0  0  0
 13 14  2  0  0  0  0
 15 14  1  0  0  0  0
 15 19  1  0  0  0  0
 16 15  2  0  0  0  0
 17 11  1  0  0  0  0
 18 12  1  0  0  0  0
 20 21  2  0  0  0  0
 22 20  1  0  0  0  0
 23 22  1  0  0  0  0
 24 20  1  0  0  0  0
 25 26  1  0  0  0  0
 25 24  2  0  0  0  0
 27 25  1  0  0  0  0
 28 27  2  0  0  0  0
 28 29  1  0  0  0  0
 29 24  1  0  0  0  0
M  END
>  <minimizedAffinity>
-5.27258015

$$$$

 OpenBabel03242517013D

 29 31  0  0  0  0  0  0  0  0999 V2000
   36.9470   25.9520   40.8070 C   0  0  0  0  0  0  0  0  0  0  0  0
   36.8380   24.6670   41.3420 C   0  0  0  0  0  0  0  0  0  0  0  0
   36.4010   23.6410   40.5340 C   0  0  0  0  0  0  0  0  0  0  0  0
   36.0780   23.8980   39.2120 C   0  0  0  0  0  0  0  0  0  0  0  0
   36.1730   25.1380   38.6570 C   0  0  0  0  0  0  0  0  0  0  0  0
   36.6200   26.1570   39.5050 C   0  0  0  0  0  0  0  0  0  0  0  0
   37.0900   24.4770   42.3680 H   0  0  0  0  0  0  0  0  0  0  0  0
   36.2870   22.6190   40.8670 H   0  0  0  0  0  0  0  0  0  0  0  0
   35.7350   23.0900   38.5790 H   0  0  0  0  0  0  0  0  0  0  0  0
   35.9330   25.3790   37.6350 H   0  0  0  0  0  0  0  0  0  0  0  0
   37.3420   28.3620   43.6800 C   0  0  0  0  0  0  0  0  0  0  0  0
   36.8100   27.3400   42.8810 C   0  0  0  0  0  0  0  0  0  0  0  0
   37.4100   26.9850   41.7010 C   0  0  0  0  0  0  0  0  0  0  0  0
   38.5430   27.6820   41.3570 N   0  0  0  0  0  0  0  0  0  0  0  0
   39.0550   28.6670   42.1290 C   0  0  0  0  0  0  0  0  0  0  0  0
   38.4510   29.0090   43.2960 N   0  0  0  0  0  0  0  0  0  0  0  0
   36.8100   28.5770   44.5870 H   0  0  0  0  0  0  0  0  0  0  0  0
   35.9300   26.8080   43.1610 H   0  0  0  0  0  0  0  0  0  0  0  0
   39.9510   29.1680   41.7880 H   0  0  0  0  0  0  0  0  0  0  0  0
   35.8870   28.5040   38.5870 C   0  0  0  0  0  0  0  0  0  0  0  0
   34.6670   28.4100   38.4400 O   0  0  0  0  0  0  0  0  0  0  0  0
   36.7630   27.4940   39.0550 N   0  0  0  0  0  0  0  0  0  0  0  0
   37.8120   27.6410   39.1410 H   0  0  0  0  0  0  0  0  0  0  0  0
   36.5530   29.8030   38.2480 C   0  0  0  0  0  0  0  0  0  0  0  0
   37.0200   30.3270   37.1550 C   0  0  0  0  0  0  0  0  0  0  0  0
   36.9260   29.7200   36.2640 H   0  0  0  0  0  0  0  0  0  0  0  0
   37.5930   31.5710   37.1420 C   0  0  0  0  0  3  0  0  0  0  0  0
   37.6220   32.2160   38.4320 C   0  0  0  0  0  3  0  0  0  0  0  0
   36.8050   30.9330   39.5360 S   0  0  0  0  0  0  0  0  0  0  0  0
  1  2  1  0  0  0  0
  1 13  1  0  0  0  0
  2  7  1  0  0  0  0
  3  8  1  0  0  0  0
  3  2  2  0  0  0  0
  4  3  1  0  0  0  0
  5  4  2  0  0  0  0
  5  6  1  0  0  0  0
  6  1  2  0  0  0  0
  9  4  1  0  0  0  0
 10  5  1  0  0  0  0
 11 17  1  0  0  0  0
 12 18  1  0  0  0  0
 12 11  2  0  0  0  0
 13 12  1  0  0  0  0
 14 13  2  0  0  0  0
 14 15  1  0  0  0  0
 15 16  2  0  0  0  0
 16 11  1  0  0  0  0
 19 15  1  0  0  0  0
 20 22  1  0  0  0  0
 21 20  2  0  0  0  0
 22 23  1  0  0  0  0
 22  6  1  0  0  0  0
 24 20  1  0  0  0  0
 24 29  1  0  0  0  0
 25 24  2  0  0  0  0
 26 25  1  0  0  0  0
 27 25  1  0  0  0  0
 27 28  2  0  0  0  0
 28 29  1  0  0  0  0
M  END
>  <minimizedAffinity>
-5.15094805

$$$$

 OpenBabel03242517013D

 29 31  0  0  0  0  0  0  0  0999 V2000
   37.7430   29.5180   41.6270 C   0  0  0  0  0  0  0  0  0  0  0  0
   38.2020   29.4080   42.9400 C   0  0  0  0  0  0  0  0  0  0  0  0
   37.8530   28.3000   43.6800 C   0  0  0  0  0  0  0  0  0  0  0  0
   37.0570   27.3180   43.1130 C   0  0  0  0  0  0  0  0  0  0  0  0
   36.5920   27.3930   41.8350 C   0  0  0  0  0  0  0  0  0  0  0  0
   36.9660   28.5310   41.1110 C   0  0  0  0  0  0  0  0  0  0  0  0
   38.8180   30.1730   43.3720 H   0  0  0  0  0  0  0  0  0  0  0  0
   38.1640   28.1360   44.7030 H   0  0  0  0  0  0  0  0  0  0  0  0
   36.7840   26.4490   43.6960 H   0  0  0  0  0  0  0  0  0  0  0  0
   35.9730   26.6530   41.3570 H   0  0  0  0  0  0  0  0  0  0  0  0
   39.6850   32.1310   39.7250 C   0  0  0  0  0  0  0  0  0  0  0  0
   39.4000   30.9480   40.4200 C   0  0  0  0  0  0  0  0  0  0  0  0
   38.1410   30.7000   40.9020 C   0  0  0  0  0  0  0  0  0  0  0  0
   37.1950   31.6680   40.6660 N   0  0  0  0  0  0  0  0  0  0  0  0
   37.4710   32.8090   39.9960 C   0  0  0  0  0  0  0  0  0  0  0  0
   38.7230   33.0420   39.5230 N   0  0  0  0  0  0  0  0  0  0  0  0
   40.6960   32.2470   39.3820 H   0  0  0  0  0  0  0  0  0  0  0  0
   40.1460   30.2050   40.5950 H   0  0  0  0  0  0  0  0  0  0  0  0
   36.6710   33.5210   39.8510 H   0  0  0  0  0  0  0  0  0  0  0  0
   35.3280   29.0540   39.1280 C   0  0  0  0  0  0  0  0  0  0  0  0
   34.2340   29.2270   39.6680 O   0  0  0  0  0  0  0  0  0  0  0  0
   36.5490   28.7340   39.7710 N   0  0  0  0  0  0  0  0  0  0  0  0
   37.4550   28.5810   39.2370 H   0  0  0  0  0  0  0  0  0  0  0  0
   35.4220   29.1870   37.6380 C   0  0  0  0  0  0  0  0  0  0  0  0
   34.6440   28.8710   36.6470 C   0  0  0  0  0  0  0  0  0  0  0  0
   33.7050   28.4040   36.9150 H   0  0  0  0  0  0  0  0  0  0  0  0
   34.9990   29.1180   35.3480 C   0  0  0  0  0  3  0  0  0  0  0  0
   36.2890   29.7460   35.2030 C   0  0  0  0  0  3  0  0  0  0  0  0
   36.8530   29.9120   36.9880 S   0  0  0  0  0  0  0  0  0  0  0  0
  1  2  1  0  0  0  0
  2  7  1  0  0  0  0
  2  3  2  0  0  0  0
  3  8  1  0  0  0  0
  4  3  1  0  0  0  0
  4  9  1  0  0  0  0
  5  4  2  0  0  0  0
  6  1  2  0  0  0  0
  6  5  1  0  0  0  0
 10  5  1  0  0  0  0
 11 12  1  0  0  0  0
 12 18  1  0  0  0  0
 12 13  2  0  0  0  0
 13  1  1  0  0  0  0
 14 13  1  0  0  0  0
 15 14  2  0  0  0  0
 16 11  2  0  0  0  0
 16 15  1  0  0  0  0
 17 11  1  0  0  0  0
 19 15  1  0  0  0  0
 20 21  2  0  0  0  0
 20 22  1  0  0  0  0
 22  6  1  0  0  0  0
 23 22  1  0  0  0  0
 24 20  1  0  0  0  0
 25 26  1  0  0  0  0
 25 24  2  0  0  0  0
 27 25  1  0  0  0  0
 28 27  2  0  0  0  0
 28 29  1  0  0  0  0
 29 24  1  0  0  0  0
M  END
>  <minimizedAffinity>
-5.14140606

$$$$

 OpenBabel03242517013D

 29 31  0  0  0  0  0  0  0  0999 V2000
   36.6940   26.2180   39.8750 C   0  0  0  0  0  0  0  0  0  0  0  0
   36.4750   24.8390   39.8840 C   0  0  0  0  0  0  0  0  0  0  0  0
   36.6170   24.1470   41.0660 C   0  0  0  0  0  0  0  0  0  0  0  0
   36.9730   24.8250   42.2210 C   0  0  0  0  0  0  0  0  0  0  0  0
   37.1930   26.1680   42.2490 C   0  0  0  0  0  0  0  0  0  0  0  0
   37.0400   26.8410   41.0310 C   0  0  0  0  0  0  0  0  0  0  0  0
   36.2000   24.3220   38.9850 H   0  0  0  0  0  0  0  0  0  0  0  0
   36.4670   23.0800   41.1610 H   0  0  0  0  0  0  0  0  0  0  0  0
   37.0830   24.2780   43.1480 H   0  0  0  0  0  0  0  0  0  0  0  0
   37.4700   26.7320   43.1230 H   0  0  0  0  0  0  0  0  0  0  0  0
   35.3000   27.6690   36.6870 C   0  0  0  0  0  0  0  0  0  0  0  0
   35.3530   26.9930   37.9130 C   0  0  0  0  0  0  0  0  0  0  0  0
   36.5300   26.8880   38.6090 C   0  0  0  0  0  0  0  0  0  0  0  0
   37.6320   27.4760   38.0360 N   0  0  0  0  0  0  0  0  0  0  0  0
   37.5790   28.1270   36.8530 C   0  0  0  0  0  0  0  0  0  0  0  0
   36.4070   28.2240   36.1740 N   0  0  0  0  0  0  0  0  0  0  0  0
   34.3390   27.7050   36.2080 H   0  0  0  0  0  0  0  0  0  0  0  0
   34.4890   26.5420   38.3450 H   0  0  0  0  0  0  0  0  0  0  0  0
   38.4920   28.5630   36.4700 H   0  0  0  0  0  0  0  0  0  0  0  0
   37.5160   29.2980   41.8210 C   0  0  0  0  0  0  0  0  0  0  0  0
   37.6370   29.2110   43.0450 O   0  0  0  0  0  0  0  0  0  0  0  0
   37.2410   28.2400   40.9200 N   0  0  0  0  0  0  0  0  0  0  0  0
   37.1330   28.3930   39.8750 H   0  0  0  0  0  0  0  0  0  0  0  0
   37.6700   30.6440   41.1790 C   0  0  0  0  0  0  0  0  0  0  0  0
   36.8940   31.4050   40.4690 C   0  0  0  0  0  0  0  0  0  0  0  0
   35.9020   31.0170   40.2750 H   0  0  0  0  0  0  0  0  0  0  0  0
   37.3140   32.6220   40.0010 C   0  0  0  0  0  3  0  0  0  0  0  0
   38.6680   32.9550   40.3690 C   0  0  0  0  0  3  0  0  0  0  0  0
   39.1900   31.4500   41.3660 S   0  0  0  0  0  0  0  0  0  0  0  0
  1  2  2  0  0  0  0
  1  6  1  0  0  0  0
  2  3  1  0  0  0  0
  3  8  1  0  0  0  0
  3  4  2  0  0  0  0
  4  5  1  0  0  0  0
  4  9  1  0  0  0  0
  5 10  1  0  0  0  0
  6  5  2  0  0  0  0
  7  2  1  0  0  0  0
 11 12  1  0  0  0  0
 12 18  1  0  0  0  0
 12 13  2  0  0  0  0
 13  1  1  0  0  0  0
 14 13  1  0  0  0  0
 15 14  2  0  0  0  0
 16 11  2  0  0  0  0
 16 15  1  0  0  0  0
 17 11  1  0  0  0  0
 19 15  1  0  0  0  0
 20 21  2  0  0  0  0
 22  6  1  0  0  0  0
 22 20  1  0  0  0  0
 23 22  1  0  0  0  0
 24 29  1  0  0  0  0
 24 20  1  0  0  0  0
 25 24  2  0  0  0  0
 26 25  1  0  0  0  0
 27 28  2  0  0  0  0
 27 25  1  0  0  0  0
 28 29  1  0  0  0  0
M  END
>  <minimizedAffinity>
-5.03973436

$$$$

 OpenBabel03242517013D

 29 31  0  0  0  0  0  0  0  0999 V2000
   37.4320   28.8380   41.0330 C   0  0  0  0  0  0  0  0  0  0  0  0
   36.5810   27.8150   41.4530 C   0  0  0  0  0  0  0  0  0  0  0  0
   36.5650   27.4620   42.7830 C   0  0  0  0  0  0  0  0  0  0  0  0
   37.3900   28.1220   43.6800 C   0  0  0  0  0  0  0  0  0  0  0  0
   38.2330   29.1240   43.3060 C   0  0  0  0  0  0  0  0  0  0  0  0
   38.2230   29.4590   41.9470 C   0  0  0  0  0  0  0  0  0  0  0  0
   35.9460   27.3090   40.7520 H   0  0  0  0  0  0  0  0  0  0  0  0
   35.9380   26.6810   43.1920 H   0  0  0  0  0  0  0  0  0  0  0  0
   37.3760   27.8420   44.7250 H   0  0  0  0  0  0  0  0  0  0  0  0
   38.8880   29.6620   43.9690 H   0  0  0  0  0  0  0  0  0  0  0  0
   36.4230   30.0160   37.5970 C   0  0  0  0  0  0  0  0  0  0  0  0
   36.3490   29.7370   38.9680 C   0  0  0  0  0  0  0  0  0  0  0  0
   37.4050   29.1650   39.6290 C   0  0  0  0  0  0  0  0  0  0  0  0
   38.5190   28.8870   38.8740 N   0  0  0  0  0  0  0  0  0  0  0  0
   38.5890   29.1560   37.5510 C   0  0  0  0  0  0  0  0  0  0  0  0
   37.5360   29.7230   36.9090 N   0  0  0  0  0  0  0  0  0  0  0  0
   35.5520   30.4640   37.1570 H   0  0  0  0  0  0  0  0  0  0  0  0
   35.4770   29.9590   39.5410 H   0  0  0  0  0  0  0  0  0  0  0  0
   39.5020   28.9070   37.0280 H   0  0  0  0  0  0  0  0  0  0  0  0
   40.2240   31.1560   41.8530 C   0  0  0  0  0  0  0  0  0  0  0  0
   40.8290   30.9780   42.9120 O   0  0  0  0  0  0  0  0  0  0  0  0
   39.0530   30.4830   41.4240 N   0  0  0  0  0  0  0  0  0  0  0  0
   38.5730   30.7020   40.5020 H   0  0  0  0  0  0  0  0  0  0  0  0
   40.7450   32.1800   40.8910 C   0  0  0  0  0  0  0  0  0  0  0  0
   41.7410   33.0140   40.9030 C   0  0  0  0  0  0  0  0  0  0  0  0
   42.3590   32.9960   41.7910 H   0  0  0  0  0  0  0  0  0  0  0  0
   41.9840   33.8570   39.8520 C   0  0  0  0  0  3  0  0  0  0  0  0
   41.0460   33.7240   38.7650 C   0  0  0  0  0  3  0  0  0  0  0  0
   39.8990   32.3750   39.3940 S   0  0  0  0  0  0  0  0  0  0  0  0
  1  2  2  0  0  0  0
  1  6  1  0  0  0  0
  2  3  1  0  0  0  0
  3  8  1  0  0  0  0
  3  4  2  0  0  0  0
  4  9  1  0  0  0  0
  5  4  1  0  0  0  0
  5 10  1  0  0  0  0
  6  5  2  0  0  0  0
  7  2  1  0  0  0  0
 11 12  1  0  0  0  0
 12 18  1  0  0  0  0
 12 13  2  0  0  0  0
 13  1  1  0  0  0  0
 14 13  1  0  0  0  0
 15 14  2  0  0  0  0
 16 15  1  0  0  0  0
 16 11  2  0  0  0  0
 17 11  1  0  0  0  0
 19 15  1  0  0  0  0
 20 21  2  0  0  0  0
 22 20  1  0  0  0  0
 22  6  1  0  0  0  0
 23 22  1  0  0  0  0
 24 25  2  0  0  0  0
 24 20  1  0  0  0  0
 25 26  1  0  0  0  0
 27 25  1  0  0  0  0
 28 29  1  0  0  0  0
 28 27  2  0  0  0  0
 29 24  1  0  0  0  0
M  END
>  <minimizedAffinity>
-4.88760376

$$$$

 OpenBabel03242517013D

 29 31  0  0  0  0  0  0  0  0999 V2000
   36.9320   30.2750   37.1680 C   0  0  0  0  0  0  0  0  0  0  0  0
   36.8020   30.5580   35.8070 C   0  0  0  0  0  0  0  0  0  0  0  0
   36.0970   29.6870   35.0070 C   0  0  0  0  0  0  0  0  0  0  0  0
   35.5330   28.5490   35.5600 C   0  0  0  0  0  0  0  0  0  0  0  0
   35.6400   28.2410   36.8820 C   0  0  0  0  0  0  0  0  0  0  0  0
   36.3600   29.1480   37.6670 C   0  0  0  0  0  0  0  0  0  0  0  0
   37.2430   31.4420   35.3870 H   0  0  0  0  0  0  0  0  0  0  0  0
   35.9500   29.8310   33.9450 H   0  0  0  0  0  0  0  0  0  0  0  0
   34.9800   27.8670   34.9280 H   0  0  0  0  0  0  0  0  0  0  0  0
   35.2160   27.3700   37.3510 H   0  0  0  0  0  0  0  0  0  0  0  0
   39.6690   32.3620   38.7060 C   0  0  0  0  0  0  0  0  0  0  0  0
   39.0360   31.4110   37.8940 C   0  0  0  0  0  0  0  0  0  0  0  0
   37.6790   31.2230   37.9560 C   0  0  0  0  0  0  0  0  0  0  0  0
   36.9940   32.0120   38.8480 N   0  0  0  0  0  0  0  0  0  0  0  0
   37.6050   32.9290   39.6300 C   0  0  0  0  0  0  0  0  0  0  0  0
   38.9500   33.1050   39.5590 N   0  0  0  0  0  0  0  0  0  0  0  0
   40.7340   32.4450   38.5950 H   0  0  0  0  0  0  0  0  0  0  0  0
   39.5820   30.8050   37.2070 H   0  0  0  0  0  0  0  0  0  0  0  0
   36.9940   33.5110   40.3060 H   0  0  0  0  0  0  0  0  0  0  0  0
   35.7100   28.9170   40.1990 C   0  0  0  0  0  0  0  0  0  0  0  0
   34.4910   29.0990   40.2230 O   0  0  0  0  0  0  0  0  0  0  0  0
   36.5490   28.9470   39.0580 N   0  0  0  0  0  0  0  0  0  0  0  0
   37.5990   28.7970   39.1160 H   0  0  0  0  0  0  0  0  0  0  0  0
   36.4180   28.6300   41.4890 C   0  0  0  0  0  0  0  0  0  0  0  0
   36.3160   27.7060   42.3960 C   0  0  0  0  0  0  0  0  0  0  0  0
   35.5610   26.9520   42.2170 H   0  0  0  0  0  0  0  0  0  0  0  0
   37.1200   27.6960   43.5040 C   0  0  0  0  0  3  0  0  0  0  0  0
   38.0610   28.7870   43.5560 C   0  0  0  0  0  3  0  0  0  0  0  0
   37.6730   29.7200   41.9710 S   0  0  0  0  0  0  0  0  0  0  0  0
  1  6  1  0  0  0  0
  1 13  1  0  0  0  0
  2  1  2  0  0  0  0
  3  4  2  0  0  0  0
  3  2  1  0  0  0  0
  4  5  1  0  0  0  0
  5 10  1  0  0  0  0
  5  6  2  0  0  0  0
  6 22  1  0  0  0  0
  7  2  1  0  0  0  0
  8  3  1  0  0  0  0
  9  4  1  0  0  0  0
 11 16  1  0  0  0  0
 12 13  1  0  0  0  0
 12 11  2  0  0  0  0
 13 14  2  0  0  0  0
 14 15  1  0  0  0  0
 15 19  1  0  0  0  0
 16 15  2  0  0  0  0
 17 11  1  0  0  0  0
 18 12  1  0  0  0  0
 20 21  2  0  0  0  0
 20 24  1  0  0  0  0
 22 23  1  0  0  0  0
 22 20  1  0  0  0  0
 24 29  1  0  0  0  0
 24 25  2  0  0  0  0
 25 27  1  0  0  0  0
 26 25  1  0  0  0  0
 27 28  2  0  0  0  0
 29 28  1  0  0  0  0
M  END
>  <minimizedAffinity>
-4.85906935

$$$$

 OpenBabel03242517013D

 29 31  0  0  0  0  0  0  0  0999 V2000
   36.9470   27.2070   39.8430 C   0  0  0  0  0  0  0  0  0  0  0  0
   36.5780   25.8880   39.5790 C   0  0  0  0  0  0  0  0  0  0  0  0
   35.8980   25.6030   38.4160 C   0  0  0  0  0  0  0  0  0  0  0  0
   35.5930   26.6250   37.5310 C   0  0  0  0  0  0  0  0  0  0  0  0
   35.9370   27.9230   37.7560 C   0  0  0  0  0  0  0  0  0  0  0  0
   36.6280   28.1770   38.9470 C   0  0  0  0  0  0  0  0  0  0  0  0
   36.8190   25.1030   40.2700 H   0  0  0  0  0  0  0  0  0  0  0  0
   35.5750   24.6100   38.1340 H   0  0  0  0  0  0  0  0  0  0  0  0
   35.0580   26.3980   36.6180 H   0  0  0  0  0  0  0  0  0  0  0  0
   35.7200   28.7450   37.0960 H   0  0  0  0  0  0  0  0  0  0  0  0
   37.8920   27.6160   43.4700 C   0  0  0  0  0  0  0  0  0  0  0  0
   37.1130   27.3670   42.3320 C   0  0  0  0  0  0  0  0  0  0  0  0
   37.6570   27.4440   41.0760 C   0  0  0  0  0  0  0  0  0  0  0  0
   38.9890   27.7770   41.0060 N   0  0  0  0  0  0  0  0  0  0  0  0
   39.7390   28.0180   42.1050 C   0  0  0  0  0  0  0  0  0  0  0  0
   39.1870   27.9370   43.3430 N   0  0  0  0  0  0  0  0  0  0  0  0
   37.3880   27.5340   44.4150 H   0  0  0  0  0  0  0  0  0  0  0  0
   36.0810   27.1090   42.4020 H   0  0  0  0  0  0  0  0  0  0  0  0
   40.7800   28.2740   41.9650 H   0  0  0  0  0  0  0  0  0  0  0  0
   36.5590   30.5020   40.1620 C   0  0  0  0  0  0  0  0  0  0  0  0
   35.5360   30.4620   40.8480 O   0  0  0  0  0  0  0  0  0  0  0  0
   37.0440   29.4840   39.3040 N   0  0  0  0  0  0  0  0  0  0  0  0
   37.9290   29.5960   38.7270 H   0  0  0  0  0  0  0  0  0  0  0  0
   37.4070   31.7370   40.2100 C   0  0  0  0  0  0  0  0  0  0  0  0
   37.2810   32.9450   39.7500 C   0  0  0  0  0  0  0  0  0  0  0  0
   36.3700   33.1470   39.2020 H   0  0  0  0  0  0  0  0  0  0  0  0
   38.2450   33.8960   39.9520 C   0  0  0  0  0  3  0  0  0  0  0  0
   39.3820   33.4260   40.7060 C   0  0  0  0  0  3  0  0  0  0  0  0
   38.9210   31.6350   41.0440 S   0  0  0  0  0  0  0  0  0  0  0  0
  1 13  1  0  0  0  0
  2  1  1  0  0  0  0
  2  7  1  0  0  0  0
  3  2  2  0  0  0  0
  4  5  2  0  0  0  0
  4  3  1  0  0  0  0
  5  6  1  0  0  0  0
  6 22  1  0  0  0  0
  6  1  2  0  0  0  0
  8  3  1  0  0  0  0
  9  4  1  0  0  0  0
 10  5  1  0  0  0  0
 11 17  1  0  0  0  0
 12 18  1  0  0  0  0
 12 11  2  0  0  0  0
 13 12  1  0  0  0  0
 14 13  2  0  0  0  0
 14 15  1  0  0  0  0
 15 16  2  0  0  0  0
 16 11  1  0  0  0  0
 19 15  1  0  0  0  0
 20 24  1  0  0  0  0
 20 21  2  0  0  0  0
 22 20  1  0  0  0  0
 23 22  1  0  0  0  0
 24 29  1  0  0  0  0
 25 27  1  0  0  0  0
 25 24  2  0  0  0  0
 26 25  1  0  0  0  0
 27 28  2  0  0  0  0
 28 29  1  0  0  0  0
M  END
>  <minimizedAffinity>
-4.76298857

$$$$

 OpenBabel03242517013D

 29 31  0  0  0  0  0  0  0  0999 V2000
   37.2580   30.4150   38.5100 C   0  0  0  0  0  0  0  0  0  0  0  0
   37.3230   31.7350   38.0610 C   0  0  0  0  0  0  0  0  0  0  0  0
   37.3420   32.7550   38.9850 C   0  0  0  0  0  0  0  0  0  0  0  0
   37.2950   32.4590   40.3380 C   0  0  0  0  0  0  0  0  0  0  0  0
   37.2300   31.1840   40.8110 C   0  0  0  0  0  0  0  0  0  0  0  0
   37.2140   30.1710   39.8460 C   0  0  0  0  0  0  0  0  0  0  0  0
   37.3590   31.9550   37.0120 H   0  0  0  0  0  0  0  0  0  0  0  0
   37.3910   33.8040   38.7240 H   0  0  0  0  0  0  0  0  0  0  0  0
   37.3100   33.2630   41.0620 H   0  0  0  0  0  0  0  0  0  0  0  0
   37.1930   30.9110   41.8520 H   0  0  0  0  0  0  0  0  0  0  0  0
   36.2670   28.0780   35.7230 C   0  0  0  0  0  0  0  0  0  0  0  0
   36.1800   29.0980   36.6790 C   0  0  0  0  0  0  0  0  0  0  0  0
   37.2420   29.3890   37.4970 C   0  0  0  0  0  0  0  0  0  0  0  0
   38.3730   28.6290   37.3230 N   0  0  0  0  0  0  0  0  0  0  0  0
   38.4550   27.6440   36.4000 C   0  0  0  0  0  0  0  0  0  0  0  0
   37.3970   27.3670   35.5950 N   0  0  0  0  0  0  0  0  0  0  0  0
   35.3910   27.9160   35.1240 H   0  0  0  0  0  0  0  0  0  0  0  0
   35.2950   29.6800   36.8030 H   0  0  0  0  0  0  0  0  0  0  0  0
   39.3820   27.0920   36.3250 H   0  0  0  0  0  0  0  0  0  0  0  0
   37.7630   27.9760   41.1780 C   0  0  0  0  0  0  0  0  0  0  0  0
   38.6010   28.3230   42.0120 O   0  0  0  0  0  0  0  0  0  0  0  0
   37.1480   28.8000   40.2030 N   0  0  0  0  0  0  0  0  0  0  0  0
   36.4430   28.4270   39.5010 H   0  0  0  0  0  0  0  0  0  0  0  0
   37.3190   26.5450   41.1580 C   0  0  0  0  0  0  0  0  0  0  0  0
   37.2590   25.6000   42.0470 C   0  0  0  0  0  0  0  0  0  0  0  0
   37.5950   25.8660   43.0400 H   0  0  0  0  0  0  0  0  0  0  0  0
   36.7960   24.3490   41.7350 C   0  0  0  0  0  3  0  0  0  0  0  0
   36.3960   24.1990   40.3580 C   0  0  0  0  0  3  0  0  0  0  0  0
   36.7400   25.9080   39.6560 S   0  0  0  0  0  0  0  0  0  0  0  0
  1  6  1  0  0  0  0
  2  1  2  0  0  0  0
  2  3  1  0  0  0  0
  3  4  2  0  0  0  0
  4  5  1  0  0  0  0
  4  9  1  0  0  0  0
  5 10  1  0  0  0  0
  6 22  1  0  0  0  0
  6  5  2  0  0  0  0
  7  2  1  0  0  0  0
  8  3  1  0  0  0  0
 11 12  1  0  0  0  0
 12 18  1  0  0  0  0
 12 13  2  0  0  0  0
 13  1  1  0  0  0  0
 14 13  1  0  0  0  0
 15 14  2  0  0  0  0
 16 11  2  0  0  0  0
 16 15  1  0  0  0  0
 17 11  1  0  0  0  0
 19 15  1  0  0  0  0
 20 21  2  0  0  0  0
 22 20  1  0  0  0  0
 23 22  1  0  0  0  0
 24 20  1  0  0  0  0
 24 25  2  0  0  0  0
 25 26  1  0  0  0  0
 27 25  1  0  0  0  0
 28 27  2  0  0  0  0
 29 28  1  0  0  0  0
 29 24  1  0  0  0  0
M  END
>  <minimizedAffinity>
-4.75268126

$$$$

 OpenBabel03242517013D

 29 31  0  0  0  0  0  0  0  0999 V2000
   37.1430   30.3470   37.4630 C   0  0  0  0  0  0  0  0  0  0  0  0
   36.9750   30.7670   36.1430 C   0  0  0  0  0  0  0  0  0  0  0  0
   36.3640   29.9200   35.2450 C   0  0  0  0  0  0  0  0  0  0  0  0
   35.9300   28.6730   35.6620 C   0  0  0  0  0  0  0  0  0  0  0  0
   36.0780   28.2310   36.9420 C   0  0  0  0  0  0  0  0  0  0  0  0
   36.7000   29.1160   37.8290 C   0  0  0  0  0  0  0  0  0  0  0  0
   37.3140   31.7350   35.8280 H   0  0  0  0  0  0  0  0  0  0  0  0
   36.1950   30.1650   34.2050 H   0  0  0  0  0  0  0  0  0  0  0  0
   35.4510   28.0090   34.9540 H   0  0  0  0  0  0  0  0  0  0  0  0
   35.7540   27.2710   37.3070 H   0  0  0  0  0  0  0  0  0  0  0  0
   37.9330   33.2560   39.7280 C   0  0  0  0  0  0  0  0  0  0  0  0
   37.2180   32.4170   38.8620 C   0  0  0  0  0  0  0  0  0  0  0  0
   37.7880   31.2760   38.3580 C   0  0  0  0  0  0  0  0  0  0  0  0
   39.0790   31.0150   38.7480 N   0  0  0  0  0  0  0  0  0  0  0  0
   39.7670   31.8250   39.5830 C   0  0  0  0  0  0  0  0  0  0  0  0
   39.1910   32.9520   40.0760 N   0  0  0  0  0  0  0  0  0  0  0  0
   37.4130   34.1280   40.0770 H   0  0  0  0  0  0  0  0  0  0  0  0
   36.2160   32.6330   38.5690 H   0  0  0  0  0  0  0  0  0  0  0  0
   40.7800   31.5490   39.8420 H   0  0  0  0  0  0  0  0  0  0  0  0
   36.1220   28.7390   40.3610 C   0  0  0  0  0  0  0  0  0  0  0  0
   34.9310   29.0390   40.4540 O   0  0  0  0  0  0  0  0  0  0  0  0
   36.9180   28.7810   39.1900 N   0  0  0  0  0  0  0  0  0  0  0  0
   37.9480   28.5230   39.1880 H   0  0  0  0  0  0  0  0  0  0  0  0
   36.8440   28.2760   41.5910 C   0  0  0  0  0  0  0  0  0  0  0  0
   36.4820   27.6780   42.6860 C   0  0  0  0  0  0  0  0  0  0  0  0
   35.4290   27.4420   42.7680 H   0  0  0  0  0  0  0  0  0  0  0  0
   37.3850   27.3690   43.6680 C   0  0  0  0  0  3  0  0  0  0  0  0
   38.7380   27.7670   43.3650 C   0  0  0  0  0  3  0  0  0  0  0  0
   38.5500   28.5550   41.6700 S   0  0  0  0  0  0  0  0  0  0  0  0
  1  6  1  0  0  0  0
  1 13  1  0  0  0  0
  2  1  2  0  0  0  0
  3  4  2  0  0  0  0
  3  2  1  0  0  0  0
  4  5  1  0  0  0  0
  5 10  1  0  0  0  0
  5  6  2  0  0  0  0
  6 22  1  0  0  0  0
  7  2  1  0  0  0  0
  8  3  1  0  0  0  0
  9  4  1  0  0  0  0
 11 16  1  0  0  0  0
 11 17  1  0  0  0  0
 12 11  2  0  0  0  0
 13 14  2  0  0  0  0
 13 12  1  0  0  0  0
 14 15  1  0  0  0  0
 15 19  1  0  0  0  0
 15 16  2  0  0  0  0
 18 12  1  0  0  0  0
 20 21  2  0  0  0  0
 20 24  1  0  0  0  0
 22 20  1  0  0  0  0
 23 22  1  0  0  0  0
 24 29  1  0  0  0  0
 24 25  2  0  0  0  0
 25 26  1  0  0  0  0
 25 27  1  0  0  0  0
 28 27  2  0  0  0  0
 29 28  1  0  0  0  0
M  END
>  <minimizedAffinity>
-4.73078728

$$$$
