
 OpenBabel03252502293D

 32 34  0  0  0  0  0  0  0  0999 V2000
   37.4020   31.2770   40.0240 C   0  0  0  0  0  0  0  0  0  0  0  0
   37.3710   32.6010   39.6200 C   0  0  0  0  0  0  0  0  0  0  0  0
   38.3220   33.4730   40.1300 C   0  0  0  0  0  0  0  0  0  0  0  0
   39.2700   33.0080   41.0210 C   0  0  0  0  0  0  0  0  0  0  0  0
   39.3060   31.7040   41.4230 C   0  0  0  0  0  0  0  0  0  0  0  0
   38.3410   30.8350   40.9010 C   0  0  0  0  0  0  0  0  0  0  0  0
   36.6340   32.9770   38.9230 H   0  0  0  0  0  0  0  0  0  0  0  0
   38.3860   34.5180   39.8820 H   0  0  0  0  0  0  0  0  0  0  0  0
   40.0280   33.6640   41.4370 H   0  0  0  0  0  0  0  0  0  0  0  0
   39.9840   31.2370   42.0990 H   0  0  0  0  0  0  0  0  0  0  0  0
   35.2140   29.2800   37.6850 C   0  0  0  0  0  0  0  0  0  0  0  0
   36.2520   30.1220   38.1130 C   0  0  0  0  0  0  0  0  0  0  0  0
   36.3760   30.4220   39.4490 C   0  0  0  0  0  0  0  0  0  0  0  0
   35.4490   29.8610   40.2880 N   0  0  0  0  0  0  0  0  0  0  0  0
   34.4530   29.0540   39.8730 C   0  0  0  0  0  0  0  0  0  0  0  0
   34.3320   28.7600   38.5670 N   0  0  0  0  0  0  0  0  0  0  0  0
   36.9720   30.5530   37.4290 H   0  0  0  0  0  0  0  0  0  0  0  0
   33.7490   28.6360   40.5630 H   0  0  0  0  0  0  0  0  0  0  0  0
   35.0790   28.9550   36.2450 C   0  0  0  0  0  0  0  0  0  0  0  0
   35.9370   29.8170   35.5440 F   0  0  0  0  0  0  0  0  0  0  0  0
   33.8050   29.3310   35.8710 F   0  0  0  0  0  0  0  0  0  0  0  0
   35.3750   27.6550   35.9490 F   0  0  0  0  0  0  0  0  0  0  0  0
   38.0930   28.7520   42.4360 C   0  0  0  0  0  0  0  0  0  0  0  0
   37.8980   29.2060   43.5510 O   0  0  0  0  0  0  0  0  0  0  0  0
   38.2750   29.4690   41.2340 N   0  0  0  0  0  0  0  0  0  0  0  0
   38.3980   28.9520   40.3320 H   0  0  0  0  0  0  0  0  0  0  0  0
   38.1440   27.2350   42.3450 C   0  0  0  0  0  0  0  0  0  0  0  0
   37.1180   26.2950   42.0720 C   0  0  0  0  0  0  0  0  0  0  0  0
   36.1610   26.7500   41.9080 H   0  0  0  0  0  0  0  0  0  0  0  0
   37.4700   24.9920   42.0570 C   0  0  0  0  0  3  0  0  0  0  0  0
   38.8970   24.6980   42.3280 C   0  0  0  0  0  3  0  0  0  0  0  0
   39.5730   26.3690   42.5780 S   0  0  0  0  0  0  0  0  0  0  0  0
  1  6  1  0  0  0  0
  2  1  2  0  0  0  0
  2  3  1  0  0  0  0
  3  4  2  0  0  0  0
  4  5  1  0  0  0  0
  4  9  1  0  0  0  0
  5 10  1  0  0  0  0
  6 25  1  0  0  0  0
  6  5  2  0  0  0  0
  7  2  1  0  0  0  0
  8  3  1  0  0  0  0
 11 12  2  0  0  0  0
 11 16  1  0  0  0  0
 12 13  1  0  0  0  0
 13  1  1  0  0  0  0
 13 14  2  0  0  0  0
 15 14  1  0  0  0  0
 15 18  1  0  0  0  0
 16 15  2  0  0  0  0
 17 12  1  0  0  0  0
 19 11  1  0  0  0  0
 20 19  1  0  0  0  0
 21 19  1  0  0  0  0
 22 19  1  0  0  0  0
 23 24  2  0  0  0  0
 25 23  1  0  0  0  0
 26 25  1  0  0  0  0
 27 23  1  0  0  0  0
 27 32  1  0  0  0  0
 28 27  2  0  0  0  0
 29 28  1  0  0  0  0
 30 28  1  0  0  0  0
 30 31  2  0  0  0  0
 31 32  1  0  0  0  0
M  END
>  <minimizedAffinity>
-5.63482428

$$$$

 OpenBabel03252502293D

 32 34  0  0  0  0  0  0  0  0999 V2000
   36.9450   28.6520   40.0260 C   0  0  0  0  0  0  0  0  0  0  0  0
   35.8550   28.0630   39.4070 C   0  0  0  0  0  0  0  0  0  0  0  0
   35.3460   28.6530   38.2600 C   0  0  0  0  0  0  0  0  0  0  0  0
   35.9280   29.8040   37.7640 C   0  0  0  0  0  0  0  0  0  0  0  0
   37.0030   30.3890   38.3700 C   0  0  0  0  0  0  0  0  0  0  0  0
   37.5080   29.7830   39.5260 C   0  0  0  0  0  0  0  0  0  0  0  0
   35.3910   27.1630   39.7860 H   0  0  0  0  0  0  0  0  0  0  0  0
   34.5040   28.2780   37.7040 H   0  0  0  0  0  0  0  0  0  0  0  0
   35.5530   30.2900   36.8690 H   0  0  0  0  0  0  0  0  0  0  0  0
   37.5290   31.2690   38.0800 H   0  0  0  0  0  0  0  0  0  0  0  0
   38.3350   26.1540   42.4910 C   0  0  0  0  0  0  0  0  0  0  0  0
   37.8980   26.6880   41.2690 C   0  0  0  0  0  0  0  0  0  0  0  0
   37.4260   27.9780   41.2220 C   0  0  0  0  0  0  0  0  0  0  0  0
   37.4160   28.6670   42.4070 N   0  0  0  0  0  0  0  0  0  0  0  0
   37.8350   28.1510   43.5780 C   0  0  0  0  0  0  0  0  0  0  0  0
   38.2980   26.8890   43.6240 N   0  0  0  0  0  0  0  0  0  0  0  0
   37.9160   26.1220   40.3460 H   0  0  0  0  0  0  0  0  0  0  0  0
   37.8110   28.7240   44.4820 H   0  0  0  0  0  0  0  0  0  0  0  0
   38.8450   24.7630   42.5440 C   0  0  0  0  0  0  0  0  0  0  0  0
   39.5480   24.5350   41.3510 F   0  0  0  0  0  0  0  0  0  0  0  0
   37.7440   23.9340   42.4790 F   0  0  0  0  0  0  0  0  0  0  0  0
   39.6510   24.5170   43.6180 F   0  0  0  0  0  0  0  0  0  0  0  0
   38.9310   31.5340   40.8160 C   0  0  0  0  0  0  0  0  0  0  0  0
   38.2350   32.5350   40.8590 O   0  0  0  0  0  0  0  0  0  0  0  0
   38.6130   30.2870   40.2380 N   0  0  0  0  0  0  0  0  0  0  0  0
   39.2920   29.4930   40.3030 H   0  0  0  0  0  0  0  0  0  0  0  0
   40.3010   31.6600   41.4640 C   0  0  0  0  0  0  0  0  0  0  0  0
   40.8350   31.0290   42.6160 C   0  0  0  0  0  0  0  0  0  0  0  0
   40.1440   30.3600   43.0890 H   0  0  0  0  0  0  0  0  0  0  0  0
   42.1030   31.3440   42.9540 C   0  0  0  0  0  3  0  0  0  0  0  0
   42.7900   32.3180   42.0750 C   0  0  0  0  0  3  0  0  0  0  0  0
   41.4990   32.6710   40.8410 S   0  0  0  0  0  0  0  0  0  0  0  0
  1 13  1  0  0  0  0
  2  7  1  0  0  0  0
  2  1  2  0  0  0  0
  3  2  1  0  0  0  0
  4  3  2  0  0  0  0
  4  5  1  0  0  0  0
  5  6  2  0  0  0  0
  6  1  1  0  0  0  0
  6 25  1  0  0  0  0
  8  3  1  0  0  0  0
  9  4  1  0  0  0  0
 10  5  1  0  0  0  0
 11 19  1  0  0  0  0
 11 16  1  0  0  0  0
 12 11  2  0  0  0  0
 13 12  1  0  0  0  0
 13 14  2  0  0  0  0
 14 15  1  0  0  0  0
 15 16  2  0  0  0  0
 15 18  1  0  0  0  0
 17 12  1  0  0  0  0
 19 22  1  0  0  0  0
 20 19  1  0  0  0  0
 21 19  1  0  0  0  0
 23 24  2  0  0  0  0
 23 27  1  0  0  0  0
 25 26  1  0  0  0  0
 25 23  1  0  0  0  0
 27 28  2  0  0  0  0
 28 30  1  0  0  0  0
 28 29  1  0  0  0  0
 31 30  2  0  0  0  0
 32 27  1  0  0  0  0
 32 31  1  0  0  0  0
M  END
>  <minimizedAffinity>
-5.61328268

$$$$

 OpenBabel03252502293D

 32 34  0  0  0  0  0  0  0  0999 V2000
   35.7070   27.6810   38.6730 C   0  0  0  0  0  0  0  0  0  0  0  0
   34.7970   27.8180   37.6390 C   0  0  0  0  0  0  0  0  0  0  0  0
   34.4030   26.6820   36.9470 C   0  0  0  0  0  0  0  0  0  0  0  0
   34.9210   25.4510   37.2990 C   0  0  0  0  0  0  0  0  0  0  0  0
   35.8190   25.3080   38.3180 C   0  0  0  0  0  0  0  0  0  0  0  0
   36.2070   26.4620   39.0090 C   0  0  0  0  0  0  0  0  0  0  0  0
   34.3850   28.7760   37.3540 H   0  0  0  0  0  0  0  0  0  0  0  0
   33.7040   26.6790   36.1290 H   0  0  0  0  0  0  0  0  0  0  0  0
   34.6330   24.5440   36.7780 H   0  0  0  0  0  0  0  0  0  0  0  0
   36.2800   24.4170   38.6740 H   0  0  0  0  0  0  0  0  0  0  0  0
   36.9100   31.1560   39.5200 C   0  0  0  0  0  0  0  0  0  0  0  0
   36.5990   30.0270   38.7470 C   0  0  0  0  0  0  0  0  0  0  0  0
   36.0730   28.9130   39.3550 C   0  0  0  0  0  0  0  0  0  0  0  0
   35.8870   28.9880   40.7100 N   0  0  0  0  0  0  0  0  0  0  0  0
   36.1870   30.0730   41.4490 C   0  0  0  0  0  0  0  0  0  0  0  0
   36.7010   31.1640   40.8550 N   0  0  0  0  0  0  0  0  0  0  0  0
   36.7560   29.9930   37.6760 H   0  0  0  0  0  0  0  0  0  0  0  0
   36.0260   30.0910   42.5080 H   0  0  0  0  0  0  0  0  0  0  0  0
   37.4770   32.3600   38.8660 C   0  0  0  0  0  0  0  0  0  0  0  0
   37.2880   32.2080   37.4840 F   0  0  0  0  0  0  0  0  0  0  0  0
   38.8440   32.3060   39.0520 F   0  0  0  0  0  0  0  0  0  0  0  0
   36.9140   33.5290   39.2910 F   0  0  0  0  0  0  0  0  0  0  0  0
   37.2800   25.6480   41.2320 C   0  0  0  0  0  0  0  0  0  0  0  0
   36.6160   24.6800   41.5650 O   0  0  0  0  0  0  0  0  0  0  0  0
   37.1210   26.4460   40.0800 N   0  0  0  0  0  0  0  0  0  0  0  0
   37.7870   27.2310   39.8930 H   0  0  0  0  0  0  0  0  0  0  0  0
   38.4070   26.0270   42.1790 C   0  0  0  0  0  0  0  0  0  0  0  0
   38.6410   27.2260   42.8990 C   0  0  0  0  0  0  0  0  0  0  0  0
   37.8870   27.9710   42.7320 H   0  0  0  0  0  0  0  0  0  0  0  0
   39.7450   27.2710   43.6730 C   0  0  0  0  0  3  0  0  0  0  0  0
   40.5870   26.0520   43.6790 C   0  0  0  0  0  3  0  0  0  0  0  0
   39.6670   24.9670   42.5440 S   0  0  0  0  0  0  0  0  0  0  0  0
  1  6  1  0  0  0  0
  1 13  1  0  0  0  0
  2  1  2  0  0  0  0
  3  4  2  0  0  0  0
  3  2  1  0  0  0  0
  4  5  1  0  0  0  0
  5 10  1  0  0  0  0
  5  6  2  0  0  0  0
  6 25  1  0  0  0  0
  7  2  1  0  0  0  0
  8  3  1  0  0  0  0
  9  4  1  0  0  0  0
 11 16  1  0  0  0  0
 12 13  1  0  0  0  0
 12 11  2  0  0  0  0
 13 14  2  0  0  0  0
 14 15  1  0  0  0  0
 15 18  1  0  0  0  0
 16 15  2  0  0  0  0
 17 12  1  0  0  0  0
 19 21  1  0  0  0  0
 19 22  1  0  0  0  0
 19 11  1  0  0  0  0
 20 19  1  0  0  0  0
 23 24  2  0  0  0  0
 23 27  1  0  0  0  0
 25 23  1  0  0  0  0
 26 25  1  0  0  0  0
 27 32  1  0  0  0  0
 27 28  2  0  0  0  0
 28 30  1  0  0  0  0
 29 28  1  0  0  0  0
 30 31  2  0  0  0  0
 32 31  1  0  0  0  0
M  END
>  <minimizedAffinity>
-5.59762383

$$$$

 OpenBabel03252502293D

 32 34  0  0  0  0  0  0  0  0999 V2000
   37.6540   29.4470   41.6880 C   0  0  0  0  0  0  0  0  0  0  0  0
   38.0790   29.3070   42.9980 C   0  0  0  0  0  0  0  0  0  0  0  0
   37.7560   28.1430   43.6790 C   0  0  0  0  0  0  0  0  0  0  0  0
   37.0250   27.1570   43.0440 C   0  0  0  0  0  0  0  0  0  0  0  0
   36.6030   27.2890   41.7520 C   0  0  0  0  0  0  0  0  0  0  0  0
   36.9360   28.4690   41.0760 C   0  0  0  0  0  0  0  0  0  0  0  0
   38.6520   30.0710   43.5060 H   0  0  0  0  0  0  0  0  0  0  0  0
   38.0360   27.9340   44.6960 H   0  0  0  0  0  0  0  0  0  0  0  0
   36.7560   26.2350   43.5480 H   0  0  0  0  0  0  0  0  0  0  0  0
   36.0380   26.6020   41.1660 H   0  0  0  0  0  0  0  0  0  0  0  0
   39.5460   32.3150   40.1250 C   0  0  0  0  0  0  0  0  0  0  0  0
   39.3170   31.0850   40.7600 C   0  0  0  0  0  0  0  0  0  0  0  0
   38.0290   30.6930   41.0370 C   0  0  0  0  0  0  0  0  0  0  0  0
   37.0350   31.5570   40.6620 N   0  0  0  0  0  0  0  0  0  0  0  0
   37.2580   32.7380   40.0530 C   0  0  0  0  0  0  0  0  0  0  0  0
   38.5180   33.1220   39.7810 N   0  0  0  0  0  0  0  0  0  0  0  0
   40.1220   30.4180   41.0470 H   0  0  0  0  0  0  0  0  0  0  0  0
   36.4510   33.3850   39.7750 H   0  0  0  0  0  0  0  0  0  0  0  0
   40.9350   32.7400   39.8260 C   0  0  0  0  0  0  0  0  0  0  0  0
   40.8520   33.8470   38.9670 F   0  0  0  0  0  0  0  0  0  0  0  0
   41.5020   31.7360   39.0670 F   0  0  0  0  0  0  0  0  0  0  0  0
   41.6590   33.0610   40.9380 F   0  0  0  0  0  0  0  0  0  0  0  0
   35.3460   29.0270   39.0960 C   0  0  0  0  0  0  0  0  0  0  0  0
   34.2510   29.1870   39.6090 O   0  0  0  0  0  0  0  0  0  0  0  0
   36.5640   28.7220   39.7420 N   0  0  0  0  0  0  0  0  0  0  0  0
   37.4460   28.6460   39.1840 H   0  0  0  0  0  0  0  0  0  0  0  0
   35.3910   29.1740   37.5840 C   0  0  0  0  0  0  0  0  0  0  0  0
   34.4160   28.8700   36.6000 C   0  0  0  0  0  0  0  0  0  0  0  0
   33.5100   28.4730   37.0130 H   0  0  0  0  0  0  0  0  0  0  0  0
   34.7470   29.1120   35.3150 C   0  0  0  0  0  3  0  0  0  0  0  0
   36.0990   29.6710   35.0830 C   0  0  0  0  0  3  0  0  0  0  0  0
   36.7440   29.7830   36.7810 S   0  0  0  0  0  0  0  0  0  0  0  0
  1  2  1  0  0  0  0
  2  7  1  0  0  0  0
  2  3  2  0  0  0  0
  3  8  1  0  0  0  0
  4  9  1  0  0  0  0
  4  3  1  0  0  0  0
  5  4  2  0  0  0  0
  6  1  2  0  0  0  0
  6  5  1  0  0  0  0
 10  5  1  0  0  0  0
 11 12  1  0  0  0  0
 12 13  2  0  0  0  0
 12 17  1  0  0  0  0
 13  1  1  0  0  0  0
 14 13  1  0  0  0  0
 15 14  2  0  0  0  0
 16 15  1  0  0  0  0
 16 11  2  0  0  0  0
 18 15  1  0  0  0  0
 19 11  1  0  0  0  0
 19 22  1  0  0  0  0
 20 19  1  0  0  0  0
 21 19  1  0  0  0  0
 23 24  2  0  0  0  0
 23 25  1  0  0  0  0
 25  6  1  0  0  0  0
 26 25  1  0  0  0  0
 27 23  1  0  0  0  0
 28 29  1  0  0  0  0
 28 27  2  0  0  0  0
 30 28  1  0  0  0  0
 31 30  2  0  0  0  0
 31 32  1  0  0  0  0
 32 27  1  0  0  0  0
M  END
>  <minimizedAffinity>
-5.59421301

$$$$

 OpenBabel03252502293D

 32 34  0  0  0  0  0  0  0  0999 V2000
   35.7240   29.1520   38.1070 C   0  0  0  0  0  0  0  0  0  0  0  0
   34.5960   28.3860   37.8650 C   0  0  0  0  0  0  0  0  0  0  0  0
   34.1870   28.2060   36.5520 C   0  0  0  0  0  0  0  0  0  0  0  0
   34.9040   28.7870   35.5240 C   0  0  0  0  0  0  0  0  0  0  0  0
   36.0170   29.5440   35.7560 C   0  0  0  0  0  0  0  0  0  0  0  0
   36.4200   29.7180   37.0850 C   0  0  0  0  0  0  0  0  0  0  0  0
   34.0270   27.9260   38.6610 H   0  0  0  0  0  0  0  0  0  0  0  0
   33.3270   27.6310   36.2550 H   0  0  0  0  0  0  0  0  0  0  0  0
   34.6110   28.6650   34.4860 H   0  0  0  0  0  0  0  0  0  0  0  0
   36.6430   30.0360   35.0490 H   0  0  0  0  0  0  0  0  0  0  0  0
   36.6880   28.5360   41.7040 C   0  0  0  0  0  0  0  0  0  0  0  0
   36.3370   28.2600   40.3730 C   0  0  0  0  0  0  0  0  0  0  0  0
   36.0940   29.2980   39.5060 C   0  0  0  0  0  0  0  0  0  0  0  0
   36.2150   30.5630   40.0200 N   0  0  0  0  0  0  0  0  0  0  0  0
   36.5520   30.8230   41.2980 C   0  0  0  0  0  0  0  0  0  0  0  0
   36.7900   29.8080   42.1460 N   0  0  0  0  0  0  0  0  0  0  0  0
   36.2480   27.2500   39.9910 H   0  0  0  0  0  0  0  0  0  0  0  0
   36.6360   31.8280   41.6600 H   0  0  0  0  0  0  0  0  0  0  0  0
   36.9510   27.4170   42.6410 C   0  0  0  0  0  0  0  0  0  0  0  0
   36.0120   27.5180   43.6790 F   0  0  0  0  0  0  0  0  0  0  0  0
   38.1720   27.6720   43.2310 F   0  0  0  0  0  0  0  0  0  0  0  0
   36.8730   26.1850   42.0560 F   0  0  0  0  0  0  0  0  0  0  0  0
   38.9230   30.1810   37.6120 C   0  0  0  0  0  0  0  0  0  0  0  0
   39.4880   29.1190   37.4090 O   0  0  0  0  0  0  0  0  0  0  0  0
   37.5510   30.4700   37.4540 N   0  0  0  0  0  0  0  0  0  0  0  0
   37.1990   31.4400   37.6290 H   0  0  0  0  0  0  0  0  0  0  0  0
   39.8120   31.3170   38.0920 C   0  0  0  0  0  0  0  0  0  0  0  0
   40.7060   32.1510   37.3760 C   0  0  0  0  0  0  0  0  0  0  0  0
   40.7440   31.9270   36.3280 H   0  0  0  0  0  0  0  0  0  0  0  0
   41.3700   33.0880   38.0840 C   0  0  0  0  0  3  0  0  0  0  0  0
   41.0830   33.1340   39.5370 C   0  0  0  0  0  3  0  0  0  0  0  0
   39.8660   31.7920   39.7100 S   0  0  0  0  0  0  0  0  0  0  0  0
  1 13  1  0  0  0  0
  2  1  1  0  0  0  0
  2  7  1  0  0  0  0
  3  2  2  0  0  0  0
  4  5  2  0  0  0  0
  4  3  1  0  0  0  0
  5  6  1  0  0  0  0
  6 25  1  0  0  0  0
  6  1  2  0  0  0  0
  8  3  1  0  0  0  0
  9  4  1  0  0  0  0
 10  5  1  0  0  0  0
 11 16  1  0  0  0  0
 11 19  1  0  0  0  0
 12 11  2  0  0  0  0
 13 14  2  0  0  0  0
 13 12  1  0  0  0  0
 14 15  1  0  0  0  0
 15 18  1  0  0  0  0
 15 16  2  0  0  0  0
 17 12  1  0  0  0  0
 19 21  1  0  0  0  0
 19 20  1  0  0  0  0
 22 19  1  0  0  0  0
 23 27  1  0  0  0  0
 24 23  2  0  0  0  0
 25 23  1  0  0  0  0
 25 26  1  0  0  0  0
 27 32  1  0  0  0  0
 28 30  1  0  0  0  0
 28 27  2  0  0  0  0
 29 28  1  0  0  0  0
 30 31  2  0  0  0  0
 31 32  1  0  0  0  0
M  END
>  <minimizedAffinity>
-5.55212021

$$$$

 OpenBabel03252502293D

 32 34  0  0  0  0  0  0  0  0999 V2000
   35.4560   29.1060   38.4640 C   0  0  0  0  0  0  0  0  0  0  0  0
   34.0850   28.9130   38.4760 C   0  0  0  0  0  0  0  0  0  0  0  0
   33.4200   28.7960   37.2650 C   0  0  0  0  0  0  0  0  0  0  0  0
   34.1310   28.8730   36.0820 C   0  0  0  0  0  0  0  0  0  0  0  0
   35.4830   29.0630   36.0630 C   0  0  0  0  0  0  0  0  0  0  0  0
   36.1420   29.1790   37.2920 C   0  0  0  0  0  0  0  0  0  0  0  0
   33.5180   28.8510   39.3950 H   0  0  0  0  0  0  0  0  0  0  0  0
   32.3600   28.6450   37.1630 H   0  0  0  0  0  0  0  0  0  0  0  0
   33.6410   28.7850   35.1180 H   0  0  0  0  0  0  0  0  0  0  0  0
   36.1290   29.1380   35.2200 H   0  0  0  0  0  0  0  0  0  0  0  0
   36.8350   28.4410   41.9130 C   0  0  0  0  0  0  0  0  0  0  0  0
   36.2020   28.2000   40.6840 C   0  0  0  0  0  0  0  0  0  0  0  0
   36.0850   29.2200   39.7700 C   0  0  0  0  0  0  0  0  0  0  0  0
   36.6090   30.4320   40.1370 N   0  0  0  0  0  0  0  0  0  0  0  0
   37.2150   30.6590   41.3190 C   0  0  0  0  0  0  0  0  0  0  0  0
   37.3300   29.6620   42.2130 N   0  0  0  0  0  0  0  0  0  0  0  0
   35.7960   27.2330   40.4170 H   0  0  0  0  0  0  0  0  0  0  0  0
   37.6120   31.6220   41.5670 H   0  0  0  0  0  0  0  0  0  0  0  0
   36.9620   27.3420   42.9010 C   0  0  0  0  0  0  0  0  0  0  0  0
   36.8880   26.1350   42.1890 F   0  0  0  0  0  0  0  0  0  0  0  0
   35.8230   27.3740   43.6790 F   0  0  0  0  0  0  0  0  0  0  0  0
   38.1200   27.3900   43.6240 F   0  0  0  0  0  0  0  0  0  0  0  0
   38.6670   28.5940   37.0950 C   0  0  0  0  0  0  0  0  0  0  0  0
   38.6940   27.4900   36.5780 O   0  0  0  0  0  0  0  0  0  0  0  0
   37.5310   29.3730   37.4050 N   0  0  0  0  0  0  0  0  0  0  0  0
   37.6500   30.3280   37.8170 H   0  0  0  0  0  0  0  0  0  0  0  0
   40.0220   29.1900   37.4410 C   0  0  0  0  0  0  0  0  0  0  0  0
   41.3120   28.9020   36.9290 C   0  0  0  0  0  0  0  0  0  0  0  0
   41.3060   28.1380   36.1760 H   0  0  0  0  0  0  0  0  0  0  0  0
   42.3450   29.6050   37.4390 C   0  0  0  0  0  3  0  0  0  0  0  0
   42.0050   30.6020   38.4810 C   0  0  0  0  0  3  0  0  0  0  0  0
   40.2000   30.4010   38.6030 S   0  0  0  0  0  0  0  0  0  0  0  0
  1  2  1  0  0  0  0
  1 13  1  0  0  0  0
  2  7  1  0  0  0  0
  3  2  2  0  0  0  0
  4  3  1  0  0  0  0
  5  4  2  0  0  0  0
  5  6  1  0  0  0  0
  6 25  1  0  0  0  0
  6  1  2  0  0  0  0
  8  3  1  0  0  0  0
  9  4  1  0  0  0  0
 10  5  1  0  0  0  0
 11 16  1  0  0  0  0
 11 19  1  0  0  0  0
 12 11  2  0  0  0  0
 13 14  2  0  0  0  0
 13 12  1  0  0  0  0
 14 15  1  0  0  0  0
 15 18  1  0  0  0  0
 15 16  2  0  0  0  0
 17 12  1  0  0  0  0
 19 22  1  0  0  0  0
 19 21  1  0  0  0  0
 20 19  1  0  0  0  0
 23 25  1  0  0  0  0
 23 27  1  0  0  0  0
 24 23  2  0  0  0  0
 25 26  1  0  0  0  0
 27 32  1  0  0  0  0
 28 30  1  0  0  0  0
 28 27  2  0  0  0  0
 29 28  1  0  0  0  0
 30 31  2  0  0  0  0
 31 32  1  0  0  0  0
M  END
>  <minimizedAffinity>
-5.4697299

$$$$

 OpenBabel03252502293D

 32 34  0  0  0  0  0  0  0  0999 V2000
   36.2650   29.0730   37.2050 C   0  0  0  0  0  0  0  0  0  0  0  0
   35.7590   29.2990   35.9360 C   0  0  0  0  0  0  0  0  0  0  0  0
   34.8250   28.4090   35.4270 C   0  0  0  0  0  0  0  0  0  0  0  0
   34.4220   27.3280   36.1870 C   0  0  0  0  0  0  0  0  0  0  0  0
   34.9170   27.1000   37.4390 C   0  0  0  0  0  0  0  0  0  0  0  0
   35.8590   28.0060   37.9420 C   0  0  0  0  0  0  0  0  0  0  0  0
   36.0670   30.1420   35.3320 H   0  0  0  0  0  0  0  0  0  0  0  0
   34.3720   28.4930   34.4550 H   0  0  0  0  0  0  0  0  0  0  0  0
   33.6930   26.6140   35.8170 H   0  0  0  0  0  0  0  0  0  0  0  0
   34.6820   26.3070   38.1100 H   0  0  0  0  0  0  0  0  0  0  0  0
   37.9780   32.0460   38.7780 C   0  0  0  0  0  0  0  0  0  0  0  0
   36.9420   31.1860   38.3830 C   0  0  0  0  0  0  0  0  0  0  0  0
   37.2390   30.0470   37.6740 C   0  0  0  0  0  0  0  0  0  0  0  0
   38.5640   29.8280   37.3980 N   0  0  0  0  0  0  0  0  0  0  0  0
   39.5550   30.6560   37.7790 C   0  0  0  0  0  0  0  0  0  0  0  0
   39.2650   31.7710   38.4720 N   0  0  0  0  0  0  0  0  0  0  0  0
   35.9020   31.3820   38.6140 H   0  0  0  0  0  0  0  0  0  0  0  0
   40.5790   30.4480   37.5420 H   0  0  0  0  0  0  0  0  0  0  0  0
   37.6600   33.2760   39.5430 C   0  0  0  0  0  0  0  0  0  0  0  0
   38.8590   33.9880   39.6990 F   0  0  0  0  0  0  0  0  0  0  0  0
   37.3100   32.8730   40.8150 F   0  0  0  0  0  0  0  0  0  0  0  0
   36.7210   34.0650   38.9420 F   0  0  0  0  0  0  0  0  0  0  0  0
   36.0760   28.3070   40.5140 C   0  0  0  0  0  0  0  0  0  0  0  0
   35.0640   28.9000   40.8470 O   0  0  0  0  0  0  0  0  0  0  0  0
   36.4390   27.8820   39.2180 N   0  0  0  0  0  0  0  0  0  0  0  0
   37.3260   27.3470   39.0740 H   0  0  0  0  0  0  0  0  0  0  0  0
   37.0540   27.9950   41.6360 C   0  0  0  0  0  0  0  0  0  0  0  0
   36.8530   27.3340   42.8740 C   0  0  0  0  0  0  0  0  0  0  0  0
   35.8410   27.0110   43.0210 H   0  0  0  0  0  0  0  0  0  0  0  0
   37.9280   27.2040   43.6800 C   0  0  0  0  0  3  0  0  0  0  0  0
   39.1990   27.7700   43.1700 C   0  0  0  0  0  3  0  0  0  0  0  0
   38.6800   28.4370   41.5580 S   0  0  0  0  0  0  0  0  0  0  0  0
  1 13  1  0  0  0  0
  1  6  1  0  0  0  0
  2  1  2  0  0  0  0
  3  2  1  0  0  0  0
  3  4  2  0  0  0  0
  4  5  1  0  0  0  0
  5  6  2  0  0  0  0
  5 10  1  0  0  0  0
  6 25  1  0  0  0  0
  7  2  1  0  0  0  0
  8  3  1  0  0  0  0
  9  4  1  0  0  0  0
 11 19  1  0  0  0  0
 12 17  1  0  0  0  0
 12 11  2  0  0  0  0
 13 12  1  0  0  0  0
 14 13  2  0  0  0  0
 14 15  1  0  0  0  0
 15 16  2  0  0  0  0
 16 11  1  0  0  0  0
 18 15  1  0  0  0  0
 19 20  1  0  0  0  0
 19 21  1  0  0  0  0
 22 19  1  0  0  0  0
 23 24  2  0  0  0  0
 23 27  1  0  0  0  0
 25 23  1  0  0  0  0
 26 25  1  0  0  0  0
 27 28  2  0  0  0  0
 28 29  1  0  0  0  0
 28 30  1  0  0  0  0
 31 30  2  0  0  0  0
 32 27  1  0  0  0  0
 32 31  1  0  0  0  0
M  END
>  <minimizedAffinity>
-5.45584345

$$$$

 OpenBabel03252502293D

 32 34  0  0  0  0  0  0  0  0999 V2000
   35.7370   27.6820   38.1450 C   0  0  0  0  0  0  0  0  0  0  0  0
   35.0930   26.5680   37.6340 C   0  0  0  0  0  0  0  0  0  0  0  0
   34.0910   26.7540   36.6940 C   0  0  0  0  0  0  0  0  0  0  0  0
   33.7580   28.0330   36.2890 C   0  0  0  0  0  0  0  0  0  0  0  0
   34.3900   29.1360   36.7890 C   0  0  0  0  0  0  0  0  0  0  0  0
   35.4000   28.9340   37.7360 C   0  0  0  0  0  0  0  0  0  0  0  0
   35.3440   25.5620   37.9430 H   0  0  0  0  0  0  0  0  0  0  0  0
   33.5290   25.9590   36.2370 H   0  0  0  0  0  0  0  0  0  0  0  0
   32.9800   28.2130   35.5560 H   0  0  0  0  0  0  0  0  0  0  0  0
   34.2200   30.1600   36.5530 H   0  0  0  0  0  0  0  0  0  0  0  0
   37.6620   26.6550   41.2240 C   0  0  0  0  0  0  0  0  0  0  0  0
   36.5690   26.8670   40.3700 C   0  0  0  0  0  0  0  0  0  0  0  0
   36.7770   27.4110   39.1250 C   0  0  0  0  0  0  0  0  0  0  0  0
   38.0730   27.7150   38.8010 N   0  0  0  0  0  0  0  0  0  0  0  0
   39.1200   27.5100   39.6240 C   0  0  0  0  0  0  0  0  0  0  0  0
   38.9170   26.9780   40.8420 N   0  0  0  0  0  0  0  0  0  0  0  0
   35.5530   26.6180   40.6500 H   0  0  0  0  0  0  0  0  0  0  0  0
   40.1190   27.7620   39.3310 H   0  0  0  0  0  0  0  0  0  0  0  0
   37.4400   26.0680   42.5680 C   0  0  0  0  0  0  0  0  0  0  0  0
   36.5230   26.8950   43.2340 F   0  0  0  0  0  0  0  0  0  0  0  0
   38.6240   26.2080   43.2630 F   0  0  0  0  0  0  0  0  0  0  0  0
   36.9760   24.7840   42.5330 F   0  0  0  0  0  0  0  0  0  0  0  0
   37.0730   30.9210   37.8450 C   0  0  0  0  0  0  0  0  0  0  0  0
   37.4780   31.0540   36.7030 O   0  0  0  0  0  0  0  0  0  0  0  0
   36.1270   29.9880   38.3220 N   0  0  0  0  0  0  0  0  0  0  0  0
   35.8380   30.0050   39.3270 H   0  0  0  0  0  0  0  0  0  0  0  0
   37.6640   31.8810   38.8660 C   0  0  0  0  0  0  0  0  0  0  0  0
   37.2690   33.1910   39.2340 C   0  0  0  0  0  0  0  0  0  0  0  0
   36.4120   33.5410   38.6920 H   0  0  0  0  0  0  0  0  0  0  0  0
   37.9990   33.8060   40.1880 C   0  0  0  0  0  3  0  0  0  0  0  0
   39.1350   33.0320   40.7410 C   0  0  0  0  0  3  0  0  0  0  0  0
   39.0110   31.4790   39.7990 S   0  0  0  0  0  0  0  0  0  0  0  0
  1 13  1  0  0  0  0
  2  7  1  0  0  0  0
  2  1  2  0  0  0  0
  3  2  1  0  0  0  0
  4  3  2  0  0  0  0
  4  5  1  0  0  0  0
  5  6  2  0  0  0  0
  6  1  1  0  0  0  0
  6 25  1  0  0  0  0
  8  3  1  0  0  0  0
  9  4  1  0  0  0  0
 10  5  1  0  0  0  0
 11 19  1  0  0  0  0
 12 17  1  0  0  0  0
 12 11  2  0  0  0  0
 13 12  1  0  0  0  0
 14 13  2  0  0  0  0
 14 15  1  0  0  0  0
 15 16  2  0  0  0  0
 16 11  1  0  0  0  0
 18 15  1  0  0  0  0
 19 20  1  0  0  0  0
 19 21  1  0  0  0  0
 22 19  1  0  0  0  0
 23 25  1  0  0  0  0
 23 27  1  0  0  0  0
 24 23  2  0  0  0  0
 25 26  1  0  0  0  0
 27 28  2  0  0  0  0
 27 32  1  0  0  0  0
 28 30  1  0  0  0  0
 29 28  1  0  0  0  0
 30 31  2  0  0  0  0
 32 31  1  0  0  0  0
M  END
>  <minimizedAffinity>
-5.31593037

$$$$

 OpenBabel03252502293D

 32 34  0  0  0  0  0  0  0  0999 V2000
   37.3270   26.1940   39.8680 C   0  0  0  0  0  0  0  0  0  0  0  0
   37.0290   24.8430   39.8180 C   0  0  0  0  0  0  0  0  0  0  0  0
   36.7700   24.1770   41.0070 C   0  0  0  0  0  0  0  0  0  0  0  0
   36.8140   24.8660   42.2030 C   0  0  0  0  0  0  0  0  0  0  0  0
   37.1090   26.1990   42.2590 C   0  0  0  0  0  0  0  0  0  0  0  0
   37.3670   26.8590   41.0530 C   0  0  0  0  0  0  0  0  0  0  0  0
   36.9900   24.2930   38.8880 H   0  0  0  0  0  0  0  0  0  0  0  0
   36.5290   23.1310   41.0790 H   0  0  0  0  0  0  0  0  0  0  0  0
   36.6170   24.3740   43.1500 H   0  0  0  0  0  0  0  0  0  0  0  0
   37.1710   26.8270   43.1170 H   0  0  0  0  0  0  0  0  0  0  0  0
   37.2510   28.4260   36.8250 C   0  0  0  0  0  0  0  0  0  0  0  0
   36.9020   27.9070   38.0810 C   0  0  0  0  0  0  0  0  0  0  0  0
   37.5870   26.8270   38.5850 C   0  0  0  0  0  0  0  0  0  0  0  0
   38.5900   26.3210   37.8000 N   0  0  0  0  0  0  0  0  0  0  0  0
   38.9220   26.8210   36.5940 C   0  0  0  0  0  0  0  0  0  0  0  0
   38.2520   27.8780   36.1010 N   0  0  0  0  0  0  0  0  0  0  0  0
   36.1040   28.3250   38.6830 H   0  0  0  0  0  0  0  0  0  0  0  0
   39.7140   26.3960   36.0110 H   0  0  0  0  0  0  0  0  0  0  0  0
   36.5140   29.5910   36.2800 C   0  0  0  0  0  0  0  0  0  0  0  0
   35.1720   29.4480   36.6660 F   0  0  0  0  0  0  0  0  0  0  0  0
   36.5120   29.4530   34.9070 F   0  0  0  0  0  0  0  0  0  0  0  0
   36.9990   30.7930   36.7080 F   0  0  0  0  0  0  0  0  0  0  0  0
   37.9860   29.2280   41.9280 C   0  0  0  0  0  0  0  0  0  0  0  0
   38.0960   29.0970   43.1360 O   0  0  0  0  0  0  0  0  0  0  0  0
   37.6770   28.2300   40.9780 N   0  0  0  0  0  0  0  0  0  0  0  0
   37.6490   28.4710   39.9600 H   0  0  0  0  0  0  0  0  0  0  0  0
   38.2080   30.6350   41.3970 C   0  0  0  0  0  0  0  0  0  0  0  0
   39.3130   31.5100   41.5450 C   0  0  0  0  0  0  0  0  0  0  0  0
   40.1090   31.0900   42.1290 H   0  0  0  0  0  0  0  0  0  0  0  0
   39.2220   32.7180   40.9500 C   0  0  0  0  0  3  0  0  0  0  0  0
   37.9690   32.9870   40.2070 C   0  0  0  0  0  3  0  0  0  0  0  0
   37.0530   31.4340   40.4620 S   0  0  0  0  0  0  0  0  0  0  0  0
  1  6  1  0  0  0  0
  2  1  2  0  0  0  0
  2  3  1  0  0  0  0
  3  8  1  0  0  0  0
  3  4  2  0  0  0  0
  4  5  1  0  0  0  0
  4  9  1  0  0  0  0
  5 10  1  0  0  0  0
  6  5  2  0  0  0  0
  7  2  1  0  0  0  0
 11 12  1  0  0  0  0
 12 13  2  0  0  0  0
 12 17  1  0  0  0  0
 13  1  1  0  0  0  0
 14 13  1  0  0  0  0
 15 14  2  0  0  0  0
 16 15  1  0  0  0  0
 16 11  2  0  0  0  0
 18 15  1  0  0  0  0
 19 20  1  0  0  0  0
 19 22  1  0  0  0  0
 19 11  1  0  0  0  0
 21 19  1  0  0  0  0
 23 24  2  0  0  0  0
 25  6  1  0  0  0  0
 25 23  1  0  0  0  0
 26 25  1  0  0  0  0
 27 28  2  0  0  0  0
 27 23  1  0  0  0  0
 28 29  1  0  0  0  0
 30 28  1  0  0  0  0
 31 32  1  0  0  0  0
 31 30  2  0  0  0  0
 32 27  1  0  0  0  0
M  END
>  <minimizedAffinity>
-5.30521631

$$$$
