
 OpenBabel03252503333D

 19 20  0  0  0  0  0  0  0  0999 V2000
   46.7430   33.5460   41.0960 C   0  0  0  0  0  0  0  0  0  0  0  0
   45.5850   33.0730   41.2350 O   0  0  0  0  0  0  0  0  0  0  0  0
   47.1750   34.4070   42.1350 N   0  0  0  0  0  0  0  0  0  0  0  0
   48.1580   34.7980   42.0270 H   0  0  0  0  0  0  0  0  0  0  0  0
   44.7060   36.0740   44.3840 C   0  0  0  0  0  0  0  0  0  0  0  0
   45.5150   35.8580   43.2550 C   0  0  0  0  0  0  0  0  0  0  0  0
   46.3250   34.7080   43.2360 C   0  0  0  0  0  0  0  0  0  0  0  0
   46.2830   33.8700   44.3060 N   0  0  0  0  0  0  0  0  0  0  0  0
   45.4850   34.1160   45.3810 C   0  0  0  0  0  0  0  0  0  0  0  0
   44.7120   35.2110   45.4020 N   0  0  0  0  0  0  0  0  0  0  0  0
   44.1070   36.9700   44.3450 H   0  0  0  0  0  0  0  0  0  0  0  0
   45.5730   36.4950   42.3960 H   0  0  0  0  0  0  0  0  0  0  0  0
   45.5050   33.4010   46.1970 H   0  0  0  0  0  0  0  0  0  0  0  0
   47.5430   33.2260   39.9720 C   0  0  0  0  0  0  0  0  0  0  0  0
   47.7960   33.7170   38.7390 C   0  0  0  0  0  0  0  0  0  0  0  0
   47.2250   34.6170   38.5510 H   0  0  0  0  0  0  0  0  0  0  0  0
   48.6580   33.1340   37.8790 C   0  0  0  0  0  3  0  0  0  0  0  0
   49.2850   31.9510   38.3770 C   0  0  0  0  0  3  0  0  0  0  0  0
   48.5950   31.7530   40.0480 S   0  0  0  0  0  0  0  0  0  0  0  0
  1  2  2  0  0  0  0
  1  3  1  0  0  0  0
  3  7  1  0  0  0  0
  4  3  1  0  0  0  0
  5 10  1  0  0  0  0
  6  5  2  0  0  0  0
  7  6  1  0  0  0  0
  7  8  2  0  0  0  0
  8  9  1  0  0  0  0
  9 10  2  0  0  0  0
  9 13  1  0  0  0  0
 11  5  1  0  0  0  0
 12  6  1  0  0  0  0
 14 19  1  0  0  0  0
 14  1  1  0  0  0  0
 15 14  2  0  0  0  0
 16 15  1  0  0  0  0
 17 18  2  0  0  0  0
 17 15  1  0  0  0  0
 18 19  1  0  0  0  0
M  END
>  <minimizedAffinity>
-3.76523757

>  <minimizedRMSD>
1.4397608

$$$$
