
 OpenBabel03242523153D

 24 26  0  0  0  0  0  0  0  0999 V2000
   46.0930   34.5800   43.8230 C   0  0  0  0  0  0  0  0  0  0  0  0
   47.1800   33.9350   43.2920 C   0  0  0  0  0  0  0  0  0  0  0  0
   47.6160   32.8280   44.0060 C   0  0  0  0  0  0  0  0  0  0  0  0
   46.9310   32.4790   45.1690 N   0  0  0  0  0  0  0  0  0  0  0  0
   45.8880   33.1530   45.6220 C   0  0  0  0  0  0  0  0  0  0  0  0
   45.4310   34.2370   44.9550 N   0  0  0  0  0  0  0  0  0  0  0  0
   48.4630   32.2460   43.6740 H   0  0  0  0  0  0  0  0  0  0  0  0
   45.4700   32.7540   46.5360 H   0  0  0  0  0  0  0  0  0  0  0  0
   47.9190   34.3470   42.1510 C   0  0  0  0  0  0  0  0  0  0  0  0
   48.3860   35.5730   41.8030 C   0  0  0  0  0  0  0  0  0  0  0  0
   49.4730   34.6350   42.3220 C   0  0  0  0  0  0  0  0  0  0  0  0
   48.0250   33.4110   41.4460 H   0  0  0  0  0  0  0  0  0  0  0  0
   48.2910   36.4640   42.4770 H   0  0  0  0  0  0  0  0  0  0  0  0
   48.5510   35.9340   40.7440 H   0  0  0  0  0  0  0  0  0  0  0  0
   50.1680   34.2500   41.5950 H   0  0  0  0  0  0  0  0  0  0  0  0
   49.8140   34.7040   43.3620 H   0  0  0  0  0  0  0  0  0  0  0  0
   45.3670   35.6910   43.1890 C   0  0  0  0  0  0  0  0  0  0  0  0
   45.2030   36.9160   43.1170 O   0  0  0  0  0  0  0  0  0  0  0  0
   44.3840   34.9620   42.1650 C   0  0  0  0  0  0  0  0  0  0  0  0
   43.6950   35.6180   41.3030 C   0  0  0  0  0  0  0  0  0  0  0  0
   43.5940   36.6930   41.0560 H   0  0  0  0  0  0  0  0  0  0  0  0
   42.8530   34.9740   40.4300 C   0  0  0  0  0  0  0  0  0  0  0  0
   42.7950   33.6060   40.5350 C   0  0  0  0  0  0  0  0  0  0  0  0
   44.0140   33.3010   41.9530 S   0  0  0  0  0  0  0  0  0  0  0  0
  1  6  1  0  0  0  0
  2  1  2  0  0  0  0
  2  3  1  0  0  0  0
  3  4  2  0  0  0  0
  4  5  1  0  0  0  0
  5  8  1  0  0  0  0
  6  5  2  0  0  0  0
  7  3  1  0  0  0  0
  9 11  1  0  0  0  0
  9  2  1  0  0  0  0
 10  9  1  0  0  0  0
 10 11  1  0  0  0  0
 10 13  1  0  0  0  0
 11 16  1  0  0  0  0
 12  9  1  0  0  0  0
 14 10  1  0  0  0  0
 15 11  1  0  0  0  0
 17  1  1  0  0  0  0
 18 17  2  0  0  0  0
 19 17  1  0  0  0  0
 20 19  2  0  0  0  0
 21 20  1  0  0  0  0
 22 23  2  0  0  0  0
 22 20  1  0  0  0  0
 23 24  1  0  0  0  0
 24 19  1  0  0  0  0
M  END
>  <minimizedAffinity>
-4.78109455

>  <minimizedRMSD>
1.09892941

$$$$
