
 OpenBabel03252503343D

 19 20  0  0  0  0  0  0  0  0999 V2000
   46.8060   33.8640   40.7110 C   0  0  0  0  0  0  0  0  0  0  0  0
   45.7200   33.2490   40.8740 O   0  0  0  0  0  0  0  0  0  0  0  0
   47.1770   34.7300   41.7700 N   0  0  0  0  0  0  0  0  0  0  0  0
   48.1000   35.2410   41.6410 H   0  0  0  0  0  0  0  0  0  0  0  0
   44.6350   36.0030   44.1890 C   0  0  0  0  0  0  0  0  0  0  0  0
   45.4140   35.9300   43.0210 C   0  0  0  0  0  0  0  0  0  0  0  0
   46.3460   34.8820   42.9150 C   0  0  0  0  0  0  0  0  0  0  0  0
   46.4440   33.9980   43.9430 N   0  0  0  0  0  0  0  0  0  0  0  0
   45.6700   34.1030   45.0580 C   0  0  0  0  0  0  0  0  0  0  0  0
   44.7810   35.1000   45.1620 N   0  0  0  0  0  0  0  0  0  0  0  0
   43.9380   36.8260   44.2170 H   0  0  0  0  0  0  0  0  0  0  0  0
   45.3640   36.6090   42.1930 H   0  0  0  0  0  0  0  0  0  0  0  0
   45.8040   33.3590   45.8370 H   0  0  0  0  0  0  0  0  0  0  0  0
   47.5870   33.6870   39.5440 C   0  0  0  0  0  0  0  0  0  0  0  0
   48.0680   34.4370   38.5280 C   0  0  0  0  0  0  0  0  0  0  0  0
   47.7750   35.4730   38.6310 H   0  0  0  0  0  0  0  0  0  0  0  0
   48.8180   33.9240   37.5280 C   0  0  0  0  0  3  0  0  0  0  0  0
   49.0630   32.5210   37.6290 C   0  0  0  0  0  3  0  0  0  0  0  0
   48.2010   32.0280   39.1530 S   0  0  0  0  0  0  0  0  0  0  0  0
  1  2  2  0  0  0  0
  1  3  1  0  0  0  0
  3  7  1  0  0  0  0
  4  3  1  0  0  0  0
  5 11  1  0  0  0  0
  5 10  1  0  0  0  0
  6  5  2  0  0  0  0
  7  6  1  0  0  0  0
  7  8  2  0  0  0  0
  8  9  1  0  0  0  0
  9 10  2  0  0  0  0
  9 13  1  0  0  0  0
 12  6  1  0  0  0  0
 14  1  1  0  0  0  0
 15 16  1  0  0  0  0
 15 14  2  0  0  0  0
 17 18  2  0  0  0  0
 17 15  1  0  0  0  0
 18 19  1  0  0  0  0
 19 14  1  0  0  0  0
M  END
>  <minimizedAffinity>
-3.94325233

>  <minimizedRMSD>
0.542119265

$$$$
