
 OpenBabel03252502273D

 32 34  0  0  0  0  0  0  0  0999 V2000
   45.2070   34.3770   41.0010 C   0  0  0  0  0  0  0  0  0  0  0  0
   45.4460   35.0000   42.2140 C   0  0  0  0  0  0  0  0  0  0  0  0
   46.7580   35.2660   42.5760 C   0  0  0  0  0  0  0  0  0  0  0  0
   47.7900   34.9090   41.7280 C   0  0  0  0  0  0  0  0  0  0  0  0
   47.5600   34.2950   40.5300 C   0  0  0  0  0  0  0  0  0  0  0  0
   46.2320   34.0320   40.1770 C   0  0  0  0  0  0  0  0  0  0  0  0
   44.6480   35.2840   42.8860 H   0  0  0  0  0  0  0  0  0  0  0  0
   47.0530   35.7440   43.4940 H   0  0  0  0  0  0  0  0  0  0  0  0
   48.8260   35.1040   41.9810 H   0  0  0  0  0  0  0  0  0  0  0  0
   48.2700   33.9770   39.8020 H   0  0  0  0  0  0  0  0  0  0  0  0
   41.5420   34.7310   40.1730 C   0  0  0  0  0  0  0  0  0  0  0  0
   42.8630   35.1030   40.4680 C   0  0  0  0  0  0  0  0  0  0  0  0
   43.8080   34.1300   40.6880 C   0  0  0  0  0  0  0  0  0  0  0  0
   43.3800   32.8320   40.6010 N   0  0  0  0  0  0  0  0  0  0  0  0
   42.1110   32.4790   40.3180 C   0  0  0  0  0  0  0  0  0  0  0  0
   41.1850   33.4300   40.1020 N   0  0  0  0  0  0  0  0  0  0  0  0
   43.1760   36.1380   40.5310 H   0  0  0  0  0  0  0  0  0  0  0  0
   41.8170   31.4510   40.2590 H   0  0  0  0  0  0  0  0  0  0  0  0
   40.5200   35.7790   39.9350 C   0  0  0  0  0  0  0  0  0  0  0  0
   39.3010   35.1220   39.7050 F   0  0  0  0  0  0  0  0  0  0  0  0
   40.8390   36.3800   38.7350 F   0  0  0  0  0  0  0  0  0  0  0  0
   40.3900   36.6600   40.9700 F   0  0  0  0  0  0  0  0  0  0  0  0
   46.1840   32.1790   38.3550 C   0  0  0  0  0  0  0  0  0  0  0  0
   46.8860   31.2860   38.7980 O   0  0  0  0  0  0  0  0  0  0  0  0
   45.8660   33.4090   38.9690 N   0  0  0  0  0  0  0  0  0  0  0  0
   45.2160   34.0770   38.4920 H   0  0  0  0  0  0  0  0  0  0  0  0
   45.5880   31.9250   36.9790 C   0  0  0  0  0  0  0  0  0  0  0  0
   45.9920   32.3870   35.7020 C   0  0  0  0  0  0  0  0  0  0  0  0
   46.8600   33.0160   35.7360 H   0  0  0  0  0  0  0  0  0  0  0  0
   45.2550   31.9890   34.6450 C   0  0  0  0  0  0  0  0  0  0  0  0
   44.1030   31.1070   34.9470 C   0  0  0  0  0  0  0  0  0  0  0  0
   44.2240   30.9580   36.7570 S   0  0  0  0  0  0  0  0  0  0  0  0
  1  2  1  0  0  0  0
  2  3  2  0  0  0  0
  2  7  1  0  0  0  0
  3  8  1  0  0  0  0
  4  9  1  0  0  0  0
  4  3  1  0  0  0  0
  5  4  2  0  0  0  0
  6  5  1  0  0  0  0
  6  1  2  0  0  0  0
 10  5  1  0  0  0  0
 11 12  1  0  0  0  0
 12 17  1  0  0  0  0
 12 13  2  0  0  0  0
 13  1  1  0  0  0  0
 14 13  1  0  0  0  0
 15 14  2  0  0  0  0
 16 11  2  0  0  0  0
 16 15  1  0  0  0  0
 18 15  1  0  0  0  0
 19 11  1  0  0  0  0
 19 22  1  0  0  0  0
 20 19  1  0  0  0  0
 21 19  1  0  0  0  0
 23 24  2  0  0  0  0
 23 25  1  0  0  0  0
 25  6  1  0  0  0  0
 26 25  1  0  0  0  0
 27 23  1  0  0  0  0
 28 29  1  0  0  0  0
 28 27  2  0  0  0  0
 30 31  2  0  0  0  0
 30 28  1  0  0  0  0
 31 32  1  0  0  0  0
 32 27  1  0  0  0  0
M  END
>  <minimizedAffinity>
-5.84889936

>  <minimizedRMSD>
0.79160589

$$$$
