
 OpenBabel03252508023D

 39 42  0  0  1  0  0  0  0  0999 V2000
   44.2340   34.3620   41.5450 C   0  0  0  0  0  0  0  0  0  0  0  0
   45.1110   34.2550   40.6290 O   0  0  0  0  0  0  0  0  0  0  0  0
   42.0340   33.2770   41.1330 C   0  0  0  0  0  0  0  0  0  0  0  0
   42.7870   34.4030   41.3140 C   0  0  0  0  0  0  0  0  0  0  0  0
   42.1320   35.6500   41.2740 C   0  0  0  0  0  0  0  0  0  0  0  0
   40.7870   35.7930   41.0640 C   0  0  0  0  0  0  0  0  0  0  0  0
   40.0330   34.6620   40.8830 C   0  0  0  0  0  0  0  0  0  0  0  0
   40.6580   33.4500   40.9200 C   0  0  0  0  0  0  0  0  0  0  0  0
   42.6500   36.5910   41.3980 H   0  0  0  0  0  0  0  0  0  0  0  0
   40.2840   36.7300   41.0310 H   0  0  0  0  0  0  0  0  0  0  0  0
   38.9670   34.6250   40.7090 H   0  0  0  0  0  0  0  0  0  0  0  0
   40.0990   32.5260   40.7820 H   0  0  0  0  0  0  0  0  0  0  0  0
   42.7200   31.7180   41.2360 S   0  0  0  0  0  0  0  0  0  0  0  0
   41.5840   30.8880   40.5520 O   0  0  0  0  0  0  0  0  0  0  0  0
   42.8040   31.2460   42.6430 O   0  0  0  0  0  0  0  0  0  0  0  0
   43.7820   31.0010   40.2360 C   0  0  0  0  0  0  0  0  0  0  0  0
   45.1630   30.7580   39.9290 C   0  0  0  0  0  0  0  0  0  0  0  0
   45.8250   31.2290   40.6340 H   0  0  0  0  0  0  0  0  0  0  0  0
   45.5030   30.0610   38.8570 C   0  0  0  0  0  3  0  0  0  0  0  0
   44.5600   29.5480   38.0020 C   0  0  0  0  0  3  0  0  0  0  0  0
   43.0310   30.0650   38.7230 S   0  0  0  0  0  0  0  0  0  0  0  0
   44.5790   34.4550   42.9380 C   0  0  0  0  0  0  0  0  0  0  0  0
   44.3010   35.7160   43.5680 C   0  0  0  0  0  0  0  0  0  0  0  0
   44.6260   35.8200   44.9100 C   0  0  0  0  0  0  0  0  0  0  0  0
   45.1750   34.7450   45.5370 N   0  0  0  0  0  0  0  0  0  0  0  0
   45.4180   33.5630   44.8860 C   0  0  0  0  0  0  0  0  0  0  0  0
   45.1200   33.4600   43.6400 N   0  0  0  0  0  0  0  0  0  0  0  0
   43.8830   36.5940   43.1560 H   0  0  0  0  0  0  0  0  0  0  0  0
   44.4580   36.7340   45.4890 H   0  0  0  0  0  0  0  0  0  0  0  0
   46.0120   32.4480   45.6460 C   0  0  1  0  0  0  0  0  0  0  0  0
   46.9670   32.7520   46.7760 C   0  0  0  0  0  0  0  0  0  0  0  0
   45.5460   32.3470   47.0560 C   0  0  1  0  0  0  0  0  0  0  0  0
   46.2380   31.5200   45.1030 H   0  0  0  0  0  0  0  0  0  0  0  0
   47.8030   32.0460   46.9590 H   0  0  0  0  0  0  0  0  0  0  0  0
   47.2810   33.8110   46.8730 H   0  0  0  0  0  0  0  0  0  0  0  0
   45.4160   31.3400   47.5150 H   0  0  0  0  0  0  0  0  0  0  0  0
   44.7650   33.4110   47.6440 N   0  0  0  0  0  0  0  0  0  0  0  0
   43.8650   33.5960   47.1890 H   0  0  0  0  0  0  0  0  0  0  0  0
   45.2980   34.2300   47.9530 H   0  0  0  0  0  0  0  0  0  0  0  0
  1 22  1  0  0  0  0
  2  1  2  0  0  0  0
  3 13  1  0  0  0  0
  3  4  1  0  0  0  0
  4  1  1  0  0  0  0
  5  4  2  0  0  0  0
  5  9  1  0  0  0  0
  6  5  1  0  0  0  0
  7  8  1  0  0  0  0
  7  6  2  0  0  0  0
  8  3  2  0  0  0  0
 10  6  1  0  0  0  0
 11  7  1  0  0  0  0
 12  8  1  0  0  0  0
 13 15  2  0  0  0  0
 14 13  2  0  0  0  0
 16 13  1  0  0  0  0
 17 16  2  0  0  0  0
 17 18  1  0  0  0  0
 19 17  1  0  0  0  0
 20 21  1  0  0  0  0
 20 19  2  0  0  0  0
 21 16  1  0  0  0  0
 22 23  2  0  0  0  0
 22 27  1  0  0  0  0
 23 24  1  0  0  0  0
 24 29  1  0  0  0  0
 24 25  2  0  0  0  0
 26 25  1  0  0  0  0
 26 30  1  0  0  0  0
 27 26  2  0  0  0  0
 28 23  1  0  0  0  0
 30 33  1  6  0  0  0
 30 31  1  0  0  0  0
 30 32  1  0  0  0  0
 31 35  1  0  0  0  0
 31 34  1  0  0  0  0
 31 32  1  0  0  0  0
 32 36  1  1  0  0  0
 32 37  1  0  0  0  0
 37 39  1  0  0  0  0
 38 37  1  0  0  0  0
M  END
>  <minimizedAffinity>
-5.69222832

>  <minimizedRMSD>
1.18111324

$$$$
