
 OpenBabel03252508023D

 39 42  0  0  1  0  0  0  0  0999 V2000
   44.2510   34.3820   41.5580 C   0  0  0  0  0  0  0  0  0  0  0  0
   45.1350   34.3050   40.6460 O   0  0  0  0  0  0  0  0  0  0  0  0
   42.0750   33.2520   41.1460 C   0  0  0  0  0  0  0  0  0  0  0  0
   42.8050   34.3940   41.3220 C   0  0  0  0  0  0  0  0  0  0  0  0
   42.1270   35.6270   41.2680 C   0  0  0  0  0  0  0  0  0  0  0  0
   40.7800   35.7430   41.0510 C   0  0  0  0  0  0  0  0  0  0  0  0
   40.0490   34.5960   40.8760 C   0  0  0  0  0  0  0  0  0  0  0  0
   40.6970   33.3970   40.9270 C   0  0  0  0  0  0  0  0  0  0  0  0
   42.6260   36.5800   41.3860 H   0  0  0  0  0  0  0  0  0  0  0  0
   40.2600   36.6700   41.0080 H   0  0  0  0  0  0  0  0  0  0  0  0
   38.9850   34.5370   40.6980 H   0  0  0  0  0  0  0  0  0  0  0  0
   40.1560   32.4610   40.7940 H   0  0  0  0  0  0  0  0  0  0  0  0
   42.7910   31.7080   41.2660 S   0  0  0  0  0  0  0  0  0  0  0  0
   41.7410   30.8720   40.4610 O   0  0  0  0  0  0  0  0  0  0  0  0
   42.7640   31.1950   42.6610 O   0  0  0  0  0  0  0  0  0  0  0  0
   43.9550   31.0470   40.3430 C   0  0  0  0  0  0  0  0  0  0  0  0
   44.3160   30.5420   39.0500 C   0  0  0  0  0  0  0  0  0  0  0  0
   43.5040   30.6050   38.3480 H   0  0  0  0  0  0  0  0  0  0  0  0
   45.5190   30.0330   38.8360 C   0  0  0  0  0  3  0  0  0  0  0  0
   46.4610   29.9640   39.8340 C   0  0  0  0  0  3  0  0  0  0  0  0
   45.6290   30.6680   41.2270 S   0  0  0  0  0  0  0  0  0  0  0  0
   44.5880   34.4690   42.9540 C   0  0  0  0  0  0  0  0  0  0  0  0
   44.3030   35.7250   43.5900 C   0  0  0  0  0  0  0  0  0  0  0  0
   44.6200   35.8230   44.9340 C   0  0  0  0  0  0  0  0  0  0  0  0
   45.1680   34.7460   45.5580 N   0  0  0  0  0  0  0  0  0  0  0  0
   45.4190   33.5680   44.9020 C   0  0  0  0  0  0  0  0  0  0  0  0
   45.1280   33.4720   43.6540 N   0  0  0  0  0  0  0  0  0  0  0  0
   43.8850   36.6040   43.1800 H   0  0  0  0  0  0  0  0  0  0  0  0
   44.4460   36.7340   45.5180 H   0  0  0  0  0  0  0  0  0  0  0  0
   46.0110   32.4510   45.6600 C   0  0  1  0  0  0  0  0  0  0  0  0
   46.9660   32.7510   46.7910 C   0  0  0  0  0  0  0  0  0  0  0  0
   45.5440   32.3470   47.0690 C   0  0  1  0  0  0  0  0  0  0  0  0
   46.2370   31.5240   45.1140 H   0  0  0  0  0  0  0  0  0  0  0  0
   47.8010   32.0440   46.9720 H   0  0  0  0  0  0  0  0  0  0  0  0
   47.2810   33.8100   46.8910 H   0  0  0  0  0  0  0  0  0  0  0  0
   45.4130   31.3380   47.5250 H   0  0  0  0  0  0  0  0  0  0  0  0
   44.7640   33.4100   47.6600 N   0  0  0  0  0  0  0  0  0  0  0  0
   43.8640   33.5970   47.2050 H   0  0  0  0  0  0  0  0  0  0  0  0
   45.2980   34.2270   47.9710 H   0  0  0  0  0  0  0  0  0  0  0  0
  1 22  1  0  0  0  0
  2  1  2  0  0  0  0
  3 13  1  0  0  0  0
  3  4  1  0  0  0  0
  4  1  1  0  0  0  0
  5  4  2  0  0  0  0
  5  9  1  0  0  0  0
  6  5  1  0  0  0  0
  7  8  1  0  0  0  0
  7  6  2  0  0  0  0
  8  3  2  0  0  0  0
 10  6  1  0  0  0  0
 11  7  1  0  0  0  0
 12  8  1  0  0  0  0
 13 15  2  0  0  0  0
 14 13  2  0  0  0  0
 16 21  1  0  0  0  0
 16 13  1  0  0  0  0
 17 16  2  0  0  0  0
 18 17  1  0  0  0  0
 19 17  1  0  0  0  0
 19 20  2  0  0  0  0
 20 21  1  0  0  0  0
 22 23  2  0  0  0  0
 22 27  1  0  0  0  0
 23 24  1  0  0  0  0
 24 29  1  0  0  0  0
 24 25  2  0  0  0  0
 26 25  1  0  0  0  0
 26 30  1  0  0  0  0
 27 26  2  0  0  0  0
 28 23  1  0  0  0  0
 30 33  1  6  0  0  0
 30 31  1  0  0  0  0
 30 32  1  0  0  0  0
 31 35  1  0  0  0  0
 31 34  1  0  0  0  0
 31 32  1  0  0  0  0
 32 36  1  1  0  0  0
 32 37  1  0  0  0  0
 37 39  1  0  0  0  0
 38 37  1  0  0  0  0
M  END
>  <minimizedAffinity>
-5.66999054

>  <minimizedRMSD>
1.08564043

$$$$
