
 OpenBabel03252508033D

 39 42  0  0  1  0  0  0  0  0999 V2000
   44.2520   34.3800   41.5510 C   0  0  0  0  0  0  0  0  0  0  0  0
   45.1350   34.3010   40.6380 O   0  0  0  0  0  0  0  0  0  0  0  0
   42.0800   33.2550   41.1070 C   0  0  0  0  0  0  0  0  0  0  0  0
   42.8050   34.3940   41.3150 C   0  0  0  0  0  0  0  0  0  0  0  0
   42.1230   35.6250   41.2960 C   0  0  0  0  0  0  0  0  0  0  0  0
   40.7750   35.7420   41.0830 C   0  0  0  0  0  0  0  0  0  0  0  0
   40.0480   34.5980   40.8750 C   0  0  0  0  0  0  0  0  0  0  0  0
   40.7010   33.4000   40.8920 C   0  0  0  0  0  0  0  0  0  0  0  0
   42.6190   36.5760   41.4410 H   0  0  0  0  0  0  0  0  0  0  0  0
   40.2520   36.6680   41.0660 H   0  0  0  0  0  0  0  0  0  0  0  0
   38.9840   34.5400   40.6970 H   0  0  0  0  0  0  0  0  0  0  0  0
   40.1630   32.4670   40.7330 H   0  0  0  0  0  0  0  0  0  0  0  0
   42.8010   31.7100   41.1830 S   0  0  0  0  0  0  0  0  0  0  0  0
   41.7000   30.8730   40.4490 O   0  0  0  0  0  0  0  0  0  0  0  0
   42.8640   31.2000   42.5770 O   0  0  0  0  0  0  0  0  0  0  0  0
   43.9010   31.0470   40.1870 C   0  0  0  0  0  0  0  0  0  0  0  0
   45.0060   30.1400   40.0550 C   0  0  0  0  0  0  0  0  0  0  0  0
   45.2520   29.6620   40.9870 H   0  0  0  0  0  0  0  0  0  0  0  0
   45.6250   29.9940   38.8950 C   0  0  0  0  0  3  0  0  0  0  0  0
   45.2430   30.7010   37.7810 C   0  0  0  0  0  3  0  0  0  0  0  0
   43.8900   31.6790   38.3620 S   0  0  0  0  0  0  0  0  0  0  0  0
   44.5890   34.4670   42.9460 C   0  0  0  0  0  0  0  0  0  0  0  0
   44.3060   35.7250   43.5810 C   0  0  0  0  0  0  0  0  0  0  0  0
   44.6230   35.8230   44.9250 C   0  0  0  0  0  0  0  0  0  0  0  0
   45.1710   34.7470   45.5490 N   0  0  0  0  0  0  0  0  0  0  0  0
   45.4200   33.5680   44.8940 C   0  0  0  0  0  0  0  0  0  0  0  0
   45.1290   33.4710   43.6470 N   0  0  0  0  0  0  0  0  0  0  0  0
   43.8870   36.6040   43.1710 H   0  0  0  0  0  0  0  0  0  0  0  0
   44.4500   36.7350   45.5080 H   0  0  0  0  0  0  0  0  0  0  0  0
   46.0120   32.4510   45.6530 C   0  0  1  0  0  0  0  0  0  0  0  0
   46.9660   32.7520   46.7850 C   0  0  0  0  0  0  0  0  0  0  0  0
   45.5440   32.3460   47.0610 C   0  0  1  0  0  0  0  0  0  0  0  0
   46.2390   31.5240   45.1080 H   0  0  0  0  0  0  0  0  0  0  0  0
   47.8010   32.0450   46.9670 H   0  0  0  0  0  0  0  0  0  0  0  0
   47.2800   33.8100   46.8850 H   0  0  0  0  0  0  0  0  0  0  0  0
   45.4130   31.3380   47.5180 H   0  0  0  0  0  0  0  0  0  0  0  0
   44.7630   33.4100   47.6510 N   0  0  0  0  0  0  0  0  0  0  0  0
   43.8640   33.5960   47.1950 H   0  0  0  0  0  0  0  0  0  0  0  0
   45.2960   34.2270   47.9630 H   0  0  0  0  0  0  0  0  0  0  0  0
  1 22  1  0  0  0  0
  2  1  2  0  0  0  0
  3 13  1  0  0  0  0
  3  4  1  0  0  0  0
  4  1  1  0  0  0  0
  5  4  2  0  0  0  0
  5  9  1  0  0  0  0
  6  5  1  0  0  0  0
  7  8  1  0  0  0  0
  7  6  2  0  0  0  0
  8  3  2  0  0  0  0
 10  6  1  0  0  0  0
 11  7  1  0  0  0  0
 12  8  1  0  0  0  0
 13 15  2  0  0  0  0
 14 13  2  0  0  0  0
 16 13  1  0  0  0  0
 17 16  2  0  0  0  0
 17 18  1  0  0  0  0
 19 17  1  0  0  0  0
 20 21  1  0  0  0  0
 20 19  2  0  0  0  0
 21 16  1  0  0  0  0
 22 23  2  0  0  0  0
 22 27  1  0  0  0  0
 23 24  1  0  0  0  0
 24 29  1  0  0  0  0
 24 25  2  0  0  0  0
 26 25  1  0  0  0  0
 26 30  1  0  0  0  0
 27 26  2  0  0  0  0
 28 23  1  0  0  0  0
 30 33  1  6  0  0  0
 30 31  1  0  0  0  0
 30 32  1  0  0  0  0
 31 35  1  0  0  0  0
 31 34  1  0  0  0  0
 31 32  1  0  0  0  0
 32 36  1  1  0  0  0
 32 37  1  0  0  0  0
 37 39  1  0  0  0  0
 38 37  1  0  0  0  0
M  END
>  <minimizedAffinity>
-5.73829985

>  <minimizedRMSD>
1.43537688

$$$$
