
 OpenBabel03252508023D

 39 42  0  0  1  0  0  0  0  0999 V2000
   44.2440   34.3730   41.5530 C   0  0  0  0  0  0  0  0  0  0  0  0
   45.1240   34.2830   40.6390 O   0  0  0  0  0  0  0  0  0  0  0  0
   42.0560   33.2650   41.1430 C   0  0  0  0  0  0  0  0  0  0  0  0
   42.7970   34.4000   41.3200 C   0  0  0  0  0  0  0  0  0  0  0  0
   42.1300   35.6390   41.2730 C   0  0  0  0  0  0  0  0  0  0  0  0
   40.7840   35.7680   41.0600 C   0  0  0  0  0  0  0  0  0  0  0  0
   40.0410   34.6290   40.8830 C   0  0  0  0  0  0  0  0  0  0  0  0
   40.6790   33.4230   40.9280 C   0  0  0  0  0  0  0  0  0  0  0  0
   42.6380   36.5860   41.3930 H   0  0  0  0  0  0  0  0  0  0  0  0
   40.2720   36.7000   41.0210 H   0  0  0  0  0  0  0  0  0  0  0  0
   38.9770   34.5800   40.7080 H   0  0  0  0  0  0  0  0  0  0  0  0
   40.1290   32.4930   40.7940 H   0  0  0  0  0  0  0  0  0  0  0  0
   42.7570   31.7130   41.2560 S   0  0  0  0  0  0  0  0  0  0  0  0
   41.6570   30.8770   40.5210 O   0  0  0  0  0  0  0  0  0  0  0  0
   42.7950   31.2270   42.6590 O   0  0  0  0  0  0  0  0  0  0  0  0
   43.8640   31.0210   40.2880 C   0  0  0  0  0  0  0  0  0  0  0  0
   44.5880   31.0940   39.0510 C   0  0  0  0  0  0  0  0  0  0  0  0
   44.3230   31.9640   38.4760 H   0  0  0  0  0  0  0  0  0  0  0  0
   45.4350   30.1380   38.7060 C   0  0  0  0  0  3  0  0  0  0  0  0
   45.6530   29.0440   39.5090 C   0  0  0  0  0  3  0  0  0  0  0  0
   44.5920   29.3380   40.8930 S   0  0  0  0  0  0  0  0  0  0  0  0
   44.5850   34.4630   42.9480 C   0  0  0  0  0  0  0  0  0  0  0  0
   44.3030   35.7210   43.5820 C   0  0  0  0  0  0  0  0  0  0  0  0
   44.6240   35.8210   44.9250 C   0  0  0  0  0  0  0  0  0  0  0  0
   45.1740   34.7450   45.5490 N   0  0  0  0  0  0  0  0  0  0  0  0
   45.4220   33.5660   44.8950 C   0  0  0  0  0  0  0  0  0  0  0  0
   45.1270   33.4670   43.6480 N   0  0  0  0  0  0  0  0  0  0  0  0
   43.8830   36.5990   43.1720 H   0  0  0  0  0  0  0  0  0  0  0  0
   44.4530   36.7330   45.5070 H   0  0  0  0  0  0  0  0  0  0  0  0
   46.0160   32.4500   45.6530 C   0  0  1  0  0  0  0  0  0  0  0  0
   46.9690   32.7520   46.7860 C   0  0  0  0  0  0  0  0  0  0  0  0
   45.5480   32.3440   47.0610 C   0  0  1  0  0  0  0  0  0  0  0  0
   46.2450   31.5240   45.1070 H   0  0  0  0  0  0  0  0  0  0  0  0
   47.8060   32.0470   46.9670 H   0  0  0  0  0  0  0  0  0  0  0  0
   47.2800   33.8110   46.8860 H   0  0  0  0  0  0  0  0  0  0  0  0
   45.4190   31.3350   47.5170 H   0  0  0  0  0  0  0  0  0  0  0  0
   44.7640   33.4050   47.6510 N   0  0  0  0  0  0  0  0  0  0  0  0
   43.8640   33.5890   47.1950 H   0  0  0  0  0  0  0  0  0  0  0  0
   45.2950   34.2230   47.9640 H   0  0  0  0  0  0  0  0  0  0  0  0
  1 22  1  0  0  0  0
  2  1  2  0  0  0  0
  3 13  1  0  0  0  0
  3  4  1  0  0  0  0
  4  1  1  0  0  0  0
  5  4  2  0  0  0  0
  5  9  1  0  0  0  0
  6  5  1  0  0  0  0
  7  8  1  0  0  0  0
  7  6  2  0  0  0  0
  8  3  2  0  0  0  0
 10  6  1  0  0  0  0
 11  7  1  0  0  0  0
 12  8  1  0  0  0  0
 13 15  2  0  0  0  0
 14 13  2  0  0  0  0
 16 21  1  0  0  0  0
 16 13  1  0  0  0  0
 17 16  2  0  0  0  0
 18 17  1  0  0  0  0
 19 17  1  0  0  0  0
 19 20  2  0  0  0  0
 20 21  1  0  0  0  0
 22 23  2  0  0  0  0
 22 27  1  0  0  0  0
 23 24  1  0  0  0  0
 24 29  1  0  0  0  0
 24 25  2  0  0  0  0
 26 25  1  0  0  0  0
 26 30  1  0  0  0  0
 27 26  2  0  0  0  0
 28 23  1  0  0  0  0
 30 33  1  6  0  0  0
 30 31  1  0  0  0  0
 30 32  1  0  0  0  0
 31 35  1  0  0  0  0
 31 34  1  0  0  0  0
 31 32  1  0  0  0  0
 32 36  1  1  0  0  0
 32 37  1  0  0  0  0
 37 39  1  0  0  0  0
 38 37  1  0  0  0  0
M  END
>  <minimizedAffinity>
-5.6470747

>  <minimizedRMSD>
1.04498386

$$$$
