
 OpenBabel03252507453D

 34 36  0  0  0  0  0  0  0  0999 V2000
   47.2070   34.4810   40.8940 C   0  0  0  0  0  0  0  0  0  0  0  0
   47.3600   35.2580   40.1090 H   0  0  0  0  0  0  0  0  0  0  0  0
   46.6180   33.6740   40.4160 H   0  0  0  0  0  0  0  0  0  0  0  0
   48.5280   34.0060   41.3380 C   0  0  0  0  0  0  0  0  0  0  0  0
   48.9310   32.7630   40.8700 C   0  0  0  0  0  0  0  0  0  0  0  0
   50.1520   32.2120   41.2180 C   0  0  0  0  0  0  0  0  0  0  0  0
   50.9470   32.9680   42.0550 N   0  0  0  0  0  0  0  0  0  0  0  0
   50.5270   34.1760   42.4940 C   0  0  0  0  0  0  0  0  0  0  0  0
   49.3440   34.6700   42.1360 N   0  0  0  0  0  0  0  0  0  0  0  0
   50.4500   31.2400   40.8440 H   0  0  0  0  0  0  0  0  0  0  0  0
   51.2210   34.6880   43.1430 H   0  0  0  0  0  0  0  0  0  0  0  0
   47.8550   31.8100   39.7740 S   0  0  0  0  0  0  0  0  0  0  0  0
   46.6340   30.9510   40.6420 C   0  0  0  0  0  0  0  0  0  0  0  0
   45.2950   31.1110   40.7690 C   0  0  0  0  0  0  0  0  0  0  0  0
   44.8450   31.9340   40.2370 H   0  0  0  0  0  0  0  0  0  0  0  0
   44.5680   30.2540   41.5440 C   0  0  0  0  0  3  0  0  0  0  0  0
   45.2550   29.1980   42.2060 C   0  0  0  0  0  3  0  0  0  0  0  0
   47.0520   29.4620   41.6770 S   0  0  0  0  0  0  0  0  0  0  0  0
   46.3580   34.9920   42.0270 C   0  0  0  0  0  0  0  0  0  0  0  0
   46.6220   34.5500   43.0060 H   0  0  0  0  0  0  0  0  0  0  0  0
   46.6190   36.0840   42.1420 H   0  0  0  0  0  0  0  0  0  0  0  0
   44.9040   34.9500   41.7690 C   0  0  0  0  0  0  0  0  0  0  0  0
   44.0020   35.4630   42.7400 C   0  0  0  0  0  0  0  0  0  0  0  0
   42.3560   35.1880   41.9670 S   0  0  0  0  0  0  0  0  0  0  0  0
   43.1820   34.4120   40.4350 C   0  0  0  0  0  0  0  0  0  0  0  0
   44.2940   34.4810   40.7100 N   0  0  0  0  0  0  0  0  0  0  0  0
   44.2390   35.9050   43.6950 H   0  0  0  0  0  0  0  0  0  0  0  0
   42.4630   33.9350   39.3490 O   0  0  0  0  0  0  0  0  0  0  0  0
   40.4790   34.3420   37.6400 O   0  0  0  0  0  0  0  0  0  0  0  0
   41.5580   35.0560   38.4450 P   0  0  0  0  0  0  0  0  0  0  0  0
   40.8070   36.1020   39.5470 O   0  0  0  0  0  0  0  0  0  0  0  0
   40.0300   36.5370   39.1480 H   0  0  0  0  0  0  0  0  0  0  0  0
   42.5910   35.9470   37.4490 O   0  0  0  0  0  0  0  0  0  0  0  0
   42.8200   36.7850   37.9280 H   0  0  0  0  0  0  0  0  0  0  0  0
  1  4  1  0  0  0  0
  1 19  1  0  0  0  0
  2  1  1  0  0  0  0
  3  1  1  0  0  0  0
  4  9  1  0  0  0  0
  5  6  1  0  0  0  0
  5  4  2  0  0  0  0
  6  7  2  0  0  0  0
  7  8  1  0  0  0  0
  8 11  1  0  0  0  0
  9  8  2  0  0  0  0
 10  6  1  0  0  0  0
 12 13  1  0  0  0  0
 12  5  1  0  0  0  0
 13 14  2  0  0  0  0
 13 18  1  0  0  0  0
 14 16  1  0  0  0  0
 15 14  1  0  0  0  0
 16 17  2  0  0  0  0
 18 17  1  0  0  0  0
 19 21  1  0  0  0  0
 19 20  1  0  0  0  0
 22 19  1  0  0  0  0
 22 23  2  0  0  0  0
 23 27  1  0  0  0  0
 24 23  1  0  0  0  0
 25 26  2  0  0  0  0
 25 24  1  0  0  0  0
 26 22  1  0  0  0  0
 28 25  1  0  0  0  0
 29 30  2  0  0  0  0
 30 28  1  0  0  0  0
 30 31  1  0  0  0  0
 32 31  1  0  0  0  0
 33 34  1  0  0  0  0
 33 30  1  0  0  0  0
M  END
>  <minimizedAffinity>
-4.34349298

>  <minimizedRMSD>
0.352167368

$$$$
