
 OpenBabel03252508023D

 39 42  0  0  1  0  0  0  0  0999 V2000
   44.2340   34.3660   41.5440 C   0  0  0  0  0  0  0  0  0  0  0  0
   45.1120   34.2570   40.6300 O   0  0  0  0  0  0  0  0  0  0  0  0
   42.0300   33.2920   41.1290 C   0  0  0  0  0  0  0  0  0  0  0  0
   42.7880   34.4140   41.3110 C   0  0  0  0  0  0  0  0  0  0  0  0
   42.1390   35.6640   41.2700 C   0  0  0  0  0  0  0  0  0  0  0  0
   40.7940   35.8130   41.0580 C   0  0  0  0  0  0  0  0  0  0  0  0
   40.0350   34.6850   40.8760 C   0  0  0  0  0  0  0  0  0  0  0  0
   40.6550   33.4700   40.9150 C   0  0  0  0  0  0  0  0  0  0  0  0
   42.6610   36.6030   41.3940 H   0  0  0  0  0  0  0  0  0  0  0  0
   40.2960   36.7530   41.0230 H   0  0  0  0  0  0  0  0  0  0  0  0
   38.9700   34.6530   40.7010 H   0  0  0  0  0  0  0  0  0  0  0  0
   40.0920   32.5490   40.7760 H   0  0  0  0  0  0  0  0  0  0  0  0
   42.7090   31.7290   41.2340 S   0  0  0  0  0  0  0  0  0  0  0  0
   41.5450   30.8970   40.6000 O   0  0  0  0  0  0  0  0  0  0  0  0
   42.8360   31.2780   42.6440 O   0  0  0  0  0  0  0  0  0  0  0  0
   43.7330   30.9900   40.2100 C   0  0  0  0  0  0  0  0  0  0  0  0
   44.8130   31.1430   39.2770 C   0  0  0  0  0  0  0  0  0  0  0  0
   45.1160   32.1700   39.1710 H   0  0  0  0  0  0  0  0  0  0  0  0
   45.2950   30.0960   38.6270 C   0  0  0  0  0  3  0  0  0  0  0  0
   44.7870   28.8340   38.8130 C   0  0  0  0  0  3  0  0  0  0  0  0
   43.5060   29.0840   40.0070 S   0  0  0  0  0  0  0  0  0  0  0  0
   44.5770   34.4570   42.9380 C   0  0  0  0  0  0  0  0  0  0  0  0
   44.2960   35.7150   43.5710 C   0  0  0  0  0  0  0  0  0  0  0  0
   44.6190   35.8170   44.9130 C   0  0  0  0  0  0  0  0  0  0  0  0
   45.1710   34.7430   45.5370 N   0  0  0  0  0  0  0  0  0  0  0  0
   45.4180   33.5620   44.8840 C   0  0  0  0  0  0  0  0  0  0  0  0
   45.1220   33.4620   43.6380 N   0  0  0  0  0  0  0  0  0  0  0  0
   43.8740   36.5930   43.1600 H   0  0  0  0  0  0  0  0  0  0  0  0
   44.4480   36.7290   45.4940 H   0  0  0  0  0  0  0  0  0  0  0  0
   46.0150   32.4480   45.6420 C   0  0  1  0  0  0  0  0  0  0  0  0
   46.9690   32.7520   46.7730 C   0  0  0  0  0  0  0  0  0  0  0  0
   45.5490   32.3420   47.0510 C   0  0  1  0  0  0  0  0  0  0  0  0
   46.2430   31.5210   45.0970 H   0  0  0  0  0  0  0  0  0  0  0  0
   47.8070   32.0470   46.9540 H   0  0  0  0  0  0  0  0  0  0  0  0
   47.2800   33.8110   46.8720 H   0  0  0  0  0  0  0  0  0  0  0  0
   45.4210   31.3340   47.5080 H   0  0  0  0  0  0  0  0  0  0  0  0
   44.7650   33.4030   47.6420 N   0  0  0  0  0  0  0  0  0  0  0  0
   43.8640   33.5870   47.1870 H   0  0  0  0  0  0  0  0  0  0  0  0
   45.2960   34.2230   47.9530 H   0  0  0  0  0  0  0  0  0  0  0  0
  1 22  1  0  0  0  0
  2  1  2  0  0  0  0
  3 13  1  0  0  0  0
  3  4  1  0  0  0  0
  4  1  1  0  0  0  0
  5  4  2  0  0  0  0
  5  9  1  0  0  0  0
  6  5  1  0  0  0  0
  7  8  1  0  0  0  0
  7  6  2  0  0  0  0
  8  3  2  0  0  0  0
 10  6  1  0  0  0  0
 11  7  1  0  0  0  0
 12  8  1  0  0  0  0
 13 15  2  0  0  0  0
 14 13  2  0  0  0  0
 16 13  1  0  0  0  0
 17 16  2  0  0  0  0
 18 17  1  0  0  0  0
 19 20  2  0  0  0  0
 19 17  1  0  0  0  0
 20 21  1  0  0  0  0
 21 16  1  0  0  0  0
 22 23  2  0  0  0  0
 22 27  1  0  0  0  0
 23 24  1  0  0  0  0
 24 29  1  0  0  0  0
 24 25  2  0  0  0  0
 26 25  1  0  0  0  0
 26 30  1  0  0  0  0
 27 26  2  0  0  0  0
 28 23  1  0  0  0  0
 30 33  1  6  0  0  0
 30 31  1  0  0  0  0
 30 32  1  0  0  0  0
 31 35  1  0  0  0  0
 31 34  1  0  0  0  0
 31 32  1  0  0  0  0
 32 36  1  1  0  0  0
 32 37  1  0  0  0  0
 37 39  1  0  0  0  0
 38 37  1  0  0  0  0
M  END
>  <minimizedAffinity>
-5.67018366

>  <minimizedRMSD>
1.13487744

$$$$
