
 OpenBabel03242523313D

 19 20  0  0  0  0  0  0  0  0999 V2000
   38.9400   29.1810   42.8890 C   0  0  0  0  0  0  0  0  0  0  0  0
   39.7360   28.5860   42.4220 H   0  0  0  0  0  0  0  0  0  0  0  0
   39.3710   29.6800   43.7730 H   0  0  0  0  0  0  0  0  0  0  0  0
   38.3770   32.0300   40.5730 C   0  0  0  0  0  0  0  0  0  0  0  0
   37.0200   31.9000   40.3150 C   0  0  0  0  0  0  0  0  0  0  0  0
   36.3220   30.8650   40.9200 C   0  0  0  0  0  0  0  0  0  0  0  0
   36.9720   29.9970   41.7520 N   0  0  0  0  0  0  0  0  0  0  0  0
   38.2980   30.1560   41.9780 C   0  0  0  0  0  0  0  0  0  0  0  0
   38.9880   31.1560   41.3970 N   0  0  0  0  0  0  0  0  0  0  0  0
   38.9310   32.8220   40.1140 H   0  0  0  0  0  0  0  0  0  0  0  0
   36.5030   32.5840   39.6590 H   0  0  0  0  0  0  0  0  0  0  0  0
   35.2640   30.7130   40.7590 H   0  0  0  0  0  0  0  0  0  0  0  0
   37.6010   28.1060   43.5230 S   0  0  0  0  0  0  0  0  0  0  0  0
   37.8480   26.5130   42.8340 C   0  0  0  0  0  0  0  0  0  0  0  0
   37.0480   25.6210   42.2250 C   0  0  0  0  0  0  0  0  0  0  0  0
   36.0140   25.9370   42.1280 H   0  0  0  0  0  0  0  0  0  0  0  0
   37.4820   24.4260   41.7680 C   0  0  0  0  0  3  0  0  0  0  0  0
   38.9110   24.2160   42.0100 C   0  0  0  0  0  3  0  0  0  0  0  0
   39.4580   25.7180   42.8450 S   0  0  0  0  0  0  0  0  0  0  0  0
  1 13  1  0  0  0  0
  1  3  1  0  0  0  0
  2  1  1  0  0  0  0
  4  9  1  0  0  0  0
  5  4  2  0  0  0  0
  5  6  1  0  0  0  0
  6  7  2  0  0  0  0
  7  8  1  0  0  0  0
  8  1  1  0  0  0  0
  9  8  2  0  0  0  0
 10  4  1  0  0  0  0
 11  5  1  0  0  0  0
 12  6  1  0  0  0  0
 14 19  1  0  0  0  0
 14 13  1  0  0  0  0
 15 14  2  0  0  0  0
 16 15  1  0  0  0  0
 17 18  2  0  0  0  0
 17 15  1  0  0  0  0
 18 19  1  0  0  0  0
M  END
>  <minimizedAffinity>
-3.87728262

$$$$

 OpenBabel03242523313D

 19 20  0  0  0  0  0  0  0  0999 V2000
   37.6580   30.7370   39.4480 C   0  0  0  0  0  0  0  0  0  0  0  0
   37.0960   30.7170   38.5050 H   0  0  0  0  0  0  0  0  0  0  0  0
   38.2440   29.8040   39.5070 H   0  0  0  0  0  0  0  0  0  0  0  0
   40.4310   33.1830   39.0840 C   0  0  0  0  0  0  0  0  0  0  0  0
   40.0450   34.1600   39.9910 C   0  0  0  0  0  0  0  0  0  0  0  0
   38.8680   33.9820   40.7040 C   0  0  0  0  0  0  0  0  0  0  0  0
   38.1130   32.8600   40.5060 N   0  0  0  0  0  0  0  0  0  0  0  0
   38.5220   31.9290   39.6120 C   0  0  0  0  0  0  0  0  0  0  0  0
   39.6630   32.0890   38.9130 N   0  0  0  0  0  0  0  0  0  0  0  0
   41.3350   33.3040   38.5260 H   0  0  0  0  0  0  0  0  0  0  0  0
   40.6380   35.0480   40.1490 H   0  0  0  0  0  0  0  0  0  0  0  0
   38.5160   34.7070   41.4230 H   0  0  0  0  0  0  0  0  0  0  0  0
   36.5300   30.7140   40.8890 S   0  0  0  0  0  0  0  0  0  0  0  0
   36.9700   29.3270   41.8660 C   0  0  0  0  0  0  0  0  0  0  0  0
   36.4370   28.1080   42.0560 C   0  0  0  0  0  0  0  0  0  0  0  0
   35.5320   27.9180   41.4860 H   0  0  0  0  0  0  0  0  0  0  0  0
   36.9730   27.1850   42.8850 C   0  0  0  0  0  3  0  0  0  0  0  0
   38.1890   27.6610   43.5460 C   0  0  0  0  0  3  0  0  0  0  0  0
   38.4220   29.3360   42.9220 S   0  0  0  0  0  0  0  0  0  0  0  0
  1  3  1  0  0  0  0
  1  8  1  0  0  0  0
  1 13  1  0  0  0  0
  2  1  1  0  0  0  0
  4  5  1  0  0  0  0
  5 11  1  0  0  0  0
  5  6  2  0  0  0  0
  6 12  1  0  0  0  0
  7  6  1  0  0  0  0
  8  7  2  0  0  0  0
  9  4  2  0  0  0  0
  9  8  1  0  0  0  0
 10  4  1  0  0  0  0
 13 14  1  0  0  0  0
 14 15  2  0  0  0  0
 14 19  1  0  0  0  0
 15 17  1  0  0  0  0
 16 15  1  0  0  0  0
 17 18  2  0  0  0  0
 19 18  1  0  0  0  0
M  END
>  <minimizedAffinity>
-3.86750317

$$$$

 OpenBabel03242523313D

 19 20  0  0  0  0  0  0  0  0999 V2000
   39.9330   30.5610   40.8670 C   0  0  0  0  0  0  0  0  0  0  0  0
   39.8050   29.6280   40.3020 H   0  0  0  0  0  0  0  0  0  0  0  0
   40.9970   30.8460   40.8020 H   0  0  0  0  0  0  0  0  0  0  0  0
   38.4670   33.9330   40.3370 C   0  0  0  0  0  0  0  0  0  0  0  0
   37.3620   33.6230   39.5550 C   0  0  0  0  0  0  0  0  0  0  0  0
   37.1310   32.2970   39.2230 C   0  0  0  0  0  0  0  0  0  0  0  0
   37.9830   31.3230   39.6630 N   0  0  0  0  0  0  0  0  0  0  0  0
   39.0510   31.6650   40.4230 C   0  0  0  0  0  0  0  0  0  0  0  0
   39.2880   32.9490   40.7540 N   0  0  0  0  0  0  0  0  0  0  0  0
   38.6600   34.9510   40.6030 H   0  0  0  0  0  0  0  0  0  0  0  0
   36.6860   34.3890   39.2060 H   0  0  0  0  0  0  0  0  0  0  0  0
   36.2880   31.9940   38.6180 H   0  0  0  0  0  0  0  0  0  0  0  0
   39.5890   30.3070   42.6460 S   0  0  0  0  0  0  0  0  0  0  0  0
   38.4680   28.9650   42.7670 C   0  0  0  0  0  0  0  0  0  0  0  0
   37.5100   28.6200   43.6450 C   0  0  0  0  0  0  0  0  0  0  0  0
   37.3860   29.3150   44.4710 H   0  0  0  0  0  0  0  0  0  0  0  0
   36.7570   27.5060   43.5230 C   0  0  0  0  0  3  0  0  0  0  0  0
   37.1010   26.7220   42.3340 C   0  0  0  0  0  3  0  0  0  0  0  0
   38.4320   27.6490   41.5470 S   0  0  0  0  0  0  0  0  0  0  0  0
  1 13  1  0  0  0  0
  2  1  1  0  0  0  0
  3  1  1  0  0  0  0
  4 10  1  0  0  0  0
  4  9  1  0  0  0  0
  5  4  2  0  0  0  0
  6  5  1  0  0  0  0
  6  7  2  0  0  0  0
  7  8  1  0  0  0  0
  8  9  2  0  0  0  0
  8  1  1  0  0  0  0
 11  5  1  0  0  0  0
 12  6  1  0  0  0  0
 13 14  1  0  0  0  0
 14 15  2  0  0  0  0
 15 16  1  0  0  0  0
 17 15  1  0  0  0  0
 18 17  2  0  0  0  0
 19 18  1  0  0  0  0
 19 14  1  0  0  0  0
M  END
>  <minimizedAffinity>
-3.8537004

$$$$

 OpenBabel03242523313D

 19 20  0  0  0  0  0  0  0  0999 V2000
   38.6530   28.9250   42.9680 C   0  0  0  0  0  0  0  0  0  0  0  0
   39.5200   28.3900   42.5560 H   0  0  0  0  0  0  0  0  0  0  0  0
   38.9560   29.3560   43.9370 H   0  0  0  0  0  0  0  0  0  0  0  0
   36.3260   30.9060   40.8560 C   0  0  0  0  0  0  0  0  0  0  0  0
   37.1680   31.9130   40.4040 C   0  0  0  0  0  0  0  0  0  0  0  0
   38.4930   31.9090   40.8140 C   0  0  0  0  0  0  0  0  0  0  0  0
   38.9470   30.9250   41.6480 N   0  0  0  0  0  0  0  0  0  0  0  0
   38.0950   29.9600   42.0670 C   0  0  0  0  0  0  0  0  0  0  0  0
   36.8060   29.9510   41.6770 N   0  0  0  0  0  0  0  0  0  0  0  0
   35.3010   30.8930   40.5490 H   0  0  0  0  0  0  0  0  0  0  0  0
   36.8120   32.6910   39.7460 H   0  0  0  0  0  0  0  0  0  0  0  0
   39.1950   32.6660   40.4970 H   0  0  0  0  0  0  0  0  0  0  0  0
   37.2830   27.7700   43.3390 S   0  0  0  0  0  0  0  0  0  0  0  0
   37.6640   26.2480   42.5570 C   0  0  0  0  0  0  0  0  0  0  0  0
   36.9430   25.1740   42.1920 C   0  0  0  0  0  0  0  0  0  0  0  0
   35.8830   25.2450   42.4250 H   0  0  0  0  0  0  0  0  0  0  0  0
   37.4770   24.0910   41.5870 C   0  0  0  0  0  3  0  0  0  0  0  0
   38.9200   24.2200   41.3750 C   0  0  0  0  0  3  0  0  0  0  0  0
   39.3380   25.8390   42.0510 S   0  0  0  0  0  0  0  0  0  0  0  0
  1 13  1  0  0  0  0
  1  3  1  0  0  0  0
  2  1  1  0  0  0  0
  4  9  1  0  0  0  0
  5  6  1  0  0  0  0
  5  4  2  0  0  0  0
  6  7  2  0  0  0  0
  7  8  1  0  0  0  0
  8  1  1  0  0  0  0
  9  8  2  0  0  0  0
 10  4  1  0  0  0  0
 11  5  1  0  0  0  0
 12  6  1  0  0  0  0
 14 13  1  0  0  0  0
 15 16  1  0  0  0  0
 15 14  2  0  0  0  0
 17 15  1  0  0  0  0
 18 17  2  0  0  0  0
 18 19  1  0  0  0  0
 19 14  1  0  0  0  0
M  END
>  <minimizedAffinity>
-3.83017755

$$$$

 OpenBabel03242523313D

 19 20  0  0  0  0  0  0  0  0999 V2000
   38.2940   29.1280   43.0200 C   0  0  0  0  0  0  0  0  0  0  0  0
   37.8930   29.4310   43.9960 H   0  0  0  0  0  0  0  0  0  0  0  0
   39.1780   29.7550   42.8130 H   0  0  0  0  0  0  0  0  0  0  0  0
   38.2330   25.5410   42.0600 C   0  0  0  0  0  0  0  0  0  0  0  0
   39.2960   25.0470   42.8030 C   0  0  0  0  0  0  0  0  0  0  0  0
   40.0090   25.9230   43.6090 C   0  0  0  0  0  0  0  0  0  0  0  0
   39.6610   27.2440   43.6590 N   0  0  0  0  0  0  0  0  0  0  0  0
   38.6180   27.6870   42.9180 C   0  0  0  0  0  0  0  0  0  0  0  0
   37.9170   26.8480   42.1310 N   0  0  0  0  0  0  0  0  0  0  0  0
   37.6720   24.8800   41.4330 H   0  0  0  0  0  0  0  0  0  0  0  0
   39.5740   24.0050   42.7670 H   0  0  0  0  0  0  0  0  0  0  0  0
   40.8460   25.5980   44.2110 H   0  0  0  0  0  0  0  0  0  0  0  0
   37.1020   29.4860   41.6790 S   0  0  0  0  0  0  0  0  0  0  0  0
   37.5650   31.0210   40.9710 C   0  0  0  0  0  0  0  0  0  0  0  0
   36.9370   31.9260   40.2010 C   0  0  0  0  0  0  0  0  0  0  0  0
   35.9120   31.6680   39.9490 H   0  0  0  0  0  0  0  0  0  0  0  0
   37.5200   33.0650   39.7690 C   0  0  0  0  0  3  0  0  0  0  0  0
   38.9030   33.2000   40.2310 C   0  0  0  0  0  3  0  0  0  0  0  0
   39.2040   31.7150   41.2090 S   0  0  0  0  0  0  0  0  0  0  0  0
  1  2  1  0  0  0  0
  3  1  1  0  0  0  0
  4  9  2  0  0  0  0
  4  5  1  0  0  0  0
  5  6  2  0  0  0  0
  6  7  1  0  0  0  0
  6 12  1  0  0  0  0
  8  1  1  0  0  0  0
  8  7  2  0  0  0  0
  9  8  1  0  0  0  0
 10  4  1  0  0  0  0
 11  5  1  0  0  0  0
 13  1  1  0  0  0  0
 14 19  1  0  0  0  0
 14 13  1  0  0  0  0
 15 14  2  0  0  0  0
 16 15  1  0  0  0  0
 17 15  1  0  0  0  0
 17 18  2  0  0  0  0
 18 19  1  0  0  0  0
M  END
>  <minimizedAffinity>
-3.70531225

$$$$

 OpenBabel03242523313D

 19 20  0  0  0  0  0  0  0  0999 V2000
   39.0540   28.9930   40.2640 C   0  0  0  0  0  0  0  0  0  0  0  0
   39.8770   29.6740   40.5180 H   0  0  0  0  0  0  0  0  0  0  0  0
   39.4770   28.1660   39.6690 H   0  0  0  0  0  0  0  0  0  0  0  0
   37.5510   28.6800   43.6460 C   0  0  0  0  0  0  0  0  0  0  0  0
   36.8890   27.4650   43.5330 C   0  0  0  0  0  0  0  0  0  0  0  0
   36.9590   26.7770   42.3310 C   0  0  0  0  0  0  0  0  0  0  0  0
   37.6700   27.2980   41.2850 N   0  0  0  0  0  0  0  0  0  0  0  0
   38.3020   28.4860   41.4340 C   0  0  0  0  0  0  0  0  0  0  0  0
   38.2420   29.1660   42.5970 N   0  0  0  0  0  0  0  0  0  0  0  0
   37.5080   29.2240   44.5660 H   0  0  0  0  0  0  0  0  0  0  0  0
   36.3280   27.0500   44.3560 H   0  0  0  0  0  0  0  0  0  0  0  0
   36.4650   25.8270   42.1820 H   0  0  0  0  0  0  0  0  0  0  0  0
   37.8300   29.8160   39.1800 S   0  0  0  0  0  0  0  0  0  0  0  0
   37.8960   31.5310   39.5350 C   0  0  0  0  0  0  0  0  0  0  0  0
   37.1840   32.5990   39.1380 C   0  0  0  0  0  0  0  0  0  0  0  0
   36.3820   32.3700   38.4400 H   0  0  0  0  0  0  0  0  0  0  0  0
   37.4320   33.8570   39.5620 C   0  0  0  0  0  3  0  0  0  0  0  0
   38.5580   33.9230   40.4970 C   0  0  0  0  0  3  0  0  0  0  0  0
   39.1180   32.2170   40.6570 S   0  0  0  0  0  0  0  0  0  0  0  0
  1  2  1  0  0  0  0
  1  8  1  0  0  0  0
  3  1  1  0  0  0  0
  4 10  1  0  0  0  0
  5  4  1  0  0  0  0
  5 11  1  0  0  0  0
  6  5  2  0  0  0  0
  7  8  2  0  0  0  0
  7  6  1  0  0  0  0
  8  9  1  0  0  0  0
  9  4  2  0  0  0  0
 12  6  1  0  0  0  0
 13 14  1  0  0  0  0
 13  1  1  0  0  0  0
 14 19  1  0  0  0  0
 15 14  2  0  0  0  0
 15 17  1  0  0  0  0
 16 15  1  0  0  0  0
 17 18  2  0  0  0  0
 18 19  1  0  0  0  0
M  END
>  <minimizedAffinity>
-3.67949176

$$$$

 OpenBabel03242523313D

 19 20  0  0  0  0  0  0  0  0999 V2000
   36.1130   28.3480   40.6400 C   0  0  0  0  0  0  0  0  0  0  0  0
   35.0280   28.1850   40.6970 H   0  0  0  0  0  0  0  0  0  0  0  0
   36.5380   27.5460   40.0150 H   0  0  0  0  0  0  0  0  0  0  0  0
   37.0300   31.9440   40.4750 C   0  0  0  0  0  0  0  0  0  0  0  0
   37.2080   32.1110   39.1080 C   0  0  0  0  0  0  0  0  0  0  0  0
   37.0170   31.0210   38.2720 C   0  0  0  0  0  0  0  0  0  0  0  0
   36.6620   29.8100   38.7980 N   0  0  0  0  0  0  0  0  0  0  0  0
   36.4990   29.6870   40.1370 C   0  0  0  0  0  0  0  0  0  0  0  0
   36.6800   30.7370   40.9610 N   0  0  0  0  0  0  0  0  0  0  0  0
   37.1720   32.7740   41.1340 H   0  0  0  0  0  0  0  0  0  0  0  0
   37.4880   33.0660   38.6890 H   0  0  0  0  0  0  0  0  0  0  0  0
   37.1410   31.0890   37.2010 H   0  0  0  0  0  0  0  0  0  0  0  0
   36.8930   28.1700   42.2860 S   0  0  0  0  0  0  0  0  0  0  0  0
   37.5810   26.5590   42.3590 C   0  0  0  0  0  0  0  0  0  0  0  0
   37.1280   25.3310   42.0540 C   0  0  0  0  0  0  0  0  0  0  0  0
   36.1090   25.3100   41.6750 H   0  0  0  0  0  0  0  0  0  0  0  0
   37.8660   24.2100   42.2010 C   0  0  0  0  0  3  0  0  0  0  0  0
   39.2050   24.4820   42.7270 C   0  0  0  0  0  3  0  0  0  0  0  0
   39.2530   26.2720   42.9450 S   0  0  0  0  0  0  0  0  0  0  0  0
  1  2  1  0  0  0  0
  1 13  1  0  0  0  0
  3  1  1  0  0  0  0
  4  9  1  0  0  0  0
  4 10  1  0  0  0  0
  5  4  2  0  0  0  0
  6  7  2  0  0  0  0
  6  5  1  0  0  0  0
  7  8  1  0  0  0  0
  8  1  1  0  0  0  0
  8  9  2  0  0  0  0
 11  5  1  0  0  0  0
 12  6  1  0  0  0  0
 13 14  1  0  0  0  0
 14 19  1  0  0  0  0
 15 17  1  0  0  0  0
 15 14  2  0  0  0  0
 16 15  1  0  0  0  0
 17 18  2  0  0  0  0
 18 19  1  0  0  0  0
M  END
>  <minimizedAffinity>
-3.6391387

$$$$

 OpenBabel03242523313D

 19 20  0  0  0  0  0  0  0  0999 V2000
   36.5740   28.3360   39.4340 C   0  0  0  0  0  0  0  0  0  0  0  0
   37.5020   28.6750   38.9540 H   0  0  0  0  0  0  0  0  0  0  0  0
   35.8450   28.1190   38.6360 H   0  0  0  0  0  0  0  0  0  0  0  0
   36.8420   24.8680   40.7370 C   0  0  0  0  0  0  0  0  0  0  0  0
   37.0810   25.1060   42.0830 C   0  0  0  0  0  0  0  0  0  0  0  0
   37.1470   26.4190   42.5270 C   0  0  0  0  0  0  0  0  0  0  0  0
   36.9780   27.4480   41.6430 N   0  0  0  0  0  0  0  0  0  0  0  0
   36.7480   27.1750   40.3370 C   0  0  0  0  0  0  0  0  0  0  0  0
   36.6810   25.9050   39.8920 N   0  0  0  0  0  0  0  0  0  0  0  0
   36.7880   23.8620   40.3780 H   0  0  0  0  0  0  0  0  0  0  0  0
   37.2140   24.2960   42.7840 H   0  0  0  0  0  0  0  0  0  0  0  0
   37.3290   26.6680   43.5630 H   0  0  0  0  0  0  0  0  0  0  0  0
   35.8310   29.6690   40.4440 S   0  0  0  0  0  0  0  0  0  0  0  0
   36.9720   31.0000   40.4630 C   0  0  0  0  0  0  0  0  0  0  0  0
   36.9740   32.2410   39.9480 C   0  0  0  0  0  0  0  0  0  0  0  0
   36.0770   32.4980   39.3910 H   0  0  0  0  0  0  0  0  0  0  0  0
   37.9990   33.1070   40.1010 C   0  0  0  0  0  3  0  0  0  0  0  0
   39.0990   32.5440   40.8870 C   0  0  0  0  0  3  0  0  0  0  0  0
   38.5520   30.8770   41.3060 S   0  0  0  0  0  0  0  0  0  0  0  0
  1  8  1  0  0  0  0
  1 13  1  0  0  0  0
  2  1  1  0  0  0  0
  3  1  1  0  0  0  0
  4  5  1  0  0  0  0
  5  6  2  0  0  0  0
  5 11  1  0  0  0  0
  6 12  1  0  0  0  0
  7  6  1  0  0  0  0
  8  7  2  0  0  0  0
  9  8  1  0  0  0  0
  9  4  2  0  0  0  0
 10  4  1  0  0  0  0
 13 14  1  0  0  0  0
 14 19  1  0  0  0  0
 15 17  1  0  0  0  0
 15 14  2  0  0  0  0
 16 15  1  0  0  0  0
 17 18  2  0  0  0  0
 18 19  1  0  0  0  0
M  END
>  <minimizedAffinity>
-3.4625895

$$$$

 OpenBabel03242523313D

 19 20  0  0  0  0  0  0  0  0999 V2000
   37.2530   27.1810   42.3380 C   0  0  0  0  0  0  0  0  0  0  0  0
   37.0110   27.0280   41.2770 H   0  0  0  0  0  0  0  0  0  0  0  0
   36.4090   26.7900   42.9310 H   0  0  0  0  0  0  0  0  0  0  0  0
   39.9570   24.7340   43.0440 C   0  0  0  0  0  0  0  0  0  0  0  0
   40.9370   25.5640   43.5710 C   0  0  0  0  0  0  0  0  0  0  0  0
   40.6730   26.9210   43.6800 C   0  0  0  0  0  0  0  0  0  0  0  0
   39.4670   27.4190   43.2710 N   0  0  0  0  0  0  0  0  0  0  0  0
   38.5370   26.5770   42.7610 C   0  0  0  0  0  0  0  0  0  0  0  0
   38.7790   25.2560   42.6490 N   0  0  0  0  0  0  0  0  0  0  0  0
   40.1430   23.6850   42.9530 H   0  0  0  0  0  0  0  0  0  0  0  0
   41.8900   25.1750   43.8950 H   0  0  0  0  0  0  0  0  0  0  0  0
   41.3960   27.6170   44.0820 H   0  0  0  0  0  0  0  0  0  0  0  0
   37.3630   28.9630   42.7370 S   0  0  0  0  0  0  0  0  0  0  0  0
   37.2350   29.8400   41.2240 C   0  0  0  0  0  0  0  0  0  0  0  0
   36.7750   31.0560   40.8820 C   0  0  0  0  0  0  0  0  0  0  0  0
   36.3930   31.6430   41.7120 H   0  0  0  0  0  0  0  0  0  0  0  0
   36.7820   31.5210   39.6130 C   0  0  0  0  0  3  0  0  0  0  0  0
   37.3420   30.5580   38.6630 C   0  0  0  0  0  3  0  0  0  0  0  0
   37.7850   29.1290   39.6700 S   0  0  0  0  0  0  0  0  0  0  0  0
  1 13  1  0  0  0  0
  1  8  1  0  0  0  0
  1  3  1  0  0  0  0
  2  1  1  0  0  0  0
  4  5  1  0  0  0  0
  5  6  2  0  0  0  0
  5 11  1  0  0  0  0
  6 12  1  0  0  0  0
  7  6  1  0  0  0  0
  8  7  2  0  0  0  0
  9  8  1  0  0  0  0
  9  4  2  0  0  0  0
 10  4  1  0  0  0  0
 14 13  1  0  0  0  0
 15 14  2  0  0  0  0
 15 16  1  0  0  0  0
 17 15  1  0  0  0  0
 18 17  2  0  0  0  0
 18 19  1  0  0  0  0
 19 14  1  0  0  0  0
M  END
>  <minimizedAffinity>
-3.41552496

$$$$
