
 OpenBabel03242523303D

 19 20  0  0  0  0  0  0  0  0999 V2000
   45.5000   33.2180   46.8570 C   0  0  0  0  0  0  0  0  0  0  0  0
   46.0500   33.6620   47.6980 H   0  0  0  0  0  0  0  0  0  0  0  0
   44.4970   32.9430   47.2240 H   0  0  0  0  0  0  0  0  0  0  0  0
   44.5860   35.9590   44.5230 C   0  0  0  0  0  0  0  0  0  0  0  0
   45.3380   35.6200   43.4060 C   0  0  0  0  0  0  0  0  0  0  0  0
   46.1320   34.4840   43.4570 C   0  0  0  0  0  0  0  0  0  0  0  0
   46.1650   33.7230   44.5920 N   0  0  0  0  0  0  0  0  0  0  0  0
   45.4180   34.0870   45.6610 C   0  0  0  0  0  0  0  0  0  0  0  0
   44.6420   35.1880   45.6260 N   0  0  0  0  0  0  0  0  0  0  0  0
   43.9690   36.8320   44.5010 H   0  0  0  0  0  0  0  0  0  0  0  0
   45.3140   36.2180   42.5080 H   0  0  0  0  0  0  0  0  0  0  0  0
   46.7380   34.1680   42.6190 H   0  0  0  0  0  0  0  0  0  0  0  0
   46.2800   31.6560   46.3100 S   0  0  0  0  0  0  0  0  0  0  0  0
   47.4820   31.2300   47.5130 C   0  0  0  0  0  0  0  0  0  0  0  0
   48.0880   31.8980   48.5100 C   0  0  0  0  0  0  0  0  0  0  0  0
   47.7790   32.9350   48.6100 H   0  0  0  0  0  0  0  0  0  0  0  0
   49.0080   31.3390   49.3260 C   0  0  0  0  0  3  0  0  0  0  0  0
   49.2670   29.9340   49.0030 C   0  0  0  0  0  3  0  0  0  0  0  0
   48.1890   29.5830   47.6010 S   0  0  0  0  0  0  0  0  0  0  0  0
  1  3  1  0  0  0  0
  1  2  1  0  0  0  0
  4  9  1  0  0  0  0
  5  6  1  0  0  0  0
  5  4  2  0  0  0  0
  6  7  2  0  0  0  0
  7  8  1  0  0  0  0
  8  1  1  0  0  0  0
  9  8  2  0  0  0  0
 10  4  1  0  0  0  0
 11  5  1  0  0  0  0
 12  6  1  0  0  0  0
 13  1  1  0  0  0  0
 13 14  1  0  0  0  0
 14 19  1  0  0  0  0
 14 15  2  0  0  0  0
 15 16  1  0  0  0  0
 15 17  1  0  0  0  0
 18 17  2  0  0  0  0
 19 18  1  0  0  0  0
M  END
>  <minimizedAffinity>
-3.9751966

>  <minimizedRMSD>
1.38253593

$$$$
