
 OpenBabel03242523303D

 19 20  0  0  0  0  0  0  0  0999 V2000
   45.2440   34.4440   45.1910 C   0  0  0  0  0  0  0  0  0  0  0  0
   45.5920   35.3690   45.6700 H   0  0  0  0  0  0  0  0  0  0  0  0
   44.3600   34.0920   45.7480 H   0  0  0  0  0  0  0  0  0  0  0  0
   43.8560   35.6210   41.9530 C   0  0  0  0  0  0  0  0  0  0  0  0
   44.4790   34.7550   41.0650 C   0  0  0  0  0  0  0  0  0  0  0  0
   45.3480   33.7970   41.5660 C   0  0  0  0  0  0  0  0  0  0  0  0
   45.5770   33.7190   42.9120 N   0  0  0  0  0  0  0  0  0  0  0  0
   44.9510   34.5830   43.7460 C   0  0  0  0  0  0  0  0  0  0  0  0
   44.1050   35.5180   43.2730 N   0  0  0  0  0  0  0  0  0  0  0  0
   43.1830   36.3660   41.5830 H   0  0  0  0  0  0  0  0  0  0  0  0
   44.3000   34.8130   40.0020 H   0  0  0  0  0  0  0  0  0  0  0  0
   45.8620   33.0950   40.9250 H   0  0  0  0  0  0  0  0  0  0  0  0
   46.4930   33.1150   45.3400 S   0  0  0  0  0  0  0  0  0  0  0  0
   46.2880   32.3880   46.9210 C   0  0  0  0  0  0  0  0  0  0  0  0
   45.3750   32.5150   47.9010 C   0  0  0  0  0  0  0  0  0  0  0  0
   44.5780   33.2190   47.6830 H   0  0  0  0  0  0  0  0  0  0  0  0
   45.4340   31.8290   49.0630 C   0  0  0  0  0  3  0  0  0  0  0  0
   46.5950   30.9400   49.1340 C   0  0  0  0  0  3  0  0  0  0  0  0
   47.4500   31.1810   47.5650 S   0  0  0  0  0  0  0  0  0  0  0  0
  1 13  1  0  0  0  0
  1  2  1  0  0  0  0
  1  3  1  0  0  0  0
  4  9  1  0  0  0  0
  5  6  1  0  0  0  0
  5  4  2  0  0  0  0
  6  7  2  0  0  0  0
  7  8  1  0  0  0  0
  8  1  1  0  0  0  0
  9  8  2  0  0  0  0
 10  4  1  0  0  0  0
 11  5  1  0  0  0  0
 12  6  1  0  0  0  0
 13 14  1  0  0  0  0
 14 19  1  0  0  0  0
 14 15  2  0  0  0  0
 15 17  1  0  0  0  0
 16 15  1  0  0  0  0
 17 18  2  0  0  0  0
 19 18  1  0  0  0  0
M  END
>  <minimizedAffinity>
-3.73390579

>  <minimizedRMSD>
2.29441905

$$$$
