
 OpenBabel03242523303D

 19 20  0  0  0  0  0  0  0  0999 V2000
   45.8800   33.0500   46.2950 C   0  0  0  0  0  0  0  0  0  0  0  0
   46.3290   33.4340   47.2210 H   0  0  0  0  0  0  0  0  0  0  0  0
   44.9610   32.5050   46.5720 H   0  0  0  0  0  0  0  0  0  0  0  0
   44.5060   36.0280   44.5510 C   0  0  0  0  0  0  0  0  0  0  0  0
   45.1700   35.9540   43.3340 C   0  0  0  0  0  0  0  0  0  0  0  0
   46.0610   34.9120   43.1220 C   0  0  0  0  0  0  0  0  0  0  0  0
   46.2720   33.9830   44.1030 N   0  0  0  0  0  0  0  0  0  0  0  0
   45.6060   34.0900   45.2770 C   0  0  0  0  0  0  0  0  0  0  0  0
   44.7370   35.0960   45.4970 N   0  0  0  0  0  0  0  0  0  0  0  0
   43.8160   36.8250   44.7310 H   0  0  0  0  0  0  0  0  0  0  0  0
   45.0060   36.6860   42.5580 H   0  0  0  0  0  0  0  0  0  0  0  0
   46.6070   34.8020   42.1960 H   0  0  0  0  0  0  0  0  0  0  0  0
   46.9710   31.8180   45.4950 S   0  0  0  0  0  0  0  0  0  0  0  0
   46.7110   30.2890   46.3120 C   0  0  0  0  0  0  0  0  0  0  0  0
   47.5020   29.2530   46.6380 C   0  0  0  0  0  0  0  0  0  0  0  0
   48.5390   29.3660   46.3350 H   0  0  0  0  0  0  0  0  0  0  0  0
   47.0570   28.1550   47.2860 C   0  0  0  0  0  3  0  0  0  0  0  0
   45.6260   28.2230   47.5920 C   0  0  0  0  0  3  0  0  0  0  0  0
   45.0940   29.8140   46.9330 S   0  0  0  0  0  0  0  0  0  0  0  0
  1  3  1  0  0  0  0
  1  2  1  0  0  0  0
  4 10  1  0  0  0  0
  4  9  1  0  0  0  0
  5  4  2  0  0  0  0
  6  5  1  0  0  0  0
  6  7  2  0  0  0  0
  7  8  1  0  0  0  0
  8  9  2  0  0  0  0
  8  1  1  0  0  0  0
 11  5  1  0  0  0  0
 12  6  1  0  0  0  0
 13  1  1  0  0  0  0
 13 14  1  0  0  0  0
 14 15  2  0  0  0  0
 14 19  1  0  0  0  0
 15 17  1  0  0  0  0
 16 15  1  0  0  0  0
 17 18  2  0  0  0  0
 19 18  1  0  0  0  0
M  END
>  <minimizedAffinity>
-3.5659771

>  <minimizedRMSD>
0.758847892

$$$$
