
 OpenBabel03242523303D

 19 20  0  0  0  0  0  0  0  0999 V2000
   45.5290   33.1970   46.8690 C   0  0  0  0  0  0  0  0  0  0  0  0
   46.0950   33.6350   47.7020 H   0  0  0  0  0  0  0  0  0  0  0  0
   44.5300   32.9250   47.2510 H   0  0  0  0  0  0  0  0  0  0  0  0
   44.5760   35.9380   44.5510 C   0  0  0  0  0  0  0  0  0  0  0  0
   45.3240   35.6100   43.4280 C   0  0  0  0  0  0  0  0  0  0  0  0
   46.1290   34.4810   43.4700 C   0  0  0  0  0  0  0  0  0  0  0  0
   46.1760   33.7160   44.6020 N   0  0  0  0  0  0  0  0  0  0  0  0
   45.4320   34.0690   45.6770 C   0  0  0  0  0  0  0  0  0  0  0  0
   44.6450   35.1630   45.6510 N   0  0  0  0  0  0  0  0  0  0  0  0
   43.9490   36.8050   44.5360 H   0  0  0  0  0  0  0  0  0  0  0  0
   45.2890   36.2110   42.5330 H   0  0  0  0  0  0  0  0  0  0  0  0
   46.7340   34.1750   42.6280 H   0  0  0  0  0  0  0  0  0  0  0  0
   46.2920   31.6320   46.3050 S   0  0  0  0  0  0  0  0  0  0  0  0
   47.4790   31.1720   47.5100 C   0  0  0  0  0  0  0  0  0  0  0  0
   48.0530   31.8040   48.5490 C   0  0  0  0  0  0  0  0  0  0  0  0
   47.7210   32.8280   48.6910 H   0  0  0  0  0  0  0  0  0  0  0  0
   48.9670   31.2230   49.3570 C   0  0  0  0  0  3  0  0  0  0  0  0
   49.2580   29.8400   48.9740 C   0  0  0  0  0  3  0  0  0  0  0  0
   48.2140   29.5350   47.5370 S   0  0  0  0  0  0  0  0  0  0  0  0
  1  3  1  0  0  0  0
  1  2  1  0  0  0  0
  4  9  1  0  0  0  0
  5  6  1  0  0  0  0
  5  4  2  0  0  0  0
  6  7  2  0  0  0  0
  7  8  1  0  0  0  0
  8  1  1  0  0  0  0
  9  8  2  0  0  0  0
 10  4  1  0  0  0  0
 11  5  1  0  0  0  0
 12  6  1  0  0  0  0
 13  1  1  0  0  0  0
 13 14  1  0  0  0  0
 14 19  1  0  0  0  0
 14 15  2  0  0  0  0
 15 16  1  0  0  0  0
 15 17  1  0  0  0  0
 18 17  2  0  0  0  0
 19 18  1  0  0  0  0
M  END
>  <minimizedAffinity>
-3.97171903

>  <minimizedRMSD>
1.33911347

$$$$
