
 OpenBabel03242523303D

 19 20  0  0  0  0  0  0  0  0999 V2000
   45.6500   33.0760   46.8450 C   0  0  0  0  0  0  0  0  0  0  0  0
   46.1750   33.5240   47.6990 H   0  0  0  0  0  0  0  0  0  0  0  0
   44.6700   32.7210   47.2040 H   0  0  0  0  0  0  0  0  0  0  0  0
   44.5670   35.8560   44.6310 C   0  0  0  0  0  0  0  0  0  0  0  0
   45.3020   35.5860   43.4850 C   0  0  0  0  0  0  0  0  0  0  0  0
   46.1420   34.4820   43.4760 C   0  0  0  0  0  0  0  0  0  0  0  0
   46.2350   33.6840   44.5820 N   0  0  0  0  0  0  0  0  0  0  0  0
   45.5030   33.9810   45.6820 C   0  0  0  0  0  0  0  0  0  0  0  0
   44.6830   35.0500   45.7050 N   0  0  0  0  0  0  0  0  0  0  0  0
   43.9150   36.7030   44.6560 H   0  0  0  0  0  0  0  0  0  0  0  0
   45.2310   36.2130   42.6090 H   0  0  0  0  0  0  0  0  0  0  0  0
   46.7390   34.2200   42.6130 H   0  0  0  0  0  0  0  0  0  0  0  0
   46.5300   31.5920   46.2360 S   0  0  0  0  0  0  0  0  0  0  0  0
   47.6570   31.1100   47.4900 C   0  0  0  0  0  0  0  0  0  0  0  0
   48.1050   31.6850   48.6190 C   0  0  0  0  0  0  0  0  0  0  0  0
   47.6870   32.6670   48.8190 H   0  0  0  0  0  0  0  0  0  0  0  0
   48.9990   31.1000   49.4460 C   0  0  0  0  0  3  0  0  0  0  0  0
   49.4210   29.7790   48.9740 C   0  0  0  0  0  3  0  0  0  0  0  0
   48.5110   29.5310   47.4380 S   0  0  0  0  0  0  0  0  0  0  0  0
  1  3  1  0  0  0  0
  1  2  1  0  0  0  0
  4 10  1  0  0  0  0
  4  9  1  0  0  0  0
  5  4  2  0  0  0  0
  6  5  1  0  0  0  0
  6  7  2  0  0  0  0
  7  8  1  0  0  0  0
  8  9  2  0  0  0  0
  8  1  1  0  0  0  0
 11  5  1  0  0  0  0
 12  6  1  0  0  0  0
 13  1  1  0  0  0  0
 13 14  1  0  0  0  0
 14 15  2  0  0  0  0
 15 16  1  0  0  0  0
 15 17  1  0  0  0  0
 18 17  2  0  0  0  0
 19 14  1  0  0  0  0
 19 18  1  0  0  0  0
M  END
>  <minimizedAffinity>
-3.95979929

>  <minimizedRMSD>
1.3509798

$$$$
