
 OpenBabel03242516423D

 34 36  0  0  0  0  0  0  0  0999 V2000
   38.7020   32.8410   39.7200 C   0  0  0  0  0  0  0  0  0  0  0  0
   38.6930   33.4270   38.7720 H   0  0  0  0  0  0  0  0  0  0  0  0
   39.0460   31.8110   39.4130 H   0  0  0  0  0  0  0  0  0  0  0  0
   39.6140   33.3810   40.7650 C   0  0  0  0  0  0  0  0  0  0  0  0
   39.2340   34.3960   41.0300 H   0  0  0  0  0  0  0  0  0  0  0  0
   39.6380   32.7990   41.7020 H   0  0  0  0  0  0  0  0  0  0  0  0
   42.3140   33.9960   38.2050 C   0  0  0  0  0  0  0  0  0  0  0  0
   41.0490   33.7880   38.7950 C   0  0  0  0  0  0  0  0  0  0  0  0
   40.9580   33.5980   40.1700 C   0  0  0  0  0  0  0  0  0  0  0  0
   42.0960   33.6200   40.8890 N   0  0  0  0  0  0  0  0  0  0  0  0
   43.2960   33.8200   40.3080 C   0  0  0  0  0  0  0  0  0  0  0  0
   43.4140   34.0060   38.9830 N   0  0  0  0  0  0  0  0  0  0  0  0
   42.4200   34.1900   36.8150 N   0  0  0  0  0  0  0  0  0  0  0  0
   40.1390   33.7720   38.2070 H   0  0  0  0  0  0  0  0  0  0  0  0
   44.1850   33.8290   40.9360 H   0  0  0  0  0  0  0  0  0  0  0  0
   41.6640   33.8110   36.2010 H   0  0  0  0  0  0  0  0  0  0  0  0
   43.1960   34.6820   36.3600 H   0  0  0  0  0  0  0  0  0  0  0  0
   37.4180   32.6880   40.2040 O   0  0  0  0  0  0  0  0  0  0  0  0
   37.2730   30.1820   39.4880 O   0  0  0  0  0  0  0  0  0  0  0  0
   37.0990   31.0900   40.6830 P   0  0  2  0  0  0  0  0  0  0  0  0
   35.5300   31.0550   41.2820 O   0  0  0  0  0  0  0  0  0  0  0  0
   34.9090   31.5020   40.6330 H   0  0  0  0  0  0  0  0  0  0  0  0
   38.1400   30.6950   41.9490 O   0  0  0  0  0  0  0  0  0  0  0  0
   38.4020   29.4590   42.4710 C   0  0  0  0  0  0  0  0  0  0  0  0
   37.4560   28.4980   42.7780 C   0  0  0  0  0  0  0  0  0  0  0  0
   36.4200   28.7450   42.5860 H   0  0  0  0  0  0  0  0  0  0  0  0
   37.8800   27.2780   43.3080 C   0  0  0  0  0  3  0  0  0  0  0  0
   39.2170   27.0580   43.5150 C   0  0  0  0  0  3  0  0  0  0  0  0
   40.1790   28.0000   43.2180 C   0  0  0  0  0  0  0  0  0  0  0  0
   41.5140   27.7310   43.4450 C   0  0  0  0  0  3  0  0  0  0  0  0
   42.4680   28.6630   43.1510 C   0  0  0  0  0  3  0  0  0  0  0  0
   42.0810   29.8750   42.6270 C   0  0  0  0  0  3  0  0  0  0  0  0
   40.7510   30.1590   42.3960 C   0  0  0  0  0  3  0  0  0  0  0  0
   39.7610   29.2180   42.6890 C   0  0  0  0  0  0  0  0  0  0  0  0
  1 18  1  0  0  0  0
  1  4  1  0  0  0  0
  2  1  1  0  0  0  0
  3  1  1  0  0  0  0
  4  5  1  0  0  0  0
  4  6  1  0  0  0  0
  7  8  2  0  0  0  0
  7 12  1  0  0  0  0
  8  9  1  0  0  0  0
  9  4  1  0  0  0  0
  9 10  2  0  0  0  0
 11 10  1  0  0  0  0
 11 15  1  0  0  0  0
 12 11  2  0  0  0  0
 13  7  1  0  0  0  0
 14  8  1  0  0  0  0
 16 13  1  0  0  0  0
 17 13  1  0  0  0  0
 18 20  1  0  0  0  0
 20 19  2  6  0  0  0
 20 21  1  0  0  0  0
 20 23  1  0  0  0  0
 22 21  1  0  0  0  0
 23 24  1  0  0  0  0
 24 34  2  0  0  0  0
 24 25  1  0  0  0  0
 25 27  2  0  0  0  0
 26 25  1  0  0  0  0
 27 28  1  0  0  0  0
 29 30  1  0  0  0  0
 29 28  2  0  0  0  0
 31 30  2  0  0  0  0
 32 31  1  0  0  0  0
 33 32  2  0  0  0  0
 33 34  1  0  0  0  0
 34 29  1  0  0  0  0
M  END
>  <minimizedAffinity>
-6.40194798

$$$$

 OpenBabel03242516423D

 34 36  0  0  0  0  0  0  0  0999 V2000
   36.5230   30.3040   38.2970 C   0  0  0  0  0  0  0  0  0  0  0  0
   35.7390   31.0130   38.6500 H   0  0  0  0  0  0  0  0  0  0  0  0
   36.0660   29.8030   37.3950 H   0  0  0  0  0  0  0  0  0  0  0  0
   37.8060   30.9530   37.9100 C   0  0  0  0  0  0  0  0  0  0  0  0
   38.5910   30.1600   37.9490 H   0  0  0  0  0  0  0  0  0  0  0  0
   37.8250   31.3640   36.8870 H   0  0  0  0  0  0  0  0  0  0  0  0
   39.6900   32.6180   40.7200 C   0  0  0  0  0  0  0  0  0  0  0  0
   39.3130   31.6930   39.7230 C   0  0  0  0  0  0  0  0  0  0  0  0
   38.1820   31.9430   38.9520 C   0  0  0  0  0  0  0  0  0  0  0  0
   37.4870   33.0700   39.1930 N   0  0  0  0  0  0  0  0  0  0  0  0
   37.8630   33.9410   40.1500 C   0  0  0  0  0  0  0  0  0  0  0  0
   38.9500   33.7270   40.9100 N   0  0  0  0  0  0  0  0  0  0  0  0
   40.8320   32.3780   41.5070 N   0  0  0  0  0  0  0  0  0  0  0  0
   39.8790   30.7880   39.5370 H   0  0  0  0  0  0  0  0  0  0  0  0
   37.2650   34.8380   40.3030 H   0  0  0  0  0  0  0  0  0  0  0  0
   41.1590   31.3920   41.6240 H   0  0  0  0  0  0  0  0  0  0  0  0
   41.3700   33.1120   41.9790 H   0  0  0  0  0  0  0  0  0  0  0  0
   36.7260   29.3070   39.2300 O   0  0  0  0  0  0  0  0  0  0  0  0
   34.2750   29.0160   40.0810 O   0  0  0  0  0  0  0  0  0  0  0  0
   35.6540   29.4290   40.5420 P   0  0  2  0  0  0  0  0  0  0  0  0
   35.6940   31.0230   41.0700 O   0  0  0  0  0  0  0  0  0  0  0  0
   35.5800   31.6420   40.2890 H   0  0  0  0  0  0  0  0  0  0  0  0
   36.2300   28.4590   41.7950 O   0  0  0  0  0  0  0  0  0  0  0  0
   37.5240   28.2860   42.2010 C   0  0  0  0  0  0  0  0  0  0  0  0
   38.4160   29.2990   42.4980 C   0  0  0  0  0  0  0  0  0  0  0  0
   38.0600   30.3160   42.4020 H   0  0  0  0  0  0  0  0  0  0  0  0
   39.7090   28.9630   42.9030 C   0  0  0  0  0  3  0  0  0  0  0  0
   40.0680   27.6430   42.9960 C   0  0  0  0  0  3  0  0  0  0  0  0
   39.1970   26.6150   42.7050 C   0  0  0  0  0  0  0  0  0  0  0  0
   39.6050   25.3000   42.8130 C   0  0  0  0  0  3  0  0  0  0  0  0
   38.7430   24.2810   42.5260 C   0  0  0  0  0  3  0  0  0  0  0  0
   37.4620   24.5810   42.1250 C   0  0  0  0  0  3  0  0  0  0  0  0
   37.0390   25.8890   42.0110 C   0  0  0  0  0  3  0  0  0  0  0  0
   37.9060   26.9450   42.3010 C   0  0  0  0  0  0  0  0  0  0  0  0
  1  2  1  0  0  0  0
  1 18  1  0  0  0  0
  3  1  1  0  0  0  0
  4  5  1  0  0  0  0
  4  1  1  0  0  0  0
  4  9  1  0  0  0  0
  6  4  1  0  0  0  0
  7 12  1  0  0  0  0
  7 13  1  0  0  0  0
  8  7  2  0  0  0  0
  9 10  2  0  0  0  0
  9  8  1  0  0  0  0
 10 11  1  0  0  0  0
 11 15  1  0  0  0  0
 11 12  2  0  0  0  0
 13 16  1  0  0  0  0
 13 17  1  0  0  0  0
 14  8  1  0  0  0  0
 18 20  1  0  0  0  0
 20 19  2  6  0  0  0
 20 21  1  0  0  0  0
 20 23  1  0  0  0  0
 22 21  1  0  0  0  0
 23 24  1  0  0  0  0
 24 34  2  0  0  0  0
 24 25  1  0  0  0  0
 25 27  2  0  0  0  0
 26 25  1  0  0  0  0
 27 28  1  0  0  0  0
 29 30  1  0  0  0  0
 29 28  2  0  0  0  0
 31 30  2  0  0  0  0
 32 31  1  0  0  0  0
 33 32  2  0  0  0  0
 33 34  1  0  0  0  0
 34 29  1  0  0  0  0
M  END
>  <minimizedAffinity>
-6.22358561

$$$$

 OpenBabel03242516423D

 34 36  0  0  0  0  0  0  0  0999 V2000
   36.9730   30.0880   38.6100 C   0  0  0  0  0  0  0  0  0  0  0  0
   35.9870   30.5720   38.8000 H   0  0  0  0  0  0  0  0  0  0  0  0
   36.7260   29.1710   38.0020 H   0  0  0  0  0  0  0  0  0  0  0  0
   37.9390   30.9380   37.8600 C   0  0  0  0  0  0  0  0  0  0  0  0
   38.8840   30.3500   37.7750 H   0  0  0  0  0  0  0  0  0  0  0  0
   37.6300   31.1890   36.8320 H   0  0  0  0  0  0  0  0  0  0  0  0
   39.9590   33.4700   39.7900 C   0  0  0  0  0  0  0  0  0  0  0  0
   39.6120   32.3470   39.0090 C   0  0  0  0  0  0  0  0  0  0  0  0
   38.2780   32.1280   38.6830 C   0  0  0  0  0  0  0  0  0  0  0  0
   37.3620   33.0060   39.1330 N   0  0  0  0  0  0  0  0  0  0  0  0
   37.7130   34.0720   39.8790 C   0  0  0  0  0  0  0  0  0  0  0  0
   38.9930   34.3100   40.2080 N   0  0  0  0  0  0  0  0  0  0  0  0
   41.3050   33.7050   40.1260 N   0  0  0  0  0  0  0  0  0  0  0  0
   40.3570   31.6460   38.6520 H   0  0  0  0  0  0  0  0  0  0  0  0
   36.9330   34.7520   40.2160 H   0  0  0  0  0  0  0  0  0  0  0  0
   41.9640   32.8940   40.1380 H   0  0  0  0  0  0  0  0  0  0  0  0
   41.6870   34.6260   40.3630 H   0  0  0  0  0  0  0  0  0  0  0  0
   37.5190   29.6300   39.7930 O   0  0  0  0  0  0  0  0  0  0  0  0
   35.3500   28.7030   40.9100 O   0  0  0  0  0  0  0  0  0  0  0  0
   36.4290   29.7450   41.0900 P   0  0  2  0  0  0  0  0  0  0  0  0
   35.8100   31.3060   41.0810 O   0  0  0  0  0  0  0  0  0  0  0  0
   35.4950   31.5410   40.1580 H   0  0  0  0  0  0  0  0  0  0  0  0
   37.2870   29.5420   42.5280 O   0  0  0  0  0  0  0  0  0  0  0  0
   38.2750   28.6370   42.8010 C   0  0  0  0  0  0  0  0  0  0  0  0
   38.0850   27.2930   43.0600 C   0  0  0  0  0  0  0  0  0  0  0  0
   37.0670   26.9250   43.0450 H   0  0  0  0  0  0  0  0  0  0  0  0
   39.1980   26.4920   43.3220 C   0  0  0  0  0  3  0  0  0  0  0  0
   40.4500   27.0500   43.3190 C   0  0  0  0  0  3  0  0  0  0  0  0
   40.6650   28.3880   43.0630 C   0  0  0  0  0  0  0  0  0  0  0  0
   41.9460   28.9040   43.0710 C   0  0  0  0  0  3  0  0  0  0  0  0
   42.1600   30.2290   42.8180 C   0  0  0  0  0  3  0  0  0  0  0  0
   41.0830   31.0430   42.5550 C   0  0  0  0  0  3  0  0  0  0  0  0
   39.7980   30.5430   42.5450 C   0  0  0  0  0  3  0  0  0  0  0  0
   39.5580   29.1910   42.8010 C   0  0  0  0  0  0  0  0  0  0  0  0
  1  2  1  0  0  0  0
  1 18  1  0  0  0  0
  3  1  1  0  0  0  0
  4  1  1  0  0  0  0
  4  9  1  0  0  0  0
  5  4  1  0  0  0  0
  6  4  1  0  0  0  0
  7 13  1  0  0  0  0
  7 12  1  0  0  0  0
  8  7  2  0  0  0  0
  9  8  1  0  0  0  0
  9 10  2  0  0  0  0
 10 11  1  0  0  0  0
 11 12  2  0  0  0  0
 11 15  1  0  0  0  0
 13 16  1  0  0  0  0
 13 17  1  0  0  0  0
 14  8  1  0  0  0  0
 18 20  1  0  0  0  0
 20 19  2  6  0  0  0
 20 23  1  0  0  0  0
 21 20  1  0  0  0  0
 22 21  1  0  0  0  0
 23 24  1  0  0  0  0
 24 25  1  0  0  0  0
 25 27  2  0  0  0  0
 26 25  1  0  0  0  0
 28 27  1  0  0  0  0
 29 30  1  0  0  0  0
 29 28  2  0  0  0  0
 31 30  2  0  0  0  0
 32 31  1  0  0  0  0
 33 32  2  0  0  0  0
 33 34  1  0  0  0  0
 34 24  2  0  0  0  0
 34 29  1  0  0  0  0
M  END
>  <minimizedAffinity>
-5.89417124

$$$$

 OpenBabel03242516423D

 34 36  0  0  0  0  0  0  0  0999 V2000
   41.0290   33.0930   40.1530 C   0  0  0  0  0  0  0  0  0  0  0  0
   40.8240   32.1190   39.6510 H   0  0  0  0  0  0  0  0  0  0  0  0
   41.4980   32.8100   41.1390 H   0  0  0  0  0  0  0  0  0  0  0  0
   41.9520   33.9880   39.4010 C   0  0  0  0  0  0  0  0  0  0  0  0
   41.3150   34.6410   38.7600 H   0  0  0  0  0  0  0  0  0  0  0  0
   42.5580   34.6600   40.0310 H   0  0  0  0  0  0  0  0  0  0  0  0
   42.8830   31.3310   36.8920 C   0  0  0  0  0  0  0  0  0  0  0  0
   42.1360   32.1240   37.7890 C   0  0  0  0  0  0  0  0  0  0  0  0
   42.7620   33.1680   38.4620 C   0  0  0  0  0  0  0  0  0  0  0  0
   44.0700   33.3810   38.2260 N   0  0  0  0  0  0  0  0  0  0  0  0
   44.7670   32.6130   37.3660 C   0  0  0  0  0  0  0  0  0  0  0  0
   44.1900   31.5980   36.7020 N   0  0  0  0  0  0  0  0  0  0  0  0
   42.2630   30.2710   36.2040 N   0  0  0  0  0  0  0  0  0  0  0  0
   41.0830   31.9440   37.9710 H   0  0  0  0  0  0  0  0  0  0  0  0
   45.8230   32.8280   37.2120 H   0  0  0  0  0  0  0  0  0  0  0  0
   41.4070   29.8410   36.6200 H   0  0  0  0  0  0  0  0  0  0  0  0
   42.5990   29.8890   35.3140 H   0  0  0  0  0  0  0  0  0  0  0  0
   39.8460   33.7360   40.4600 O   0  0  0  0  0  0  0  0  0  0  0  0
   38.7550   32.2870   38.5820 O   0  0  0  0  0  0  0  0  0  0  0  0
   38.4860   32.8490   39.9590 P   0  0  2  0  0  0  0  0  0  0  0  0
   37.1770   33.9010   39.9690 O   0  0  0  0  0  0  0  0  0  0  0  0
   37.4160   34.7440   39.4800 H   0  0  0  0  0  0  0  0  0  0  0  0
   38.1850   31.6440   41.0990 O   0  0  0  0  0  0  0  0  0  0  0  0
   37.2810   30.6210   41.0260 C   0  0  0  0  0  0  0  0  0  0  0  0
   36.1060   30.6350   40.2980 C   0  0  0  0  0  0  0  0  0  0  0  0
   35.8830   31.5330   39.7370 H   0  0  0  0  0  0  0  0  0  0  0  0
   35.2830   29.5080   40.3230 C   0  0  0  0  0  3  0  0  0  0  0  0
   35.6520   28.4160   41.0650 C   0  0  0  0  0  3  0  0  0  0  0  0
   36.8180   28.3780   41.7990 C   0  0  0  0  0  0  0  0  0  0  0  0
   37.1470   27.2540   42.5310 C   0  0  0  0  0  3  0  0  0  0  0  0
   38.3020   27.2140   43.2590 C   0  0  0  0  0  3  0  0  0  0  0  0
   39.1340   28.3090   43.2530 C   0  0  0  0  0  3  0  0  0  0  0  0
   38.8190   29.4400   42.5280 C   0  0  0  0  0  3  0  0  0  0  0  0
   37.6430   29.4990   41.7770 C   0  0  0  0  0  0  0  0  0  0  0  0
  1 18  1  0  0  0  0
  1  3  1  0  0  0  0
  2  1  1  0  0  0  0
  4  6  1  0  0  0  0
  4  1  1  0  0  0  0
  5  4  1  0  0  0  0
  7  8  1  0  0  0  0
  8 14  1  0  0  0  0
  8  9  2  0  0  0  0
  9  4  1  0  0  0  0
 10  9  1  0  0  0  0
 11 10  2  0  0  0  0
 12  7  2  0  0  0  0
 12 11  1  0  0  0  0
 13 16  1  0  0  0  0
 13  7  1  0  0  0  0
 15 11  1  0  0  0  0
 17 13  1  0  0  0  0
 20 19  2  6  0  0  0
 20 21  1  0  0  0  0
 20 18  1  0  0  0  0
 20 23  1  0  0  0  0
 22 21  1  0  0  0  0
 24 23  1  0  0  0  0
 24 34  1  0  0  0  0
 25 27  1  0  0  0  0
 25 24  2  0  0  0  0
 26 25  1  0  0  0  0
 27 28  2  0  0  0  0
 28 29  1  0  0  0  0
 29 30  1  0  0  0  0
 30 31  2  0  0  0  0
 32 31  1  0  0  0  0
 33 32  2  0  0  0  0
 34 29  2  0  0  0  0
 34 33  1  0  0  0  0
M  END
>  <minimizedAffinity>
-5.78405476

$$$$

 OpenBabel03242516423D

 34 36  0  0  0  0  0  0  0  0999 V2000
   37.4070   29.4210   38.6790 C   0  0  0  0  0  0  0  0  0  0  0  0
   36.7510   28.5530   38.9250 H   0  0  0  0  0  0  0  0  0  0  0  0
   38.3860   28.9560   38.3650 H   0  0  0  0  0  0  0  0  0  0  0  0
   36.8920   30.2870   37.5820 C   0  0  0  0  0  0  0  0  0  0  0  0
   36.2210   31.0410   38.0570 H   0  0  0  0  0  0  0  0  0  0  0  0
   37.6670   30.8520   37.0390 H   0  0  0  0  0  0  0  0  0  0  0  0
   34.0170   28.1490   36.4070 C   0  0  0  0  0  0  0  0  0  0  0  0
   34.8610   28.9240   37.2300 C   0  0  0  0  0  0  0  0  0  0  0  0
   36.0200   29.4760   36.6930 C   0  0  0  0  0  0  0  0  0  0  0  0
   36.2900   29.2430   35.3950 N   0  0  0  0  0  0  0  0  0  0  0  0
   35.4720   28.5000   34.6250 C   0  0  0  0  0  0  0  0  0  0  0  0
   34.3460   27.9550   35.1150 N   0  0  0  0  0  0  0  0  0  0  0  0
   32.8410   27.5850   36.9360 N   0  0  0  0  0  0  0  0  0  0  0  0
   34.6350   29.1040   38.2740 H   0  0  0  0  0  0  0  0  0  0  0  0
   35.7380   28.3440   33.5810 H   0  0  0  0  0  0  0  0  0  0  0  0
   32.7910   27.4130   37.9660 H   0  0  0  0  0  0  0  0  0  0  0  0
   32.0220   27.3280   36.3750 H   0  0  0  0  0  0  0  0  0  0  0  0
   37.6780   30.1570   39.8150 O   0  0  0  0  0  0  0  0  0  0  0  0
   35.9910   28.4160   40.7860 O   0  0  0  0  0  0  0  0  0  0  0  0
   36.6720   29.7250   41.1140 P   0  0  2  0  0  0  0  0  0  0  0  0
   35.5720   30.9750   41.3280 O   0  0  0  0  0  0  0  0  0  0  0  0
   35.1540   31.2130   40.4470 H   0  0  0  0  0  0  0  0  0  0  0  0
   37.6140   29.6270   42.5090 O   0  0  0  0  0  0  0  0  0  0  0  0
   38.9770   29.6770   42.6130 C   0  0  0  0  0  0  0  0  0  0  0  0
   39.7590   30.7970   42.3990 C   0  0  0  0  0  0  0  0  0  0  0  0
   39.2490   31.7120   42.1270 H   0  0  0  0  0  0  0  0  0  0  0  0
   41.1430   30.6920   42.5450 C   0  0  0  0  0  3  0  0  0  0  0  0
   41.6980   29.4870   42.8930 C   0  0  0  0  0  3  0  0  0  0  0  0
   40.9390   28.3570   43.1110 C   0  0  0  0  0  0  0  0  0  0  0  0
   41.5440   27.1660   43.4600 C   0  0  0  0  0  3  0  0  0  0  0  0
   40.7940   26.0450   43.6770 C   0  0  0  0  0  3  0  0  0  0  0  0
   39.4270   26.1180   43.5420 C   0  0  0  0  0  3  0  0  0  0  0  0
   38.8080   27.3000   43.1930 C   0  0  0  0  0  3  0  0  0  0  0  0
   39.5580   28.4570   42.9680 C   0  0  0  0  0  0  0  0  0  0  0  0
  1  2  1  0  0  0  0
  1 18  1  0  0  0  0
  3  1  1  0  0  0  0
  4  5  1  0  0  0  0
  4  1  1  0  0  0  0
  6  4  1  0  0  0  0
  7 13  1  0  0  0  0
  7  8  1  0  0  0  0
  8 14  1  0  0  0  0
  9  8  2  0  0  0  0
  9  4  1  0  0  0  0
 10  9  1  0  0  0  0
 11 12  1  0  0  0  0
 11 10  2  0  0  0  0
 12  7  2  0  0  0  0
 13 16  1  0  0  0  0
 15 11  1  0  0  0  0
 17 13  1  0  0  0  0
 18 20  1  0  0  0  0
 20 19  2  6  0  0  0
 20 21  1  0  0  0  0
 20 23  1  0  0  0  0
 22 21  1  0  0  0  0
 23 24  1  0  0  0  0
 24 34  1  0  0  0  0
 25 27  1  0  0  0  0
 25 24  2  0  0  0  0
 26 25  1  0  0  0  0
 27 28  2  0  0  0  0
 28 29  1  0  0  0  0
 29 30  1  0  0  0  0
 30 31  2  0  0  0  0
 32 31  1  0  0  0  0
 33 32  2  0  0  0  0
 34 29  2  0  0  0  0
 34 33  1  0  0  0  0
M  END
>  <minimizedAffinity>
-5.67323494

$$$$

 OpenBabel03242516423D

 34 36  0  0  0  0  0  0  0  0999 V2000
   38.1360   31.4960   39.5390 C   0  0  0  0  0  0  0  0  0  0  0  0
   38.5860   30.7360   38.8590 H   0  0  0  0  0  0  0  0  0  0  0  0
   38.3530   31.1120   40.5770 H   0  0  0  0  0  0  0  0  0  0  0  0
   38.7010   32.8660   39.3870 C   0  0  0  0  0  0  0  0  0  0  0  0
   38.0970   33.3760   38.5990 H   0  0  0  0  0  0  0  0  0  0  0  0
   38.6360   33.4940   40.2900 H   0  0  0  0  0  0  0  0  0  0  0  0
   41.6470   31.6350   37.3810 C   0  0  0  0  0  0  0  0  0  0  0  0
   40.3480   31.7540   37.9180 C   0  0  0  0  0  0  0  0  0  0  0  0
   40.0770   32.7630   38.8360 C   0  0  0  0  0  0  0  0  0  0  0  0
   41.0790   33.5950   39.1770 N   0  0  0  0  0  0  0  0  0  0  0  0
   42.3140   33.4660   38.6540 C   0  0  0  0  0  0  0  0  0  0  0  0
   42.6050   32.5010   37.7660 N   0  0  0  0  0  0  0  0  0  0  0  0
   41.9350   30.6190   36.4510 N   0  0  0  0  0  0  0  0  0  0  0  0
   39.5480   31.0790   37.6370 H   0  0  0  0  0  0  0  0  0  0  0  0
   43.0880   34.1660   38.9640 H   0  0  0  0  0  0  0  0  0  0  0  0
   41.3400   29.7600   36.4520 H   0  0  0  0  0  0  0  0  0  0  0  0
   42.6970   30.6640   35.7660 H   0  0  0  0  0  0  0  0  0  0  0  0
   36.7610   31.5030   39.4110 O   0  0  0  0  0  0  0  0  0  0  0  0
   35.7180   29.6820   37.8580 O   0  0  0  0  0  0  0  0  0  0  0  0
   36.1210   29.9340   39.2920 P   0  0  2  0  0  0  0  0  0  0  0  0
   34.8120   29.8510   40.3410 O   0  0  0  0  0  0  0  0  0  0  0  0
   34.2070   30.6360   40.1910 H   0  0  0  0  0  0  0  0  0  0  0  0
   37.2840   28.8400   39.8350 O   0  0  0  0  0  0  0  0  0  0  0  0
   37.3730   28.2420   41.0610 C   0  0  0  0  0  0  0  0  0  0  0  0
   37.6620   28.8850   42.2510 C   0  0  0  0  0  0  0  0  0  0  0  0
   37.8320   29.9530   42.2070 H   0  0  0  0  0  0  0  0  0  0  0  0
   37.7180   28.1360   43.4270 C   0  0  0  0  0  3  0  0  0  0  0  0
   37.4880   26.7850   43.3810 C   0  0  0  0  0  3  0  0  0  0  0  0
   37.1980   26.1220   42.2080 C   0  0  0  0  0  0  0  0  0  0  0  0
   36.9730   24.7590   42.2130 C   0  0  0  0  0  3  0  0  0  0  0  0
   36.6860   24.1000   41.0520 C   0  0  0  0  0  3  0  0  0  0  0  0
   36.6230   24.8120   39.8760 C   0  0  0  0  0  3  0  0  0  0  0  0
   36.8460   26.1730   39.8550 C   0  0  0  0  0  3  0  0  0  0  0  0
   37.1400   26.8640   41.0320 C   0  0  0  0  0  0  0  0  0  0  0  0
  1  3  1  0  0  0  0
  2  1  1  0  0  0  0
  4  1  1  0  0  0  0
  4  6  1  0  0  0  0
  5  4  1  0  0  0  0
  7 12  2  0  0  0  0
  7  8  1  0  0  0  0
  8  9  2  0  0  0  0
  9 10  1  0  0  0  0
  9  4  1  0  0  0  0
 11 15  1  0  0  0  0
 11 10  2  0  0  0  0
 12 11  1  0  0  0  0
 13 16  1  0  0  0  0
 13  7  1  0  0  0  0
 14  8  1  0  0  0  0
 17 13  1  0  0  0  0
 18  1  1  0  0  0  0
 20 19  2  6  0  0  0
 20 18  1  0  0  0  0
 20 23  1  0  0  0  0
 20 21  1  0  0  0  0
 22 21  1  0  0  0  0
 23 24  1  0  0  0  0
 24 25  1  0  0  0  0
 25 27  2  0  0  0  0
 26 25  1  0  0  0  0
 28 27  1  0  0  0  0
 29 30  1  0  0  0  0
 29 28  2  0  0  0  0
 31 30  2  0  0  0  0
 32 31  1  0  0  0  0
 33 32  2  0  0  0  0
 33 34  1  0  0  0  0
 34 24  2  0  0  0  0
 34 29  1  0  0  0  0
M  END
>  <minimizedAffinity>
-5.52818871

$$$$

 OpenBabel03242516423D

 34 36  0  0  0  0  0  0  0  0999 V2000
   40.7490   29.2580   42.1420 C   0  0  0  0  0  0  0  0  0  0  0  0
   41.7620   28.8060   42.2550 H   0  0  0  0  0  0  0  0  0  0  0  0
   40.5440   29.2190   41.0330 H   0  0  0  0  0  0  0  0  0  0  0  0
   39.6710   28.5370   42.8730 C   0  0  0  0  0  0  0  0  0  0  0  0
   39.9790   27.4660   42.9250 H   0  0  0  0  0  0  0  0  0  0  0  0
   39.5160   28.8710   43.9130 H   0  0  0  0  0  0  0  0  0  0  0  0
   36.4470   29.7400   41.3320 C   0  0  0  0  0  0  0  0  0  0  0  0
   37.6290   29.6940   42.1010 C   0  0  0  0  0  0  0  0  0  0  0  0
   38.4310   28.5590   42.0540 C   0  0  0  0  0  0  0  0  0  0  0  0
   38.0410   27.5380   41.2680 N   0  0  0  0  0  0  0  0  0  0  0  0
   36.9070   27.6000   40.5410 C   0  0  0  0  0  0  0  0  0  0  0  0
   36.1130   28.6830   40.5660 N   0  0  0  0  0  0  0  0  0  0  0  0
   35.6260   30.8820   41.3690 N   0  0  0  0  0  0  0  0  0  0  0  0
   37.9350   30.5210   42.7300 H   0  0  0  0  0  0  0  0  0  0  0  0
   36.6380   26.7460   39.9220 H   0  0  0  0  0  0  0  0  0  0  0  0
   35.6710   31.5010   42.2100 H   0  0  0  0  0  0  0  0  0  0  0  0
   34.9790   31.1510   40.6200 H   0  0  0  0  0  0  0  0  0  0  0  0
   40.7780   30.5960   42.4810 O   0  0  0  0  0  0  0  0  0  0  0  0
   43.1570   30.5010   41.4110 O   0  0  0  0  0  0  0  0  0  0  0  0
   41.9990   31.4400   41.6560 P   0  0  2  0  0  0  0  0  0  0  0  0
   42.4360   32.7470   42.6160 O   0  0  0  0  0  0  0  0  0  0  0  0
   42.6080   32.4360   43.5540 H   0  0  0  0  0  0  0  0  0  0  0  0
   41.3520   32.0500   40.2230 O   0  0  0  0  0  0  0  0  0  0  0  0
   40.1000   32.5570   40.0110 C   0  0  0  0  0  0  0  0  0  0  0  0
   39.6270   33.7620   40.4950 C   0  0  0  0  0  0  0  0  0  0  0  0
   40.3060   34.3570   41.0920 H   0  0  0  0  0  0  0  0  0  0  0  0
   38.3190   34.1450   40.1920 C   0  0  0  0  0  3  0  0  0  0  0  0
   37.5330   33.3240   39.4260 C   0  0  0  0  0  3  0  0  0  0  0  0
   37.9820   32.1170   38.9320 C   0  0  0  0  0  0  0  0  0  0  0  0
   37.1520   31.3230   38.1650 C   0  0  0  0  0  3  0  0  0  0  0  0
   37.5940   30.1280   37.6750 C   0  0  0  0  0  3  0  0  0  0  0  0
   38.8790   29.7240   37.9570 C   0  0  0  0  0  3  0  0  0  0  0  0
   39.7200   30.5050   38.7220 C   0  0  0  0  0  3  0  0  0  0  0  0
   39.2850   31.7300   39.2310 C   0  0  0  0  0  0  0  0  0  0  0  0
  1  2  1  0  0  0  0
  1 18  1  0  0  0  0
  1  4  1  0  0  0  0
  3  1  1  0  0  0  0
  4  5  1  0  0  0  0
  4  6  1  0  0  0  0
  7 13  1  0  0  0  0
  7  8  1  0  0  0  0
  8 14  1  0  0  0  0
  9  8  2  0  0  0  0
  9  4  1  0  0  0  0
 10  9  1  0  0  0  0
 11 12  1  0  0  0  0
 11 10  2  0  0  0  0
 12  7  2  0  0  0  0
 13 16  1  0  0  0  0
 15 11  1  0  0  0  0
 17 13  1  0  0  0  0
 20 19  2  6  0  0  0
 20 18  1  0  0  0  0
 20 21  1  0  0  0  0
 21 22  1  0  0  0  0
 23 20  1  0  0  0  0
 24 23  1  0  0  0  0
 24 25  1  0  0  0  0
 25 26  1  0  0  0  0
 27 25  2  0  0  0  0
 28 27  1  0  0  0  0
 29 34  1  0  0  0  0
 29 28  2  0  0  0  0
 30 29  1  0  0  0  0
 31 32  1  0  0  0  0
 31 30  2  0  0  0  0
 32 33  2  0  0  0  0
 33 34  1  0  0  0  0
 34 24  2  0  0  0  0
M  END
>  <minimizedAffinity>
-5.52503061

$$$$

 OpenBabel03242516423D

 34 36  0  0  0  0  0  0  0  0999 V2000
   38.8610   29.9780   37.5650 C   0  0  0  0  0  0  0  0  0  0  0  0
   38.3810   30.9530   37.3170 H   0  0  0  0  0  0  0  0  0  0  0  0
   39.1850   29.5610   36.5680 H   0  0  0  0  0  0  0  0  0  0  0  0
   40.0410   30.0870   38.4660 C   0  0  0  0  0  0  0  0  0  0  0  0
   39.7060   29.7520   39.4760 H   0  0  0  0  0  0  0  0  0  0  0  0
   40.8940   29.4460   38.1890 H   0  0  0  0  0  0  0  0  0  0  0  0
   41.5930   33.4560   37.7850 C   0  0  0  0  0  0  0  0  0  0  0  0
   41.2340   32.0970   37.6630 C   0  0  0  0  0  0  0  0  0  0  0  0
   40.4040   31.5200   38.6180 C   0  0  0  0  0  0  0  0  0  0  0  0
   39.9730   32.2930   39.6320 N   0  0  0  0  0  0  0  0  0  0  0  0
   40.3270   33.5900   39.7330 C   0  0  0  0  0  0  0  0  0  0  0  0
   41.1270   34.1730   38.8250 N   0  0  0  0  0  0  0  0  0  0  0  0
   42.4320   34.0520   36.8250 N   0  0  0  0  0  0  0  0  0  0  0  0
   41.5870   31.4830   36.8420 H   0  0  0  0  0  0  0  0  0  0  0  0
   39.9500   34.1700   40.5730 H   0  0  0  0  0  0  0  0  0  0  0  0
   43.0730   33.4370   36.2740 H   0  0  0  0  0  0  0  0  0  0  0  0
   42.4580   35.0580   36.6280 H   0  0  0  0  0  0  0  0  0  0  0  0
   37.9260   29.0940   38.0660 O   0  0  0  0  0  0  0  0  0  0  0  0
   35.3710   29.6110   37.9240 O   0  0  0  0  0  0  0  0  0  0  0  0
   36.5970   29.8930   38.7610 P   0  0  2  0  0  0  0  0  0  0  0  0
   36.9700   31.5290   38.8080 O   0  0  0  0  0  0  0  0  0  0  0  0
   37.3020   31.8280   37.9090 H   0  0  0  0  0  0  0  0  0  0  0  0
   36.4260   29.3600   40.3510 O   0  0  0  0  0  0  0  0  0  0  0  0
   37.4090   29.1100   41.2680 C   0  0  0  0  0  0  0  0  0  0  0  0
   38.1710   30.0670   41.9120 C   0  0  0  0  0  0  0  0  0  0  0  0
   37.9720   31.1030   41.6700 H   0  0  0  0  0  0  0  0  0  0  0  0
   39.1410   29.6550   42.8270 C   0  0  0  0  0  3  0  0  0  0  0  0
   39.3200   28.3170   43.0680 C   0  0  0  0  0  3  0  0  0  0  0  0
   38.5730   27.3440   42.4380 C   0  0  0  0  0  0  0  0  0  0  0  0
   38.7910   26.0090   42.7140 C   0  0  0  0  0  3  0  0  0  0  0  0
   38.0520   25.0430   42.0920 C   0  0  0  0  0  3  0  0  0  0  0  0
   37.0880   25.4190   41.1860 C   0  0  0  0  0  3  0  0  0  0  0  0
   36.8590   26.7480   40.8980 C   0  0  0  0  0  3  0  0  0  0  0  0
   37.6040   27.7500   41.5250 C   0  0  0  0  0  0  0  0  0  0  0  0
  1 18  1  0  0  0  0
  1  4  1  0  0  0  0
  2  1  1  0  0  0  0
  3  1  1  0  0  0  0
  4  9  1  0  0  0  0
  4  5  1  0  0  0  0
  6  4  1  0  0  0  0
  7 12  1  0  0  0  0
  8  7  2  0  0  0  0
  8  9  1  0  0  0  0
  9 10  2  0  0  0  0
 10 11  1  0  0  0  0
 11 15  1  0  0  0  0
 12 11  2  0  0  0  0
 13  7  1  0  0  0  0
 14  8  1  0  0  0  0
 16 13  1  0  0  0  0
 17 13  1  0  0  0  0
 18 20  1  0  0  0  0
 20 19  2  6  0  0  0
 20 21  1  0  0  0  0
 20 23  1  0  0  0  0
 22 21  1  0  0  0  0
 23 24  1  0  0  0  0
 24 34  2  0  0  0  0
 24 25  1  0  0  0  0
 25 27  2  0  0  0  0
 26 25  1  0  0  0  0
 27 28  1  0  0  0  0
 29 30  1  0  0  0  0
 29 28  2  0  0  0  0
 31 30  2  0  0  0  0
 32 31  1  0  0  0  0
 33 32  2  0  0  0  0
 33 34  1  0  0  0  0
 34 29  1  0  0  0  0
M  END
>  <minimizedAffinity>
-5.45850801

$$$$

 OpenBabel03242516423D

 34 36  0  0  0  0  0  0  0  0999 V2000
   36.7650   29.3800   36.7080 C   0  0  0  0  0  0  0  0  0  0  0  0
   35.7150   29.2940   37.0720 H   0  0  0  0  0  0  0  0  0  0  0  0
   36.7200   29.0470   35.6320 H   0  0  0  0  0  0  0  0  0  0  0  0
   37.3290   30.7570   36.7800 C   0  0  0  0  0  0  0  0  0  0  0  0
   38.3450   30.7120   36.3210 H   0  0  0  0  0  0  0  0  0  0  0  0
   36.7620   31.5170   36.2180 H   0  0  0  0  0  0  0  0  0  0  0  0
   36.7010   31.2160   40.4700 C   0  0  0  0  0  0  0  0  0  0  0  0
   36.5180   30.8820   39.1110 C   0  0  0  0  0  0  0  0  0  0  0  0
   37.5470   31.1160   38.2060 C   0  0  0  0  0  0  0  0  0  0  0  0
   38.6880   31.6590   38.6700 N   0  0  0  0  0  0  0  0  0  0  0  0
   38.8440   31.9710   39.9710 C   0  0  0  0  0  0  0  0  0  0  0  0
   37.8680   31.7560   40.8680 N   0  0  0  0  0  0  0  0  0  0  0  0
   35.6680   30.9840   41.3970 N   0  0  0  0  0  0  0  0  0  0  0  0
   35.5950   30.4460   38.7480 H   0  0  0  0  0  0  0  0  0  0  0  0
   39.7880   32.4070   40.2930 H   0  0  0  0  0  0  0  0  0  0  0  0
   34.6840   30.9370   41.0460 H   0  0  0  0  0  0  0  0  0  0  0  0
   35.8160   30.8560   42.4040 H   0  0  0  0  0  0  0  0  0  0  0  0
   37.5760   28.4710   37.3590 O   0  0  0  0  0  0  0  0  0  0  0  0
   37.6610   25.8650   37.2220 O   0  0  0  0  0  0  0  0  0  0  0  0
   36.7760   27.0050   37.6690 P   0  0  2  0  0  0  0  0  0  0  0  0
   35.3220   27.0450   36.8280 O   0  0  0  0  0  0  0  0  0  0  0  0
   35.4890   27.3180   35.8770 H   0  0  0  0  0  0  0  0  0  0  0  0
   36.4140   26.9320   39.3140 O   0  0  0  0  0  0  0  0  0  0  0  0
   36.8730   26.0370   40.2400 C   0  0  0  0  0  0  0  0  0  0  0  0
   36.5940   24.6830   40.2580 C   0  0  0  0  0  0  0  0  0  0  0  0
   35.9590   24.2990   39.4710 H   0  0  0  0  0  0  0  0  0  0  0  0
   37.1390   23.8950   41.2730 C   0  0  0  0  0  3  0  0  0  0  0  0
   37.9330   24.4740   42.2280 C   0  0  0  0  0  3  0  0  0  0  0  0
   38.2260   25.8220   42.2320 C   0  0  0  0  0  0  0  0  0  0  0  0
   39.0320   26.3590   43.2160 C   0  0  0  0  0  3  0  0  0  0  0  0
   39.3220   27.6940   43.2220 C   0  0  0  0  0  3  0  0  0  0  0  0
   38.8010   28.4960   42.2330 C   0  0  0  0  0  3  0  0  0  0  0  0
   37.9930   27.9750   41.2440 C   0  0  0  0  0  3  0  0  0  0  0  0
   37.6850   26.6130   41.2210 C   0  0  0  0  0  0  0  0  0  0  0  0
  1  4  1  0  0  0  0
  1  2  1  0  0  0  0
  1 18  1  0  0  0  0
  3  1  1  0  0  0  0
  4  9  1  0  0  0  0
  5  4  1  0  0  0  0
  6  4  1  0  0  0  0
  7 12  1  0  0  0  0
  7 13  1  0  0  0  0
  8  7  2  0  0  0  0
  9 10  2  0  0  0  0
  9  8  1  0  0  0  0
 10 11  1  0  0  0  0
 11 15  1  0  0  0  0
 11 12  2  0  0  0  0
 13 17  1  0  0  0  0
 14  8  1  0  0  0  0
 16 13  1  0  0  0  0
 18 20  1  0  0  0  0
 20 19  2  6  0  0  0
 20 23  1  0  0  0  0
 21 20  1  0  0  0  0
 22 21  1  0  0  0  0
 23 24  1  0  0  0  0
 24 25  2  0  0  0  0
 24 34  1  0  0  0  0
 25 27  1  0  0  0  0
 26 25  1  0  0  0  0
 27 28  2  0  0  0  0
 28 29  1  0  0  0  0
 29 30  1  0  0  0  0
 30 31  2  0  0  0  0
 32 31  1  0  0  0  0
 33 32  2  0  0  0  0
 34 33  1  0  0  0  0
 34 29  2  0  0  0  0
M  END
>  <minimizedAffinity>
-5.39960861

$$$$
