
 OpenBabel03242516533D

 47 51  0  0  1  0  0  0  0  0999 V2000
   47.7970   32.7550   41.6190 C   0  0  1  0  0  0  0  0  0  0  0  0
   47.4240   32.1550   40.3350 C   0  0  0  0  0  0  0  0  0  0  0  0
   48.4380   32.6590   39.3110 C   0  0  0  0  0  0  0  0  0  0  0  0
   48.1490   34.1340   39.1080 C   0  0  0  0  0  0  0  0  0  0  0  0
   48.1390   34.9300   40.3830 C   0  0  0  0  0  0  0  0  0  0  0  0
   47.6460   34.2800   41.6020 C   0  0  1  0  0  0  0  0  0  0  0  0
   48.9120   32.6270   41.7660 H   0  0  0  0  0  0  0  0  0  0  0  0
   47.5540   31.0520   40.3970 H   0  0  0  0  0  0  0  0  0  0  0  0
   46.4160   32.4080   39.9690 H   0  0  0  0  0  0  0  0  0  0  0  0
   48.3180   32.1700   38.3410 H   0  0  0  0  0  0  0  0  0  0  0  0
   49.4550   32.5540   39.7480 H   0  0  0  0  0  0  0  0  0  0  0  0
   47.1320   34.2270   38.6560 H   0  0  0  0  0  0  0  0  0  0  0  0
   48.9210   34.5300   38.4220 H   0  0  0  0  0  0  0  0  0  0  0  0
   49.1870   35.3130   40.5240 H   0  0  0  0  0  0  0  0  0  0  0  0
   47.5260   35.8470   40.1810 H   0  0  0  0  0  0  0  0  0  0  0  0
   48.2750   34.6310   42.4730 H   0  0  0  0  0  0  0  0  0  0  0  0
   45.3130   30.8860   43.7780 C   0  0  0  0  0  0  0  0  0  0  0  0
   45.9910   31.4350   42.6870 C   0  0  0  0  0  0  0  0  0  0  0  0
   47.1480   32.2120   42.7950 C   0  0  0  0  0  0  0  0  0  0  0  0
   47.5920   32.4180   44.0420 N   0  0  0  0  0  0  0  0  0  0  0  0
   46.9420   31.8910   45.1170 C   0  0  0  0  0  0  0  0  0  0  0  0
   45.8430   31.1520   45.0020 N   0  0  0  0  0  0  0  0  0  0  0  0
   44.4320   30.3030   43.5840 H   0  0  0  0  0  0  0  0  0  0  0  0
   45.6180   31.2590   41.6860 H   0  0  0  0  0  0  0  0  0  0  0  0
   47.2830   32.0430   46.1330 H   0  0  0  0  0  0  0  0  0  0  0  0
   46.2860   34.6930   41.9510 C   0  0  0  0  0  0  0  0  0  0  0  0
   45.8860   35.2910   43.1470 C   0  0  0  0  0  0  0  0  0  0  0  0
   44.5360   35.6160   43.2520 C   0  0  0  0  0  0  0  0  0  0  0  0
   43.7130   35.3260   42.1840 C   0  0  0  0  0  0  0  0  0  0  0  0
   44.1260   34.7310   41.0020 C   0  0  0  0  0  0  0  0  0  0  0  0
   45.4450   34.4200   40.9170 N   0  0  0  0  0  0  0  0  0  0  0  0
   46.6380   35.4470   43.8700 H   0  0  0  0  0  0  0  0  0  0  0  0
   44.2150   36.0720   44.1550 H   0  0  0  0  0  0  0  0  0  0  0  0
   42.6630   35.5850   42.2810 H   0  0  0  0  0  0  0  0  0  0  0  0
   43.1720   34.4640   39.9340 C   0  0  0  0  0  0  0  0  0  0  0  0
   42.5050   35.4150   39.4760 O   0  0  0  0  0  0  0  0  0  0  0  0
   42.7820   33.2610   39.2210 C   0  0  0  0  0  0  0  0  0  0  0  0
   41.6540   32.5280   39.5170 C   0  0  0  0  0  0  0  0  0  0  0  0
   40.9970   32.8470   40.2950 H   0  0  0  0  0  0  0  0  0  0  0  0
   41.2660   31.3600   38.8920 C   0  0  0  0  0  3  0  0  0  0  0  0
   42.0720   30.8750   37.8820 C   0  0  0  0  0  3  0  0  0  0  0  0
   43.2170   31.5580   37.5320 C   0  0  0  0  0  0  0  0  0  0  0  0
   43.9670   31.0330   36.5230 C   0  0  0  0  0  3  0  0  0  0  0  0
   45.1220   31.6670   36.1120 C   0  0  0  0  0  3  0  0  0  0  0  0
   45.4910   32.8500   36.7580 C   0  0  0  0  0  3  0  0  0  0  0  0
   44.6930   33.3250   37.7690 C   0  0  0  0  0  3  0  0  0  0  0  0
   43.5360   32.7180   38.2030 C   0  0  0  0  0  0  0  0  0  0  0  0
  1  7  1  1  0  0  0
  1 19  1  0  0  0  0
  2  8  1  0  0  0  0
  2  1  1  0  0  0  0
  3 11  1  0  0  0  0
  3  2  1  0  0  0  0
  4  3  1  0  0  0  0
  4  5  1  0  0  0  0
  5 14  1  0  0  0  0
  5  6  1  0  0  0  0
  6  1  1  0  0  0  0
  6 26  1  0  0  0  0
  6 16  1  1  0  0  0
  9  2  1  0  0  0  0
 10  3  1  0  0  0  0
 12  4  1  0  0  0  0
 13  4  1  0  0  0  0
 15  5  1  0  0  0  0
 17 22  1  0  0  0  0
 18 19  1  0  0  0  0
 18 17  2  0  0  0  0
 19 20  2  0  0  0  0
 20 21  1  0  0  0  0
 21 25  1  0  0  0  0
 22 21  2  0  0  0  0
 23 17  1  0  0  0  0
 24 18  1  0  0  0  0
 26 27  1  0  0  0  0
 27 28  2  0  0  0  0
 27 32  1  0  0  0  0
 28 33  1  0  0  0  0
 29 34  1  0  0  0  0
 29 28  1  0  0  0  0
 30 29  2  0  0  0  0
 31 30  1  0  0  0  0
 31 26  2  0  0  0  0
 35 30  1  0  0  0  0
 36 35  2  0  0  0  0
 37 38  1  0  0  0  0
 37 35  1  0  0  0  0
 38 39  1  0  0  0  0
 40 38  2  0  0  0  0
 41 40  1  0  0  0  0
 42 41  2  0  0  0  0
 42 47  1  0  0  0  0
 43 42  1  0  0  0  0
 44 43  2  0  0  0  0
 44 45  1  0  0  0  0
 45 46  2  0  0  0  0
 46 47  1  0  0  0  0
 47 37  2  0  0  0  0
M  END
>  <minimizedAffinity>
-5.91550207

>  <minimizedRMSD>
0.878839374

$$$$
