
 OpenBabel03242518553D

 44 47  0  0  1  0  0  0  0  0999 V2000
   46.0350   31.1200   46.4990 C   0  0  2  0  0  0  0  0  0  0  0  0
   45.1390   30.6970   47.6110 C   0  0  0  0  0  0  0  0  0  0  0  0
   44.6220   29.3450   47.2920 C   0  0  0  0  0  0  0  0  0  0  0  0
   45.0230   28.8030   45.9630 C   0  0  0  0  0  0  0  0  0  0  0  0
   46.5230   28.8220   45.7930 C   0  0  0  0  0  0  0  0  0  0  0  0
   47.1030   30.0630   46.2900 C   0  0  2  0  0  0  0  0  0  0  0  0
   45.4590   31.0940   45.5500 H   0  0  0  0  0  0  0  0  0  0  0  0
   45.5730   30.8090   48.6190 H   0  0  0  0  0  0  0  0  0  0  0  0
   44.3090   31.4480   47.6100 H   0  0  0  0  0  0  0  0  0  0  0  0
   43.4910   29.3920   47.2380 H   0  0  0  0  0  0  0  0  0  0  0  0
   44.7700   28.5670   48.0790 H   0  0  0  0  0  0  0  0  0  0  0  0
   44.6770   27.7370   45.9310 H   0  0  0  0  0  0  0  0  0  0  0  0
   44.4900   29.2870   45.1140 H   0  0  0  0  0  0  0  0  0  0  0  0
   46.9240   27.8670   46.1870 H   0  0  0  0  0  0  0  0  0  0  0  0
   46.6750   28.7270   44.6750 H   0  0  0  0  0  0  0  0  0  0  0  0
   47.7610   30.4820   45.5190 H   0  0  0  0  0  0  0  0  0  0  0  0
   47.7510   29.7360   47.5840 C   0  0  0  0  0  0  0  0  0  0  0  0
   47.3980   28.7620   47.9570 H   0  0  0  0  0  0  0  0  0  0  0  0
   47.3900   30.4580   48.3820 H   0  0  0  0  0  0  0  0  0  0  0  0
   49.2300   29.6660   47.5740 C   0  0  0  0  0  0  0  0  0  0  0  0
   49.9090   29.0360   46.5220 C   0  0  0  0  0  0  0  0  0  0  0  0
   49.3810   28.5720   45.6930 H   0  0  0  0  0  0  0  0  0  0  0  0
   51.2690   28.9330   46.4280 C   0  0  0  0  0  0  0  0  0  0  0  0
   52.0580   29.4700   47.4100 C   0  0  0  0  0  0  0  0  0  0  0  0
   51.4430   30.0950   48.4590 C   0  0  0  0  0  0  0  0  0  0  0  0
   52.2450   30.6340   49.4570 C   0  0  0  0  0  0  0  0  0  0  0  0
   51.6300   31.2610   50.5210 C   0  0  0  0  0  0  0  0  0  0  0  0
   50.2490   31.3710   50.6300 C   0  0  0  0  0  0  0  0  0  0  0  0
   49.4770   30.8280   49.6250 C   0  0  0  0  0  0  0  0  0  0  0  0
   50.0530   30.1950   48.5450 C   0  0  0  0  0  0  0  0  0  0  0  0
   46.5900   32.4850   46.6360 C   0  0  0  0  0  0  0  0  0  0  0  0
   47.3960   32.8040   47.5370 O   0  0  0  0  0  0  0  0  0  0  0  0
   44.7400   35.2140   45.0640 C   0  0  0  0  0  0  0  0  0  0  0  0
   45.3160   35.3320   43.7720 C   0  0  0  0  0  0  0  0  0  0  0  0
   46.3460   34.4540   43.4790 C   0  0  0  0  0  0  0  0  0  0  0  0
   46.6740   33.6010   44.4520 N   0  0  0  0  0  0  0  0  0  0  0  0
   46.1450   33.4870   45.6500 C   0  0  0  0  0  0  0  0  0  0  0  0
   45.1420   34.3250   45.9630 N   0  0  0  0  0  0  0  0  0  0  0  0
   43.9150   35.8880   45.3460 H   0  0  0  0  0  0  0  0  0  0  0  0
   44.9030   36.0840   43.1430 H   0  0  0  0  0  0  0  0  0  0  0  0
   46.9480   34.5580   42.1510 C   0  0  0  0  0  0  0  0  0  0  0  0
   47.6370   33.3940   41.8560 F   0  0  0  0  0  0  0  0  0  0  0  0
   47.8200   35.5980   42.1980 F   0  0  0  0  0  0  0  0  0  0  0  0
   45.9870   34.6980   41.1580 F   0  0  0  0  0  0  0  0  0  0  0  0
  1  7  1  6  0  0  0
  1 31  1  0  0  0  0
  1  2  1  0  0  0  0
  2  8  1  0  0  0  0
  3  2  1  0  0  0  0
  3 11  1  0  0  0  0
  4  3  1  0  0  0  0
  5  4  1  0  0  0  0
  5 14  1  0  0  0  0
  5  6  1  0  0  0  0
  6 16  1  6  0  0  0
  6  1  1  0  0  0  0
  6 17  1  0  0  0  0
  9  2  1  0  0  0  0
 10  3  1  0  0  0  0
 12  4  1  0  0  0  0
 13  4  1  0  0  0  0
 15  5  1  0  0  0  0
 17 18  1  0  0  0  0
 17 19  1  0  0  0  0
 20 17  1  0  0  0  0
 20 30  1  0  0  0  0
 21 20  2  0  0  0  0
 22 21  1  0  0  0  0
 23 21  1  0  0  0  0
 23 24  2  0  0  0  0
 24 25  1  0  0  0  0
 25 30  2  0  0  0  0
 25 26  1  0  0  0  0
 26 27  2  0  0  0  0
 27 28  1  0  0  0  0
 29 28  2  0  0  0  0
 30 29  1  0  0  0  0
 31 32  2  0  0  0  0
 33 39  1  0  0  0  0
 33 38  1  0  0  0  0
 34 33  2  0  0  0  0
 35 34  1  0  0  0  0
 35 36  2  0  0  0  0
 36 37  1  0  0  0  0
 37 38  2  0  0  0  0
 37 31  1  0  0  0  0
 40 34  1  0  0  0  0
 41 43  1  0  0  0  0
 41 35  1  0  0  0  0
 42 41  1  0  0  0  0
 44 41  1  0  0  0  0
M  END
>  <minimizedAffinity>
-6.39014864

>  <minimizedRMSD>
2.37922835

$$$$
