
 OpenBabel03252504583D

 39 42  0  0  1  0  0  0  0  0999 V2000
   48.0120   34.0940   42.0680 N   0  0  0  0  0  0  0  0  0  0  0  0
   47.9840   35.0670   41.0420 C   0  0  0  0  0  0  0  0  0  0  0  0
   49.1100   35.9530   41.4090 C   0  0  0  0  0  0  0  0  0  0  0  0
   49.7840   35.3920   42.6480 C   0  0  0  0  0  0  0  0  0  0  0  0
   49.2890   33.9380   42.6330 C   0  0  2  0  0  0  0  0  0  0  0  0
   47.4490   35.3300   40.1680 H   0  0  0  0  0  0  0  0  0  0  0  0
   49.4960   36.8400   40.9450 H   0  0  0  0  0  0  0  0  0  0  0  0
   49.4580   35.9000   43.5530 H   0  0  0  0  0  0  0  0  0  0  0  0
   50.8710   35.3900   42.4530 H   0  0  0  0  0  0  0  0  0  0  0  0
   49.2790   33.4690   43.6130 H   0  0  0  0  0  0  0  0  0  0  0  0
   46.8540   33.4510   42.4280 C   0  0  0  0  0  0  0  0  0  0  0  0
   47.1210   32.3910   42.6770 H   0  0  0  0  0  0  0  0  0  0  0  0
   46.1160   33.3090   41.6070 H   0  0  0  0  0  0  0  0  0  0  0  0
   44.6420   35.6930   44.5300 C   0  0  0  0  0  0  0  0  0  0  0  0
   45.3450   35.2140   43.3870 C   0  0  0  0  0  0  0  0  0  0  0  0
   46.1180   34.0600   43.5150 C   0  0  0  0  0  0  0  0  0  0  0  0
   46.1470   33.4700   44.7290 N   0  0  0  0  0  0  0  0  0  0  0  0
   45.4620   33.9450   45.8270 C   0  0  0  0  0  0  0  0  0  0  0  0
   44.7180   35.0460   45.7230 N   0  0  0  0  0  0  0  0  0  0  0  0
   44.0500   36.5690   44.4490 H   0  0  0  0  0  0  0  0  0  0  0  0
   45.2950   35.7110   42.4420 H   0  0  0  0  0  0  0  0  0  0  0  0
   45.5500   33.3990   46.7630 H   0  0  0  0  0  0  0  0  0  0  0  0
   50.0700   33.2710   41.6760 O   0  0  0  0  0  0  0  0  0  0  0  0
   49.4530   31.1270   43.1240 O   0  0  0  0  0  0  0  0  0  0  0  0
   50.1000   31.6230   41.8490 P   0  0  2  0  0  0  0  0  0  0  0  0
   51.7230   31.1270   41.8890 O   0  0  0  0  0  0  0  0  0  0  0  0
   52.0660   31.2070   40.9520 H   0  0  0  0  0  0  0  0  0  0  0  0
   49.4150   30.8450   40.4850 O   0  0  0  0  0  0  0  0  0  0  0  0
   48.1120   30.9490   40.0860 C   0  0  0  0  0  0  0  0  0  0  0  0
   47.0020   30.2950   40.5210 C   0  0  0  0  0  0  0  0  0  0  0  0
   47.1880   29.5780   41.3070 H   0  0  0  0  0  0  0  0  0  0  0  0
   45.7420   30.5170   40.0100 C   0  0  0  0  0  3  0  0  0  0  0  0
   45.5550   31.4470   39.0010 C   0  0  0  0  0  3  0  0  0  0  0  0
   46.6720   32.1260   38.5430 C   0  0  0  0  0  0  0  0  0  0  0  0
   46.4150   33.0390   37.5370 C   0  0  0  0  0  3  0  0  0  0  0  0
   47.4590   33.7570   37.0210 C   0  0  0  0  0  3  0  0  0  0  0  0
   48.7110   33.5530   37.5120 C   0  0  0  0  0  3  0  0  0  0  0  0
   48.9750   32.6430   38.5160 C   0  0  0  0  0  3  0  0  0  0  0  0
   47.9380   31.8920   39.0680 C   0  0  0  0  0  0  0  0  0  0  0  0
  1 11  1  0  0  0  0
  1  5  1  0  0  0  0
  2  3  2  0  0  0  0
  2  1  1  0  0  0  0
  3  4  1  0  0  0  0
  4  8  1  0  0  0  0
  5  4  1  0  0  0  0
  5 10  1  1  0  0  0
  6  2  1  0  0  0  0
  7  3  1  0  0  0  0
  9  4  1  0  0  0  0
 11 12  1  0  0  0  0
 11 16  1  0  0  0  0
 13 11  1  0  0  0  0
 14 19  1  0  0  0  0
 15 16  1  0  0  0  0
 15 14  2  0  0  0  0
 16 17  2  0  0  0  0
 17 18  1  0  0  0  0
 18 22  1  0  0  0  0
 19 18  2  0  0  0  0
 20 14  1  0  0  0  0
 21 15  1  0  0  0  0
 23 25  1  0  0  0  0
 23  5  1  0  0  0  0
 25 26  1  0  0  0  0
 25 24  2  1  0  0  0
 27 26  1  0  0  0  0
 28 25  1  0  0  0  0
 29 28  1  0  0  0  0
 29 30  1  0  0  0  0
 30 31  1  0  0  0  0
 32 30  2  0  0  0  0
 33 32  1  0  0  0  0
 34 33  2  0  0  0  0
 34 39  1  0  0  0  0
 35 34  1  0  0  0  0
 36 37  1  0  0  0  0
 36 35  2  0  0  0  0
 37 38  2  0  0  0  0
 38 39  1  0  0  0  0
 39 29  2  0  0  0  0
M  END
>  <minimizedAffinity>
-5.23141956

>  <minimizedRMSD>
1.41263449

$$$$
