
 OpenBabel03252507563D

 46 50  0  0  1  0  0  0  0  0999 V2000
   39.5800   33.4350   39.7150 C   0  0  2  0  0  0  0  0  0  0  0  0
   38.3930   34.0800   40.2590 C   0  0  0  0  0  0  0  0  0  0  0  0
   39.1060   33.0170   41.0330 C   0  0  1  0  0  0  0  0  0  0  0  0
   39.4410   32.7240   38.8810 H   0  0  0  0  0  0  0  0  0  0  0  0
   38.4990   35.0940   40.7170 H   0  0  0  0  0  0  0  0  0  0  0  0
   37.3560   33.8560   39.9330 H   0  0  0  0  0  0  0  0  0  0  0  0
   39.8060   33.1920   41.8540 H   0  0  0  0  0  0  0  0  0  0  0  0
   42.5060   35.1970   40.8630 C   0  0  2  0  0  0  0  0  0  0  0  0
   41.2930   36.1030   41.0930 C   0  0  0  0  0  0  0  0  0  0  0  0
   40.5420   35.7760   39.7850 C   0  0  0  0  0  0  0  0  0  0  0  0
   40.7970   34.3170   39.5520 C   0  0  1  0  0  0  0  0  0  0  0  0
   41.7930   33.9010   40.5930 C   0  0  0  0  0  0  0  0  0  0  0  0
   43.0520   35.5160   39.9620 H   0  0  0  0  0  0  0  0  0  0  0  0
   40.7550   35.6950   41.9540 H   0  0  0  0  0  0  0  0  0  0  0  0
   41.5520   37.1610   41.1410 H   0  0  0  0  0  0  0  0  0  0  0  0
   39.4700   36.0170   39.9110 H   0  0  0  0  0  0  0  0  0  0  0  0
   40.9930   36.3540   38.9610 H   0  0  0  0  0  0  0  0  0  0  0  0
   41.2400   34.1150   38.5470 H   0  0  0  0  0  0  0  0  0  0  0  0
   41.2750   33.5580   41.5100 H   0  0  0  0  0  0  0  0  0  0  0  0
   42.4670   33.0830   40.2630 H   0  0  0  0  0  0  0  0  0  0  0  0
   44.3680   36.0390   44.0230 C   0  0  0  0  0  0  0  0  0  0  0  0
   43.5320   36.2220   42.9300 C   0  0  0  0  0  0  0  0  0  0  0  0
   43.3560   35.1280   42.0830 C   0  0  0  0  0  0  0  0  0  0  0  0
   44.0050   33.9160   42.3460 N   0  0  0  0  0  0  0  0  0  0  0  0
   44.8110   33.8020   43.4340 C   0  0  0  0  0  0  0  0  0  0  0  0
   44.9900   34.8600   44.2670 N   0  0  0  0  0  0  0  0  0  0  0  0
   44.5160   36.8780   44.6920 H   0  0  0  0  0  0  0  0  0  0  0  0
   43.0200   37.1440   42.7020 H   0  0  0  0  0  0  0  0  0  0  0  0
   45.2610   32.8240   43.5400 H   0  0  0  0  0  0  0  0  0  0  0  0
   38.4770   31.7500   41.1240 O   0  0  0  0  0  0  0  0  0  0  0  0
   40.4120   30.0100   40.9290 O   0  0  0  0  0  0  0  0  0  0  0  0
   39.5230   30.7070   41.9280 P   0  0  1  0  0  0  0  0  0  0  0  0
   40.5330   31.5940   42.9920 O   0  0  0  0  0  0  0  0  0  0  0  0
   41.3760   31.8190   42.5370 H   0  0  0  0  0  0  0  0  0  0  0  0
   38.7570   29.5520   42.8470 O   0  0  0  0  0  0  0  0  0  0  0  0
   38.1580   28.4710   42.2180 C   0  0  0  0  0  0  0  0  0  0  0  0
   37.1260   28.5120   41.3050 C   0  0  0  0  0  0  0  0  0  0  0  0
   36.7500   29.4920   41.0600 H   0  0  0  0  0  0  0  0  0  0  0  0
   36.6100   27.3640   40.7430 C   0  0  0  0  0  3  0  0  0  0  0  0
   37.1190   26.1070   41.0820 C   0  0  0  0  0  3  0  0  0  0  0  0
   38.1520   26.0480   41.9930 C   0  0  0  0  0  0  0  0  0  0  0  0
   38.6730   24.8080   42.3430 C   0  0  0  0  0  3  0  0  0  0  0  0
   39.7170   24.7050   43.2610 C   0  0  0  0  0  3  0  0  0  0  0  0
   40.2340   25.8680   43.8260 C   0  0  0  0  0  3  0  0  0  0  0  0
   39.6810   27.0640   43.4440 C   0  0  0  0  0  3  0  0  0  0  0  0
   38.6510   27.2170   42.5420 C   0  0  0  0  0  0  0  0  0  0  0  0
  1  4  1  6  0  0  0
  1  2  1  0  0  0  0
  1  3  1  0  0  0  0
  2  5  1  0  0  0  0
  2  3  1  0  0  0  0
  3 30  1  0  0  0  0
  3  7  1  1  0  0  0
  6  2  1  0  0  0  0
  8 13  1  6  0  0  0
  8  9  1  0  0  0  0
  8 23  1  0  0  0  0
  9 15  1  0  0  0  0
  9 14  1  0  0  0  0
 10 16  1  0  0  0  0
 10  9  1  0  0  0  0
 11 18  1  6  0  0  0
 11  1  1  0  0  0  0
 11 10  1  0  0  0  0
 11 12  1  0  0  0  0
 12  8  1  0  0  0  0
 12 19  1  0  0  0  0
 17 10  1  0  0  0  0
 20 12  1  0  0  0  0
 21 26  1  0  0  0  0
 21 27  1  0  0  0  0
 22 21  2  0  0  0  0
 23 24  2  0  0  0  0
 23 22  1  0  0  0  0
 24 25  1  0  0  0  0
 25 29  1  0  0  0  0
 25 26  2  0  0  0  0
 28 22  1  0  0  0  0
 30 32  1  0  0  0  0
 32 31  2  6  0  0  0
 32 35  1  0  0  0  0
 32 33  1  0  0  0  0
 34 33  1  0  0  0  0
 36 46  1  0  0  0  0
 36 35  1  0  0  0  0
 37 36  2  0  0  0  0
 38 37  1  0  0  0  0
 39 40  2  0  0  0  0
 39 37  1  0  0  0  0
 40 41  1  0  0  0  0
 41 42  2  0  0  0  0
 41 46  1  0  0  0  0
 42 43  1  0  0  0  0
 43 44  2  0  0  0  0
 45 44  1  0  0  0  0
 46 45  2  0  0  0  0
M  END
>  <minimizedAffinity>
-7.20517921

$$$$

 OpenBabel03252507563D

 46 50  0  0  1  0  0  0  0  0999 V2000
   38.6030   30.5350   38.7810 C   0  0  2  0  0  0  0  0  0  0  0  0
   38.0440   29.7600   37.6820 C   0  0  0  0  0  0  0  0  0  0  0  0
   37.3280   29.8510   38.9920 C   0  0  1  0  0  0  0  0  0  0  0  0
   39.4870   30.1220   39.3010 H   0  0  0  0  0  0  0  0  0  0  0  0
   37.5150   30.3050   36.8600 H   0  0  0  0  0  0  0  0  0  0  0  0
   38.4090   28.7580   37.3750 H   0  0  0  0  0  0  0  0  0  0  0  0
   36.4810   30.5070   39.2080 H   0  0  0  0  0  0  0  0  0  0  0  0
   39.6780   33.8860   39.5500 C   0  0  2  0  0  0  0  0  0  0  0  0
   38.4330   33.5900   40.3910 C   0  0  0  0  0  0  0  0  0  0  0  0
   37.6410   32.8140   39.3150 C   0  0  0  0  0  0  0  0  0  0  0  0
   38.6770   32.0300   38.5690 C   0  0  1  0  0  0  0  0  0  0  0  0
   40.0030   32.4900   39.0970 C   0  0  0  0  0  0  0  0  0  0  0  0
   39.4110   34.5070   38.6830 H   0  0  0  0  0  0  0  0  0  0  0  0
   38.7470   32.9150   41.1920 H   0  0  0  0  0  0  0  0  0  0  0  0
   37.8980   34.4900   40.6970 H   0  0  0  0  0  0  0  0  0  0  0  0
   36.8830   32.1770   39.8100 H   0  0  0  0  0  0  0  0  0  0  0  0
   37.1740   33.5380   38.6260 H   0  0  0  0  0  0  0  0  0  0  0  0
   38.6530   32.2250   37.4700 H   0  0  0  0  0  0  0  0  0  0  0  0
   40.3110   31.8740   39.9640 H   0  0  0  0  0  0  0  0  0  0  0  0
   40.8200   32.4450   38.3480 H   0  0  0  0  0  0  0  0  0  0  0  0
   41.7880   36.2160   41.6210 C   0  0  0  0  0  0  0  0  0  0  0  0
   40.7070   35.7810   40.8650 C   0  0  0  0  0  0  0  0  0  0  0  0
   40.7580   34.4700   40.3920 C   0  0  0  0  0  0  0  0  0  0  0  0
   41.8600   33.6550   40.6800 N   0  0  0  0  0  0  0  0  0  0  0  0
   42.8860   34.1420   41.4260 C   0  0  0  0  0  0  0  0  0  0  0  0
   42.8470   35.4180   41.8920 N   0  0  0  0  0  0  0  0  0  0  0  0
   41.7640   37.2320   41.9960 H   0  0  0  0  0  0  0  0  0  0  0  0
   39.8470   36.3870   40.6270 H   0  0  0  0  0  0  0  0  0  0  0  0
   43.6820   33.4280   41.5860 H   0  0  0  0  0  0  0  0  0  0  0  0
   37.3380   28.6980   39.8170 O   0  0  0  0  0  0  0  0  0  0  0  0
   37.2070   30.1970   41.9490 O   0  0  0  0  0  0  0  0  0  0  0  0
   36.5120   29.0650   41.2340 P   0  0  1  0  0  0  0  0  0  0  0  0
   34.9190   29.5840   40.8670 O   0  0  0  0  0  0  0  0  0  0  0  0
   34.8990   30.5650   40.7990 H   0  0  0  0  0  0  0  0  0  0  0  0
   36.3680   27.7860   42.2880 O   0  0  0  0  0  0  0  0  0  0  0  0
   37.5070   27.0990   42.6800 C   0  0  0  0  0  0  0  0  0  0  0  0
   38.4650   27.5260   43.5740 C   0  0  0  0  0  0  0  0  0  0  0  0
   38.3050   28.4990   44.0090 H   0  0  0  0  0  0  0  0  0  0  0  0
   39.5600   26.7500   43.8880 C   0  0  0  0  0  3  0  0  0  0  0  0
   39.7400   25.4930   43.3050 C   0  0  0  0  0  3  0  0  0  0  0  0
   38.7900   25.0500   42.4090 C   0  0  0  0  0  0  0  0  0  0  0  0
   38.9500   23.8020   41.8190 C   0  0  0  0  0  3  0  0  0  0  0  0
   38.0120   23.3170   40.9080 C   0  0  0  0  0  3  0  0  0  0  0  0
   36.9080   24.1060   40.5940 C   0  0  0  0  0  3  0  0  0  0  0  0
   36.8020   25.3280   41.2070 C   0  0  0  0  0  3  0  0  0  0  0  0
   37.7000   25.8500   42.1120 C   0  0  0  0  0  0  0  0  0  0  0  0
  1  3  1  0  0  0  0
  1  4  1  1  0  0  0
  2  1  1  0  0  0  0
  2  3  1  0  0  0  0
  3  7  1  1  0  0  0
  3 30  1  0  0  0  0
  5  2  1  0  0  0  0
  6  2  1  0  0  0  0
  8 13  1  6  0  0  0
  8  9  1  0  0  0  0
  8 23  1  0  0  0  0
  9 15  1  0  0  0  0
  9 14  1  0  0  0  0
 10 16  1  0  0  0  0
 10  9  1  0  0  0  0
 11 18  1  6  0  0  0
 11  1  1  0  0  0  0
 11 12  1  0  0  0  0
 11 10  1  0  0  0  0
 12  8  1  0  0  0  0
 12 19  1  0  0  0  0
 17 10  1  0  0  0  0
 20 12  1  0  0  0  0
 21 26  1  0  0  0  0
 21 27  1  0  0  0  0
 22 21  2  0  0  0  0
 23 24  2  0  0  0  0
 23 22  1  0  0  0  0
 24 25  1  0  0  0  0
 25 29  1  0  0  0  0
 25 26  2  0  0  0  0
 28 22  1  0  0  0  0
 30 32  1  0  0  0  0
 32 31  2  1  0  0  0
 32 35  1  0  0  0  0
 33 32  1  0  0  0  0
 34 33  1  0  0  0  0
 35 36  1  0  0  0  0
 36 37  1  0  0  0  0
 37 39  2  0  0  0  0
 37 38  1  0  0  0  0
 40 39  1  0  0  0  0
 41 40  2  0  0  0  0
 42 41  1  0  0  0  0
 43 42  2  0  0  0  0
 44 43  1  0  0  0  0
 44 45  2  0  0  0  0
 45 46  1  0  0  0  0
 46 41  1  0  0  0  0
 46 36  2  0  0  0  0
M  END
>  <minimizedAffinity>
-7.1367507

$$$$

 OpenBabel03252507563D

 46 50  0  0  1  0  0  0  0  0999 V2000
   39.0610   29.0190   38.8510 C   0  0  2  0  0  0  0  0  0  0  0  0
   38.4820   29.1900   37.5260 C   0  0  0  0  0  0  0  0  0  0  0  0
   37.7070   29.5580   38.7510 C   0  0  1  0  0  0  0  0  0  0  0  0
   39.1650   27.9870   39.2350 H   0  0  0  0  0  0  0  0  0  0  0  0
   38.7850   30.0810   36.9220 H   0  0  0  0  0  0  0  0  0  0  0  0
   38.0820   28.3610   36.9070 H   0  0  0  0  0  0  0  0  0  0  0  0
   37.5820   30.5710   39.1420 H   0  0  0  0  0  0  0  0  0  0  0  0
   40.7310   32.1650   39.3890 C   0  0  2  0  0  0  0  0  0  0  0  0
   40.7590   31.8710   37.8860 C   0  0  0  0  0  0  0  0  0  0  0  0
   41.0280   30.3530   37.9800 C   0  0  0  0  0  0  0  0  0  0  0  0
   40.2460   29.9000   39.1760 C   0  0  1  0  0  0  0  0  0  0  0  0
   39.7120   31.1460   39.8160 C   0  0  0  0  0  0  0  0  0  0  0  0
   41.7060   31.9280   39.8400 H   0  0  0  0  0  0  0  0  0  0  0  0
   39.7490   32.0570   37.5100 H   0  0  0  0  0  0  0  0  0  0  0  0
   41.5710   32.3810   37.3650 H   0  0  0  0  0  0  0  0  0  0  0  0
   40.7070   29.8690   37.0390 H   0  0  0  0  0  0  0  0  0  0  0  0
   42.1020   30.1930   38.1730 H   0  0  0  0  0  0  0  0  0  0  0  0
   40.8790   29.3670   39.9250 H   0  0  0  0  0  0  0  0  0  0  0  0
   38.7200   31.4050   39.3960 H   0  0  0  0  0  0  0  0  0  0  0  0
   39.5980   31.0670   40.9170 H   0  0  0  0  0  0  0  0  0  0  0  0
   38.6740   35.1940   40.2620 C   0  0  0  0  0  0  0  0  0  0  0  0
   38.9830   33.8520   40.0790 C   0  0  0  0  0  0  0  0  0  0  0  0
   40.2770   33.5590   39.6480 C   0  0  0  0  0  0  0  0  0  0  0  0
   41.1980   34.5880   39.4180 N   0  0  0  0  0  0  0  0  0  0  0  0
   40.8320   35.8820   39.6150 C   0  0  0  0  0  0  0  0  0  0  0  0
   39.5740   36.1800   40.0360 N   0  0  0  0  0  0  0  0  0  0  0  0
   37.6740   35.4390   40.5970 H   0  0  0  0  0  0  0  0  0  0  0  0
   38.2940   33.0390   40.2470 H   0  0  0  0  0  0  0  0  0  0  0  0
   41.6200   36.5920   39.4080 H   0  0  0  0  0  0  0  0  0  0  0  0
   36.6380   28.7030   39.1230 O   0  0  0  0  0  0  0  0  0  0  0  0
   36.2300   30.8520   40.5440 O   0  0  0  0  0  0  0  0  0  0  0  0
   35.8480   29.3980   40.4330 P   0  0  1  0  0  0  0  0  0  0  0  0
   34.1500   29.3230   40.2020 O   0  0  0  0  0  0  0  0  0  0  0  0
   33.8360   30.1560   39.7850 H   0  0  0  0  0  0  0  0  0  0  0  0
   36.1650   28.6580   41.8890 O   0  0  0  0  0  0  0  0  0  0  0  0
   37.4800   28.3950   42.2440 C   0  0  0  0  0  0  0  0  0  0  0  0
   38.4540   29.3200   42.5550 C   0  0  0  0  0  0  0  0  0  0  0  0
   38.1540   30.3540   42.5140 H   0  0  0  0  0  0  0  0  0  0  0  0
   39.7330   28.9370   42.8950 C   0  0  0  0  0  3  0  0  0  0  0  0
   40.0910   27.5870   42.9380 C   0  0  0  0  0  3  0  0  0  0  0  0
   39.1290   26.6490   42.6310 C   0  0  0  0  0  0  0  0  0  0  0  0
   39.4640   25.3010   42.6680 C   0  0  0  0  0  3  0  0  0  0  0  0
   38.5200   24.3210   42.3640 C   0  0  0  0  0  3  0  0  0  0  0  0
   37.2290   24.7130   42.0200 C   0  0  0  0  0  3  0  0  0  0  0  0
   36.9550   26.0570   42.0000 C   0  0  0  0  0  3  0  0  0  0  0  0
   37.8510   27.0610   42.2920 C   0  0  0  0  0  0  0  0  0  0  0  0
  1 11  1  0  0  0  0
  1  4  1  1  0  0  0
  2  3  1  0  0  0  0
  2  1  1  0  0  0  0
  3  1  1  0  0  0  0
  3 30  1  0  0  0  0
  3  7  1  1  0  0  0
  5  2  1  0  0  0  0
  6  2  1  0  0  0  0
  8 23  1  0  0  0  0
  8 12  1  0  0  0  0
  8 13  1  1  0  0  0
  9 10  1  0  0  0  0
  9  8  1  0  0  0  0
 10 17  1  0  0  0  0
 10 11  1  0  0  0  0
 11 12  1  0  0  0  0
 11 18  1  1  0  0  0
 12 20  1  0  0  0  0
 14  9  1  0  0  0  0
 15  9  1  0  0  0  0
 16 10  1  0  0  0  0
 19 12  1  0  0  0  0
 21 27  1  0  0  0  0
 22 28  1  0  0  0  0
 22 21  1  0  0  0  0
 23 22  2  0  0  0  0
 24 25  2  0  0  0  0
 24 23  1  0  0  0  0
 25 26  1  0  0  0  0
 26 21  2  0  0  0  0
 29 25  1  0  0  0  0
 30 32  1  0  0  0  0
 32 31  2  1  0  0  0
 32 35  1  0  0  0  0
 33 32  1  0  0  0  0
 34 33  1  0  0  0  0
 35 36  1  0  0  0  0
 36 46  2  0  0  0  0
 36 37  1  0  0  0  0
 37 39  2  0  0  0  0
 38 37  1  0  0  0  0
 39 40  1  0  0  0  0
 41 42  1  0  0  0  0
 41 40  2  0  0  0  0
 43 42  2  0  0  0  0
 44 43  1  0  0  0  0
 45 44  2  0  0  0  0
 45 46  1  0  0  0  0
 46 41  1  0  0  0  0
M  END
>  <minimizedAffinity>
-6.74248362

$$$$

 OpenBabel03252507563D

 46 50  0  0  1  0  0  0  0  0999 V2000
   37.0040   30.2300   39.7730 C   0  0  2  0  0  0  0  0  0  0  0  0
   35.8840   30.6630   40.5970 C   0  0  0  0  0  0  0  0  0  0  0  0
   37.0840   30.0210   41.2170 C   0  0  1  0  0  0  0  0  0  0  0  0
   36.8600   29.3340   39.1420 H   0  0  0  0  0  0  0  0  0  0  0  0
   35.7950   31.7490   40.8480 H   0  0  0  0  0  0  0  0  0  0  0  0
   34.9210   30.1170   40.6790 H   0  0  0  0  0  0  0  0  0  0  0  0
   37.8990   30.5500   41.7170 H   0  0  0  0  0  0  0  0  0  0  0  0
   39.5440   32.7750   39.5490 C   0  0  2  0  0  0  0  0  0  0  0  0
   38.3040   33.4060   40.1880 C   0  0  0  0  0  0  0  0  0  0  0  0
   37.2430   32.7070   39.3100 C   0  0  0  0  0  0  0  0  0  0  0  0
   37.7840   31.3270   39.0840 C   0  0  1  0  0  0  0  0  0  0  0  0
   39.1660   31.3250   39.6650 C   0  0  0  0  0  0  0  0  0  0  0  0
   39.6100   33.0580   38.4880 H   0  0  0  0  0  0  0  0  0  0  0  0
   38.2550   33.0320   41.2150 H   0  0  0  0  0  0  0  0  0  0  0  0
   38.2630   34.4890   40.0640 H   0  0  0  0  0  0  0  0  0  0  0  0
   36.2720   32.7150   39.8390 H   0  0  0  0  0  0  0  0  0  0  0  0
   37.1820   33.2300   38.3410 H   0  0  0  0  0  0  0  0  0  0  0  0
   37.8610   31.0700   38.0010 H   0  0  0  0  0  0  0  0  0  0  0  0
   39.1380   31.0260   40.7320 H   0  0  0  0  0  0  0  0  0  0  0  0
   39.8660   30.6390   39.1440 H   0  0  0  0  0  0  0  0  0  0  0  0
   42.5570   32.5830   41.7980 C   0  0  0  0  0  0  0  0  0  0  0  0
   41.4410   32.1480   41.0940 C   0  0  0  0  0  0  0  0  0  0  0  0
   40.7680   33.1010   40.3300 C   0  0  0  0  0  0  0  0  0  0  0  0
   41.2190   34.4270   40.2950 N   0  0  0  0  0  0  0  0  0  0  0  0
   42.3180   34.7880   41.0070 C   0  0  0  0  0  0  0  0  0  0  0  0
   42.9820   33.8670   41.7540 N   0  0  0  0  0  0  0  0  0  0  0  0
   43.0910   31.8550   42.3950 H   0  0  0  0  0  0  0  0  0  0  0  0
   41.0710   31.1340   41.1040 H   0  0  0  0  0  0  0  0  0  0  0  0
   42.5750   35.8340   40.9070 H   0  0  0  0  0  0  0  0  0  0  0  0
   36.9370   28.6930   41.6900 O   0  0  0  0  0  0  0  0  0  0  0  0
   38.9740   29.5530   43.0740 O   0  0  0  0  0  0  0  0  0  0  0  0
   37.8680   28.5280   43.0790 P   0  0  1  0  0  0  0  0  0  0  0  0
   36.9030   28.8120   44.4690 O   0  0  0  0  0  0  0  0  0  0  0  0
   36.9760   29.7560   44.7340 H   0  0  0  0  0  0  0  0  0  0  0  0
   38.5470   27.0220   43.2690 O   0  0  0  0  0  0  0  0  0  0  0  0
   38.1920   26.0030   42.3970 C   0  0  0  0  0  0  0  0  0  0  0  0
   36.9940   25.3220   42.3630 C   0  0  0  0  0  0  0  0  0  0  0  0
   36.2610   25.6190   43.0960 H   0  0  0  0  0  0  0  0  0  0  0  0
   36.7540   24.3230   41.4450 C   0  0  0  0  0  3  0  0  0  0  0  0
   37.7260   23.9600   40.5090 C   0  0  0  0  0  3  0  0  0  0  0  0
   38.9300   24.6310   40.5280 C   0  0  0  0  0  0  0  0  0  0  0  0
   39.9100   24.2870   39.6040 C   0  0  0  0  0  3  0  0  0  0  0  0
   41.1410   24.9410   39.5910 C   0  0  0  0  0  3  0  0  0  0  0  0
   41.3780   25.9500   40.5210 C   0  0  0  0  0  3  0  0  0  0  0  0
   40.3750   26.2480   41.4080 C   0  0  0  0  0  3  0  0  0  0  0  0
   39.1440   25.6320   41.4610 C   0  0  0  0  0  0  0  0  0  0  0  0
  1  4  1  6  0  0  0
  1  2  1  0  0  0  0
  1  3  1  0  0  0  0
  2  6  1  0  0  0  0
  2  5  1  0  0  0  0
  2  3  1  0  0  0  0
  3 30  1  0  0  0  0
  3  7  1  1  0  0  0
  8 13  1  6  0  0  0
  8 12  1  0  0  0  0
  8  9  1  0  0  0  0
  8 23  1  0  0  0  0
  9 14  1  0  0  0  0
 10 16  1  0  0  0  0
 10  9  1  0  0  0  0
 11 18  1  6  0  0  0
 11 10  1  0  0  0  0
 11 12  1  0  0  0  0
 11  1  1  0  0  0  0
 12 19  1  0  0  0  0
 15  9  1  0  0  0  0
 17 10  1  0  0  0  0
 20 12  1  0  0  0  0
 21 27  1  0  0  0  0
 22 28  1  0  0  0  0
 22 21  2  0  0  0  0
 23 22  1  0  0  0  0
 24 23  2  0  0  0  0
 24 25  1  0  0  0  0
 25 26  2  0  0  0  0
 26 21  1  0  0  0  0
 29 25  1  0  0  0  0
 30 32  1  0  0  0  0
 32 31  2  6  0  0  0
 32 35  1  0  0  0  0
 32 33  1  0  0  0  0
 33 34  1  0  0  0  0
 36 35  1  0  0  0  0
 37 36  1  0  0  0  0
 37 38  1  0  0  0  0
 39 37  2  0  0  0  0
 40 41  2  0  0  0  0
 40 39  1  0  0  0  0
 41 46  1  0  0  0  0
 42 41  1  0  0  0  0
 43 42  2  0  0  0  0
 43 44  1  0  0  0  0
 44 45  2  0  0  0  0
 45 46  1  0  0  0  0
 46 36  2  0  0  0  0
M  END
>  <minimizedAffinity>
-6.64242697

$$$$

 OpenBabel03252507563D

 46 50  0  0  1  0  0  0  0  0999 V2000
   36.8670   28.2150   40.0180 C   0  0  2  0  0  0  0  0  0  0  0  0
   35.5070   28.7300   40.0850 C   0  0  0  0  0  0  0  0  0  0  0  0
   36.4300   28.8590   41.2550 C   0  0  1  0  0  0  0  0  0  0  0  0
   37.0010   27.1170   40.0410 H   0  0  0  0  0  0  0  0  0  0  0  0
   35.2830   29.7120   39.6000 H   0  0  0  0  0  0  0  0  0  0  0  0
   34.6050   28.0970   40.2220 H   0  0  0  0  0  0  0  0  0  0  0  0
   36.9840   29.7590   41.5290 H   0  0  0  0  0  0  0  0  0  0  0  0
   38.6440   31.0400   38.6620 C   0  0  2  0  0  0  0  0  0  0  0  0
   37.2370   31.0380   38.0570 C   0  0  0  0  0  0  0  0  0  0  0  0
   37.1030   29.5120   37.8570 C   0  0  0  0  0  0  0  0  0  0  0  0
   37.7920   28.9100   39.0440 C   0  0  1  0  0  0  0  0  0  0  0  0
   38.4310   30.0520   39.7750 C   0  0  0  0  0  0  0  0  0  0  0  0
   39.3680   30.6360   37.9380 H   0  0  0  0  0  0  0  0  0  0  0  0
   36.5560   31.3800   38.8420 H   0  0  0  0  0  0  0  0  0  0  0  0
   37.1800   31.5640   37.1030 H   0  0  0  0  0  0  0  0  0  0  0  0
   36.0310   29.2470   37.7930 H   0  0  0  0  0  0  0  0  0  0  0  0
   37.6480   29.2230   36.9430 H   0  0  0  0  0  0  0  0  0  0  0  0
   38.5940   28.1900   38.7540 H   0  0  0  0  0  0  0  0  0  0  0  0
   37.7330   30.4730   40.5250 H   0  0  0  0  0  0  0  0  0  0  0  0
   39.3650   29.7740   40.3060 H   0  0  0  0  0  0  0  0  0  0  0  0
   38.5180   34.4710   40.2050 C   0  0  0  0  0  0  0  0  0  0  0  0
   38.0690   33.2220   39.7960 C   0  0  0  0  0  0  0  0  0  0  0  0
   39.0000   32.3930   39.1700 C   0  0  0  0  0  0  0  0  0  0  0  0
   40.3170   32.8270   38.9750 N   0  0  0  0  0  0  0  0  0  0  0  0
   40.6930   34.0620   39.3990 C   0  0  0  0  0  0  0  0  0  0  0  0
   39.7950   34.8780   40.0110 N   0  0  0  0  0  0  0  0  0  0  0  0
   37.8080   35.1270   40.6930 H   0  0  0  0  0  0  0  0  0  0  0  0
   37.0600   32.8620   39.9330 H   0  0  0  0  0  0  0  0  0  0  0  0
   41.7300   34.2920   39.1970 H   0  0  0  0  0  0  0  0  0  0  0  0
   36.1830   28.0190   42.3710 O   0  0  0  0  0  0  0  0  0  0  0  0
   38.0550   29.6250   43.2200 O   0  0  0  0  0  0  0  0  0  0  0  0
   37.3770   28.3110   43.5160 P   0  0  1  0  0  0  0  0  0  0  0  0
   36.6780   28.4280   45.0770 O   0  0  0  0  0  0  0  0  0  0  0  0
   36.4850   29.3700   45.2840 H   0  0  0  0  0  0  0  0  0  0  0  0
   38.5420   27.1260   43.6010 O   0  0  0  0  0  0  0  0  0  0  0  0
   39.3060   26.8430   42.4790 C   0  0  0  0  0  0  0  0  0  0  0  0
   40.3790   27.5660   42.0040 C   0  0  0  0  0  0  0  0  0  0  0  0
   40.6460   28.4430   42.5720 H   0  0  0  0  0  0  0  0  0  0  0  0
   41.0650   27.1850   40.8710 C   0  0  0  0  0  3  0  0  0  0  0  0
   40.6930   26.0440   40.1570 C   0  0  0  0  0  3  0  0  0  0  0  0
   39.6220   25.3080   40.6180 C   0  0  0  0  0  0  0  0  0  0  0  0
   39.2360   24.1690   39.9220 C   0  0  0  0  0  3  0  0  0  0  0  0
   38.1580   23.3980   40.3550 C   0  0  0  0  0  3  0  0  0  0  0  0
   37.4680   23.7880   41.5000 C   0  0  0  0  0  3  0  0  0  0  0  0
   37.8930   24.9210   42.1460 C   0  0  0  0  0  3  0  0  0  0  0  0
   38.9500   25.7140   41.7590 C   0  0  0  0  0  0  0  0  0  0  0  0
  1  4  1  1  0  0  0
  1  2  1  0  0  0  0
  1  3  1  0  0  0  0
  2  6  1  0  0  0  0
  2  3  1  0  0  0  0
  3  7  1  1  0  0  0
  3 30  1  0  0  0  0
  5  2  1  0  0  0  0
  8 13  1  6  0  0  0
  8 23  1  0  0  0  0
  8 12  1  0  0  0  0
  9  8  1  0  0  0  0
  9 14  1  0  0  0  0
 10  9  1  0  0  0  0
 10 11  1  0  0  0  0
 11 18  1  6  0  0  0
 11 12  1  0  0  0  0
 11  1  1  0  0  0  0
 12 20  1  0  0  0  0
 12 19  1  0  0  0  0
 15  9  1  0  0  0  0
 16 10  1  0  0  0  0
 17 10  1  0  0  0  0
 21 27  1  0  0  0  0
 22 28  1  0  0  0  0
 22 21  2  0  0  0  0
 23 22  1  0  0  0  0
 24 23  2  0  0  0  0
 24 25  1  0  0  0  0
 25 26  2  0  0  0  0
 26 21  1  0  0  0  0
 29 25  1  0  0  0  0
 30 32  1  0  0  0  0
 32 31  2  6  0  0  0
 32 35  1  0  0  0  0
 32 33  1  0  0  0  0
 33 34  1  0  0  0  0
 36 35  1  0  0  0  0
 37 36  1  0  0  0  0
 37 38  1  0  0  0  0
 39 37  2  0  0  0  0
 40 41  2  0  0  0  0
 40 39  1  0  0  0  0
 41 46  1  0  0  0  0
 42 43  2  0  0  0  0
 42 41  1  0  0  0  0
 43 44  1  0  0  0  0
 44 45  2  0  0  0  0
 46 45  1  0  0  0  0
 46 36  2  0  0  0  0
M  END
>  <minimizedAffinity>
-6.56091452

$$$$

 OpenBabel03252507563D

 46 50  0  0  1  0  0  0  0  0999 V2000
   36.4930   30.1760   38.6130 C   0  0  2  0  0  0  0  0  0  0  0  0
   35.3180   29.3160   38.6280 C   0  0  0  0  0  0  0  0  0  0  0  0
   36.6870   28.7390   38.7970 C   0  0  1  0  0  0  0  0  0  0  0  0
   36.8020   30.6060   37.6420 H   0  0  0  0  0  0  0  0  0  0  0  0
   34.7070   29.2640   39.5640 H   0  0  0  0  0  0  0  0  0  0  0  0
   34.7520   29.0160   37.7220 H   0  0  0  0  0  0  0  0  0  0  0  0
   37.1410   28.4510   39.7480 H   0  0  0  0  0  0  0  0  0  0  0  0
   38.0510   32.8360   40.4770 C   0  0  2  0  0  0  0  0  0  0  0  0
   38.7150   31.5210   40.8960 C   0  0  0  0  0  0  0  0  0  0  0  0
   37.4410   30.6460   40.9120 C   0  0  0  0  0  0  0  0  0  0  0  0
   36.6190   31.1480   39.7640 C   0  0  1  0  0  0  0  0  0  0  0  0
   37.3290   32.3630   39.2470 C   0  0  0  0  0  0  0  0  0  0  0  0
   37.3230   33.1530   41.2390 H   0  0  0  0  0  0  0  0  0  0  0  0
   39.3700   31.2230   40.0720 H   0  0  0  0  0  0  0  0  0  0  0  0
   39.1710   31.5670   41.8850 H   0  0  0  0  0  0  0  0  0  0  0  0
   37.7290   29.5830   40.8120 H   0  0  0  0  0  0  0  0  0  0  0  0
   36.8940   30.8320   41.8520 H   0  0  0  0  0  0  0  0  0  0  0  0
   35.5900   31.4520   40.0750 H   0  0  0  0  0  0  0  0  0  0  0  0
   38.0600   32.0820   38.4640 H   0  0  0  0  0  0  0  0  0  0  0  0
   36.6490   33.1240   38.8110 H   0  0  0  0  0  0  0  0  0  0  0  0
   39.8530   36.1000   39.9570 C   0  0  0  0  0  0  0  0  0  0  0  0
   38.8230   35.2340   40.3030 C   0  0  0  0  0  0  0  0  0  0  0  0
   39.0760   33.8700   40.1660 C   0  0  0  0  0  0  0  0  0  0  0  0
   40.3180   33.4230   39.6980 N   0  0  0  0  0  0  0  0  0  0  0  0
   41.2850   34.3230   39.3760 C   0  0  0  0  0  0  0  0  0  0  0  0
   41.0490   35.6550   39.5070 N   0  0  0  0  0  0  0  0  0  0  0  0
   39.6730   37.1630   40.0580 H   0  0  0  0  0  0  0  0  0  0  0  0
   37.8570   35.5510   40.6650 H   0  0  0  0  0  0  0  0  0  0  0  0
   42.2010   33.8680   39.0270 H   0  0  0  0  0  0  0  0  0  0  0  0
   37.2230   28.0120   37.7040 O   0  0  0  0  0  0  0  0  0  0  0  0
   39.1200   26.3140   37.1330 O   0  0  0  0  0  0  0  0  0  0  0  0
   38.5210   27.1050   38.2690 P   0  0  1  0  0  0  0  0  0  0  0  0
   39.7410   28.1440   38.8780 O   0  0  0  0  0  0  0  0  0  0  0  0
   40.3980   28.3330   38.1710 H   0  0  0  0  0  0  0  0  0  0  0  0
   38.1320   26.0520   39.4960 O   0  0  0  0  0  0  0  0  0  0  0  0
   38.9280   26.0080   40.6300 C   0  0  0  0  0  0  0  0  0  0  0  0
   40.1830   25.4480   40.7400 C   0  0  0  0  0  0  0  0  0  0  0  0
   40.5800   24.9990   39.8440 H   0  0  0  0  0  0  0  0  0  0  0  0
   40.8830   25.4660   41.9270 C   0  0  0  0  0  3  0  0  0  0  0  0
   40.3400   26.0570   43.0720 C   0  0  0  0  0  3  0  0  0  0  0  0
   39.0860   26.6220   42.9790 C   0  0  0  0  0  0  0  0  0  0  0  0
   38.5290   27.2150   44.1060 C   0  0  0  0  0  3  0  0  0  0  0  0
   37.2630   27.7970   44.0550 C   0  0  0  0  0  3  0  0  0  0  0  0
   36.5600   27.7760   42.8530 C   0  0  0  0  0  3  0  0  0  0  0  0
   37.1590   27.1770   41.7740 C   0  0  0  0  0  3  0  0  0  0  0  0
   38.4050   26.5900   41.7740 C   0  0  0  0  0  0  0  0  0  0  0  0
  1  4  1  6  0  0  0
  1  2  1  0  0  0  0
  1  3  1  0  0  0  0
  1 11  1  0  0  0  0
  2  3  1  0  0  0  0
  2  5  1  0  0  0  0
  3  7  1  1  0  0  0
  6  2  1  0  0  0  0
  8  9  1  0  0  0  0
  8 13  1  1  0  0  0
  9 10  1  0  0  0  0
  9 15  1  0  0  0  0
 10 17  1  0  0  0  0
 11 18  1  1  0  0  0
 11 10  1  0  0  0  0
 12 11  1  0  0  0  0
 12  8  1  0  0  0  0
 14  9  1  0  0  0  0
 16 10  1  0  0  0  0
 19 12  1  0  0  0  0
 20 12  1  0  0  0  0
 21 27  1  0  0  0  0
 21 22  1  0  0  0  0
 22 28  1  0  0  0  0
 23 22  2  0  0  0  0
 23  8  1  0  0  0  0
 24 23  1  0  0  0  0
 25 26  1  0  0  0  0
 25 24  2  0  0  0  0
 26 21  2  0  0  0  0
 29 25  1  0  0  0  0
 30 32  1  0  0  0  0
 30  3  1  0  0  0  0
 32 31  2  6  0  0  0
 32 33  1  0  0  0  0
 32 35  1  0  0  0  0
 34 33  1  0  0  0  0
 35 36  1  0  0  0  0
 36 37  2  0  0  0  0
 36 46  1  0  0  0  0
 37 39  1  0  0  0  0
 38 37  1  0  0  0  0
 39 40  2  0  0  0  0
 41 40  1  0  0  0  0
 41 42  1  0  0  0  0
 43 42  2  0  0  0  0
 44 43  1  0  0  0  0
 45 46  1  0  0  0  0
 45 44  2  0  0  0  0
 46 41  2  0  0  0  0
M  END
>  <minimizedAffinity>
-6.53885937

$$$$

 OpenBabel03252507563D

 46 50  0  0  1  0  0  0  0  0999 V2000
   36.7090   28.7230   39.8750 C   0  0  2  0  0  0  0  0  0  0  0  0
   35.4530   29.4350   40.0630 C   0  0  0  0  0  0  0  0  0  0  0  0
   36.4090   29.2620   41.2000 C   0  0  1  0  0  0  0  0  0  0  0  0
   36.6620   27.6240   39.7560 H   0  0  0  0  0  0  0  0  0  0  0  0
   35.3840   30.4950   39.7130 H   0  0  0  0  0  0  0  0  0  0  0  0
   34.4640   28.9430   40.1580 H   0  0  0  0  0  0  0  0  0  0  0  0
   37.1100   30.0190   41.5610 H   0  0  0  0  0  0  0  0  0  0  0  0
   38.7270   31.4560   38.6780 C   0  0  2  0  0  0  0  0  0  0  0  0
   37.3460   31.5740   38.0270 C   0  0  0  0  0  0  0  0  0  0  0  0
   37.1120   30.0690   37.7700 C   0  0  0  0  0  0  0  0  0  0  0  0
   37.7140   29.3810   38.9580 C   0  0  1  0  0  0  0  0  0  0  0  0
   38.4060   30.4510   39.7480 C   0  0  0  0  0  0  0  0  0  0  0  0
   39.4470   31.0260   37.9660 H   0  0  0  0  0  0  0  0  0  0  0  0
   36.6640   31.9380   38.8010 H   0  0  0  0  0  0  0  0  0  0  0  0
   37.3600   32.1330   37.0910 H   0  0  0  0  0  0  0  0  0  0  0  0
   36.0280   29.8830   37.6610 H   0  0  0  0  0  0  0  0  0  0  0  0
   37.6680   29.7720   36.8650 H   0  0  0  0  0  0  0  0  0  0  0  0
   38.4740   28.6150   38.6690 H   0  0  0  0  0  0  0  0  0  0  0  0
   37.7130   30.8960   40.4890 H   0  0  0  0  0  0  0  0  0  0  0  0
   39.2980   30.0900   40.3010 H   0  0  0  0  0  0  0  0  0  0  0  0
   38.8100   34.7870   40.4300 C   0  0  0  0  0  0  0  0  0  0  0  0
   38.2950   33.5800   39.9740 C   0  0  0  0  0  0  0  0  0  0  0  0
   39.1590   32.7630   39.2450 C   0  0  0  0  0  0  0  0  0  0  0  0
   40.4770   33.1670   38.9990 N   0  0  0  0  0  0  0  0  0  0  0  0
   40.9200   34.3610   39.4720 C   0  0  0  0  0  0  0  0  0  0  0  0
   40.0870   35.1650   40.1850 N   0  0  0  0  0  0  0  0  0  0  0  0
   38.1530   35.4330   40.9980 H   0  0  0  0  0  0  0  0  0  0  0  0
   37.2840   33.2450   40.1480 H   0  0  0  0  0  0  0  0  0  0  0  0
   41.9510   34.5710   39.2240 H   0  0  0  0  0  0  0  0  0  0  0  0
   36.0520   28.3360   42.2120 O   0  0  0  0  0  0  0  0  0  0  0  0
   38.2030   29.4830   43.1410 O   0  0  0  0  0  0  0  0  0  0  0  0
   37.2920   28.2990   43.3460 P   0  0  1  0  0  0  0  0  0  0  0  0
   36.6430   28.4110   44.9290 O   0  0  0  0  0  0  0  0  0  0  0  0
   36.6350   29.3510   45.2170 H   0  0  0  0  0  0  0  0  0  0  0  0
   38.2120   26.9130   43.3020 O   0  0  0  0  0  0  0  0  0  0  0  0
   37.9990   25.9900   42.2900 C   0  0  0  0  0  0  0  0  0  0  0  0
   37.0630   24.9780   42.2740 C   0  0  0  0  0  0  0  0  0  0  0  0
   36.4330   24.9050   43.1460 H   0  0  0  0  0  0  0  0  0  0  0  0
   36.9450   24.1170   41.2050 C   0  0  0  0  0  3  0  0  0  0  0  0
   37.7780   24.2380   40.0900 C   0  0  0  0  0  3  0  0  0  0  0  0
   38.7200   25.2450   40.0890 C   0  0  0  0  0  0  0  0  0  0  0  0
   39.5580   25.3830   38.9890 C   0  0  0  0  0  3  0  0  0  0  0  0
   40.5250   26.3880   38.9480 C   0  0  0  0  0  3  0  0  0  0  0  0
   40.6400   27.2550   40.0320 C   0  0  0  0  0  3  0  0  0  0  0  0
   39.7860   27.0720   41.0900 C   0  0  0  0  0  3  0  0  0  0  0  0
   38.8170   26.0960   41.1760 C   0  0  0  0  0  0  0  0  0  0  0  0
  1  4  1  6  0  0  0
  1  2  1  0  0  0  0
  1  3  1  0  0  0  0
  2  6  1  0  0  0  0
  2  3  1  0  0  0  0
  3  7  1  1  0  0  0
  3 30  1  0  0  0  0
  5  2  1  0  0  0  0
  8 13  1  6  0  0  0
  8 23  1  0  0  0  0
  8 12  1  0  0  0  0
  9  8  1  0  0  0  0
  9 14  1  0  0  0  0
 10  9  1  0  0  0  0
 10 11  1  0  0  0  0
 11 18  1  6  0  0  0
 11 12  1  0  0  0  0
 11  1  1  0  0  0  0
 12 20  1  0  0  0  0
 12 19  1  0  0  0  0
 15  9  1  0  0  0  0
 16 10  1  0  0  0  0
 17 10  1  0  0  0  0
 21 27  1  0  0  0  0
 22 28  1  0  0  0  0
 22 21  2  0  0  0  0
 23 22  1  0  0  0  0
 24 23  2  0  0  0  0
 24 25  1  0  0  0  0
 25 26  2  0  0  0  0
 26 21  1  0  0  0  0
 29 25  1  0  0  0  0
 30 32  1  0  0  0  0
 32 31  2  6  0  0  0
 32 33  1  0  0  0  0
 33 34  1  0  0  0  0
 35 32  1  0  0  0  0
 36 35  1  0  0  0  0
 37 36  1  0  0  0  0
 37 38  1  0  0  0  0
 39 37  2  0  0  0  0
 40 39  1  0  0  0  0
 41 40  2  0  0  0  0
 41 46  1  0  0  0  0
 42 41  1  0  0  0  0
 43 42  2  0  0  0  0
 43 44  1  0  0  0  0
 44 45  2  0  0  0  0
 45 46  1  0  0  0  0
 46 36  2  0  0  0  0
M  END
>  <minimizedAffinity>
-6.53665733

$$$$

 OpenBabel03252507563D

 46 50  0  0  1  0  0  0  0  0999 V2000
   37.0440   30.0850   38.3470 C   0  0  2  0  0  0  0  0  0  0  0  0
   36.1600   28.9490   38.5690 C   0  0  0  0  0  0  0  0  0  0  0  0
   37.5770   28.9170   39.0460 C   0  0  1  0  0  0  0  0  0  0  0  0
   37.4020   30.2610   37.3160 H   0  0  0  0  0  0  0  0  0  0  0  0
   35.4220   29.0040   39.4080 H   0  0  0  0  0  0  0  0  0  0  0  0
   35.8750   28.2170   37.7860 H   0  0  0  0  0  0  0  0  0  0  0  0
   37.9060   29.1020   40.0710 H   0  0  0  0  0  0  0  0  0  0  0  0
   37.7650   33.1930   40.0200 C   0  0  2  0  0  0  0  0  0  0  0  0
   37.8820   32.0680   41.0520 C   0  0  0  0  0  0  0  0  0  0  0  0
   36.6780   31.2270   40.5760 C   0  0  0  0  0  0  0  0  0  0  0  0
   36.6880   31.3570   39.0820 C   0  0  1  0  0  0  0  0  0  0  0  0
   37.7470   32.3690   38.7630 C   0  0  0  0  0  0  0  0  0  0  0  0
   36.8040   33.7160   40.1360 H   0  0  0  0  0  0  0  0  0  0  0  0
   38.8190   31.5440   40.8410 H   0  0  0  0  0  0  0  0  0  0  0  0
   37.7400   32.4100   42.0770 H   0  0  0  0  0  0  0  0  0  0  0  0
   36.8010   30.1850   40.9250 H   0  0  0  0  0  0  0  0  0  0  0  0
   35.7510   31.6790   40.9670 H   0  0  0  0  0  0  0  0  0  0  0  0
   35.7160   31.7300   38.6780 H   0  0  0  0  0  0  0  0  0  0  0  0
   38.7270   31.8730   38.6220 H   0  0  0  0  0  0  0  0  0  0  0  0
   37.5360   32.9590   37.8470 H   0  0  0  0  0  0  0  0  0  0  0  0
   40.0000   36.2180   40.1560 C   0  0  0  0  0  0  0  0  0  0  0  0
   38.8220   35.4840   40.1220 C   0  0  0  0  0  0  0  0  0  0  0  0
   38.9470   34.0960   40.0840 C   0  0  0  0  0  0  0  0  0  0  0  0
   40.2130   33.4980   40.0800 N   0  0  0  0  0  0  0  0  0  0  0  0
   41.3280   34.2740   40.1140 C   0  0  0  0  0  0  0  0  0  0  0  0
   41.2190   35.6280   40.1520 N   0  0  0  0  0  0  0  0  0  0  0  0
   39.9210   37.2980   40.1870 H   0  0  0  0  0  0  0  0  0  0  0  0
   37.8330   35.9180   40.1230 H   0  0  0  0  0  0  0  0  0  0  0  0
   42.2500   33.7090   40.1070 H   0  0  0  0  0  0  0  0  0  0  0  0
   38.4820   28.0910   38.3320 O   0  0  0  0  0  0  0  0  0  0  0  0
   41.0570   27.8150   38.0190 O   0  0  0  0  0  0  0  0  0  0  0  0
   40.0130   28.3080   38.9900 P   0  0  1  0  0  0  0  0  0  0  0  0
   40.3040   29.9760   39.2620 O   0  0  0  0  0  0  0  0  0  0  0  0
   40.7670   30.3620   38.4850 H   0  0  0  0  0  0  0  0  0  0  0  0
   40.2440   27.5380   40.4460 O   0  0  0  0  0  0  0  0  0  0  0  0
   39.2570   27.6140   41.4170 C   0  0  0  0  0  0  0  0  0  0  0  0
   39.0150   28.6690   42.2710 C   0  0  0  0  0  0  0  0  0  0  0  0
   39.6680   29.5210   42.1660 H   0  0  0  0  0  0  0  0  0  0  0  0
   37.9990   28.6300   43.2010 C   0  0  0  0  0  3  0  0  0  0  0  0
   37.1700   27.5110   43.3130 C   0  0  0  0  0  3  0  0  0  0  0  0
   37.3980   26.4470   42.4660 C   0  0  0  0  0  0  0  0  0  0  0  0
   36.5840   25.3230   42.5600 C   0  0  0  0  0  3  0  0  0  0  0  0
   36.7810   24.2260   41.7220 C   0  0  0  0  0  3  0  0  0  0  0  0
   37.8100   24.2710   40.7850 C   0  0  0  0  0  3  0  0  0  0  0  0
   38.5810   25.4040   40.7370 C   0  0  0  0  0  3  0  0  0  0  0  0
   38.4260   26.5120   41.5410 C   0  0  0  0  0  0  0  0  0  0  0  0
  1  4  1  6  0  0  0
  1  2  1  0  0  0  0
  1  3  1  0  0  0  0
  1 11  1  0  0  0  0
  2  3  1  0  0  0  0
  2  5  1  0  0  0  0
  3  7  1  1  0  0  0
  6  2  1  0  0  0  0
  8 23  1  0  0  0  0
  8 13  1  1  0  0  0
  8  9  1  0  0  0  0
  9 15  1  0  0  0  0
 10 16  1  0  0  0  0
 10 17  1  0  0  0  0
 10  9  1  0  0  0  0
 11 18  1  6  0  0  0
 11 10  1  0  0  0  0
 12 11  1  0  0  0  0
 12  8  1  0  0  0  0
 14  9  1  0  0  0  0
 19 12  1  0  0  0  0
 20 12  1  0  0  0  0
 21 27  1  0  0  0  0
 22 28  1  0  0  0  0
 22 21  2  0  0  0  0
 23 22  1  0  0  0  0
 24 23  2  0  0  0  0
 24 25  1  0  0  0  0
 25 26  2  0  0  0  0
 26 21  1  0  0  0  0
 29 25  1  0  0  0  0
 30 32  1  0  0  0  0
 30  3  1  0  0  0  0
 32 31  2  6  0  0  0
 32 33  1  0  0  0  0
 32 35  1  0  0  0  0
 34 33  1  0  0  0  0
 35 36  1  0  0  0  0
 36 46  2  0  0  0  0
 36 37  1  0  0  0  0
 37 39  2  0  0  0  0
 38 37  1  0  0  0  0
 39 40  1  0  0  0  0
 41 42  1  0  0  0  0
 41 40  2  0  0  0  0
 43 42  2  0  0  0  0
 44 43  1  0  0  0  0
 45 44  2  0  0  0  0
 45 46  1  0  0  0  0
 46 41  1  0  0  0  0
M  END
>  <minimizedAffinity>
-6.47373962

$$$$

 OpenBabel03252507563D

 46 50  0  0  1  0  0  0  0  0999 V2000
   39.2550   30.8820   39.0240 C   0  0  2  0  0  0  0  0  0  0  0  0
   38.9350   30.1350   37.8150 C   0  0  0  0  0  0  0  0  0  0  0  0
   37.9090   30.3280   38.8860 C   0  0  1  0  0  0  0  0  0  0  0  0
   39.9240   30.4010   39.7610 H   0  0  0  0  0  0  0  0  0  0  0  0
   38.7000   30.7060   36.8820 H   0  0  0  0  0  0  0  0  0  0  0  0
   39.2670   29.0950   37.6170 H   0  0  0  0  0  0  0  0  0  0  0  0
   37.1040   31.0670   38.8670 H   0  0  0  0  0  0  0  0  0  0  0  0
   40.7030   34.0620   39.9010 C   0  0  2  0  0  0  0  0  0  0  0  0
   39.3860   33.9200   40.6690 C   0  0  0  0  0  0  0  0  0  0  0  0
   38.5620   33.2610   39.5410 C   0  0  0  0  0  0  0  0  0  0  0  0
   39.5290   32.3570   38.8390 C   0  0  1  0  0  0  0  0  0  0  0  0
   40.8720   32.6400   39.4440 C   0  0  0  0  0  0  0  0  0  0  0  0
   40.5650   34.7190   39.0300 H   0  0  0  0  0  0  0  0  0  0  0  0
   39.5670   33.2030   41.4760 H   0  0  0  0  0  0  0  0  0  0  0  0
   38.9540   34.8780   40.9610 H   0  0  0  0  0  0  0  0  0  0  0  0
   37.7040   32.7220   39.9850 H   0  0  0  0  0  0  0  0  0  0  0  0
   38.2290   34.0440   38.8390 H   0  0  0  0  0  0  0  0  0  0  0  0
   39.5910   32.5640   37.7440 H   0  0  0  0  0  0  0  0  0  0  0  0
   41.0510   31.9820   40.3160 H   0  0  0  0  0  0  0  0  0  0  0  0
   41.7170   32.4970   38.7380 H   0  0  0  0  0  0  0  0  0  0  0  0
   43.8200   34.1760   42.0080 C   0  0  0  0  0  0  0  0  0  0  0  0
   42.8710   33.6640   41.1320 C   0  0  0  0  0  0  0  0  0  0  0  0
   41.8010   34.4960   40.8080 C   0  0  0  0  0  0  0  0  0  0  0  0
   41.7110   35.7820   41.3550 N   0  0  0  0  0  0  0  0  0  0  0  0
   42.6730   36.2230   42.2070 C   0  0  0  0  0  0  0  0  0  0  0  0
   43.7220   35.4210   42.5300 N   0  0  0  0  0  0  0  0  0  0  0  0
   44.6580   33.5430   42.2700 H   0  0  0  0  0  0  0  0  0  0  0  0
   42.9150   32.6770   40.6960 H   0  0  0  0  0  0  0  0  0  0  0  0
   42.5040   37.2280   42.5690 H   0  0  0  0  0  0  0  0  0  0  0  0
   37.5860   29.2020   39.6840 O   0  0  0  0  0  0  0  0  0  0  0  0
   36.1370   31.1420   40.6550 O   0  0  0  0  0  0  0  0  0  0  0  0
   36.5240   29.7040   40.8870 P   0  0  1  0  0  0  0  0  0  0  0  0
   35.0900   28.7650   40.8320 O   0  0  0  0  0  0  0  0  0  0  0  0
   34.4160   29.2230   40.2810 H   0  0  0  0  0  0  0  0  0  0  0  0
   37.1290   29.5630   42.4300 O   0  0  0  0  0  0  0  0  0  0  0  0
   38.1350   28.6430   42.6830 C   0  0  0  0  0  0  0  0  0  0  0  0
   37.9880   27.2840   42.8670 C   0  0  0  0  0  0  0  0  0  0  0  0
   36.9810   26.9060   42.8070 H   0  0  0  0  0  0  0  0  0  0  0  0
   39.0690   26.4660   43.1130 C   0  0  0  0  0  3  0  0  0  0  0  0
   40.3630   26.9880   43.1860 C   0  0  0  0  0  3  0  0  0  0  0  0
   40.5290   28.3440   43.0030 C   0  0  0  0  0  0  0  0  0  0  0  0
   41.8080   28.8830   43.0710 C   0  0  0  0  0  3  0  0  0  0  0  0
   42.0180   30.2500   42.8920 C   0  0  0  0  0  3  0  0  0  0  0  0
   40.9210   31.0730   42.6440 C   0  0  0  0  0  3  0  0  0  0  0  0
   39.6830   30.4860   42.5880 C   0  0  0  0  0  3  0  0  0  0  0  0
   39.4250   29.1440   42.7570 C   0  0  0  0  0  0  0  0  0  0  0  0
  1  4  1  1  0  0  0
  2  3  1  0  0  0  0
  2  1  1  0  0  0  0
  3  7  1  6  0  0  0
  3  1  1  0  0  0  0
  3 30  1  0  0  0  0
  5  2  1  0  0  0  0
  6  2  1  0  0  0  0
  8 13  1  6  0  0  0
  8  9  1  0  0  0  0
  8 23  1  0  0  0  0
  9 15  1  0  0  0  0
  9 14  1  0  0  0  0
 10 16  1  0  0  0  0
 10  9  1  0  0  0  0
 11 18  1  6  0  0  0
 11  1  1  0  0  0  0
 11 12  1  0  0  0  0
 11 10  1  0  0  0  0
 12  8  1  0  0  0  0
 12 19  1  0  0  0  0
 17 10  1  0  0  0  0
 20 12  1  0  0  0  0
 21 27  1  0  0  0  0
 21 26  1  0  0  0  0
 22 21  2  0  0  0  0
 23 22  1  0  0  0  0
 23 24  2  0  0  0  0
 24 25  1  0  0  0  0
 25 26  2  0  0  0  0
 25 29  1  0  0  0  0
 28 22  1  0  0  0  0
 30 32  1  0  0  0  0
 32 31  2  6  0  0  0
 32 35  1  0  0  0  0
 33 32  1  0  0  0  0
 34 33  1  0  0  0  0
 35 36  1  0  0  0  0
 36 46  2  0  0  0  0
 36 37  1  0  0  0  0
 37 39  2  0  0  0  0
 38 37  1  0  0  0  0
 39 40  1  0  0  0  0
 41 42  1  0  0  0  0
 41 40  2  0  0  0  0
 43 42  2  0  0  0  0
 44 43  1  0  0  0  0
 45 44  2  0  0  0  0
 45 46  1  0  0  0  0
 46 41  1  0  0  0  0
M  END
>  <minimizedAffinity>
-6.37492466

$$$$
