
 OpenBabel03252507553D

 46 50  0  0  1  0  0  0  0  0999 V2000
   49.1060   32.1930   40.5900 C   0  0  2  0  0  0  0  0  0  0  0  0
   49.9420   31.6490   41.6510 C   0  0  0  0  0  0  0  0  0  0  0  0
   50.4920   31.8510   40.2750 C   0  0  1  0  0  0  0  0  0  0  0  0
   48.3190   31.5400   40.1720 H   0  0  0  0  0  0  0  0  0  0  0  0
   50.3800   32.3540   42.4000 H   0  0  0  0  0  0  0  0  0  0  0  0
   49.8810   30.6050   42.0210 H   0  0  0  0  0  0  0  0  0  0  0  0
   51.1150   32.6900   39.9580 H   0  0  0  0  0  0  0  0  0  0  0  0
   47.0980   34.8350   41.9930 C   0  0  2  0  0  0  0  0  0  0  0  0
   46.3330   34.2460   40.8040 C   0  0  0  0  0  0  0  0  0  0  0  0
   47.5410   34.0440   39.8630 C   0  0  0  0  0  0  0  0  0  0  0  0
   48.6630   33.6280   40.7660 C   0  0  1  0  0  0  0  0  0  0  0  0
   48.1400   33.7650   42.1650 C   0  0  0  0  0  0  0  0  0  0  0  0
   47.5790   35.7810   41.7030 H   0  0  0  0  0  0  0  0  0  0  0  0
   45.9400   33.2780   41.1310 H   0  0  0  0  0  0  0  0  0  0  0  0
   45.6120   34.9400   40.3720 H   0  0  0  0  0  0  0  0  0  0  0  0
   47.2860   33.2830   39.1030 H   0  0  0  0  0  0  0  0  0  0  0  0
   47.7960   35.0120   39.3990 H   0  0  0  0  0  0  0  0  0  0  0  0
   49.5600   34.2830   40.6630 H   0  0  0  0  0  0  0  0  0  0  0  0
   47.6630   32.8220   42.4960 H   0  0  0  0  0  0  0  0  0  0  0  0
   48.9230   34.0230   42.9090 H   0  0  0  0  0  0  0  0  0  0  0  0
   44.5370   36.0040   44.4910 C   0  0  0  0  0  0  0  0  0  0  0  0
   45.2860   35.9870   43.3220 C   0  0  0  0  0  0  0  0  0  0  0  0
   46.2140   34.9550   43.1850 C   0  0  0  0  0  0  0  0  0  0  0  0
   46.3620   33.9960   44.1940 N   0  0  0  0  0  0  0  0  0  0  0  0
   45.5970   34.0690   45.3150 C   0  0  0  0  0  0  0  0  0  0  0  0
   44.6890   35.0700   45.4600 N   0  0  0  0  0  0  0  0  0  0  0  0
   43.8110   36.7980   44.6140 H   0  0  0  0  0  0  0  0  0  0  0  0
   45.1930   36.7130   42.5290 H   0  0  0  0  0  0  0  0  0  0  0  0
   45.7950   33.2800   46.0270 H   0  0  0  0  0  0  0  0  0  0  0  0
   50.7110   30.6920   39.4880 O   0  0  0  0  0  0  0  0  0  0  0  0
   51.9760   30.0090   37.3110 O   0  0  0  0  0  0  0  0  0  0  0  0
   51.9870   31.0070   38.4410 P   0  0  1  0  0  0  0  0  0  0  0  0
   51.8110   32.5690   37.7550 O   0  0  0  0  0  0  0  0  0  0  0  0
   51.3420   32.5010   36.8940 H   0  0  0  0  0  0  0  0  0  0  0  0
   53.4850   30.9690   39.1640 O   0  0  0  0  0  0  0  0  0  0  0  0
   54.5870   30.5710   38.4210 C   0  0  0  0  0  0  0  0  0  0  0  0
   54.9520   31.0260   37.1730 C   0  0  0  0  0  0  0  0  0  0  0  0
   54.3080   31.7710   36.7330 H   0  0  0  0  0  0  0  0  0  0  0  0
   56.0760   30.5540   36.5290 C   0  0  0  0  0  3  0  0  0  0  0  0
   56.8910   29.5890   37.1240 C   0  0  0  0  0  3  0  0  0  0  0  0
   56.5400   29.1210   38.3730 C   0  0  0  0  0  0  0  0  0  0  0  0
   57.3380   28.1610   38.9820 C   0  0  0  0  0  3  0  0  0  0  0  0
   57.0180   27.6620   40.2460 C   0  0  0  0  0  3  0  0  0  0  0  0
   55.8820   28.1440   40.8910 C   0  0  0  0  0  3  0  0  0  0  0  0
   55.1330   29.0900   40.2420 C   0  0  0  0  0  3  0  0  0  0  0  0
   55.4070   29.6130   38.9970 C   0  0  0  0  0  0  0  0  0  0  0  0
  1  4  1  6  0  0  0
  1 11  1  0  0  0  0
  1  2  1  0  0  0  0
  2  6  1  0  0  0  0
  2  5  1  0  0  0  0
  3  7  1  6  0  0  0
  3  1  1  0  0  0  0
  3  2  1  0  0  0  0
  8 13  1  6  0  0  0
  8 12  1  0  0  0  0
  8 23  1  0  0  0  0
  9 14  1  0  0  0  0
  9  8  1  0  0  0  0
 10 11  1  0  0  0  0
 10  9  1  0  0  0  0
 11 18  1  6  0  0  0
 11 12  1  0  0  0  0
 12 19  1  0  0  0  0
 12 20  1  0  0  0  0
 15  9  1  0  0  0  0
 16 10  1  0  0  0  0
 17 10  1  0  0  0  0
 21 27  1  0  0  0  0
 21 26  1  0  0  0  0
 22 21  2  0  0  0  0
 23 22  1  0  0  0  0
 23 24  2  0  0  0  0
 24 25  1  0  0  0  0
 25 26  2  0  0  0  0
 25 29  1  0  0  0  0
 28 22  1  0  0  0  0
 30  3  1  0  0  0  0
 32 31  2  6  0  0  0
 32 35  1  0  0  0  0
 32 30  1  0  0  0  0
 33 32  1  0  0  0  0
 34 33  1  0  0  0  0
 36 46  1  0  0  0  0
 36 35  1  0  0  0  0
 37 36  2  0  0  0  0
 38 37  1  0  0  0  0
 39 40  2  0  0  0  0
 39 37  1  0  0  0  0
 40 41  1  0  0  0  0
 41 42  2  0  0  0  0
 41 46  1  0  0  0  0
 42 43  1  0  0  0  0
 43 44  2  0  0  0  0
 45 44  1  0  0  0  0
 46 45  2  0  0  0  0
M  END
>  <minimizedAffinity>
-5.77884865

>  <minimizedRMSD>
2.00823927

$$$$
