
 OpenBabel03252508033D

 44 48  0  0  1  0  0  0  0  0999 V2000
   41.9840   32.8870   41.2630 C   0  0  0  0  0  0  0  0  0  0  0  0
   42.7000   34.0450   41.3120 C   0  0  0  0  0  0  0  0  0  0  0  0
   42.0190   35.2680   41.1860 C   0  0  0  0  0  0  0  0  0  0  0  0
   40.6620   35.3530   41.0150 C   0  0  0  0  0  0  0  0  0  0  0  0
   39.9360   34.1910   40.9640 C   0  0  0  0  0  0  0  0  0  0  0  0
   40.5990   33.0090   41.0870 C   0  0  0  0  0  0  0  0  0  0  0  0
   42.5150   36.2270   41.2040 H   0  0  0  0  0  0  0  0  0  0  0  0
   40.1460   36.2790   40.9190 H   0  0  0  0  0  0  0  0  0  0  0  0
   38.8680   34.1640   40.8330 H   0  0  0  0  0  0  0  0  0  0  0  0
   40.0110   32.0780   41.0460 H   0  0  0  0  0  0  0  0  0  0  0  0
   42.6580   31.3660   41.5250 S   0  0  0  0  0  0  0  0  0  0  0  0
   41.5190   30.4790   40.9180 O   0  0  0  0  0  0  0  0  0  0  0  0
   42.7260   30.9880   42.9450 O   0  0  0  0  0  0  0  0  0  0  0  0
   43.7290   30.4790   40.5590 C   0  0  0  0  0  0  0  0  0  0  0  0
   44.7810   29.5990   40.9220 C   0  0  0  0  0  0  0  0  0  0  0  0
   44.8230   29.4900   42.0310 H   0  0  0  0  0  0  0  0  0  0  0  0
   45.7360   28.9240   40.1840 C   0  0  0  0  0  3  0  0  0  0  0  0
   45.5670   29.2150   38.8750 C   0  0  0  0  0  3  0  0  0  0  0  0
   44.6060   30.0440   38.3520 C   0  0  0  0  0  0  0  0  0  0  0  0
   44.6530   30.1760   36.9620 C   0  0  0  0  0  3  0  0  0  0  0  0
   43.7340   30.9810   36.3330 C   0  0  0  0  0  3  0  0  0  0  0  0
   42.7970   31.6300   37.1070 C   0  0  0  0  0  3  0  0  0  0  0  0
   42.8260   31.4420   38.4660 C   0  0  0  0  0  3  0  0  0  0  0  0
   43.7060   30.6610   39.1800 C   0  0  0  0  0  0  0  0  0  0  0  0
   44.1520   34.0530   41.4870 C   0  0  0  0  0  0  0  0  0  0  0  0
   44.9900   33.9020   40.5480 O   0  0  0  0  0  0  0  0  0  0  0  0
   44.5580   34.2560   42.8510 C   0  0  0  0  0  0  0  0  0  0  0  0
   44.3330   35.5760   43.3810 C   0  0  0  0  0  0  0  0  0  0  0  0
   44.7010   35.7930   44.6990 C   0  0  0  0  0  0  0  0  0  0  0  0
   45.2420   34.7620   45.3990 N   0  0  0  0  0  0  0  0  0  0  0  0
   45.4320   33.5220   44.8430 C   0  0  0  0  0  0  0  0  0  0  0  0
   45.0940   33.3150   43.6200 N   0  0  0  0  0  0  0  0  0  0  0  0
   43.9210   36.4350   42.9040 H   0  0  0  0  0  0  0  0  0  0  0  0
   44.5880   36.7300   45.2110 H   0  0  0  0  0  0  0  0  0  0  0  0
   46.0160   32.4530   45.6860 C   0  0  1  0  0  0  0  0  0  0  0  0
   46.9460   32.8320   46.8160 C   0  0  0  0  0  0  0  0  0  0  0  0
   45.5320   32.4250   47.0850 C   0  0  1  0  0  0  0  0  0  0  0  0
   46.1590   31.4850   45.1840 H   0  0  0  0  0  0  0  0  0  0  0  0
   47.2670   33.8900   46.8900 H   0  0  0  0  0  0  0  0  0  0  0  0
   47.7070   32.0940   47.1300 H   0  0  0  0  0  0  0  0  0  0  0  0
   45.3130   31.4780   47.6170 H   0  0  0  0  0  0  0  0  0  0  0  0
   44.7340   33.5320   47.6000 N   0  0  0  0  0  0  0  0  0  0  0  0
   43.7370   33.2790   47.3590 H   0  0  0  0  0  0  0  0  0  0  0  0
   44.8310   33.5000   48.6340 H   0  0  0  0  0  0  0  0  0  0  0  0
  1  2  1  0  0  0  0
  1 11  1  0  0  0  0
  2 25  1  0  0  0  0
  3  7  1  0  0  0  0
  3  2  2  0  0  0  0
  4  3  1  0  0  0  0
  5  4  2  0  0  0  0
  5  6  1  0  0  0  0
  6  1  2  0  0  0  0
  8  4  1  0  0  0  0
  9  5  1  0  0  0  0
 10  6  1  0  0  0  0
 11 13  2  0  0  0  0
 12 11  2  0  0  0  0
 14 15  1  0  0  0  0
 14 11  1  0  0  0  0
 15 16  1  0  0  0  0
 17 15  2  0  0  0  0
 18 17  1  0  0  0  0
 19 18  2  0  0  0  0
 19 24  1  0  0  0  0
 20 19  1  0  0  0  0
 21 20  2  0  0  0  0
 21 22  1  0  0  0  0
 22 23  2  0  0  0  0
 23 24  1  0  0  0  0
 24 14  2  0  0  0  0
 25 27  1  0  0  0  0
 26 25  2  0  0  0  0
 27 28  2  0  0  0  0
 27 32  1  0  0  0  0
 28 29  1  0  0  0  0
 29 34  1  0  0  0  0
 29 30  2  0  0  0  0
 31 30  1  0  0  0  0
 31 35  1  0  0  0  0
 32 31  2  0  0  0  0
 33 28  1  0  0  0  0
 35 38  1  6  0  0  0
 35 36  1  0  0  0  0
 35 37  1  0  0  0  0
 36 39  1  0  0  0  0
 36 37  1  0  0  0  0
 36 40  1  0  0  0  0
 37 42  1  0  0  0  0
 37 41  1  1  0  0  0
 42 44  1  0  0  0  0
 43 42  1  0  0  0  0
M  END
>  <minimizedAffinity>
-5.79213524

>  <minimizedRMSD>
1.63290989

$$$$
