
 OpenBabel03252506343D

 35 38  0  0  1  0  0  0  0  0999 V2000
   44.4760   35.8900   45.0090 C   0  0  0  0  0  0  0  0  0  0  0  0
   45.0760   35.8440   43.7400 C   0  0  0  0  0  0  0  0  0  0  0  0
   45.9140   34.8140   43.4410 C   0  0  0  0  0  0  0  0  0  0  0  0
   46.1160   33.8880   44.4080 N   0  0  0  0  0  0  0  0  0  0  0  0
   45.5480   33.9320   45.6060 C   0  0  0  0  0  0  0  0  0  0  0  0
   44.7150   34.9350   45.9340 N   0  0  0  0  0  0  0  0  0  0  0  0
   45.8450   32.8970   46.5260 N   0  0  0  0  0  0  0  0  0  0  0  0
   45.0900   32.6530   47.7620 C   0  0  0  0  0  0  0  0  0  0  0  0
   46.1900   32.2520   48.7220 C   0  0  0  0  0  0  0  0  0  0  0  0
   47.4240   32.0120   47.8970 C   0  0  0  0  0  0  0  0  0  0  0  0
   46.8680   31.8990   46.5040 C   0  0  1  0  0  0  0  0  0  0  0  0
   43.8010   36.6770   45.3130 H   0  0  0  0  0  0  0  0  0  0  0  0
   46.3740   34.7820   42.4630 H   0  0  0  0  0  0  0  0  0  0  0  0
   44.6000   33.6050   48.0700 H   0  0  0  0  0  0  0  0  0  0  0  0
   44.3450   31.8410   47.6030 H   0  0  0  0  0  0  0  0  0  0  0  0
   46.3890   33.1450   49.3740 H   0  0  0  0  0  0  0  0  0  0  0  0
   45.9310   31.4220   49.3800 H   0  0  0  0  0  0  0  0  0  0  0  0
   48.1010   32.9110   47.9160 H   0  0  0  0  0  0  0  0  0  0  0  0
   47.9980   31.1240   48.1780 H   0  0  0  0  0  0  0  0  0  0  0  0
   47.6120   32.1740   45.7280 H   0  0  0  0  0  0  0  0  0  0  0  0
   44.7470   36.9120   42.8400 N   0  0  0  0  0  0  0  0  0  0  0  0
   43.9400   36.5270   42.2990 H   0  0  0  0  0  0  0  0  0  0  0  0
   45.1950   37.8310   42.7490 H   0  0  0  0  0  0  0  0  0  0  0  0
   46.2010   30.2340   46.2570 S   0  0  0  0  0  0  0  0  0  0  0  0
   47.3940   29.0090   46.7310 C   0  0  0  0  0  0  0  0  0  0  0  0
   48.7330   29.3170   46.4730 C   0  0  0  0  0  0  0  0  0  0  0  0
   49.1130   30.2340   46.0090 H   0  0  0  0  0  0  0  0  0  0  0  0
   49.7160   28.3930   46.8240 C   0  0  0  0  0  0  0  0  0  0  0  0
   49.4050   27.1920   47.4150 C   0  0  0  0  0  0  0  0  0  0  0  0
   48.0640   26.9070   47.6630 C   0  0  0  0  0  0  0  0  0  0  0  0
   47.7340   25.6940   48.2620 C   0  0  0  0  0  0  0  0  0  0  0  0
   46.3840   25.4760   48.4790 C   0  0  0  0  0  0  0  0  0  0  0  0
   45.3660   26.3540   48.1520 C   0  0  0  0  0  0  0  0  0  0  0  0
   45.7800   27.5230   47.5670 C   0  0  0  0  0  0  0  0  0  0  0  0
   47.0870   27.8020   47.3250 C   0  0  0  0  0  0  0  0  0  0  0  0
  1 12  1  0  0  0  0
  1  6  1  0  0  0  0
  2  1  2  0  0  0  0
  3  2  1  0  0  0  0
  3  4  2  0  0  0  0
  4  5  1  0  0  0  0
  5  6  2  0  0  0  0
  5  7  1  0  0  0  0
  7  8  1  0  0  0  0
  8 14  1  0  0  0  0
  8  9  1  0  0  0  0
  9 16  1  0  0  0  0
  9 17  1  0  0  0  0
 10 18  1  0  0  0  0
 10 19  1  0  0  0  0
 10  9  1  0  0  0  0
 11 20  1  6  0  0  0
 11  7  1  0  0  0  0
 11 10  1  0  0  0  0
 13  3  1  0  0  0  0
 15  8  1  0  0  0  0
 21  2  1  0  0  0  0
 22 21  1  0  0  0  0
 23 21  1  0  0  0  0
 24 11  1  0  0  0  0
 24 25  1  0  0  0  0
 25 35  1  0  0  0  0
 26 25  2  0  0  0  0
 26 28  1  0  0  0  0
 27 26  1  0  0  0  0
 28 29  2  0  0  0  0
 29 30  1  0  0  0  0
 30 31  1  0  0  0  0
 31 32  2  0  0  0  0
 33 32  1  0  0  0  0
 34 33  2  0  0  0  0
 35 34  1  0  0  0  0
 35 30  2  0  0  0  0
M  END
>  <minimizedAffinity>
-5.89426279

>  <minimizedRMSD>
0.872368515

$$$$
