
 OpenBabel03242513273D

 32 35  0  0  0  0  0  0  0  0999 V2000
   46.3340   33.9670   41.0100 C   0  0  0  0  0  0  0  0  0  0  0  0
   46.8460   34.7690   42.0110 C   0  0  0  0  0  0  0  0  0  0  0  0
   48.0190   35.4070   41.7570 C   0  0  0  0  0  0  0  0  0  0  0  0
   48.6800   35.2650   40.5460 C   0  0  0  0  0  0  0  0  0  0  0  0
   48.1660   34.4690   39.5620 C   0  0  0  0  0  0  0  0  0  0  0  0
   46.9710   33.7990   39.7810 C   0  0  0  0  0  0  0  0  0  0  0  0
   48.4210   36.0380   42.5450 H   0  0  0  0  0  0  0  0  0  0  0  0
   49.6040   35.7970   40.4070 H   0  0  0  0  0  0  0  0  0  0  0  0
   48.6810   34.3600   38.6230 H   0  0  0  0  0  0  0  0  0  0  0  0
   44.5280   36.0060   44.7130 C   0  0  0  0  0  0  0  0  0  0  0  0
   45.2330   35.9330   43.5130 C   0  0  0  0  0  0  0  0  0  0  0  0
   46.1020   34.8720   43.2470 C   0  0  0  0  0  0  0  0  0  0  0  0
   46.2020   33.9470   44.2210 N   0  0  0  0  0  0  0  0  0  0  0  0
   45.5270   34.0060   45.3830 C   0  0  0  0  0  0  0  0  0  0  0  0
   44.6850   35.0350   45.6390 N   0  0  0  0  0  0  0  0  0  0  0  0
   43.8570   36.8370   44.9030 H   0  0  0  0  0  0  0  0  0  0  0  0
   45.1150   36.7080   42.7610 H   0  0  0  0  0  0  0  0  0  0  0  0
   45.7220   33.1850   46.0540 H   0  0  0  0  0  0  0  0  0  0  0  0
   45.1230   33.2850   41.2220 O   0  0  0  0  0  0  0  0  0  0  0  0
   44.9700   32.6620   41.9860 H   0  0  0  0  0  0  0  0  0  0  0  0
   46.3890   32.9820   38.8380 O   0  0  0  0  0  0  0  0  0  0  0  0
   46.9210   31.8620   38.2680 C   0  0  0  0  0  0  0  0  0  0  0  0
   47.7270   30.8850   38.7860 C   0  0  0  0  0  0  0  0  0  0  0  0
   47.9860   31.0260   39.8140 H   0  0  0  0  0  0  0  0  0  0  0  0
   48.1780   29.8130   38.0720 C   0  0  0  0  0  0  0  0  0  0  0  0
   47.8280   29.6600   36.7390 C   0  0  0  0  0  0  0  0  0  0  0  0
   47.0060   30.6430   36.1830 C   0  0  0  0  0  0  0  0  0  0  0  0
   46.7030   30.4210   34.8560 C   0  0  0  0  0  0  0  0  0  0  0  0
   45.8990   31.3350   34.2200 C   0  0  0  0  0  0  0  0  0  0  0  0
   45.4280   32.4260   34.9170 C   0  0  0  0  0  0  0  0  0  0  0  0
   45.7600   32.6030   36.2390 C   0  0  0  0  0  0  0  0  0  0  0  0
   46.5590   31.7210   36.9230 C   0  0  0  0  0  0  0  0  0  0  0  0
  1 19  1  0  0  0  0
  1  2  1  0  0  0  0
  2 12  1  0  0  0  0
  3  2  2  0  0  0  0
  3  7  1  0  0  0  0
  4  3  1  0  0  0  0
  5  6  1  0  0  0  0
  5  4  2  0  0  0  0
  6  1  2  0  0  0  0
  8  4  1  0  0  0  0
  9  5  1  0  0  0  0
 10 16  1  0  0  0  0
 10 15  1  0  0  0  0
 11 10  2  0  0  0  0
 12 11  1  0  0  0  0
 12 13  2  0  0  0  0
 13 14  1  0  0  0  0
 14 15  2  0  0  0  0
 14 18  1  0  0  0  0
 17 11  1  0  0  0  0
 19 20  1  0  0  0  0
 21  6  1  0  0  0  0
 22 23  1  0  0  0  0
 22 21  1  0  0  0  0
 23 24  1  0  0  0  0
 25 23  2  0  0  0  0
 26 25  1  0  0  0  0
 27 26  2  0  0  0  0
 27 32  1  0  0  0  0
 28 27  1  0  0  0  0
 29 28  2  0  0  0  0
 29 30  1  0  0  0  0
 30 31  2  0  0  0  0
 31 32  1  0  0  0  0
 32 22  2  0  0  0  0
M  END
>  <minimizedAffinity>
-5.78610945

>  <minimizedRMSD>
1.45645905

$$$$
