
 OpenBabel03252502283D

 37 40  0  0  0  0  0  0  0  0999 V2000
   45.0620   34.4790   41.2790 C   0  0  0  0  0  0  0  0  0  0  0  0
   45.4250   35.2060   42.4070 C   0  0  0  0  0  0  0  0  0  0  0  0
   46.7880   35.4620   42.6130 C   0  0  0  0  0  0  0  0  0  0  0  0
   47.7110   34.9980   41.7180 C   0  0  0  0  0  0  0  0  0  0  0  0
   47.3720   34.2830   40.6060 C   0  0  0  0  0  0  0  0  0  0  0  0
   46.0070   34.0370   40.4150 C   0  0  0  0  0  0  0  0  0  0  0  0
   44.6840   35.5670   43.1060 H   0  0  0  0  0  0  0  0  0  0  0  0
   47.0700   36.0310   43.4940 H   0  0  0  0  0  0  0  0  0  0  0  0
   48.7420   35.2280   41.9330 H   0  0  0  0  0  0  0  0  0  0  0  0
   48.0880   33.9070   39.8860 H   0  0  0  0  0  0  0  0  0  0  0  0
   41.3790   34.8250   40.5410 C   0  0  0  0  0  0  0  0  0  0  0  0
   42.7300   35.1730   40.6550 C   0  0  0  0  0  0  0  0  0  0  0  0
   43.6370   34.2440   41.1160 C   0  0  0  0  0  0  0  0  0  0  0  0
   43.1450   33.0170   41.4370 N   0  0  0  0  0  0  0  0  0  0  0  0
   41.8380   32.6890   41.3240 C   0  0  0  0  0  0  0  0  0  0  0  0
   40.9460   33.5960   40.8740 N   0  0  0  0  0  0  0  0  0  0  0  0
   43.1020   36.1600   40.3910 H   0  0  0  0  0  0  0  0  0  0  0  0
   41.4950   31.6910   41.5930 H   0  0  0  0  0  0  0  0  0  0  0  0
   40.3960   35.8230   40.0440 C   0  0  0  0  0  0  0  0  0  0  0  0
   39.2170   35.1470   39.7570 F   0  0  0  0  0  0  0  0  0  0  0  0
   40.8680   36.2800   38.8200 F   0  0  0  0  0  0  0  0  0  0  0  0
   40.1550   36.8360   40.9320 F   0  0  0  0  0  0  0  0  0  0  0  0
   45.5230   31.9550   38.9050 C   0  0  0  0  0  0  0  0  0  0  0  0
   46.0030   31.0230   39.5460 O   0  0  0  0  0  0  0  0  0  0  0  0
   45.5100   33.3100   39.3050 N   0  0  0  0  0  0  0  0  0  0  0  0
   45.0290   34.0220   38.6740 H   0  0  0  0  0  0  0  0  0  0  0  0
   44.9190   31.6120   37.6190 C   0  0  0  0  0  0  0  0  0  0  0  0
   43.6100   31.2060   37.6300 C   0  0  0  0  0  0  0  0  0  0  0  0
   43.0350   31.1380   38.5520 H   0  0  0  0  0  0  0  0  0  0  0  0
   42.9490   30.8620   36.4740 C   0  0  0  0  0  3  0  0  0  0  0  0
   43.5800   30.9080   35.2250 C   0  0  0  0  0  3  0  0  0  0  0  0
   44.9070   31.3230   35.2330 C   0  0  0  0  0  0  0  0  0  0  0  0
   45.5600   31.3810   34.0140 C   0  0  0  0  0  3  0  0  0  0  0  0
   46.8900   31.7890   33.9700 C   0  0  0  0  0  3  0  0  0  0  0  0
   47.5140   32.1260   35.1620 C   0  0  0  0  0  3  0  0  0  0  0  0
   46.8730   32.0730   36.3830 C   0  0  0  0  0  3  0  0  0  0  0  0
   45.5580   31.6660   36.4000 C   0  0  0  0  0  0  0  0  0  0  0  0
  1  2  1  0  0  0  0
  2  3  2  0  0  0  0
  2  7  1  0  0  0  0
  3  8  1  0  0  0  0
  4  9  1  0  0  0  0
  4  3  1  0  0  0  0
  5  4  2  0  0  0  0
  6  5  1  0  0  0  0
  6  1  2  0  0  0  0
 10  5  1  0  0  0  0
 11 12  2  0  0  0  0
 11 16  1  0  0  0  0
 12 13  1  0  0  0  0
 13  1  1  0  0  0  0
 13 14  2  0  0  0  0
 15 14  1  0  0  0  0
 15 18  1  0  0  0  0
 16 15  2  0  0  0  0
 17 12  1  0  0  0  0
 19 11  1  0  0  0  0
 19 22  1  0  0  0  0
 20 19  1  0  0  0  0
 21 19  1  0  0  0  0
 23 25  1  0  0  0  0
 23 24  2  0  0  0  0
 25  6  1  0  0  0  0
 26 25  1  0  0  0  0
 27 28  1  0  0  0  0
 27 23  1  0  0  0  0
 28 29  1  0  0  0  0
 30 28  2  0  0  0  0
 31 32  2  0  0  0  0
 31 30  1  0  0  0  0
 32 37  1  0  0  0  0
 33 32  1  0  0  0  0
 34 33  2  0  0  0  0
 34 35  1  0  0  0  0
 35 36  2  0  0  0  0
 36 37  1  0  0  0  0
 37 27  2  0  0  0  0
M  END
>  <minimizedAffinity>
-6.57404327

>  <minimizedRMSD>
0.413686842

$$$$
