
 OpenBabel03252509003D

 47 50  0  0  1  0  0  0  0  0999 V2000
   46.8830   34.3420   43.5840 N   0  0  0  0  0  0  0  0  0  0  0  0
   46.4480   35.4630   42.8310 C   0  0  0  0  0  0  0  0  0  0  0  0
   44.9540   35.7080   42.8560 C   0  0  0  0  0  0  0  0  0  0  0  0
   44.2810   35.3230   44.1520 C   0  0  0  0  0  0  0  0  0  0  0  0
   45.2840   34.8740   45.1860 C   0  0  0  0  0  0  0  0  0  0  0  0
   46.0390   33.6960   44.4690 C   0  0  2  0  0  0  0  0  0  0  0  0
   46.8940   36.3690   43.3160 H   0  0  0  0  0  0  0  0  0  0  0  0
   46.7760   35.4960   41.7930 H   0  0  0  0  0  0  0  0  0  0  0  0
   44.5070   35.2220   41.9600 H   0  0  0  0  0  0  0  0  0  0  0  0
   44.7640   36.7960   42.7130 H   0  0  0  0  0  0  0  0  0  0  0  0
   43.5950   36.1130   44.5370 H   0  0  0  0  0  0  0  0  0  0  0  0
   43.6420   34.4390   43.9360 H   0  0  0  0  0  0  0  0  0  0  0  0
   46.0340   35.6200   45.4430 H   0  0  0  0  0  0  0  0  0  0  0  0
   44.7230   34.4320   46.0160 H   0  0  0  0  0  0  0  0  0  0  0  0
   45.2550   33.0230   44.0380 H   0  0  0  0  0  0  0  0  0  0  0  0
   47.9360   33.5960   42.9620 C   0  0  0  0  0  0  0  0  0  0  0  0
   48.5320   33.0330   43.7320 H   0  0  0  0  0  0  0  0  0  0  0  0
   48.5830   34.3060   42.4240 H   0  0  0  0  0  0  0  0  0  0  0  0
   47.3400   32.5860   42.0400 C   0  0  0  0  0  0  0  0  0  0  0  0
   47.4780   31.5370   42.3340 H   0  0  0  0  0  0  0  0  0  0  0  0
   46.2350   32.7320   41.9610 H   0  0  0  0  0  0  0  0  0  0  0  0
   49.2180   32.0780   38.8280 C   0  0  0  0  0  0  0  0  0  0  0  0
   48.7190   31.8750   40.1280 C   0  0  0  0  0  0  0  0  0  0  0  0
   47.8640   32.8050   40.6670 C   0  0  0  0  0  0  0  0  0  0  0  0
   47.5460   33.8700   39.9160 N   0  0  0  0  0  0  0  0  0  0  0  0
   48.0350   34.0470   38.6700 C   0  0  0  0  0  0  0  0  0  0  0  0
   48.8710   33.1560   38.1190 N   0  0  0  0  0  0  0  0  0  0  0  0
   49.8850   31.2690   38.5170 H   0  0  0  0  0  0  0  0  0  0  0  0
   48.9830   31.0050   40.7330 H   0  0  0  0  0  0  0  0  0  0  0  0
   47.7700   34.9170   38.0680 H   0  0  0  0  0  0  0  0  0  0  0  0
   46.7350   33.1280   45.5260 O   0  0  0  0  0  0  0  0  0  0  0  0
   45.5060   30.9200   44.6960 O   0  0  0  0  0  0  0  0  0  0  0  0
   46.2140   31.5700   45.8880 P   0  0  2  0  0  0  0  0  0  0  0  0
   44.9880   31.7450   47.0720 O   0  0  0  0  0  0  0  0  0  0  0  0
   45.4060   32.2810   47.7830 H   0  0  0  0  0  0  0  0  0  0  0  0
   47.4140   30.6310   46.5340 O   0  0  0  0  0  0  0  0  0  0  0  0
   47.3760   29.3220   46.9150 C   0  0  0  0  0  0  0  0  0  0  0  0
   46.3150   28.4340   46.8030 C   0  0  0  0  0  0  0  0  0  0  0  0
   45.4340   28.8700   46.3570 H   0  0  0  0  0  0  0  0  0  0  0  0
   46.4720   27.1310   47.2520 C   0  0  0  0  0  3  0  0  0  0  0  0
   47.6520   26.7170   47.7980 C   0  0  0  0  0  3  0  0  0  0  0  0
   48.7150   27.5660   47.9220 C   0  0  0  0  0  0  0  0  0  0  0  0
   49.8810   27.1020   48.4790 C   0  0  0  0  0  3  0  0  0  0  0  0
   50.9630   27.9400   48.6140 C   0  0  0  0  0  3  0  0  0  0  0  0
   50.8600   29.2470   48.1830 C   0  0  0  0  0  3  0  0  0  0  0  0
   49.6900   29.6750   47.6350 C   0  0  0  0  0  3  0  0  0  0  0  0
   48.5650   28.8760   47.4740 C   0  0  0  0  0  0  0  0  0  0  0  0
  1  6  1  0  0  0  0
  2  3  1  0  0  0  0
  2  7  1  0  0  0  0
  2  1  1  0  0  0  0
  3  4  1  0  0  0  0
  4 11  1  0  0  0  0
  4  5  1  0  0  0  0
  5 13  1  0  0  0  0
  5 14  1  0  0  0  0
  6 15  1  6  0  0  0
  6  5  1  0  0  0  0
  6 31  1  0  0  0  0
  8  2  1  0  0  0  0
  9  3  1  0  0  0  0
 10  3  1  0  0  0  0
 12  4  1  0  0  0  0
 16  1  1  0  0  0  0
 16 17  1  0  0  0  0
 18 16  1  0  0  0  0
 19 20  1  0  0  0  0
 19 16  1  0  0  0  0
 21 19  1  0  0  0  0
 22 23  1  0  0  0  0
 23 24  2  0  0  0  0
 23 29  1  0  0  0  0
 24 19  1  0  0  0  0
 25 24  1  0  0  0  0
 26 25  2  0  0  0  0
 27 26  1  0  0  0  0
 27 22  2  0  0  0  0
 28 22  1  0  0  0  0
 30 26  1  0  0  0  0
 31 33  1  0  0  0  0
 33 32  2  6  0  0  0
 33 36  1  0  0  0  0
 33 34  1  0  0  0  0
 34 35  1  0  0  0  0
 36 37  1  0  0  0  0
 37 47  1  0  0  0  0
 38 37  2  0  0  0  0
 38 40  1  0  0  0  0
 39 38  1  0  0  0  0
 40 41  2  0  0  0  0
 41 42  1  0  0  0  0
 42 43  1  0  0  0  0
 43 44  2  0  0  0  0
 45 44  1  0  0  0  0
 46 45  2  0  0  0  0
 47 46  1  0  0  0  0
 47 42  2  0  0  0  0
M  END
>  <minimizedAffinity>
-4.61808395

>  <minimizedRMSD>
1.25912845

$$$$
