
 OpenBabel03242521553D

 50 55  0  0  0  0  0  0  0  0999 V2000
   46.0580   32.9310   44.9170 C   0  0  0  0  0  0  0  0  0  0  0  0
   45.9110   33.4720   46.1910 C   0  0  0  0  0  0  0  0  0  0  0  0
   45.7330   32.6890   47.3380 C   0  0  0  0  0  0  0  0  0  0  0  0
   45.6950   31.3260   47.2470 C   0  0  0  0  0  0  0  0  0  0  0  0
   45.8330   30.7510   45.9700 C   0  0  0  0  0  0  0  0  0  0  0  0
   45.7310   29.3960   45.9130 C   0  0  0  0  0  0  0  0  0  0  0  0
   45.7850   28.8000   44.6490 C   0  0  0  0  0  0  0  0  0  0  0  0
   45.9330   29.6470   43.4940 C   0  0  0  0  0  0  0  0  0  0  0  0
   46.0220   31.0010   43.7200 C   0  0  0  0  0  0  0  0  0  0  0  0
   45.9990   31.6220   44.8920 C   0  0  0  0  0  0  0  0  0  0  0  0
   45.9400   34.5720   46.2800 H   0  0  0  0  0  0  0  0  0  0  0  0
   45.6280   33.2010   48.2760 H   0  0  0  0  0  0  0  0  0  0  0  0
   45.5620   30.7090   48.1320 H   0  0  0  0  0  0  0  0  0  0  0  0
   45.6130   28.8090   46.8130 H   0  0  0  0  0  0  0  0  0  0  0  0
   45.7030   27.7280   44.6830 H   0  0  0  0  0  0  0  0  0  0  0  0
   45.9420   28.9300   42.6880 H   0  0  0  0  0  0  0  0  0  0  0  0
   44.3210   31.3390   42.1580 C   0  0  0  0  0  0  0  0  0  0  0  0
   45.7590   31.3160   42.3310 C   0  0  0  0  0  0  0  0  0  0  0  0
   46.3790   31.4440   41.1590 C   0  0  0  0  0  0  0  0  0  0  0  0
   45.7660   31.5770   39.9290 C   0  0  0  0  0  0  0  0  0  0  0  0
   44.3940   31.5900   39.7980 C   0  0  0  0  0  0  0  0  0  0  0  0
   43.6530   31.4670   40.9500 C   0  0  0  0  0  0  0  0  0  0  0  0
   47.4420   31.4210   41.3800 H   0  0  0  0  0  0  0  0  0  0  0  0
   46.5570   31.6590   39.1640 H   0  0  0  0  0  0  0  0  0  0  0  0
   44.2330   31.7020   38.7510 H   0  0  0  0  0  0  0  0  0  0  0  0
   43.3500   31.2360   43.1860 O   0  0  0  0  0  0  0  0  0  0  0  0
   43.0090   32.0790   43.6460 H   0  0  0  0  0  0  0  0  0  0  0  0
   42.3210   31.4800   40.7430 O   0  0  0  0  0  0  0  0  0  0  0  0
   41.2610   32.1970   40.6560 C   0  0  0  0  0  0  0  0  0  0  0  0
   40.9770   33.5100   40.3800 C   0  0  0  0  0  0  0  0  0  0  0  0
   41.7780   34.1690   40.1750 H   0  0  0  0  0  0  0  0  0  0  0  0
   39.7530   34.1410   40.3240 C   0  0  0  0  0  0  0  0  0  0  0  0
   38.7050   33.2870   40.5900 C   0  0  0  0  0  0  0  0  0  0  0  0
   38.8230   31.9550   40.8820 C   0  0  0  0  0  0  0  0  0  0  0  0
   37.6600   31.2620   41.1190 C   0  0  0  0  0  0  0  0  0  0  0  0
   37.7670   29.9220   41.4130 C   0  0  0  0  0  0  0  0  0  0  0  0
   38.9850   29.3240   41.4630 C   0  0  0  0  0  0  0  0  0  0  0  0
   40.0950   30.0750   41.2150 C   0  0  0  0  0  0  0  0  0  0  0  0
   40.1140   31.4280   40.9090 C   0  0  0  0  0  0  0  0  0  0  0  0
   46.5150   35.2320   42.0150 C   0  0  0  0  0  0  0  0  0  0  0  0
   47.9270   35.2730   41.9580 C   0  0  0  0  0  0  0  0  0  0  0  0
   48.5990   34.5010   42.8860 C   0  0  0  0  0  0  0  0  0  0  0  0
   47.8240   33.8160   43.7220 N   0  0  0  0  0  0  0  0  0  0  0  0
   46.4990   33.7570   43.8050 C   0  0  0  0  0  0  0  0  0  0  0  0
   45.8810   34.4850   42.9230 N   0  0  0  0  0  0  0  0  0  0  0  0
   46.0140   35.8410   41.2830 H   0  0  0  0  0  0  0  0  0  0  0  0
   48.4500   35.8650   41.2410 H   0  0  0  0  0  0  0  0  0  0  0  0
   50.0080   34.3950   42.8950 N   0  0  0  0  0  0  0  0  0  0  0  0
   50.5060   33.5720   43.2560 H   0  0  0  0  0  0  0  0  0  0  0  0
   50.6360   35.1500   42.5360 H   0  0  0  0  0  0  0  0  0  0  0  0
  1  2  1  0  0  0  0
  2 11  1  0  0  0  0
  2  3  2  0  0  0  0
  3 12  1  0  0  0  0
  4  3  1  0  0  0  0
  4 13  1  0  0  0  0
  5  4  2  0  0  0  0
  6  5  1  0  0  0  0
  6 14  1  0  0  0  0
  7 15  1  0  0  0  0
  7  6  2  0  0  0  0
  8  9  2  0  0  0  0
  8  7  1  0  0  0  0
  9 10  1  0  0  0  0
 10  1  2  0  0  0  0
 10  5  1  0  0  0  0
 16  8  1  0  0  0  0
 17 18  1  0  0  0  0
 17 26  1  0  0  0  0
 18  9  1  0  0  0  0
 19 23  1  0  0  0  0
 19 18  2  0  0  0  0
 20 19  1  0  0  0  0
 21 20  2  0  0  0  0
 21 22  1  0  0  0  0
 22 17  2  0  0  0  0
 24 20  1  0  0  0  0
 25 21  1  0  0  0  0
 26 27  1  0  0  0  0
 28 22  1  0  0  0  0
 29 28  1  0  0  0  0
 29 39  1  0  0  0  0
 30 29  2  0  0  0  0
 31 30  1  0  0  0  0
 32 30  1  0  0  0  0
 32 33  2  0  0  0  0
 33 34  1  0  0  0  0
 34 39  2  0  0  0  0
 34 35  1  0  0  0  0
 35 36  2  0  0  0  0
 36 37  1  0  0  0  0
 38 37  2  0  0  0  0
 39 38  1  0  0  0  0
 40 45  1  0  0  0  0
 41 40  2  0  0  0  0
 41 42  1  0  0  0  0
 42 48  1  0  0  0  0
 42 43  2  0  0  0  0
 43 44  1  0  0  0  0
 44  1  1  0  0  0  0
 45 44  2  0  0  0  0
 46 40  1  0  0  0  0
 47 41  1  0  0  0  0
 48 49  1  0  0  0  0
 50 48  1  0  0  0  0
M  END
>  <minimizedAffinity>
-7.0136199

>  <minimizedRMSD>
3.47868371

$$$$
