
 OpenBabel03242520543D

 33 35  0  0  0  0  0  0  0  0999 V2000
   47.1480   30.5030   47.0070 C   0  0  0  0  0  0  0  0  0  0  0  0
   48.1930   30.3530   46.6010 H   0  0  0  0  0  0  0  0  0  0  0  0
   47.2950   30.7750   48.0470 H   0  0  0  0  0  0  0  0  0  0  0  0
   45.4270   29.0460   47.6940 C   0  0  0  0  0  0  0  0  0  0  0  0
   44.9770   29.7100   48.6570 O   0  0  0  0  0  0  0  0  0  0  0  0
   46.4720   29.2520   46.7690 N   0  0  0  0  0  0  0  0  0  0  0  0
   46.6670   28.5500   46.0440 H   0  0  0  0  0  0  0  0  0  0  0  0
   44.6360   27.7910   47.5700 C   0  0  0  0  0  0  0  0  0  0  0  0
   44.7540   26.7410   48.4240 C   0  0  0  0  0  0  0  0  0  0  0  0
   45.4480   26.7940   49.2390 H   0  0  0  0  0  0  0  0  0  0  0  0
   43.9740   25.6240   48.2230 C   0  0  0  0  0  0  0  0  0  0  0  0
   43.0740   25.4890   47.2080 C   0  0  0  0  0  0  0  0  0  0  0  0
   42.9430   26.5510   46.3260 C   0  0  0  0  0  0  0  0  0  0  0  0
   42.0360   26.4350   45.2930 C   0  0  0  0  0  0  0  0  0  0  0  0
   41.8870   27.4870   44.3960 C   0  0  0  0  0  0  0  0  0  0  0  0
   42.6430   28.6070   44.5660 C   0  0  0  0  0  0  0  0  0  0  0  0
   43.5360   28.6960   45.6040 C   0  0  0  0  0  0  0  0  0  0  0  0
   43.7300   27.6840   46.5270 C   0  0  0  0  0  0  0  0  0  0  0  0
   47.2550   32.1760   45.2550 C   0  0  0  0  0  0  0  0  0  0  0  0
   46.5830   31.5930   46.1980 C   0  0  0  0  0  0  0  0  0  0  0  0
   44.9200   34.5910   43.8290 C   0  0  0  0  0  0  0  0  0  0  0  0
   45.7140   35.2820   42.9160 C   0  0  0  0  0  0  0  0  0  0  0  0
   47.0590   34.9200   42.7870 C   0  0  0  0  0  0  0  0  0  0  0  0
   47.5060   33.9120   43.5640 N   0  0  0  0  0  0  0  0  0  0  0  0
   46.7140   33.2630   44.4360 C   0  0  0  0  0  0  0  0  0  0  0  0
   45.4140   33.5970   44.5760 N   0  0  0  0  0  0  0  0  0  0  0  0
   43.9070   34.9640   43.8350 H   0  0  0  0  0  0  0  0  0  0  0  0
   45.4310   36.0910   42.2670 H   0  0  0  0  0  0  0  0  0  0  0  0
   47.9530   35.5110   41.9330 O   0  0  0  0  0  0  0  0  0  0  0  0
   48.2180   34.8340   40.6960 C   0  0  0  0  0  0  0  0  0  0  0  0
   47.0040   34.4030   40.1380 F   0  0  0  0  0  0  0  0  0  0  0  0
   48.8160   35.7570   39.8330 F   0  0  0  0  0  0  0  0  0  0  0  0
   49.0890   33.7530   40.8690 F   0  0  0  0  0  0  0  0  0  0  0  0
  1  3  1  0  0  0  0
  2  1  1  0  0  0  0
  4  5  2  0  0  0  0
  6  1  1  0  0  0  0
  6  4  1  0  0  0  0
  7  6  1  0  0  0  0
  8  4  1  0  0  0  0
  8  9  1  0  0  0  0
  9 10  1  0  0  0  0
 11  9  2  0  0  0  0
 12 11  1  0  0  0  0
 13 18  1  0  0  0  0
 13 12  2  0  0  0  0
 14 13  1  0  0  0  0
 15 16  1  0  0  0  0
 15 14  2  0  0  0  0
 16 17  2  0  0  0  0
 17 18  1  0  0  0  0
 18  8  2  0  0  0  0
 19 20  2  0  0  0  0
 20  1  1  0  0  0  0
 21 27  1  0  0  0  0
 21 26  1  0  0  0  0
 22 21  2  0  0  0  0
 23 22  1  0  0  0  0
 23 24  2  0  0  0  0
 24 25  1  0  0  0  0
 25 26  2  0  0  0  0
 25 19  1  0  0  0  0
 28 22  1  0  0  0  0
 29 23  1  0  0  0  0
 30 33  1  0  0  0  0
 30 29  1  0  0  0  0
 31 30  1  0  0  0  0
 32 30  1  0  0  0  0
M  END
>  <minimizedAffinity>
-6.0103364

>  <minimizedRMSD>
1.64832747

$$$$
