
 OpenBabel03252504273D

 24 26  0  0  0  0  0  0  0  0999 V2000
   43.7120   35.1510   40.9650 C   0  0  0  0  0  0  0  0  0  0  0  0
   44.2880   35.9770   40.5170 H   0  0  0  0  0  0  0  0  0  0  0  0
   43.8950   34.2720   40.2870 H   0  0  0  0  0  0  0  0  0  0  0  0
   44.3330   35.8190   43.2030 C   0  0  0  0  0  0  0  0  0  0  0  0
   44.2560   34.7730   42.2830 C   0  0  0  0  0  0  0  0  0  0  0  0
   44.6820   33.5190   42.6770 C   0  0  0  0  0  0  0  0  0  0  0  0
   45.1490   33.4000   43.9400 N   0  0  0  0  0  0  0  0  0  0  0  0
   45.2130   34.4200   44.8060 C   0  0  0  0  0  0  0  0  0  0  0  0
   44.8010   35.6900   44.4690 N   0  0  0  0  0  0  0  0  0  0  0  0
   44.0160   36.8410   42.9710 H   0  0  0  0  0  0  0  0  0  0  0  0
   44.6080   32.7510   41.9480 H   0  0  0  0  0  0  0  0  0  0  0  0
   45.6050   34.2210   45.8070 H   0  0  0  0  0  0  0  0  0  0  0  0
   42.3660   35.5110   41.0060 O   0  0  0  0  0  0  0  0  0  0  0  0
   41.5650   35.2710   39.9000 C   0  0  0  0  0  0  0  0  0  0  0  0
   41.7880   35.8590   38.6740 C   0  0  0  0  0  0  0  0  0  0  0  0
   42.6140   36.5270   38.5710 H   0  0  0  0  0  0  0  0  0  0  0  0
   40.9180   35.5330   37.6660 C   0  0  0  0  0  0  0  0  0  0  0  0
   39.8460   34.6680   37.7950 C   0  0  0  0  0  0  0  0  0  0  0  0
   39.6650   34.1000   39.0600 C   0  0  0  0  0  0  0  0  0  0  0  0
   38.6160   33.2290   39.2580 C   0  0  0  0  0  0  0  0  0  0  0  0
   38.3580   32.6140   40.4850 C   0  0  0  0  0  0  0  0  0  0  0  0
   39.2330   32.9410   41.5010 C   0  0  0  0  0  0  0  0  0  0  0  0
   40.3000   33.8050   41.3630 C   0  0  0  0  0  0  0  0  0  0  0  0
   40.5110   34.3910   40.1150 C   0  0  0  0  0  0  0  0  0  0  0  0
  1 13  1  0  0  0  0
  1  5  1  0  0  0  0
  2  1  1  0  0  0  0
  3  1  1  0  0  0  0
  4  9  1  0  0  0  0
  5  6  1  0  0  0  0
  5  4  2  0  0  0  0
  6  7  2  0  0  0  0
  7  8  1  0  0  0  0
  8 12  1  0  0  0  0
  9  8  2  0  0  0  0
 10  4  1  0  0  0  0
 11  6  1  0  0  0  0
 14 24  1  0  0  0  0
 14 13  1  0  0  0  0
 15 14  2  0  0  0  0
 16 15  1  0  0  0  0
 17 18  2  0  0  0  0
 17 15  1  0  0  0  0
 18 19  1  0  0  0  0
 19 20  2  0  0  0  0
 19 24  1  0  0  0  0
 20 21  1  0  0  0  0
 21 22  2  0  0  0  0
 23 22  1  0  0  0  0
 24 23  2  0  0  0  0
M  END
>  <minimizedAffinity>
-5.6709857

>  <minimizedRMSD>
2.56188178

$$$$
