
 OpenBabel03252508003D

 31 34  0  0  1  0  0  0  0  0999 V2000
   46.4030   34.6670   43.2810 C   0  0  0  0  0  0  0  0  0  0  0  0
   45.4040   35.6360   43.6010 C   0  0  0  0  0  0  0  0  0  0  0  0
   44.7280   35.4370   44.8000 C   0  0  0  0  0  0  0  0  0  0  0  0
   45.0460   34.3700   45.5700 N   0  0  0  0  0  0  0  0  0  0  0  0
   46.0220   33.4760   45.1960 C   0  0  0  0  0  0  0  0  0  0  0  0
   46.7000   33.6080   44.0730 N   0  0  0  0  0  0  0  0  0  0  0  0
   45.2200   36.4560   42.9220 H   0  0  0  0  0  0  0  0  0  0  0  0
   43.9610   36.1450   45.0840 H   0  0  0  0  0  0  0  0  0  0  0  0
   46.3220   32.3350   46.1110 C   0  0  1  0  0  0  0  0  0  0  0  0
   47.0490   32.6060   47.4080 C   0  0  0  0  0  0  0  0  0  0  0  0
   45.5650   32.3570   47.3810 C   0  0  1  0  0  0  0  0  0  0  0  0
   46.4920   31.3570   45.6230 H   0  0  0  0  0  0  0  0  0  0  0  0
   47.4480   33.6250   47.4980 H   0  0  0  0  0  0  0  0  0  0  0  0
   47.6720   31.7640   47.7650 H   0  0  0  0  0  0  0  0  0  0  0  0
   45.2120   31.4180   47.8730 H   0  0  0  0  0  0  0  0  0  0  0  0
   44.8040   33.5280   47.7530 N   0  0  0  0  0  0  0  0  0  0  0  0
   43.8200   33.5350   47.5270 H   0  0  0  0  0  0  0  0  0  0  0  0
   45.3180   34.3850   47.9070 H   0  0  0  0  0  0  0  0  0  0  0  0
   47.1060   34.8940   42.0350 C   0  0  0  0  0  0  0  0  0  0  0  0
   48.0320   35.7690   41.9070 O   0  0  0  0  0  0  0  0  0  0  0  0
   46.5870   33.9880   41.0160 C   0  0  0  0  0  0  0  0  0  0  0  0
   45.2930   34.0760   40.5300 C   0  0  0  0  0  0  0  0  0  0  0  0
   44.6410   34.8560   40.9210 H   0  0  0  0  0  0  0  0  0  0  0  0
   44.7530   33.2430   39.5720 C   0  0  0  0  0  3  0  0  0  0  0  0
   45.5330   32.2470   39.0490 C   0  0  0  0  0  3  0  0  0  0  0  0
   46.8330   32.1000   39.4870 C   0  0  0  0  0  0  0  0  0  0  0  0
   47.6520   31.0940   38.9710 C   0  0  0  0  0  3  0  0  0  0  0  0
   48.9470   30.9270   39.3860 C   0  0  0  0  0  3  0  0  0  0  0  0
   49.4640   31.7880   40.3560 C   0  0  0  0  0  3  0  0  0  0  0  0
   48.6190   32.7700   40.8410 C   0  0  0  0  0  3  0  0  0  0  0  0
   47.3140   32.9650   40.4460 C   0  0  0  0  0  0  0  0  0  0  0  0
  1  2  2  0  0  0  0
  1  6  1  0  0  0  0
  2  3  1  0  0  0  0
  3  8  1  0  0  0  0
  3  4  2  0  0  0  0
  5  4  1  0  0  0  0
  5  9  1  0  0  0  0
  6  5  2  0  0  0  0
  7  2  1  0  0  0  0
  9 12  1  6  0  0  0
  9 11  1  0  0  0  0
  9 10  1  0  0  0  0
 10 13  1  0  0  0  0
 10 14  1  0  0  0  0
 11 10  1  0  0  0  0
 11 16  1  0  0  0  0
 11 15  1  1  0  0  0
 16 18  1  0  0  0  0
 17 16  1  0  0  0  0
 19  1  1  0  0  0  0
 20 19  2  0  0  0  0
 21 19  1  0  0  0  0
 22 23  1  0  0  0  0
 22 21  1  0  0  0  0
 24 22  2  0  0  0  0
 25 26  2  0  0  0  0
 25 24  1  0  0  0  0
 26 31  1  0  0  0  0
 27 28  2  0  0  0  0
 27 26  1  0  0  0  0
 28 29  1  0  0  0  0
 29 30  2  0  0  0  0
 31 30  1  0  0  0  0
 31 21  2  0  0  0  0
M  END
>  <minimizedAffinity>
-5.81699324

>  <minimizedRMSD>
1.45641828

$$$$
