
 OpenBabel03252508033D

 44 48  0  0  1  0  0  0  0  0999 V2000
   42.0530   33.2650   41.1200 C   0  0  0  0  0  0  0  0  0  0  0  0
   42.7860   34.3980   41.3110 C   0  0  0  0  0  0  0  0  0  0  0  0
   42.1300   35.6410   41.2820 C   0  0  0  0  0  0  0  0  0  0  0  0
   40.7810   35.7700   41.0710 C   0  0  0  0  0  0  0  0  0  0  0  0
   40.0400   34.6330   40.8790 C   0  0  0  0  0  0  0  0  0  0  0  0
   40.6780   33.4310   40.9070 C   0  0  0  0  0  0  0  0  0  0  0  0
   42.6400   36.5830   41.4140 H   0  0  0  0  0  0  0  0  0  0  0  0
   40.2850   36.7110   41.0490 H   0  0  0  0  0  0  0  0  0  0  0  0
   38.9770   34.6410   40.7060 H   0  0  0  0  0  0  0  0  0  0  0  0
   40.0770   32.5210   40.7510 H   0  0  0  0  0  0  0  0  0  0  0  0
   42.6920   31.7120   41.2540 S   0  0  0  0  0  0  0  0  0  0  0  0
   41.5440   30.9080   40.5550 O   0  0  0  0  0  0  0  0  0  0  0  0
   42.7300   31.2070   42.6350 O   0  0  0  0  0  0  0  0  0  0  0  0
   43.7580   30.8920   40.2260 C   0  0  0  0  0  0  0  0  0  0  0  0
   44.2110   31.2190   38.9220 C   0  0  0  0  0  0  0  0  0  0  0  0
   43.7910   32.2020   38.6040 H   0  0  0  0  0  0  0  0  0  0  0  0
   45.0050   30.5470   38.0090 C   0  0  0  0  0  3  0  0  0  0  0  0
   45.3750   29.3610   38.5380 C   0  0  0  0  0  3  0  0  0  0  0  0
   45.0270   28.8870   39.7780 C   0  0  0  0  0  0  0  0  0  0  0  0
   45.5430   27.6250   40.0790 C   0  0  0  0  0  3  0  0  0  0  0  0
   45.2560   27.0570   41.2980 C   0  0  0  0  0  3  0  0  0  0  0  0
   44.4680   27.7620   42.1780 C   0  0  0  0  0  3  0  0  0  0  0  0
   44.0040   28.9970   41.7980 C   0  0  0  0  0  3  0  0  0  0  0  0
   44.2360   29.6400   40.6030 C   0  0  0  0  0  0  0  0  0  0  0  0
   44.2290   34.3600   41.5380 C   0  0  0  0  0  0  0  0  0  0  0  0
   45.0990   34.2600   40.6220 O   0  0  0  0  0  0  0  0  0  0  0  0
   44.5870   34.4510   42.9270 C   0  0  0  0  0  0  0  0  0  0  0  0
   44.3070   35.7110   43.5650 C   0  0  0  0  0  0  0  0  0  0  0  0
   44.6280   35.8190   44.9080 C   0  0  0  0  0  0  0  0  0  0  0  0
   45.1780   34.7440   45.5320 N   0  0  0  0  0  0  0  0  0  0  0  0
   45.4210   33.5640   44.8740 C   0  0  0  0  0  0  0  0  0  0  0  0
   45.1280   33.4590   43.6270 N   0  0  0  0  0  0  0  0  0  0  0  0
   43.8840   36.5980   43.1520 H   0  0  0  0  0  0  0  0  0  0  0  0
   44.4710   36.7020   45.4980 H   0  0  0  0  0  0  0  0  0  0  0  0
   46.0110   32.4400   45.6380 C   0  0  1  0  0  0  0  0  0  0  0  0
   46.9620   32.7410   46.7740 C   0  0  0  0  0  0  0  0  0  0  0  0
   45.5510   32.3270   47.0400 C   0  0  1  0  0  0  0  0  0  0  0  0
   46.1390   31.5050   45.0730 H   0  0  0  0  0  0  0  0  0  0  0  0
   47.2930   33.7900   46.9090 H   0  0  0  0  0  0  0  0  0  0  0  0
   47.7230   31.9790   47.0270 H   0  0  0  0  0  0  0  0  0  0  0  0
   45.3330   31.3500   47.5150 H   0  0  0  0  0  0  0  0  0  0  0  0
   44.7700   33.4050   47.6380 N   0  0  0  0  0  0  0  0  0  0  0  0
   43.7670   33.1740   47.3990 H   0  0  0  0  0  0  0  0  0  0  0  0
   44.8840   33.3070   48.6660 H   0  0  0  0  0  0  0  0  0  0  0  0
  1 11  1  0  0  0  0
  1  2  1  0  0  0  0
  2 25  1  0  0  0  0
  3  2  2  0  0  0  0
  3  7  1  0  0  0  0
  4  3  1  0  0  0  0
  5  6  1  0  0  0  0
  5  4  2  0  0  0  0
  6  1  2  0  0  0  0
  8  4  1  0  0  0  0
  9  5  1  0  0  0  0
 10  6  1  0  0  0  0
 11 13  2  0  0  0  0
 12 11  2  0  0  0  0
 14 24  1  0  0  0  0
 14 11  1  0  0  0  0
 15 14  2  0  0  0  0
 16 15  1  0  0  0  0
 17 18  2  0  0  0  0
 17 15  1  0  0  0  0
 18 19  1  0  0  0  0
 19 20  2  0  0  0  0
 19 24  1  0  0  0  0
 20 21  1  0  0  0  0
 21 22  2  0  0  0  0
 23 22  1  0  0  0  0
 24 23  2  0  0  0  0
 25 27  1  0  0  0  0
 26 25  2  0  0  0  0
 27 28  2  0  0  0  0
 27 32  1  0  0  0  0
 28 29  1  0  0  0  0
 29 34  1  0  0  0  0
 29 30  2  0  0  0  0
 31 30  1  0  0  0  0
 31 35  1  0  0  0  0
 32 31  2  0  0  0  0
 33 28  1  0  0  0  0
 35 38  1  6  0  0  0
 35 36  1  0  0  0  0
 35 37  1  0  0  0  0
 36 39  1  0  0  0  0
 36 40  1  0  0  0  0
 36 37  1  0  0  0  0
 37 41  1  1  0  0  0
 37 42  1  0  0  0  0
 42 44  1  0  0  0  0
 43 42  1  0  0  0  0
M  END
>  <minimizedAffinity>
-5.764709

>  <minimizedRMSD>
1.28244448

$$$$
