
 OpenBabel03242519553D

 42 45  0  0  1  0  0  0  0  0999 V2000
   36.5900   30.1830   39.3230 C   0  0  2  0  0  0  0  0  0  0  0  0
   36.9550   31.5850   39.5110 C   0  0  0  0  0  0  0  0  0  0  0  0
   38.4090   31.7820   39.8060 C   0  0  0  0  0  0  0  0  0  0  0  0
   38.8770   30.9790   40.9940 C   0  0  0  0  0  0  0  0  0  0  0  0
   38.2720   29.5960   41.1040 C   0  0  2  0  0  0  0  0  0  0  0  0
   37.6190   29.2040   39.7940 C   0  0  0  0  0  0  0  0  0  0  0  0
   35.6460   30.0040   39.9300 H   0  0  0  0  0  0  0  0  0  0  0  0
   36.7230   32.1850   38.6040 H   0  0  0  0  0  0  0  0  0  0  0  0
   36.3990   32.0820   40.3480 H   0  0  0  0  0  0  0  0  0  0  0  0
   38.5170   32.8600   40.1020 H   0  0  0  0  0  0  0  0  0  0  0  0
   39.0220   31.6500   38.9070 H   0  0  0  0  0  0  0  0  0  0  0  0
   38.8130   31.5370   41.9510 H   0  0  0  0  0  0  0  0  0  0  0  0
   39.9770   30.8320   40.8230 H   0  0  0  0  0  0  0  0  0  0  0  0
   39.0580   28.8430   41.3080 H   0  0  0  0  0  0  0  0  0  0  0  0
   38.4260   28.9450   39.1220 H   0  0  0  0  0  0  0  0  0  0  0  0
   37.0510   28.2630   39.9710 H   0  0  0  0  0  0  0  0  0  0  0  0
   36.2180   29.8390   37.9450 C   0  0  0  0  0  0  0  0  0  0  0  0
   34.9870   29.1980   37.8120 C   0  0  0  0  0  0  0  0  0  0  0  0
   34.5290   28.8440   36.5430 C   0  0  0  0  0  0  0  0  0  0  0  0
   35.3390   29.1550   35.4800 N   0  0  0  0  0  0  0  0  0  0  0  0
   36.5230   29.7720   35.6330 C   0  0  0  0  0  0  0  0  0  0  0  0
   36.9240   30.0940   36.8530 N   0  0  0  0  0  0  0  0  0  0  0  0
   34.2040   28.8480   38.4680 H   0  0  0  0  0  0  0  0  0  0  0  0
   33.6410   28.3630   36.2100 H   0  0  0  0  0  0  0  0  0  0  0  0
   37.1700   30.0190   34.8090 H   0  0  0  0  0  0  0  0  0  0  0  0
   37.3030   29.5970   42.2330 C   0  0  0  0  0  0  0  0  0  0  0  0
   37.3420   30.6420   42.6670 H   0  0  0  0  0  0  0  0  0  0  0  0
   36.2750   29.5300   41.8170 H   0  0  0  0  0  0  0  0  0  0  0  0
   37.5310   28.6550   43.3320 C   0  0  0  0  0  0  0  0  0  0  0  0
   36.5340   28.4810   43.8570 H   0  0  0  0  0  0  0  0  0  0  0  0
   38.1520   29.1140   44.1330 H   0  0  0  0  0  0  0  0  0  0  0  0
   38.0500   27.3310   43.0060 C   0  0  0  0  0  0  0  0  0  0  0  0
   36.9850   26.5290   42.5310 C   0  0  0  0  0  0  0  0  0  0  0  0
   35.9490   26.8560   42.3640 H   0  0  0  0  0  0  0  0  0  0  0  0
   37.0730   25.1740   42.1910 C   0  0  0  0  0  3  0  0  0  0  0  0
   38.2840   24.5360   42.3150 C   0  0  0  0  0  3  0  0  0  0  0  0
   39.3490   25.2710   42.7710 C   0  0  0  0  0  0  0  0  0  0  0  0
   40.6150   24.7700   42.9220 C   0  0  0  0  0  3  0  0  0  0  0  0
   41.6860   25.5370   43.3620 C   0  0  0  0  0  3  0  0  0  0  0  0
   41.5130   26.8720   43.6740 C   0  0  0  0  0  3  0  0  0  0  0  0
   40.2420   27.3650   43.5200 C   0  0  0  0  0  3  0  0  0  0  0  0
   39.1980   26.5880   43.0860 C   0  0  0  0  0  0  0  0  0  0  0  0
  1  2  1  0  0  0  0
  1  6  1  0  0  0  0
  1  7  1  1  0  0  0
  2  3  1  0  0  0  0
  2  9  1  0  0  0  0
  3 10  1  0  0  0  0
  3  4  1  0  0  0  0
  4  5  1  0  0  0  0
  4 12  1  0  0  0  0
  5 14  1  1  0  0  0
  5 26  1  0  0  0  0
  6 16  1  0  0  0  0
  6  5  1  0  0  0  0
  8  2  1  0  0  0  0
 11  3  1  0  0  0  0
 13  4  1  0  0  0  0
 15  6  1  0  0  0  0
 17  1  1  0  0  0  0
 18 17  1  0  0  0  0
 18 23  1  0  0  0  0
 19 18  2  0  0  0  0
 20 21  2  0  0  0  0
 20 19  1  0  0  0  0
 21 22  1  0  0  0  0
 22 17  2  0  0  0  0
 24 19  1  0  0  0  0
 25 21  1  0  0  0  0
 26 27  1  0  0  0  0
 26 29  1  0  0  0  0
 28 26  1  0  0  0  0
 29 30  1  0  0  0  0
 29 31  1  0  0  0  0
 32 42  1  0  0  0  0
 32 29  1  0  0  0  0
 33 32  2  0  0  0  0
 34 33  1  0  0  0  0
 35 36  2  0  0  0  0
 35 33  1  0  0  0  0
 36 37  1  0  0  0  0
 37 38  2  0  0  0  0
 37 42  1  0  0  0  0
 38 39  1  0  0  0  0
 39 40  2  0  0  0  0
 41 40  1  0  0  0  0
 42 41  2  0  0  0  0
M  END
>  <minimizedAffinity>
-6.28346395

$$$$

 OpenBabel03242519553D

 42 45  0  0  1  0  0  0  0  0999 V2000
   38.5790   30.9710   39.3330 C   0  0  2  0  0  0  0  0  0  0  0  0
   38.9900   29.5740   39.2050 C   0  0  0  0  0  0  0  0  0  0  0  0
   38.2420   28.8350   38.1400 C   0  0  0  0  0  0  0  0  0  0  0  0
   36.7460   28.9030   38.3230 C   0  0  0  0  0  0  0  0  0  0  0  0
   36.2260   30.2370   38.8130 C   0  0  2  0  0  0  0  0  0  0  0  0
   37.2890   31.3040   38.6520 C   0  0  0  0  0  0  0  0  0  0  0  0
   38.4410   31.1730   40.4430 H   0  0  0  0  0  0  0  0  0  0  0  0
   40.0710   29.4950   38.9580 H   0  0  0  0  0  0  0  0  0  0  0  0
   38.8530   28.9820   40.1470 H   0  0  0  0  0  0  0  0  0  0  0  0
   38.5180   27.7540   38.2680 H   0  0  0  0  0  0  0  0  0  0  0  0
   38.5830   29.1210   37.1380 H   0  0  0  0  0  0  0  0  0  0  0  0
   36.3400   28.0560   38.9150 H   0  0  0  0  0  0  0  0  0  0  0  0
   36.3260   28.7570   37.2920 H   0  0  0  0  0  0  0  0  0  0  0  0
   35.3550   30.5590   38.2110 H   0  0  0  0  0  0  0  0  0  0  0  0
   37.3130   31.5480   37.5980 H   0  0  0  0  0  0  0  0  0  0  0  0
   36.9260   32.2200   39.1720 H   0  0  0  0  0  0  0  0  0  0  0  0
   39.5960   31.9370   38.9020 C   0  0  0  0  0  0  0  0  0  0  0  0
   39.7300   33.0560   39.7230 C   0  0  0  0  0  0  0  0  0  0  0  0
   40.6810   34.0270   39.4140 C   0  0  0  0  0  0  0  0  0  0  0  0
   41.4430   33.8170   38.2930 N   0  0  0  0  0  0  0  0  0  0  0  0
   41.2960   32.7320   37.5140 C   0  0  0  0  0  0  0  0  0  0  0  0
   40.3830   31.8290   37.8400 N   0  0  0  0  0  0  0  0  0  0  0  0
   39.2590   33.4400   40.6170 H   0  0  0  0  0  0  0  0  0  0  0  0
   40.9550   34.9390   39.8880 H   0  0  0  0  0  0  0  0  0  0  0  0
   41.8840   32.5550   36.6300 H   0  0  0  0  0  0  0  0  0  0  0  0
   35.8000   30.0820   40.2300 C   0  0  0  0  0  0  0  0  0  0  0  0
   36.6070   30.5780   40.8480 H   0  0  0  0  0  0  0  0  0  0  0  0
   34.9100   30.7240   40.4050 H   0  0  0  0  0  0  0  0  0  0  0  0
   35.6240   28.7210   40.7470 C   0  0  0  0  0  0  0  0  0  0  0  0
   35.5350   28.0170   39.8550 H   0  0  0  0  0  0  0  0  0  0  0  0
   34.6380   28.6060   41.2490 H   0  0  0  0  0  0  0  0  0  0  0  0
   36.6740   28.1670   41.5940 C   0  0  0  0  0  0  0  0  0  0  0  0
   37.2110   29.2070   42.3920 C   0  0  0  0  0  0  0  0  0  0  0  0
   36.8570   30.2470   42.4290 H   0  0  0  0  0  0  0  0  0  0  0  0
   38.2890   29.0820   43.2760 C   0  0  0  0  0  3  0  0  0  0  0  0
   38.9020   27.8600   43.4070 C   0  0  0  0  0  3  0  0  0  0  0  0
   38.4190   26.8190   42.6560 C   0  0  0  0  0  0  0  0  0  0  0  0
   38.9180   25.5450   42.7020 C   0  0  0  0  0  3  0  0  0  0  0  0
   38.3990   24.4980   41.9510 C   0  0  0  0  0  3  0  0  0  0  0  0
   37.3280   24.7060   41.1030 C   0  0  0  0  0  3  0  0  0  0  0  0
   36.8340   25.9850   41.0620 C   0  0  0  0  0  3  0  0  0  0  0  0
   37.3650   27.0050   41.8120 C   0  0  0  0  0  0  0  0  0  0  0  0
  1  7  1  1  0  0  0
  2  1  1  0  0  0  0
  2  9  1  0  0  0  0
  3 10  1  0  0  0  0
  3  4  1  0  0  0  0
  3  2  1  0  0  0  0
  4  5  1  0  0  0  0
  4 12  1  0  0  0  0
  5 14  1  6  0  0  0
  5 26  1  0  0  0  0
  6  5  1  0  0  0  0
  6 16  1  0  0  0  0
  6  1  1  0  0  0  0
  8  2  1  0  0  0  0
 11  3  1  0  0  0  0
 13  4  1  0  0  0  0
 15  6  1  0  0  0  0
 17  1  1  0  0  0  0
 17 18  1  0  0  0  0
 18 23  1  0  0  0  0
 19 18  2  0  0  0  0
 19 24  1  0  0  0  0
 20 19  1  0  0  0  0
 21 22  1  0  0  0  0
 21 20  2  0  0  0  0
 22 17  2  0  0  0  0
 25 21  1  0  0  0  0
 26 28  1  0  0  0  0
 26 29  1  0  0  0  0
 26 27  1  0  0  0  0
 29 31  1  0  0  0  0
 29 32  1  0  0  0  0
 30 29  1  0  0  0  0
 32 42  2  0  0  0  0
 32 33  1  0  0  0  0
 33 34  1  0  0  0  0
 33 35  2  0  0  0  0
 35 36  1  0  0  0  0
 37 38  1  0  0  0  0
 37 36  2  0  0  0  0
 39 38  2  0  0  0  0
 40 39  1  0  0  0  0
 41 40  2  0  0  0  0
 41 42  1  0  0  0  0
 42 37  1  0  0  0  0
M  END
>  <minimizedAffinity>
-6.24297905

$$$$

 OpenBabel03242519553D

 42 45  0  0  1  0  0  0  0  0999 V2000
   36.0560   27.9830   39.8740 C   0  0  2  0  0  0  0  0  0  0  0  0
   36.4390   26.9420   38.9230 C   0  0  0  0  0  0  0  0  0  0  0  0
   36.8970   27.4860   37.6060 C   0  0  0  0  0  0  0  0  0  0  0  0
   35.8810   28.4000   36.9670 C   0  0  0  0  0  0  0  0  0  0  0  0
   35.1410   29.3010   37.9320 C   0  0  2  0  0  0  0  0  0  0  0  0
   35.8550   29.3360   39.2680 C   0  0  0  0  0  0  0  0  0  0  0  0
   35.0650   27.6640   40.3310 H   0  0  0  0  0  0  0  0  0  0  0  0
   37.2680   26.3180   39.3230 H   0  0  0  0  0  0  0  0  0  0  0  0
   35.6090   26.2240   38.6900 H   0  0  0  0  0  0  0  0  0  0  0  0
   36.9840   26.6000   36.9230 H   0  0  0  0  0  0  0  0  0  0  0  0
   37.9030   27.9160   37.6780 H   0  0  0  0  0  0  0  0  0  0  0  0
   35.1890   27.8710   36.2800 H   0  0  0  0  0  0  0  0  0  0  0  0
   36.4830   29.0740   36.3010 H   0  0  0  0  0  0  0  0  0  0  0  0
   35.1190   30.3420   37.5540 H   0  0  0  0  0  0  0  0  0  0  0  0
   36.7210   29.9690   39.1300 H   0  0  0  0  0  0  0  0  0  0  0  0
   35.1940   29.8700   39.9880 H   0  0  0  0  0  0  0  0  0  0  0  0
   36.9670   28.1150   41.0180 C   0  0  0  0  0  0  0  0  0  0  0  0
   37.1670   29.4220   41.4620 C   0  0  0  0  0  0  0  0  0  0  0  0
   37.9990   29.6580   42.5550 C   0  0  0  0  0  0  0  0  0  0  0  0
   38.5860   28.5630   43.1370 N   0  0  0  0  0  0  0  0  0  0  0  0
   38.3810   27.3120   42.6910 C   0  0  0  0  0  0  0  0  0  0  0  0
   37.5820   27.1270   41.6510 N   0  0  0  0  0  0  0  0  0  0  0  0
   36.8410   30.4110   41.1750 H   0  0  0  0  0  0  0  0  0  0  0  0
   38.2880   30.5500   43.0570 H   0  0  0  0  0  0  0  0  0  0  0  0
   38.8370   26.4440   43.1360 H   0  0  0  0  0  0  0  0  0  0  0  0
   33.7440   28.8060   38.0580 C   0  0  0  0  0  0  0  0  0  0  0  0
   33.8180   27.8190   38.6070 H   0  0  0  0  0  0  0  0  0  0  0  0
   33.2000   29.4580   38.7750 H   0  0  0  0  0  0  0  0  0  0  0  0
   32.9880   28.5680   36.8250 C   0  0  0  0  0  0  0  0  0  0  0  0
   32.3460   27.6390   36.9830 H   0  0  0  0  0  0  0  0  0  0  0  0
   33.6610   28.2610   35.9940 H   0  0  0  0  0  0  0  0  0  0  0  0
   32.0810   29.6120   36.3630 C   0  0  0  0  0  0  0  0  0  0  0  0
   32.4690   30.0080   35.0600 C   0  0  0  0  0  0  0  0  0  0  0  0
   33.2740   29.5630   34.4580 H   0  0  0  0  0  0  0  0  0  0  0  0
   31.8870   31.0410   34.3150 C   0  0  0  0  0  3  0  0  0  0  0  0
   30.8470   31.7500   34.8630 C   0  0  0  0  0  3  0  0  0  0  0  0
   30.4320   31.4040   36.1240 C   0  0  0  0  0  0  0  0  0  0  0  0
   29.3950   32.0100   36.7820 C   0  0  0  0  0  3  0  0  0  0  0  0
   28.9740   31.6290   38.0490 C   0  0  0  0  0  3  0  0  0  0  0  0
   29.6010   30.5940   38.7160 C   0  0  0  0  0  3  0  0  0  0  0  0
   30.6390   29.9930   38.0500 C   0  0  0  0  0  3  0  0  0  0  0  0
   31.0400   30.3880   36.7990 C   0  0  0  0  0  0  0  0  0  0  0  0
  1  7  1  1  0  0  0
  1 17  1  0  0  0  0
  2  8  1  0  0  0  0
  2  1  1  0  0  0  0
  3 11  1  0  0  0  0
  3  2  1  0  0  0  0
  4  3  1  0  0  0  0
  4  5  1  0  0  0  0
  5 14  1  6  0  0  0
  5 26  1  0  0  0  0
  5  6  1  0  0  0  0
  6  1  1  0  0  0  0
  6 16  1  0  0  0  0
  9  2  1  0  0  0  0
 10  3  1  0  0  0  0
 12  4  1  0  0  0  0
 13  4  1  0  0  0  0
 15  6  1  0  0  0  0
 17 18  2  0  0  0  0
 17 22  1  0  0  0  0
 18 19  1  0  0  0  0
 19 24  1  0  0  0  0
 19 20  2  0  0  0  0
 21 25  1  0  0  0  0
 21 20  1  0  0  0  0
 22 21  2  0  0  0  0
 23 18  1  0  0  0  0
 26 27  1  0  0  0  0
 26 28  1  0  0  0  0
 29 30  1  0  0  0  0
 29 26  1  0  0  0  0
 31 29  1  0  0  0  0
 32 42  1  0  0  0  0
 32 29  1  0  0  0  0
 33 32  2  0  0  0  0
 34 33  1  0  0  0  0
 35 36  2  0  0  0  0
 35 33  1  0  0  0  0
 36 37  1  0  0  0  0
 37 38  2  0  0  0  0
 37 42  1  0  0  0  0
 38 39  1  0  0  0  0
 39 40  2  0  0  0  0
 41 40  1  0  0  0  0
 42 41  2  0  0  0  0
M  END
>  <minimizedAffinity>
-6.18579483

$$$$

 OpenBabel03242519553D

 42 45  0  0  1  0  0  0  0  0999 V2000
   36.4770   29.9280   39.5810 C   0  0  2  0  0  0  0  0  0  0  0  0
   36.9860   31.2890   39.7300 C   0  0  0  0  0  0  0  0  0  0  0  0
   38.4690   31.3470   39.9250 C   0  0  0  0  0  0  0  0  0  0  0  0
   38.9370   30.5060   41.0880 C   0  0  0  0  0  0  0  0  0  0  0  0
   38.2110   29.1880   41.2520 C   0  0  2  0  0  0  0  0  0  0  0  0
   37.4370   28.8570   39.9920 C   0  0  0  0  0  0  0  0  0  0  0  0
   35.5630   29.8420   40.2510 H   0  0  0  0  0  0  0  0  0  0  0  0
   36.7520   31.9060   38.8350 H   0  0  0  0  0  0  0  0  0  0  0  0
   36.5370   31.8400   40.5980 H   0  0  0  0  0  0  0  0  0  0  0  0
   38.6990   32.4100   40.2030 H   0  0  0  0  0  0  0  0  0  0  0  0
   39.0040   31.1530   38.9890 H   0  0  0  0  0  0  0  0  0  0  0  0
   38.9910   31.0720   42.0410 H   0  0  0  0  0  0  0  0  0  0  0  0
   40.0040   30.2540   40.8450 H   0  0  0  0  0  0  0  0  0  0  0  0
   38.9330   28.3640   41.4100 H   0  0  0  0  0  0  0  0  0  0  0  0
   38.1680   28.5190   39.2700 H   0  0  0  0  0  0  0  0  0  0  0  0
   36.7950   27.9750   40.2160 H   0  0  0  0  0  0  0  0  0  0  0  0
   35.9810   29.6160   38.2350 C   0  0  0  0  0  0  0  0  0  0  0  0
   36.9230   29.7490   37.2160 C   0  0  0  0  0  0  0  0  0  0  0  0
   36.5610   29.4590   35.9010 C   0  0  0  0  0  0  0  0  0  0  0  0
   35.2680   29.0540   35.6870 N   0  0  0  0  0  0  0  0  0  0  0  0
   34.3750   28.9360   36.6850 C   0  0  0  0  0  0  0  0  0  0  0  0
   34.7560   29.2180   37.9210 N   0  0  0  0  0  0  0  0  0  0  0  0
   37.9570   30.0500   37.1320 H   0  0  0  0  0  0  0  0  0  0  0  0
   37.1030   29.4850   34.9860 H   0  0  0  0  0  0  0  0  0  0  0  0
   33.3570   28.6220   36.5310 H   0  0  0  0  0  0  0  0  0  0  0  0
   37.3250   29.2860   42.4420 C   0  0  0  0  0  0  0  0  0  0  0  0
   37.6100   30.2540   42.9550 H   0  0  0  0  0  0  0  0  0  0  0  0
   36.2860   29.4740   42.0960 H   0  0  0  0  0  0  0  0  0  0  0  0
   37.4030   28.2180   43.4440 C   0  0  0  0  0  0  0  0  0  0  0  0
   36.3520   27.8020   43.5930 H   0  0  0  0  0  0  0  0  0  0  0  0
   37.6490   28.6270   44.4480 H   0  0  0  0  0  0  0  0  0  0  0  0
   38.2540   27.0690   43.1580 C   0  0  0  0  0  0  0  0  0  0  0  0
   39.5470   27.3190   43.6800 C   0  0  0  0  0  0  0  0  0  0  0  0
   39.8520   28.1970   44.2660 H   0  0  0  0  0  0  0  0  0  0  0  0
   40.6600   26.4820   43.5360 C   0  0  0  0  0  3  0  0  0  0  0  0
   40.5210   25.3090   42.8360 C   0  0  0  0  0  3  0  0  0  0  0  0
   39.2880   25.0190   42.3110 C   0  0  0  0  0  0  0  0  0  0  0  0
   39.0020   23.8770   41.6120 C   0  0  0  0  0  3  0  0  0  0  0  0
   37.7400   23.5910   41.1090 C   0  0  0  0  0  3  0  0  0  0  0  0
   36.6920   24.4710   41.2980 C   0  0  0  0  0  3  0  0  0  0  0  0
   36.9860   25.6130   41.9990 C   0  0  0  0  0  3  0  0  0  0  0  0
   38.2420   25.8760   42.4860 C   0  0  0  0  0  0  0  0  0  0  0  0
  1  2  1  0  0  0  0
  1  6  1  0  0  0  0
  1  7  1  1  0  0  0
  2  3  1  0  0  0  0
  2  9  1  0  0  0  0
  3 10  1  0  0  0  0
  3  4  1  0  0  0  0
  4  5  1  0  0  0  0
  4 12  1  0  0  0  0
  5 14  1  1  0  0  0
  5 26  1  0  0  0  0
  6 16  1  0  0  0  0
  6  5  1  0  0  0  0
  8  2  1  0  0  0  0
 11  3  1  0  0  0  0
 13  4  1  0  0  0  0
 15  6  1  0  0  0  0
 17  1  1  0  0  0  0
 18 17  2  0  0  0  0
 19 18  1  0  0  0  0
 20 19  2  0  0  0  0
 20 21  1  0  0  0  0
 21 22  2  0  0  0  0
 22 17  1  0  0  0  0
 23 18  1  0  0  0  0
 24 19  1  0  0  0  0
 25 21  1  0  0  0  0
 26 27  1  0  0  0  0
 26 29  1  0  0  0  0
 28 26  1  0  0  0  0
 29 30  1  0  0  0  0
 29 31  1  0  0  0  0
 32 29  1  0  0  0  0
 32 33  1  0  0  0  0
 33 34  1  0  0  0  0
 35 33  2  0  0  0  0
 36 35  1  0  0  0  0
 37 42  1  0  0  0  0
 37 36  2  0  0  0  0
 38 37  1  0  0  0  0
 39 40  1  0  0  0  0
 39 38  2  0  0  0  0
 40 41  2  0  0  0  0
 41 42  1  0  0  0  0
 42 32  2  0  0  0  0
M  END
>  <minimizedAffinity>
-6.08967257

$$$$

 OpenBabel03242519553D

 42 45  0  0  1  0  0  0  0  0999 V2000
   38.9980   30.5650   42.0970 C   0  0  2  0  0  0  0  0  0  0  0  0
   40.1760   30.8670   42.9070 C   0  0  0  0  0  0  0  0  0  0  0  0
   41.3820   30.0730   42.5130 C   0  0  0  0  0  0  0  0  0  0  0  0
   41.1320   28.5860   42.5270 C   0  0  0  0  0  0  0  0  0  0  0  0
   39.7650   28.1670   42.0290 C   0  0  2  0  0  0  0  0  0  0  0  0
   39.1050   29.3120   41.2880 C   0  0  0  0  0  0  0  0  0  0  0  0
   38.1280   30.4340   42.8160 H   0  0  0  0  0  0  0  0  0  0  0  0
   40.4540   31.9410   42.8280 H   0  0  0  0  0  0  0  0  0  0  0  0
   40.0240   30.6770   44.0020 H   0  0  0  0  0  0  0  0  0  0  0  0
   42.1470   30.2630   43.3130 H   0  0  0  0  0  0  0  0  0  0  0  0
   41.8190   30.4450   41.5790 H   0  0  0  0  0  0  0  0  0  0  0  0
   41.3840   28.1100   43.4970 H   0  0  0  0  0  0  0  0  0  0  0  0
   41.8780   28.1640   41.8010 H   0  0  0  0  0  0  0  0  0  0  0  0
   39.8530   27.3280   41.3110 H   0  0  0  0  0  0  0  0  0  0  0  0
   39.5900   29.3640   40.3220 H   0  0  0  0  0  0  0  0  0  0  0  0
   38.0500   29.0160   41.0880 H   0  0  0  0  0  0  0  0  0  0  0  0
   38.5850   31.6590   41.2080 C   0  0  0  0  0  0  0  0  0  0  0  0
   37.5270   31.3530   40.3540 C   0  0  0  0  0  0  0  0  0  0  0  0
   37.0430   32.3280   39.4810 C   0  0  0  0  0  0  0  0  0  0  0  0
   37.6560   33.5550   39.5180 N   0  0  0  0  0  0  0  0  0  0  0  0
   38.6760   33.8260   40.3490 C   0  0  0  0  0  0  0  0  0  0  0  0
   39.1070   32.8760   41.1650 N   0  0  0  0  0  0  0  0  0  0  0  0
   36.9110   30.4930   40.1360 H   0  0  0  0  0  0  0  0  0  0  0  0
   36.2610   32.3200   38.7600 H   0  0  0  0  0  0  0  0  0  0  0  0
   39.1680   34.7830   40.3870 H   0  0  0  0  0  0  0  0  0  0  0  0
   38.9590   27.7180   43.1950 C   0  0  0  0  0  0  0  0  0  0  0  0
   39.4590   26.7720   43.5660 H   0  0  0  0  0  0  0  0  0  0  0  0
   39.1140   28.4350   44.0300 H   0  0  0  0  0  0  0  0  0  0  0  0
   37.5440   27.4080   42.9720 C   0  0  0  0  0  0  0  0  0  0  0  0
   37.0090   28.3820   42.7150 H   0  0  0  0  0  0  0  0  0  0  0  0
   37.0460   27.0970   43.9160 H   0  0  0  0  0  0  0  0  0  0  0  0
   37.2060   26.4700   41.9070 C   0  0  0  0  0  0  0  0  0  0  0  0
   37.5840   25.1670   42.3110 C   0  0  0  0  0  0  0  0  0  0  0  0
   37.9990   24.8850   43.2890 H   0  0  0  0  0  0  0  0  0  0  0  0
   37.4910   24.0100   41.5270 C   0  0  0  0  0  3  0  0  0  0  0  0
   36.9920   24.1120   40.2520 C   0  0  0  0  0  3  0  0  0  0  0  0
   36.6100   25.3540   39.8120 C   0  0  0  0  0  0  0  0  0  0  0  0
   36.0770   25.5980   38.5740 C   0  0  0  0  0  3  0  0  0  0  0  0
   35.6730   26.8590   38.1570 C   0  0  0  0  0  3  0  0  0  0  0  0
   35.7960   27.9490   38.9960 C   0  0  0  0  0  3  0  0  0  0  0  0
   36.3310   27.6980   40.2340 C   0  0  0  0  0  3  0  0  0  0  0  0
   36.7260   26.4420   40.6250 C   0  0  0  0  0  0  0  0  0  0  0  0
  1  7  1  1  0  0  0
  1  2  1  0  0  0  0
  2  9  1  0  0  0  0
  3  4  1  0  0  0  0
  3  2  1  0  0  0  0
  3 10  1  0  0  0  0
  4 12  1  0  0  0  0
  5 14  1  6  0  0  0
  5  4  1  0  0  0  0
  5 26  1  0  0  0  0
  6  5  1  0  0  0  0
  6  1  1  0  0  0  0
  8  2  1  0  0  0  0
 11  3  1  0  0  0  0
 13  4  1  0  0  0  0
 15  6  1  0  0  0  0
 16  6  1  0  0  0  0
 17  1  1  0  0  0  0
 18 17  2  0  0  0  0
 19 20  2  0  0  0  0
 19 18  1  0  0  0  0
 20 21  1  0  0  0  0
 21 25  1  0  0  0  0
 21 22  2  0  0  0  0
 22 17  1  0  0  0  0
 23 18  1  0  0  0  0
 24 19  1  0  0  0  0
 26 27  1  0  0  0  0
 26 28  1  0  0  0  0
 29 26  1  0  0  0  0
 29 31  1  0  0  0  0
 30 29  1  0  0  0  0
 32 33  1  0  0  0  0
 32 29  1  0  0  0  0
 33 34  1  0  0  0  0
 35 33  2  0  0  0  0
 36 35  1  0  0  0  0
 37 36  2  0  0  0  0
 37 42  1  0  0  0  0
 38 37  1  0  0  0  0
 39 38  2  0  0  0  0
 39 40  1  0  0  0  0
 40 41  2  0  0  0  0
 41 42  1  0  0  0  0
 42 32  2  0  0  0  0
M  END
>  <minimizedAffinity>
-6.06002903

$$$$

 OpenBabel03242519553D

 42 45  0  0  1  0  0  0  0  0999 V2000
   38.9440   29.4630   40.2190 C   0  0  2  0  0  0  0  0  0  0  0  0
   38.2180   28.2790   39.7660 C   0  0  0  0  0  0  0  0  0  0  0  0
   36.7370   28.4880   39.6930 C   0  0  0  0  0  0  0  0  0  0  0  0
   36.1510   28.9660   40.9990 C   0  0  0  0  0  0  0  0  0  0  0  0
   37.0100   29.9560   41.7560 C   0  0  2  0  0  0  0  0  0  0  0  0
   38.0880   30.5150   40.8480 C   0  0  0  0  0  0  0  0  0  0  0  0
   39.6870   29.1130   41.0050 H   0  0  0  0  0  0  0  0  0  0  0  0
   38.5520   27.9670   38.7520 H   0  0  0  0  0  0  0  0  0  0  0  0
   38.3730   27.3830   40.4210 H   0  0  0  0  0  0  0  0  0  0  0  0
   36.2940   27.4720   39.5130 H   0  0  0  0  0  0  0  0  0  0  0  0
   36.4600   29.1000   38.8270 H   0  0  0  0  0  0  0  0  0  0  0  0
   35.8010   28.1380   41.6490 H   0  0  0  0  0  0  0  0  0  0  0  0
   35.2160   29.5140   40.7070 H   0  0  0  0  0  0  0  0  0  0  0  0
   36.4020   30.8160   42.0980 H   0  0  0  0  0  0  0  0  0  0  0  0
   37.5950   31.2300   40.2020 H   0  0  0  0  0  0  0  0  0  0  0  0
   38.7870   31.1040   41.4830 H   0  0  0  0  0  0  0  0  0  0  0  0
   39.7700   30.0940   39.1820 C   0  0  0  0  0  0  0  0  0  0  0  0
   39.2530   31.2780   38.6580 C   0  0  0  0  0  0  0  0  0  0  0  0
   39.9670   31.9690   37.6810 C   0  0  0  0  0  0  0  0  0  0  0  0
   41.1630   31.4250   37.2840 N   0  0  0  0  0  0  0  0  0  0  0  0
   41.6420   30.2810   37.8010 C   0  0  0  0  0  0  0  0  0  0  0  0
   40.9360   29.6540   38.7300 N   0  0  0  0  0  0  0  0  0  0  0  0
   38.3640   31.8780   38.7920 H   0  0  0  0  0  0  0  0  0  0  0  0
   39.7720   32.8720   37.1530 H   0  0  0  0  0  0  0  0  0  0  0  0
   42.5760   29.8420   37.4980 H   0  0  0  0  0  0  0  0  0  0  0  0
   37.5820   29.2680   42.9440 C   0  0  0  0  0  0  0  0  0  0  0  0
   38.6910   29.1760   42.7390 H   0  0  0  0  0  0  0  0  0  0  0  0
   37.5370   29.9610   43.8110 H   0  0  0  0  0  0  0  0  0  0  0  0
   37.0820   27.9280   43.2650 C   0  0  0  0  0  0  0  0  0  0  0  0
   36.1510   27.7410   42.6330 H   0  0  0  0  0  0  0  0  0  0  0  0
   36.6850   27.8850   44.3030 H   0  0  0  0  0  0  0  0  0  0  0  0
   37.9640   26.7900   43.0300 C   0  0  0  0  0  0  0  0  0  0  0  0
   39.2010   27.0330   43.6760 C   0  0  0  0  0  0  0  0  0  0  0  0
   39.4440   27.8960   44.3110 H   0  0  0  0  0  0  0  0  0  0  0  0
   40.3290   26.2050   43.6150 C   0  0  0  0  0  3  0  0  0  0  0  0
   40.2640   25.0500   42.8750 C   0  0  0  0  0  3  0  0  0  0  0  0
   39.0870   24.7690   42.2300 C   0  0  0  0  0  0  0  0  0  0  0  0
   38.8760   23.6440   41.4780 C   0  0  0  0  0  3  0  0  0  0  0  0
   37.6680   23.3650   40.8520 C   0  0  0  0  0  3  0  0  0  0  0  0
   36.6010   24.2350   40.9660 C   0  0  0  0  0  3  0  0  0  0  0  0
   36.8200   25.3590   41.7210 C   0  0  0  0  0  3  0  0  0  0  0  0
   38.0240   25.6160   42.3290 C   0  0  0  0  0  0  0  0  0  0  0  0
  1  6  1  0  0  0  0
  1  7  1  1  0  0  0
  2  1  1  0  0  0  0
  2  9  1  0  0  0  0
  3  2  1  0  0  0  0
  3  4  1  0  0  0  0
  4 12  1  0  0  0  0
  4  5  1  0  0  0  0
  5 14  1  1  0  0  0
  5 26  1  0  0  0  0
  6 16  1  0  0  0  0
  6  5  1  0  0  0  0
  8  2  1  0  0  0  0
 10  3  1  0  0  0  0
 11  3  1  0  0  0  0
 13  4  1  0  0  0  0
 15  6  1  0  0  0  0
 17  1  1  0  0  0  0
 18 23  1  0  0  0  0
 18 17  2  0  0  0  0
 19 18  1  0  0  0  0
 20 19  2  0  0  0  0
 20 21  1  0  0  0  0
 21 22  2  0  0  0  0
 22 17  1  0  0  0  0
 24 19  1  0  0  0  0
 25 21  1  0  0  0  0
 26 29  1  0  0  0  0
 26 28  1  0  0  0  0
 27 26  1  0  0  0  0
 29 31  1  0  0  0  0
 30 29  1  0  0  0  0
 32 29  1  0  0  0  0
 32 33  1  0  0  0  0
 33 34  1  0  0  0  0
 35 33  2  0  0  0  0
 36 35  1  0  0  0  0
 37 42  1  0  0  0  0
 37 36  2  0  0  0  0
 38 37  1  0  0  0  0
 39 40  1  0  0  0  0
 39 38  2  0  0  0  0
 40 41  2  0  0  0  0
 41 42  1  0  0  0  0
 42 32  2  0  0  0  0
M  END
>  <minimizedAffinity>
-6.03519917

$$$$

 OpenBabel03242519553D

 42 45  0  0  1  0  0  0  0  0999 V2000
   38.3910   29.4030   39.5800 C   0  0  2  0  0  0  0  0  0  0  0  0
   37.3190   30.0600   38.8350 C   0  0  0  0  0  0  0  0  0  0  0  0
   36.7090   31.2110   39.5720 C   0  0  0  0  0  0  0  0  0  0  0  0
   36.2060   30.8260   40.9410 C   0  0  0  0  0  0  0  0  0  0  0  0
   37.0800   29.8400   41.6860 C   0  0  2  0  0  0  0  0  0  0  0  0
   38.4450   29.7540   41.0330 C   0  0  0  0  0  0  0  0  0  0  0  0
   38.2050   28.2840   39.5060 H   0  0  0  0  0  0  0  0  0  0  0  0
   37.6890   30.4550   37.8640 H   0  0  0  0  0  0  0  0  0  0  0  0
   36.4710   29.3740   38.5760 H   0  0  0  0  0  0  0  0  0  0  0  0
   35.8000   31.5040   38.9820 H   0  0  0  0  0  0  0  0  0  0  0  0
   37.3700   32.0850   39.5680 H   0  0  0  0  0  0  0  0  0  0  0  0
   35.1390   30.5190   40.9440 H   0  0  0  0  0  0  0  0  0  0  0  0
   36.2280   31.7810   41.5320 H   0  0  0  0  0  0  0  0  0  0  0  0
   37.2440   30.1760   42.7280 H   0  0  0  0  0  0  0  0  0  0  0  0
   38.9750   30.6510   41.3250 H   0  0  0  0  0  0  0  0  0  0  0  0
   38.9890   28.9060   41.5070 H   0  0  0  0  0  0  0  0  0  0  0  0
   39.7280   29.5960   39.0050 C   0  0  0  0  0  0  0  0  0  0  0  0
   40.6840   30.0860   39.8930 C   0  0  0  0  0  0  0  0  0  0  0  0
   41.9920   30.2890   39.4540 C   0  0  0  0  0  0  0  0  0  0  0  0
   42.2610   29.9880   38.1420 N   0  0  0  0  0  0  0  0  0  0  0  0
   41.3220   29.5190   37.3030 C   0  0  0  0  0  0  0  0  0  0  0  0
   40.0910   29.3380   37.7570 N   0  0  0  0  0  0  0  0  0  0  0  0
   40.7150   30.3970   40.9270 H   0  0  0  0  0  0  0  0  0  0  0  0
   42.8670   30.6420   39.9450 H   0  0  0  0  0  0  0  0  0  0  0  0
   41.5180   29.2830   36.2710 H   0  0  0  0  0  0  0  0  0  0  0  0
   36.3870   28.5240   41.7080 C   0  0  0  0  0  0  0  0  0  0  0  0
   35.2810   28.7620   41.7350 H   0  0  0  0  0  0  0  0  0  0  0  0
   36.5210   28.0360   40.7190 H   0  0  0  0  0  0  0  0  0  0  0  0
   36.6700   27.6200   42.8270 C   0  0  0  0  0  0  0  0  0  0  0  0
   35.6920   27.1170   43.1270 H   0  0  0  0  0  0  0  0  0  0  0  0
   36.9440   28.1880   43.7440 H   0  0  0  0  0  0  0  0  0  0  0  0
   37.6280   26.5410   42.6130 C   0  0  0  0  0  0  0  0  0  0  0  0
   36.9470   25.4320   42.0550 C   0  0  0  0  0  0  0  0  0  0  0  0
   35.8890   25.4000   41.7610 H   0  0  0  0  0  0  0  0  0  0  0  0
   37.5140   24.1820   41.7800 C   0  0  0  0  0  3  0  0  0  0  0  0
   38.8420   23.9790   42.0630 C   0  0  0  0  0  3  0  0  0  0  0  0
   39.5470   25.0230   42.6050 C   0  0  0  0  0  0  0  0  0  0  0  0
   40.8800   24.9680   42.9150 C   0  0  0  0  0  3  0  0  0  0  0  0
   41.5820   26.0450   43.4400 C   0  0  0  0  0  3  0  0  0  0  0  0
   40.9470   27.2480   43.6790 C   0  0  0  0  0  3  0  0  0  0  0  0
   39.6120   27.2960   43.3660 C   0  0  0  0  0  3  0  0  0  0  0  0
   38.9380   26.2170   42.8490 C   0  0  0  0  0  0  0  0  0  0  0  0
  1  7  1  6  0  0  0
  1  6  1  0  0  0  0
  2  3  1  0  0  0  0
  2  1  1  0  0  0  0
  3  4  1  0  0  0  0
  4 12  1  0  0  0  0
  4 13  1  0  0  0  0
  4  5  1  0  0  0  0
  5 26  1  0  0  0  0
  5 14  1  1  0  0  0
  6 15  1  0  0  0  0
  6 16  1  0  0  0  0
  6  5  1  0  0  0  0
  8  2  1  0  0  0  0
  9  2  1  0  0  0  0
 10  3  1  0  0  0  0
 11  3  1  0  0  0  0
 17  1  1  0  0  0  0
 17 18  1  0  0  0  0
 18 23  1  0  0  0  0
 19 18  2  0  0  0  0
 19 24  1  0  0  0  0
 20 19  1  0  0  0  0
 21 22  1  0  0  0  0
 21 20  2  0  0  0  0
 22 17  2  0  0  0  0
 25 21  1  0  0  0  0
 26 27  1  0  0  0  0
 26 29  1  0  0  0  0
 28 26  1  0  0  0  0
 29 30  1  0  0  0  0
 29 31  1  0  0  0  0
 32 29  1  0  0  0  0
 32 42  1  0  0  0  0
 33 32  2  0  0  0  0
 34 33  1  0  0  0  0
 35 33  1  0  0  0  0
 35 36  2  0  0  0  0
 36 37  1  0  0  0  0
 37 42  2  0  0  0  0
 37 38  1  0  0  0  0
 38 39  2  0  0  0  0
 39 40  1  0  0  0  0
 41 40  2  0  0  0  0
 42 41  1  0  0  0  0
M  END
>  <minimizedAffinity>
-6.01783943

$$$$

 OpenBabel03242519553D

 42 45  0  0  1  0  0  0  0  0999 V2000
   38.0570   29.2190   40.9490 C   0  0  2  0  0  0  0  0  0  0  0  0
   37.0900   28.1270   40.8570 C   0  0  0  0  0  0  0  0  0  0  0  0
   36.2350   27.9910   42.0780 C   0  0  0  0  0  0  0  0  0  0  0  0
   37.0440   27.8390   43.3420 C   0  0  0  0  0  0  0  0  0  0  0  0
   38.3000   28.6820   43.3980 C   0  0  2  0  0  0  0  0  0  0  0  0
   38.2570   29.7560   42.3310 C   0  0  0  0  0  0  0  0  0  0  0  0
   39.0550   28.8060   40.5960 H   0  0  0  0  0  0  0  0  0  0  0  0
   36.4030   28.2710   39.9940 H   0  0  0  0  0  0  0  0  0  0  0  0
   37.5640   27.1240   40.6980 H   0  0  0  0  0  0  0  0  0  0  0  0
   35.6760   27.0260   41.9540 H   0  0  0  0  0  0  0  0  0  0  0  0
   35.4750   28.7800   42.1250 H   0  0  0  0  0  0  0  0  0  0  0  0
   37.2420   26.7800   43.6090 H   0  0  0  0  0  0  0  0  0  0  0  0
   36.3710   28.2170   44.1580 H   0  0  0  0  0  0  0  0  0  0  0  0
   38.3760   29.2010   44.3730 H   0  0  0  0  0  0  0  0  0  0  0  0
   37.5720   30.5120   42.6920 H   0  0  0  0  0  0  0  0  0  0  0  0
   39.2610   30.2380   42.3010 H   0  0  0  0  0  0  0  0  0  0  0  0
   37.7790   30.3440   40.0480 C   0  0  0  0  0  0  0  0  0  0  0  0
   37.6150   31.5760   40.6790 C   0  0  0  0  0  0  0  0  0  0  0  0
   37.3670   32.7140   39.9130 C   0  0  0  0  0  0  0  0  0  0  0  0
   37.2950   32.5450   38.5540 N   0  0  0  0  0  0  0  0  0  0  0  0
   37.4550   31.3470   37.9660 C   0  0  0  0  0  0  0  0  0  0  0  0
   37.6910   30.2890   38.7270 N   0  0  0  0  0  0  0  0  0  0  0  0
   37.6130   31.9490   41.6930 H   0  0  0  0  0  0  0  0  0  0  0  0
   37.2150   33.7340   40.1740 H   0  0  0  0  0  0  0  0  0  0  0  0
   37.3980   31.2000   36.9020 H   0  0  0  0  0  0  0  0  0  0  0  0
   39.4740   27.7830   43.2400 C   0  0  0  0  0  0  0  0  0  0  0  0
   39.9100   28.0260   42.2240 H   0  0  0  0  0  0  0  0  0  0  0  0
   40.2680   28.1080   43.9460 H   0  0  0  0  0  0  0  0  0  0  0  0
   39.2400   26.3360   43.2820 C   0  0  0  0  0  0  0  0  0  0  0  0
   38.1670   26.1650   43.6290 H   0  0  0  0  0  0  0  0  0  0  0  0
   39.8370   25.8550   44.0880 H   0  0  0  0  0  0  0  0  0  0  0  0
   39.3880   25.5800   42.0430 C   0  0  0  0  0  0  0  0  0  0  0  0
   40.7000   25.7740   41.5460 C   0  0  0  0  0  0  0  0  0  0  0  0
   41.5040   26.3390   42.0370 H   0  0  0  0  0  0  0  0  0  0  0  0
   41.1950   25.2720   40.3370 C   0  0  0  0  0  3  0  0  0  0  0  0
   40.3650   24.5210   39.5400 C   0  0  0  0  0  3  0  0  0  0  0  0
   39.0840   24.3030   39.9780 C   0  0  0  0  0  0  0  0  0  0  0  0
   38.1580   23.5570   39.2980 C   0  0  0  0  0  3  0  0  0  0  0  0
   36.8730   23.3280   39.7700 C   0  0  0  0  0  3  0  0  0  0  0  0
   36.4640   23.8580   40.9780 C   0  0  0  0  0  3  0  0  0  0  0  0
   37.3960   24.6040   41.6540 C   0  0  0  0  0  3  0  0  0  0  0  0
   38.6610   24.8200   41.1660 C   0  0  0  0  0  0  0  0  0  0  0  0
  1  7  1  6  0  0  0
  1  6  1  0  0  0  0
  2  1  1  0  0  0  0
  2  3  1  0  0  0  0
  3 11  1  0  0  0  0
  3  4  1  0  0  0  0
  4  5  1  0  0  0  0
  4 12  1  0  0  0  0
  4 13  1  0  0  0  0
  5 14  1  1  0  0  0
  6 15  1  0  0  0  0
  6  5  1  0  0  0  0
  8  2  1  0  0  0  0
  9  2  1  0  0  0  0
 10  3  1  0  0  0  0
 16  6  1  0  0  0  0
 17 18  1  0  0  0  0
 17  1  1  0  0  0  0
 18 23  1  0  0  0  0
 19 24  1  0  0  0  0
 19 18  2  0  0  0  0
 20 19  1  0  0  0  0
 21 20  2  0  0  0  0
 21 22  1  0  0  0  0
 22 17  2  0  0  0  0
 25 21  1  0  0  0  0
 26 29  1  0  0  0  0
 26  5  1  0  0  0  0
 26 28  1  0  0  0  0
 27 26  1  0  0  0  0
 29 30  1  0  0  0  0
 29 31  1  0  0  0  0
 32 29  1  0  0  0  0
 33 34  1  0  0  0  0
 33 32  1  0  0  0  0
 35 33  2  0  0  0  0
 36 37  2  0  0  0  0
 36 35  1  0  0  0  0
 37 42  1  0  0  0  0
 38 39  2  0  0  0  0
 38 37  1  0  0  0  0
 39 40  1  0  0  0  0
 40 41  2  0  0  0  0
 42 41  1  0  0  0  0
 42 32  2  0  0  0  0
M  END
>  <minimizedAffinity>
-5.92574167

$$$$

 OpenBabel03242519553D

 42 45  0  0  1  0  0  0  0  0999 V2000
   39.1950   30.9350   41.0890 C   0  0  2  0  0  0  0  0  0  0  0  0
   39.2780   29.9310   40.0300 C   0  0  0  0  0  0  0  0  0  0  0  0
   38.7370   30.4100   38.7190 C   0  0  0  0  0  0  0  0  0  0  0  0
   37.3180   30.9130   38.8230 C   0  0  0  0  0  0  0  0  0  0  0  0
   37.0080   31.6850   40.0880 C   0  0  2  0  0  0  0  0  0  0  0  0
   38.2930   32.0890   40.7820 C   0  0  0  0  0  0  0  0  0  0  0  0
   38.7780   30.4120   42.0070 H   0  0  0  0  0  0  0  0  0  0  0  0
   40.3310   29.6220   39.8530 H   0  0  0  0  0  0  0  0  0  0  0  0
   38.7240   28.9860   40.2680 H   0  0  0  0  0  0  0  0  0  0  0  0
   38.6930   29.5040   38.0580 H   0  0  0  0  0  0  0  0  0  0  0  0
   39.4250   31.1110   38.2330 H   0  0  0  0  0  0  0  0  0  0  0  0
   36.5610   30.1270   38.6210 H   0  0  0  0  0  0  0  0  0  0  0  0
   37.2100   31.6380   37.9730 H   0  0  0  0  0  0  0  0  0  0  0  0
   36.4660   32.6200   39.8490 H   0  0  0  0  0  0  0  0  0  0  0  0
   38.6950   32.9170   40.2140 H   0  0  0  0  0  0  0  0  0  0  0  0
   38.0190   32.5030   41.7790 H   0  0  0  0  0  0  0  0  0  0  0  0
   40.4950   31.4630   41.5190 C   0  0  0  0  0  0  0  0  0  0  0  0
   41.0160   30.8750   42.6710 C   0  0  0  0  0  0  0  0  0  0  0  0
   42.2560   31.2900   43.1560 C   0  0  0  0  0  0  0  0  0  0  0  0
   42.9000   32.2760   42.4520 N   0  0  0  0  0  0  0  0  0  0  0  0
   42.3780   32.8310   41.3460 C   0  0  0  0  0  0  0  0  0  0  0  0
   41.1980   32.4090   40.9140 N   0  0  0  0  0  0  0  0  0  0  0  0
   40.7080   30.1200   43.3810 H   0  0  0  0  0  0  0  0  0  0  0  0
   42.8360   30.9870   43.9950 H   0  0  0  0  0  0  0  0  0  0  0  0
   42.8700   33.6070   40.7860 H   0  0  0  0  0  0  0  0  0  0  0  0
   36.1470   30.8380   40.9550 C   0  0  0  0  0  0  0  0  0  0  0  0
   36.8080   30.5060   41.8110 H   0  0  0  0  0  0  0  0  0  0  0  0
   35.3930   31.4870   41.4490 H   0  0  0  0  0  0  0  0  0  0  0  0
   35.5550   29.6340   40.3640 C   0  0  0  0  0  0  0  0  0  0  0  0
   35.6730   29.7050   39.2320 H   0  0  0  0  0  0  0  0  0  0  0  0
   34.4500   29.6240   40.4940 H   0  0  0  0  0  0  0  0  0  0  0  0
   36.1060   28.3380   40.7470 C   0  0  0  0  0  0  0  0  0  0  0  0
   36.4220   28.3680   42.1270 C   0  0  0  0  0  0  0  0  0  0  0  0
   36.2250   29.1960   42.8210 H   0  0  0  0  0  0  0  0  0  0  0  0
   37.0420   27.3370   42.8430 C   0  0  0  0  0  3  0  0  0  0  0  0
   37.3860   26.1830   42.1820 C   0  0  0  0  0  3  0  0  0  0  0  0
   37.0990   26.1040   40.8430 C   0  0  0  0  0  0  0  0  0  0  0  0
   37.3660   25.0080   40.0660 C   0  0  0  0  0  3  0  0  0  0  0  0
   37.0460   24.9380   38.7170 C   0  0  0  0  0  3  0  0  0  0  0  0
   36.4290   26.0010   38.0850 C   0  0  0  0  0  3  0  0  0  0  0  0
   36.1670   27.0960   38.8700 C   0  0  0  0  0  3  0  0  0  0  0  0
   36.4940   27.1430   40.2020 C   0  0  0  0  0  0  0  0  0  0  0  0
  1 17  1  0  0  0  0
  1  7  1  1  0  0  0
  2  9  1  0  0  0  0
  2  1  1  0  0  0  0
  3  4  1  0  0  0  0
  3  2  1  0  0  0  0
  4  5  1  0  0  0  0
  5 14  1  6  0  0  0
  5  6  1  0  0  0  0
  5 26  1  0  0  0  0
  6  1  1  0  0  0  0
  6 16  1  0  0  0  0
  8  2  1  0  0  0  0
 10  3  1  0  0  0  0
 11  3  1  0  0  0  0
 12  4  1  0  0  0  0
 13  4  1  0  0  0  0
 15  6  1  0  0  0  0
 17 18  1  0  0  0  0
 18 19  2  0  0  0  0
 18 23  1  0  0  0  0
 19 24  1  0  0  0  0
 20 19  1  0  0  0  0
 21 20  2  0  0  0  0
 22 21  1  0  0  0  0
 22 17  2  0  0  0  0
 25 21  1  0  0  0  0
 26 28  1  0  0  0  0
 26 27  1  0  0  0  0
 29 31  1  0  0  0  0
 29 32  1  0  0  0  0
 29 26  1  0  0  0  0
 30 29  1  0  0  0  0
 32 33  1  0  0  0  0
 33 34  1  0  0  0  0
 33 35  2  0  0  0  0
 36 35  1  0  0  0  0
 37 36  2  0  0  0  0
 38 37  1  0  0  0  0
 39 38  2  0  0  0  0
 40 39  1  0  0  0  0
 40 41  2  0  0  0  0
 41 42  1  0  0  0  0
 42 32  2  0  0  0  0
 42 37  1  0  0  0  0
M  END
>  <minimizedAffinity>
-5.92484474

$$$$
