
 OpenBabel03252509273D

 32 35  0  0  1  0  0  0  0  0999 V2000
   45.9570   34.8890   42.7800 C   0  0  1  0  0  0  0  0  0  0  0  0
   47.4030   34.9350   42.2860 C   0  0  0  0  0  0  0  0  0  0  0  0
   46.2890   33.9750   41.7600 C   0  0  2  0  0  0  0  0  0  0  0  0
   45.4390   35.8320   42.6240 H   0  0  0  0  0  0  0  0  0  0  0  0
   47.6790   35.7390   41.5620 H   0  0  0  0  0  0  0  0  0  0  0  0
   48.2020   34.5310   42.8990 H   0  0  0  0  0  0  0  0  0  0  0  0
   46.6040   32.9070   41.9980 H   0  0  0  0  0  0  0  0  0  0  0  0
   44.8680   34.3040   46.3160 C   0  0  0  0  0  0  0  0  0  0  0  0
   44.9090   34.8720   45.0130 C   0  0  0  0  0  0  0  0  0  0  0  0
   45.8880   34.3760   44.2010 C   0  0  0  0  0  0  0  0  0  0  0  0
   46.7630   33.4030   44.6280 N   0  0  0  0  0  0  0  0  0  0  0  0
   46.6880   32.8940   45.8670 C   0  0  0  0  0  0  0  0  0  0  0  0
   45.7310   33.3510   46.7190 N   0  0  0  0  0  0  0  0  0  0  0  0
   44.1220   34.6300   47.0260 H   0  0  0  0  0  0  0  0  0  0  0  0
   47.3860   32.1290   46.1880 H   0  0  0  0  0  0  0  0  0  0  0  0
   44.0180   35.8830   44.6120 N   0  0  0  0  0  0  0  0  0  0  0  0
   44.5820   36.7550   44.4620 H   0  0  0  0  0  0  0  0  0  0  0  0
   42.9650   35.7620   44.4890 H   0  0  0  0  0  0  0  0  0  0  0  0
   45.8540   34.1390   40.3270 C   0  0  0  0  0  0  0  0  0  0  0  0
   46.3820   35.0420   39.9110 H   0  0  0  0  0  0  0  0  0  0  0  0
   44.7760   34.3420   40.3990 H   0  0  0  0  0  0  0  0  0  0  0  0
   46.2320   32.9970   39.4930 C   0  0  0  0  0  0  0  0  0  0  0  0
   45.5260   31.8200   39.7830 C   0  0  0  0  0  0  0  0  0  0  0  0
   44.8420   31.7090   40.6170 H   0  0  0  0  0  0  0  0  0  0  0  0
   45.6720   30.6970   38.9770 C   0  0  0  0  0  3  0  0  0  0  0  0
   46.5020   30.6740   37.8740 C   0  0  0  0  0  3  0  0  0  0  0  0
   47.1940   31.8060   37.5890 C   0  0  0  0  0  0  0  0  0  0  0  0
   48.0840   31.8250   36.5170 C   0  0  0  0  0  3  0  0  0  0  0  0
   48.8040   32.9820   36.2920 C   0  0  0  0  0  3  0  0  0  0  0  0
   48.6570   34.0960   37.0950 C   0  0  0  0  0  3  0  0  0  0  0  0
   47.7670   34.0520   38.1460 C   0  0  0  0  0  3  0  0  0  0  0  0
   47.0370   32.8860   38.3810 C   0  0  0  0  0  0  0  0  0  0  0  0
  1  4  1  6  0  0  0
  1 10  1  0  0  0  0
  2  1  1  0  0  0  0
  2  6  1  0  0  0  0
  3  7  1  1  0  0  0
  3  2  1  0  0  0  0
  3  1  1  0  0  0  0
  5  2  1  0  0  0  0
  8 13  1  0  0  0  0
  8 14  1  0  0  0  0
  9  8  2  0  0  0  0
 10 11  2  0  0  0  0
 10  9  1  0  0  0  0
 11 12  1  0  0  0  0
 12 15  1  0  0  0  0
 12 13  2  0  0  0  0
 16  9  1  0  0  0  0
 17 16  1  0  0  0  0
 18 16  1  0  0  0  0
 19 21  1  0  0  0  0
 19  3  1  0  0  0  0
 20 19  1  0  0  0  0
 22 23  1  0  0  0  0
 22 19  1  0  0  0  0
 23 24  1  0  0  0  0
 25 23  2  0  0  0  0
 26 25  1  0  0  0  0
 27 26  2  0  0  0  0
 27 32  1  0  0  0  0
 28 27  1  0  0  0  0
 29 28  2  0  0  0  0
 29 30  1  0  0  0  0
 30 31  2  0  0  0  0
 31 32  1  0  0  0  0
 32 22  2  0  0  0  0
M  END
>  <minimizedAffinity>
-4.97149277

>  <minimizedRMSD>
3.23053741

$$$$
