
 OpenBabel03252500443D

 36 39  0  0  1  0  0  0  0  0999 V2000
   47.6540   35.1610   41.8270 C   0  0  1  0  0  0  0  0  0  0  0  0
   49.1450   34.9260   41.6160 C   0  0  0  0  0  0  0  0  0  0  0  0
   48.1830   34.9030   40.4470 C   0  0  1  0  0  0  0  0  0  0  0  0
   47.4740   36.2150   42.1420 H   0  0  0  0  0  0  0  0  0  0  0  0
   49.8670   35.7330   41.7120 H   0  0  0  0  0  0  0  0  0  0  0  0
   49.5350   33.9300   41.9420 H   0  0  0  0  0  0  0  0  0  0  0  0
   48.2800   35.8000   39.7990 H   0  0  0  0  0  0  0  0  0  0  0  0
   46.8950   34.0490   42.4310 C   0  0  0  0  0  0  0  0  0  0  0  0
   46.1420   33.7120   41.6580 H   0  0  0  0  0  0  0  0  0  0  0  0
   47.5290   33.1540   42.5890 H   0  0  0  0  0  0  0  0  0  0  0  0
   46.1040   34.4070   43.6150 C   0  0  0  0  0  0  0  0  0  0  0  0
   45.3670   35.5470   43.4480 C   0  0  0  0  0  0  0  0  0  0  0  0
   44.5610   36.0300   44.4960 C   0  0  0  0  0  0  0  0  0  0  0  0
   44.5820   35.2800   45.6540 N   0  0  0  0  0  0  0  0  0  0  0  0
   45.3170   34.1590   45.7940 C   0  0  0  0  0  0  0  0  0  0  0  0
   46.0620   33.7410   44.7800 N   0  0  0  0  0  0  0  0  0  0  0  0
   45.2070   36.2540   42.6430 H   0  0  0  0  0  0  0  0  0  0  0  0
   43.9300   36.8840   44.5530 H   0  0  0  0  0  0  0  0  0  0  0  0
   45.3120   33.6000   46.7040 H   0  0  0  0  0  0  0  0  0  0  0  0
   47.9160   33.6780   39.8930 O   0  0  0  0  0  0  0  0  0  0  0  0
   48.6120   34.9370   37.6500 O   0  0  0  0  0  0  0  0  0  0  0  0
   48.3690   33.5780   38.2690 P   0  0  1  0  0  0  0  0  0  0  0  0
   49.8590   32.7210   38.2130 O   0  0  0  0  0  0  0  0  0  0  0  0
   50.4390   33.1960   38.8680 H   0  0  0  0  0  0  0  0  0  0  0  0
   47.2100   32.6990   37.4250 O   0  0  0  0  0  0  0  0  0  0  0  0
   47.2620   32.3410   36.1020 C   0  0  0  0  0  0  0  0  0  0  0  0
   48.3540   32.5300   35.2820 C   0  0  0  0  0  0  0  0  0  0  0  0
   49.2340   32.9860   35.6800 H   0  0  0  0  0  0  0  0  0  0  0  0
   48.2460   32.1140   33.9770 C   0  0  0  0  0  0  0  0  0  0  0  0
   47.0940   31.5270   33.4930 C   0  0  0  0  0  0  0  0  0  0  0  0
   45.9970   31.3350   34.3100 C   0  0  0  0  0  0  0  0  0  0  0  0
   44.8670   30.7460   33.7870 C   0  0  0  0  0  0  0  0  0  0  0  0
   43.7660   30.5520   34.6020 C   0  0  0  0  0  0  0  0  0  0  0  0
   43.8390   30.9570   35.9160 C   0  0  0  0  0  0  0  0  0  0  0  0
   44.9800   31.5440   36.4190 C   0  0  0  0  0  0  0  0  0  0  0  0
   46.1050   31.7560   35.6310 C   0  0  0  0  0  0  0  0  0  0  0  0
  1  4  1  1  0  0  0
  1  8  1  0  0  0  0
  2  5  1  0  0  0  0
  2  1  1  0  0  0  0
  2  6  1  0  0  0  0
  3  7  1  6  0  0  0
  3  2  1  0  0  0  0
  3  1  1  0  0  0  0
  8 10  1  0  0  0  0
  8 11  1  0  0  0  0
  9  8  1  0  0  0  0
 11 16  1  0  0  0  0
 12 11  2  0  0  0  0
 12 13  1  0  0  0  0
 13 18  1  0  0  0  0
 13 14  2  0  0  0  0
 14 15  1  0  0  0  0
 15 19  1  0  0  0  0
 16 15  2  0  0  0  0
 17 12  1  0  0  0  0
 20  3  1  0  0  0  0
 22 21  2  6  0  0  0
 22 20  1  0  0  0  0
 23 22  1  0  0  0  0
 23 24  1  0  0  0  0
 25 22  1  0  0  0  0
 26 25  1  0  0  0  0
 27 28  1  0  0  0  0
 27 26  2  0  0  0  0
 29 27  1  0  0  0  0
 30 29  2  0  0  0  0
 30 31  1  0  0  0  0
 31 36  1  0  0  0  0
 32 31  2  0  0  0  0
 32 33  1  0  0  0  0
 33 34  2  0  0  0  0
 34 35  1  0  0  0  0
 36 26  1  0  0  0  0
 36 35  2  0  0  0  0
M  END
>  <minimizedAffinity>
-5.73988581

>  <minimizedRMSD>
1.3686285

$$$$
