
 OpenBabel03252503283D

 27 29  0  0  0  0  0  0  0  0999 V2000
   45.1640   34.6950   42.9270 C   0  0  0  0  0  0  0  0  0  0  0  0
   46.2010   35.1480   42.0950 C   0  0  0  0  0  0  0  0  0  0  0  0
   47.5020   34.6910   42.3970 C   0  0  0  0  0  0  0  0  0  0  0  0
   47.6580   33.8640   43.4460 N   0  0  0  0  0  0  0  0  0  0  0  0
   46.6310   33.4520   44.2210 C   0  0  0  0  0  0  0  0  0  0  0  0
   45.3840   33.8780   43.9510 N   0  0  0  0  0  0  0  0  0  0  0  0
   43.2500   34.4030   41.5820 C   0  0  0  0  0  0  0  0  0  0  0  0
   43.9860   33.5690   40.9610 O   0  0  0  0  0  0  0  0  0  0  0  0
   43.8230   35.1090   42.6900 N   0  0  0  0  0  0  0  0  0  0  0  0
   45.8960   35.8140   41.2920 H   0  0  0  0  0  0  0  0  0  0  0  0
   46.8520   32.7770   45.0580 H   0  0  0  0  0  0  0  0  0  0  0  0
   43.2410   35.8130   43.1840 H   0  0  0  0  0  0  0  0  0  0  0  0
   41.8940   34.5740   41.1250 C   0  0  0  0  0  0  0  0  0  0  0  0
   41.5340   35.8120   40.6070 C   0  0  0  0  0  0  0  0  0  0  0  0
   42.2680   36.6280   40.5520 H   0  0  0  0  0  0  0  0  0  0  0  0
   40.2510   36.0430   40.1530 C   0  0  0  0  0  0  0  0  0  0  0  0
   39.2760   35.0440   40.1980 C   0  0  0  0  0  0  0  0  0  0  0  0
   39.6160   33.8050   40.7110 C   0  0  0  0  0  0  0  0  0  0  0  0
   38.6750   32.7740   40.7780 C   0  0  0  0  0  0  0  0  0  0  0  0
   39.0430   31.5490   41.2940 C   0  0  0  0  0  0  0  0  0  0  0  0
   40.3370   31.3240   41.7490 C   0  0  0  0  0  0  0  0  0  0  0  0
   41.2390   32.3700   41.6650 C   0  0  0  0  0  0  0  0  0  0  0  0
   40.9080   33.6090   41.1560 C   0  0  0  0  0  0  0  0  0  0  0  0
   48.5520   35.1860   41.5070 C   0  0  0  0  0  0  0  0  0  0  0  0
   49.6990   34.4160   41.6990 F   0  0  0  0  0  0  0  0  0  0  0  0
   48.8930   36.4550   41.9410 F   0  0  0  0  0  0  0  0  0  0  0  0
   48.2280   35.1470   40.1820 F   0  0  0  0  0  0  0  0  0  0  0  0
  1  6  1  0  0  0  0
  2  3  1  0  0  0  0
  2  1  2  0  0  0  0
  3  4  2  0  0  0  0
  4  5  1  0  0  0  0
  5 11  1  0  0  0  0
  6  5  2  0  0  0  0
  7  9  1  0  0  0  0
  8  7  2  0  0  0  0
  9  1  1  0  0  0  0
  9 12  1  0  0  0  0
 10  2  1  0  0  0  0
 13 23  1  0  0  0  0
 13  7  1  0  0  0  0
 14 13  2  0  0  0  0
 15 14  1  0  0  0  0
 16 17  2  0  0  0  0
 16 14  1  0  0  0  0
 17 18  1  0  0  0  0
 18 19  2  0  0  0  0
 18 23  1  0  0  0  0
 19 20  1  0  0  0  0
 20 21  2  0  0  0  0
 22 21  1  0  0  0  0
 23 22  2  0  0  0  0
 24 25  1  0  0  0  0
 24 26  1  0  0  0  0
 24  3  1  0  0  0  0
 27 24  1  0  0  0  0
M  END
>  <minimizedAffinity>
-7.39637756

>  <minimizedRMSD>
1.11653507

$$$$
