
 OpenBabel03242519433D

 31 33  0  0  0  0  0  0  0  0999 V2000
   37.3590   29.1850   39.5170 O   0  0  0  0  0  0  0  0  0  0  0  0
   36.1310   29.5710   40.3840 P   0  0  2  0  0  0  0  0  0  0  0  0
   36.3650   31.1620   40.9850 O   0  0  0  0  0  0  0  0  0  0  0  0
   38.9380   33.4170   39.7350 C   0  0  0  0  0  0  0  0  0  0  0  0
   37.6770   32.8030   39.9210 C   0  0  0  0  0  0  0  0  0  0  0  0
   37.6080   31.7380   40.8300 C   0  0  0  0  0  0  0  0  0  0  0  0
   38.7300   31.3610   41.4720 N   0  0  0  0  0  0  0  0  0  0  0  0
   39.9210   31.9670   41.2730 C   0  0  0  0  0  0  0  0  0  0  0  0
   40.0350   32.9910   40.4110 N   0  0  0  0  0  0  0  0  0  0  0  0
   39.0000   34.2380   39.0340 H   0  0  0  0  0  0  0  0  0  0  0  0
   36.8440   33.1810   39.3610 H   0  0  0  0  0  0  0  0  0  0  0  0
   40.7900   31.6020   41.8320 H   0  0  0  0  0  0  0  0  0  0  0  0
   36.0240   28.5260   41.6670 O   0  0  0  0  0  0  0  0  0  0  0  0
   37.0010   27.9870   42.4420 C   0  0  0  0  0  0  0  0  0  0  0  0
   37.4190   28.7080   43.5110 O   0  0  0  0  0  0  0  0  0  0  0  0
   37.8920   26.8210   42.6450 C   0  0  0  0  0  0  0  0  0  0  0  0
   39.0480   26.9370   43.4520 C   0  0  0  0  0  0  0  0  0  0  0  0
   39.1130   27.9060   44.0000 H   0  0  0  0  0  0  0  0  0  0  0  0
   40.0940   26.0830   43.6800 C   0  0  0  0  0  3  0  0  0  0  0  0
   39.9320   24.9210   42.9670 C   0  0  0  0  0  3  0  0  0  0  0  0
   38.8410   24.7200   42.1600 C   0  0  0  0  0  0  0  0  0  0  0  0
   38.6830   23.5260   41.4890 C   0  0  0  0  0  3  0  0  0  0  0  0
   37.6300   23.1560   40.6770 C   0  0  0  0  0  3  0  0  0  0  0  0
   36.6320   24.1320   40.5510 C   0  0  0  0  0  3  0  0  0  0  0  0
   36.7630   25.3300   41.2080 C   0  0  0  0  0  3  0  0  0  0  0  0
   37.8260   25.6590   41.9990 C   0  0  0  0  0  0  0  0  0  0  0  0
   34.8140   29.5710   39.3760 O   0  0  0  0  0  0  0  0  0  0  0  0
   34.8970   28.5950   38.3920 C   0  0  0  0  0  0  0  0  0  0  0  0
   35.5590   29.0390   37.2620 F   0  0  0  0  0  0  0  0  0  0  0  0
   35.4210   27.4490   38.8980 F   0  0  0  0  0  0  0  0  0  0  0  0
   33.5870   28.3330   37.9980 F   0  0  0  0  0  0  0  0  0  0  0  0
  2  1  2  6  0  0  0
  2  3  1  0  0  0  0
  2 13  1  0  0  0  0
  4  5  2  0  0  0  0
  4  9  1  0  0  0  0
  5  6  1  0  0  0  0
  6  3  1  0  0  0  0
  6  7  2  0  0  0  0
  8  7  1  0  0  0  0
  8 12  1  0  0  0  0
  9  8  2  0  0  0  0
 10  4  1  0  0  0  0
 11  5  1  0  0  0  0
 13 14  1  0  0  0  0
 14 16  1  0  0  0  0
 14 15  2  0  0  0  0
 16 17  1  0  0  0  0
 17 19  2  0  0  0  0
 17 18  1  0  0  0  0
 20 19  1  0  0  0  0
 21 20  2  0  0  0  0
 22 21  1  0  0  0  0
 23 22  2  0  0  0  0
 24 23  1  0  0  0  0
 24 25  2  0  0  0  0
 25 26  1  0  0  0  0
 26 21  1  0  0  0  0
 26 16  2  0  0  0  0
 27  2  1  0  0  0  0
 28 30  1  0  0  0  0
 28 27  1  0  0  0  0
 29 28  1  0  0  0  0
 31 28  1  0  0  0  0
M  END
>  <minimizedAffinity>
-6.04978943

$$$$

 OpenBabel03242519433D

 31 33  0  0  0  0  0  0  0  0999 V2000
   38.7900   28.6590   39.1630 O   0  0  0  0  0  0  0  0  0  0  0  0
   37.6830   29.5650   39.7660 P   0  0  2  0  0  0  0  0  0  0  0  0
   37.6790   31.0590   38.9200 O   0  0  0  0  0  0  0  0  0  0  0  0
   38.7750   34.1200   40.5610 C   0  0  0  0  0  0  0  0  0  0  0  0
   37.9330   33.0800   40.1000 C   0  0  0  0  0  0  0  0  0  0  0  0
   38.5290   32.0530   39.3540 C   0  0  0  0  0  0  0  0  0  0  0  0
   39.8540   32.1080   39.1200 N   0  0  0  0  0  0  0  0  0  0  0  0
   40.6330   33.1150   39.5740 C   0  0  0  0  0  0  0  0  0  0  0  0
   40.1060   34.1200   40.2910 N   0  0  0  0  0  0  0  0  0  0  0  0
   38.3240   34.9160   41.1370 H   0  0  0  0  0  0  0  0  0  0  0  0
   36.8900   33.1300   40.3430 H   0  0  0  0  0  0  0  0  0  0  0  0
   41.7030   33.0890   39.3410 H   0  0  0  0  0  0  0  0  0  0  0  0
   38.0310   29.8560   41.3610 O   0  0  0  0  0  0  0  0  0  0  0  0
   38.3090   28.9890   42.3690 C   0  0  0  0  0  0  0  0  0  0  0  0
   37.8200   29.2850   43.5990 O   0  0  0  0  0  0  0  0  0  0  0  0
   38.9780   27.7190   42.7370 C   0  0  0  0  0  0  0  0  0  0  0  0
   40.2400   27.7360   43.3750 C   0  0  0  0  0  0  0  0  0  0  0  0
   40.5720   28.7560   43.6810 H   0  0  0  0  0  0  0  0  0  0  0  0
   41.1250   26.7360   43.6800 C   0  0  0  0  0  3  0  0  0  0  0  0
   40.6390   25.5190   43.2670 C   0  0  0  0  0  3  0  0  0  0  0  0
   39.4220   25.4080   42.6420 C   0  0  0  0  0  0  0  0  0  0  0  0
   38.9400   24.1690   42.2750 C   0  0  0  0  0  3  0  0  0  0  0  0
   37.7280   23.8870   41.6800 C   0  0  0  0  0  3  0  0  0  0  0  0
   36.9300   25.0130   41.4410 C   0  0  0  0  0  3  0  0  0  0  0  0
   37.3840   26.2590   41.7940 C   0  0  0  0  0  3  0  0  0  0  0  0
   38.5950   26.4970   42.3790 C   0  0  0  0  0  0  0  0  0  0  0  0
   36.2380   28.7970   39.4990 O   0  0  0  0  0  0  0  0  0  0  0  0
   35.2070   29.3230   40.2660 C   0  0  0  0  0  0  0  0  0  0  0  0
   35.4580   30.6210   40.6710 F   0  0  0  0  0  0  0  0  0  0  0  0
   34.0170   29.1860   39.6270 F   0  0  0  0  0  0  0  0  0  0  0  0
   35.1620   28.5550   41.4280 F   0  0  0  0  0  0  0  0  0  0  0  0
  2  1  2  6  0  0  0
  2 13  1  0  0  0  0
  3  6  1  0  0  0  0
  3  2  1  0  0  0  0
  4 10  1  0  0  0  0
  5 11  1  0  0  0  0
  5  4  2  0  0  0  0
  6  5  1  0  0  0  0
  7  6  2  0  0  0  0
  7  8  1  0  0  0  0
  8  9  2  0  0  0  0
  9  4  1  0  0  0  0
 12  8  1  0  0  0  0
 13 14  1  0  0  0  0
 14 16  1  0  0  0  0
 14 15  2  0  0  0  0
 16 17  1  0  0  0  0
 17 19  2  0  0  0  0
 17 18  1  0  0  0  0
 20 19  1  0  0  0  0
 21 20  2  0  0  0  0
 22 21  1  0  0  0  0
 23 22  2  0  0  0  0
 24 23  1  0  0  0  0
 24 25  2  0  0  0  0
 25 26  1  0  0  0  0
 26 21  1  0  0  0  0
 26 16  2  0  0  0  0
 27  2  1  0  0  0  0
 27 28  1  0  0  0  0
 28 29  1  0  0  0  0
 28 31  1  0  0  0  0
 30 28  1  0  0  0  0
M  END
>  <minimizedAffinity>
-6.04368639

$$$$

 OpenBabel03242519433D

 31 33  0  0  0  0  0  0  0  0999 V2000
   38.3030   28.9470   40.0770 O   0  0  0  0  0  0  0  0  0  0  0  0
   37.1440   29.7930   40.6680 P   0  0  2  0  0  0  0  0  0  0  0  0
   37.7690   31.3210   41.1390 O   0  0  0  0  0  0  0  0  0  0  0  0
   41.0960   31.0810   42.6000 C   0  0  0  0  0  0  0  0  0  0  0  0
   39.6960   30.9580   42.4430 C   0  0  0  0  0  0  0  0  0  0  0  0
   39.1350   31.4560   41.2580 C   0  0  0  0  0  0  0  0  0  0  0  0
   39.9490   32.0160   40.3420 N   0  0  0  0  0  0  0  0  0  0  0  0
   41.2850   32.1190   40.5210 C   0  0  0  0  0  0  0  0  0  0  0  0
   41.8650   31.6570   41.6410 N   0  0  0  0  0  0  0  0  0  0  0  0
   41.5370   30.7000   43.5120 H   0  0  0  0  0  0  0  0  0  0  0  0
   39.1380   30.4940   43.2320 H   0  0  0  0  0  0  0  0  0  0  0  0
   41.8800   32.5880   39.7300 H   0  0  0  0  0  0  0  0  0  0  0  0
   36.5430   29.0260   42.0100 O   0  0  0  0  0  0  0  0  0  0  0  0
   36.8240   27.7970   42.5160 C   0  0  0  0  0  0  0  0  0  0  0  0
   36.1590   27.4150   43.6340 O   0  0  0  0  0  0  0  0  0  0  0  0
   37.6240   26.5610   42.3450 C   0  0  0  0  0  0  0  0  0  0  0  0
   37.0210   25.3840   41.8440 C   0  0  0  0  0  0  0  0  0  0  0  0
   35.9790   25.5380   41.4760 H   0  0  0  0  0  0  0  0  0  0  0  0
   37.4790   24.0980   41.7320 C   0  0  0  0  0  3  0  0  0  0  0  0
   38.7630   24.0000   42.2080 C   0  0  0  0  0  3  0  0  0  0  0  0
   39.4270   25.0900   42.7110 C   0  0  0  0  0  0  0  0  0  0  0  0
   40.7310   24.9720   43.1440 C   0  0  0  0  0  3  0  0  0  0  0  0
   41.5430   25.9730   43.6350 C   0  0  0  0  0  3  0  0  0  0  0  0
   40.9350   27.2350   43.6790 C   0  0  0  0  0  3  0  0  0  0  0  0
   39.6390   27.3830   43.2550 C   0  0  0  0  0  3  0  0  0  0  0  0
   38.8660   26.3630   42.7790 C   0  0  0  0  0  0  0  0  0  0  0  0
   36.0460   30.0200   39.4470 O   0  0  0  0  0  0  0  0  0  0  0  0
   35.1290   28.9820   39.3560 C   0  0  0  0  0  0  0  0  0  0  0  0
   35.7350   27.7390   39.3680 F   0  0  0  0  0  0  0  0  0  0  0  0
   34.1640   29.1110   40.3030 F   0  0  0  0  0  0  0  0  0  0  0  0
   34.5260   29.1080   38.1070 F   0  0  0  0  0  0  0  0  0  0  0  0
  2  1  2  6  0  0  0
  2  3  1  0  0  0  0
  2 13  1  0  0  0  0
  3  6  1  0  0  0  0
  4 10  1  0  0  0  0
  5  4  1  0  0  0  0
  5 11  1  0  0  0  0
  6  5  2  0  0  0  0
  7  8  2  0  0  0  0
  7  6  1  0  0  0  0
  8  9  1  0  0  0  0
  9  4  2  0  0  0  0
 12  8  1  0  0  0  0
 13 14  1  0  0  0  0
 14 15  2  0  0  0  0
 16 14  1  0  0  0  0
 16 26  1  0  0  0  0
 17 16  2  0  0  0  0
 18 17  1  0  0  0  0
 19 17  1  0  0  0  0
 19 20  2  0  0  0  0
 20 21  1  0  0  0  0
 21 26  2  0  0  0  0
 21 22  1  0  0  0  0
 22 23  2  0  0  0  0
 23 24  1  0  0  0  0
 25 24  2  0  0  0  0
 26 25  1  0  0  0  0
 27  2  1  0  0  0  0
 28 29  1  0  0  0  0
 28 27  1  0  0  0  0
 28 30  1  0  0  0  0
 31 28  1  0  0  0  0
M  END
>  <minimizedAffinity>
-5.85117054

$$$$

 OpenBabel03242519433D

 31 33  0  0  0  0  0  0  0  0999 V2000
   36.8530   29.5100   36.4750 O   0  0  0  0  0  0  0  0  0  0  0  0
   37.1530   30.1200   37.8700 P   0  0  2  0  0  0  0  0  0  0  0  0
   37.7120   31.7300   37.6540 O   0  0  0  0  0  0  0  0  0  0  0  0
   38.7490   33.3450   40.7490 C   0  0  0  0  0  0  0  0  0  0  0  0
   37.9200   32.7900   39.7460 C   0  0  0  0  0  0  0  0  0  0  0  0
   38.5500   32.2590   38.6120 C   0  0  0  0  0  0  0  0  0  0  0  0
   39.8940   32.3040   38.5380 N   0  0  0  0  0  0  0  0  0  0  0  0
   40.6600   32.8420   39.5130 C   0  0  0  0  0  0  0  0  0  0  0  0
   40.1000   33.3620   40.6170 N   0  0  0  0  0  0  0  0  0  0  0  0
   38.2700   33.7570   41.6280 H   0  0  0  0  0  0  0  0  0  0  0  0
   36.8590   32.8030   39.9040 H   0  0  0  0  0  0  0  0  0  0  0  0
   41.7470   32.8420   39.3790 H   0  0  0  0  0  0  0  0  0  0  0  0
   38.3490   29.2340   38.6030 O   0  0  0  0  0  0  0  0  0  0  0  0
   38.5310   28.9230   39.9130 C   0  0  0  0  0  0  0  0  0  0  0  0
   39.7040   29.2910   40.4840 O   0  0  0  0  0  0  0  0  0  0  0  0
   37.9290   28.2980   41.1130 C   0  0  0  0  0  0  0  0  0  0  0  0
   37.8540   29.0140   42.3300 C   0  0  0  0  0  0  0  0  0  0  0  0
   38.1460   30.0870   42.2350 H   0  0  0  0  0  0  0  0  0  0  0  0
   37.4940   28.6330   43.5960 C   0  0  0  0  0  3  0  0  0  0  0  0
   37.1540   27.3030   43.6200 C   0  0  0  0  0  3  0  0  0  0  0  0
   37.1940   26.5310   42.4870 C   0  0  0  0  0  0  0  0  0  0  0  0
   36.8060   25.2090   42.5320 C   0  0  0  0  0  3  0  0  0  0  0  0
   36.7520   24.3170   41.4800 C   0  0  0  0  0  3  0  0  0  0  0  0
   37.1410   24.8590   40.2480 C   0  0  0  0  0  3  0  0  0  0  0  0
   37.5320   26.1720   40.1730 C   0  0  0  0  0  3  0  0  0  0  0  0
   37.5760   27.0210   41.2410 C   0  0  0  0  0  0  0  0  0  0  0  0
   35.7150   30.1620   38.6940 O   0  0  0  0  0  0  0  0  0  0  0  0
   35.1200   28.9120   38.7880 C   0  0  0  0  0  0  0  0  0  0  0  0
   35.8480   27.9300   38.1420 F   0  0  0  0  0  0  0  0  0  0  0  0
   34.8470   28.6070   40.0830 F   0  0  0  0  0  0  0  0  0  0  0  0
   33.9090   29.0100   38.1050 F   0  0  0  0  0  0  0  0  0  0  0  0
  2  1  2  6  0  0  0
  2 13  1  0  0  0  0
  2 27  1  0  0  0  0
  3  2  1  0  0  0  0
  3  6  1  0  0  0  0
  4 10  1  0  0  0  0
  5 11  1  0  0  0  0
  5  4  2  0  0  0  0
  6  5  1  0  0  0  0
  7  6  2  0  0  0  0
  7  8  1  0  0  0  0
  8  9  2  0  0  0  0
  9  4  1  0  0  0  0
 12  8  1  0  0  0  0
 13 14  1  0  0  0  0
 14 15  2  0  0  0  0
 14 16  1  0  0  0  0
 16 26  2  0  0  0  0
 16 17  1  0  0  0  0
 17 19  2  0  0  0  0
 18 17  1  0  0  0  0
 19 20  1  0  0  0  0
 21 22  1  0  0  0  0
 21 20  2  0  0  0  0
 23 22  2  0  0  0  0
 24 23  1  0  0  0  0
 25 24  2  0  0  0  0
 25 26  1  0  0  0  0
 26 21  1  0  0  0  0
 27 28  1  0  0  0  0
 28 30  1  0  0  0  0
 29 28  1  0  0  0  0
 31 28  1  0  0  0  0
M  END
>  <minimizedAffinity>
-5.59501934

$$$$

 OpenBabel03242519433D

 31 33  0  0  0  0  0  0  0  0999 V2000
   39.9800   29.5010   39.4060 O   0  0  0  0  0  0  0  0  0  0  0  0
   39.2550   29.6200   38.0400 P   0  0  2  0  0  0  0  0  0  0  0  0
   39.2870   31.2650   37.5450 O   0  0  0  0  0  0  0  0  0  0  0  0
   37.5630   33.4930   39.8530 C   0  0  0  0  0  0  0  0  0  0  0  0
   37.7820   32.5010   38.8700 C   0  0  0  0  0  0  0  0  0  0  0  0
   39.1110   32.2350   38.5080 C   0  0  0  0  0  0  0  0  0  0  0  0
   40.0960   32.9280   39.1100 N   0  0  0  0  0  0  0  0  0  0  0  0
   39.8550   33.8710   40.0480 C   0  0  0  0  0  0  0  0  0  0  0  0
   38.5990   34.1600   40.4240 N   0  0  0  0  0  0  0  0  0  0  0  0
   36.5410   33.7050   40.1370 H   0  0  0  0  0  0  0  0  0  0  0  0
   36.9270   32.0050   38.4530 H   0  0  0  0  0  0  0  0  0  0  0  0
   40.7100   34.3940   40.4910 H   0  0  0  0  0  0  0  0  0  0  0  0
   37.6750   29.1490   38.2220 O   0  0  0  0  0  0  0  0  0  0  0  0
   36.9560   28.9130   39.3500 C   0  0  0  0  0  0  0  0  0  0  0  0
   35.7380   29.5000   39.4470 O   0  0  0  0  0  0  0  0  0  0  0  0
   36.9250   28.2070   40.6520 C   0  0  0  0  0  0  0  0  0  0  0  0
   37.1320   28.9190   41.8560 C   0  0  0  0  0  0  0  0  0  0  0  0
   37.1660   30.0260   41.7190 H   0  0  0  0  0  0  0  0  0  0  0  0
   37.3000   28.5010   43.1490 C   0  0  0  0  0  3  0  0  0  0  0  0
   37.2460   27.1310   43.2240 C   0  0  0  0  0  3  0  0  0  0  0  0
   37.0460   26.3590   42.1080 C   0  0  0  0  0  0  0  0  0  0  0  0
   36.9550   24.9880   42.2180 C   0  0  0  0  0  3  0  0  0  0  0  0
   36.7180   24.0820   41.2040 C   0  0  0  0  0  3  0  0  0  0  0  0
   36.5580   24.6640   39.9400 C   0  0  0  0  0  3  0  0  0  0  0  0
   36.6440   26.0260   39.8000 C   0  0  0  0  0  3  0  0  0  0  0  0
   36.8850   26.8890   40.8300 C   0  0  0  0  0  0  0  0  0  0  0  0
   40.1280   28.7210   36.9540 O   0  0  0  0  0  0  0  0  0  0  0  0
   39.6390   27.4290   36.8200 C   0  0  0  0  0  0  0  0  0  0  0  0
   39.3530   26.8420   38.0390 F   0  0  0  0  0  0  0  0  0  0  0  0
   38.5910   27.4000   35.9570 F   0  0  0  0  0  0  0  0  0  0  0  0
   40.6750   26.6810   36.2630 F   0  0  0  0  0  0  0  0  0  0  0  0
  2 13  1  0  0  0  0
  2  1  2  1  0  0  0
  3  2  1  0  0  0  0
  3  6  1  0  0  0  0
  4 10  1  0  0  0  0
  4  9  1  0  0  0  0
  5  4  2  0  0  0  0
  6  5  1  0  0  0  0
  6  7  2  0  0  0  0
  7  8  1  0  0  0  0
  8  9  2  0  0  0  0
  8 12  1  0  0  0  0
 11  5  1  0  0  0  0
 13 14  1  0  0  0  0
 14 15  2  0  0  0  0
 14 16  1  0  0  0  0
 16 26  2  0  0  0  0
 16 17  1  0  0  0  0
 17 19  2  0  0  0  0
 18 17  1  0  0  0  0
 19 20  1  0  0  0  0
 21 22  1  0  0  0  0
 21 20  2  0  0  0  0
 23 22  2  0  0  0  0
 24 23  1  0  0  0  0
 25 24  2  0  0  0  0
 25 26  1  0  0  0  0
 26 21  1  0  0  0  0
 27  2  1  0  0  0  0
 28 27  1  0  0  0  0
 28 29  1  0  0  0  0
 30 28  1  0  0  0  0
 31 28  1  0  0  0  0
M  END
>  <minimizedAffinity>
-5.52824593

$$$$

 OpenBabel03242519433D

 31 33  0  0  0  0  0  0  0  0999 V2000
   34.4840   26.9070   37.4840 O   0  0  0  0  0  0  0  0  0  0  0  0
   35.0620   28.3310   37.2670 P   0  0  2  0  0  0  0  0  0  0  0  0
   34.5830   29.3220   38.5850 O   0  0  0  0  0  0  0  0  0  0  0  0
   36.8890   30.7110   41.0380 C   0  0  0  0  0  0  0  0  0  0  0  0
   36.0320   30.6150   39.9170 C   0  0  0  0  0  0  0  0  0  0  0  0
   35.4090   29.3800   39.6870 C   0  0  0  0  0  0  0  0  0  0  0  0
   35.6550   28.3640   40.5360 N   0  0  0  0  0  0  0  0  0  0  0  0
   36.4800   28.4860   41.5990 C   0  0  0  0  0  0  0  0  0  0  0  0
   37.0990   29.6500   41.8570 N   0  0  0  0  0  0  0  0  0  0  0  0
   37.3740   31.6600   41.2220 H   0  0  0  0  0  0  0  0  0  0  0  0
   35.9020   31.4860   39.3040 H   0  0  0  0  0  0  0  0  0  0  0  0
   36.6300   27.6130   42.2430 H   0  0  0  0  0  0  0  0  0  0  0  0
   34.4340   28.9630   35.8690 O   0  0  0  0  0  0  0  0  0  0  0  0
   33.1420   29.1810   35.5090 C   0  0  0  0  0  0  0  0  0  0  0  0
   32.4530   28.1350   34.9910 O   0  0  0  0  0  0  0  0  0  0  0  0
   32.0450   30.1750   35.4430 C   0  0  0  0  0  0  0  0  0  0  0  0
   31.9080   31.0130   34.3120 C   0  0  0  0  0  0  0  0  0  0  0  0
   32.5890   30.7430   33.4710 H   0  0  0  0  0  0  0  0  0  0  0  0
   31.0980   32.0900   34.0640 C   0  0  0  0  0  3  0  0  0  0  0  0
   30.2980   32.3520   35.1480 C   0  0  0  0  0  3  0  0  0  0  0  0
   30.3610   31.5890   36.2880 C   0  0  0  0  0  0  0  0  0  0  0  0
   29.5160   31.8490   37.3460 C   0  0  0  0  0  3  0  0  0  0  0  0
   29.4290   31.1550   38.5350 C   0  0  0  0  0  3  0  0  0  0  0  0
   30.3140   30.0730   38.6350 C   0  0  0  0  0  3  0  0  0  0  0  0
   31.1670   29.7920   37.5980 C   0  0  0  0  0  3  0  0  0  0  0  0
   31.2260   30.5080   36.4370 C   0  0  0  0  0  0  0  0  0  0  0  0
   36.7130   28.1850   37.2840 O   0  0  0  0  0  0  0  0  0  0  0  0
   37.3380   29.1250   36.4770 C   0  0  0  0  0  0  0  0  0  0  0  0
   37.3530   28.7530   35.1450 F   0  0  0  0  0  0  0  0  0  0  0  0
   36.8060   30.3580   36.6780 F   0  0  0  0  0  0  0  0  0  0  0  0
   38.6700   29.1600   36.8850 F   0  0  0  0  0  0  0  0  0  0  0  0
  2 27  1  0  0  0  0
  2  1  2  1  0  0  0
  2  3  1  0  0  0  0
  3  6  1  0  0  0  0
  4 10  1  0  0  0  0
  4  9  1  0  0  0  0
  5  4  2  0  0  0  0
  6  5  1  0  0  0  0
  6  7  2  0  0  0  0
  7  8  1  0  0  0  0
  8  9  2  0  0  0  0
  8 12  1  0  0  0  0
 11  5  1  0  0  0  0
 13  2  1  0  0  0  0
 14 13  1  0  0  0  0
 15 14  2  0  0  0  0
 16 14  1  0  0  0  0
 16 26  1  0  0  0  0
 17 16  2  0  0  0  0
 18 17  1  0  0  0  0
 19 17  1  0  0  0  0
 19 20  2  0  0  0  0
 20 21  1  0  0  0  0
 21 26  2  0  0  0  0
 21 22  1  0  0  0  0
 22 23  2  0  0  0  0
 23 24  1  0  0  0  0
 25 24  2  0  0  0  0
 26 25  1  0  0  0  0
 28 30  1  0  0  0  0
 28 31  1  0  0  0  0
 28 27  1  0  0  0  0
 29 28  1  0  0  0  0
M  END
>  <minimizedAffinity>
-5.52810907

$$$$

 OpenBabel03242519433D

 31 33  0  0  0  0  0  0  0  0999 V2000
   34.7170   26.9380   37.7440 O   0  0  0  0  0  0  0  0  0  0  0  0
   34.9730   28.4620   37.8830 P   0  0  2  0  0  0  0  0  0  0  0  0
   34.6040   28.9340   39.4920 O   0  0  0  0  0  0  0  0  0  0  0  0
   37.3090   27.8840   41.6930 C   0  0  0  0  0  0  0  0  0  0  0  0
   36.2420   27.8210   40.7670 C   0  0  0  0  0  0  0  0  0  0  0  0
   35.6420   29.0320   40.3930 C   0  0  0  0  0  0  0  0  0  0  0  0
   36.1090   30.1770   40.9280 N   0  0  0  0  0  0  0  0  0  0  0  0
   37.1310   30.2050   41.8110 C   0  0  0  0  0  0  0  0  0  0  0  0
   37.7350   29.0700   42.1980 N   0  0  0  0  0  0  0  0  0  0  0  0
   37.7770   26.9540   41.9870 H   0  0  0  0  0  0  0  0  0  0  0  0
   35.9480   26.8570   40.4000 H   0  0  0  0  0  0  0  0  0  0  0  0
   37.4530   31.1770   42.2020 H   0  0  0  0  0  0  0  0  0  0  0  0
   33.9680   29.2770   36.8450 O   0  0  0  0  0  0  0  0  0  0  0  0
   32.6110   29.3170   36.7910 C   0  0  0  0  0  0  0  0  0  0  0  0
   31.9690   28.1940   36.3860 O   0  0  0  0  0  0  0  0  0  0  0  0
   31.4050   30.1480   37.0190 C   0  0  0  0  0  0  0  0  0  0  0  0
   30.6680   30.0220   38.2190 C   0  0  0  0  0  0  0  0  0  0  0  0
   31.1630   29.3760   38.9810 H   0  0  0  0  0  0  0  0  0  0  0  0
   29.4640   30.5440   38.6110 C   0  0  0  0  0  3  0  0  0  0  0  0
   28.9270   31.3230   37.6160 C   0  0  0  0  0  3  0  0  0  0  0  0
   29.5740   31.5030   36.4190 C   0  0  0  0  0  0  0  0  0  0  0  0
   29.0320   32.3230   35.4520 C   0  0  0  0  0  3  0  0  0  0  0  0
   29.5730   32.6370   34.2230 C   0  0  0  0  0  3  0  0  0  0  0  0
   30.8130   32.0340   33.9710 C   0  0  0  0  0  3  0  0  0  0  0  0
   31.3760   31.2120   34.9140 C   0  0  0  0  0  3  0  0  0  0  0  0
   30.8040   30.9230   36.1200 C   0  0  0  0  0  0  0  0  0  0  0  0
   36.5910   28.7030   37.6150 O   0  0  0  0  0  0  0  0  0  0  0  0
   36.8610   29.9550   37.0810 C   0  0  0  0  0  0  0  0  0  0  0  0
   36.5040   30.0510   35.7490 F   0  0  0  0  0  0  0  0  0  0  0  0
   36.3130   30.9320   37.8490 F   0  0  0  0  0  0  0  0  0  0  0  0
   38.2460   30.1020   37.1230 F   0  0  0  0  0  0  0  0  0  0  0  0
  2  1  2  6  0  0  0
  2  3  1  0  0  0  0
  3  6  1  0  0  0  0
  4 10  1  0  0  0  0
  4  9  1  0  0  0  0
  5  4  2  0  0  0  0
  6  5  1  0  0  0  0
  6  7  2  0  0  0  0
  7  8  1  0  0  0  0
  8  9  2  0  0  0  0
  8 12  1  0  0  0  0
 11  5  1  0  0  0  0
 13  2  1  0  0  0  0
 14 13  1  0  0  0  0
 14 16  1  0  0  0  0
 15 14  2  0  0  0  0
 16 17  1  0  0  0  0
 17 19  2  0  0  0  0
 17 18  1  0  0  0  0
 20 19  1  0  0  0  0
 21 20  2  0  0  0  0
 22 21  1  0  0  0  0
 23 22  2  0  0  0  0
 24 23  1  0  0  0  0
 24 25  2  0  0  0  0
 25 26  1  0  0  0  0
 26 21  1  0  0  0  0
 26 16  2  0  0  0  0
 27  2  1  0  0  0  0
 28 31  1  0  0  0  0
 28 27  1  0  0  0  0
 28 30  1  0  0  0  0
 29 28  1  0  0  0  0
M  END
>  <minimizedAffinity>
-5.51879168

$$$$

 OpenBabel03242519433D

 31 33  0  0  0  0  0  0  0  0999 V2000
   35.7260   29.2840   36.4700 O   0  0  0  0  0  0  0  0  0  0  0  0
   36.7390   29.5130   37.6230 P   0  0  2  0  0  0  0  0  0  0  0  0
   37.5960   30.9690   37.3170 O   0  0  0  0  0  0  0  0  0  0  0  0
   39.5390   32.1130   40.1770 C   0  0  0  0  0  0  0  0  0  0  0  0
   39.1310   31.3430   39.0630 C   0  0  0  0  0  0  0  0  0  0  0  0
   37.9650   31.7440   38.3950 C   0  0  0  0  0  0  0  0  0  0  0  0
   37.3040   32.8280   38.8430 N   0  0  0  0  0  0  0  0  0  0  0  0
   37.7180   33.5450   39.9110 C   0  0  0  0  0  0  0  0  0  0  0  0
   38.8290   33.1970   40.5820 N   0  0  0  0  0  0  0  0  0  0  0  0
   40.4370   31.8100   40.6980 H   0  0  0  0  0  0  0  0  0  0  0  0
   39.7300   30.4970   38.7880 H   0  0  0  0  0  0  0  0  0  0  0  0
   37.1260   34.4150   40.2150 H   0  0  0  0  0  0  0  0  0  0  0  0
   37.8190   28.2540   37.6520 O   0  0  0  0  0  0  0  0  0  0  0  0
   38.2920   27.5290   38.6990 C   0  0  0  0  0  0  0  0  0  0  0  0
   39.6260   27.2910   38.7420 O   0  0  0  0  0  0  0  0  0  0  0  0
   37.9370   26.8210   39.9510 C   0  0  0  0  0  0  0  0  0  0  0  0
   37.6120   25.4450   39.9260 C   0  0  0  0  0  0  0  0  0  0  0  0
   37.7940   24.9610   38.9380 H   0  0  0  0  0  0  0  0  0  0  0  0
   37.1160   24.6050   40.8870 C   0  0  0  0  0  3  0  0  0  0  0  0
   36.9210   25.2810   42.0660 C   0  0  0  0  0  3  0  0  0  0  0  0
   37.2120   26.6170   42.1830 C   0  0  0  0  0  0  0  0  0  0  0  0
   37.0460   27.2610   43.3910 C   0  0  0  0  0  3  0  0  0  0  0  0
   37.3280   28.5810   43.6800 C   0  0  0  0  0  3  0  0  0  0  0  0
   37.8390   29.3090   42.5970 C   0  0  0  0  0  3  0  0  0  0  0  0
   38.0140   28.6940   41.3830 C   0  0  0  0  0  3  0  0  0  0  0  0
   37.7170   27.3840   41.1370 C   0  0  0  0  0  0  0  0  0  0  0  0
   35.8520   29.6980   39.0110 O   0  0  0  0  0  0  0  0  0  0  0  0
   34.7460   28.8610   39.0510 C   0  0  0  0  0  0  0  0  0  0  0  0
   33.7170   29.3040   38.2410 F   0  0  0  0  0  0  0  0  0  0  0  0
   35.1080   27.5770   38.7960 F   0  0  0  0  0  0  0  0  0  0  0  0
   34.2640   28.9200   40.3570 F   0  0  0  0  0  0  0  0  0  0  0  0
  2  1  2  6  0  0  0
  2 13  1  0  0  0  0
  2 27  1  0  0  0  0
  3  2  1  0  0  0  0
  3  6  1  0  0  0  0
  4  9  1  0  0  0  0
  4 10  1  0  0  0  0
  5  4  2  0  0  0  0
  6  7  2  0  0  0  0
  6  5  1  0  0  0  0
  7  8  1  0  0  0  0
  8 12  1  0  0  0  0
  8  9  2  0  0  0  0
 11  5  1  0  0  0  0
 13 14  1  0  0  0  0
 14 15  2  0  0  0  0
 14 16  1  0  0  0  0
 16 26  1  0  0  0  0
 17 16  2  0  0  0  0
 17 19  1  0  0  0  0
 18 17  1  0  0  0  0
 19 20  2  0  0  0  0
 20 21  1  0  0  0  0
 21 22  1  0  0  0  0
 22 23  2  0  0  0  0
 24 23  1  0  0  0  0
 25 24  2  0  0  0  0
 26 25  1  0  0  0  0
 26 21  2  0  0  0  0
 27 28  1  0  0  0  0
 28 31  1  0  0  0  0
 29 28  1  0  0  0  0
 30 28  1  0  0  0  0
M  END
>  <minimizedAffinity>
-5.51647043

$$$$

 OpenBabel03242519433D

 31 33  0  0  0  0  0  0  0  0999 V2000
   38.7600   27.9010   38.2560 O   0  0  0  0  0  0  0  0  0  0  0  0
   37.9290   29.0080   37.5530 P   0  0  2  0  0  0  0  0  0  0  0  0
   38.8250   30.4720   37.5930 O   0  0  0  0  0  0  0  0  0  0  0  0
   39.0380   32.0930   40.8470 C   0  0  0  0  0  0  0  0  0  0  0  0
   39.2890   31.1920   39.7860 C   0  0  0  0  0  0  0  0  0  0  0  0
   38.5560   31.3690   38.6040 C   0  0  0  0  0  0  0  0  0  0  0  0
   37.6640   32.3760   38.5410 N   0  0  0  0  0  0  0  0  0  0  0  0
   37.4460   33.2220   39.5720 C   0  0  0  0  0  0  0  0  0  0  0  0
   38.1240   33.0890   40.7240 N   0  0  0  0  0  0  0  0  0  0  0  0
   39.5980   31.9630   41.7630 H   0  0  0  0  0  0  0  0  0  0  0  0
   40.0220   30.4250   39.9390 H   0  0  0  0  0  0  0  0  0  0  0  0
   36.7020   34.0160   39.4440 H   0  0  0  0  0  0  0  0  0  0  0  0
   36.5090   29.2280   38.3800 O   0  0  0  0  0  0  0  0  0  0  0  0
   36.1740   28.8850   39.6520 C   0  0  0  0  0  0  0  0  0  0  0  0
   34.9320   29.2180   40.0800 O   0  0  0  0  0  0  0  0  0  0  0  0
   36.6290   28.2260   40.8980 C   0  0  0  0  0  0  0  0  0  0  0  0
   37.0140   29.0000   42.0170 C   0  0  0  0  0  0  0  0  0  0  0  0
   36.7990   30.0890   41.9000 H   0  0  0  0  0  0  0  0  0  0  0  0
   37.6000   28.6600   43.2070 C   0  0  0  0  0  3  0  0  0  0  0  0
   37.8290   27.3070   43.2630 C   0  0  0  0  0  3  0  0  0  0  0  0
   37.4860   26.4780   42.2250 C   0  0  0  0  0  0  0  0  0  0  0  0
   37.6890   25.1180   42.3250 C   0  0  0  0  0  3  0  0  0  0  0  0
   37.3640   24.1530   41.3930 C   0  0  0  0  0  3  0  0  0  0  0  0
   36.7620   24.6560   40.2330 C   0  0  0  0  0  3  0  0  0  0  0  0
   36.5480   26.0060   40.1050 C   0  0  0  0  0  3  0  0  0  0  0  0
   36.8890   26.9300   41.0510 C   0  0  0  0  0  0  0  0  0  0  0  0
   37.7470   28.5380   35.9730 O   0  0  0  0  0  0  0  0  0  0  0  0
   36.6940   29.1870   35.3430 C   0  0  0  0  0  0  0  0  0  0  0  0
   35.4740   28.5910   35.6030 F   0  0  0  0  0  0  0  0  0  0  0  0
   36.7090   30.5140   35.6300 F   0  0  0  0  0  0  0  0  0  0  0  0
   36.9140   29.0400   33.9750 F   0  0  0  0  0  0  0  0  0  0  0  0
  2  3  1  0  0  0  0
  2  1  2  1  0  0  0
  2 13  1  0  0  0  0
  3  6  1  0  0  0  0
  4 10  1  0  0  0  0
  5 11  1  0  0  0  0
  5  4  2  0  0  0  0
  6  5  1  0  0  0  0
  7  6  2  0  0  0  0
  7  8  1  0  0  0  0
  8  9  2  0  0  0  0
  9  4  1  0  0  0  0
 12  8  1  0  0  0  0
 13 14  1  0  0  0  0
 14 15  2  0  0  0  0
 14 16  1  0  0  0  0
 16 26  2  0  0  0  0
 16 17  1  0  0  0  0
 17 19  2  0  0  0  0
 18 17  1  0  0  0  0
 19 20  1  0  0  0  0
 21 22  1  0  0  0  0
 21 20  2  0  0  0  0
 23 22  2  0  0  0  0
 24 23  1  0  0  0  0
 25 24  2  0  0  0  0
 25 26  1  0  0  0  0
 26 21  1  0  0  0  0
 27  2  1  0  0  0  0
 28 29  1  0  0  0  0
 28 30  1  0  0  0  0
 28 27  1  0  0  0  0
 31 28  1  0  0  0  0
M  END
>  <minimizedAffinity>
-5.50373363

$$$$
