
 OpenBabel03252507463D

 39 42  0  0  0  0  0  0  0  0999 V2000
   48.4390   33.8210   41.5130 C   0  0  0  0  0  0  0  0  0  0  0  0
   49.0070   32.5840   41.2550 C   0  0  0  0  0  0  0  0  0  0  0  0
   50.3010   32.2970   41.6690 C   0  0  0  0  0  0  0  0  0  0  0  0
   50.9710   33.3010   42.3420 N   0  0  0  0  0  0  0  0  0  0  0  0
   50.3820   34.4910   42.5740 C   0  0  0  0  0  0  0  0  0  0  0  0
   49.1440   34.7400   42.1670 N   0  0  0  0  0  0  0  0  0  0  0  0
   50.7540   31.3350   41.4730 H   0  0  0  0  0  0  0  0  0  0  0  0
   51.0090   35.2010   43.1120 H   0  0  0  0  0  0  0  0  0  0  0  0
   47.0610   34.0300   41.0320 C   0  0  0  0  0  0  0  0  0  0  0  0
   47.0740   34.3710   39.9580 H   0  0  0  0  0  0  0  0  0  0  0  0
   46.4790   33.0960   41.0270 H   0  0  0  0  0  0  0  0  0  0  0  0
   46.2860   35.0170   41.8460 C   0  0  0  0  0  0  0  0  0  0  0  0
   46.6210   36.0280   41.6090 H   0  0  0  0  0  0  0  0  0  0  0  0
   46.5050   34.8560   42.9400 H   0  0  0  0  0  0  0  0  0  0  0  0
   44.8180   34.9340   41.6490 C   0  0  0  0  0  0  0  0  0  0  0  0
   43.9390   35.3780   42.6970 C   0  0  0  0  0  0  0  0  0  0  0  0
   42.2730   35.0720   41.9730 S   0  0  0  0  0  0  0  0  0  0  0  0
   43.0510   34.3970   40.3790 C   0  0  0  0  0  0  0  0  0  0  0  0
   44.1630   34.4960   40.6110 N   0  0  0  0  0  0  0  0  0  0  0  0
   44.2280   35.7840   43.6580 H   0  0  0  0  0  0  0  0  0  0  0  0
   42.2910   33.9450   39.3090 O   0  0  0  0  0  0  0  0  0  0  0  0
   40.3550   34.4440   37.5600 O   0  0  0  0  0  0  0  0  0  0  0  0
   41.4490   35.1190   38.3930 P   0  0  0  0  0  0  0  0  0  0  0  0
   40.7280   36.2020   39.4810 O   0  0  0  0  0  0  0  0  0  0  0  0
   39.8310   35.8570   39.6960 H   0  0  0  0  0  0  0  0  0  0  0  0
   42.5350   35.9600   37.4090 O   0  0  0  0  0  0  0  0  0  0  0  0
   42.6500   36.8980   37.6750 H   0  0  0  0  0  0  0  0  0  0  0  0
   48.0810   31.3240   40.3790 S   0  0  0  0  0  0  0  0  0  0  0  0
   48.9490   30.7050   38.9760 C   0  0  0  0  0  0  0  0  0  0  0  0
   49.7380   29.5750   39.0290 C   0  0  0  0  0  0  0  0  0  0  0  0
   49.8260   29.0490   39.9740 H   0  0  0  0  0  0  0  0  0  0  0  0
   50.3880   29.1390   37.9140 C   0  0  0  0  0  3  0  0  0  0  0  0
   50.2680   29.8210   36.7030 C   0  0  0  0  0  3  0  0  0  0  0  0
   49.4670   30.9590   36.6690 C   0  0  0  0  0  0  0  0  0  0  0  0
   49.3420   31.6450   35.4670 C   0  0  0  0  0  3  0  0  0  0  0  0
   48.5620   32.7760   35.3800 C   0  0  0  0  0  3  0  0  0  0  0  0
   47.8850   33.2450   36.5090 C   0  0  0  0  0  3  0  0  0  0  0  0
   48.0210   32.5460   37.7070 C   0  0  0  0  0  3  0  0  0  0  0  0
   48.7950   31.4170   37.8050 C   0  0  0  0  0  0  0  0  0  0  0  0
  1  6  1  0  0  0  0
  2  1  2  0  0  0  0
  2  3  1  0  0  0  0
  3  4  2  0  0  0  0
  4  5  1  0  0  0  0
  5  8  1  0  0  0  0
  6  5  2  0  0  0  0
  7  3  1  0  0  0  0
  9  1  1  0  0  0  0
  9 12  1  0  0  0  0
 10  9  1  0  0  0  0
 11  9  1  0  0  0  0
 12 14  1  0  0  0  0
 13 12  1  0  0  0  0
 15 12  1  0  0  0  0
 15 16  2  0  0  0  0
 16 20  1  0  0  0  0
 17 16  1  0  0  0  0
 18 19  2  0  0  0  0
 18 17  1  0  0  0  0
 19 15  1  0  0  0  0
 21 18  1  0  0  0  0
 22 23  2  0  0  0  0
 23 21  1  0  0  0  0
 23 24  1  0  0  0  0
 24 25  1  0  0  0  0
 26 27  1  0  0  0  0
 26 23  1  0  0  0  0
 28  2  1  0  0  0  0
 29 30  1  0  0  0  0
 29 28  1  0  0  0  0
 30 31  1  0  0  0  0
 32 30  2  0  0  0  0
 33 32  1  0  0  0  0
 34 33  2  0  0  0  0
 34 39  1  0  0  0  0
 35 34  1  0  0  0  0
 36 35  2  0  0  0  0
 36 37  1  0  0  0  0
 37 38  2  0  0  0  0
 38 39  1  0  0  0  0
 39 29  2  0  0  0  0
M  END
>  <minimizedAffinity>
-4.96913767

>  <minimizedRMSD>
1.86990023

$$$$
