
 OpenBabel03252509003D

 47 50  0  0  1  0  0  0  0  0999 V2000
   46.5430   34.4620   43.7210 N   0  0  0  0  0  0  0  0  0  0  0  0
   46.1880   35.2840   42.6210 C   0  0  0  0  0  0  0  0  0  0  0  0
   44.6990   35.4680   42.4160 C   0  0  0  0  0  0  0  0  0  0  0  0
   43.8900   35.4700   43.6910 C   0  0  0  0  0  0  0  0  0  0  0  0
   44.7760   35.3960   44.9100 C   0  0  0  0  0  0  0  0  0  0  0  0
   45.6110   34.0850   44.6710 C   0  0  2  0  0  0  0  0  0  0  0  0
   46.5750   36.3100   42.8480 H   0  0  0  0  0  0  0  0  0  0  0  0
   46.6270   35.0110   41.6620 H   0  0  0  0  0  0  0  0  0  0  0  0
   44.3550   34.7160   41.6710 H   0  0  0  0  0  0  0  0  0  0  0  0
   44.5210   36.4520   41.9270 H   0  0  0  0  0  0  0  0  0  0  0  0
   43.1630   36.3140   43.7420 H   0  0  0  0  0  0  0  0  0  0  0  0
   43.2830   34.5390   43.6920 H   0  0  0  0  0  0  0  0  0  0  0  0
   45.4900   36.2130   45.0010 H   0  0  0  0  0  0  0  0  0  0  0  0
   44.1310   35.2060   45.7740 H   0  0  0  0  0  0  0  0  0  0  0  0
   44.8820   33.2830   44.3890 H   0  0  0  0  0  0  0  0  0  0  0  0
   47.6620   33.6030   43.4700 C   0  0  0  0  0  0  0  0  0  0  0  0
   47.6920   32.7620   44.2160 H   0  0  0  0  0  0  0  0  0  0  0  0
   48.5780   34.2090   43.5400 H   0  0  0  0  0  0  0  0  0  0  0  0
   47.5100   32.9890   42.1190 C   0  0  0  0  0  0  0  0  0  0  0  0
   46.8170   32.1390   42.0600 H   0  0  0  0  0  0  0  0  0  0  0  0
   47.1250   33.7400   41.3870 H   0  0  0  0  0  0  0  0  0  0  0  0
   51.2290   32.5240   41.8710 C   0  0  0  0  0  0  0  0  0  0  0  0
   49.9610   32.8970   42.3530 C   0  0  0  0  0  0  0  0  0  0  0  0
   48.8480   32.5930   41.6060 C   0  0  0  0  0  0  0  0  0  0  0  0
   49.0320   31.9480   40.4450 N   0  0  0  0  0  0  0  0  0  0  0  0
   50.2580   31.5980   40.0000 C   0  0  0  0  0  0  0  0  0  0  0  0
   51.3610   31.8820   40.7070 N   0  0  0  0  0  0  0  0  0  0  0  0
   52.0280   32.8230   42.5550 H   0  0  0  0  0  0  0  0  0  0  0  0
   49.8180   33.4220   43.2990 H   0  0  0  0  0  0  0  0  0  0  0  0
   50.3970   31.0740   39.0530 H   0  0  0  0  0  0  0  0  0  0  0  0
   46.1890   33.8920   45.9170 O   0  0  0  0  0  0  0  0  0  0  0  0
   45.7090   31.3530   45.2900 O   0  0  0  0  0  0  0  0  0  0  0  0
   46.1220   32.2910   46.4270 P   0  0  2  0  0  0  0  0  0  0  0  0
   44.8260   32.2060   47.5440 O   0  0  0  0  0  0  0  0  0  0  0  0
   45.0240   32.9050   48.2060 H   0  0  0  0  0  0  0  0  0  0  0  0
   47.5000   31.8130   47.2090 O   0  0  0  0  0  0  0  0  0  0  0  0
   47.9710   30.5540   47.4350 C   0  0  0  0  0  0  0  0  0  0  0  0
   47.6570   29.3910   46.7470 C   0  0  0  0  0  0  0  0  0  0  0  0
   46.9510   29.5430   45.9440 H   0  0  0  0  0  0  0  0  0  0  0  0
   48.2470   28.1950   47.1300 C   0  0  0  0  0  3  0  0  0  0  0  0
   49.1290   28.1520   48.1710 C   0  0  0  0  0  3  0  0  0  0  0  0
   49.4590   29.2790   48.8690 C   0  0  0  0  0  0  0  0  0  0  0  0
   50.3500   29.1850   49.9080 C   0  0  0  0  0  3  0  0  0  0  0  0
   50.6980   30.3070   50.6250 C   0  0  0  0  0  3  0  0  0  0  0  0
   50.1390   31.5230   50.2850 C   0  0  0  0  0  3  0  0  0  0  0  0
   49.2580   31.5820   49.2480 C   0  0  0  0  0  3  0  0  0  0  0  0
   48.8710   30.4840   48.4910 C   0  0  0  0  0  0  0  0  0  0  0  0
  1  6  1  0  0  0  0
  2  7  1  0  0  0  0
  2  1  1  0  0  0  0
  3  2  1  0  0  0  0
  3  4  1  0  0  0  0
  4 12  1  0  0  0  0
  4 11  1  0  0  0  0
  4  5  1  0  0  0  0
  5 13  1  0  0  0  0
  5 14  1  0  0  0  0
  6 15  1  6  0  0  0
  6  5  1  0  0  0  0
  6 31  1  0  0  0  0
  8  2  1  0  0  0  0
  9  3  1  0  0  0  0
 10  3  1  0  0  0  0
 16 18  1  0  0  0  0
 16  1  1  0  0  0  0
 16 17  1  0  0  0  0
 19 16  1  0  0  0  0
 20 19  1  0  0  0  0
 21 19  1  0  0  0  0
 22 23  1  0  0  0  0
 22 28  1  0  0  0  0
 23 29  1  0  0  0  0
 24 19  1  0  0  0  0
 24 23  2  0  0  0  0
 25 24  1  0  0  0  0
 26 25  2  0  0  0  0
 26 27  1  0  0  0  0
 27 22  2  0  0  0  0
 30 26  1  0  0  0  0
 31 33  1  0  0  0  0
 33 32  2  6  0  0  0
 33 36  1  0  0  0  0
 33 34  1  0  0  0  0
 34 35  1  0  0  0  0
 36 37  1  0  0  0  0
 37 47  1  0  0  0  0
 38 40  1  0  0  0  0
 38 37  2  0  0  0  0
 39 38  1  0  0  0  0
 40 41  2  0  0  0  0
 41 42  1  0  0  0  0
 42 43  1  0  0  0  0
 43 44  2  0  0  0  0
 45 44  1  0  0  0  0
 46 45  2  0  0  0  0
 47 42  2  0  0  0  0
 47 46  1  0  0  0  0
M  END
>  <minimizedAffinity>
-5.76032686

>  <minimizedRMSD>
3.03007412

$$$$
