
 OpenBabel03252507463D

 39 42  0  0  0  0  0  0  0  0999 V2000
   48.5190   33.9890   41.3780 C   0  0  0  0  0  0  0  0  0  0  0  0
   48.9420   32.7570   40.9080 C   0  0  0  0  0  0  0  0  0  0  0  0
   50.1840   32.2500   41.2630 C   0  0  0  0  0  0  0  0  0  0  0  0
   50.9550   33.0340   42.0990 N   0  0  0  0  0  0  0  0  0  0  0  0
   50.5060   34.2280   42.5360 C   0  0  0  0  0  0  0  0  0  0  0  0
   49.3150   34.6890   42.1810 N   0  0  0  0  0  0  0  0  0  0  0  0
   50.5250   31.2890   40.9010 H   0  0  0  0  0  0  0  0  0  0  0  0
   51.2030   34.7530   43.1890 H   0  0  0  0  0  0  0  0  0  0  0  0
   47.1840   34.4420   40.9430 C   0  0  0  0  0  0  0  0  0  0  0  0
   47.2850   35.2220   40.1360 H   0  0  0  0  0  0  0  0  0  0  0  0
   46.6030   33.6300   40.4820 H   0  0  0  0  0  0  0  0  0  0  0  0
   46.3490   34.9960   42.0530 C   0  0  0  0  0  0  0  0  0  0  0  0
   46.6420   36.0280   42.2510 H   0  0  0  0  0  0  0  0  0  0  0  0
   46.5530   34.4190   43.0000 H   0  0  0  0  0  0  0  0  0  0  0  0
   44.8910   34.9490   41.7860 C   0  0  0  0  0  0  0  0  0  0  0  0
   43.9760   35.4780   42.7600 C   0  0  0  0  0  0  0  0  0  0  0  0
   42.3390   35.1860   41.9690 S   0  0  0  0  0  0  0  0  0  0  0  0
   43.1720   34.3990   40.4570 C   0  0  0  0  0  0  0  0  0  0  0  0
   44.2730   34.4750   40.7400 N   0  0  0  0  0  0  0  0  0  0  0  0
   44.2310   35.9280   43.7120 H   0  0  0  0  0  0  0  0  0  0  0  0
   42.4520   33.9120   39.3740 O   0  0  0  0  0  0  0  0  0  0  0  0
   40.4850   34.3190   37.6350 O   0  0  0  0  0  0  0  0  0  0  0  0
   41.5580   35.0440   38.4540 P   0  0  0  0  0  0  0  0  0  0  0  0
   40.8030   36.1080   39.5370 O   0  0  0  0  0  0  0  0  0  0  0  0
   39.9220   35.7310   39.7620 H   0  0  0  0  0  0  0  0  0  0  0  0
   42.6040   35.9170   37.4540 O   0  0  0  0  0  0  0  0  0  0  0  0
   42.6830   36.8620   37.7110 H   0  0  0  0  0  0  0  0  0  0  0  0
   47.8900   31.7880   39.8260 S   0  0  0  0  0  0  0  0  0  0  0  0
   48.1830   32.1270   38.1220 C   0  0  0  0  0  0  0  0  0  0  0  0
   48.0060   33.3800   37.5720 C   0  0  0  0  0  0  0  0  0  0  0  0
   47.6740   34.1850   38.2180 H   0  0  0  0  0  0  0  0  0  0  0  0
   48.2460   33.5880   36.2480 C   0  0  0  0  0  3  0  0  0  0  0  0
   48.6720   32.5450   35.4260 C   0  0  0  0  0  3  0  0  0  0  0  0
   48.8450   31.2880   35.9970 C   0  0  0  0  0  0  0  0  0  0  0  0
   49.2690   30.2440   35.1860 C   0  0  0  0  0  3  0  0  0  0  0  0
   49.4550   28.9810   35.7030 C   0  0  0  0  0  3  0  0  0  0  0  0
   49.2160   28.7400   37.0580 C   0  0  0  0  0  3  0  0  0  0  0  0
   48.7910   29.7990   37.8590 C   0  0  0  0  0  3  0  0  0  0  0  0
   48.6020   31.0610   37.3540 C   0  0  0  0  0  0  0  0  0  0  0  0
  1  6  1  0  0  0  0
  2  3  1  0  0  0  0
  2  1  2  0  0  0  0
  3  4  2  0  0  0  0
  4  5  1  0  0  0  0
  5  8  1  0  0  0  0
  6  5  2  0  0  0  0
  7  3  1  0  0  0  0
  9  1  1  0  0  0  0
  9 12  1  0  0  0  0
 10  9  1  0  0  0  0
 11  9  1  0  0  0  0
 12 13  1  0  0  0  0
 12 14  1  0  0  0  0
 15 12  1  0  0  0  0
 15 16  2  0  0  0  0
 16 20  1  0  0  0  0
 17 16  1  0  0  0  0
 18 19  2  0  0  0  0
 18 17  1  0  0  0  0
 19 15  1  0  0  0  0
 21 18  1  0  0  0  0
 22 23  2  0  0  0  0
 23 21  1  0  0  0  0
 23 24  1  0  0  0  0
 24 25  1  0  0  0  0
 26 27  1  0  0  0  0
 26 23  1  0  0  0  0
 28  2  1  0  0  0  0
 29 28  1  0  0  0  0
 30 29  1  0  0  0  0
 30 31  1  0  0  0  0
 32 30  2  0  0  0  0
 33 34  2  0  0  0  0
 33 32  1  0  0  0  0
 34 39  1  0  0  0  0
 35 36  2  0  0  0  0
 35 34  1  0  0  0  0
 36 37  1  0  0  0  0
 37 38  2  0  0  0  0
 39 38  1  0  0  0  0
 39 29  2  0  0  0  0
M  END
>  <minimizedAffinity>
-5.08403206

>  <minimizedRMSD>
0.150015175

$$$$
