
 OpenBabel03252509003D

 47 50  0  0  1  0  0  0  0  0999 V2000
   46.8810   34.3250   43.5260 N   0  0  0  0  0  0  0  0  0  0  0  0
   46.5390   35.0470   42.3540 C   0  0  0  0  0  0  0  0  0  0  0  0
   45.0610   35.0700   42.0270 C   0  0  0  0  0  0  0  0  0  0  0  0
   44.1550   35.0580   43.2350 C   0  0  0  0  0  0  0  0  0  0  0  0
   44.9420   35.1370   44.5200 C   0  0  0  0  0  0  0  0  0  0  0  0
   45.9150   33.9060   44.4230 C   0  0  2  0  0  0  0  0  0  0  0  0
   46.8050   36.1180   42.5470 H   0  0  0  0  0  0  0  0  0  0  0  0
   47.0780   34.7700   41.4490 H   0  0  0  0  0  0  0  0  0  0  0  0
   44.8520   34.2490   41.3040 H   0  0  0  0  0  0  0  0  0  0  0  0
   44.8290   36.0040   41.4670 H   0  0  0  0  0  0  0  0  0  0  0  0
   43.3480   35.8250   43.1800 H   0  0  0  0  0  0  0  0  0  0  0  0
   43.6410   34.0720   43.2460 H   0  0  0  0  0  0  0  0  0  0  0  0
   45.5650   36.0250   44.6150 H   0  0  0  0  0  0  0  0  0  0  0  0
   44.2500   34.9290   45.3420 H   0  0  0  0  0  0  0  0  0  0  0  0
   45.2920   33.0210   44.1360 H   0  0  0  0  0  0  0  0  0  0  0  0
   48.0940   33.5700   43.4120 C   0  0  0  0  0  0  0  0  0  0  0  0
   48.5160   33.3410   44.4290 H   0  0  0  0  0  0  0  0  0  0  0  0
   48.8100   34.1660   42.8260 H   0  0  0  0  0  0  0  0  0  0  0  0
   47.7950   32.2650   42.7530 C   0  0  0  0  0  0  0  0  0  0  0  0
   47.8290   31.3850   43.4100 H   0  0  0  0  0  0  0  0  0  0  0  0
   46.7680   32.2730   42.3150 H   0  0  0  0  0  0  0  0  0  0  0  0
   50.9330   31.7850   40.7460 C   0  0  0  0  0  0  0  0  0  0  0  0
   50.0610   31.9640   41.8360 C   0  0  0  0  0  0  0  0  0  0  0  0
   48.7130   32.0760   41.5990 C   0  0  0  0  0  0  0  0  0  0  0  0
   48.2940   32.0080   40.3270 N   0  0  0  0  0  0  0  0  0  0  0  0
   49.1470   31.8360   39.2940 C   0  0  0  0  0  0  0  0  0  0  0  0
   50.4670   31.7230   39.4950 N   0  0  0  0  0  0  0  0  0  0  0  0
   51.9760   31.7100   41.0670 H   0  0  0  0  0  0  0  0  0  0  0  0
   50.4090   32.0180   42.8690 H   0  0  0  0  0  0  0  0  0  0  0  0
   48.7960   31.7830   38.2620 H   0  0  0  0  0  0  0  0  0  0  0  0
   46.4070   33.8380   45.7180 O   0  0  0  0  0  0  0  0  0  0  0  0
   45.7170   31.2890   45.3980 O   0  0  0  0  0  0  0  0  0  0  0  0
   46.1840   32.3260   46.4230 P   0  0  2  0  0  0  0  0  0  0  0  0
   44.8590   32.4960   47.4950 O   0  0  0  0  0  0  0  0  0  0  0  0
   45.1040   33.2550   48.0710 H   0  0  0  0  0  0  0  0  0  0  0  0
   47.4950   31.8360   47.3060 O   0  0  0  0  0  0  0  0  0  0  0  0
   47.9670   30.5760   47.5240 C   0  0  0  0  0  0  0  0  0  0  0  0
   47.6300   29.4130   46.8460 C   0  0  0  0  0  0  0  0  0  0  0  0
   46.9040   29.5660   46.0610 H   0  0  0  0  0  0  0  0  0  0  0  0
   48.2230   28.2150   47.2160 C   0  0  0  0  0  3  0  0  0  0  0  0
   49.1310   28.1710   48.2340 C   0  0  0  0  0  3  0  0  0  0  0  0
   49.4850   29.2970   48.9220 C   0  0  0  0  0  0  0  0  0  0  0  0
   50.4020   29.2000   49.9390 C   0  0  0  0  0  3  0  0  0  0  0  0
   50.7710   30.3220   50.6440 C   0  0  0  0  0  3  0  0  0  0  0  0
   50.2110   31.5400   50.3150 C   0  0  0  0  0  3  0  0  0  0  0  0
   49.3030   31.6010   49.3010 C   0  0  0  0  0  3  0  0  0  0  0  0
   48.8930   30.5040   48.5560 C   0  0  0  0  0  0  0  0  0  0  0  0
  1  6  1  0  0  0  0
  2  7  1  0  0  0  0
  2  1  1  0  0  0  0
  3  2  1  0  0  0  0
  3  4  1  0  0  0  0
  4 12  1  0  0  0  0
  4  5  1  0  0  0  0
  5 13  1  0  0  0  0
  5 14  1  0  0  0  0
  6 15  1  6  0  0  0
  6  5  1  0  0  0  0
  6 31  1  0  0  0  0
  8  2  1  0  0  0  0
  9  3  1  0  0  0  0
 10  3  1  0  0  0  0
 11  4  1  0  0  0  0
 16  1  1  0  0  0  0
 16 17  1  0  0  0  0
 18 16  1  0  0  0  0
 19 20  1  0  0  0  0
 19 16  1  0  0  0  0
 21 19  1  0  0  0  0
 22 28  1  0  0  0  0
 22 23  1  0  0  0  0
 23 29  1  0  0  0  0
 24 23  2  0  0  0  0
 24 19  1  0  0  0  0
 25 24  1  0  0  0  0
 26 27  1  0  0  0  0
 26 25  2  0  0  0  0
 27 22  2  0  0  0  0
 30 26  1  0  0  0  0
 31 33  1  0  0  0  0
 33 32  2  6  0  0  0
 33 36  1  0  0  0  0
 33 34  1  0  0  0  0
 34 35  1  0  0  0  0
 36 37  1  0  0  0  0
 37 47  1  0  0  0  0
 38 40  1  0  0  0  0
 38 37  2  0  0  0  0
 39 38  1  0  0  0  0
 40 41  2  0  0  0  0
 41 42  1  0  0  0  0
 42 43  1  0  0  0  0
 43 44  2  0  0  0  0
 45 44  1  0  0  0  0
 46 45  2  0  0  0  0
 47 42  2  0  0  0  0
 47 46  1  0  0  0  0
M  END
>  <minimizedAffinity>
-5.54061794

>  <minimizedRMSD>
2.49003005

$$$$
