
 OpenBabel03242512153D

 23 25  0  0  0  0  0  0  0  0999 V2000
   47.1640   32.0120   45.2590 C   0  0  0  0  0  0  0  0  0  0  0  0
   47.0340   31.1530   44.5410 H   0  0  0  0  0  0  0  0  0  0  0  0
   48.2360   32.2050   45.4620 H   0  0  0  0  0  0  0  0  0  0  0  0
   46.5820   33.2110   44.6120 C   0  0  0  0  0  0  0  0  0  0  0  0
   45.4200   33.8500   44.9900 C   0  0  0  0  0  0  0  0  0  0  0  0
   44.8860   33.4270   45.8440 H   0  0  0  0  0  0  0  0  0  0  0  0
   44.9980   34.9620   44.2910 C   0  0  0  0  0  0  0  0  0  0  0  0
   45.7000   35.4680   43.2140 C   0  0  0  0  0  0  0  0  0  0  0  0
   46.8780   34.8190   42.8330 C   0  0  0  0  0  0  0  0  0  0  0  0
   47.5730   35.3370   41.7530 C   0  0  0  0  0  0  0  0  0  0  0  0
   48.7510   34.7000   41.3580 C   0  0  0  0  0  0  0  0  0  0  0  0
   49.2140   33.5820   42.0280 C   0  0  0  0  0  0  0  0  0  0  0  0
   48.4850   33.1130   43.0930 C   0  0  0  0  0  0  0  0  0  0  0  0
   47.3090   33.6910   43.5400 C   0  0  0  0  0  0  0  0  0  0  0  0
   46.5180   31.7060   46.5650 C   0  0  0  0  0  0  0  0  0  0  0  0
   46.9270   32.4360   47.6940 C   0  0  0  0  0  0  0  0  0  0  0  0
   46.3330   32.1640   48.9300 C   0  0  0  0  0  0  0  0  0  0  0  0
   45.3830   31.1990   48.9820 N   0  0  0  0  0  0  0  0  0  0  0  0
   45.0110   30.5100   47.8680 C   0  0  0  0  0  0  0  0  0  0  0  0
   45.5720   30.7600   46.6750 N   0  0  0  0  0  0  0  0  0  0  0  0
   47.6920   33.1910   47.5750 H   0  0  0  0  0  0  0  0  0  0  0  0
   46.6570   32.7320   49.7800 H   0  0  0  0  0  0  0  0  0  0  0  0
   44.2380   29.7540   48.0170 H   0  0  0  0  0  0  0  0  0  0  0  0
  1  3  1  0  0  0  0
  1 15  1  0  0  0  0
  2  1  1  0  0  0  0
  4  5  1  0  0  0  0
  4  1  1  0  0  0  0
  5  6  1  0  0  0  0
  7  5  2  0  0  0  0
  8  7  1  0  0  0  0
  9  8  2  0  0  0  0
  9 14  1  0  0  0  0
 10  9  1  0  0  0  0
 11 10  2  0  0  0  0
 11 12  1  0  0  0  0
 12 13  2  0  0  0  0
 13 14  1  0  0  0  0
 14  4  2  0  0  0  0
 15 20  2  0  0  0  0
 15 16  1  0  0  0  0
 16 17  2  0  0  0  0
 17 18  1  0  0  0  0
 17 22  1  0  0  0  0
 19 23  1  0  0  0  0
 19 18  2  0  0  0  0
 20 19  1  0  0  0  0
 21 16  1  0  0  0  0
M  END
>  <minimizedAffinity>
-5.44451189

>  <minimizedRMSD>
4.3102169

$$$$
