
 OpenBabel03252507463D

 39 42  0  0  0  0  0  0  0  0999 V2000
   48.5030   33.9320   41.3240 C   0  0  0  0  0  0  0  0  0  0  0  0
   48.7890   32.6400   40.9160 C   0  0  0  0  0  0  0  0  0  0  0  0
   49.9890   32.0350   41.2670 C   0  0  0  0  0  0  0  0  0  0  0  0
   50.8590   32.7860   42.0340 N   0  0  0  0  0  0  0  0  0  0  0  0
   50.5410   34.0410   42.4100 C   0  0  0  0  0  0  0  0  0  0  0  0
   49.3890   34.5960   42.0610 N   0  0  0  0  0  0  0  0  0  0  0  0
   50.2230   31.0260   40.9550 H   0  0  0  0  0  0  0  0  0  0  0  0
   51.3060   34.5320   43.0110 H   0  0  0  0  0  0  0  0  0  0  0  0
   47.2040   34.4880   40.8990 C   0  0  0  0  0  0  0  0  0  0  0  0
   47.3650   35.3280   40.1640 H   0  0  0  0  0  0  0  0  0  0  0  0
   46.5970   33.7490   40.3570 H   0  0  0  0  0  0  0  0  0  0  0  0
   46.3680   34.9880   42.0330 C   0  0  0  0  0  0  0  0  0  0  0  0
   46.6520   36.0140   42.2730 H   0  0  0  0  0  0  0  0  0  0  0  0
   46.5780   34.3740   42.9550 H   0  0  0  0  0  0  0  0  0  0  0  0
   44.9090   34.9400   41.7670 C   0  0  0  0  0  0  0  0  0  0  0  0
   43.9950   35.4660   42.7440 C   0  0  0  0  0  0  0  0  0  0  0  0
   42.3570   35.1740   41.9550 S   0  0  0  0  0  0  0  0  0  0  0  0
   43.1890   34.3920   40.4390 C   0  0  0  0  0  0  0  0  0  0  0  0
   44.2900   34.4680   40.7210 N   0  0  0  0  0  0  0  0  0  0  0  0
   44.2500   35.9140   43.6970 H   0  0  0  0  0  0  0  0  0  0  0  0
   42.4680   33.9070   39.3560 O   0  0  0  0  0  0  0  0  0  0  0  0
   40.4860   34.3080   37.6330 O   0  0  0  0  0  0  0  0  0  0  0  0
   41.5580   35.0370   38.4500 P   0  0  0  0  0  0  0  0  0  0  0  0
   40.8000   36.0860   39.5470 O   0  0  0  0  0  0  0  0  0  0  0  0
   39.9240   35.6990   39.7740 H   0  0  0  0  0  0  0  0  0  0  0  0
   42.5890   35.9270   37.4500 O   0  0  0  0  0  0  0  0  0  0  0  0
   42.6610   36.8700   37.7140 H   0  0  0  0  0  0  0  0  0  0  0  0
   47.6140   31.7180   39.9250 S   0  0  0  0  0  0  0  0  0  0  0  0
   47.7940   32.0360   38.2000 C   0  0  0  0  0  0  0  0  0  0  0  0
   48.9760   32.4770   37.6450 C   0  0  0  0  0  0  0  0  0  0  0  0
   49.8270   32.6350   38.2970 H   0  0  0  0  0  0  0  0  0  0  0  0
   49.0600   32.7070   36.3050 C   0  0  0  0  0  0  0  0  0  0  0  0
   47.9590   32.5030   35.4730 C   0  0  0  0  0  0  0  0  0  0  0  0
   46.7740   32.0570   36.0520 C   0  0  0  0  0  0  0  0  0  0  0  0
   45.6730   31.8500   35.2310 C   0  0  0  0  0  0  0  0  0  0  0  0
   44.4770   31.4090   35.7540 C   0  0  0  0  0  0  0  0  0  0  0  0
   44.3650   31.1650   37.1250 C   0  0  0  0  0  0  0  0  0  0  0  0
   45.4790   31.3780   37.9340 C   0  0  0  0  0  0  0  0  0  0  0  0
   46.6740   31.8160   37.4240 C   0  0  0  0  0  0  0  0  0  0  0  0
  1  6  1  0  0  0  0
  2  3  1  0  0  0  0
  2  1  2  0  0  0  0
  3  4  2  0  0  0  0
  4  5  1  0  0  0  0
  5  8  1  0  0  0  0
  6  5  2  0  0  0  0
  7  3  1  0  0  0  0
  9  1  1  0  0  0  0
  9 12  1  0  0  0  0
 10  9  1  0  0  0  0
 11  9  1  0  0  0  0
 12 13  1  0  0  0  0
 12 14  1  0  0  0  0
 15 12  1  0  0  0  0
 15 16  2  0  0  0  0
 16 20  1  0  0  0  0
 17 16  1  0  0  0  0
 18 19  2  0  0  0  0
 18 17  1  0  0  0  0
 19 15  1  0  0  0  0
 21 18  1  0  0  0  0
 22 23  2  0  0  0  0
 23 21  1  0  0  0  0
 23 24  1  0  0  0  0
 24 25  1  0  0  0  0
 26 27  1  0  0  0  0
 26 23  1  0  0  0  0
 28  2  1  0  0  0  0
 29 28  1  0  0  0  0
 30 29  1  0  0  0  0
 30 31  1  0  0  0  0
 32 30  2  0  0  0  0
 33 34  2  0  0  0  0
 33 32  1  0  0  0  0
 34 39  1  0  0  0  0
 35 36  2  0  0  0  0
 35 34  1  0  0  0  0
 36 37  1  0  0  0  0
 37 38  2  0  0  0  0
 39 38  1  0  0  0  0
 39 29  2  0  0  0  0
M  END
>  <minimizedAffinity>
-5.27936029

>  <minimizedRMSD>
0.519193053

$$$$
