
 OpenBabel03252502373D

 26 28  0  0  1  0  0  0  0  0999 V2000
   46.6850   35.0460   42.0290 C   0  0  1  0  0  0  0  0  0  0  0  0
   46.2460   36.0520   41.8320 H   0  0  0  0  0  0  0  0  0  0  0  0
   46.3830   34.0910   40.9400 C   0  0  0  0  0  0  0  0  0  0  0  0
   45.0740   34.0680   40.4360 C   0  0  0  0  0  0  0  0  0  0  0  0
   44.3240   34.7380   40.8700 H   0  0  0  0  0  0  0  0  0  0  0  0
   44.6300   33.2620   39.4190 C   0  0  0  0  0  3  0  0  0  0  0  0
   45.5340   32.3990   38.8380 C   0  0  0  0  0  3  0  0  0  0  0  0
   46.8350   32.3730   39.2890 C   0  0  0  0  0  0  0  0  0  0  0  0
   47.7460   31.5210   38.7310 C   0  0  0  0  0  3  0  0  0  0  0  0
   49.0450   31.5010   39.1980 C   0  0  0  0  0  3  0  0  0  0  0  0
   49.4490   32.3290   40.2240 C   0  0  0  0  0  3  0  0  0  0  0  0
   48.5150   33.1820   40.7730 C   0  0  0  0  0  3  0  0  0  0  0  0
   47.2290   33.2040   40.3130 C   0  0  0  0  0  0  0  0  0  0  0  0
   45.2480   35.1990   44.0510 C   0  0  0  0  0  0  0  0  0  0  0  0
   46.3060   34.6260   43.3600 C   0  0  0  0  0  0  0  0  0  0  0  0
   46.9910   33.5980   44.0420 C   0  0  0  0  0  0  0  0  0  0  0  0
   46.5930   33.2340   45.2950 N   0  0  0  0  0  0  0  0  0  0  0  0
   45.5460   33.8460   45.9000 C   0  0  0  0  0  0  0  0  0  0  0  0
   44.8720   34.8330   45.2710 N   0  0  0  0  0  0  0  0  0  0  0  0
   44.6480   35.9970   43.6370 H   0  0  0  0  0  0  0  0  0  0  0  0
   47.8380   33.0850   43.5800 H   0  0  0  0  0  0  0  0  0  0  0  0
   45.4050   33.3990   46.8890 H   0  0  0  0  0  0  0  0  0  0  0  0
   48.1810   35.3110   42.0120 C   0  0  0  0  0  0  0  0  0  0  0  0
   48.7540   34.5560   42.5630 H   0  0  0  0  0  0  0  0  0  0  0  0
   48.3870   36.3000   42.5150 H   0  0  0  0  0  0  0  0  0  0  0  0
   48.5360   35.4390   40.9650 H   0  0  0  0  0  0  0  0  0  0  0  0
  1  2  1  6  0  0  0
  1 15  1  0  0  0  0
  3  1  1  0  0  0  0
  4  5  1  0  0  0  0
  4  3  1  0  0  0  0
  6  4  2  0  0  0  0
  7  8  2  0  0  0  0
  7  6  1  0  0  0  0
  8 13  1  0  0  0  0
  9 10  2  0  0  0  0
  9  8  1  0  0  0  0
 10 11  1  0  0  0  0
 11 12  2  0  0  0  0
 13 12  1  0  0  0  0
 13  3  2  0  0  0  0
 14 19  1  0  0  0  0
 15 16  1  0  0  0  0
 15 14  2  0  0  0  0
 16 17  2  0  0  0  0
 17 18  1  0  0  0  0
 18 22  1  0  0  0  0
 19 18  2  0  0  0  0
 20 14  1  0  0  0  0
 21 16  1  0  0  0  0
 23  1  1  0  0  0  0
 23 25  1  0  0  0  0
 23 24  1  0  0  0  0
 26 23  1  0  0  0  0
M  END
>  <minimizedAffinity>
-4.60070944

>  <minimizedRMSD>
0.940862954

$$$$
