
 OpenBabel03252503103D

 29 32  0  0  0  0  0  0  0  0999 V2000
   35.8260   28.5970   37.3160 C   0  0  0  0  0  0  0  0  0  0  0  0
   36.4150   29.3950   38.3290 C   0  0  0  0  0  0  0  0  0  0  0  0
   37.0730   30.5080   37.9100 C   0  0  0  0  0  0  0  0  0  0  0  0
   37.1660   30.8460   36.5970 N   0  0  0  0  0  0  0  0  0  0  0  0
   36.5800   30.0460   35.6520 C   0  0  0  0  0  0  0  0  0  0  0  0
   35.9210   28.9380   36.0010 N   0  0  0  0  0  0  0  0  0  0  0  0
   35.2820   27.6930   37.5300 H   0  0  0  0  0  0  0  0  0  0  0  0
   36.6950   30.3840   34.6560 H   0  0  0  0  0  0  0  0  0  0  0  0
   37.6910   31.3230   38.8510 C   0  0  0  0  0  0  0  0  0  0  0  0
   37.2760   32.4480   39.5220 C   0  0  0  0  0  0  0  0  0  0  0  0
   38.0570   33.0650   40.4010 C   0  0  0  0  0  0  0  0  0  0  0  0
   39.3490   32.5160   40.6190 C   0  0  0  0  0  0  0  0  0  0  0  0
   39.3870   31.0210   39.4660 S   0  0  0  0  0  0  0  0  0  0  0  0
   36.4760   33.0690   39.5430 H   0  0  0  0  0  0  0  0  0  0  0  0
   38.1880   33.8620   41.0940 H   0  0  0  0  0  0  0  0  0  0  0  0
   40.3360   32.5280   41.1260 H   0  0  0  0  0  0  0  0  0  0  0  0
   36.2020   28.9690   39.6440 C   0  0  0  0  0  0  0  0  0  0  0  0
   35.1640   29.4090   40.2470 O   0  0  0  0  0  0  0  0  0  0  0  0
   36.6420   28.2080   40.7830 C   0  0  0  0  0  0  0  0  0  0  0  0
   36.9120   29.1340   41.8040 C   0  0  0  0  0  0  0  0  0  0  0  0
   36.8360   30.2240   41.8150 H   0  0  0  0  0  0  0  0  0  0  0  0
   37.3610   28.7470   43.0720 C   0  0  0  0  0  3  0  0  0  0  0  0
   37.5480   27.3870   43.3320 C   0  0  0  0  0  3  0  0  0  0  0  0
   37.2760   26.4990   42.3170 C   0  0  0  0  0  0  0  0  0  0  0  0
   37.4120   25.1330   42.4330 C   0  0  0  0  0  3  0  0  0  0  0  0
   37.1430   24.2260   41.4300 C   0  0  0  0  0  3  0  0  0  0  0  0
   36.6980   24.7050   40.1930 C   0  0  0  0  0  3  0  0  0  0  0  0
   36.5480   26.0590   40.0270 C   0  0  0  0  0  3  0  0  0  0  0  0
   36.8340   26.9030   41.0730 C   0  0  0  0  0  0  0  0  0  0  0  0
  1  7  1  0  0  0  0
  1  2  1  0  0  0  0
  2 17  1  0  0  0  0
  3  2  2  0  0  0  0
  3  9  1  0  0  0  0
  4  3  1  0  0  0  0
  5  6  1  0  0  0  0
  5  4  2  0  0  0  0
  6  1  2  0  0  0  0
  8  5  1  0  0  0  0
  9 13  1  0  0  0  0
  9 10  2  0  0  0  0
 10 14  1  0  0  0  0
 10 11  1  0  0  0  0
 11 12  2  0  0  0  0
 11 15  1  0  0  0  0
 12 16  1  0  0  0  0
 13 12  1  0  0  0  0
 17 18  2  0  0  0  0
 17 19  1  0  0  0  0
 19 29  2  0  0  0  0
 19 20  1  0  0  0  0
 20 21  1  0  0  0  0
 20 22  2  0  0  0  0
 22 23  1  0  0  0  0
 24 25  1  0  0  0  0
 24 23  2  0  0  0  0
 26 25  2  0  0  0  0
 27 26  1  0  0  0  0
 28 27  2  0  0  0  0
 28 29  1  0  0  0  0
 29 24  1  0  0  0  0
M  END
>  <minimizedAffinity>
-6.06348276

$$$$

 OpenBabel03252503103D

 29 32  0  0  0  0  0  0  0  0999 V2000
   40.8670   27.6150   43.3310 C   0  0  0  0  0  0  0  0  0  0  0  0
   39.6980   27.1100   42.7090 C   0  0  0  0  0  0  0  0  0  0  0  0
   39.7430   25.8140   42.3050 C   0  0  0  0  0  0  0  0  0  0  0  0
   40.8420   25.0350   42.4840 N   0  0  0  0  0  0  0  0  0  0  0  0
   41.9510   25.5630   43.0920 C   0  0  0  0  0  0  0  0  0  0  0  0
   41.9680   26.8320   43.5080 N   0  0  0  0  0  0  0  0  0  0  0  0
   40.9470   28.6260   43.6890 H   0  0  0  0  0  0  0  0  0  0  0  0
   42.7590   24.8890   43.1960 H   0  0  0  0  0  0  0  0  0  0  0  0
   38.6350   25.2650   41.6690 C   0  0  0  0  0  0  0  0  0  0  0  0
   37.5390   24.5820   42.1370 C   0  0  0  0  0  0  0  0  0  0  0  0
   36.5840   24.1510   41.3210 C   0  0  0  0  0  0  0  0  0  0  0  0
   36.7430   24.4210   39.9360 C   0  0  0  0  0  0  0  0  0  0  0  0
   38.3820   25.3560   39.8600 S   0  0  0  0  0  0  0  0  0  0  0  0
   37.1880   24.2150   43.0140 H   0  0  0  0  0  0  0  0  0  0  0  0
   35.6560   23.6440   41.2000 H   0  0  0  0  0  0  0  0  0  0  0  0
   36.3860   24.3580   38.8870 H   0  0  0  0  0  0  0  0  0  0  0  0
   38.6160   27.9950   42.6330 C   0  0  0  0  0  0  0  0  0  0  0  0
   37.8950   28.1380   43.6790 O   0  0  0  0  0  0  0  0  0  0  0  0
   37.8200   28.9090   41.8590 C   0  0  0  0  0  0  0  0  0  0  0  0
   36.6090   28.2520   41.5840 C   0  0  0  0  0  0  0  0  0  0  0  0
   36.2630   27.2530   41.8590 H   0  0  0  0  0  0  0  0  0  0  0  0
   35.5780   28.8490   40.8480 C   0  0  0  0  0  3  0  0  0  0  0  0
   35.7620   30.1480   40.3670 C   0  0  0  0  0  3  0  0  0  0  0  0
   36.9570   30.7710   40.6490 C   0  0  0  0  0  0  0  0  0  0  0  0
   37.2720   32.0490   40.2420 C   0  0  0  0  0  3  0  0  0  0  0  0
   38.4610   32.6920   40.5150 C   0  0  0  0  0  3  0  0  0  0  0  0
   39.4340   32.0170   41.2590 C   0  0  0  0  0  3  0  0  0  0  0  0
   39.1680   30.7400   41.6870 C   0  0  0  0  0  3  0  0  0  0  0  0
   37.9590   30.1640   41.3770 C   0  0  0  0  0  0  0  0  0  0  0  0
  1  6  1  0  0  0  0
  1  7  1  0  0  0  0
  2  1  2  0  0  0  0
  3  4  2  0  0  0  0
  3  2  1  0  0  0  0
  4  5  1  0  0  0  0
  5  8  1  0  0  0  0
  5  6  2  0  0  0  0
  9 10  2  0  0  0  0
  9  3  1  0  0  0  0
 10 14  1  0  0  0  0
 11 10  1  0  0  0  0
 12 11  2  0  0  0  0
 13 12  1  0  0  0  0
 13  9  1  0  0  0  0
 15 11  1  0  0  0  0
 16 12  1  0  0  0  0
 17  2  1  0  0  0  0
 17 18  2  0  0  0  0
 19 17  1  0  0  0  0
 20 19  1  0  0  0  0
 20 21  1  0  0  0  0
 22 20  2  0  0  0  0
 23 24  2  0  0  0  0
 23 22  1  0  0  0  0
 24 29  1  0  0  0  0
 25 26  2  0  0  0  0
 25 24  1  0  0  0  0
 26 27  1  0  0  0  0
 27 28  2  0  0  0  0
 29 28  1  0  0  0  0
 29 19  2  0  0  0  0
M  END
>  <minimizedAffinity>
-5.97993088

$$$$

 OpenBabel03252503103D

 29 32  0  0  0  0  0  0  0  0999 V2000
   36.8090   31.4000   40.6200 C   0  0  0  0  0  0  0  0  0  0  0  0
   36.8430   30.3470   39.6710 C   0  0  0  0  0  0  0  0  0  0  0  0
   37.4080   30.6370   38.4710 C   0  0  0  0  0  0  0  0  0  0  0  0
   37.9160   31.8650   38.1840 N   0  0  0  0  0  0  0  0  0  0  0  0
   37.8640   32.8540   39.1320 C   0  0  0  0  0  0  0  0  0  0  0  0
   37.3190   32.6300   40.3300 N   0  0  0  0  0  0  0  0  0  0  0  0
   36.3840   31.2860   41.6020 H   0  0  0  0  0  0  0  0  0  0  0  0
   38.2850   33.7760   38.8300 H   0  0  0  0  0  0  0  0  0  0  0  0
   37.4540   29.6540   37.4890 C   0  0  0  0  0  0  0  0  0  0  0  0
   38.4280   28.7590   37.1150 C   0  0  0  0  0  0  0  0  0  0  0  0
   38.2360   27.8900   36.1290 C   0  0  0  0  0  0  0  0  0  0  0  0
   36.9790   27.9250   35.4690 C   0  0  0  0  0  0  0  0  0  0  0  0
   36.0550   29.3080   36.3620 S   0  0  0  0  0  0  0  0  0  0  0  0
   39.3880   28.5380   37.3500 H   0  0  0  0  0  0  0  0  0  0  0  0
   38.6200   27.0940   35.5360 H   0  0  0  0  0  0  0  0  0  0  0  0
   36.2770   27.5460   34.6980 H   0  0  0  0  0  0  0  0  0  0  0  0
   36.3380   29.1170   40.1060 C   0  0  0  0  0  0  0  0  0  0  0  0
   35.0680   28.9700   40.1180 O   0  0  0  0  0  0  0  0  0  0  0  0
   36.5780   27.7950   40.6210 C   0  0  0  0  0  0  0  0  0  0  0  0
   36.9010   27.9480   41.9800 C   0  0  0  0  0  0  0  0  0  0  0  0
   36.9800   28.8470   42.5960 H   0  0  0  0  0  0  0  0  0  0  0  0
   37.1930   26.8610   42.8120 C   0  0  0  0  0  3  0  0  0  0  0  0
   37.1640   25.5740   42.2690 C   0  0  0  0  0  3  0  0  0  0  0  0
   36.8450   25.4490   40.9360 C   0  0  0  0  0  0  0  0  0  0  0  0
   36.7750   24.2440   40.2720 C   0  0  0  0  0  3  0  0  0  0  0  0
   36.4550   24.0970   38.9380 C   0  0  0  0  0  3  0  0  0  0  0  0
   36.1770   25.2420   38.1840 C   0  0  0  0  0  3  0  0  0  0  0  0
   36.2340   26.4670   38.8010 C   0  0  0  0  0  3  0  0  0  0  0  0
   36.5590   26.5350   40.1350 C   0  0  0  0  0  0  0  0  0  0  0  0
  1  7  1  0  0  0  0
  2 17  1  0  0  0  0
  2  1  2  0  0  0  0
  3  2  1  0  0  0  0
  4  3  2  0  0  0  0
  4  5  1  0  0  0  0
  5  6  2  0  0  0  0
  6  1  1  0  0  0  0
  8  5  1  0  0  0  0
  9  3  1  0  0  0  0
 10 14  1  0  0  0  0
 10  9  2  0  0  0  0
 11 10  1  0  0  0  0
 12 11  2  0  0  0  0
 12 13  1  0  0  0  0
 13  9  1  0  0  0  0
 15 11  1  0  0  0  0
 16 12  1  0  0  0  0
 17 18  2  0  0  0  0
 17 19  1  0  0  0  0
 19 20  1  0  0  0  0
 20 21  1  0  0  0  0
 20 22  2  0  0  0  0
 23 22  1  0  0  0  0
 24 23  2  0  0  0  0
 25 24  1  0  0  0  0
 26 25  2  0  0  0  0
 27 28  2  0  0  0  0
 27 26  1  0  0  0  0
 28 29  1  0  0  0  0
 29 19  2  0  0  0  0
 29 24  1  0  0  0  0
M  END
>  <minimizedAffinity>
-5.62053156

$$$$

 OpenBabel03252503103D

 29 32  0  0  0  0  0  0  0  0999 V2000
   36.9210   31.6960   39.4910 C   0  0  0  0  0  0  0  0  0  0  0  0
   37.0710   30.5180   40.2650 C   0  0  0  0  0  0  0  0  0  0  0  0
   38.0140   30.5570   41.2420 C   0  0  0  0  0  0  0  0  0  0  0  0
   38.7760   31.6580   41.4730 N   0  0  0  0  0  0  0  0  0  0  0  0
   38.5960   32.7760   40.7010 C   0  0  0  0  0  0  0  0  0  0  0  0
   37.6860   32.7990   39.7240 N   0  0  0  0  0  0  0  0  0  0  0  0
   36.2070   31.7800   38.6900 H   0  0  0  0  0  0  0  0  0  0  0  0
   39.2250   33.5890   40.9510 H   0  0  0  0  0  0  0  0  0  0  0  0
   38.2260   29.4270   42.0230 C   0  0  0  0  0  0  0  0  0  0  0  0
   37.5300   28.8810   43.0750 C   0  0  0  0  0  0  0  0  0  0  0  0
   37.9300   27.7650   43.6730 C   0  0  0  0  0  0  0  0  0  0  0  0
   39.1160   27.1550   43.1830 C   0  0  0  0  0  0  0  0  0  0  0  0
   39.6430   28.2980   41.7750 S   0  0  0  0  0  0  0  0  0  0  0  0
   36.7240   29.0990   43.6480 H   0  0  0  0  0  0  0  0  0  0  0  0
   37.7660   27.0320   44.4270 H   0  0  0  0  0  0  0  0  0  0  0  0
   39.8770   26.3490   43.2140 H   0  0  0  0  0  0  0  0  0  0  0  0
   36.1900   29.4730   39.9640 C   0  0  0  0  0  0  0  0  0  0  0  0
   35.1390   29.3610   40.6830 O   0  0  0  0  0  0  0  0  0  0  0  0
   35.8650   28.3240   39.1630 C   0  0  0  0  0  0  0  0  0  0  0  0
   35.1430   28.7990   38.0550 C   0  0  0  0  0  0  0  0  0  0  0  0
   34.8430   29.8140   37.7830 H   0  0  0  0  0  0  0  0  0  0  0  0
   34.6630   27.9520   37.0490 C   0  0  0  0  0  3  0  0  0  0  0  0
   34.9100   26.5810   37.1520 C   0  0  0  0  0  3  0  0  0  0  0  0
   35.6200   26.1390   38.2450 C   0  0  0  0  0  0  0  0  0  0  0  0
   35.9390   24.8180   38.4720 C   0  0  0  0  0  3  0  0  0  0  0  0
   36.6490   24.3550   39.5590 C   0  0  0  0  0  3  0  0  0  0  0  0
   37.0910   25.2760   40.5160 C   0  0  0  0  0  3  0  0  0  0  0  0
   36.7970   26.6050   40.3350 C   0  0  0  0  0  3  0  0  0  0  0  0
   36.0840   26.9920   39.2250 C   0  0  0  0  0  0  0  0  0  0  0  0
  1  6  2  0  0  0  0
  1  2  1  0  0  0  0
  2  3  2  0  0  0  0
  3  4  1  0  0  0  0
  3  9  1  0  0  0  0
  5  8  1  0  0  0  0
  5  4  2  0  0  0  0
  6  5  1  0  0  0  0
  7  1  1  0  0  0  0
  9 10  2  0  0  0  0
 10 14  1  0  0  0  0
 10 11  1  0  0  0  0
 11 15  1  0  0  0  0
 12 16  1  0  0  0  0
 12 11  2  0  0  0  0
 13  9  1  0  0  0  0
 13 12  1  0  0  0  0
 17  2  1  0  0  0  0
 17 18  2  0  0  0  0
 19 29  1  0  0  0  0
 19 17  1  0  0  0  0
 20 19  2  0  0  0  0
 21 20  1  0  0  0  0
 22 23  2  0  0  0  0
 22 20  1  0  0  0  0
 23 24  1  0  0  0  0
 24 25  2  0  0  0  0
 24 29  1  0  0  0  0
 25 26  1  0  0  0  0
 26 27  2  0  0  0  0
 28 27  1  0  0  0  0
 29 28  2  0  0  0  0
M  END
>  <minimizedAffinity>
-5.61741686

$$$$

 OpenBabel03252503103D

 29 32  0  0  0  0  0  0  0  0999 V2000
   35.3120   28.1130   38.6000 C   0  0  0  0  0  0  0  0  0  0  0  0
   36.1620   27.5410   39.5800 C   0  0  0  0  0  0  0  0  0  0  0  0
   36.4850   26.2330   39.4050 C   0  0  0  0  0  0  0  0  0  0  0  0
   36.0260   25.5050   38.3530 N   0  0  0  0  0  0  0  0  0  0  0  0
   35.2070   26.1000   37.4280 C   0  0  0  0  0  0  0  0  0  0  0  0
   34.8530   27.3820   37.5470 N   0  0  0  0  0  0  0  0  0  0  0  0
   34.9890   29.1390   38.6370 H   0  0  0  0  0  0  0  0  0  0  0  0
   34.9000   25.4650   36.6400 H   0  0  0  0  0  0  0  0  0  0  0  0
   37.2980   25.6060   40.3420 C   0  0  0  0  0  0  0  0  0  0  0  0
   37.0240   24.9370   41.5110 C   0  0  0  0  0  0  0  0  0  0  0  0
   37.9880   24.4030   42.2520 C   0  0  0  0  0  0  0  0  0  0  0  0
   39.3220   24.5550   41.7900 C   0  0  0  0  0  0  0  0  0  0  0  0
   39.1190   25.5310   40.1860 S   0  0  0  0  0  0  0  0  0  0  0  0
   36.2240   24.7190   42.0930 H   0  0  0  0  0  0  0  0  0  0  0  0
   38.2630   23.8560   43.1230 H   0  0  0  0  0  0  0  0  0  0  0  0
   40.4130   24.3860   41.9000 H   0  0  0  0  0  0  0  0  0  0  0  0
   36.6100   28.4080   40.5820 C   0  0  0  0  0  0  0  0  0  0  0  0
   35.9520   28.4350   41.6780 O   0  0  0  0  0  0  0  0  0  0  0  0
   37.5430   29.4100   41.0220 C   0  0  0  0  0  0  0  0  0  0  0  0
   38.3590   28.8000   41.9900 C   0  0  0  0  0  0  0  0  0  0  0  0
   38.3520   27.7830   42.3880 H   0  0  0  0  0  0  0  0  0  0  0  0
   39.3950   29.4810   42.6400 C   0  0  0  0  0  3  0  0  0  0  0  0
   39.6260   30.8200   42.3140 C   0  0  0  0  0  3  0  0  0  0  0  0
   38.8140   31.3960   41.3640 C   0  0  0  0  0  0  0  0  0  0  0  0
   38.9300   32.7030   40.9430 C   0  0  0  0  0  3  0  0  0  0  0  0
   38.1290   33.2980   39.9910 C   0  0  0  0  0  3  0  0  0  0  0  0
   37.1170   32.5390   39.3940 C   0  0  0  0  0  3  0  0  0  0  0  0
   36.9610   31.2310   39.7800 C   0  0  0  0  0  3  0  0  0  0  0  0
   37.7980   30.7050   40.7350 C   0  0  0  0  0  0  0  0  0  0  0  0
  1  7  1  0  0  0  0
  1  2  1  0  0  0  0
  2 17  1  0  0  0  0
  3  2  2  0  0  0  0
  3  9  1  0  0  0  0
  4  3  1  0  0  0  0
  5  6  1  0  0  0  0
  5  4  2  0  0  0  0
  6  1  2  0  0  0  0
  8  5  1  0  0  0  0
  9 10  2  0  0  0  0
 10 14  1  0  0  0  0
 10 11  1  0  0  0  0
 11 15  1  0  0  0  0
 12 16  1  0  0  0  0
 12 11  2  0  0  0  0
 13  9  1  0  0  0  0
 13 12  1  0  0  0  0
 17 19  1  0  0  0  0
 17 18  2  0  0  0  0
 19 20  1  0  0  0  0
 20 21  1  0  0  0  0
 20 22  2  0  0  0  0
 23 22  1  0  0  0  0
 24 23  2  0  0  0  0
 25 24  1  0  0  0  0
 26 25  2  0  0  0  0
 27 28  2  0  0  0  0
 27 26  1  0  0  0  0
 28 29  1  0  0  0  0
 29 19  2  0  0  0  0
 29 24  1  0  0  0  0
M  END
>  <minimizedAffinity>
-5.60547304

$$$$

 OpenBabel03252503103D

 29 32  0  0  0  0  0  0  0  0999 V2000
   36.2400   28.6650   38.0010 C   0  0  0  0  0  0  0  0  0  0  0  0
   36.9210   29.6370   38.7770 C   0  0  0  0  0  0  0  0  0  0  0  0
   37.4410   30.6920   38.0970 C   0  0  0  0  0  0  0  0  0  0  0  0
   37.3210   30.8180   36.7490 N   0  0  0  0  0  0  0  0  0  0  0  0
   36.6530   29.8550   36.0390 C   0  0  0  0  0  0  0  0  0  0  0  0
   36.1210   28.7940   36.6500 N   0  0  0  0  0  0  0  0  0  0  0  0
   35.7890   27.7880   38.4320 H   0  0  0  0  0  0  0  0  0  0  0  0
   36.6010   30.0330   34.9970 H   0  0  0  0  0  0  0  0  0  0  0  0
   38.1390   31.6700   38.7960 C   0  0  0  0  0  0  0  0  0  0  0  0
   39.4720   31.8290   39.0900 C   0  0  0  0  0  0  0  0  0  0  0  0
   39.9150   32.8730   39.7820 C   0  0  0  0  0  0  0  0  0  0  0  0
   38.9500   33.8210   40.2140 C   0  0  0  0  0  0  0  0  0  0  0  0
   37.3250   33.1210   39.5550 S   0  0  0  0  0  0  0  0  0  0  0  0
   40.3430   31.3270   38.9680 H   0  0  0  0  0  0  0  0  0  0  0  0
   40.7390   33.3900   40.2130 H   0  0  0  0  0  0  0  0  0  0  0  0
   38.6790   34.7600   40.7400 H   0  0  0  0  0  0  0  0  0  0  0  0
   36.9280   29.4200   40.1590 C   0  0  0  0  0  0  0  0  0  0  0  0
   36.0920   30.0810   40.8660 O   0  0  0  0  0  0  0  0  0  0  0  0
   37.4940   28.7550   41.3020 C   0  0  0  0  0  0  0  0  0  0  0  0
   36.4200   28.1910   42.0110 C   0  0  0  0  0  0  0  0  0  0  0  0
   35.3470   28.2100   41.8080 H   0  0  0  0  0  0  0  0  0  0  0  0
   36.5970   27.4570   43.1890 C   0  0  0  0  0  3  0  0  0  0  0  0
   37.8930   27.2780   43.6800 C   0  0  0  0  0  3  0  0  0  0  0  0
   38.9290   27.8390   42.9680 C   0  0  0  0  0  0  0  0  0  0  0  0
   40.2550   27.7400   43.3330 C   0  0  0  0  0  3  0  0  0  0  0  0
   41.3070   28.2930   42.6340 C   0  0  0  0  0  3  0  0  0  0  0  0
   41.0340   29.0120   41.4650 C   0  0  0  0  0  3  0  0  0  0  0  0
   39.7280   29.1400   41.0610 C   0  0  0  0  0  3  0  0  0  0  0  0
   38.7310   28.5600   41.8090 C   0  0  0  0  0  0  0  0  0  0  0  0
  1  7  1  0  0  0  0
  1  2  1  0  0  0  0
  2 17  1  0  0  0  0
  3  2  2  0  0  0  0
  3  9  1  0  0  0  0
  4  3  1  0  0  0  0
  5  6  1  0  0  0  0
  5  4  2  0  0  0  0
  6  1  2  0  0  0  0
  8  5  1  0  0  0  0
  9 10  2  0  0  0  0
  9 13  1  0  0  0  0
 10 11  1  0  0  0  0
 11 15  1  0  0  0  0
 11 12  2  0  0  0  0
 12 16  1  0  0  0  0
 13 12  1  0  0  0  0
 14 10  1  0  0  0  0
 17 18  2  0  0  0  0
 17 19  1  0  0  0  0
 19 29  2  0  0  0  0
 19 20  1  0  0  0  0
 20 22  2  0  0  0  0
 21 20  1  0  0  0  0
 22 23  1  0  0  0  0
 24 25  1  0  0  0  0
 24 23  2  0  0  0  0
 26 25  2  0  0  0  0
 27 26  1  0  0  0  0
 28 27  2  0  0  0  0
 28 29  1  0  0  0  0
 29 24  1  0  0  0  0
M  END
>  <minimizedAffinity>
-5.59310627

$$$$

 OpenBabel03252503103D

 29 32  0  0  0  0  0  0  0  0999 V2000
   36.0200   25.3670   38.6730 C   0  0  0  0  0  0  0  0  0  0  0  0
   36.3930   26.4120   39.5550 C   0  0  0  0  0  0  0  0  0  0  0  0
   37.0430   26.0400   40.6880 C   0  0  0  0  0  0  0  0  0  0  0  0
   37.3260   24.7410   40.9710 N   0  0  0  0  0  0  0  0  0  0  0  0
   36.9480   23.7620   40.0890 C   0  0  0  0  0  0  0  0  0  0  0  0
   36.3040   24.0650   38.9590 N   0  0  0  0  0  0  0  0  0  0  0  0
   35.5000   25.5430   37.7480 H   0  0  0  0  0  0  0  0  0  0  0  0
   37.2110   22.7800   40.3810 H   0  0  0  0  0  0  0  0  0  0  0  0
   37.4180   27.0150   41.6050 C   0  0  0  0  0  0  0  0  0  0  0  0
   36.7760   27.5710   42.6850 C   0  0  0  0  0  0  0  0  0  0  0  0
   37.3510   28.5050   43.4350 C   0  0  0  0  0  0  0  0  0  0  0  0
   38.6620   28.9120   43.0720 C   0  0  0  0  0  0  0  0  0  0  0  0
   39.0430   27.8530   41.5550 S   0  0  0  0  0  0  0  0  0  0  0  0
   35.8710   27.5260   43.1380 H   0  0  0  0  0  0  0  0  0  0  0  0
   37.2870   29.1630   44.2680 H   0  0  0  0  0  0  0  0  0  0  0  0
   39.5660   29.5340   43.2360 H   0  0  0  0  0  0  0  0  0  0  0  0
   36.0940   27.7100   39.1250 C   0  0  0  0  0  0  0  0  0  0  0  0
   34.8940   28.1230   39.2840 O   0  0  0  0  0  0  0  0  0  0  0  0
   36.5210   28.9350   38.5050 C   0  0  0  0  0  0  0  0  0  0  0  0
   36.6340   28.6690   37.1290 C   0  0  0  0  0  0  0  0  0  0  0  0
   36.4570   27.7500   36.5650 H   0  0  0  0  0  0  0  0  0  0  0  0
   37.0270   29.6430   36.2040 C   0  0  0  0  0  3  0  0  0  0  0  0
   37.3200   30.9290   36.6660 C   0  0  0  0  0  3  0  0  0  0  0  0
   37.2020   31.1650   38.0160 C   0  0  0  0  0  0  0  0  0  0  0  0
   37.4540   32.3840   38.6090 C   0  0  0  0  0  3  0  0  0  0  0  0
   37.3400   32.6420   39.9590 C   0  0  0  0  0  3  0  0  0  0  0  0
   36.9400   31.6060   40.8100 C   0  0  0  0  0  3  0  0  0  0  0  0
   36.6780   30.3720   40.2670 C   0  0  0  0  0  3  0  0  0  0  0  0
   36.8120   30.1900   38.9110 C   0  0  0  0  0  0  0  0  0  0  0  0
  1  6  2  0  0  0  0
  1  2  1  0  0  0  0
  2  3  2  0  0  0  0
  3  4  1  0  0  0  0
  3  9  1  0  0  0  0
  5  8  1  0  0  0  0
  5  4  2  0  0  0  0
  6  5  1  0  0  0  0
  7  1  1  0  0  0  0
  9 10  2  0  0  0  0
 10 14  1  0  0  0  0
 10 11  1  0  0  0  0
 11 15  1  0  0  0  0
 12 16  1  0  0  0  0
 12 11  2  0  0  0  0
 13  9  1  0  0  0  0
 13 12  1  0  0  0  0
 17 18  2  0  0  0  0
 17  2  1  0  0  0  0
 19 29  1  0  0  0  0
 19 17  1  0  0  0  0
 20 19  2  0  0  0  0
 21 20  1  0  0  0  0
 22 23  2  0  0  0  0
 22 20  1  0  0  0  0
 23 24  1  0  0  0  0
 24 25  2  0  0  0  0
 24 29  1  0  0  0  0
 25 26  1  0  0  0  0
 26 27  2  0  0  0  0
 28 27  1  0  0  0  0
 29 28  2  0  0  0  0
M  END
>  <minimizedAffinity>
-5.57411861

$$$$

 OpenBabel03252503103D

 29 32  0  0  0  0  0  0  0  0999 V2000
   37.4750   25.7870   42.4550 C   0  0  0  0  0  0  0  0  0  0  0  0
   37.3370   26.8560   41.5340 C   0  0  0  0  0  0  0  0  0  0  0  0
   36.8280   26.5370   40.3150 C   0  0  0  0  0  0  0  0  0  0  0  0
   36.4670   25.2690   39.9870 N   0  0  0  0  0  0  0  0  0  0  0  0
   36.6160   24.2660   40.9090 C   0  0  0  0  0  0  0  0  0  0  0  0
   37.1130   24.5160   42.1230 N   0  0  0  0  0  0  0  0  0  0  0  0
   37.8680   25.9210   43.4470 H   0  0  0  0  0  0  0  0  0  0  0  0
   36.3070   23.3110   40.5760 H   0  0  0  0  0  0  0  0  0  0  0  0
   36.6870   27.5360   39.3590 C   0  0  0  0  0  0  0  0  0  0  0  0
   35.6150   28.3010   38.9660 C   0  0  0  0  0  0  0  0  0  0  0  0
   35.7250   29.2200   38.0130 C   0  0  0  0  0  0  0  0  0  0  0  0
   37.0010   29.3780   37.4080 C   0  0  0  0  0  0  0  0  0  0  0  0
   38.0690   28.1060   38.3050 S   0  0  0  0  0  0  0  0  0  0  0  0
   34.6250   28.3820   39.1630 H   0  0  0  0  0  0  0  0  0  0  0  0
   35.2600   29.9750   37.4250 H   0  0  0  0  0  0  0  0  0  0  0  0
   37.6750   29.8750   36.6800 H   0  0  0  0  0  0  0  0  0  0  0  0
   37.6920   28.1220   42.0100 C   0  0  0  0  0  0  0  0  0  0  0  0
   36.9920   28.6150   42.9590 O   0  0  0  0  0  0  0  0  0  0  0  0
   38.5450   29.2780   41.9290 C   0  0  0  0  0  0  0  0  0  0  0  0
   39.7620   28.9200   42.5350 C   0  0  0  0  0  0  0  0  0  0  0  0
   40.0780   27.9830   42.9990 H   0  0  0  0  0  0  0  0  0  0  0  0
   40.8420   29.8050   42.6340 C   0  0  0  0  0  3  0  0  0  0  0  0
   40.7040   31.0940   42.1120 C   0  0  0  0  0  3  0  0  0  0  0  0
   39.5040   31.4210   41.5240 C   0  0  0  0  0  0  0  0  0  0  0  0
   39.2310   32.6510   40.9660 C   0  0  0  0  0  3  0  0  0  0  0  0
   38.0360   32.9980   40.3710 C   0  0  0  0  0  3  0  0  0  0  0  0
   37.0110   32.0470   40.3160 C   0  0  0  0  0  3  0  0  0  0  0  0
   37.2340   30.8060   40.8600 C   0  0  0  0  0  3  0  0  0  0  0  0
   38.4520   30.5320   41.4360 C   0  0  0  0  0  0  0  0  0  0  0  0
  1  7  1  0  0  0  0
  2 17  1  0  0  0  0
  2  1  2  0  0  0  0
  3  2  1  0  0  0  0
  4  3  2  0  0  0  0
  4  5  1  0  0  0  0
  5  6  2  0  0  0  0
  6  1  1  0  0  0  0
  8  5  1  0  0  0  0
  9  3  1  0  0  0  0
 10 14  1  0  0  0  0
 10  9  2  0  0  0  0
 11 10  1  0  0  0  0
 12 11  2  0  0  0  0
 12 13  1  0  0  0  0
 13  9  1  0  0  0  0
 15 11  1  0  0  0  0
 16 12  1  0  0  0  0
 17 18  2  0  0  0  0
 19 17  1  0  0  0  0
 19 20  1  0  0  0  0
 20 22  2  0  0  0  0
 20 21  1  0  0  0  0
 23 22  1  0  0  0  0
 24 23  2  0  0  0  0
 25 24  1  0  0  0  0
 26 25  2  0  0  0  0
 27 26  1  0  0  0  0
 27 28  2  0  0  0  0
 28 29  1  0  0  0  0
 29 24  1  0  0  0  0
 29 19  2  0  0  0  0
M  END
>  <minimizedAffinity>
-5.57345152

$$$$

 OpenBabel03252503103D

 29 32  0  0  0  0  0  0  0  0999 V2000
   36.9580   31.1280   40.7790 C   0  0  0  0  0  0  0  0  0  0  0  0
   36.8940   30.1090   39.7950 C   0  0  0  0  0  0  0  0  0  0  0  0
   37.1450   30.4920   38.5160 C   0  0  0  0  0  0  0  0  0  0  0  0
   37.4430   31.7770   38.1870 N   0  0  0  0  0  0  0  0  0  0  0  0
   37.4950   32.7300   39.1710 C   0  0  0  0  0  0  0  0  0  0  0  0
   37.2560   32.4150   40.4470 N   0  0  0  0  0  0  0  0  0  0  0  0
   36.7760   30.9410   41.8230 H   0  0  0  0  0  0  0  0  0  0  0  0
   37.7390   33.7010   38.8310 H   0  0  0  0  0  0  0  0  0  0  0  0
   37.0780   29.5450   37.5000 C   0  0  0  0  0  0  0  0  0  0  0  0
   38.0260   28.7400   36.9170 C   0  0  0  0  0  0  0  0  0  0  0  0
   37.7170   27.8880   35.9450 C   0  0  0  0  0  0  0  0  0  0  0  0
   36.3600   27.8450   35.5280 C   0  0  0  0  0  0  0  0  0  0  0  0
   35.5220   29.1250   36.6350 S   0  0  0  0  0  0  0  0  0  0  0  0
   39.0260   28.5870   36.9620 H   0  0  0  0  0  0  0  0  0  0  0  0
   38.0390   27.1430   35.2580 H   0  0  0  0  0  0  0  0  0  0  0  0
   35.5550   27.4350   34.8830 H   0  0  0  0  0  0  0  0  0  0  0  0
   36.6330   28.8190   40.2680 C   0  0  0  0  0  0  0  0  0  0  0  0
   35.4210   28.5280   40.5530 O   0  0  0  0  0  0  0  0  0  0  0  0
   37.1200   27.5210   40.6500 C   0  0  0  0  0  0  0  0  0  0  0  0
   36.5590   26.6000   39.7490 C   0  0  0  0  0  0  0  0  0  0  0  0
   35.8810   26.7520   38.9070 H   0  0  0  0  0  0  0  0  0  0  0  0
   36.8210   25.2260   39.8150 C   0  0  0  0  0  3  0  0  0  0  0  0
   37.6710   24.7520   40.8170 C   0  0  0  0  0  3  0  0  0  0  0  0
   38.2090   25.6730   41.6880 C   0  0  0  0  0  0  0  0  0  0  0  0
   39.0640   25.3480   42.7180 C   0  0  0  0  0  3  0  0  0  0  0  0
   39.6140   26.2540   43.6000 C   0  0  0  0  0  3  0  0  0  0  0  0
   39.2970   27.6090   43.4570 C   0  0  0  0  0  3  0  0  0  0  0  0
   38.4470   27.9830   42.4450 C   0  0  0  0  0  3  0  0  0  0  0  0
   37.9380   27.0230   41.6040 C   0  0  0  0  0  0  0  0  0  0  0  0
  1  7  1  0  0  0  0
  2 17  1  0  0  0  0
  2  1  2  0  0  0  0
  3  2  1  0  0  0  0
  4  3  2  0  0  0  0
  4  5  1  0  0  0  0
  5  6  2  0  0  0  0
  6  1  1  0  0  0  0
  8  5  1  0  0  0  0
  9  3  1  0  0  0  0
 10 14  1  0  0  0  0
 10  9  2  0  0  0  0
 11 10  1  0  0  0  0
 12 11  2  0  0  0  0
 12 13  1  0  0  0  0
 13  9  1  0  0  0  0
 15 11  1  0  0  0  0
 16 12  1  0  0  0  0
 17 18  2  0  0  0  0
 17 19  1  0  0  0  0
 19 29  1  0  0  0  0
 20 22  1  0  0  0  0
 20 19  2  0  0  0  0
 21 20  1  0  0  0  0
 22 23  2  0  0  0  0
 23 24  1  0  0  0  0
 24 25  1  0  0  0  0
 25 26  2  0  0  0  0
 27 26  1  0  0  0  0
 28 27  2  0  0  0  0
 29 24  2  0  0  0  0
 29 28  1  0  0  0  0
M  END
>  <minimizedAffinity>
-5.52411795

$$$$
