
 OpenBabel03252509003D

 47 50  0  0  1  0  0  0  0  0999 V2000
   46.8140   34.3940   43.6100 N   0  0  0  0  0  0  0  0  0  0  0  0
   46.3780   35.4750   42.8010 C   0  0  0  0  0  0  0  0  0  0  0  0
   44.8830   35.7100   42.8020 C   0  0  0  0  0  0  0  0  0  0  0  0
   44.2020   35.3840   44.1100 C   0  0  0  0  0  0  0  0  0  0  0  0
   45.1990   34.9920   45.1720 C   0  0  0  0  0  0  0  0  0  0  0  0
   45.9670   33.7860   44.5190 C   0  0  2  0  0  0  0  0  0  0  0  0
   46.8150   36.4050   43.2450 H   0  0  0  0  0  0  0  0  0  0  0  0
   46.7140   35.4590   41.7650 H   0  0  0  0  0  0  0  0  0  0  0  0
   44.4460   35.1790   41.9270 H   0  0  0  0  0  0  0  0  0  0  0  0
   44.6870   36.7890   42.6050 H   0  0  0  0  0  0  0  0  0  0  0  0
   43.5080   36.1880   44.4510 H   0  0  0  0  0  0  0  0  0  0  0  0
   43.5700   34.4870   43.9320 H   0  0  0  0  0  0  0  0  0  0  0  0
   45.9420   35.7540   45.3980 H   0  0  0  0  0  0  0  0  0  0  0  0
   44.6340   34.5870   46.0180 H   0  0  0  0  0  0  0  0  0  0  0  0
   45.1910   33.0870   44.1150 H   0  0  0  0  0  0  0  0  0  0  0  0
   47.8770   33.6250   43.0330 C   0  0  0  0  0  0  0  0  0  0  0  0
   48.4680   33.1020   43.8340 H   0  0  0  0  0  0  0  0  0  0  0  0
   48.5250   34.3130   42.4680 H   0  0  0  0  0  0  0  0  0  0  0  0
   47.2940   32.5710   42.1540 C   0  0  0  0  0  0  0  0  0  0  0  0
   47.4550   31.5350   42.4860 H   0  0  0  0  0  0  0  0  0  0  0  0
   46.1860   32.6910   42.0780 H   0  0  0  0  0  0  0  0  0  0  0  0
   49.2930   32.0880   39.0110 C   0  0  0  0  0  0  0  0  0  0  0  0
   48.8070   31.9220   40.3210 C   0  0  0  0  0  0  0  0  0  0  0  0
   47.8040   32.7480   40.7690 C   0  0  0  0  0  0  0  0  0  0  0  0
   47.3360   33.6780   39.9240 N   0  0  0  0  0  0  0  0  0  0  0  0
   47.8160   33.8210   38.6700 C   0  0  0  0  0  0  0  0  0  0  0  0
   48.7940   33.0290   38.2060 N   0  0  0  0  0  0  0  0  0  0  0  0
   50.0860   31.3720   38.7780 H   0  0  0  0  0  0  0  0  0  0  0  0
   49.1930   31.1630   41.0040 H   0  0  0  0  0  0  0  0  0  0  0  0
   47.4290   34.5810   37.9900 H   0  0  0  0  0  0  0  0  0  0  0  0
   46.6570   33.2730   45.6080 O   0  0  0  0  0  0  0  0  0  0  0  0
   45.4320   31.0240   44.8910 O   0  0  0  0  0  0  0  0  0  0  0  0
   46.1310   31.7380   46.0510 P   0  0  2  0  0  0  0  0  0  0  0  0
   44.8960   31.9790   47.2130 O   0  0  0  0  0  0  0  0  0  0  0  0
   45.3090   32.5540   47.8960 H   0  0  0  0  0  0  0  0  0  0  0  0
   47.3250   30.8360   46.7570 O   0  0  0  0  0  0  0  0  0  0  0  0
   47.8520   29.6410   46.3630 C   0  0  0  0  0  0  0  0  0  0  0  0
   49.0130   29.4230   45.6330 C   0  0  0  0  0  0  0  0  0  0  0  0
   49.5310   30.3320   45.3670 H   0  0  0  0  0  0  0  0  0  0  0  0
   49.3870   28.1230   45.3270 C   0  0  0  0  0  3  0  0  0  0  0  0
   48.6290   27.0630   45.7330 C   0  0  0  0  0  3  0  0  0  0  0  0
   47.4820   27.2440   46.4510 C   0  0  0  0  0  0  0  0  0  0  0  0
   46.7530   26.1460   46.8370 C   0  0  0  0  0  3  0  0  0  0  0  0
   45.5950   26.3050   47.5610 C   0  0  0  0  0  3  0  0  0  0  0  0
   45.1770   27.5780   47.8930 C   0  0  0  0  0  3  0  0  0  0  0  0
   45.9230   28.6460   47.4950 C   0  0  0  0  0  3  0  0  0  0  0  0
   47.0990   28.5460   46.7630 C   0  0  0  0  0  0  0  0  0  0  0  0
  1  6  1  0  0  0  0
  2  3  1  0  0  0  0
  2  7  1  0  0  0  0
  2  1  1  0  0  0  0
  3  4  1  0  0  0  0
  4 11  1  0  0  0  0
  4  5  1  0  0  0  0
  5 13  1  0  0  0  0
  5 14  1  0  0  0  0
  6 15  1  6  0  0  0
  6  5  1  0  0  0  0
  6 31  1  0  0  0  0
  8  2  1  0  0  0  0
  9  3  1  0  0  0  0
 10  3  1  0  0  0  0
 12  4  1  0  0  0  0
 16  1  1  0  0  0  0
 16 17  1  0  0  0  0
 18 16  1  0  0  0  0
 19 20  1  0  0  0  0
 19 16  1  0  0  0  0
 21 19  1  0  0  0  0
 22 23  1  0  0  0  0
 23 24  2  0  0  0  0
 23 29  1  0  0  0  0
 24 19  1  0  0  0  0
 25 24  1  0  0  0  0
 26 25  2  0  0  0  0
 27 26  1  0  0  0  0
 27 22  2  0  0  0  0
 28 22  1  0  0  0  0
 30 26  1  0  0  0  0
 31 33  1  0  0  0  0
 33 32  2  6  0  0  0
 33 36  1  0  0  0  0
 33 34  1  0  0  0  0
 34 35  1  0  0  0  0
 37 36  1  0  0  0  0
 37 47  1  0  0  0  0
 38 37  2  0  0  0  0
 39 38  1  0  0  0  0
 40 38  1  0  0  0  0
 40 41  2  0  0  0  0
 41 42  1  0  0  0  0
 42 47  2  0  0  0  0
 42 43  1  0  0  0  0
 43 44  2  0  0  0  0
 44 45  1  0  0  0  0
 46 45  2  0  0  0  0
 47 46  1  0  0  0  0
M  END
>  <minimizedAffinity>
-4.55191278

>  <minimizedRMSD>
1.01322937

$$$$
