
 OpenBabel03252509273D

 32 35  0  0  1  0  0  0  0  0999 V2000
   46.8420   34.7780   41.9760 C   0  0  1  0  0  0  0  0  0  0  0  0
   48.1790   35.5190   42.0270 C   0  0  0  0  0  0  0  0  0  0  0  0
   47.9930   33.9840   41.7980 C   0  0  2  0  0  0  0  0  0  0  0  0
   46.2050   35.1350   41.1700 H   0  0  0  0  0  0  0  0  0  0  0  0
   48.5010   36.0710   41.1130 H   0  0  0  0  0  0  0  0  0  0  0  0
   48.5720   35.8670   42.9760 H   0  0  0  0  0  0  0  0  0  0  0  0
   48.4790   33.4380   42.6710 H   0  0  0  0  0  0  0  0  0  0  0  0
   44.5720   35.5930   44.8420 C   0  0  0  0  0  0  0  0  0  0  0  0
   45.1940   35.6930   43.5670 C   0  0  0  0  0  0  0  0  0  0  0  0
   46.1760   34.7730   43.3330 C   0  0  0  0  0  0  0  0  0  0  0  0
   46.5260   33.8300   44.2720 N   0  0  0  0  0  0  0  0  0  0  0  0
   45.9130   33.7710   45.4630 C   0  0  0  0  0  0  0  0  0  0  0  0
   44.9270   34.6630   45.7500 N   0  0  0  0  0  0  0  0  0  0  0  0
   43.7800   36.2750   45.1130 H   0  0  0  0  0  0  0  0  0  0  0  0
   46.2030   33.0240   46.1930 H   0  0  0  0  0  0  0  0  0  0  0  0
   44.8320   36.6820   42.6360 N   0  0  0  0  0  0  0  0  0  0  0  0
   45.6530   37.3250   42.5280 H   0  0  0  0  0  0  0  0  0  0  0  0
   43.8870   36.7470   42.1430 H   0  0  0  0  0  0  0  0  0  0  0  0
   48.4180   33.4270   40.4660 C   0  0  0  0  0  0  0  0  0  0  0  0
   49.1290   32.5760   40.6620 H   0  0  0  0  0  0  0  0  0  0  0  0
   48.9600   34.2580   39.9910 H   0  0  0  0  0  0  0  0  0  0  0  0
   47.2950   32.8820   39.7030 C   0  0  0  0  0  0  0  0  0  0  0  0
   47.0420   33.5560   38.4990 C   0  0  0  0  0  0  0  0  0  0  0  0
   47.5430   34.4680   38.1950 H   0  0  0  0  0  0  0  0  0  0  0  0
   46.1030   33.0610   37.6010 C   0  0  0  0  0  3  0  0  0  0  0  0
   45.3800   31.9100   37.8370 C   0  0  0  0  0  3  0  0  0  0  0  0
   45.6140   31.2520   39.0020 C   0  0  0  0  0  0  0  0  0  0  0  0
   44.8790   30.1110   39.3160 C   0  0  0  0  0  3  0  0  0  0  0  0
   45.1130   29.5030   40.5320 C   0  0  0  0  0  3  0  0  0  0  0  0
   46.0470   29.9960   41.4230 C   0  0  0  0  0  3  0  0  0  0  0  0
   46.7630   31.1250   41.0860 C   0  0  0  0  0  3  0  0  0  0  0  0
   46.5300   31.7470   39.8580 C   0  0  0  0  0  0  0  0  0  0  0  0
  1  4  1  6  0  0  0
  1  2  1  0  0  0  0
  1 10  1  0  0  0  0
  2  6  1  0  0  0  0
  3  1  1  0  0  0  0
  3  2  1  0  0  0  0
  3  7  1  1  0  0  0
  5  2  1  0  0  0  0
  8 14  1  0  0  0  0
  8 13  1  0  0  0  0
  9  8  2  0  0  0  0
 10  9  1  0  0  0  0
 10 11  2  0  0  0  0
 11 12  1  0  0  0  0
 12 13  2  0  0  0  0
 12 15  1  0  0  0  0
 16  9  1  0  0  0  0
 17 16  1  0  0  0  0
 18 16  1  0  0  0  0
 19 20  1  0  0  0  0
 19  3  1  0  0  0  0
 21 19  1  0  0  0  0
 22 32  1  0  0  0  0
 22 19  1  0  0  0  0
 23 22  2  0  0  0  0
 24 23  1  0  0  0  0
 25 26  2  0  0  0  0
 25 23  1  0  0  0  0
 26 27  1  0  0  0  0
 27 28  2  0  0  0  0
 27 32  1  0  0  0  0
 28 29  1  0  0  0  0
 29 30  2  0  0  0  0
 31 30  1  0  0  0  0
 32 31  2  0  0  0  0
M  END
>  <minimizedAffinity>
-4.54013968

>  <minimizedRMSD>
1.48298085

$$$$
