
 OpenBabel03252503593D

 36 40  0  0  1  0  0  0  0  0999 V2000
   47.4060   34.8920   42.5680 C   0  0  0  0  0  0  0  0  0  0  0  0
   46.2560   35.5190   42.1120 C   0  0  0  0  0  0  0  0  0  0  0  0
   45.0830   35.2900   42.8100 C   0  0  0  0  0  0  0  0  0  0  0  0
   45.1140   34.4750   43.8920 N   0  0  0  0  0  0  0  0  0  0  0  0
   46.2700   33.8760   44.3080 C   0  0  0  0  0  0  0  0  0  0  0  0
   47.4130   34.0870   43.6430 N   0  0  0  0  0  0  0  0  0  0  0  0
   46.1840   36.1730   41.2590 H   0  0  0  0  0  0  0  0  0  0  0  0
   44.1500   35.7520   42.5030 H   0  0  0  0  0  0  0  0  0  0  0  0
   47.1020   31.8830   45.4250 C   0  0  0  0  0  0  0  0  0  0  0  0
   46.2730   33.0030   45.4770 C   0  0  0  0  0  0  0  0  0  0  0  0
   45.5160   33.2260   46.5970 C   0  0  0  0  0  0  0  0  0  0  0  0
   45.5880   32.3430   47.6480 C   0  0  0  0  0  0  0  0  0  0  0  0
   44.9730   32.3080   48.8480 N   0  0  0  0  0  0  0  0  0  0  0  0
   45.3660   31.2370   49.5500 C   0  0  0  0  0  0  0  0  0  0  0  0
   46.2700   30.5320   48.8010 C   0  0  0  0  0  0  0  0  0  0  0  0
   46.4110   31.2250   47.6040 C   0  0  0  0  0  0  0  0  0  0  0  0
   47.1760   30.9950   46.4780 C   0  0  0  0  0  0  0  0  0  0  0  0
   47.7450   31.6150   44.5790 H   0  0  0  0  0  0  0  0  0  0  0  0
   44.8780   34.0980   46.6220 H   0  0  0  0  0  0  0  0  0  0  0  0
   44.2800   33.0170   49.1980 H   0  0  0  0  0  0  0  0  0  0  0  0
   45.0310   30.9590   50.5510 H   0  0  0  0  0  0  0  0  0  0  0  0
   46.8080   29.6060   49.0350 H   0  0  0  0  0  0  0  0  0  0  0  0
   47.8100   30.1150   46.4720 H   0  0  0  0  0  0  0  0  0  0  0  0
   48.6130   35.1650   41.7950 C   0  0  2  0  0  3  0  0  0  0  0  0
   49.1010   36.3440   41.6390 O   0  0  0  0  0  1  0  0  0  0  0  0
   49.1420   33.9170   41.2520 C   0  0  0  0  0  0  0  0  0  0  0  0
   50.0930   33.1650   41.9500 C   0  0  0  0  0  0  0  0  0  0  0  0
   50.4500   33.5270   42.9240 H   0  0  0  0  0  0  0  0  0  0  0  0
   50.6330   31.9770   41.5050 C   0  0  0  0  0  3  0  0  0  0  0  0
   50.2180   31.4820   40.2920 C   0  0  0  0  0  3  0  0  0  0  0  0
   49.2810   32.1790   39.5570 C   0  0  0  0  0  0  0  0  0  0  0  0
   48.8840   31.6600   38.3420 C   0  0  0  0  0  3  0  0  0  0  0  0
   47.9510   32.3150   37.5620 C   0  0  0  0  0  3  0  0  0  0  0  0
   47.4520   33.4960   38.0660 C   0  0  0  0  0  3  0  0  0  0  0  0
   47.8520   34.0130   39.2800 C   0  0  0  0  0  3  0  0  0  0  0  0
   48.7810   33.3620   40.0600 C   0  0  0  0  0  0  0  0  0  0  0  0
  1  6  1  0  0  0  0
  2  1  2  0  0  0  0
  2  3  1  0  0  0  0
  3  4  2  0  0  0  0
  4  5  1  0  0  0  0
  5 10  1  0  0  0  0
  6  5  2  0  0  0  0
  7  2  1  0  0  0  0
  8  3  1  0  0  0  0
  9 10  2  0  0  0  0
  9 17  1  0  0  0  0
 10 11  1  0  0  0  0
 11 19  1  0  0  0  0
 11 12  2  0  0  0  0
 12 13  1  0  0  0  0
 13 20  1  0  0  0  0
 13 14  1  0  0  0  0
 14 21  1  0  0  0  0
 15 22  1  0  0  0  0
 15 14  2  0  0  0  0
 16 12  1  0  0  0  0
 16 15  1  0  0  0  0
 17 16  2  0  0  0  0
 18  9  1  0  0  0  0
 23 17  1  0  0  0  0
 24 25  1  6  0  0  0
 24  1  1  0  0  0  0
 26 24  1  0  0  0  0
 26 27  1  0  0  0  0
 27 28  1  0  0  0  0
 29 27  2  0  0  0  0
 30 29  1  0  0  0  0
 31 36  1  0  0  0  0
 31 30  2  0  0  0  0
 32 31  1  0  0  0  0
 33 34  1  0  0  0  0
 33 32  2  0  0  0  0
 34 35  2  0  0  0  0
 35 36  1  0  0  0  0
 36 26  2  0  0  0  0
M  END
>  <minimizedAffinity>
-6.86071873

>  <minimizedRMSD>
2.20177341

$$$$
