
 OpenBabel03252504223D

 34 38  0  0  0  0  0  0  0  0999 V2000
   45.7380   33.3230   39.0180 C   0  0  0  0  0  0  0  0  0  0  0  0
   47.0980   33.0650   38.9170 C   0  0  0  0  0  0  0  0  0  0  0  0
   47.9250   33.3110   40.0510 C   0  0  0  0  0  0  0  0  0  0  0  0
   47.2950   33.7910   41.1630 N   0  0  0  0  0  0  0  0  0  0  0  0
   45.9660   34.0270   41.2130 C   0  0  0  0  0  0  0  0  0  0  0  0
   45.1920   33.7950   40.1470 N   0  0  0  0  0  0  0  0  0  0  0  0
   45.4040   34.5330   42.4340 N   0  0  0  0  0  0  0  0  0  0  0  0
   44.5160   35.5300   42.5500 C   0  0  0  0  0  0  0  0  0  0  0  0
   44.2390   35.7010   43.8720 N   0  0  0  0  0  0  0  0  0  0  0  0
   44.9650   34.8040   44.5370 C   0  0  0  0  0  0  0  0  0  0  0  0
   45.1160   34.4870   45.8600 C   0  0  0  0  0  0  0  0  0  0  0  0
   45.9300   33.5150   46.2840 N   0  0  0  0  0  0  0  0  0  0  0  0
   46.6600   32.7790   45.4290 C   0  0  0  0  0  0  0  0  0  0  0  0
   46.5150   33.0860   44.1260 N   0  0  0  0  0  0  0  0  0  0  0  0
   45.7120   34.0500   43.6520 C   0  0  0  0  0  0  0  0  0  0  0  0
   47.5690   32.6870   38.0300 H   0  0  0  0  0  0  0  0  0  0  0  0
   48.9830   33.1310   40.0350 H   0  0  0  0  0  0  0  0  0  0  0  0
   44.1110   36.0810   41.7100 H   0  0  0  0  0  0  0  0  0  0  0  0
   47.3170   31.9950   45.7670 H   0  0  0  0  0  0  0  0  0  0  0  0
   44.4110   35.1770   46.8760 N   0  0  0  0  0  0  0  0  0  0  0  0
   44.7330   35.2390   47.8670 H   0  0  0  0  0  0  0  0  0  0  0  0
   43.5000   35.6630   46.6210 H   0  0  0  0  0  0  0  0  0  0  0  0
   44.8080   32.9700   37.5180 S   0  0  0  0  0  0  0  0  0  0  0  0
   43.1570   32.4010   37.9160 C   0  0  0  0  0  0  0  0  0  0  0  0
   42.9470   31.0320   37.8410 C   0  0  0  0  0  0  0  0  0  0  0  0
   43.7300   30.3470   37.5600 H   0  0  0  0  0  0  0  0  0  0  0  0
   41.6800   30.5200   38.1390 C   0  0  0  0  0  0  0  0  0  0  0  0
   40.7300   31.4340   38.4870 C   0  0  0  0  0  0  0  0  0  0  0  0
   40.8780   32.8050   38.5800 C   0  0  0  0  0  0  0  0  0  0  0  0
   39.8390   33.6380   38.9450 C   0  0  0  0  0  0  0  0  0  0  0  0
   40.1480   34.9890   38.9910 C   0  0  0  0  0  0  0  0  0  0  0  0
   41.3940   35.5100   38.7000 C   0  0  0  0  0  0  0  0  0  0  0  0
   42.4120   34.6540   38.3370 C   0  0  0  0  0  0  0  0  0  0  0  0
   42.1510   33.2880   38.2770 C   0  0  0  0  0  0  0  0  0  0  0  0
  1  6  1  0  0  0  0
  2  1  2  0  0  0  0
  2  3  1  0  0  0  0
  3  4  2  0  0  0  0
  4  5  1  0  0  0  0
  5  7  1  0  0  0  0
  6  5  2  0  0  0  0
  7  8  1  0  0  0  0
  7 15  1  0  0  0  0
  8  9  2  0  0  0  0
  9 10  1  0  0  0  0
 10 11  1  0  0  0  0
 11 12  2  0  0  0  0
 11 20  1  0  0  0  0
 13 19  1  0  0  0  0
 13 12  1  0  0  0  0
 14 13  2  0  0  0  0
 15 14  1  0  0  0  0
 15 10  2  0  0  0  0
 16  2  1  0  0  0  0
 17  3  1  0  0  0  0
 18  8  1  0  0  0  0
 20 21  1  0  0  0  0
 22 20  1  0  0  0  0
 23 24  1  0  0  0  0
 23  1  1  0  0  0  0
 24 34  1  0  0  0  0
 25 24  2  0  0  0  0
 25 27  1  0  0  0  0
 26 25  1  0  0  0  0
 27 28  2  0  0  0  0
 28 29  1  0  0  0  0
 29 30  1  0  0  0  0
 30 31  2  0  0  0  0
 32 31  1  0  0  0  0
 33 32  2  0  0  0  0
 34 33  1  0  0  0  0
 34 29  2  0  0  0  0
M  END
>  <minimizedAffinity>
-6.84045219

>  <minimizedRMSD>
2.49168086

$$$$
