
 OpenBabel03252509273D

 32 35  0  0  1  0  0  0  0  0999 V2000
   36.2290   29.8800   40.8020 C   0  0  1  0  0  0  0  0  0  0  0  0
   35.0810   28.8880   40.6110 C   0  0  0  0  0  0  0  0  0  0  0  0
   36.5220   28.5340   41.1010 C   0  0  2  0  0  0  0  0  0  0  0  0
   35.9940   30.6420   41.5410 H   0  0  0  0  0  0  0  0  0  0  0  0
   34.3080   28.8270   41.4140 H   0  0  0  0  0  0  0  0  0  0  0  0
   34.7760   28.5940   39.6130 H   0  0  0  0  0  0  0  0  0  0  0  0
   36.9950   27.8430   40.3300 H   0  0  0  0  0  0  0  0  0  0  0  0
   37.5170   32.1880   38.1490 C   0  0  0  0  0  0  0  0  0  0  0  0
   37.0360   31.7520   39.4140 C   0  0  0  0  0  0  0  0  0  0  0  0
   36.6930   30.4310   39.4740 C   0  0  0  0  0  0  0  0  0  0  0  0
   36.8080   29.6010   38.3820 N   0  0  0  0  0  0  0  0  0  0  0  0
   37.2670   30.0550   37.2060 C   0  0  0  0  0  0  0  0  0  0  0  0
   37.6240   31.3620   37.0890 N   0  0  0  0  0  0  0  0  0  0  0  0
   37.8190   33.2150   38.0090 H   0  0  0  0  0  0  0  0  0  0  0  0
   37.3490   29.3880   36.3550 H   0  0  0  0  0  0  0  0  0  0  0  0
   36.9070   32.6280   40.5060 N   0  0  0  0  0  0  0  0  0  0  0  0
   35.8830   32.7210   40.7120 H   0  0  0  0  0  0  0  0  0  0  0  0
   37.7170   33.1010   41.0150 H   0  0  0  0  0  0  0  0  0  0  0  0
   36.6650   28.0090   42.5050 C   0  0  0  0  0  0  0  0  0  0  0  0
   35.6310   27.8030   42.9010 H   0  0  0  0  0  0  0  0  0  0  0  0
   37.1110   28.8480   43.0580 H   0  0  0  0  0  0  0  0  0  0  0  0
   37.4050   26.7470   42.5590 C   0  0  0  0  0  0  0  0  0  0  0  0
   36.6760   25.6380   42.1090 C   0  0  0  0  0  0  0  0  0  0  0  0
   35.6230   25.6650   41.8490 H   0  0  0  0  0  0  0  0  0  0  0  0
   37.2940   24.4010   41.9640 C   0  0  0  0  0  3  0  0  0  0  0  0
   38.6290   24.1990   42.2500 C   0  0  0  0  0  3  0  0  0  0  0  0
   39.3440   25.2660   42.6910 C   0  0  0  0  0  0  0  0  0  0  0  0
   40.6830   25.1080   43.0420 C   0  0  0  0  0  3  0  0  0  0  0  0
   41.3580   26.2070   43.5330 C   0  0  0  0  0  3  0  0  0  0  0  0
   40.7410   27.4350   43.6770 C   0  0  0  0  0  3  0  0  0  0  0  0
   39.4150   27.5630   43.3190 C   0  0  0  0  0  3  0  0  0  0  0  0
   38.7250   26.4560   42.8230 C   0  0  0  0  0  0  0  0  0  0  0  0
  1  3  1  0  0  0  0
  1  4  1  1  0  0  0
  2  1  1  0  0  0  0
  2  3  1  0  0  0  0
  2  5  1  0  0  0  0
  3  7  1  6  0  0  0
  3 19  1  0  0  0  0
  6  2  1  0  0  0  0
  8  9  1  0  0  0  0
  9 10  2  0  0  0  0
  9 16  1  0  0  0  0
 10  1  1  0  0  0  0
 11 10  1  0  0  0  0
 12 11  2  0  0  0  0
 13 12  1  0  0  0  0
 13  8  2  0  0  0  0
 14  8  1  0  0  0  0
 15 12  1  0  0  0  0
 16 17  1  0  0  0  0
 16 18  1  0  0  0  0
 19 22  1  0  0  0  0
 19 20  1  0  0  0  0
 19 21  1  0  0  0  0
 22 32  1  0  0  0  0
 23 22  2  0  0  0  0
 24 23  1  0  0  0  0
 25 23  1  0  0  0  0
 25 26  2  0  0  0  0
 26 27  1  0  0  0  0
 27 32  2  0  0  0  0
 27 28  1  0  0  0  0
 28 29  2  0  0  0  0
 29 30  1  0  0  0  0
 31 30  2  0  0  0  0
 32 31  1  0  0  0  0
M  END
>  <minimizedAffinity>
-6.52038574

$$$$

 OpenBabel03252509273D

 32 35  0  0  1  0  0  0  0  0999 V2000
   37.5740   32.0110   39.4390 C   0  0  1  0  0  0  0  0  0  0  0  0
   37.1040   31.2440   38.2030 C   0  0  0  0  0  0  0  0  0  0  0  0
   37.4800   30.6120   39.5810 C   0  0  2  0  0  0  0  0  0  0  0  0
   36.8290   32.7210   39.7900 H   0  0  0  0  0  0  0  0  0  0  0  0
   36.0090   31.2270   37.9870 H   0  0  0  0  0  0  0  0  0  0  0  0
   37.7720   31.1070   37.3590 H   0  0  0  0  0  0  0  0  0  0  0  0
   38.3830   29.9370   39.4230 H   0  0  0  0  0  0  0  0  0  0  0  0
   40.7170   34.0000   39.8810 C   0  0  0  0  0  0  0  0  0  0  0  0
   39.4010   33.5180   40.1260 C   0  0  0  0  0  0  0  0  0  0  0  0
   38.9410   32.6140   39.2120 C   0  0  0  0  0  0  0  0  0  0  0  0
   39.7050   32.2140   38.1390 N   0  0  0  0  0  0  0  0  0  0  0  0
   40.9410   32.6950   37.9450 C   0  0  0  0  0  0  0  0  0  0  0  0
   41.4520   33.5980   38.8250 N   0  0  0  0  0  0  0  0  0  0  0  0
   41.1660   34.7130   40.5550 H   0  0  0  0  0  0  0  0  0  0  0  0
   41.5290   32.3710   37.0930 H   0  0  0  0  0  0  0  0  0  0  0  0
   38.6350   33.9620   41.2180 N   0  0  0  0  0  0  0  0  0  0  0  0
   37.8240   34.5010   40.8310 H   0  0  0  0  0  0  0  0  0  0  0  0
   38.8600   33.7740   42.2450 H   0  0  0  0  0  0  0  0  0  0  0  0
   36.3820   29.9290   40.3520 C   0  0  0  0  0  0  0  0  0  0  0  0
   35.7290   29.3880   39.6110 H   0  0  0  0  0  0  0  0  0  0  0  0
   35.8190   30.7580   40.8030 H   0  0  0  0  0  0  0  0  0  0  0  0
   36.8950   28.9260   41.2870 C   0  0  0  0  0  0  0  0  0  0  0  0
   37.3160   29.4530   42.5160 C   0  0  0  0  0  0  0  0  0  0  0  0
   37.3750   30.5130   42.7360 H   0  0  0  0  0  0  0  0  0  0  0  0
   37.6880   28.6060   43.5540 C   0  0  0  0  0  3  0  0  0  0  0  0
   37.6660   27.2310   43.4360 C   0  0  0  0  0  3  0  0  0  0  0  0
   37.2650   26.7100   42.2490 C   0  0  0  0  0  0  0  0  0  0  0  0
   37.2710   25.3300   42.0580 C   0  0  0  0  0  3  0  0  0  0  0  0
   36.9030   24.8460   40.8190 C   0  0  0  0  0  3  0  0  0  0  0  0
   36.5340   25.6890   39.7890 C   0  0  0  0  0  3  0  0  0  0  0  0
   36.5340   27.0510   40.0070 C   0  0  0  0  0  3  0  0  0  0  0  0
   36.9070   27.5490   41.2560 C   0  0  0  0  0  0  0  0  0  0  0  0
  1  3  1  0  0  0  0
  1  4  1  1  0  0  0
  2  1  1  0  0  0  0
  2  3  1  0  0  0  0
  3  7  1  1  0  0  0
  3 19  1  0  0  0  0
  5  2  1  0  0  0  0
  6  2  1  0  0  0  0
  8  9  1  0  0  0  0
  8 14  1  0  0  0  0
  9 16  1  0  0  0  0
 10  1  1  0  0  0  0
 10  9  2  0  0  0  0
 11 10  1  0  0  0  0
 12 11  2  0  0  0  0
 12 13  1  0  0  0  0
 13  8  2  0  0  0  0
 15 12  1  0  0  0  0
 16 18  1  0  0  0  0
 17 16  1  0  0  0  0
 19 21  1  0  0  0  0
 19 22  1  0  0  0  0
 20 19  1  0  0  0  0
 22 23  1  0  0  0  0
 23 24  1  0  0  0  0
 23 25  2  0  0  0  0
 26 25  1  0  0  0  0
 27 26  2  0  0  0  0
 28 27  1  0  0  0  0
 29 28  2  0  0  0  0
 30 31  2  0  0  0  0
 30 29  1  0  0  0  0
 31 32  1  0  0  0  0
 32 22  2  0  0  0  0
 32 27  1  0  0  0  0
M  END
>  <minimizedAffinity>
-6.40301418

$$$$

 OpenBabel03252509273D

 32 35  0  0  1  0  0  0  0  0999 V2000
   37.1150   26.6900   42.3110 C   0  0  1  0  0  0  0  0  0  0  0  0
   36.3580   27.4130   43.4250 C   0  0  0  0  0  0  0  0  0  0  0  0
   36.8280   28.0500   42.0780 C   0  0  2  0  0  0  0  0  0  0  0  0
   36.5470   25.8570   41.9020 H   0  0  0  0  0  0  0  0  0  0  0  0
   35.2540   27.2610   43.4860 H   0  0  0  0  0  0  0  0  0  0  0  0
   36.8670   27.6840   44.3430 H   0  0  0  0  0  0  0  0  0  0  0  0
   37.5830   28.8660   42.3200 H   0  0  0  0  0  0  0  0  0  0  0  0
   40.2320   24.7500   43.0530 C   0  0  0  0  0  0  0  0  0  0  0  0
   38.8880   25.0130   42.6700 C   0  0  0  0  0  0  0  0  0  0  0  0
   38.5110   26.3230   42.7580 C   0  0  0  0  0  0  0  0  0  0  0  0
   39.3790   27.3010   43.1900 N   0  0  0  0  0  0  0  0  0  0  0  0
   40.6390   27.0070   43.5420 C   0  0  0  0  0  0  0  0  0  0  0  0
   41.0690   25.7190   43.4730 N   0  0  0  0  0  0  0  0  0  0  0  0
   40.6200   23.7440   43.0090 H   0  0  0  0  0  0  0  0  0  0  0  0
   41.3090   27.7890   43.8830 H   0  0  0  0  0  0  0  0  0  0  0  0
   38.0170   23.9910   42.2550 N   0  0  0  0  0  0  0  0  0  0  0  0
   37.2640   23.9090   42.9800 H   0  0  0  0  0  0  0  0  0  0  0  0
   38.1230   23.4160   41.3620 H   0  0  0  0  0  0  0  0  0  0  0  0
   35.7610   28.5200   41.1250 C   0  0  0  0  0  0  0  0  0  0  0  0
   34.8800   28.8590   41.7390 H   0  0  0  0  0  0  0  0  0  0  0  0
   35.4910   27.6160   40.5610 H   0  0  0  0  0  0  0  0  0  0  0  0
   36.1930   29.6650   40.3220 C   0  0  0  0  0  0  0  0  0  0  0  0
   36.5310   30.7970   41.0770 C   0  0  0  0  0  0  0  0  0  0  0  0
   36.3850   30.8810   42.1480 H   0  0  0  0  0  0  0  0  0  0  0  0
   37.0970   31.9080   40.4630 C   0  0  0  0  0  3  0  0  0  0  0  0
   37.3500   31.9610   39.1070 C   0  0  0  0  0  3  0  0  0  0  0  0
   37.0220   30.8730   38.3650 C   0  0  0  0  0  0  0  0  0  0  0  0
   37.2090   30.8900   36.9850 C   0  0  0  0  0  3  0  0  0  0  0  0
   36.8150   29.7800   36.2640 C   0  0  0  0  0  3  0  0  0  0  0  0
   36.2530   28.6770   36.8770 C   0  0  0  0  0  3  0  0  0  0  0  0
   36.0810   28.6860   38.2450 C   0  0  0  0  0  3  0  0  0  0  0  0
   36.4760   29.8040   38.9810 C   0  0  0  0  0  0  0  0  0  0  0  0
  1  4  1  6  0  0  0
  1 10  1  0  0  0  0
  1  2  1  0  0  0  0
  2  5  1  0  0  0  0
  2  6  1  0  0  0  0
  3  1  1  0  0  0  0
  3  7  1  1  0  0  0
  3  2  1  0  0  0  0
  8 13  1  0  0  0  0
  9 10  1  0  0  0  0
  9  8  2  0  0  0  0
 10 11  2  0  0  0  0
 11 12  1  0  0  0  0
 12 15  1  0  0  0  0
 13 12  2  0  0  0  0
 14  8  1  0  0  0  0
 16  9  1  0  0  0  0
 16 17  1  0  0  0  0
 18 16  1  0  0  0  0
 19 20  1  0  0  0  0
 19  3  1  0  0  0  0
 21 19  1  0  0  0  0
 22 23  1  0  0  0  0
 22 19  1  0  0  0  0
 23 24  1  0  0  0  0
 25 23  2  0  0  0  0
 26 25  1  0  0  0  0
 27 32  1  0  0  0  0
 27 26  2  0  0  0  0
 28 27  1  0  0  0  0
 29 30  1  0  0  0  0
 29 28  2  0  0  0  0
 30 31  2  0  0  0  0
 31 32  1  0  0  0  0
 32 22  2  0  0  0  0
M  END
>  <minimizedAffinity>
-6.35521746

$$$$

 OpenBabel03252509273D

 32 35  0  0  1  0  0  0  0  0999 V2000
   37.3180   31.6450   38.7140 C   0  0  1  0  0  0  0  0  0  0  0  0
   37.0690   30.8470   37.4350 C   0  0  0  0  0  0  0  0  0  0  0  0
   37.2260   30.2470   38.8690 C   0  0  2  0  0  0  0  0  0  0  0  0
   36.5150   32.3470   38.9250 H   0  0  0  0  0  0  0  0  0  0  0  0
   36.0230   30.8050   37.0450 H   0  0  0  0  0  0  0  0  0  0  0  0
   37.8670   30.7090   36.7140 H   0  0  0  0  0  0  0  0  0  0  0  0
   38.1530   29.5870   38.8730 H   0  0  0  0  0  0  0  0  0  0  0  0
   40.3350   33.6570   39.6510 C   0  0  0  0  0  0  0  0  0  0  0  0
   39.0060   33.1530   39.6940 C   0  0  0  0  0  0  0  0  0  0  0  0
   38.6950   32.2700   38.7000 C   0  0  0  0  0  0  0  0  0  0  0  0
   39.6080   31.9100   37.7360 N   0  0  0  0  0  0  0  0  0  0  0  0
   40.8520   32.4110   37.7330 C   0  0  0  0  0  0  0  0  0  0  0  0
   41.2190   33.2940   38.7000 N   0  0  0  0  0  0  0  0  0  0  0  0
   40.6740   34.3560   40.4010 H   0  0  0  0  0  0  0  0  0  0  0  0
   41.5590   32.1190   36.9640 H   0  0  0  0  0  0  0  0  0  0  0  0
   38.0870   33.5570   40.6780 N   0  0  0  0  0  0  0  0  0  0  0  0
   37.3300   34.0980   40.1940 H   0  0  0  0  0  0  0  0  0  0  0  0
   38.1670   33.3430   41.7210 H   0  0  0  0  0  0  0  0  0  0  0  0
   36.0280   29.5570   39.4660 C   0  0  0  0  0  0  0  0  0  0  0  0
   35.2870   29.3810   38.6360 H   0  0  0  0  0  0  0  0  0  0  0  0
   35.6210   30.2950   40.1720 H   0  0  0  0  0  0  0  0  0  0  0  0
   36.3600   28.2490   40.0320 C   0  0  0  0  0  0  0  0  0  0  0  0
   36.1590   27.1770   39.1490 C   0  0  0  0  0  0  0  0  0  0  0  0
   35.6930   27.2700   38.1740 H   0  0  0  0  0  0  0  0  0  0  0  0
   36.5680   25.8950   39.4960 C   0  0  0  0  0  3  0  0  0  0  0  0
   37.1790   25.6090   40.7000 C   0  0  0  0  0  3  0  0  0  0  0  0
   37.3740   26.6380   41.5640 C   0  0  0  0  0  0  0  0  0  0  0  0
   37.9410   26.3990   42.8140 C   0  0  0  0  0  3  0  0  0  0  0  0
   38.0750   27.4650   43.6800 C   0  0  0  0  0  3  0  0  0  0  0  0
   37.6670   28.7380   43.3330 C   0  0  0  0  0  3  0  0  0  0  0  0
   37.1110   28.9480   42.0880 C   0  0  0  0  0  3  0  0  0  0  0  0
   36.9710   27.8740   41.2080 C   0  0  0  0  0  0  0  0  0  0  0  0
  1  3  1  0  0  0  0
  1  4  1  1  0  0  0
  2  1  1  0  0  0  0
  2  3  1  0  0  0  0
  3  7  1  1  0  0  0
  3 19  1  0  0  0  0
  5  2  1  0  0  0  0
  6  2  1  0  0  0  0
  8  9  1  0  0  0  0
  8 14  1  0  0  0  0
  9 16  1  0  0  0  0
 10  1  1  0  0  0  0
 10  9  2  0  0  0  0
 11 10  1  0  0  0  0
 12 11  2  0  0  0  0
 12 13  1  0  0  0  0
 13  8  2  0  0  0  0
 15 12  1  0  0  0  0
 16 18  1  0  0  0  0
 17 16  1  0  0  0  0
 19 22  1  0  0  0  0
 19 21  1  0  0  0  0
 20 19  1  0  0  0  0
 22 32  1  0  0  0  0
 23 25  1  0  0  0  0
 23 22  2  0  0  0  0
 24 23  1  0  0  0  0
 25 26  2  0  0  0  0
 26 27  1  0  0  0  0
 27 28  1  0  0  0  0
 28 29  2  0  0  0  0
 30 29  1  0  0  0  0
 31 30  2  0  0  0  0
 32 27  2  0  0  0  0
 32 31  1  0  0  0  0
M  END
>  <minimizedAffinity>
-6.05500555

$$$$

 OpenBabel03252509273D

 32 35  0  0  1  0  0  0  0  0999 V2000
   35.3730   29.1370   37.5250 C   0  0  1  0  0  0  0  0  0  0  0  0
   35.1020   27.8140   38.2400 C   0  0  0  0  0  0  0  0  0  0  0  0
   34.0250   28.8710   37.8390 C   0  0  2  0  0  0  0  0  0  0  0  0
   35.8220   28.9910   36.5450 H   0  0  0  0  0  0  0  0  0  0  0  0
   35.0710   26.8860   37.6200 H   0  0  0  0  0  0  0  0  0  0  0  0
   35.3630   27.6960   39.2860 H   0  0  0  0  0  0  0  0  0  0  0  0
   33.5480   29.2670   38.7940 H   0  0  0  0  0  0  0  0  0  0  0  0
   37.7230   31.7930   38.7310 C   0  0  0  0  0  0  0  0  0  0  0  0
   37.0840   30.8860   37.8420 C   0  0  0  0  0  0  0  0  0  0  0  0
   36.1380   30.0870   38.4190 C   0  0  0  0  0  0  0  0  0  0  0  0
   35.8410   30.1650   39.7600 N   0  0  0  0  0  0  0  0  0  0  0  0
   36.4700   31.0360   40.5630 C   0  0  0  0  0  0  0  0  0  0  0  0
   37.4200   31.8580   40.0430 N   0  0  0  0  0  0  0  0  0  0  0  0
   38.4800   32.4690   38.3630 H   0  0  0  0  0  0  0  0  0  0  0  0
   36.2260   31.0830   41.6190 H   0  0  0  0  0  0  0  0  0  0  0  0
   37.4240   30.8110   36.4800 N   0  0  0  0  0  0  0  0  0  0  0  0
   37.8640   29.8730   36.3190 H   0  0  0  0  0  0  0  0  0  0  0  0
   37.2570   31.5820   35.7600 H   0  0  0  0  0  0  0  0  0  0  0  0
   33.0010   28.4620   36.8140 C   0  0  0  0  0  0  0  0  0  0  0  0
   32.2530   27.7940   37.3260 H   0  0  0  0  0  0  0  0  0  0  0  0
   33.5760   27.8770   36.0830 H   0  0  0  0  0  0  0  0  0  0  0  0
   32.2610   29.6030   36.2740 C   0  0  0  0  0  0  0  0  0  0  0  0
   32.6290   29.9570   34.9690 C   0  0  0  0  0  0  0  0  0  0  0  0
   33.4610   29.5170   34.4300 H   0  0  0  0  0  0  0  0  0  0  0  0
   31.9130   30.9250   34.2740 C   0  0  0  0  0  3  0  0  0  0  0  0
   30.8260   31.5790   34.8170 C   0  0  0  0  0  3  0  0  0  0  0  0
   30.4630   31.2480   36.0820 C   0  0  0  0  0  0  0  0  0  0  0  0
   29.4040   31.9110   36.6980 C   0  0  0  0  0  3  0  0  0  0  0  0
   29.1020   31.5770   38.0030 C   0  0  0  0  0  3  0  0  0  0  0  0
   29.8150   30.6160   38.6910 C   0  0  0  0  0  3  0  0  0  0  0  0
   30.8570   29.9720   38.0560 C   0  0  0  0  0  3  0  0  0  0  0  0
   31.1700   30.3050   36.7380 C   0  0  0  0  0  0  0  0  0  0  0  0
  1  4  1  6  0  0  0
  1  3  1  0  0  0  0
  1  2  1  0  0  0  0
  1 10  1  0  0  0  0
  2  6  1  0  0  0  0
  3  2  1  0  0  0  0
  3  7  1  1  0  0  0
  5  2  1  0  0  0  0
  8 13  1  0  0  0  0
  9 10  1  0  0  0  0
  9  8  2  0  0  0  0
 10 11  2  0  0  0  0
 11 12  1  0  0  0  0
 12 15  1  0  0  0  0
 13 12  2  0  0  0  0
 14  8  1  0  0  0  0
 16  9  1  0  0  0  0
 17 16  1  0  0  0  0
 18 16  1  0  0  0  0
 19 20  1  0  0  0  0
 19  3  1  0  0  0  0
 21 19  1  0  0  0  0
 22 32  1  0  0  0  0
 22 19  1  0  0  0  0
 23 22  2  0  0  0  0
 24 23  1  0  0  0  0
 25 26  2  0  0  0  0
 25 23  1  0  0  0  0
 26 27  1  0  0  0  0
 27 28  2  0  0  0  0
 27 32  1  0  0  0  0
 28 29  1  0  0  0  0
 29 30  2  0  0  0  0
 31 30  1  0  0  0  0
 32 31  2  0  0  0  0
M  END
>  <minimizedAffinity>
-5.84766626

$$$$

 OpenBabel03252509273D

 32 35  0  0  1  0  0  0  0  0999 V2000
   39.9820   30.0390   40.7570 C   0  0  1  0  0  0  0  0  0  0  0  0
   41.4850   30.1830   40.9970 C   0  0  0  0  0  0  0  0  0  0  0  0
   40.4240   29.7800   42.0700 C   0  0  2  0  0  0  0  0  0  0  0  0
   39.7540   29.2750   40.0170 H   0  0  0  0  0  0  0  0  0  0  0  0
   42.1440   29.3390   40.6810 H   0  0  0  0  0  0  0  0  0  0  0  0
   41.9370   31.1670   41.0450 H   0  0  0  0  0  0  0  0  0  0  0  0
   40.4110   30.5880   42.8720 H   0  0  0  0  0  0  0  0  0  0  0  0
   37.4610   32.7430   40.1560 C   0  0  0  0  0  0  0  0  0  0  0  0
   37.9890   31.4400   40.3690 C   0  0  0  0  0  0  0  0  0  0  0  0
   39.3500   31.3820   40.4700 C   0  0  0  0  0  0  0  0  0  0  0  0
   40.1350   32.5080   40.3680 N   0  0  0  0  0  0  0  0  0  0  0  0
   39.5940   33.7190   40.1660 C   0  0  0  0  0  0  0  0  0  0  0  0
   38.2430   33.8360   40.0580 N   0  0  0  0  0  0  0  0  0  0  0  0
   36.3940   32.8870   40.0700 H   0  0  0  0  0  0  0  0  0  0  0  0
   40.2270   34.5950   40.0850 H   0  0  0  0  0  0  0  0  0  0  0  0
   37.1650   30.3040   40.4460 N   0  0  0  0  0  0  0  0  0  0  0  0
   37.3780   29.7070   39.6110 H   0  0  0  0  0  0  0  0  0  0  0  0
   36.4580   30.1080   41.2210 H   0  0  0  0  0  0  0  0  0  0  0  0
   40.5210   28.3950   42.6540 C   0  0  0  0  0  0  0  0  0  0  0  0
   41.0210   28.4820   43.6590 H   0  0  0  0  0  0  0  0  0  0  0  0
   41.1820   27.8600   41.9580 H   0  0  0  0  0  0  0  0  0  0  0  0
   39.2080   27.7890   42.8780 C   0  0  0  0  0  0  0  0  0  0  0  0
   38.2830   28.6410   43.4990 C   0  0  0  0  0  0  0  0  0  0  0  0
   38.5280   29.6230   43.8910 H   0  0  0  0  0  0  0  0  0  0  0  0
   36.9560   28.2540   43.6420 C   0  0  0  0  0  3  0  0  0  0  0  0
   36.4840   27.0370   43.1950 C   0  0  0  0  0  3  0  0  0  0  0  0
   37.3710   26.2010   42.5970 C   0  0  0  0  0  0  0  0  0  0  0  0
   36.9600   24.9410   42.1710 C   0  0  0  0  0  3  0  0  0  0  0  0
   37.9070   24.1050   41.6140 C   0  0  0  0  0  3  0  0  0  0  0  0
   39.2250   24.4920   41.4730 C   0  0  0  0  0  3  0  0  0  0  0  0
   39.6040   25.7470   41.9000 C   0  0  0  0  0  3  0  0  0  0  0  0
   38.6530   26.5970   42.4660 C   0  0  0  0  0  0  0  0  0  0  0  0
  1  4  1  6  0  0  0
  1  2  1  0  0  0  0
  1  3  1  0  0  0  0
  2  6  1  0  0  0  0
  2  3  1  0  0  0  0
  3 19  1  0  0  0  0
  3  7  1  1  0  0  0
  5  2  1  0  0  0  0
  8  9  1  0  0  0  0
  9 16  1  0  0  0  0
  9 10  2  0  0  0  0
 10  1  1  0  0  0  0
 11 10  1  0  0  0  0
 12 11  2  0  0  0  0
 13  8  2  0  0  0  0
 13 12  1  0  0  0  0
 14  8  1  0  0  0  0
 15 12  1  0  0  0  0
 16 18  1  0  0  0  0
 17 16  1  0  0  0  0
 19 22  1  0  0  0  0
 19 20  1  0  0  0  0
 21 19  1  0  0  0  0
 22 23  1  0  0  0  0
 23 25  2  0  0  0  0
 23 24  1  0  0  0  0
 26 25  1  0  0  0  0
 27 26  2  0  0  0  0
 28 27  1  0  0  0  0
 29 28  2  0  0  0  0
 30 29  1  0  0  0  0
 30 31  2  0  0  0  0
 31 32  1  0  0  0  0
 32 27  1  0  0  0  0
 32 22  2  0  0  0  0
M  END
>  <minimizedAffinity>
-5.74482918

$$$$

 OpenBabel03252509273D

 32 35  0  0  1  0  0  0  0  0999 V2000
   35.9770   29.6090   38.7700 C   0  0  1  0  0  0  0  0  0  0  0  0
   36.0250   29.2550   37.2840 C   0  0  0  0  0  0  0  0  0  0  0  0
   36.5650   28.3680   38.4510 C   0  0  2  0  0  0  0  0  0  0  0  0
   34.9590   29.7400   39.1290 H   0  0  0  0  0  0  0  0  0  0  0  0
   35.0930   28.8580   36.8150 H   0  0  0  0  0  0  0  0  0  0  0  0
   36.7310   29.7510   36.6270 H   0  0  0  0  0  0  0  0  0  0  0  0
   37.6900   28.2600   38.3190 H   0  0  0  0  0  0  0  0  0  0  0  0
   37.6980   32.4300   40.5350 C   0  0  0  0  0  0  0  0  0  0  0  0
   36.7670   31.3820   40.2920 C   0  0  0  0  0  0  0  0  0  0  0  0
   36.8930   30.7730   39.0760 C   0  0  0  0  0  0  0  0  0  0  0  0
   37.8500   31.1580   38.1660 N   0  0  0  0  0  0  0  0  0  0  0  0
   38.7080   32.1530   38.4370 C   0  0  0  0  0  0  0  0  0  0  0  0
   38.6300   32.7950   39.6330 N   0  0  0  0  0  0  0  0  0  0  0  0
   37.6780   32.9650   41.4730 H   0  0  0  0  0  0  0  0  0  0  0  0
   39.4550   32.4460   37.7070 H   0  0  0  0  0  0  0  0  0  0  0  0
   35.7840   31.0250   41.2320 N   0  0  0  0  0  0  0  0  0  0  0  0
   34.8520   31.2680   40.8160 H   0  0  0  0  0  0  0  0  0  0  0  0
   35.9750   30.5890   42.1870 H   0  0  0  0  0  0  0  0  0  0  0  0
   35.8850   27.0450   38.6870 C   0  0  0  0  0  0  0  0  0  0  0  0
   35.9410   26.4570   37.7290 H   0  0  0  0  0  0  0  0  0  0  0  0
   34.8400   27.3170   38.8920 H   0  0  0  0  0  0  0  0  0  0  0  0
   36.5510   26.2500   39.7200 C   0  0  0  0  0  0  0  0  0  0  0  0
   36.7410   26.9310   40.9310 C   0  0  0  0  0  0  0  0  0  0  0  0
   36.5280   27.9850   41.0770 H   0  0  0  0  0  0  0  0  0  0  0  0
   37.2250   26.2590   42.0480 C   0  0  0  0  0  3  0  0  0  0  0  0
   37.5410   24.9160   42.0280 C   0  0  0  0  0  3  0  0  0  0  0  0
   37.3670   24.2480   40.8590 C   0  0  0  0  0  0  0  0  0  0  0  0
   37.7160   22.9030   40.7680 C   0  0  0  0  0  3  0  0  0  0  0  0
   37.5690   22.2760   39.5470 C   0  0  0  0  0  3  0  0  0  0  0  0
   37.0880   22.9460   38.4400 C   0  0  0  0  0  3  0  0  0  0  0  0
   36.7460   24.2770   38.5590 C   0  0  0  0  0  3  0  0  0  0  0  0
   36.8940   24.9180   39.7890 C   0  0  0  0  0  0  0  0  0  0  0  0
  1 10  1  0  0  0  0
  1  4  1  1  0  0  0
  2  3  1  0  0  0  0
  2  1  1  0  0  0  0
  3  7  1  1  0  0  0
  3 19  1  0  0  0  0
  3  1  1  0  0  0  0
  5  2  1  0  0  0  0
  6  2  1  0  0  0  0
  8 14  1  0  0  0  0
  9  8  1  0  0  0  0
  9 16  1  0  0  0  0
 10  9  2  0  0  0  0
 11 12  2  0  0  0  0
 11 10  1  0  0  0  0
 12 13  1  0  0  0  0
 13  8  2  0  0  0  0
 15 12  1  0  0  0  0
 16 18  1  0  0  0  0
 17 16  1  0  0  0  0
 19 21  1  0  0  0  0
 19 22  1  0  0  0  0
 20 19  1  0  0  0  0
 22 32  2  0  0  0  0
 22 23  1  0  0  0  0
 23 24  1  0  0  0  0
 23 25  2  0  0  0  0
 26 25  1  0  0  0  0
 27 26  2  0  0  0  0
 28 27  1  0  0  0  0
 29 28  2  0  0  0  0
 30 31  2  0  0  0  0
 30 29  1  0  0  0  0
 31 32  1  0  0  0  0
 32 27  1  0  0  0  0
M  END
>  <minimizedAffinity>
-5.73282528

$$$$

 OpenBabel03252509273D

 32 35  0  0  1  0  0  0  0  0999 V2000
   37.4530   30.3310   40.3910 C   0  0  1  0  0  0  0  0  0  0  0  0
   36.2230   30.9170   41.0830 C   0  0  0  0  0  0  0  0  0  0  0  0
   36.8090   29.4880   41.3190 C   0  0  2  0  0  0  0  0  0  0  0  0
   38.3540   30.9060   40.5960 H   0  0  0  0  0  0  0  0  0  0  0  0
   36.3910   31.6150   41.9370 H   0  0  0  0  0  0  0  0  0  0  0  0
   35.2900   31.0220   40.5400 H   0  0  0  0  0  0  0  0  0  0  0  0
   36.0270   28.7290   40.9890 H   0  0  0  0  0  0  0  0  0  0  0  0
   37.3160   30.7900   36.6760 C   0  0  0  0  0  0  0  0  0  0  0  0
   37.5410   31.0940   38.0470 C   0  0  0  0  0  0  0  0  0  0  0  0
   37.1880   30.1040   38.9200 C   0  0  0  0  0  0  0  0  0  0  0  0
   36.6540   28.9110   38.4880 N   0  0  0  0  0  0  0  0  0  0  0  0
   36.4590   28.6670   37.1840 C   0  0  0  0  0  0  0  0  0  0  0  0
   36.7930   29.6160   36.2690 N   0  0  0  0  0  0  0  0  0  0  0  0
   37.5710   31.5100   35.9130 H   0  0  0  0  0  0  0  0  0  0  0  0
   36.0340   27.7230   36.8610 H   0  0  0  0  0  0  0  0  0  0  0  0
   38.0660   32.3310   38.4600 N   0  0  0  0  0  0  0  0  0  0  0  0
   37.3130   32.8270   38.9940 H   0  0  0  0  0  0  0  0  0  0  0  0
   39.0540   32.6790   38.2550 H   0  0  0  0  0  0  0  0  0  0  0  0
   37.3620   29.1840   42.6850 C   0  0  0  0  0  0  0  0  0  0  0  0
   36.5280   28.7460   43.3020 H   0  0  0  0  0  0  0  0  0  0  0  0
   37.6380   30.1700   43.0860 H   0  0  0  0  0  0  0  0  0  0  0  0
   38.4360   28.1900   42.6460 C   0  0  0  0  0  0  0  0  0  0  0  0
   39.7130   28.7190   42.8810 C   0  0  0  0  0  0  0  0  0  0  0  0
   39.9260   29.7790   42.9710 H   0  0  0  0  0  0  0  0  0  0  0  0
   40.8090   27.8760   43.0210 C   0  0  0  0  0  3  0  0  0  0  0  0
   40.7070   26.5030   42.9350 C   0  0  0  0  0  3  0  0  0  0  0  0
   39.4760   25.9790   42.7020 C   0  0  0  0  0  0  0  0  0  0  0  0
   39.3220   24.6020   42.5580 C   0  0  0  0  0  3  0  0  0  0  0  0
   38.0610   24.1180   42.2730 C   0  0  0  0  0  3  0  0  0  0  0  0
   36.9740   24.9580   42.1350 C   0  0  0  0  0  3  0  0  0  0  0  0
   37.1540   26.3160   42.2860 C   0  0  0  0  0  3  0  0  0  0  0  0
   38.4260   26.8150   42.5730 C   0  0  0  0  0  0  0  0  0  0  0  0
  1  4  1  1  0  0  0
  1  2  1  0  0  0  0
  1  3  1  0  0  0  0
  2  3  1  0  0  0  0
  2  5  1  0  0  0  0
  3  7  1  6  0  0  0
  3 19  1  0  0  0  0
  6  2  1  0  0  0  0
  8  9  1  0  0  0  0
  9 16  1  0  0  0  0
  9 10  2  0  0  0  0
 10  1  1  0  0  0  0
 11 10  1  0  0  0  0
 12 11  2  0  0  0  0
 13  8  2  0  0  0  0
 13 12  1  0  0  0  0
 14  8  1  0  0  0  0
 15 12  1  0  0  0  0
 16 17  1  0  0  0  0
 18 16  1  0  0  0  0
 19 21  1  0  0  0  0
 19 20  1  0  0  0  0
 22 19  1  0  0  0  0
 22 23  1  0  0  0  0
 23 24  1  0  0  0  0
 23 25  2  0  0  0  0
 26 25  1  0  0  0  0
 27 26  2  0  0  0  0
 28 27  1  0  0  0  0
 29 28  2  0  0  0  0
 30 29  1  0  0  0  0
 30 31  2  0  0  0  0
 31 32  1  0  0  0  0
 32 22  2  0  0  0  0
 32 27  1  0  0  0  0
M  END
>  <minimizedAffinity>
-5.67441463

$$$$

 OpenBabel03252509273D

 32 35  0  0  1  0  0  0  0  0999 V2000
   37.9520   31.0590   39.2470 C   0  0  1  0  0  0  0  0  0  0  0  0
   37.1250   32.1390   39.9450 C   0  0  0  0  0  0  0  0  0  0  0  0
   37.6130   30.8030   40.5910 C   0  0  2  0  0  0  0  0  0  0  0  0
   38.9170   31.4330   38.9110 H   0  0  0  0  0  0  0  0  0  0  0  0
   37.6630   33.0410   40.3230 H   0  0  0  0  0  0  0  0  0  0  0  0
   36.0730   32.2580   39.7080 H   0  0  0  0  0  0  0  0  0  0  0  0
   36.6940   30.1900   40.8650 H   0  0  0  0  0  0  0  0  0  0  0  0
   36.5920   30.0510   35.9060 C   0  0  0  0  0  0  0  0  0  0  0  0
   37.3400   30.7750   36.8750 C   0  0  0  0  0  0  0  0  0  0  0  0
   37.1460   30.3760   38.1660 C   0  0  0  0  0  0  0  0  0  0  0  0
   36.2850   29.3520   38.4890 N   0  0  0  0  0  0  0  0  0  0  0  0
   35.5980   28.6950   37.5420 C   0  0  0  0  0  0  0  0  0  0  0  0
   35.7530   29.0490   36.2380 N   0  0  0  0  0  0  0  0  0  0  0  0
   36.6860   30.2910   34.8580 H   0  0  0  0  0  0  0  0  0  0  0  0
   34.9220   27.8920   37.8130 H   0  0  0  0  0  0  0  0  0  0  0  0
   38.1940   31.8330   36.5190 N   0  0  0  0  0  0  0  0  0  0  0  0
   37.7830   32.7130   36.9150 H   0  0  0  0  0  0  0  0  0  0  0  0
   39.0910   31.7350   35.9480 H   0  0  0  0  0  0  0  0  0  0  0  0
   38.5960   30.9020   41.7270 C   0  0  0  0  0  0  0  0  0  0  0  0
   38.2110   31.6800   42.4450 H   0  0  0  0  0  0  0  0  0  0  0  0
   39.5170   31.2640   41.2500 H   0  0  0  0  0  0  0  0  0  0  0  0
   38.7160   29.6500   42.4750 C   0  0  0  0  0  0  0  0  0  0  0  0
   37.4870   29.0560   42.7960 C   0  0  0  0  0  0  0  0  0  0  0  0
   36.5220   29.5190   42.6190 H   0  0  0  0  0  0  0  0  0  0  0  0
   37.4450   27.7920   43.3730 C   0  0  0  0  0  3  0  0  0  0  0  0
   38.5850   27.0680   43.6600 C   0  0  0  0  0  3  0  0  0  0  0  0
   39.7810   27.6350   43.3580 C   0  0  0  0  0  0  0  0  0  0  0  0
   40.9640   26.9700   43.6710 C   0  0  0  0  0  3  0  0  0  0  0  0
   42.1580   27.6060   43.3920 C   0  0  0  0  0  3  0  0  0  0  0  0
   42.1960   28.8610   42.8180 C   0  0  0  0  0  3  0  0  0  0  0  0
   41.0090   29.4950   42.5160 C   0  0  0  0  0  3  0  0  0  0  0  0
   39.7980   28.8610   42.7960 C   0  0  0  0  0  0  0  0  0  0  0  0
  1  4  1  6  0  0  0
  1  2  1  0  0  0  0
  1  3  1  0  0  0  0
  2  5  1  0  0  0  0
  2  3  1  0  0  0  0
  3  7  1  1  0  0  0
  3 19  1  0  0  0  0
  6  2  1  0  0  0  0
  8 13  2  0  0  0  0
  8  9  1  0  0  0  0
  9 10  2  0  0  0  0
 10 11  1  0  0  0  0
 10  1  1  0  0  0  0
 12 15  1  0  0  0  0
 12 11  2  0  0  0  0
 13 12  1  0  0  0  0
 14  8  1  0  0  0  0
 16  9  1  0  0  0  0
 16 17  1  0  0  0  0
 18 16  1  0  0  0  0
 19 20  1  0  0  0  0
 19 22  1  0  0  0  0
 21 19  1  0  0  0  0
 22 23  2  0  0  0  0
 22 32  1  0  0  0  0
 23 25  1  0  0  0  0
 24 23  1  0  0  0  0
 25 26  2  0  0  0  0
 27 26  1  0  0  0  0
 27 28  1  0  0  0  0
 29 28  2  0  0  0  0
 30 29  1  0  0  0  0
 31 32  1  0  0  0  0
 31 30  2  0  0  0  0
 32 27  2  0  0  0  0
M  END
>  <minimizedAffinity>
-5.6229825

$$$$
