
 OpenBabel03252509003D

 47 50  0  0  1  0  0  0  0  0999 V2000
   46.8510   34.4200   43.5470 N   0  0  0  0  0  0  0  0  0  0  0  0
   46.3910   35.5120   42.7660 C   0  0  0  0  0  0  0  0  0  0  0  0
   44.8920   35.7230   42.7860 C   0  0  0  0  0  0  0  0  0  0  0  0
   44.2280   35.3570   44.0920 C   0  0  0  0  0  0  0  0  0  0  0  0
   45.2420   34.9580   45.1370 C   0  0  0  0  0  0  0  0  0  0  0  0
   46.0230   33.7790   44.4500 C   0  0  2  0  0  0  0  0  0  0  0  0
   46.8170   36.4390   43.2270 H   0  0  0  0  0  0  0  0  0  0  0  0
   46.7170   35.5240   41.7270 H   0  0  0  0  0  0  0  0  0  0  0  0
   44.4550   35.2050   41.9030 H   0  0  0  0  0  0  0  0  0  0  0  0
   44.6770   36.8030   42.6150 H   0  0  0  0  0  0  0  0  0  0  0  0
   43.5250   36.1420   44.4570 H   0  0  0  0  0  0  0  0  0  0  0  0
   43.6090   34.4540   43.9000 H   0  0  0  0  0  0  0  0  0  0  0  0
   45.9750   35.7270   45.3730 H   0  0  0  0  0  0  0  0  0  0  0  0
   44.6920   34.5250   45.9790 H   0  0  0  0  0  0  0  0  0  0  0  0
   45.2540   33.0770   44.0370 H   0  0  0  0  0  0  0  0  0  0  0  0
   47.9210   33.6820   42.9430 C   0  0  0  0  0  0  0  0  0  0  0  0
   48.5360   33.1610   43.7280 H   0  0  0  0  0  0  0  0  0  0  0  0
   48.5450   34.3910   42.3770 H   0  0  0  0  0  0  0  0  0  0  0  0
   47.3470   32.6270   42.0590 C   0  0  0  0  0  0  0  0  0  0  0  0
   47.5070   31.5920   42.3910 H   0  0  0  0  0  0  0  0  0  0  0  0
   46.2390   32.7460   41.9740 H   0  0  0  0  0  0  0  0  0  0  0  0
   49.2460   32.0490   38.8710 C   0  0  0  0  0  0  0  0  0  0  0  0
   48.7510   31.8830   40.1780 C   0  0  0  0  0  0  0  0  0  0  0  0
   47.8670   32.8070   40.6780 C   0  0  0  0  0  0  0  0  0  0  0  0
   47.5170   33.8310   39.8850 N   0  0  0  0  0  0  0  0  0  0  0  0
   48.0030   33.9730   38.6340 C   0  0  0  0  0  0  0  0  0  0  0  0
   48.8680   33.0870   38.1190 N   0  0  0  0  0  0  0  0  0  0  0  0
   49.9390   31.2500   38.5930 H   0  0  0  0  0  0  0  0  0  0  0  0
   49.0400   31.0470   40.8180 H   0  0  0  0  0  0  0  0  0  0  0  0
   47.7130   34.8100   37.9970 H   0  0  0  0  0  0  0  0  0  0  0  0
   46.7320   33.2540   45.5200 O   0  0  0  0  0  0  0  0  0  0  0  0
   45.4860   31.0090   44.8260 O   0  0  0  0  0  0  0  0  0  0  0  0
   46.1850   31.7310   45.9810 P   0  0  2  0  0  0  0  0  0  0  0  0
   44.9450   32.0030   47.1310 O   0  0  0  0  0  0  0  0  0  0  0  0
   45.3600   32.5820   47.8090 H   0  0  0  0  0  0  0  0  0  0  0  0
   47.3640   30.8250   46.7080 O   0  0  0  0  0  0  0  0  0  0  0  0
   47.8880   29.6250   46.3280 C   0  0  0  0  0  0  0  0  0  0  0  0
   49.0480   29.3950   45.6020 C   0  0  0  0  0  0  0  0  0  0  0  0
   49.5690   30.3000   45.3250 H   0  0  0  0  0  0  0  0  0  0  0  0
   49.4200   28.0910   45.3100 C   0  0  0  0  0  3  0  0  0  0  0  0
   48.6590   27.0380   45.7270 C   0  0  0  0  0  3  0  0  0  0  0  0
   47.5110   27.2300   46.4430 C   0  0  0  0  0  0  0  0  0  0  0  0
   46.7800   26.1380   46.8400 C   0  0  0  0  0  3  0  0  0  0  0  0
   45.6210   26.3090   47.5620 C   0  0  0  0  0  3  0  0  0  0  0  0
   45.2060   27.5860   47.8790 C   0  0  0  0  0  3  0  0  0  0  0  0
   45.9550   28.6470   47.4700 C   0  0  0  0  0  3  0  0  0  0  0  0
   47.1310   28.5360   46.7400 C   0  0  0  0  0  0  0  0  0  0  0  0
  1  6  1  0  0  0  0
  2  3  1  0  0  0  0
  2  7  1  0  0  0  0
  2  1  1  0  0  0  0
  3  4  1  0  0  0  0
  4 11  1  0  0  0  0
  4  5  1  0  0  0  0
  5 13  1  0  0  0  0
  5 14  1  0  0  0  0
  6 15  1  6  0  0  0
  6  5  1  0  0  0  0
  6 31  1  0  0  0  0
  8  2  1  0  0  0  0
  9  3  1  0  0  0  0
 10  3  1  0  0  0  0
 12  4  1  0  0  0  0
 16  1  1  0  0  0  0
 16 17  1  0  0  0  0
 18 16  1  0  0  0  0
 19 20  1  0  0  0  0
 19 16  1  0  0  0  0
 21 19  1  0  0  0  0
 22 23  1  0  0  0  0
 23 24  2  0  0  0  0
 23 29  1  0  0  0  0
 24 19  1  0  0  0  0
 25 24  1  0  0  0  0
 26 25  2  0  0  0  0
 27 26  1  0  0  0  0
 27 22  2  0  0  0  0
 28 22  1  0  0  0  0
 30 26  1  0  0  0  0
 31 33  1  0  0  0  0
 33 32  2  6  0  0  0
 33 36  1  0  0  0  0
 33 34  1  0  0  0  0
 34 35  1  0  0  0  0
 37 36  1  0  0  0  0
 37 47  1  0  0  0  0
 38 37  2  0  0  0  0
 39 38  1  0  0  0  0
 40 38  1  0  0  0  0
 40 41  2  0  0  0  0
 41 42  1  0  0  0  0
 42 47  2  0  0  0  0
 42 43  1  0  0  0  0
 43 44  2  0  0  0  0
 44 45  1  0  0  0  0
 46 45  2  0  0  0  0
 47 46  1  0  0  0  0
M  END
>  <minimizedAffinity>
-4.5645709

>  <minimizedRMSD>
1.19318879

$$$$
