
 OpenBabel03242513553D

 21 23  0  0  0  0  0  0  0  0999 V2000
   37.9480   27.3600   42.8420 C   0  0  0  0  0  0  0  0  0  0  0  0
   36.9280   26.5680   42.3910 C   0  0  0  0  0  0  0  0  0  0  0  0
   35.9820   27.0920   42.2660 H   0  0  0  0  0  0  0  0  0  0  0  0
   37.1200   25.2280   42.1310 C   0  0  0  0  0  3  0  0  0  0  0  0
   38.3400   24.6420   42.3130 C   0  0  0  0  0  3  0  0  0  0  0  0
   39.3820   25.4200   42.7660 C   0  0  0  0  0  0  0  0  0  0  0  0
   40.5920   24.7620   42.9280 C   0  0  0  0  0  3  0  0  0  0  0  0
   41.6600   25.5100   43.3810 C   0  0  0  0  0  3  0  0  0  0  0  0
   41.5290   26.8540   43.6590 C   0  0  0  0  0  3  0  0  0  0  0  0
   40.3010   27.4540   43.4770 C   0  0  0  0  0  3  0  0  0  0  0  0
   39.1920   26.7620   43.0270 C   0  0  0  0  0  0  0  0  0  0  0  0
   37.9280   28.7080   43.1480 O   0  0  0  0  0  0  0  0  0  0  0  0
   36.5730   30.0560   41.6300 C   0  0  0  0  0  0  0  0  0  0  0  0
   37.7900   29.7350   42.2460 C   0  0  0  0  0  0  0  0  0  0  0  0
   38.8780   30.5310   41.8880 C   0  0  0  0  0  0  0  0  0  0  0  0
   38.7130   31.5330   41.0000 N   0  0  0  0  0  0  0  0  0  0  0  0
   37.5110   31.8090   40.4260 C   0  0  0  0  0  0  0  0  0  0  0  0
   36.4380   31.0610   40.7470 N   0  0  0  0  0  0  0  0  0  0  0  0
   35.6920   29.4720   41.8700 H   0  0  0  0  0  0  0  0  0  0  0  0
   39.8350   30.3110   42.3460 H   0  0  0  0  0  0  0  0  0  0  0  0
   37.6360   32.6480   39.7570 H   0  0  0  0  0  0  0  0  0  0  0  0
  1 11  1  0  0  0  0
  1 12  1  0  0  0  0
  2  1  2  0  0  0  0
  3  2  1  0  0  0  0
  4  5  2  0  0  0  0
  4  2  1  0  0  0  0
  5  6  1  0  0  0  0
  6  7  2  0  0  0  0
  6 11  1  0  0  0  0
  7  8  1  0  0  0  0
  8  9  2  0  0  0  0
 10  9  1  0  0  0  0
 11 10  2  0  0  0  0
 13 19  1  0  0  0  0
 13 14  1  0  0  0  0
 14 12  1  0  0  0  0
 15 14  2  0  0  0  0
 15 20  1  0  0  0  0
 16 15  1  0  0  0  0
 17 18  1  0  0  0  0
 17 16  2  0  0  0  0
 18 13  2  0  0  0  0
 21 17  1  0  0  0  0
M  END
>  <minimizedAffinity>
-5.20167398

$$$$

 OpenBabel03242513553D

 21 23  0  0  0  0  0  0  0  0999 V2000
   37.5730   30.8160   41.0800 C   0  0  0  0  0  0  0  0  0  0  0  0
   36.5730   30.9690   40.1590 C   0  0  0  0  0  0  0  0  0  0  0  0
   36.6310   31.8970   39.5940 H   0  0  0  0  0  0  0  0  0  0  0  0
   35.5970   30.0100   39.9930 C   0  0  0  0  0  3  0  0  0  0  0  0
   35.5940   28.8690   40.7430 C   0  0  0  0  0  3  0  0  0  0  0  0
   36.5900   28.6930   41.6760 C   0  0  0  0  0  0  0  0  0  0  0  0
   36.5270   27.5130   42.4020 C   0  0  0  0  0  3  0  0  0  0  0  0
   37.5100   27.3020   43.3470 C   0  0  0  0  0  3  0  0  0  0  0  0
   38.5130   28.2250   43.5610 C   0  0  0  0  0  3  0  0  0  0  0  0
   38.5240   29.3790   42.8070 C   0  0  0  0  0  3  0  0  0  0  0  0
   37.5690   29.6520   41.8450 C   0  0  0  0  0  0  0  0  0  0  0  0
   38.6200   31.6690   41.3730 O   0  0  0  0  0  0  0  0  0  0  0  0
   40.2590   31.4930   39.5730 C   0  0  0  0  0  0  0  0  0  0  0  0
   39.4710   32.2410   40.4580 C   0  0  0  0  0  0  0  0  0  0  0  0
   39.5970   33.6260   40.3580 C   0  0  0  0  0  0  0  0  0  0  0  0
   40.4400   34.1600   39.4500 N   0  0  0  0  0  0  0  0  0  0  0  0
   41.1870   33.3950   38.6100 C   0  0  0  0  0  0  0  0  0  0  0  0
   41.0920   32.0530   38.6770 N   0  0  0  0  0  0  0  0  0  0  0  0
   40.2030   30.4120   39.6040 H   0  0  0  0  0  0  0  0  0  0  0  0
   39.0020   34.2350   41.0280 H   0  0  0  0  0  0  0  0  0  0  0  0
   41.7770   34.0490   37.9840 H   0  0  0  0  0  0  0  0  0  0  0  0
  1 12  1  0  0  0  0
  1 11  1  0  0  0  0
  2  1  2  0  0  0  0
  3  2  1  0  0  0  0
  4  2  1  0  0  0  0
  4  5  2  0  0  0  0
  5  6  1  0  0  0  0
  6 11  2  0  0  0  0
  6  7  1  0  0  0  0
  7  8  2  0  0  0  0
  8  9  1  0  0  0  0
 10  9  2  0  0  0  0
 11 10  1  0  0  0  0
 13 19  1  0  0  0  0
 13 14  1  0  0  0  0
 14 12  1  0  0  0  0
 15 14  2  0  0  0  0
 15 20  1  0  0  0  0
 16 15  1  0  0  0  0
 17 18  1  0  0  0  0
 17 16  2  0  0  0  0
 18 13  2  0  0  0  0
 21 17  1  0  0  0  0
M  END
>  <minimizedAffinity>
-5.12515926

$$$$

 OpenBabel03242513553D

 21 23  0  0  0  0  0  0  0  0999 V2000
   37.3700   28.7370   41.3180 C   0  0  0  0  0  0  0  0  0  0  0  0
   37.4590   29.1930   42.6050 C   0  0  0  0  0  0  0  0  0  0  0  0
   37.6120   30.2670   42.6830 H   0  0  0  0  0  0  0  0  0  0  0  0
   37.3590   28.3360   43.6790 C   0  0  0  0  0  3  0  0  0  0  0  0
   37.1660   26.9960   43.4980 C   0  0  0  0  0  3  0  0  0  0  0  0
   37.0740   26.5130   42.2120 C   0  0  0  0  0  0  0  0  0  0  0  0
   36.8780   25.1440   42.1000 C   0  0  0  0  0  3  0  0  0  0  0  0
   36.7800   24.6250   40.8250 C   0  0  0  0  0  3  0  0  0  0  0  0
   36.8730   25.4310   39.7110 C   0  0  0  0  0  3  0  0  0  0  0  0
   37.0670   26.7860   39.8850 C   0  0  0  0  0  3  0  0  0  0  0  0
   37.1730   27.3690   41.1330 C   0  0  0  0  0  0  0  0  0  0  0  0
   37.4470   29.4500   40.1370 O   0  0  0  0  0  0  0  0  0  0  0  0
   36.9970   31.8440   39.9780 C   0  0  0  0  0  0  0  0  0  0  0  0
   37.8720   30.7510   40.0120 C   0  0  0  0  0  0  0  0  0  0  0  0
   39.2290   31.0590   39.9100 C   0  0  0  0  0  0  0  0  0  0  0  0
   39.6180   32.3450   39.7880 N   0  0  0  0  0  0  0  0  0  0  0  0
   38.7310   33.3760   39.7590 C   0  0  0  0  0  0  0  0  0  0  0  0
   37.4130   33.1170   39.8550 N   0  0  0  0  0  0  0  0  0  0  0  0
   35.9300   31.6670   40.0540 H   0  0  0  0  0  0  0  0  0  0  0  0
   39.9340   30.2370   39.9330 H   0  0  0  0  0  0  0  0  0  0  0  0
   39.2830   34.3000   39.6560 H   0  0  0  0  0  0  0  0  0  0  0  0
  1  2  1  0  0  0  0
  2  3  1  0  0  0  0
  2  4  2  0  0  0  0
  5  4  1  0  0  0  0
  6  5  2  0  0  0  0
  7  6  1  0  0  0  0
  8  7  2  0  0  0  0
  9 10  2  0  0  0  0
  9  8  1  0  0  0  0
 10 11  1  0  0  0  0
 11  1  2  0  0  0  0
 11  6  1  0  0  0  0
 12  1  1  0  0  0  0
 13 14  1  0  0  0  0
 13 19  1  0  0  0  0
 14 12  1  0  0  0  0
 15 20  1  0  0  0  0
 15 14  2  0  0  0  0
 16 15  1  0  0  0  0
 17 16  2  0  0  0  0
 17 18  1  0  0  0  0
 18 13  2  0  0  0  0
 21 17  1  0  0  0  0
M  END
>  <minimizedAffinity>
-5.10780668

$$$$

 OpenBabel03242513553D

 21 23  0  0  0  0  0  0  0  0999 V2000
   37.0500   28.7420   42.1270 C   0  0  0  0  0  0  0  0  0  0  0  0
   35.9500   28.5950   41.3270 C   0  0  0  0  0  0  0  0  0  0  0  0
   35.3450   27.7220   41.5630 H   0  0  0  0  0  0  0  0  0  0  0  0
   35.6680   29.4960   40.3230 C   0  0  0  0  0  3  0  0  0  0  0  0
   36.4780   30.5700   40.0890 C   0  0  0  0  0  3  0  0  0  0  0  0
   37.5920   30.7380   40.8810 C   0  0  0  0  0  0  0  0  0  0  0  0
   38.3700   31.8480   40.5900 C   0  0  0  0  0  3  0  0  0  0  0  0
   39.4950   32.0490   41.3640 C   0  0  0  0  0  3  0  0  0  0  0  0
   39.8300   31.1830   42.3830 C   0  0  0  0  0  3  0  0  0  0  0  0
   39.0160   30.0960   42.6260 C   0  0  0  0  0  3  0  0  0  0  0  0
   37.8770   29.8380   41.8880 C   0  0  0  0  0  0  0  0  0  0  0  0
   37.4770   27.9410   43.1690 O   0  0  0  0  0  0  0  0  0  0  0  0
   37.7330   25.6800   42.2850 C   0  0  0  0  0  0  0  0  0  0  0  0
   38.1830   26.7680   43.0440 C   0  0  0  0  0  0  0  0  0  0  0  0
   39.4120   26.5960   43.6800 C   0  0  0  0  0  0  0  0  0  0  0  0
   40.0840   25.4350   43.5390 N   0  0  0  0  0  0  0  0  0  0  0  0
   39.6080   24.4030   42.7910 C   0  0  0  0  0  0  0  0  0  0  0  0
   38.4240   24.5330   42.1620 N   0  0  0  0  0  0  0  0  0  0  0  0
   36.7840   25.7560   41.7680 H   0  0  0  0  0  0  0  0  0  0  0  0
   39.7910   27.4180   44.2750 H   0  0  0  0  0  0  0  0  0  0  0  0
   40.3200   23.5910   42.8340 H   0  0  0  0  0  0  0  0  0  0  0  0
  1 12  1  0  0  0  0
  2  3  1  0  0  0  0
  2  1  2  0  0  0  0
  4  2  1  0  0  0  0
  5  4  2  0  0  0  0
  5  6  1  0  0  0  0
  6 11  1  0  0  0  0
  7  6  2  0  0  0  0
  7  8  1  0  0  0  0
  8  9  2  0  0  0  0
  9 10  1  0  0  0  0
 11  1  1  0  0  0  0
 11 10  2  0  0  0  0
 13 14  1  0  0  0  0
 14 12  1  0  0  0  0
 14 15  2  0  0  0  0
 15 20  1  0  0  0  0
 16 15  1  0  0  0  0
 17 21  1  0  0  0  0
 17 16  2  0  0  0  0
 18 13  2  0  0  0  0
 18 17  1  0  0  0  0
 19 13  1  0  0  0  0
M  END
>  <minimizedAffinity>
-5.08921337

$$$$

 OpenBabel03242513553D

 21 23  0  0  0  0  0  0  0  0999 V2000
   37.4960   29.0590   42.1910 C   0  0  0  0  0  0  0  0  0  0  0  0
   36.6290   28.0070   42.2960 C   0  0  0  0  0  0  0  0  0  0  0  0
   35.6030   28.2520   42.0300 H   0  0  0  0  0  0  0  0  0  0  0  0
   37.0560   26.7620   42.7060 C   0  0  0  0  0  3  0  0  0  0  0  0
   38.3650   26.5340   43.0220 C   0  0  0  0  0  3  0  0  0  0  0  0
   39.2570   27.5780   42.9240 C   0  0  0  0  0  0  0  0  0  0  0  0
   40.5690   27.2770   43.2590 C   0  0  0  0  0  3  0  0  0  0  0  0
   41.4910   28.3000   43.1720 C   0  0  0  0  0  3  0  0  0  0  0  0
   41.1240   29.5670   42.7690 C   0  0  0  0  0  3  0  0  0  0  0  0
   39.8050   29.8050   42.4470 C   0  0  0  0  0  3  0  0  0  0  0  0
   38.8320   28.8260   42.5130 C   0  0  0  0  0  0  0  0  0  0  0  0
   37.2390   30.3590   41.7990 O   0  0  0  0  0  0  0  0  0  0  0  0
   37.3640   30.0010   39.3880 C   0  0  0  0  0  0  0  0  0  0  0  0
   37.2920   30.8350   40.5100 C   0  0  0  0  0  0  0  0  0  0  0  0
   37.2730   32.2040   40.2470 C   0  0  0  0  0  0  0  0  0  0  0  0
   37.3250   32.6440   38.9720 N   0  0  0  0  0  0  0  0  0  0  0  0
   37.3960   31.7960   37.9110 C   0  0  0  0  0  0  0  0  0  0  0  0
   37.4160   30.4660   38.1270 N   0  0  0  0  0  0  0  0  0  0  0  0
   37.3820   28.9270   39.5300 H   0  0  0  0  0  0  0  0  0  0  0  0
   37.2170   32.8790   41.0930 H   0  0  0  0  0  0  0  0  0  0  0  0
   37.4270   32.3830   37.0040 H   0  0  0  0  0  0  0  0  0  0  0  0
  1  2  2  0  0  0  0
  1 11  1  0  0  0  0
  2  4  1  0  0  0  0
  3  2  1  0  0  0  0
  4  5  2  0  0  0  0
  6  5  1  0  0  0  0
  6  7  1  0  0  0  0
  8  7  2  0  0  0  0
  9  8  1  0  0  0  0
 10 11  1  0  0  0  0
 10  9  2  0  0  0  0
 11  6  2  0  0  0  0
 12  1  1  0  0  0  0
 13 19  1  0  0  0  0
 13 14  1  0  0  0  0
 14 12  1  0  0  0  0
 15 14  2  0  0  0  0
 15 20  1  0  0  0  0
 16 15  1  0  0  0  0
 17 18  1  0  0  0  0
 17 16  2  0  0  0  0
 18 13  2  0  0  0  0
 21 17  1  0  0  0  0
M  END
>  <minimizedAffinity>
-4.95461369

$$$$

 OpenBabel03242513553D

 21 23  0  0  0  0  0  0  0  0999 V2000
   36.2960   28.9660   40.0760 C   0  0  0  0  0  0  0  0  0  0  0  0
   36.0190   28.8970   38.7380 C   0  0  0  0  0  0  0  0  0  0  0  0
   35.8070   29.8610   38.2800 H   0  0  0  0  0  0  0  0  0  0  0  0
   36.0170   27.6940   38.0660 C   0  0  0  0  0  3  0  0  0  0  0  0
   36.2940   26.5230   38.7130 C   0  0  0  0  0  3  0  0  0  0  0  0
   36.5760   26.5670   40.0600 C   0  0  0  0  0  0  0  0  0  0  0  0
   36.8480   25.3440   40.6540 C   0  0  0  0  0  3  0  0  0  0  0  0
   37.1350   25.3500   42.0030 C   0  0  0  0  0  3  0  0  0  0  0  0
   37.1520   26.5210   42.7300 C   0  0  0  0  0  3  0  0  0  0  0  0
   36.8740   27.7080   42.0840 C   0  0  0  0  0  3  0  0  0  0  0  0
   36.5780   27.7710   40.7360 C   0  0  0  0  0  0  0  0  0  0  0  0
   36.3410   30.0770   40.8960 O   0  0  0  0  0  0  0  0  0  0  0  0
   38.5260   31.0280   41.4250 C   0  0  0  0  0  0  0  0  0  0  0  0
   37.2630   31.0930   40.8220 C   0  0  0  0  0  0  0  0  0  0  0  0
   36.9850   32.2690   40.1260 C   0  0  0  0  0  0  0  0  0  0  0  0
   37.9090   33.2500   40.0690 N   0  0  0  0  0  0  0  0  0  0  0  0
   39.1240   33.1440   40.6720 C   0  0  0  0  0  0  0  0  0  0  0  0
   39.4280   32.0230   41.3530 N   0  0  0  0  0  0  0  0  0  0  0  0
   38.7980   30.1380   41.9800 H   0  0  0  0  0  0  0  0  0  0  0  0
   36.0170   32.3530   39.6470 H   0  0  0  0  0  0  0  0  0  0  0  0
   39.6800   34.0520   40.4840 H   0  0  0  0  0  0  0  0  0  0  0  0
  1 11  1  0  0  0  0
  1 12  1  0  0  0  0
  2  1  2  0  0  0  0
  3  2  1  0  0  0  0
  4  5  2  0  0  0  0
  4  2  1  0  0  0  0
  5  6  1  0  0  0  0
  6  7  2  0  0  0  0
  6 11  1  0  0  0  0
  7  8  1  0  0  0  0
  8  9  2  0  0  0  0
 10  9  1  0  0  0  0
 11 10  2  0  0  0  0
 13 19  1  0  0  0  0
 14 12  1  0  0  0  0
 14 13  2  0  0  0  0
 15 14  1  0  0  0  0
 16 15  2  0  0  0  0
 16 17  1  0  0  0  0
 17 18  2  0  0  0  0
 18 13  1  0  0  0  0
 20 15  1  0  0  0  0
 21 17  1  0  0  0  0
M  END
>  <minimizedAffinity>
-4.77388763

$$$$

 OpenBabel03242513553D

 21 23  0  0  0  0  0  0  0  0999 V2000
   38.2980   28.4510   41.4800 C   0  0  0  0  0  0  0  0  0  0  0  0
   38.0340   29.1510   42.6250 C   0  0  0  0  0  0  0  0  0  0  0  0
   38.4020   30.1750   42.6110 H   0  0  0  0  0  0  0  0  0  0  0  0
   37.3600   28.5760   43.6800 C   0  0  0  0  0  3  0  0  0  0  0  0
   36.9280   27.2810   43.6200 C   0  0  0  0  0  3  0  0  0  0  0  0
   37.1820   26.5560   42.4780 C   0  0  0  0  0  0  0  0  0  0  0  0
   36.7170   25.2490   42.4830 C   0  0  0  0  0  3  0  0  0  0  0  0
   36.9530   24.4920   41.3540 C   0  0  0  0  0  3  0  0  0  0  0  0
   37.6230   25.0120   40.2670 C   0  0  0  0  0  3  0  0  0  0  0  0
   38.0610   26.3180   40.3190 C   0  0  0  0  0  3  0  0  0  0  0  0
   37.8570   27.1300   41.4190 C   0  0  0  0  0  0  0  0  0  0  0  0
   38.9540   28.8700   40.3380 O   0  0  0  0  0  0  0  0  0  0  0  0
   39.3490   30.9140   39.0640 C   0  0  0  0  0  0  0  0  0  0  0  0
   38.5290   29.8590   39.4840 C   0  0  0  0  0  0  0  0  0  0  0  0
   37.2300   29.8630   38.9770 C   0  0  0  0  0  0  0  0  0  0  0  0
   36.8390   30.8460   38.1400 N   0  0  0  0  0  0  0  0  0  0  0  0
   37.6700   31.8530   37.7590 C   0  0  0  0  0  0  0  0  0  0  0  0
   38.9320   31.8820   38.2280 N   0  0  0  0  0  0  0  0  0  0  0  0
   40.3690   30.9630   39.4250 H   0  0  0  0  0  0  0  0  0  0  0  0
   36.5680   29.0600   39.2810 H   0  0  0  0  0  0  0  0  0  0  0  0
   37.1290   32.5090   37.0920 H   0  0  0  0  0  0  0  0  0  0  0  0
  1  2  1  0  0  0  0
  2  4  2  0  0  0  0
  3  2  1  0  0  0  0
  5  4  1  0  0  0  0
  6  7  1  0  0  0  0
  6  5  2  0  0  0  0
  8  7  2  0  0  0  0
  9 10  2  0  0  0  0
  9  8  1  0  0  0  0
 10 11  1  0  0  0  0
 11  1  2  0  0  0  0
 11  6  1  0  0  0  0
 12  1  1  0  0  0  0
 13 19  1  0  0  0  0
 13 14  1  0  0  0  0
 14 12  1  0  0  0  0
 15 20  1  0  0  0  0
 15 14  2  0  0  0  0
 16 15  1  0  0  0  0
 17 16  2  0  0  0  0
 17 18  1  0  0  0  0
 18 13  2  0  0  0  0
 21 17  1  0  0  0  0
M  END
>  <minimizedAffinity>
-4.77188063

$$$$

 OpenBabel03242513553D

 21 23  0  0  0  0  0  0  0  0999 V2000
   38.7540   29.4770   42.6630 C   0  0  0  0  0  0  0  0  0  0  0  0
   39.6940   30.4710   42.6450 C   0  0  0  0  0  0  0  0  0  0  0  0
   40.5170   30.3140   43.3390 H   0  0  0  0  0  0  0  0  0  0  0  0
   39.5730   31.5590   41.8080 C   0  0  0  0  0  3  0  0  0  0  0  0
   38.5070   31.6850   40.9630 C   0  0  0  0  0  3  0  0  0  0  0  0
   37.5480   30.6970   40.9630 C   0  0  0  0  0  0  0  0  0  0  0  0
   36.4940   30.8870   40.0820 C   0  0  0  0  0  3  0  0  0  0  0  0
   35.5140   29.9160   40.0540 C   0  0  0  0  0  3  0  0  0  0  0  0
   35.5790   28.8050   40.8680 C   0  0  0  0  0  3  0  0  0  0  0  0
   36.6530   28.6700   41.7240 C   0  0  0  0  0  3  0  0  0  0  0  0
   37.6670   29.6050   41.8010 C   0  0  0  0  0  0  0  0  0  0  0  0
   38.7210   28.3290   43.4310 O   0  0  0  0  0  0  0  0  0  0  0  0
   40.9070   27.2720   43.6800 C   0  0  0  0  0  0  0  0  0  0  0  0
   39.5600   27.2480   43.2970 C   0  0  0  0  0  0  0  0  0  0  0  0
   39.1030   26.0440   42.7620 C   0  0  0  0  0  0  0  0  0  0  0  0
   39.9490   24.9990   42.6420 N   0  0  0  0  0  0  0  0  0  0  0  0
   41.2510   25.0670   43.0270 C   0  0  0  0  0  0  0  0  0  0  0  0
   41.7280   26.2140   43.5490 N   0  0  0  0  0  0  0  0  0  0  0  0
   41.3180   28.1810   44.1020 H   0  0  0  0  0  0  0  0  0  0  0  0
   38.0660   25.9910   42.4550 H   0  0  0  0  0  0  0  0  0  0  0  0
   41.7170   24.1120   42.8320 H   0  0  0  0  0  0  0  0  0  0  0  0
  1 12  1  0  0  0  0
  2  1  1  0  0  0  0
  2  3  1  0  0  0  0
  4  2  2  0  0  0  0
  5  6  2  0  0  0  0
  5  4  1  0  0  0  0
  6 11  1  0  0  0  0
  7  6  1  0  0  0  0
  8  7  2  0  0  0  0
  8  9  1  0  0  0  0
  9 10  2  0  0  0  0
 10 11  1  0  0  0  0
 11  1  2  0  0  0  0
 13 19  1  0  0  0  0
 14 12  1  0  0  0  0
 14 13  2  0  0  0  0
 15 14  1  0  0  0  0
 16 15  2  0  0  0  0
 16 17  1  0  0  0  0
 17 18  2  0  0  0  0
 18 13  1  0  0  0  0
 20 15  1  0  0  0  0
 21 17  1  0  0  0  0
M  END
>  <minimizedAffinity>
-4.76992083

$$$$

 OpenBabel03242513553D

 21 23  0  0  0  0  0  0  0  0999 V2000
   36.6470   30.3670   39.5340 C   0  0  0  0  0  0  0  0  0  0  0  0
   37.6720   31.1780   39.1300 C   0  0  0  0  0  0  0  0  0  0  0  0
   38.2120   31.6500   39.9490 H   0  0  0  0  0  0  0  0  0  0  0  0
   37.9630   31.3550   37.7950 C   0  0  0  0  0  3  0  0  0  0  0  0
   37.2370   30.7260   36.8240 C   0  0  0  0  0  3  0  0  0  0  0  0
   36.2000   29.9050   37.2060 C   0  0  0  0  0  0  0  0  0  0  0  0
   35.5060   29.2980   36.1710 C   0  0  0  0  0  3  0  0  0  0  0  0
   34.4590   28.4680   36.5170 C   0  0  0  0  0  3  0  0  0  0  0  0
   34.1190   28.2510   37.8360 C   0  0  0  0  0  3  0  0  0  0  0  0
   34.8480   28.8820   38.8230 C   0  0  0  0  0  3  0  0  0  0  0  0
   35.9060   29.7250   38.5440 C   0  0  0  0  0  0  0  0  0  0  0  0
   36.2230   30.0800   40.8180 O   0  0  0  0  0  0  0  0  0  0  0  0
   38.0680   29.6750   42.3630 C   0  0  0  0  0  0  0  0  0  0  0  0
   36.8850   29.2850   41.7230 C   0  0  0  0  0  0  0  0  0  0  0  0
   36.4020   28.0210   42.0610 C   0  0  0  0  0  0  0  0  0  0  0  0
   37.0720   27.2630   42.9530 N   0  0  0  0  0  0  0  0  0  0  0  0
   38.2200   27.6830   43.5510 C   0  0  0  0  0  0  0  0  0  0  0  0
   38.7160   28.8980   43.2490 N   0  0  0  0  0  0  0  0  0  0  0  0
   38.4910   30.6480   42.1410 H   0  0  0  0  0  0  0  0  0  0  0  0
   35.4880   27.6880   41.5840 H   0  0  0  0  0  0  0  0  0  0  0  0
   38.5630   26.9050   44.2180 H   0  0  0  0  0  0  0  0  0  0  0  0
  1 12  1  0  0  0  0
  2  1  1  0  0  0  0
  2  3  1  0  0  0  0
  4  2  2  0  0  0  0
  5  6  2  0  0  0  0
  5  4  1  0  0  0  0
  6 11  1  0  0  0  0
  7  8  2  0  0  0  0
  7  6  1  0  0  0  0
  8  9  1  0  0  0  0
  9 10  2  0  0  0  0
 11 10  1  0  0  0  0
 11  1  2  0  0  0  0
 12 14  1  0  0  0  0
 13 18  1  0  0  0  0
 14 15  1  0  0  0  0
 14 13  2  0  0  0  0
 15 16  2  0  0  0  0
 16 17  1  0  0  0  0
 17 21  1  0  0  0  0
 18 17  2  0  0  0  0
 19 13  1  0  0  0  0
 20 15  1  0  0  0  0
M  END
>  <minimizedAffinity>
-4.75976372

$$$$
