
 OpenBabel03252502373D

 26 28  0  0  1  0  0  0  0  0999 V2000
   46.2600   35.1830   42.3220 C   0  0  1  0  0  0  0  0  0  0  0  0
   45.9280   36.2450   42.4130 H   0  0  0  0  0  0  0  0  0  0  0  0
   45.5850   34.4910   41.2020 C   0  0  0  0  0  0  0  0  0  0  0  0
   46.3490   33.6120   40.4200 C   0  0  0  0  0  0  0  0  0  0  0  0
   47.4100   33.4780   40.6530 H   0  0  0  0  0  0  0  0  0  0  0  0
   45.8780   32.8800   39.3610 C   0  0  0  0  0  3  0  0  0  0  0  0
   44.5460   33.0110   39.0270 C   0  0  0  0  0  3  0  0  0  0  0  0
   43.7420   33.8600   39.7550 C   0  0  0  0  0  0  0  0  0  0  0  0
   42.4230   34.0100   39.4370 C   0  0  0  0  0  3  0  0  0  0  0  0
   41.6320   34.8690   40.1710 C   0  0  0  0  0  3  0  0  0  0  0  0
   42.1470   35.5880   41.2300 C   0  0  0  0  0  3  0  0  0  0  0  0
   43.4810   35.4230   41.5340 C   0  0  0  0  0  3  0  0  0  0  0  0
   44.2660   34.5720   40.8090 C   0  0  0  0  0  0  0  0  0  0  0  0
   45.2060   34.9360   44.5590 C   0  0  0  0  0  0  0  0  0  0  0  0
   46.1480   34.5490   43.6160 C   0  0  0  0  0  0  0  0  0  0  0  0
   46.9920   33.4850   44.0020 C   0  0  0  0  0  0  0  0  0  0  0  0
   46.8450   32.9160   45.2320 N   0  0  0  0  0  0  0  0  0  0  0  0
   45.8970   33.3540   46.0950 C   0  0  0  0  0  0  0  0  0  0  0  0
   45.0750   34.3700   45.7540 N   0  0  0  0  0  0  0  0  0  0  0  0
   44.5050   35.7390   44.3840 H   0  0  0  0  0  0  0  0  0  0  0  0
   47.7650   33.1090   43.3260 H   0  0  0  0  0  0  0  0  0  0  0  0
   45.9600   32.7590   47.0120 H   0  0  0  0  0  0  0  0  0  0  0  0
   47.7330   35.3100   41.9690 C   0  0  0  0  0  0  0  0  0  0  0  0
   48.3090   34.4130   42.2220 H   0  0  0  0  0  0  0  0  0  0  0  0
   48.1830   36.1590   42.5600 H   0  0  0  0  0  0  0  0  0  0  0  0
   47.8470   35.6070   40.9030 H   0  0  0  0  0  0  0  0  0  0  0  0
  1  2  1  1  0  0  0
  1 15  1  0  0  0  0
  3  1  1  0  0  0  0
  4  5  1  0  0  0  0
  4  3  2  0  0  0  0
  6  4  1  0  0  0  0
  7  6  2  0  0  0  0
  7  8  1  0  0  0  0
  8 13  1  0  0  0  0
  9  8  2  0  0  0  0
  9 10  1  0  0  0  0
 10 11  2  0  0  0  0
 11 12  1  0  0  0  0
 13  3  1  0  0  0  0
 13 12  2  0  0  0  0
 14 19  1  0  0  0  0
 15 16  1  0  0  0  0
 15 14  2  0  0  0  0
 16 17  2  0  0  0  0
 17 18  1  0  0  0  0
 18 22  1  0  0  0  0
 19 18  2  0  0  0  0
 20 14  1  0  0  0  0
 21 16  1  0  0  0  0
 23 24  1  0  0  0  0
 23  1  1  0  0  0  0
 23 25  1  0  0  0  0
 26 23  1  0  0  0  0
M  END
>  <minimizedAffinity>
-5.38009453

>  <minimizedRMSD>
1.66259396

$$$$
