
 OpenBabel03252504583D

 39 42  0  0  1  0  0  0  0  0999 V2000
   47.9690   34.0570   42.0190 N   0  0  0  0  0  0  0  0  0  0  0  0
   47.9670   35.0270   40.9900 C   0  0  0  0  0  0  0  0  0  0  0  0
   49.1180   35.8830   41.3540 C   0  0  0  0  0  0  0  0  0  0  0  0
   49.7770   35.3060   42.5940 C   0  0  0  0  0  0  0  0  0  0  0  0
   49.2420   33.8660   42.5830 C   0  0  2  0  0  0  0  0  0  0  0  0
   47.4380   35.3030   40.1160 H   0  0  0  0  0  0  0  0  0  0  0  0
   49.5280   36.7570   40.8870 H   0  0  0  0  0  0  0  0  0  0  0  0
   49.4660   35.8250   43.4980 H   0  0  0  0  0  0  0  0  0  0  0  0
   50.8630   35.2730   42.3980 H   0  0  0  0  0  0  0  0  0  0  0  0
   49.2200   33.4000   43.5640 H   0  0  0  0  0  0  0  0  0  0  0  0
   46.7940   33.4470   42.3830 C   0  0  0  0  0  0  0  0  0  0  0  0
   47.0350   32.3870   42.6570 H   0  0  0  0  0  0  0  0  0  0  0  0
   46.0600   33.3030   41.5580 H   0  0  0  0  0  0  0  0  0  0  0  0
   44.5980   35.7710   44.4100 C   0  0  0  0  0  0  0  0  0  0  0  0
   45.2980   35.2500   43.2840 C   0  0  0  0  0  0  0  0  0  0  0  0
   46.0620   34.0960   43.4490 C   0  0  0  0  0  0  0  0  0  0  0  0
   46.0860   33.5440   44.6810 N   0  0  0  0  0  0  0  0  0  0  0  0
   45.4040   34.0590   45.7630 C   0  0  0  0  0  0  0  0  0  0  0  0
   44.6680   35.1610   45.6240 N   0  0  0  0  0  0  0  0  0  0  0  0
   44.0120   36.6490   44.3010 H   0  0  0  0  0  0  0  0  0  0  0  0
   45.2520   35.7180   42.3230 H   0  0  0  0  0  0  0  0  0  0  0  0
   45.4870   33.5420   46.7160 H   0  0  0  0  0  0  0  0  0  0  0  0
   50.0020   33.1760   41.6270 O   0  0  0  0  0  0  0  0  0  0  0  0
   49.3320   31.0560   43.0880 O   0  0  0  0  0  0  0  0  0  0  0  0
   50.1680   31.5550   41.9290 P   0  0  2  0  0  0  0  0  0  0  0  0
   51.7920   31.2550   42.3240 O   0  0  0  0  0  0  0  0  0  0  0  0
   52.3070   31.3230   41.4680 H   0  0  0  0  0  0  0  0  0  0  0  0
   49.8580   30.6280   40.5220 O   0  0  0  0  0  0  0  0  0  0  0  0
   49.1100   31.0380   39.4540 C   0  0  0  0  0  0  0  0  0  0  0  0
   47.8390   31.5140   39.3990 C   0  0  0  0  0  0  0  0  0  0  0  0
   47.3460   31.5750   40.3590 H   0  0  0  0  0  0  0  0  0  0  0  0
   47.2180   31.8890   38.2280 C   0  0  0  0  0  3  0  0  0  0  0  0
   47.8930   31.7920   37.0210 C   0  0  0  0  0  3  0  0  0  0  0  0
   49.1920   31.3090   37.0540 C   0  0  0  0  0  0  0  0  0  0  0  0
   49.8060   31.2370   35.8170 C   0  0  0  0  0  3  0  0  0  0  0  0
   51.0910   30.7710   35.7510 C   0  0  0  0  0  3  0  0  0  0  0  0
   51.7200   30.3950   36.8970 C   0  0  0  0  0  3  0  0  0  0  0  0
   51.1130   30.4640   38.1340 C   0  0  0  0  0  3  0  0  0  0  0  0
   49.8040   30.9330   38.2450 C   0  0  0  0  0  0  0  0  0  0  0  0
  1 11  1  0  0  0  0
  1  5  1  0  0  0  0
  2  3  2  0  0  0  0
  2  1  1  0  0  0  0
  3  4  1  0  0  0  0
  4  8  1  0  0  0  0
  5  4  1  0  0  0  0
  5 10  1  1  0  0  0
  6  2  1  0  0  0  0
  7  3  1  0  0  0  0
  9  4  1  0  0  0  0
 11 12  1  0  0  0  0
 11 16  1  0  0  0  0
 13 11  1  0  0  0  0
 14 19  1  0  0  0  0
 15 16  1  0  0  0  0
 15 14  2  0  0  0  0
 16 17  2  0  0  0  0
 17 18  1  0  0  0  0
 18 22  1  0  0  0  0
 19 18  2  0  0  0  0
 20 14  1  0  0  0  0
 21 15  1  0  0  0  0
 23 25  1  0  0  0  0
 23  5  1  0  0  0  0
 25 26  1  0  0  0  0
 25 24  2  1  0  0  0
 27 26  1  0  0  0  0
 28 25  1  0  0  0  0
 29 28  1  0  0  0  0
 30 29  1  0  0  0  0
 30 31  1  0  0  0  0
 32 30  2  0  0  0  0
 33 34  2  0  0  0  0
 33 32  1  0  0  0  0
 34 39  1  0  0  0  0
 35 34  1  0  0  0  0
 36 35  2  0  0  0  0
 36 37  1  0  0  0  0
 37 38  2  0  0  0  0
 38 39  1  0  0  0  0
 39 29  2  0  0  0  0
M  END
>  <minimizedAffinity>
-5.27083158

>  <minimizedRMSD>
1.75335431

$$$$
