
 OpenBabel03252509003D

 47 50  0  0  1  0  0  0  0  0999 V2000
   46.6980   34.4740   43.6030 N   0  0  0  0  0  0  0  0  0  0  0  0
   46.2740   35.5220   42.7460 C   0  0  0  0  0  0  0  0  0  0  0  0
   44.7760   35.7380   42.6950 C   0  0  0  0  0  0  0  0  0  0  0  0
   44.0600   35.4450   43.9920 C   0  0  0  0  0  0  0  0  0  0  0  0
   45.0290   35.1010   45.0960 C   0  0  0  0  0  0  0  0  0  0  0  0
   45.8310   33.8840   44.5060 C   0  0  2  0  0  0  0  0  0  0  0  0
   46.6860   36.4720   43.1730 H   0  0  0  0  0  0  0  0  0  0  0  0
   46.6410   35.4770   41.7220 H   0  0  0  0  0  0  0  0  0  0  0  0
   44.3720   35.1730   41.8250 H   0  0  0  0  0  0  0  0  0  0  0  0
   44.5730   36.8070   42.4570 H   0  0  0  0  0  0  0  0  0  0  0  0
   43.3460   36.2500   44.2850 H   0  0  0  0  0  0  0  0  0  0  0  0
   43.4440   34.5340   43.8250 H   0  0  0  0  0  0  0  0  0  0  0  0
   45.7560   35.8800   45.3190 H   0  0  0  0  0  0  0  0  0  0  0  0
   44.4440   34.7160   45.9380 H   0  0  0  0  0  0  0  0  0  0  0  0
   45.0760   33.1630   44.1020 H   0  0  0  0  0  0  0  0  0  0  0  0
   47.7870   33.7020   43.0840 C   0  0  0  0  0  0  0  0  0  0  0  0
   48.3550   33.2050   43.9180 H   0  0  0  0  0  0  0  0  0  0  0  0
   48.4480   34.3810   42.5230 H   0  0  0  0  0  0  0  0  0  0  0  0
   47.2450   32.6180   42.2130 C   0  0  0  0  0  0  0  0  0  0  0  0
   47.4170   31.5930   42.5700 H   0  0  0  0  0  0  0  0  0  0  0  0
   46.1370   32.7160   42.1090 H   0  0  0  0  0  0  0  0  0  0  0  0
   49.3420   32.1270   39.1370 C   0  0  0  0  0  0  0  0  0  0  0  0
   48.8290   31.9790   40.4390 C   0  0  0  0  0  0  0  0  0  0  0  0
   47.7840   32.7770   40.8370 C   0  0  0  0  0  0  0  0  0  0  0  0
   47.3020   33.6640   39.9540 N   0  0  0  0  0  0  0  0  0  0  0  0
   47.8090   33.7900   38.7090 C   0  0  0  0  0  0  0  0  0  0  0  0
   48.8280   33.0260   38.2920 N   0  0  0  0  0  0  0  0  0  0  0  0
   50.1690   31.4370   38.9440 H   0  0  0  0  0  0  0  0  0  0  0  0
   49.2260   31.2550   41.1520 H   0  0  0  0  0  0  0  0  0  0  0  0
   47.4100   34.5160   37.9980 H   0  0  0  0  0  0  0  0  0  0  0  0
   46.4950   33.4170   45.6310 O   0  0  0  0  0  0  0  0  0  0  0  0
   45.4300   31.1300   44.7880 O   0  0  0  0  0  0  0  0  0  0  0  0
   46.1870   31.7930   45.9420 P   0  0  2  0  0  0  0  0  0  0  0  0
   45.0830   31.7640   47.2520 O   0  0  0  0  0  0  0  0  0  0  0  0
   45.5140   32.3060   47.9500 H   0  0  0  0  0  0  0  0  0  0  0  0
   47.5440   30.9650   46.4020 O   0  0  0  0  0  0  0  0  0  0  0  0
   47.7700   29.6200   46.4190 C   0  0  0  0  0  0  0  0  0  0  0  0
   47.3780   28.7020   47.3820 C   0  0  0  0  0  0  0  0  0  0  0  0
   46.8280   29.1450   48.2000 H   0  0  0  0  0  0  0  0  0  0  0  0
   47.7070   27.3640   47.2200 C   0  0  0  0  0  3  0  0  0  0  0  0
   48.4100   26.9450   46.1270 C   0  0  0  0  0  3  0  0  0  0  0  0
   48.8120   27.8230   45.1610 C   0  0  0  0  0  0  0  0  0  0  0  0
   49.5160   27.3520   44.0810 C   0  0  0  0  0  3  0  0  0  0  0  0
   49.9310   28.2200   43.0960 C   0  0  0  0  0  3  0  0  0  0  0  0
   49.6300   29.5620   43.2090 C   0  0  0  0  0  3  0  0  0  0  0  0
   48.9290   29.9950   44.2930 C   0  0  0  0  0  3  0  0  0  0  0  0
   48.4850   29.1680   45.3170 C   0  0  0  0  0  0  0  0  0  0  0  0
  1  6  1  0  0  0  0
  2  7  1  0  0  0  0
  2  1  1  0  0  0  0
  3  2  1  0  0  0  0
  3  4  1  0  0  0  0
  4 11  1  0  0  0  0
  4  5  1  0  0  0  0
  5 13  1  0  0  0  0
  5 14  1  0  0  0  0
  6 15  1  6  0  0  0
  6  5  1  0  0  0  0
  6 31  1  0  0  0  0
  8  2  1  0  0  0  0
  9  3  1  0  0  0  0
 10  3  1  0  0  0  0
 12  4  1  0  0  0  0
 16  1  1  0  0  0  0
 16 17  1  0  0  0  0
 18 16  1  0  0  0  0
 19 20  1  0  0  0  0
 19 16  1  0  0  0  0
 21 19  1  0  0  0  0
 22 23  1  0  0  0  0
 23 24  2  0  0  0  0
 23 29  1  0  0  0  0
 24 19  1  0  0  0  0
 25 24  1  0  0  0  0
 26 25  2  0  0  0  0
 27 26  1  0  0  0  0
 27 22  2  0  0  0  0
 28 22  1  0  0  0  0
 30 26  1  0  0  0  0
 31 33  1  0  0  0  0
 33 32  2  6  0  0  0
 33 36  1  0  0  0  0
 33 34  1  0  0  0  0
 34 35  1  0  0  0  0
 36 37  1  0  0  0  0
 37 38  1  0  0  0  0
 38 39  1  0  0  0  0
 40 38  2  0  0  0  0
 41 40  1  0  0  0  0
 42 47  1  0  0  0  0
 42 41  2  0  0  0  0
 43 42  1  0  0  0  0
 44 45  1  0  0  0  0
 44 43  2  0  0  0  0
 45 46  2  0  0  0  0
 46 47  1  0  0  0  0
 47 37  2  0  0  0  0
M  END
>  <minimizedAffinity>
-4.34354639

>  <minimizedRMSD>
1.47570813

$$$$
