
 OpenBabel03252503593D

 36 40  0  0  0  0  0  0  0  0999 V2000
   47.4030   34.8030   42.4930 C   0  0  0  0  0  0  0  0  0  0  0  0
   46.2570   35.4400   42.0430 C   0  0  0  0  0  0  0  0  0  0  0  0
   45.0910   35.2430   42.7640 C   0  0  0  0  0  0  0  0  0  0  0  0
   45.1260   34.4490   43.8610 N   0  0  0  0  0  0  0  0  0  0  0  0
   46.2790   33.8390   44.2700 C   0  0  0  0  0  0  0  0  0  0  0  0
   47.4140   34.0190   43.5830 N   0  0  0  0  0  0  0  0  0  0  0  0
   46.1820   36.0780   41.1790 H   0  0  0  0  0  0  0  0  0  0  0  0
   44.1610   35.7150   42.4620 H   0  0  0  0  0  0  0  0  0  0  0  0
   47.1310   31.8790   45.4290 C   0  0  0  0  0  0  0  0  0  0  0  0
   46.2860   32.9880   45.4550 C   0  0  0  0  0  0  0  0  0  0  0  0
   45.5190   33.2220   46.5670 C   0  0  0  0  0  0  0  0  0  0  0  0
   45.5960   32.3600   47.6350 C   0  0  0  0  0  0  0  0  0  0  0  0
   44.9740   32.3400   48.8310 N   0  0  0  0  0  0  0  0  0  0  0  0
   45.3770   31.2880   49.5550 C   0  0  0  0  0  0  0  0  0  0  0  0
   46.2950   30.5820   48.8260 C   0  0  0  0  0  0  0  0  0  0  0  0
   46.4350   31.2530   47.6170 C   0  0  0  0  0  0  0  0  0  0  0  0
   47.2100   31.0120   46.5000 C   0  0  0  0  0  0  0  0  0  0  0  0
   47.7820   31.6040   44.5930 H   0  0  0  0  0  0  0  0  0  0  0  0
   44.8690   34.0860   46.5710 H   0  0  0  0  0  0  0  0  0  0  0  0
   44.2690   33.0460   49.1630 H   0  0  0  0  0  0  0  0  0  0  0  0
   45.0400   31.0250   50.5590 H   0  0  0  0  0  0  0  0  0  0  0  0
   46.8440   29.6670   49.0810 H   0  0  0  0  0  0  0  0  0  0  0  0
   47.8550   30.1410   46.5150 H   0  0  0  0  0  0  0  0  0  0  0  0
   48.6020   35.0410   41.6960 C   0  0  0  0  0  0  0  0  0  0  0  0
   49.1560   36.1950   41.5810 O   0  0  0  0  0  0  0  0  0  0  0  0
   49.0390   33.7920   41.0800 C   0  0  0  0  0  0  0  0  0  0  0  0
   49.8140   32.8640   41.7840 C   0  0  0  0  0  0  0  0  0  0  0  0
   50.1000   33.0860   42.8220 H   0  0  0  0  0  0  0  0  0  0  0  0
   50.2580   31.6640   41.2710 C   0  0  0  0  0  3  0  0  0  0  0  0
   49.9260   31.3410   39.9770 C   0  0  0  0  0  3  0  0  0  0  0  0
   49.1650   32.2170   39.2310 C   0  0  0  0  0  0  0  0  0  0  0  0
   48.8480   31.8680   37.9350 C   0  0  0  0  0  3  0  0  0  0  0  0
   48.0890   32.7060   37.1390 C   0  0  0  0  0  3  0  0  0  0  0  0
   47.6790   33.8880   37.7140 C   0  0  0  0  0  3  0  0  0  0  0  0
   47.9970   34.2350   39.0110 C   0  0  0  0  0  3  0  0  0  0  0  0
   48.7530   33.4010   39.8050 C   0  0  0  0  0  0  0  0  0  0  0  0
  1  6  1  0  0  0  0
  2  1  2  0  0  0  0
  2  3  1  0  0  0  0
  3  4  2  0  0  0  0
  4  5  1  0  0  0  0
  5 10  1  0  0  0  0
  6  5  2  0  0  0  0
  7  2  1  0  0  0  0
  8  3  1  0  0  0  0
  9 10  2  0  0  0  0
  9 17  1  0  0  0  0
 10 11  1  0  0  0  0
 11 19  1  0  0  0  0
 11 12  2  0  0  0  0
 12 13  1  0  0  0  0
 13 20  1  0  0  0  0
 13 14  1  0  0  0  0
 14 21  1  0  0  0  0
 15 22  1  0  0  0  0
 15 14  2  0  0  0  0
 16 12  1  0  0  0  0
 16 15  1  0  0  0  0
 17 23  1  0  0  0  0
 17 16  2  0  0  0  0
 18  9  1  0  0  0  0
 24  1  1  0  0  0  0
 25 24  2  0  0  0  0
 26 24  1  0  0  0  0
 26 27  1  0  0  0  0
 27 28  1  0  0  0  0
 29 27  2  0  0  0  0
 30 29  1  0  0  0  0
 31 36  1  0  0  0  0
 31 30  2  0  0  0  0
 32 31  1  0  0  0  0
 33 34  1  0  0  0  0
 33 32  2  0  0  0  0
 34 35  2  0  0  0  0
 35 36  1  0  0  0  0
 36 26  2  0  0  0  0
M  END
>  <minimizedAffinity>
-6.85273457

>  <minimizedRMSD>
1.34478128

$$$$
