
 OpenBabel03252507463D

 39 42  0  0  0  0  0  0  0  0999 V2000
   48.4430   33.8370   41.4110 C   0  0  0  0  0  0  0  0  0  0  0  0
   49.0460   32.6670   40.9830 C   0  0  0  0  0  0  0  0  0  0  0  0
   50.3450   32.3570   41.3650 C   0  0  0  0  0  0  0  0  0  0  0  0
   50.9820   33.2690   42.1850 N   0  0  0  0  0  0  0  0  0  0  0  0
   50.3580   34.3960   42.5800 C   0  0  0  0  0  0  0  0  0  0  0  0
   49.1170   34.6690   42.2000 N   0  0  0  0  0  0  0  0  0  0  0  0
   50.8260   31.4460   41.0370 H   0  0  0  0  0  0  0  0  0  0  0  0
   50.9620   35.0370   43.2230 H   0  0  0  0  0  0  0  0  0  0  0  0
   47.0630   34.0770   40.9500 C   0  0  0  0  0  0  0  0  0  0  0  0
   47.0720   34.4970   39.9040 H   0  0  0  0  0  0  0  0  0  0  0  0
   46.4840   33.1450   40.8770 H   0  0  0  0  0  0  0  0  0  0  0  0
   46.2880   35.0000   41.8360 C   0  0  0  0  0  0  0  0  0  0  0  0
   46.6170   36.0270   41.6720 H   0  0  0  0  0  0  0  0  0  0  0  0
   46.5110   34.7610   42.9150 H   0  0  0  0  0  0  0  0  0  0  0  0
   44.8190   34.9250   41.6390 C   0  0  0  0  0  0  0  0  0  0  0  0
   43.9420   35.3620   42.6910 C   0  0  0  0  0  0  0  0  0  0  0  0
   42.2750   35.0700   41.9660 S   0  0  0  0  0  0  0  0  0  0  0  0
   43.0490   34.4070   40.3650 C   0  0  0  0  0  0  0  0  0  0  0  0
   44.1610   34.4990   40.5970 N   0  0  0  0  0  0  0  0  0  0  0  0
   44.2340   35.7580   43.6560 H   0  0  0  0  0  0  0  0  0  0  0  0
   42.2870   33.9680   39.2910 O   0  0  0  0  0  0  0  0  0  0  0  0
   40.3460   34.4950   37.5560 O   0  0  0  0  0  0  0  0  0  0  0  0
   41.4530   35.1550   38.3840 P   0  0  0  0  0  0  0  0  0  0  0  0
   40.7510   36.2430   39.4810 O   0  0  0  0  0  0  0  0  0  0  0  0
   39.8520   35.9080   39.7000 H   0  0  0  0  0  0  0  0  0  0  0  0
   42.5420   35.9870   37.3960 O   0  0  0  0  0  0  0  0  0  0  0  0
   42.6690   36.9230   37.6650 H   0  0  0  0  0  0  0  0  0  0  0  0
   48.1630   31.5230   39.9220 S   0  0  0  0  0  0  0  0  0  0  0  0
   48.3830   31.8850   38.2110 C   0  0  0  0  0  0  0  0  0  0  0  0
   47.5580   32.7500   37.5220 C   0  0  0  0  0  0  0  0  0  0  0  0
   46.7440   33.2240   38.0580 H   0  0  0  0  0  0  0  0  0  0  0  0
   47.7730   32.9930   36.1990 C   0  0  0  0  0  3  0  0  0  0  0  0
   48.8240   32.3780   35.5190 C   0  0  0  0  0  3  0  0  0  0  0  0
   49.6450   31.5080   36.2320 C   0  0  0  0  0  0  0  0  0  0  0  0
   50.6930   30.8900   35.5620 C   0  0  0  0  0  3  0  0  0  0  0  0
   51.5360   30.0210   36.2210 C   0  0  0  0  0  3  0  0  0  0  0  0
   51.3370   29.7530   37.5770 C   0  0  0  0  0  3  0  0  0  0  0  0
   50.2800   30.3810   38.2340 C   0  0  0  0  0  3  0  0  0  0  0  0
   49.4360   31.2480   37.5880 C   0  0  0  0  0  0  0  0  0  0  0  0
  1  6  1  0  0  0  0
  2  3  1  0  0  0  0
  2  1  2  0  0  0  0
  3  4  2  0  0  0  0
  4  5  1  0  0  0  0
  5  8  1  0  0  0  0
  6  5  2  0  0  0  0
  7  3  1  0  0  0  0
  9  1  1  0  0  0  0
  9 12  1  0  0  0  0
 10  9  1  0  0  0  0
 11  9  1  0  0  0  0
 12 14  1  0  0  0  0
 13 12  1  0  0  0  0
 15 12  1  0  0  0  0
 15 16  2  0  0  0  0
 16 20  1  0  0  0  0
 17 16  1  0  0  0  0
 18 19  2  0  0  0  0
 18 17  1  0  0  0  0
 19 15  1  0  0  0  0
 21 18  1  0  0  0  0
 22 23  2  0  0  0  0
 23 21  1  0  0  0  0
 23 24  1  0  0  0  0
 24 25  1  0  0  0  0
 26 27  1  0  0  0  0
 26 23  1  0  0  0  0
 28  2  1  0  0  0  0
 29 28  1  0  0  0  0
 30 31  1  0  0  0  0
 30 29  2  0  0  0  0
 32 30  1  0  0  0  0
 33 32  2  0  0  0  0
 33 34  1  0  0  0  0
 34 39  1  0  0  0  0
 35 36  1  0  0  0  0
 35 34  2  0  0  0  0
 36 37  2  0  0  0  0
 37 38  1  0  0  0  0
 39 29  1  0  0  0  0
 39 38  2  0  0  0  0
M  END
>  <minimizedAffinity>
-5.13504505

>  <minimizedRMSD>
0.522961378

$$$$
