
 OpenBabel03252509003D

 47 50  0  0  1  0  0  0  0  0999 V2000
   46.7590   34.3380   43.6350 N   0  0  0  0  0  0  0  0  0  0  0  0
   46.4800   35.1090   42.4780 C   0  0  0  0  0  0  0  0  0  0  0  0
   45.0100   35.2680   42.1550 C   0  0  0  0  0  0  0  0  0  0  0  0
   44.1080   35.3160   43.3650 C   0  0  0  0  0  0  0  0  0  0  0  0
   44.9010   35.3020   44.6490 C   0  0  0  0  0  0  0  0  0  0  0  0
   45.7610   33.9910   44.5290 C   0  0  2  0  0  0  0  0  0  0  0  0
   46.8410   36.1470   42.6890 H   0  0  0  0  0  0  0  0  0  0  0  0
   46.9920   34.8000   41.5670 H   0  0  0  0  0  0  0  0  0  0  0  0
   44.7280   34.4820   41.4190 H   0  0  0  0  0  0  0  0  0  0  0  0
   44.8610   36.2290   41.6130 H   0  0  0  0  0  0  0  0  0  0  0  0
   43.3720   36.1530   43.3270 H   0  0  0  0  0  0  0  0  0  0  0  0
   43.5090   34.3790   43.3620 H   0  0  0  0  0  0  0  0  0  0  0  0
   45.6000   36.1290   44.7580 H   0  0  0  0  0  0  0  0  0  0  0  0
   44.1940   35.1420   45.4700 H   0  0  0  0  0  0  0  0  0  0  0  0
   45.0610   33.1700   44.2280 H   0  0  0  0  0  0  0  0  0  0  0  0
   47.8990   33.4810   43.5050 C   0  0  0  0  0  0  0  0  0  0  0  0
   48.1150   32.9550   44.4760 H   0  0  0  0  0  0  0  0  0  0  0  0
   48.7580   34.1020   43.2070 H   0  0  0  0  0  0  0  0  0  0  0  0
   47.6040   32.4280   42.4900 C   0  0  0  0  0  0  0  0  0  0  0  0
   47.1930   31.4890   42.8870 H   0  0  0  0  0  0  0  0  0  0  0  0
   46.8500   32.7950   41.7520 H   0  0  0  0  0  0  0  0  0  0  0  0
   51.2140   32.2350   41.4730 C   0  0  0  0  0  0  0  0  0  0  0  0
   50.0510   32.4930   42.2230 C   0  0  0  0  0  0  0  0  0  0  0  0
   48.8290   32.1540   41.6950 C   0  0  0  0  0  0  0  0  0  0  0  0
   48.8090   31.5870   40.4800 N   0  0  0  0  0  0  0  0  0  0  0  0
   49.9370   31.3470   39.7760 C   0  0  0  0  0  0  0  0  0  0  0  0
   51.1430   31.6680   40.2660 N   0  0  0  0  0  0  0  0  0  0  0  0
   52.1180   32.5520   42.0030 H   0  0  0  0  0  0  0  0  0  0  0  0
   50.0750   32.9550   43.2120 H   0  0  0  0  0  0  0  0  0  0  0  0
   49.9100   30.8870   38.7880 H   0  0  0  0  0  0  0  0  0  0  0  0
   46.2460   33.8570   45.8210 O   0  0  0  0  0  0  0  0  0  0  0  0
   45.7040   31.3060   45.2980 O   0  0  0  0  0  0  0  0  0  0  0  0
   46.1490   32.2780   46.3940 P   0  0  2  0  0  0  0  0  0  0  0  0
   44.8640   32.2650   47.5270 O   0  0  0  0  0  0  0  0  0  0  0  0
   45.0860   32.9850   48.1590 H   0  0  0  0  0  0  0  0  0  0  0  0
   47.5250   31.8010   47.1800 O   0  0  0  0  0  0  0  0  0  0  0  0
   47.9880   30.5410   47.4220 C   0  0  0  0  0  0  0  0  0  0  0  0
   47.6750   29.3730   46.7400 C   0  0  0  0  0  0  0  0  0  0  0  0
   46.9770   29.5220   45.9290 H   0  0  0  0  0  0  0  0  0  0  0  0
   48.2530   28.1780   47.1390 C   0  0  0  0  0  3  0  0  0  0  0  0
   49.1240   28.1390   48.1910 C   0  0  0  0  0  3  0  0  0  0  0  0
   49.4540   29.2700   48.8820 C   0  0  0  0  0  0  0  0  0  0  0  0
   50.3340   29.1800   49.9310 C   0  0  0  0  0  3  0  0  0  0  0  0
   50.6800   30.3070   50.6410 C   0  0  0  0  0  3  0  0  0  0  0  0
   50.1310   31.5230   50.2850 C   0  0  0  0  0  3  0  0  0  0  0  0
   49.2620   31.5770   49.2390 C   0  0  0  0  0  3  0  0  0  0  0  0
   48.8770   30.4750   48.4870 C   0  0  0  0  0  0  0  0  0  0  0  0
  1  6  1  0  0  0  0
  2  7  1  0  0  0  0
  2  1  1  0  0  0  0
  3  2  1  0  0  0  0
  3  4  1  0  0  0  0
  4  5  1  0  0  0  0
  5 13  1  0  0  0  0
  5 14  1  0  0  0  0
  6 15  1  6  0  0  0
  6  5  1  0  0  0  0
  6 31  1  0  0  0  0
  8  2  1  0  0  0  0
  9  3  1  0  0  0  0
 10  3  1  0  0  0  0
 11  4  1  0  0  0  0
 12  4  1  0  0  0  0
 16  1  1  0  0  0  0
 16 17  1  0  0  0  0
 18 16  1  0  0  0  0
 19 20  1  0  0  0  0
 19 16  1  0  0  0  0
 21 19  1  0  0  0  0
 22 28  1  0  0  0  0
 22 23  1  0  0  0  0
 23 29  1  0  0  0  0
 24 23  2  0  0  0  0
 24 19  1  0  0  0  0
 25 24  1  0  0  0  0
 26 27  1  0  0  0  0
 26 25  2  0  0  0  0
 27 22  2  0  0  0  0
 30 26  1  0  0  0  0
 31 33  1  0  0  0  0
 33 32  2  6  0  0  0
 33 36  1  0  0  0  0
 33 34  1  0  0  0  0
 34 35  1  0  0  0  0
 36 37  1  0  0  0  0
 37 47  1  0  0  0  0
 38 40  1  0  0  0  0
 38 37  2  0  0  0  0
 39 38  1  0  0  0  0
 40 41  2  0  0  0  0
 41 42  1  0  0  0  0
 42 43  1  0  0  0  0
 43 44  2  0  0  0  0
 45 44  1  0  0  0  0
 46 45  2  0  0  0  0
 47 42  2  0  0  0  0
 47 46  1  0  0  0  0
M  END
>  <minimizedAffinity>
-5.66982794

>  <minimizedRMSD>
2.55332041

$$$$
