
 OpenBabel03252506343D

 35 38  0  0  1  0  0  0  0  0999 V2000
   44.4710   35.8920   45.0190 C   0  0  0  0  0  0  0  0  0  0  0  0
   45.0700   35.8490   43.7490 C   0  0  0  0  0  0  0  0  0  0  0  0
   45.9090   34.8200   43.4470 C   0  0  0  0  0  0  0  0  0  0  0  0
   46.1110   33.8920   44.4120 N   0  0  0  0  0  0  0  0  0  0  0  0
   45.5450   33.9330   45.6110 C   0  0  0  0  0  0  0  0  0  0  0  0
   44.7120   34.9350   45.9410 N   0  0  0  0  0  0  0  0  0  0  0  0
   45.8440   32.8970   46.5290 N   0  0  0  0  0  0  0  0  0  0  0  0
   45.0900   32.6510   47.7650 C   0  0  0  0  0  0  0  0  0  0  0  0
   46.1920   32.2480   48.7230 C   0  0  0  0  0  0  0  0  0  0  0  0
   47.4250   32.0100   47.8960 C   0  0  0  0  0  0  0  0  0  0  0  0
   46.8670   31.8990   46.5030 C   0  0  1  0  0  0  0  0  0  0  0  0
   43.7970   36.6780   45.3250 H   0  0  0  0  0  0  0  0  0  0  0  0
   46.3670   34.7900   42.4680 H   0  0  0  0  0  0  0  0  0  0  0  0
   44.6010   33.6010   48.0750 H   0  0  0  0  0  0  0  0  0  0  0  0
   44.3460   31.8380   47.6060 H   0  0  0  0  0  0  0  0  0  0  0  0
   46.3910   33.1390   49.3760 H   0  0  0  0  0  0  0  0  0  0  0  0
   45.9340   31.4170   49.3800 H   0  0  0  0  0  0  0  0  0  0  0  0
   48.1020   32.9090   47.9160 H   0  0  0  0  0  0  0  0  0  0  0  0
   48.0000   31.1210   48.1740 H   0  0  0  0  0  0  0  0  0  0  0  0
   47.6100   32.1760   45.7260 H   0  0  0  0  0  0  0  0  0  0  0  0
   44.7400   36.9190   42.8510 N   0  0  0  0  0  0  0  0  0  0  0  0
   43.9320   36.5340   42.3110 H   0  0  0  0  0  0  0  0  0  0  0  0
   45.1880   37.8380   42.7620 H   0  0  0  0  0  0  0  0  0  0  0  0
   46.2010   30.2340   46.2540 S   0  0  0  0  0  0  0  0  0  0  0  0
   47.3930   29.0090   46.7280 C   0  0  0  0  0  0  0  0  0  0  0  0
   48.7310   29.3160   46.4700 C   0  0  0  0  0  0  0  0  0  0  0  0
   49.1130   30.2330   46.0050 H   0  0  0  0  0  0  0  0  0  0  0  0
   49.7140   28.3910   46.8210 C   0  0  0  0  0  3  0  0  0  0  0  0
   49.4020   27.1910   47.4130 C   0  0  0  0  0  3  0  0  0  0  0  0
   48.0610   26.9070   47.6620 C   0  0  0  0  0  0  0  0  0  0  0  0
   47.7300   25.6950   48.2610 C   0  0  0  0  0  3  0  0  0  0  0  0
   46.3800   25.4780   48.4780 C   0  0  0  0  0  3  0  0  0  0  0  0
   45.3620   26.3560   48.1520 C   0  0  0  0  0  3  0  0  0  0  0  0
   45.7770   27.5250   47.5670 C   0  0  0  0  0  3  0  0  0  0  0  0
   47.0840   27.8030   47.3230 C   0  0  0  0  0  0  0  0  0  0  0  0
  1 12  1  0  0  0  0
  1  6  1  0  0  0  0
  2  1  2  0  0  0  0
  3  2  1  0  0  0  0
  3  4  2  0  0  0  0
  4  5  1  0  0  0  0
  5  6  2  0  0  0  0
  5  7  1  0  0  0  0
  7  8  1  0  0  0  0
  8 14  1  0  0  0  0
  8  9  1  0  0  0  0
  9 16  1  0  0  0  0
  9 17  1  0  0  0  0
 10 18  1  0  0  0  0
 10 19  1  0  0  0  0
 10  9  1  0  0  0  0
 11 20  1  6  0  0  0
 11  7  1  0  0  0  0
 11 10  1  0  0  0  0
 13  3  1  0  0  0  0
 15  8  1  0  0  0  0
 21  2  1  0  0  0  0
 22 21  1  0  0  0  0
 23 21  1  0  0  0  0
 24 11  1  0  0  0  0
 24 25  1  0  0  0  0
 25 35  1  0  0  0  0
 26 25  2  0  0  0  0
 26 28  1  0  0  0  0
 27 26  1  0  0  0  0
 28 29  2  0  0  0  0
 29 30  1  0  0  0  0
 30 31  1  0  0  0  0
 31 32  2  0  0  0  0
 33 32  1  0  0  0  0
 34 33  2  0  0  0  0
 35 34  1  0  0  0  0
 35 30  2  0  0  0  0
M  END
>  <minimizedAffinity>
-5.89401722

>  <minimizedRMSD>
0.929024696

$$$$
