
 OpenBabel03242522483D

 43 47  0  0  0  0  0  0  0  0999 V2000
   35.7690   30.4090   39.9910 C   0  0  0  0  0  0  0  0  0  0  0  0
   36.7150   30.9490   39.1070 C   0  0  0  0  0  0  0  0  0  0  0  0
   36.7300   30.5090   37.7530 C   0  0  0  0  0  0  0  0  0  0  0  0
   35.8210   29.5830   37.3850 N   0  0  0  0  0  0  0  0  0  0  0  0
   34.9190   29.0790   38.2620 C   0  0  0  0  0  0  0  0  0  0  0  0
   34.9070   29.4910   39.5270 N   0  0  0  0  0  0  0  0  0  0  0  0
   35.7560   30.8620   41.3130 N   0  0  0  0  0  0  0  0  0  0  0  0
   37.4550   30.9260   37.0830 H   0  0  0  0  0  0  0  0  0  0  0  0
   34.9790   31.5610   41.5170 H   0  0  0  0  0  0  0  0  0  0  0  0
   36.4060   30.6010   42.1080 H   0  0  0  0  0  0  0  0  0  0  0  0
   37.6970   31.9360   39.5020 C   0  0  0  0  0  0  0  0  0  0  0  0
   37.4950   33.2980   39.7050 C   0  0  0  0  0  0  0  0  0  0  0  0
   38.5470   34.1120   40.0780 C   0  0  0  0  0  0  0  0  0  0  0  0
   39.8400   33.6060   40.2640 C   0  0  0  0  0  0  0  0  0  0  0  0
   40.7950   34.4690   40.6250 N   0  0  0  0  0  0  0  0  0  0  0  0
   42.0720   33.9930   40.8130 C   0  0  0  0  0  0  0  0  0  0  0  0
   42.2730   32.6350   40.6100 C   0  0  0  0  0  0  0  0  0  0  0  0
   41.2910   31.7480   40.2390 C   0  0  0  0  0  0  0  0  0  0  0  0
   40.0200   32.2540   40.0570 C   0  0  0  0  0  0  0  0  0  0  0  0
   38.9690   31.4290   39.6830 C   0  0  0  0  0  0  0  0  0  0  0  0
   36.4830   33.6400   39.5500 H   0  0  0  0  0  0  0  0  0  0  0  0
   38.3070   35.1590   40.2170 H   0  0  0  0  0  0  0  0  0  0  0  0
   42.8770   34.6480   41.1040 H   0  0  0  0  0  0  0  0  0  0  0  0
   43.2930   32.3170   40.7700 H   0  0  0  0  0  0  0  0  0  0  0  0
   41.5180   30.7000   40.0980 H   0  0  0  0  0  0  0  0  0  0  0  0
   39.2230   30.3940   39.5510 H   0  0  0  0  0  0  0  0  0  0  0  0
   33.9330   28.0660   37.7540 C   0  0  0  0  0  0  0  0  0  0  0  0
   34.4240   27.1440   37.4360 H   0  0  0  0  0  0  0  0  0  0  0  0
   33.2310   27.7950   38.5670 H   0  0  0  0  0  0  0  0  0  0  0  0
   33.0980   28.6880   36.6600 C   0  0  0  0  0  0  0  0  0  0  0  0
   32.7850   27.8730   35.9680 H   0  0  0  0  0  0  0  0  0  0  0  0
   33.8260   29.2960   36.0460 H   0  0  0  0  0  0  0  0  0  0  0  0
   31.9850   29.5140   37.1030 C   0  0  0  0  0  0  0  0  0  0  0  0
   31.3230   29.5540   38.2910 C   0  0  0  0  0  0  0  0  0  0  0  0
   31.6510   28.8690   39.0600 H   0  0  0  0  0  0  0  0  0  0  0  0
   30.2880   30.4050   38.5970 C   0  0  0  0  0  3  0  0  0  0  0  0
   29.8510   31.3010   37.6700 C   0  0  0  0  0  3  0  0  0  0  0  0
   30.4950   31.3040   36.4370 C   0  0  0  0  0  0  0  0  0  0  0  0
   30.0150   32.2420   35.5360 C   0  0  0  0  0  3  0  0  0  0  0  0
   30.5940   32.3290   34.2880 C   0  0  0  0  0  3  0  0  0  0  0  0
   31.6350   31.4870   33.9520 C   0  0  0  0  0  3  0  0  0  0  0  0
   32.0550   30.5810   34.9030 C   0  0  0  0  0  3  0  0  0  0  0  0
   31.5290   30.4350   36.1670 C   0  0  0  0  0  0  0  0  0  0  0  0
  1  7  1  0  0  0  0
  2 11  1  0  0  0  0
  2  1  2  0  0  0  0
  3  2  1  0  0  0  0
  4  3  2  0  0  0  0
  4  5  1  0  0  0  0
  5  6  2  0  0  0  0
  6  1  1  0  0  0  0
  7  9  1  0  0  0  0
  7 10  1  0  0  0  0
  8  3  1  0  0  0  0
 11 20  2  0  0  0  0
 11 12  1  0  0  0  0
 12 13  2  0  0  0  0
 13 22  1  0  0  0  0
 13 14  1  0  0  0  0
 14 15  1  0  0  0  0
 15 16  2  0  0  0  0
 16 23  1  0  0  0  0
 17 24  1  0  0  0  0
 17 16  1  0  0  0  0
 18 17  2  0  0  0  0
 19 18  1  0  0  0  0
 19 14  2  0  0  0  0
 20 19  1  0  0  0  0
 21 12  1  0  0  0  0
 25 18  1  0  0  0  0
 26 20  1  0  0  0  0
 27  5  1  0  0  0  0
 27 29  1  0  0  0  0
 28 27  1  0  0  0  0
 30 33  1  0  0  0  0
 30 27  1  0  0  0  0
 31 30  1  0  0  0  0
 32 30  1  0  0  0  0
 33 34  1  0  0  0  0
 34 36  2  0  0  0  0
 34 35  1  0  0  0  0
 37 36  1  0  0  0  0
 38 37  2  0  0  0  0
 39 38  1  0  0  0  0
 40 39  2  0  0  0  0
 41 40  1  0  0  0  0
 41 42  2  0  0  0  0
 42 43  1  0  0  0  0
 43 38  1  0  0  0  0
 43 33  2  0  0  0  0
M  END
>  <minimizedAffinity>
-7.59614992

$$$$

 OpenBabel03242522483D

 43 47  0  0  0  0  0  0  0  0999 V2000
   37.0510   31.2620   40.9390 C   0  0  0  0  0  0  0  0  0  0  0  0
   38.0290   30.2680   41.0870 C   0  0  0  0  0  0  0  0  0  0  0  0
   39.3910   30.5890   40.8230 C   0  0  0  0  0  0  0  0  0  0  0  0
   39.6730   31.8510   40.4380 N   0  0  0  0  0  0  0  0  0  0  0  0
   38.7060   32.7900   40.3020 C   0  0  0  0  0  0  0  0  0  0  0  0
   37.4340   32.4880   40.5500 N   0  0  0  0  0  0  0  0  0  0  0  0
   35.7210   30.9360   41.2180 N   0  0  0  0  0  0  0  0  0  0  0  0
   40.1330   29.8250   40.9390 H   0  0  0  0  0  0  0  0  0  0  0  0
   35.3850   31.2880   42.1650 H   0  0  0  0  0  0  0  0  0  0  0  0
   35.0320   30.3980   40.6180 H   0  0  0  0  0  0  0  0  0  0  0  0
   37.7280   28.9110   41.4910 C   0  0  0  0  0  0  0  0  0  0  0  0
   37.6610   28.4080   42.7870 C   0  0  0  0  0  0  0  0  0  0  0  0
   37.3640   27.0770   43.0060 C   0  0  0  0  0  0  0  0  0  0  0  0
   37.1200   26.1930   41.9460 C   0  0  0  0  0  0  0  0  0  0  0  0
   36.8390   24.9230   42.2540 N   0  0  0  0  0  0  0  0  0  0  0  0
   36.5970   24.0390   41.2280 C   0  0  0  0  0  0  0  0  0  0  0  0
   36.6640   24.5410   39.9360 C   0  0  0  0  0  0  0  0  0  0  0  0
   36.9520   25.8470   39.6200 C   0  0  0  0  0  0  0  0  0  0  0  0
   37.1910   26.7110   40.6690 C   0  0  0  0  0  0  0  0  0  0  0  0
   37.4890   28.0470   40.4410 C   0  0  0  0  0  0  0  0  0  0  0  0
   37.8560   29.1270   43.5700 H   0  0  0  0  0  0  0  0  0  0  0  0
   37.3300   26.7650   44.0420 H   0  0  0  0  0  0  0  0  0  0  0  0
   36.3670   23.0040   41.4240 H   0  0  0  0  0  0  0  0  0  0  0  0
   36.4670   23.8030   39.1720 H   0  0  0  0  0  0  0  0  0  0  0  0
   36.9870   26.1710   38.5890 H   0  0  0  0  0  0  0  0  0  0  0  0
   37.5170   28.3400   39.4090 H   0  0  0  0  0  0  0  0  0  0  0  0
   39.1210   34.1730   39.8880 C   0  0  0  0  0  0  0  0  0  0  0  0
   39.1150   34.2920   38.8030 H   0  0  0  0  0  0  0  0  0  0  0  0
   38.4030   34.9110   40.2980 H   0  0  0  0  0  0  0  0  0  0  0  0
   40.4620   34.4960   40.5020 C   0  0  0  0  0  0  0  0  0  0  0  0
   40.5460   33.9210   41.4540 H   0  0  0  0  0  0  0  0  0  0  0  0
   40.3760   35.5690   40.8450 H   0  0  0  0  0  0  0  0  0  0  0  0
   41.6170   34.3250   39.6340 C   0  0  0  0  0  0  0  0  0  0  0  0
   41.7020   34.1870   38.2830 C   0  0  0  0  0  0  0  0  0  0  0  0
   40.7750   34.2000   37.7270 H   0  0  0  0  0  0  0  0  0  0  0  0
   42.8690   34.0510   37.5700 C   0  0  0  0  0  3  0  0  0  0  0  0
   44.0650   34.0490   38.2210 C   0  0  0  0  0  3  0  0  0  0  0  0
   44.0350   34.1890   39.6040 C   0  0  0  0  0  0  0  0  0  0  0  0
   45.2800   34.1890   40.2130 C   0  0  0  0  0  3  0  0  0  0  0  0
   45.3570   34.3300   41.5820 C   0  0  0  0  0  3  0  0  0  0  0  0
   44.2020   34.4670   42.3250 C   0  0  0  0  0  3  0  0  0  0  0  0
   43.0020   34.4570   41.6460 C   0  0  0  0  0  3  0  0  0  0  0  0
   42.8450   34.3210   40.2840 C   0  0  0  0  0  0  0  0  0  0  0  0
  1  2  1  0  0  0  0
  1  7  1  0  0  0  0
  2 11  1  0  0  0  0
  3  8  1  0  0  0  0
  3  2  2  0  0  0  0
  4  3  1  0  0  0  0
  5  4  2  0  0  0  0
  5  6  1  0  0  0  0
  6  1  2  0  0  0  0
  7  9  1  0  0  0  0
 10  7  1  0  0  0  0
 11 12  1  0  0  0  0
 12 13  2  0  0  0  0
 12 21  1  0  0  0  0
 13 22  1  0  0  0  0
 14 15  1  0  0  0  0
 14 13  1  0  0  0  0
 16 23  1  0  0  0  0
 16 15  2  0  0  0  0
 17 16  1  0  0  0  0
 18 17  2  0  0  0  0
 18 19  1  0  0  0  0
 19 14  2  0  0  0  0
 20 19  1  0  0  0  0
 20 11  2  0  0  0  0
 24 17  1  0  0  0  0
 25 18  1  0  0  0  0
 26 20  1  0  0  0  0
 27 29  1  0  0  0  0
 27  5  1  0  0  0  0
 27 30  1  0  0  0  0
 28 27  1  0  0  0  0
 30 32  1  0  0  0  0
 30 31  1  0  0  0  0
 33 43  1  0  0  0  0
 33 30  1  0  0  0  0
 34 33  2  0  0  0  0
 35 34  1  0  0  0  0
 36 37  2  0  0  0  0
 36 34  1  0  0  0  0
 37 38  1  0  0  0  0
 38 39  2  0  0  0  0
 38 43  1  0  0  0  0
 39 40  1  0  0  0  0
 40 41  2  0  0  0  0
 42 41  1  0  0  0  0
 43 42  2  0  0  0  0
M  END
>  <minimizedAffinity>
-7.34278536

$$$$

 OpenBabel03242522483D

 43 47  0  0  0  0  0  0  0  0999 V2000
   38.8220   32.9760   40.6220 C   0  0  0  0  0  0  0  0  0  0  0  0
   40.0730   32.4020   40.3510 C   0  0  0  0  0  0  0  0  0  0  0  0
   40.1380   31.2240   39.5540 C   0  0  0  0  0  0  0  0  0  0  0  0
   38.9760   30.7130   39.0950 N   0  0  0  0  0  0  0  0  0  0  0  0
   37.7820   31.2910   39.3740 C   0  0  0  0  0  0  0  0  0  0  0  0
   37.7240   32.3920   40.1190 N   0  0  0  0  0  0  0  0  0  0  0  0
   38.7760   34.1410   41.3920 N   0  0  0  0  0  0  0  0  0  0  0  0
   41.0960   30.7900   39.3500 H   0  0  0  0  0  0  0  0  0  0  0  0
   38.6280   35.0260   40.8190 H   0  0  0  0  0  0  0  0  0  0  0  0
   38.8680   34.2430   42.4430 H   0  0  0  0  0  0  0  0  0  0  0  0
   41.3190   32.9420   40.8500 C   0  0  0  0  0  0  0  0  0  0  0  0
   41.9440   34.1240   40.4660 C   0  0  0  0  0  0  0  0  0  0  0  0
   43.1440   34.4990   41.0400 C   0  0  0  0  0  0  0  0  0  0  0  0
   43.7690   33.7140   42.0180 C   0  0  0  0  0  0  0  0  0  0  0  0
   44.9280   34.1570   42.5170 N   0  0  0  0  0  0  0  0  0  0  0  0
   45.5590   33.4010   43.4780 C   0  0  0  0  0  0  0  0  0  0  0  0
   44.9350   32.2220   43.8600 C   0  0  0  0  0  0  0  0  0  0  0  0
   43.7440   31.7670   43.3470 C   0  0  0  0  0  0  0  0  0  0  0  0
   43.1340   32.5450   42.3850 C   0  0  0  0  0  0  0  0  0  0  0  0
   41.9290   32.1620   41.8130 C   0  0  0  0  0  0  0  0  0  0  0  0
   41.4240   34.6950   39.7110 H   0  0  0  0  0  0  0  0  0  0  0  0
   43.5650   35.4320   40.6880 H   0  0  0  0  0  0  0  0  0  0  0  0
   46.4950   33.7140   43.9110 H   0  0  0  0  0  0  0  0  0  0  0  0
   45.4750   31.6690   44.6160 H   0  0  0  0  0  0  0  0  0  0  0  0
   43.3130   30.8370   43.6930 H   0  0  0  0  0  0  0  0  0  0  0  0
   41.5250   31.2350   42.1750 H   0  0  0  0  0  0  0  0  0  0  0  0
   36.5450   30.6600   38.8010 C   0  0  0  0  0  0  0  0  0  0  0  0
   35.9020   31.3950   38.3130 H   0  0  0  0  0  0  0  0  0  0  0  0
   36.8330   29.9200   38.0300 H   0  0  0  0  0  0  0  0  0  0  0  0
   35.8300   29.8900   39.8860 C   0  0  0  0  0  0  0  0  0  0  0  0
   34.7340   30.0310   39.7360 H   0  0  0  0  0  0  0  0  0  0  0  0
   36.0450   30.4580   40.8380 H   0  0  0  0  0  0  0  0  0  0  0  0
   36.2070   28.4910   40.0250 C   0  0  0  0  0  0  0  0  0  0  0  0
   36.0790   27.4450   39.1650 C   0  0  0  0  0  0  0  0  0  0  0  0
   35.6230   27.6490   38.2060 H   0  0  0  0  0  0  0  0  0  0  0  0
   36.4980   26.1590   39.4090 C   0  0  0  0  0  3  0  0  0  0  0  0
   37.0970   25.8550   40.5930 C   0  0  0  0  0  3  0  0  0  0  0  0
   37.2550   26.8890   41.5090 C   0  0  0  0  0  0  0  0  0  0  0  0
   37.8780   26.5240   42.6920 C   0  0  0  0  0  3  0  0  0  0  0  0
   38.0880   27.4820   43.6620 C   0  0  0  0  0  3  0  0  0  0  0  0
   37.6770   28.7810   43.4450 C   0  0  0  0  0  3  0  0  0  0  0  0
   37.0640   29.0650   42.2430 C   0  0  0  0  0  3  0  0  0  0  0  0
   36.8200   28.1660   41.2290 C   0  0  0  0  0  0  0  0  0  0  0  0
  1  7  1  0  0  0  0
  2  1  1  0  0  0  0
  2 11  1  0  0  0  0
  3  2  2  0  0  0  0
  4  5  2  0  0  0  0
  4  3  1  0  0  0  0
  5  6  1  0  0  0  0
  6  1  2  0  0  0  0
  7 10  1  0  0  0  0
  8  3  1  0  0  0  0
  9  7  1  0  0  0  0
 11 20  1  0  0  0  0
 12 11  2  0  0  0  0
 12 13  1  0  0  0  0
 13 14  2  0  0  0  0
 14 19  1  0  0  0  0
 14 15  1  0  0  0  0
 15 16  2  0  0  0  0
 16 17  1  0  0  0  0
 16 23  1  0  0  0  0
 17 24  1  0  0  0  0
 18 25  1  0  0  0  0
 18 17  2  0  0  0  0
 19 18  1  0  0  0  0
 20 26  1  0  0  0  0
 20 19  2  0  0  0  0
 21 12  1  0  0  0  0
 22 13  1  0  0  0  0
 27  5  1  0  0  0  0
 27 30  1  0  0  0  0
 28 27  1  0  0  0  0
 29 27  1  0  0  0  0
 30 33  1  0  0  0  0
 30 32  1  0  0  0  0
 31 30  1  0  0  0  0
 33 43  1  0  0  0  0
 34 36  1  0  0  0  0
 34 33  2  0  0  0  0
 35 34  1  0  0  0  0
 36 37  2  0  0  0  0
 37 38  1  0  0  0  0
 38 39  1  0  0  0  0
 39 40  2  0  0  0  0
 41 40  1  0  0  0  0
 42 41  2  0  0  0  0
 43 38  2  0  0  0  0
 43 42  1  0  0  0  0
M  END
>  <minimizedAffinity>
-7.18227291

$$$$

 OpenBabel03242522483D

 43 47  0  0  0  0  0  0  0  0999 V2000
   34.7840   28.9920   38.7290 C   0  0  0  0  0  0  0  0  0  0  0  0
   35.9450   29.5210   38.1450 C   0  0  0  0  0  0  0  0  0  0  0  0
   36.1590   29.3520   36.7480 C   0  0  0  0  0  0  0  0  0  0  0  0
   35.2210   28.6800   36.0480 N   0  0  0  0  0  0  0  0  0  0  0  0
   34.1090   28.1790   36.6400 C   0  0  0  0  0  0  0  0  0  0  0  0
   33.9110   28.3390   37.9460 N   0  0  0  0  0  0  0  0  0  0  0  0
   34.5800   29.1810   40.0980 N   0  0  0  0  0  0  0  0  0  0  0  0
   37.0460   29.7590   36.3090 H   0  0  0  0  0  0  0  0  0  0  0  0
   33.8790   29.9500   40.3230 H   0  0  0  0  0  0  0  0  0  0  0  0
   35.0260   28.6660   40.9100 H   0  0  0  0  0  0  0  0  0  0  0  0
   36.9560   30.2340   38.8960 C   0  0  0  0  0  0  0  0  0  0  0  0
   38.0230   29.6920   39.6060 C   0  0  0  0  0  0  0  0  0  0  0  0
   38.9050   30.5160   40.2790 C   0  0  0  0  0  0  0  0  0  0  0  0
   38.7620   31.9090   40.2720 C   0  0  0  0  0  0  0  0  0  0  0  0
   39.6640   32.6260   40.9520 N   0  0  0  0  0  0  0  0  0  0  0  0
   39.5410   33.9950   40.9590 C   0  0  0  0  0  0  0  0  0  0  0  0
   38.4770   34.5350   40.2520 C   0  0  0  0  0  0  0  0  0  0  0  0
   37.5500   33.7990   39.5530 C   0  0  0  0  0  0  0  0  0  0  0  0
   37.6980   32.4270   39.5630 C   0  0  0  0  0  0  0  0  0  0  0  0
   36.8080   31.6070   38.8850 C   0  0  0  0  0  0  0  0  0  0  0  0
   38.0920   28.6140   39.5800 H   0  0  0  0  0  0  0  0  0  0  0  0
   39.7080   30.0160   40.8060 H   0  0  0  0  0  0  0  0  0  0  0  0
   40.2420   34.6170   41.4920 H   0  0  0  0  0  0  0  0  0  0  0  0
   38.4290   35.6140   40.2930 H   0  0  0  0  0  0  0  0  0  0  0  0
   36.7440   34.2860   39.0210 H   0  0  0  0  0  0  0  0  0  0  0  0
   36.0180   32.1170   38.3660 H   0  0  0  0  0  0  0  0  0  0  0  0
   33.1120   27.4640   35.7730 C   0  0  0  0  0  0  0  0  0  0  0  0
   33.3910   27.4980   34.7180 H   0  0  0  0  0  0  0  0  0  0  0  0
   33.0730   26.3950   36.0630 H   0  0  0  0  0  0  0  0  0  0  0  0
   31.7350   28.0260   36.0310 C   0  0  0  0  0  0  0  0  0  0  0  0
   31.4880   27.8410   37.1030 H   0  0  0  0  0  0  0  0  0  0  0  0
   31.0300   27.3410   35.4730 H   0  0  0  0  0  0  0  0  0  0  0  0
   31.5280   29.4100   35.6330 C   0  0  0  0  0  0  0  0  0  0  0  0
   31.8890   30.0740   34.5020 C   0  0  0  0  0  0  0  0  0  0  0  0
   32.4220   29.5110   33.7490 H   0  0  0  0  0  0  0  0  0  0  0  0
   31.6140   31.3930   34.2320 C   0  0  0  0  0  3  0  0  0  0  0  0
   30.9270   32.1410   35.1390 C   0  0  0  0  0  3  0  0  0  0  0  0
   30.5320   31.5110   36.3140 C   0  0  0  0  0  0  0  0  0  0  0  0
   29.8290   32.3160   37.1950 C   0  0  0  0  0  3  0  0  0  0  0  0
   29.3870   31.7800   38.3860 C   0  0  0  0  0  3  0  0  0  0  0  0
   29.6490   30.4580   38.6840 C   0  0  0  0  0  3  0  0  0  0  0  0
   30.3540   29.7220   37.7560 C   0  0  0  0  0  3  0  0  0  0  0  0
   30.8270   30.1860   36.5480 C   0  0  0  0  0  0  0  0  0  0  0  0
  1  7  1  0  0  0  0
  2  1  1  0  0  0  0
  2 11  1  0  0  0  0
  3  2  2  0  0  0  0
  4  5  2  0  0  0  0
  4  3  1  0  0  0  0
  5  6  1  0  0  0  0
  6  1  2  0  0  0  0
  7  9  1  0  0  0  0
  7 10  1  0  0  0  0
  8  3  1  0  0  0  0
 11 12  1  0  0  0  0
 12 13  2  0  0  0  0
 13 22  1  0  0  0  0
 14 13  1  0  0  0  0
 14 15  1  0  0  0  0
 15 16  2  0  0  0  0
 16 23  1  0  0  0  0
 17 24  1  0  0  0  0
 17 16  1  0  0  0  0
 18 19  1  0  0  0  0
 18 17  2  0  0  0  0
 19 14  2  0  0  0  0
 20 11  2  0  0  0  0
 20 19  1  0  0  0  0
 21 12  1  0  0  0  0
 25 18  1  0  0  0  0
 26 20  1  0  0  0  0
 27 30  1  0  0  0  0
 27 29  1  0  0  0  0
 27  5  1  0  0  0  0
 28 27  1  0  0  0  0
 30 31  1  0  0  0  0
 32 30  1  0  0  0  0
 33 30  1  0  0  0  0
 33 43  1  0  0  0  0
 34 33  2  0  0  0  0
 35 34  1  0  0  0  0
 36 34  1  0  0  0  0
 36 37  2  0  0  0  0
 37 38  1  0  0  0  0
 38 43  2  0  0  0  0
 38 39  1  0  0  0  0
 39 40  2  0  0  0  0
 40 41  1  0  0  0  0
 42 41  2  0  0  0  0
 43 42  1  0  0  0  0
M  END
>  <minimizedAffinity>
-7.13359118

$$$$

 OpenBabel03242522483D

 43 47  0  0  0  0  0  0  0  0999 V2000
   38.8470   31.9880   38.0760 C   0  0  0  0  0  0  0  0  0  0  0  0
   39.9620   32.1280   38.9170 C   0  0  0  0  0  0  0  0  0  0  0  0
   39.8220   31.8510   40.3070 C   0  0  0  0  0  0  0  0  0  0  0  0
   38.6080   31.4620   40.7490 N   0  0  0  0  0  0  0  0  0  0  0  0
   37.5490   31.3360   39.9130 C   0  0  0  0  0  0  0  0  0  0  0  0
   37.6820   31.5960   38.6140 N   0  0  0  0  0  0  0  0  0  0  0  0
   39.0040   32.2480   36.7130 N   0  0  0  0  0  0  0  0  0  0  0  0
   40.6770   31.9590   40.9430 H   0  0  0  0  0  0  0  0  0  0  0  0
   39.0810   31.3690   36.1170 H   0  0  0  0  0  0  0  0  0  0  0  0
   39.0530   33.1850   36.2200 H   0  0  0  0  0  0  0  0  0  0  0  0
   41.2620   32.5530   38.4470 C   0  0  0  0  0  0  0  0  0  0  0  0
   41.7280   33.8570   38.3060 C   0  0  0  0  0  0  0  0  0  0  0  0
   43.0050   34.0960   37.8350 C   0  0  0  0  0  0  0  0  0  0  0  0
   43.8690   33.0500   37.4850 C   0  0  0  0  0  0  0  0  0  0  0  0
   45.0860   33.3770   37.0380 N   0  0  0  0  0  0  0  0  0  0  0  0
   45.9490   32.3650   36.6890 C   0  0  0  0  0  0  0  0  0  0  0  0
   45.4840   31.0650   36.8290 C   0  0  0  0  0  0  0  0  0  0  0  0
   44.2330   30.7290   37.2880 C   0  0  0  0  0  0  0  0  0  0  0  0
   43.3880   31.7650   37.6310 C   0  0  0  0  0  0  0  0  0  0  0  0
   42.1070   31.5160   38.1040 C   0  0  0  0  0  0  0  0  0  0  0  0
   41.0270   34.6280   38.5890 H   0  0  0  0  0  0  0  0  0  0  0  0
   43.2910   35.1370   37.7560 H   0  0  0  0  0  0  0  0  0  0  0  0
   46.9410   32.5770   36.3230 H   0  0  0  0  0  0  0  0  0  0  0  0
   46.2030   30.3130   36.5390 H   0  0  0  0  0  0  0  0  0  0  0  0
   43.9360   29.6930   37.3730 H   0  0  0  0  0  0  0  0  0  0  0  0
   41.8400   30.4790   38.1780 H   0  0  0  0  0  0  0  0  0  0  0  0
   36.2430   30.8790   40.4950 C   0  0  0  0  0  0  0  0  0  0  0  0
   36.1020   31.2410   41.5150 H   0  0  0  0  0  0  0  0  0  0  0  0
   35.4080   31.2840   39.8900 H   0  0  0  0  0  0  0  0  0  0  0  0
   36.1510   29.3750   40.3930 C   0  0  0  0  0  0  0  0  0  0  0  0
   36.6150   29.0720   39.4260 H   0  0  0  0  0  0  0  0  0  0  0  0
   35.0530   29.1580   40.2430 H   0  0  0  0  0  0  0  0  0  0  0  0
   36.6720   28.6280   41.5290 C   0  0  0  0  0  0  0  0  0  0  0  0
   37.0220   29.0370   42.7780 C   0  0  0  0  0  0  0  0  0  0  0  0
   36.9100   30.0890   43.0010 H   0  0  0  0  0  0  0  0  0  0  0  0
   37.4870   28.2200   43.7810 C   0  0  0  0  0  3  0  0  0  0  0  0
   37.6270   26.8850   43.5570 C   0  0  0  0  0  3  0  0  0  0  0  0
   37.2810   26.4130   42.2960 C   0  0  0  0  0  0  0  0  0  0  0  0
   37.4350   25.0460   42.1270 C   0  0  0  0  0  3  0  0  0  0  0  0
   37.1110   24.4800   40.9130 C   0  0  0  0  0  3  0  0  0  0  0  0
   36.6410   25.2750   39.8870 C   0  0  0  0  0  3  0  0  0  0  0  0
   36.5160   26.6260   40.1320 C   0  0  0  0  0  3  0  0  0  0  0  0
   36.8190   27.2630   41.3150 C   0  0  0  0  0  0  0  0  0  0  0  0
  1  6  2  0  0  0  0
  1  2  1  0  0  0  0
  2  3  2  0  0  0  0
  3  4  1  0  0  0  0
  3  8  1  0  0  0  0
  5 27  1  0  0  0  0
  5  4  2  0  0  0  0
  6  5  1  0  0  0  0
  7  1  1  0  0  0  0
  9  7  1  0  0  0  0
 10  7  1  0  0  0  0
 11  2  1  0  0  0  0
 12 11  1  0  0  0  0
 12 21  1  0  0  0  0
 13 12  2  0  0  0  0
 14 19  1  0  0  0  0
 14 13  1  0  0  0  0
 15 14  2  0  0  0  0
 16 17  2  0  0  0  0
 16 15  1  0  0  0  0
 17 18  1  0  0  0  0
 18 25  1  0  0  0  0
 18 19  2  0  0  0  0
 19 20  1  0  0  0  0
 20 26  1  0  0  0  0
 20 11  2  0  0  0  0
 22 13  1  0  0  0  0
 23 16  1  0  0  0  0
 24 17  1  0  0  0  0
 27 28  1  0  0  0  0
 29 27  1  0  0  0  0
 30 27  1  0  0  0  0
 30 33  1  0  0  0  0
 31 30  1  0  0  0  0
 32 30  1  0  0  0  0
 33 34  1  0  0  0  0
 34 35  1  0  0  0  0
 34 36  2  0  0  0  0
 37 36  1  0  0  0  0
 38 37  2  0  0  0  0
 39 38  1  0  0  0  0
 40 39  2  0  0  0  0
 41 42  2  0  0  0  0
 41 40  1  0  0  0  0
 42 43  1  0  0  0  0
 43 33  2  0  0  0  0
 43 38  1  0  0  0  0
M  END
>  <minimizedAffinity>
-7.1216774

$$$$

 OpenBabel03242522483D

 43 47  0  0  0  0  0  0  0  0999 V2000
   36.7150   29.3190   37.5670 C   0  0  0  0  0  0  0  0  0  0  0  0
   36.0950   28.7510   38.6910 C   0  0  0  0  0  0  0  0  0  0  0  0
   34.7630   28.2630   38.5750 C   0  0  0  0  0  0  0  0  0  0  0  0
   34.1570   28.3730   37.3750 N   0  0  0  0  0  0  0  0  0  0  0  0
   34.7810   28.9280   36.3070 C   0  0  0  0  0  0  0  0  0  0  0  0
   36.0270   29.3840   36.4170 N   0  0  0  0  0  0  0  0  0  0  0  0
   38.0290   29.7790   37.6920 N   0  0  0  0  0  0  0  0  0  0  0  0
   34.2950   27.8300   39.4360 H   0  0  0  0  0  0  0  0  0  0  0  0
   38.7530   29.1180   37.2780 H   0  0  0  0  0  0  0  0  0  0  0  0
   38.3750   30.6780   38.1340 H   0  0  0  0  0  0  0  0  0  0  0  0
   36.7390   28.6400   39.9810 C   0  0  0  0  0  0  0  0  0  0  0  0
   36.8120   29.6080   40.9790 C   0  0  0  0  0  0  0  0  0  0  0  0
   37.4740   29.3430   42.1620 C   0  0  0  0  0  0  0  0  0  0  0  0
   38.0900   28.1070   42.4010 C   0  0  0  0  0  0  0  0  0  0  0  0
   38.7070   27.9420   43.5760 N   0  0  0  0  0  0  0  0  0  0  0  0
   39.3180   26.7370   43.8300 C   0  0  0  0  0  0  0  0  0  0  0  0
   39.2460   25.7720   42.8360 C   0  0  0  0  0  0  0  0  0  0  0  0
   38.6120   25.9420   41.6280 C   0  0  0  0  0  0  0  0  0  0  0  0
   38.0070   27.1620   41.4000 C   0  0  0  0  0  0  0  0  0  0  0  0
   37.3440   27.4190   40.2090 C   0  0  0  0  0  0  0  0  0  0  0  0
   36.3220   30.5420   40.7490 H   0  0  0  0  0  0  0  0  0  0  0  0
   37.4840   30.1470   42.8870 H   0  0  0  0  0  0  0  0  0  0  0  0
   39.8290   26.5540   44.7620 H   0  0  0  0  0  0  0  0  0  0  0  0
   39.7440   24.8480   43.0890 H   0  0  0  0  0  0  0  0  0  0  0  0
   38.5930   25.1460   40.8970 H   0  0  0  0  0  0  0  0  0  0  0  0
   37.3420   26.6110   39.5020 H   0  0  0  0  0  0  0  0  0  0  0  0
   34.0320   28.9890   35.0070 C   0  0  0  0  0  0  0  0  0  0  0  0
   34.3260   29.8520   34.4070 H   0  0  0  0  0  0  0  0  0  0  0  0
   34.2600   28.0850   34.4080 H   0  0  0  0  0  0  0  0  0  0  0  0
   32.5480   28.9510   35.2850 C   0  0  0  0  0  0  0  0  0  0  0  0
   32.3990   28.4330   36.2610 H   0  0  0  0  0  0  0  0  0  0  0  0
   32.1270   28.2240   34.5290 H   0  0  0  0  0  0  0  0  0  0  0  0
   31.8550   30.2280   35.2110 C   0  0  0  0  0  0  0  0  0  0  0  0
   31.8190   31.1660   34.2250 C   0  0  0  0  0  0  0  0  0  0  0  0
   32.3910   30.9620   33.3310 H   0  0  0  0  0  0  0  0  0  0  0  0
   31.1000   32.3370   34.2680 C   0  0  0  0  0  3  0  0  0  0  0  0
   30.3470   32.6300   35.3630 C   0  0  0  0  0  3  0  0  0  0  0  0
   30.3470   31.7050   36.4000 C   0  0  0  0  0  0  0  0  0  0  0  0
   29.5560   32.0510   37.4850 C   0  0  0  0  0  3  0  0  0  0  0  0
   29.4840   31.1930   38.5620 C   0  0  0  0  0  3  0  0  0  0  0  0
   30.1940   30.0100   38.5480 C   0  0  0  0  0  3  0  0  0  0  0  0
   30.9580   29.7370   37.4330 C   0  0  0  0  0  3  0  0  0  0  0  0
   31.0810   30.5420   36.3220 C   0  0  0  0  0  0  0  0  0  0  0  0
  1  7  1  0  0  0  0
  1  2  1  0  0  0  0
  2 11  1  0  0  0  0
  3  2  2  0  0  0  0
  3  8  1  0  0  0  0
  4  3  1  0  0  0  0
  5  6  1  0  0  0  0
  5  4  2  0  0  0  0
  6  1  2  0  0  0  0
  7 10  1  0  0  0  0
  9  7  1  0  0  0  0
 11 20  2  0  0  0  0
 11 12  1  0  0  0  0
 12 13  2  0  0  0  0
 13 14  1  0  0  0  0
 13 22  1  0  0  0  0
 14 15  1  0  0  0  0
 15 16  2  0  0  0  0
 16 23  1  0  0  0  0
 17 24  1  0  0  0  0
 17 16  1  0  0  0  0
 18 17  2  0  0  0  0
 19 18  1  0  0  0  0
 19 14  2  0  0  0  0
 20 19  1  0  0  0  0
 21 12  1  0  0  0  0
 25 18  1  0  0  0  0
 26 20  1  0  0  0  0
 27 30  1  0  0  0  0
 27  5  1  0  0  0  0
 28 27  1  0  0  0  0
 29 27  1  0  0  0  0
 30 31  1  0  0  0  0
 32 30  1  0  0  0  0
 33 30  1  0  0  0  0
 33 43  1  0  0  0  0
 34 36  1  0  0  0  0
 34 33  2  0  0  0  0
 35 34  1  0  0  0  0
 36 37  2  0  0  0  0
 37 38  1  0  0  0  0
 38 39  1  0  0  0  0
 39 40  2  0  0  0  0
 41 40  1  0  0  0  0
 42 41  2  0  0  0  0
 43 38  2  0  0  0  0
 43 42  1  0  0  0  0
M  END
>  <minimizedAffinity>
-7.04495859

$$$$

 OpenBabel03242522483D

 43 47  0  0  0  0  0  0  0  0999 V2000
   39.0130   31.7570   37.9320 C   0  0  0  0  0  0  0  0  0  0  0  0
   40.1460   31.4180   38.6880 C   0  0  0  0  0  0  0  0  0  0  0  0
   39.9720   30.8370   39.9760 C   0  0  0  0  0  0  0  0  0  0  0  0
   38.7090   30.6390   40.4090 N   0  0  0  0  0  0  0  0  0  0  0  0
   37.6340   30.9780   39.6560 C   0  0  0  0  0  0  0  0  0  0  0  0
   37.7990   31.5210   38.4520 N   0  0  0  0  0  0  0  0  0  0  0  0
   39.2000   32.3120   36.6630 N   0  0  0  0  0  0  0  0  0  0  0  0
   40.8400   30.5800   40.5470 H   0  0  0  0  0  0  0  0  0  0  0  0
   39.0480   31.6200   35.8680 H   0  0  0  0  0  0  0  0  0  0  0  0
   39.4650   33.3060   36.4090 H   0  0  0  0  0  0  0  0  0  0  0  0
   41.5000   31.6370   38.2300 C   0  0  0  0  0  0  0  0  0  0  0  0
   42.4250   32.5520   38.7260 C   0  0  0  0  0  0  0  0  0  0  0  0
   43.6870   32.6410   38.1690 C   0  0  0  0  0  0  0  0  0  0  0  0
   44.0790   31.8250   37.1000 C   0  0  0  0  0  0  0  0  0  0  0  0
   45.3200   31.9820   36.6270 N   0  0  0  0  0  0  0  0  0  0  0  0
   45.7250   31.1920   35.5770 C   0  0  0  0  0  0  0  0  0  0  0  0
   44.8030   30.2810   35.0820 C   0  0  0  0  0  0  0  0  0  0  0  0
   43.5280   30.1200   35.5680 C   0  0  0  0  0  0  0  0  0  0  0  0
   43.1480   30.9260   36.6220 C   0  0  0  0  0  0  0  0  0  0  0  0
   41.8790   30.8300   37.1750 C   0  0  0  0  0  0  0  0  0  0  0  0
   42.0770   33.1560   39.5500 H   0  0  0  0  0  0  0  0  0  0  0  0
   44.3470   33.3760   38.6130 H   0  0  0  0  0  0  0  0  0  0  0  0
   46.7150   31.2800   35.1590 H   0  0  0  0  0  0  0  0  0  0  0  0
   45.1740   29.6890   34.2580 H   0  0  0  0  0  0  0  0  0  0  0  0
   42.8600   29.3880   35.1350 H   0  0  0  0  0  0  0  0  0  0  0  0
   41.2380   30.0960   36.7250 H   0  0  0  0  0  0  0  0  0  0  0  0
   36.2680   30.7010   40.2150 C   0  0  0  0  0  0  0  0  0  0  0  0
   35.9320   31.4960   40.8830 H   0  0  0  0  0  0  0  0  0  0  0  0
   35.5350   30.6440   39.3860 H   0  0  0  0  0  0  0  0  0  0  0  0
   36.2670   29.3440   40.8780 C   0  0  0  0  0  0  0  0  0  0  0  0
   35.4920   29.3590   41.6800 H   0  0  0  0  0  0  0  0  0  0  0  0
   37.2410   29.2960   41.4480 H   0  0  0  0  0  0  0  0  0  0  0  0
   36.1360   28.2010   39.9870 C   0  0  0  0  0  0  0  0  0  0  0  0
   35.6610   28.1140   38.7150 C   0  0  0  0  0  0  0  0  0  0  0  0
   35.3120   29.0280   38.2560 H   0  0  0  0  0  0  0  0  0  0  0  0
   35.6080   26.9650   37.9630 C   0  0  0  0  0  3  0  0  0  0  0  0
   36.0550   25.7910   38.4870 C   0  0  0  0  0  3  0  0  0  0  0  0
   36.5530   25.8230   39.7850 C   0  0  0  0  0  0  0  0  0  0  0  0
   37.0020   24.6030   40.2640 C   0  0  0  0  0  3  0  0  0  0  0  0
   37.5210   24.5330   41.5390 C   0  0  0  0  0  3  0  0  0  0  0  0
   37.5870   25.6710   42.3180 C   0  0  0  0  0  3  0  0  0  0  0  0
   37.1200   26.8470   41.7710 C   0  0  0  0  0  3  0  0  0  0  0  0
   36.5890   26.9950   40.5080 C   0  0  0  0  0  0  0  0  0  0  0  0
  1  6  2  0  0  0  0
  1  2  1  0  0  0  0
  2  3  2  0  0  0  0
  3  4  1  0  0  0  0
  3  8  1  0  0  0  0
  5 27  1  0  0  0  0
  5  4  2  0  0  0  0
  6  5  1  0  0  0  0
  7  1  1  0  0  0  0
  9  7  1  0  0  0  0
 10  7  1  0  0  0  0
 11  2  1  0  0  0  0
 11 12  1  0  0  0  0
 12 21  1  0  0  0  0
 13 22  1  0  0  0  0
 13 12  2  0  0  0  0
 14 13  1  0  0  0  0
 15 14  1  0  0  0  0
 16 15  2  0  0  0  0
 17 18  2  0  0  0  0
 17 16  1  0  0  0  0
 18 19  1  0  0  0  0
 19 14  2  0  0  0  0
 19 20  1  0  0  0  0
 20 11  2  0  0  0  0
 23 16  1  0  0  0  0
 24 17  1  0  0  0  0
 25 18  1  0  0  0  0
 26 20  1  0  0  0  0
 27 30  1  0  0  0  0
 27 28  1  0  0  0  0
 29 27  1  0  0  0  0
 30 32  1  0  0  0  0
 30 31  1  0  0  0  0
 33 43  1  0  0  0  0
 33 30  1  0  0  0  0
 34 33  2  0  0  0  0
 35 34  1  0  0  0  0
 36 37  2  0  0  0  0
 36 34  1  0  0  0  0
 37 38  1  0  0  0  0
 38 39  2  0  0  0  0
 38 43  1  0  0  0  0
 39 40  1  0  0  0  0
 40 41  2  0  0  0  0
 42 41  1  0  0  0  0
 43 42  2  0  0  0  0
M  END
>  <minimizedAffinity>
-7.00515604

$$$$

 OpenBabel03242522483D

 43 47  0  0  0  0  0  0  0  0999 V2000
   38.2540   31.5440   40.6620 C   0  0  0  0  0  0  0  0  0  0  0  0
   39.2980   30.9940   39.9040 C   0  0  0  0  0  0  0  0  0  0  0  0
   39.3330   29.5870   39.6890 C   0  0  0  0  0  0  0  0  0  0  0  0
   38.3470   28.8450   40.2340 N   0  0  0  0  0  0  0  0  0  0  0  0
   37.3510   29.4050   40.9630 C   0  0  0  0  0  0  0  0  0  0  0  0
   37.3200   30.7210   41.1620 N   0  0  0  0  0  0  0  0  0  0  0  0
   38.2240   32.9290   40.8510 N   0  0  0  0  0  0  0  0  0  0  0  0
   40.1330   29.1740   39.1090 H   0  0  0  0  0  0  0  0  0  0  0  0
   37.5200   33.4290   40.2280 H   0  0  0  0  0  0  0  0  0  0  0  0
   38.7990   33.5180   41.5170 H   0  0  0  0  0  0  0  0  0  0  0  0
   40.3620   31.7860   39.3260 C   0  0  0  0  0  0  0  0  0  0  0  0
   40.3660   32.4280   38.0910 C   0  0  0  0  0  0  0  0  0  0  0  0
   41.4720   33.1470   37.6810 C   0  0  0  0  0  0  0  0  0  0  0  0
   42.6170   33.2570   38.4810 C   0  0  0  0  0  0  0  0  0  0  0  0
   43.6390   33.9730   38.0010 N   0  0  0  0  0  0  0  0  0  0  0  0
   44.7730   34.0930   38.7700 C   0  0  0  0  0  0  0  0  0  0  0  0
   44.7690   33.4520   40.0010 C   0  0  0  0  0  0  0  0  0  0  0  0
   43.7190   32.7160   40.4940 C   0  0  0  0  0  0  0  0  0  0  0  0
   42.5940   32.6130   39.7010 C   0  0  0  0  0  0  0  0  0  0  0  0
   41.4870   31.8890   40.1210 C   0  0  0  0  0  0  0  0  0  0  0  0
   39.4610   32.3160   37.5120 H   0  0  0  0  0  0  0  0  0  0  0  0
   41.3950   33.6170   36.7090 H   0  0  0  0  0  0  0  0  0  0  0  0
   45.6240   34.6590   38.4280 H   0  0  0  0  0  0  0  0  0  0  0  0
   45.6850   33.5800   40.5600 H   0  0  0  0  0  0  0  0  0  0  0  0
   43.7830   32.2430   41.4640 H   0  0  0  0  0  0  0  0  0  0  0  0
   41.5790   31.4310   41.0870 H   0  0  0  0  0  0  0  0  0  0  0  0
   36.2860   28.4990   41.5120 C   0  0  0  0  0  0  0  0  0  0  0  0
   35.3530   29.0340   41.6990 H   0  0  0  0  0  0  0  0  0  0  0  0
   36.0620   27.7050   40.7740 H   0  0  0  0  0  0  0  0  0  0  0  0
   36.8130   27.8010   42.7430 C   0  0  0  0  0  0  0  0  0  0  0  0
   36.0040   27.8090   43.5100 H   0  0  0  0  0  0  0  0  0  0  0  0
   37.5910   28.5010   43.1670 H   0  0  0  0  0  0  0  0  0  0  0  0
   37.3760   26.4760   42.5300 C   0  0  0  0  0  0  0  0  0  0  0  0
   36.8200   25.3450   42.0180 C   0  0  0  0  0  0  0  0  0  0  0  0
   35.7870   25.4010   41.7070 H   0  0  0  0  0  0  0  0  0  0  0  0
   37.4720   24.1460   41.8460 C   0  0  0  0  0  3  0  0  0  0  0  0
   38.7800   24.0290   42.2020 C   0  0  0  0  0  3  0  0  0  0  0  0
   39.3980   25.1570   42.7300 C   0  0  0  0  0  0  0  0  0  0  0  0
   40.7320   24.9840   43.0670 C   0  0  0  0  0  3  0  0  0  0  0  0
   41.4340   26.0470   43.5910 C   0  0  0  0  0  3  0  0  0  0  0  0
   40.8070   27.2630   43.7750 C   0  0  0  0  0  3  0  0  0  0  0  0
   39.4790   27.3560   43.4160 C   0  0  0  0  0  3  0  0  0  0  0  0
   38.7120   26.3410   42.8880 C   0  0  0  0  0  0  0  0  0  0  0  0
  1  7  1  0  0  0  0
  1  6  1  0  0  0  0
  2  1  2  0  0  0  0
  3  2  1  0  0  0  0
  3  4  2  0  0  0  0
  4  5  1  0  0  0  0
  5  6  2  0  0  0  0
  5 27  1  0  0  0  0
  7 10  1  0  0  0  0
  8  3  1  0  0  0  0
  9  7  1  0  0  0  0
 11  2  1  0  0  0  0
 11 20  1  0  0  0  0
 12 11  2  0  0  0  0
 13 12  1  0  0  0  0
 13 14  2  0  0  0  0
 14 19  1  0  0  0  0
 15 14  1  0  0  0  0
 15 16  2  0  0  0  0
 16 17  1  0  0  0  0
 17 18  2  0  0  0  0
 17 24  1  0  0  0  0
 18 25  1  0  0  0  0
 19 20  2  0  0  0  0
 19 18  1  0  0  0  0
 20 26  1  0  0  0  0
 21 12  1  0  0  0  0
 22 13  1  0  0  0  0
 23 16  1  0  0  0  0
 27 28  1  0  0  0  0
 27 30  1  0  0  0  0
 29 27  1  0  0  0  0
 30 32  1  0  0  0  0
 30 31  1  0  0  0  0
 33 30  1  0  0  0  0
 33 43  1  0  0  0  0
 34 33  2  0  0  0  0
 35 34  1  0  0  0  0
 36 34  1  0  0  0  0
 36 37  2  0  0  0  0
 37 38  1  0  0  0  0
 38 43  2  0  0  0  0
 38 39  1  0  0  0  0
 39 40  2  0  0  0  0
 40 41  1  0  0  0  0
 42 41  2  0  0  0  0
 43 42  1  0  0  0  0
M  END
>  <minimizedAffinity>
-6.97157907

$$$$

 OpenBabel03242522483D

 43 47  0  0  0  0  0  0  0  0999 V2000
   33.5750   27.3050   37.1450 C   0  0  0  0  0  0  0  0  0  0  0  0
   33.4480   28.6710   37.4370 C   0  0  0  0  0  0  0  0  0  0  0  0
   34.4870   29.3260   38.1580 C   0  0  0  0  0  0  0  0  0  0  0  0
   35.5540   28.5880   38.5280 N   0  0  0  0  0  0  0  0  0  0  0  0
   35.6480   27.2690   38.2320 C   0  0  0  0  0  0  0  0  0  0  0  0
   34.6760   26.6590   37.5580 N   0  0  0  0  0  0  0  0  0  0  0  0
   32.5540   26.6800   36.4230 N   0  0  0  0  0  0  0  0  0  0  0  0
   34.3840   30.3700   38.3770 H   0  0  0  0  0  0  0  0  0  0  0  0
   32.7900   26.5270   35.3960 H   0  0  0  0  0  0  0  0  0  0  0  0
   31.6070   26.3520   36.7660 H   0  0  0  0  0  0  0  0  0  0  0  0
   32.3010   29.4630   37.0490 C   0  0  0  0  0  0  0  0  0  0  0  0
   31.1570   29.7220   37.7990 C   0  0  0  0  0  0  0  0  0  0  0  0
   30.1410   30.5000   37.2780 C   0  0  0  0  0  0  0  0  0  0  0  0
   30.2210   31.0510   35.9920 C   0  0  0  0  0  0  0  0  0  0  0  0
   29.1890   31.7900   35.5720 N   0  0  0  0  0  0  0  0  0  0  0  0
   29.2470   32.3400   34.3130 C   0  0  0  0  0  0  0  0  0  0  0  0
   30.3870   32.0810   33.5650 C   0  0  0  0  0  0  0  0  0  0  0  0
   31.4480   31.3210   33.9970 C   0  0  0  0  0  0  0  0  0  0  0  0
   31.3620   30.7820   35.2650 C   0  0  0  0  0  0  0  0  0  0  0  0
   32.3870   30.0020   35.7810 C   0  0  0  0  0  0  0  0  0  0  0  0
   31.1420   29.2770   38.7830 H   0  0  0  0  0  0  0  0  0  0  0  0
   29.2860   30.6540   37.9240 H   0  0  0  0  0  0  0  0  0  0  0  0
   28.4410   32.9440   33.9280 H   0  0  0  0  0  0  0  0  0  0  0  0
   30.3780   32.5370   32.5860 H   0  0  0  0  0  0  0  0  0  0  0  0
   32.3080   31.1610   33.3610 H   0  0  0  0  0  0  0  0  0  0  0  0
   33.2270   29.8590   35.1280 H   0  0  0  0  0  0  0  0  0  0  0  0
   36.8840   26.5360   38.6690 C   0  0  0  0  0  0  0  0  0  0  0  0
   37.1950   25.7890   37.9360 H   0  0  0  0  0  0  0  0  0  0  0  0
   37.7200   27.2550   38.7740 H   0  0  0  0  0  0  0  0  0  0  0  0
   36.6540   25.9460   40.0400 C   0  0  0  0  0  0  0  0  0  0  0  0
   37.0960   24.9220   40.0470 H   0  0  0  0  0  0  0  0  0  0  0  0
   35.5420   25.7570   40.0950 H   0  0  0  0  0  0  0  0  0  0  0  0
   37.0930   26.7600   41.1640 C   0  0  0  0  0  0  0  0  0  0  0  0
   36.6550   27.9670   41.6130 C   0  0  0  0  0  0  0  0  0  0  0  0
   35.8450   28.4310   41.0680 H   0  0  0  0  0  0  0  0  0  0  0  0
   37.1440   28.6310   42.7130 C   0  0  0  0  0  3  0  0  0  0  0  0
   38.1500   28.0790   43.4460 C   0  0  0  0  0  3  0  0  0  0  0  0
   38.6350   26.8440   43.0300 C   0  0  0  0  0  0  0  0  0  0  0  0
   39.6510   26.3270   43.8180 C   0  0  0  0  0  3  0  0  0  0  0  0
   40.1940   25.1020   43.4920 C   0  0  0  0  0  3  0  0  0  0  0  0
   39.7230   24.4110   42.3930 C   0  0  0  0  0  3  0  0  0  0  0  0
   38.7110   24.9930   41.6600 C   0  0  0  0  0  3  0  0  0  0  0  0
   38.1190   26.2090   41.9220 C   0  0  0  0  0  0  0  0  0  0  0  0
  1  2  2  0  0  0  0
  1  6  1  0  0  0  0
  2  3  1  0  0  0  0
  3  8  1  0  0  0  0
  3  4  2  0  0  0  0
  5  4  1  0  0  0  0
  5 27  1  0  0  0  0
  6  5  2  0  0  0  0
  7 10  1  0  0  0  0
  7  1  1  0  0  0  0
  9  7  1  0  0  0  0
 11  2  1  0  0  0  0
 11 12  1  0  0  0  0
 12 21  1  0  0  0  0
 13 12  2  0  0  0  0
 13 22  1  0  0  0  0
 14 13  1  0  0  0  0
 15 14  1  0  0  0  0
 16 15  2  0  0  0  0
 17 18  2  0  0  0  0
 17 16  1  0  0  0  0
 18 19  1  0  0  0  0
 19 20  1  0  0  0  0
 19 14  2  0  0  0  0
 20 11  2  0  0  0  0
 23 16  1  0  0  0  0
 24 17  1  0  0  0  0
 25 18  1  0  0  0  0
 26 20  1  0  0  0  0
 27 29  1  0  0  0  0
 27 30  1  0  0  0  0
 28 27  1  0  0  0  0
 30 31  1  0  0  0  0
 30 32  1  0  0  0  0
 30 33  1  0  0  0  0
 33 34  2  0  0  0  0
 33 43  1  0  0  0  0
 34 36  1  0  0  0  0
 35 34  1  0  0  0  0
 36 37  2  0  0  0  0
 38 37  1  0  0  0  0
 38 39  1  0  0  0  0
 40 39  2  0  0  0  0
 41 40  1  0  0  0  0
 42 43  1  0  0  0  0
 42 41  2  0  0  0  0
 43 38  2  0  0  0  0
M  END
>  <minimizedAffinity>
-6.87705612

$$$$
