
 OpenBabel03252502573D

 39 42  0  0  0  0  0  0  0  0999 V2000
   41.4540   30.0170   42.2310 Br  0  0  0  0  0  0  0  0  0  0  0  0
   40.4850   31.4150   41.3350 C   0  0  0  0  0  0  0  0  0  0  0  0
   41.2400   32.3020   40.6220 C   0  0  0  0  0  0  0  0  0  0  0  0
   40.5140   33.3070   39.9800 C   0  0  0  0  0  0  0  0  0  0  0  0
   39.1400   33.4150   40.0460 C   0  0  0  0  0  0  0  0  0  0  0  0
   38.4500   32.4840   40.7830 C   0  0  0  0  0  0  0  0  0  0  0  0
   39.1080   31.4710   41.4390 C   0  0  0  0  0  0  0  0  0  0  0  0
   41.0420   34.0570   39.3890 H   0  0  0  0  0  0  0  0  0  0  0  0
   38.6030   34.2020   39.5400 H   0  0  0  0  0  0  0  0  0  0  0  0
   37.3700   32.4990   40.8860 H   0  0  0  0  0  0  0  0  0  0  0  0
   42.6900   32.3120   40.4640 C   0  0  0  0  0  0  0  0  0  0  0  0
   42.9360   32.7070   39.4460 H   0  0  0  0  0  0  0  0  0  0  0  0
   43.0580   31.2510   40.4590 H   0  0  0  0  0  0  0  0  0  0  0  0
   43.9890   35.0980   42.5650 C   0  0  0  0  0  0  0  0  0  0  0  0
   44.8220   34.4210   43.4710 C   0  0  0  0  0  0  0  0  0  0  0  0
   44.9150   33.0300   43.3360 C   0  0  0  0  0  0  0  0  0  0  0  0
   44.2250   32.4020   42.3730 N   0  0  0  0  0  0  0  0  0  0  0  0
   43.4150   33.0830   41.4960 C   0  0  0  0  0  0  0  0  0  0  0  0
   43.3340   34.4130   41.6360 N   0  0  0  0  0  0  0  0  0  0  0  0
   43.8330   36.1700   42.5650 H   0  0  0  0  0  0  0  0  0  0  0  0
   45.3320   35.0270   44.2080 H   0  0  0  0  0  0  0  0  0  0  0  0
   45.5490   32.5270   44.0280 H   0  0  0  0  0  0  0  0  0  0  0  0
   38.4060   30.5300   42.1840 O   0  0  0  0  0  0  0  0  0  0  0  0
   37.6130   29.1640   40.1320 O   0  0  0  0  0  0  0  0  0  0  0  0
   37.1540   29.5770   41.5310 P   0  0  2  0  0  0  0  0  0  0  0  0
   35.7780   30.5280   41.4370 O   0  0  0  0  0  0  0  0  0  0  0  0
   35.5030   30.6610   40.5030 H   0  0  0  0  0  0  0  0  0  0  0  0
   36.9000   28.1840   42.4390 O   0  0  0  0  0  0  0  0  0  0  0  0
   37.9220   27.3030   42.7750 C   0  0  0  0  0  0  0  0  0  0  0  0
   38.9470   27.5670   43.6590 C   0  0  0  0  0  0  0  0  0  0  0  0
   38.9610   28.5310   44.1280 H   0  0  0  0  0  0  0  0  0  0  0  0
   39.9240   26.6220   43.9310 C   0  0  0  0  0  3  0  0  0  0  0  0
   39.8370   25.4010   43.2850 C   0  0  0  0  0  3  0  0  0  0  0  0
   38.8160   25.0920   42.3830 C   0  0  0  0  0  0  0  0  0  0  0  0
   38.7870   23.8500   41.7690 C   0  0  0  0  0  3  0  0  0  0  0  0
   37.7580   23.5650   40.8730 C   0  0  0  0  0  3  0  0  0  0  0  0
   36.7880   24.5270   40.6140 C   0  0  0  0  0  3  0  0  0  0  0  0
   36.8750   25.7430   41.2580 C   0  0  0  0  0  3  0  0  0  0  0  0
   37.8620   26.0710   42.1440 C   0  0  0  0  0  0  0  0  0  0  0  0
  2  7  1  0  0  0  0
  2  1  1  0  0  0  0
  3  2  2  0  0  0  0
  4  5  2  0  0  0  0
  4  3  1  0  0  0  0
  5  6  1  0  0  0  0
  6 10  1  0  0  0  0
  6  7  2  0  0  0  0
  7 23  1  0  0  0  0
  8  4  1  0  0  0  0
  9  5  1  0  0  0  0
 11  3  1  0  0  0  0
 11 18  1  0  0  0  0
 12 11  1  0  0  0  0
 13 11  1  0  0  0  0
 14 15  1  0  0  0  0
 15 21  1  0  0  0  0
 16 15  2  0  0  0  0
 16 22  1  0  0  0  0
 17 16  1  0  0  0  0
 18 19  1  0  0  0  0
 18 17  2  0  0  0  0
 19 14  2  0  0  0  0
 20 14  1  0  0  0  0
 25 24  2  6  0  0  0
 25 23  1  0  0  0  0
 25 28  1  0  0  0  0
 26 25  1  0  0  0  0
 27 26  1  0  0  0  0
 28 29  1  0  0  0  0
 29 30  1  0  0  0  0
 30 32  2  0  0  0  0
 30 31  1  0  0  0  0
 33 32  1  0  0  0  0
 34 33  2  0  0  0  0
 35 34  1  0  0  0  0
 36 35  2  0  0  0  0
 37 36  1  0  0  0  0
 37 38  2  0  0  0  0
 38 39  1  0  0  0  0
 39 34  1  0  0  0  0
 39 29  2  0  0  0  0
M  END
>  <minimizedAffinity>
-6.56987047

$$$$

 OpenBabel03252502573D

 39 42  0  0  0  0  0  0  0  0999 V2000
   40.1270   29.5320   40.5410 Br  0  0  0  0  0  0  0  0  0  0  0  0
   39.2440   31.1940   40.1490 C   0  0  0  0  0  0  0  0  0  0  0  0
   40.0010   32.3210   40.2930 C   0  0  0  0  0  0  0  0  0  0  0  0
   39.3390   33.5150   40.0020 C   0  0  0  0  0  0  0  0  0  0  0  0
   38.0200   33.5760   39.5990 C   0  0  0  0  0  0  0  0  0  0  0  0
   37.3240   32.3980   39.4770 C   0  0  0  0  0  0  0  0  0  0  0  0
   37.9210   31.1910   39.7490 C   0  0  0  0  0  0  0  0  0  0  0  0
   39.8720   34.4620   40.0920 H   0  0  0  0  0  0  0  0  0  0  0  0
   37.5310   34.5120   39.3800 H   0  0  0  0  0  0  0  0  0  0  0  0
   36.2850   32.3600   39.1660 H   0  0  0  0  0  0  0  0  0  0  0  0
   41.3970   32.4090   40.7090 C   0  0  0  0  0  0  0  0  0  0  0  0
   41.6760   31.4590   41.2290 H   0  0  0  0  0  0  0  0  0  0  0  0
   41.4870   33.2060   41.4960 H   0  0  0  0  0  0  0  0  0  0  0  0
   43.2140   32.2900   37.4610 C   0  0  0  0  0  0  0  0  0  0  0  0
   44.1840   33.2930   37.6280 C   0  0  0  0  0  0  0  0  0  0  0  0
   44.1870   33.9810   38.8480 C   0  0  0  0  0  0  0  0  0  0  0  0
   43.2900   33.6710   39.7950 N   0  0  0  0  0  0  0  0  0  0  0  0
   42.3480   32.6860   39.6120 C   0  0  0  0  0  0  0  0  0  0  0  0
   42.3560   32.0350   38.4410 N   0  0  0  0  0  0  0  0  0  0  0  0
   43.1090   31.6880   36.5670 H   0  0  0  0  0  0  0  0  0  0  0  0
   44.8580   33.4590   36.7990 H   0  0  0  0  0  0  0  0  0  0  0  0
   44.9260   34.7390   38.9640 H   0  0  0  0  0  0  0  0  0  0  0  0
   37.2130   30.0010   39.6240 O   0  0  0  0  0  0  0  0  0  0  0  0
   34.7410   29.2400   39.7360 O   0  0  0  0  0  0  0  0  0  0  0  0
   35.9200   29.5790   40.6490 P   0  0  2  0  0  0  0  0  0  0  0  0
   35.5590   30.9110   41.5980 O   0  0  0  0  0  0  0  0  0  0  0  0
   34.6570   31.2500   41.4060 H   0  0  0  0  0  0  0  0  0  0  0  0
   36.2810   28.2210   41.5740 O   0  0  0  0  0  0  0  0  0  0  0  0
   36.9950   27.1360   41.0780 C   0  0  0  0  0  0  0  0  0  0  0  0
   36.7590   26.5060   39.8740 C   0  0  0  0  0  0  0  0  0  0  0  0
   35.9590   26.8820   39.2670 H   0  0  0  0  0  0  0  0  0  0  0  0
   37.5260   25.4280   39.4640 C   0  0  0  0  0  3  0  0  0  0  0  0
   38.5400   25.0010   40.3040 C   0  0  0  0  0  3  0  0  0  0  0  0
   38.8140   25.6100   41.5310 C   0  0  0  0  0  0  0  0  0  0  0  0
   39.8430   25.1340   42.3260 C   0  0  0  0  0  3  0  0  0  0  0  0
   40.0970   25.7570   43.5460 C   0  0  0  0  0  3  0  0  0  0  0  0
   39.3150   26.8370   43.9400 C   0  0  0  0  0  3  0  0  0  0  0  0
   38.3050   27.2620   43.1020 C   0  0  0  0  0  3  0  0  0  0  0  0
   38.0170   26.6860   41.8980 C   0  0  0  0  0  0  0  0  0  0  0  0
  2  3  1  0  0  0  0
  2  1  1  0  0  0  0
  3 11  1  0  0  0  0
  4  8  1  0  0  0  0
  4  3  2  0  0  0  0
  5  4  1  0  0  0  0
  6  5  2  0  0  0  0
  6  7  1  0  0  0  0
  7  2  2  0  0  0  0
  9  5  1  0  0  0  0
 10  6  1  0  0  0  0
 11 12  1  0  0  0  0
 11 13  1  0  0  0  0
 14 15  2  0  0  0  0
 14 19  1  0  0  0  0
 15 16  1  0  0  0  0
 16 22  1  0  0  0  0
 16 17  2  0  0  0  0
 18 17  1  0  0  0  0
 18 11  1  0  0  0  0
 19 18  2  0  0  0  0
 20 14  1  0  0  0  0
 21 15  1  0  0  0  0
 23  7  1  0  0  0  0
 23 25  1  0  0  0  0
 25 24  2  6  0  0  0
 25 28  1  0  0  0  0
 25 26  1  0  0  0  0
 27 26  1  0  0  0  0
 29 28  1  0  0  0  0
 29 39  1  0  0  0  0
 30 29  2  0  0  0  0
 31 30  1  0  0  0  0
 32 30  1  0  0  0  0
 32 33  2  0  0  0  0
 33 34  1  0  0  0  0
 34 39  2  0  0  0  0
 34 35  1  0  0  0  0
 35 36  2  0  0  0  0
 36 37  1  0  0  0  0
 38 37  2  0  0  0  0
 39 38  1  0  0  0  0
M  END
>  <minimizedAffinity>
-6.52292967

$$$$

 OpenBabel03252502573D

 39 42  0  0  0  0  0  0  0  0999 V2000
   40.3000   29.8280   41.7240 Br  0  0  0  0  0  0  0  0  0  0  0  0
   39.2720   31.1750   40.8160 C   0  0  0  0  0  0  0  0  0  0  0  0
   39.9830   32.0490   40.0440 C   0  0  0  0  0  0  0  0  0  0  0  0
   39.2150   33.0180   39.3950 C   0  0  0  0  0  0  0  0  0  0  0  0
   37.8430   33.1050   39.5090 C   0  0  0  0  0  0  0  0  0  0  0  0
   37.1980   32.1880   40.3040 C   0  0  0  0  0  0  0  0  0  0  0  0
   37.8990   31.2110   40.9700 C   0  0  0  0  0  0  0  0  0  0  0  0
   39.7060   33.7550   38.7590 H   0  0  0  0  0  0  0  0  0  0  0  0
   37.2720   33.8630   38.9970 H   0  0  0  0  0  0  0  0  0  0  0  0
   36.1230   32.1880   40.4470 H   0  0  0  0  0  0  0  0  0  0  0  0
   41.4260   32.0800   39.8320 C   0  0  0  0  0  0  0  0  0  0  0  0
   41.9270   31.6090   40.7140 H   0  0  0  0  0  0  0  0  0  0  0  0
   41.7680   33.1500   39.8410 H   0  0  0  0  0  0  0  0  0  0  0  0
   41.7800   29.7010   36.9890 C   0  0  0  0  0  0  0  0  0  0  0  0
   42.8030   30.2960   36.2310 C   0  0  0  0  0  0  0  0  0  0  0  0
   43.3410   31.4950   36.7160 C   0  0  0  0  0  0  0  0  0  0  0  0
   42.8780   32.0250   37.8570 N   0  0  0  0  0  0  0  0  0  0  0  0
   41.8760   31.4270   38.5840 C   0  0  0  0  0  0  0  0  0  0  0  0
   41.3700   30.2810   38.1100 N   0  0  0  0  0  0  0  0  0  0  0  0
   41.2840   28.7770   36.7210 H   0  0  0  0  0  0  0  0  0  0  0  0
   43.0990   29.7820   35.3270 H   0  0  0  0  0  0  0  0  0  0  0  0
   44.1150   31.9370   36.1340 H   0  0  0  0  0  0  0  0  0  0  0  0
   37.2430   30.2850   41.7730 O   0  0  0  0  0  0  0  0  0  0  0  0
   37.1020   28.5180   39.8860 O   0  0  0  0  0  0  0  0  0  0  0  0
   36.3600   28.9720   41.1440 P   0  0  2  0  0  0  0  0  0  0  0  0
   34.8270   29.5230   40.7510 O   0  0  0  0  0  0  0  0  0  0  0  0
   34.6660   29.4640   39.7830 H   0  0  0  0  0  0  0  0  0  0  0  0
   36.3120   27.6830   42.2250 O   0  0  0  0  0  0  0  0  0  0  0  0
   37.4520   27.0100   42.6500 C   0  0  0  0  0  0  0  0  0  0  0  0
   38.3500   27.4720   43.5900 C   0  0  0  0  0  0  0  0  0  0  0  0
   38.1550   28.4290   44.0320 H   0  0  0  0  0  0  0  0  0  0  0  0
   39.4610   26.7270   43.9500 C   0  0  0  0  0  3  0  0  0  0  0  0
   39.6420   25.5000   43.3340 C   0  0  0  0  0  3  0  0  0  0  0  0
   38.7580   24.9950   42.3770 C   0  0  0  0  0  0  0  0  0  0  0  0
   38.9970   23.7600   41.7980 C   0  0  0  0  0  3  0  0  0  0  0  0
   38.1010   23.2770   40.8460 C   0  0  0  0  0  3  0  0  0  0  0  0
   36.9920   24.0400   40.4980 C   0  0  0  0  0  3  0  0  0  0  0  0
   36.8120   25.2620   41.1120 C   0  0  0  0  0  3  0  0  0  0  0  0
   37.6600   25.7790   42.0510 C   0  0  0  0  0  0  0  0  0  0  0  0
  2  7  1  0  0  0  0
  2  1  1  0  0  0  0
  3  2  2  0  0  0  0
  4  5  2  0  0  0  0
  4  3  1  0  0  0  0
  5  6  1  0  0  0  0
  6 10  1  0  0  0  0
  6  7  2  0  0  0  0
  7 23  1  0  0  0  0
  8  4  1  0  0  0  0
  9  5  1  0  0  0  0
 11 13  1  0  0  0  0
 11  3  1  0  0  0  0
 11 12  1  0  0  0  0
 14 19  1  0  0  0  0
 15 16  1  0  0  0  0
 15 14  2  0  0  0  0
 16 17  2  0  0  0  0
 17 18  1  0  0  0  0
 18 11  1  0  0  0  0
 19 18  2  0  0  0  0
 20 14  1  0  0  0  0
 21 15  1  0  0  0  0
 22 16  1  0  0  0  0
 25 24  2  6  0  0  0
 25 23  1  0  0  0  0
 25 28  1  0  0  0  0
 26 25  1  0  0  0  0
 27 26  1  0  0  0  0
 28 29  1  0  0  0  0
 29 30  1  0  0  0  0
 30 32  2  0  0  0  0
 30 31  1  0  0  0  0
 33 32  1  0  0  0  0
 34 33  2  0  0  0  0
 35 34  1  0  0  0  0
 36 35  2  0  0  0  0
 37 36  1  0  0  0  0
 37 38  2  0  0  0  0
 38 39  1  0  0  0  0
 39 34  1  0  0  0  0
 39 29  2  0  0  0  0
M  END
>  <minimizedAffinity>
-6.51268864

$$$$

 OpenBabel03252502573D

 39 42  0  0  0  0  0  0  0  0999 V2000
   40.4890   26.4980   41.4340 Br  0  0  0  0  0  0  0  0  0  0  0  0
   38.8910   27.0210   42.3660 C   0  0  0  0  0  0  0  0  0  0  0  0
   37.8680   26.1170   42.3510 C   0  0  0  0  0  0  0  0  0  0  0  0
   36.7190   26.5180   43.0350 C   0  0  0  0  0  0  0  0  0  0  0  0
   36.6040   27.7300   43.6840 C   0  0  0  0  0  0  0  0  0  0  0  0
   37.6770   28.5870   43.6560 C   0  0  0  0  0  0  0  0  0  0  0  0
   38.8360   28.2480   42.9980 C   0  0  0  0  0  0  0  0  0  0  0  0
   35.8550   25.8540   43.0700 H   0  0  0  0  0  0  0  0  0  0  0  0
   35.7040   28.0180   44.2060 H   0  0  0  0  0  0  0  0  0  0  0  0
   37.6670   29.5580   44.1400 H   0  0  0  0  0  0  0  0  0  0  0  0
   37.8460   24.8060   41.7100 C   0  0  0  0  0  0  0  0  0  0  0  0
   37.5240   24.0450   42.4630 H   0  0  0  0  0  0  0  0  0  0  0  0
   38.8990   24.5200   41.4420 H   0  0  0  0  0  0  0  0  0  0  0  0
   35.3240   23.6930   39.2080 C   0  0  0  0  0  0  0  0  0  0  0  0
   35.4410   24.6760   38.2110 C   0  0  0  0  0  0  0  0  0  0  0  0
   36.3800   25.6930   38.4260 C   0  0  0  0  0  0  0  0  0  0  0  0
   37.1200   25.6980   39.5440 N   0  0  0  0  0  0  0  0  0  0  0  0
   36.9900   24.7250   40.5070 C   0  0  0  0  0  0  0  0  0  0  0  0
   36.0890   23.7590   40.2900 N   0  0  0  0  0  0  0  0  0  0  0  0
   34.6370   22.8570   39.1590 H   0  0  0  0  0  0  0  0  0  0  0  0
   34.7950   24.5750   37.3500 H   0  0  0  0  0  0  0  0  0  0  0  0
   36.4610   26.4340   37.6650 H   0  0  0  0  0  0  0  0  0  0  0  0
   39.9210   29.1180   42.9720 O   0  0  0  0  0  0  0  0  0  0  0  0
   40.8500   29.9670   40.7090 O   0  0  0  0  0  0  0  0  0  0  0  0
   40.0220   30.4420   41.9050 P   0  0  2  0  0  0  0  0  0  0  0  0
   40.8090   31.6870   42.7020 O   0  0  0  0  0  0  0  0  0  0  0  0
   41.6670   31.8990   42.2710 H   0  0  0  0  0  0  0  0  0  0  0  0
   38.5040   30.9060   41.3480 O   0  0  0  0  0  0  0  0  0  0  0  0
   38.1770   30.9570   39.9970 C   0  0  0  0  0  0  0  0  0  0  0  0
   38.8890   31.6290   39.0260 C   0  0  0  0  0  0  0  0  0  0  0  0
   39.7700   32.1580   39.3350 H   0  0  0  0  0  0  0  0  0  0  0  0
   38.4830   31.6220   37.7020 C   0  0  0  0  0  3  0  0  0  0  0  0
   37.3350   30.9160   37.3830 C   0  0  0  0  0  3  0  0  0  0  0  0
   36.5840   30.2220   38.3340 C   0  0  0  0  0  0  0  0  0  0  0  0
   35.4440   29.5350   37.9500 C   0  0  0  0  0  3  0  0  0  0  0  0
   34.7120   28.8500   38.9170 C   0  0  0  0  0  3  0  0  0  0  0  0
   35.1350   28.8700   40.2410 C   0  0  0  0  0  3  0  0  0  0  0  0
   36.2790   29.5730   40.5570 C   0  0  0  0  0  3  0  0  0  0  0  0
   37.0320   30.2600   39.6480 C   0  0  0  0  0  0  0  0  0  0  0  0
  1  2  1  0  0  0  0
  2  7  1  0  0  0  0
  3  2  2  0  0  0  0
  3  4  1  0  0  0  0
  4  8  1  0  0  0  0
  4  5  2  0  0  0  0
  5  9  1  0  0  0  0
  6  5  1  0  0  0  0
  6 10  1  0  0  0  0
  7  6  2  0  0  0  0
 11  3  1  0  0  0  0
 11 12  1  0  0  0  0
 13 11  1  0  0  0  0
 14 19  1  0  0  0  0
 15 16  1  0  0  0  0
 15 14  2  0  0  0  0
 16 17  2  0  0  0  0
 17 18  1  0  0  0  0
 18 11  1  0  0  0  0
 19 18  2  0  0  0  0
 20 14  1  0  0  0  0
 21 15  1  0  0  0  0
 22 16  1  0  0  0  0
 23  7  1  0  0  0  0
 25 24  2  6  0  0  0
 25 26  1  0  0  0  0
 25 23  1  0  0  0  0
 27 26  1  0  0  0  0
 28 25  1  0  0  0  0
 29 28  1  0  0  0  0
 30 31  1  0  0  0  0
 30 29  2  0  0  0  0
 32 30  1  0  0  0  0
 33 32  2  0  0  0  0
 33 34  1  0  0  0  0
 34 39  1  0  0  0  0
 35 34  2  0  0  0  0
 35 36  1  0  0  0  0
 36 37  2  0  0  0  0
 37 38  1  0  0  0  0
 39 29  1  0  0  0  0
 39 38  2  0  0  0  0
M  END
>  <minimizedAffinity>
-6.42199135

$$$$

 OpenBabel03252502573D

 39 42  0  0  0  0  0  0  0  0999 V2000
   37.7270   32.2140   38.8590 Br  0  0  0  0  0  0  0  0  0  0  0  0
   39.0090   31.7910   40.2270 C   0  0  0  0  0  0  0  0  0  0  0  0
   40.2870   32.2140   40.0000 C   0  0  0  0  0  0  0  0  0  0  0  0
   41.1990   31.8960   41.0070 C   0  0  0  0  0  0  0  0  0  0  0  0
   40.8590   31.2080   42.1540 C   0  0  0  0  0  0  0  0  0  0  0  0
   39.5520   30.8150   42.3120 C   0  0  0  0  0  0  0  0  0  0  0  0
   38.6070   31.0990   41.3540 C   0  0  0  0  0  0  0  0  0  0  0  0
   42.2420   32.1970   40.9030 H   0  0  0  0  0  0  0  0  0  0  0  0
   41.5830   30.9740   42.9180 H   0  0  0  0  0  0  0  0  0  0  0  0
   39.2030   30.2700   43.1820 H   0  0  0  0  0  0  0  0  0  0  0  0
   40.7900   32.9460   38.8420 C   0  0  0  0  0  0  0  0  0  0  0  0
   41.2560   33.8990   39.1970 H   0  0  0  0  0  0  0  0  0  0  0  0
   39.9160   33.2680   38.2130 H   0  0  0  0  0  0  0  0  0  0  0  0
   42.3000   30.4240   36.5570 C   0  0  0  0  0  0  0  0  0  0  0  0
   43.6340   30.8560   36.4790 C   0  0  0  0  0  0  0  0  0  0  0  0
   43.9780   32.0000   37.2120 C   0  0  0  0  0  0  0  0  0  0  0  0
   43.0500   32.6310   37.9460 N   0  0  0  0  0  0  0  0  0  0  0  0
   41.7490   32.1910   38.0080 C   0  0  0  0  0  0  0  0  0  0  0  0
   41.4330   31.0960   37.3030 N   0  0  0  0  0  0  0  0  0  0  0  0
   41.9110   29.5560   36.0390 H   0  0  0  0  0  0  0  0  0  0  0  0
   44.2990   30.2720   35.8570 H   0  0  0  0  0  0  0  0  0  0  0  0
   44.9920   32.3190   37.1450 H   0  0  0  0  0  0  0  0  0  0  0  0
   37.2850   30.7000   41.5180 O   0  0  0  0  0  0  0  0  0  0  0  0
   37.4900   28.5550   40.0830 O   0  0  0  0  0  0  0  0  0  0  0  0
   36.7710   29.0880   41.3230 P   0  0  2  0  0  0  0  0  0  0  0  0
   35.1140   29.1010   41.0770 O   0  0  0  0  0  0  0  0  0  0  0  0
   34.8860   28.7680   40.1800 H   0  0  0  0  0  0  0  0  0  0  0  0
   37.2080   28.1360   42.6400 O   0  0  0  0  0  0  0  0  0  0  0  0
   37.6020   26.8080   42.5150 C   0  0  0  0  0  0  0  0  0  0  0  0
   36.8090   25.7770   42.0580 C   0  0  0  0  0  0  0  0  0  0  0  0
   35.8030   26.0160   41.7730 H   0  0  0  0  0  0  0  0  0  0  0  0
   37.2920   24.4830   41.9690 C   0  0  0  0  0  3  0  0  0  0  0  0
   38.6020   24.2550   42.3560 C   0  0  0  0  0  3  0  0  0  0  0  0
   39.4400   25.2690   42.8250 C   0  0  0  0  0  0  0  0  0  0  0  0
   40.7420   24.9750   43.1970 C   0  0  0  0  0  3  0  0  0  0  0  0
   41.5590   26.0040   43.6620 C   0  0  0  0  0  3  0  0  0  0  0  0
   41.0550   27.2970   43.7430 C   0  0  0  0  0  3  0  0  0  0  0  0
   39.7500   27.5230   43.3580 C   0  0  0  0  0  3  0  0  0  0  0  0
   38.9090   26.5500   42.8950 C   0  0  0  0  0  0  0  0  0  0  0  0
  1  2  1  0  0  0  0
  2  7  1  0  0  0  0
  3  2  2  0  0  0  0
  3  4  1  0  0  0  0
  4  5  2  0  0  0  0
  5  6  1  0  0  0  0
  5  9  1  0  0  0  0
  6 10  1  0  0  0  0
  7 23  1  0  0  0  0
  7  6  2  0  0  0  0
  8  4  1  0  0  0  0
 11 12  1  0  0  0  0
 11  3  1  0  0  0  0
 13 11  1  0  0  0  0
 14 19  1  0  0  0  0
 15 14  2  0  0  0  0
 15 16  1  0  0  0  0
 16 17  2  0  0  0  0
 17 18  1  0  0  0  0
 18 11  1  0  0  0  0
 19 18  2  0  0  0  0
 20 14  1  0  0  0  0
 21 15  1  0  0  0  0
 22 16  1  0  0  0  0
 25 24  2  6  0  0  0
 25 23  1  0  0  0  0
 25 28  1  0  0  0  0
 26 25  1  0  0  0  0
 27 26  1  0  0  0  0
 29 28  1  0  0  0  0
 29 39  1  0  0  0  0
 30 29  2  0  0  0  0
 31 30  1  0  0  0  0
 32 30  1  0  0  0  0
 32 33  2  0  0  0  0
 33 34  1  0  0  0  0
 34 39  2  0  0  0  0
 34 35  1  0  0  0  0
 35 36  2  0  0  0  0
 36 37  1  0  0  0  0
 38 37  2  0  0  0  0
 39 38  1  0  0  0  0
M  END
>  <minimizedAffinity>
-6.38865423

$$$$

 OpenBabel03252502573D

 39 42  0  0  0  0  0  0  0  0999 V2000
   41.7430   29.3270   42.5680 Br  0  0  0  0  0  0  0  0  0  0  0  0
   39.9040   28.8390   42.8410 C   0  0  0  0  0  0  0  0  0  0  0  0
   38.9800   29.8000   42.5430 C   0  0  0  0  0  0  0  0  0  0  0  0
   37.6520   29.4220   42.7490 C   0  0  0  0  0  0  0  0  0  0  0  0
   37.2770   28.1780   43.2170 C   0  0  0  0  0  0  0  0  0  0  0  0
   38.2650   27.2640   43.4930 C   0  0  0  0  0  0  0  0  0  0  0  0
   39.5910   27.5780   43.3110 C   0  0  0  0  0  0  0  0  0  0  0  0
   36.8520   30.1310   42.5360 H   0  0  0  0  0  0  0  0  0  0  0  0
   36.2430   27.9110   43.3680 H   0  0  0  0  0  0  0  0  0  0  0  0
   38.0550   26.2670   43.8650 H   0  0  0  0  0  0  0  0  0  0  0  0
   39.2270   31.1490   42.0450 C   0  0  0  0  0  0  0  0  0  0  0  0
   40.3240   31.3580   42.1090 H   0  0  0  0  0  0  0  0  0  0  0  0
   38.7510   31.8840   42.7500 H   0  0  0  0  0  0  0  0  0  0  0  0
   37.0360   31.8580   39.1200 C   0  0  0  0  0  0  0  0  0  0  0  0
   37.9500   31.8390   38.0540 C   0  0  0  0  0  0  0  0  0  0  0  0
   39.2910   31.5840   38.3680 C   0  0  0  0  0  0  0  0  0  0  0  0
   39.6530   31.3710   39.6420 N   0  0  0  0  0  0  0  0  0  0  0  0
   38.7420   31.3940   40.6710 C   0  0  0  0  0  0  0  0  0  0  0  0
   37.4630   31.6390   40.3570 N   0  0  0  0  0  0  0  0  0  0  0  0
   35.9750   32.0430   39.0080 H   0  0  0  0  0  0  0  0  0  0  0  0
   37.5490   32.0230   37.0660 H   0  0  0  0  0  0  0  0  0  0  0  0
   39.9760   31.5720   37.5530 H   0  0  0  0  0  0  0  0  0  0  0  0
   40.5880   26.6500   43.5930 O   0  0  0  0  0  0  0  0  0  0  0  0
   39.7730   24.1920   43.5460 O   0  0  0  0  0  0  0  0  0  0  0  0
   40.7060   25.1470   42.8000 P   0  0  2  0  0  0  0  0  0  0  0  0
   42.2930   24.6250   42.9190 O   0  0  0  0  0  0  0  0  0  0  0  0
   42.3560   23.7990   43.4490 H   0  0  0  0  0  0  0  0  0  0  0  0
   40.1920   25.2490   41.2010 O   0  0  0  0  0  0  0  0  0  0  0  0
   38.9010   24.9230   40.8000 C   0  0  0  0  0  0  0  0  0  0  0  0
   38.2730   23.7150   41.0260 C   0  0  0  0  0  0  0  0  0  0  0  0
   38.8240   22.9630   41.5560 H   0  0  0  0  0  0  0  0  0  0  0  0
   36.9810   23.4830   40.5860 C   0  0  0  0  0  3  0  0  0  0  0  0
   36.3360   24.5050   39.9100 C   0  0  0  0  0  3  0  0  0  0  0  0
   36.9340   25.7420   39.6590 C   0  0  0  0  0  0  0  0  0  0  0  0
   36.2350   26.7230   38.9750 C   0  0  0  0  0  3  0  0  0  0  0  0
   36.8520   27.9490   38.7370 C   0  0  0  0  0  3  0  0  0  0  0  0
   38.1500   28.1630   39.1870 C   0  0  0  0  0  3  0  0  0  0  0  0
   38.7910   27.1450   39.8610 C   0  0  0  0  0  3  0  0  0  0  0  0
   38.2300   25.9260   40.1200 C   0  0  0  0  0  0  0  0  0  0  0  0
  1  2  1  0  0  0  0
  2  7  1  0  0  0  0
  3  4  1  0  0  0  0
  3  2  2  0  0  0  0
  4  5  2  0  0  0  0
  5  9  1  0  0  0  0
  5  6  1  0  0  0  0
  6 10  1  0  0  0  0
  7  6  2  0  0  0  0
  7 23  1  0  0  0  0
  8  4  1  0  0  0  0
 11 12  1  0  0  0  0
 11  3  1  0  0  0  0
 11 13  1  0  0  0  0
 14 19  1  0  0  0  0
 15 16  1  0  0  0  0
 15 14  2  0  0  0  0
 16 17  2  0  0  0  0
 17 18  1  0  0  0  0
 18 11  1  0  0  0  0
 19 18  2  0  0  0  0
 20 14  1  0  0  0  0
 21 15  1  0  0  0  0
 22 16  1  0  0  0  0
 25 26  1  0  0  0  0
 25 24  2  1  0  0  0
 25 23  1  0  0  0  0
 26 27  1  0  0  0  0
 28 25  1  0  0  0  0
 29 30  1  0  0  0  0
 29 28  1  0  0  0  0
 30 31  1  0  0  0  0
 32 30  2  0  0  0  0
 33 32  1  0  0  0  0
 34 33  2  0  0  0  0
 34 39  1  0  0  0  0
 35 34  1  0  0  0  0
 36 35  2  0  0  0  0
 36 37  1  0  0  0  0
 37 38  2  0  0  0  0
 38 39  1  0  0  0  0
 39 29  2  0  0  0  0
M  END
>  <minimizedAffinity>
-6.35114098

$$$$

 OpenBabel03252502573D

 39 42  0  0  0  0  0  0  0  0999 V2000
   38.3860   27.1790   38.6560 Br  0  0  0  0  0  0  0  0  0  0  0  0
   37.6850   26.2920   40.2100 C   0  0  0  0  0  0  0  0  0  0  0  0
   37.0750   25.0910   39.9880 C   0  0  0  0  0  0  0  0  0  0  0  0
   36.5740   24.4660   41.1320 C   0  0  0  0  0  0  0  0  0  0  0  0
   36.6760   25.0010   42.3990 C   0  0  0  0  0  0  0  0  0  0  0  0
   37.3050   26.2140   42.5430 C   0  0  0  0  0  0  0  0  0  0  0  0
   37.8180   26.8790   41.4540 C   0  0  0  0  0  0  0  0  0  0  0  0
   36.0720   23.5020   41.0410 H   0  0  0  0  0  0  0  0  0  0  0  0
   36.2810   24.4980   43.2670 H   0  0  0  0  0  0  0  0  0  0  0  0
   37.4260   26.7030   43.5040 H   0  0  0  0  0  0  0  0  0  0  0  0
   36.8930   24.4060   38.7120 C   0  0  0  0  0  0  0  0  0  0  0  0
   37.1720   23.3310   38.8410 H   0  0  0  0  0  0  0  0  0  0  0  0
   37.6400   24.8130   37.9780 H   0  0  0  0  0  0  0  0  0  0  0  0
   33.8600   25.6650   36.9570 C   0  0  0  0  0  0  0  0  0  0  0  0
   32.9560   24.6040   37.1320 C   0  0  0  0  0  0  0  0  0  0  0  0
   33.4110   23.4880   37.8450 C   0  0  0  0  0  0  0  0  0  0  0  0
   34.6630   23.4650   38.3280 N   0  0  0  0  0  0  0  0  0  0  0  0
   35.5320   24.5140   38.1460 C   0  0  0  0  0  0  0  0  0  0  0  0
   35.0840   25.5750   37.4620 N   0  0  0  0  0  0  0  0  0  0  0  0
   33.6290   26.5790   36.4260 H   0  0  0  0  0  0  0  0  0  0  0  0
   31.9720   24.7280   36.7000 H   0  0  0  0  0  0  0  0  0  0  0  0
   32.7190   22.6890   37.9710 H   0  0  0  0  0  0  0  0  0  0  0  0
   38.4540   28.1070   41.6040 O   0  0  0  0  0  0  0  0  0  0  0  0
   39.0120   30.2410   42.9590 O   0  0  0  0  0  0  0  0  0  0  0  0
   37.8220   29.3680   42.5580 P   0  0  2  0  0  0  0  0  0  0  0  0
   37.1160   28.6840   43.9150 O   0  0  0  0  0  0  0  0  0  0  0  0
   37.5860   28.9550   44.7340 H   0  0  0  0  0  0  0  0  0  0  0  0
   36.7370   30.3170   41.6900 O   0  0  0  0  0  0  0  0  0  0  0  0
   36.1930   29.9220   40.4730 C   0  0  0  0  0  0  0  0  0  0  0  0
   35.1330   29.0540   40.3150 C   0  0  0  0  0  0  0  0  0  0  0  0
   34.6880   28.6480   41.2020 H   0  0  0  0  0  0  0  0  0  0  0  0
   34.6590   28.7200   39.0560 C   0  0  0  0  0  3  0  0  0  0  0  0
   35.2860   29.2860   37.9590 C   0  0  0  0  0  3  0  0  0  0  0  0
   36.3620   30.1690   38.0750 C   0  0  0  0  0  0  0  0  0  0  0  0
   36.9460   30.7010   36.9370 C   0  0  0  0  0  3  0  0  0  0  0  0
   38.0190   31.5790   37.0770 C   0  0  0  0  0  3  0  0  0  0  0  0
   38.4790   31.9030   38.3480 C   0  0  0  0  0  3  0  0  0  0  0  0
   37.8540   31.3380   39.4410 C   0  0  0  0  0  3  0  0  0  0  0  0
   36.8000   30.4730   39.3570 C   0  0  0  0  0  0  0  0  0  0  0  0
  1  2  1  0  0  0  0
  2  7  1  0  0  0  0
  3  2  2  0  0  0  0
  3  4  1  0  0  0  0
  4  5  2  0  0  0  0
  5  6  1  0  0  0  0
  5  9  1  0  0  0  0
  6 10  1  0  0  0  0
  7 23  1  0  0  0  0
  7  6  2  0  0  0  0
  8  4  1  0  0  0  0
 11 12  1  0  0  0  0
 11  3  1  0  0  0  0
 13 11  1  0  0  0  0
 14 15  2  0  0  0  0
 14 19  1  0  0  0  0
 15 16  1  0  0  0  0
 16 22  1  0  0  0  0
 16 17  2  0  0  0  0
 18 17  1  0  0  0  0
 18 11  1  0  0  0  0
 19 18  2  0  0  0  0
 20 14  1  0  0  0  0
 21 15  1  0  0  0  0
 23 25  1  0  0  0  0
 25 24  2  1  0  0  0
 25 26  1  0  0  0  0
 26 27  1  0  0  0  0
 28 25  1  0  0  0  0
 29 28  1  0  0  0  0
 30 29  1  0  0  0  0
 30 31  1  0  0  0  0
 32 30  2  0  0  0  0
 33 34  2  0  0  0  0
 33 32  1  0  0  0  0
 34 39  1  0  0  0  0
 35 36  2  0  0  0  0
 35 34  1  0  0  0  0
 36 37  1  0  0  0  0
 37 38  2  0  0  0  0
 39 38  1  0  0  0  0
 39 29  2  0  0  0  0
M  END
>  <minimizedAffinity>
-6.22035265

$$$$

 OpenBabel03252502573D

 39 42  0  0  0  0  0  0  0  0999 V2000
   41.5730   30.8070   41.7300 Br  0  0  0  0  0  0  0  0  0  0  0  0
   41.2390   32.4950   40.8730 C   0  0  0  0  0  0  0  0  0  0  0  0
   42.3350   33.1410   40.3790 C   0  0  0  0  0  0  0  0  0  0  0  0
   42.0670   34.3640   39.7610 C   0  0  0  0  0  0  0  0  0  0  0  0
   40.8000   34.8980   39.6450 C   0  0  0  0  0  0  0  0  0  0  0  0
   39.7470   34.1880   40.1670 C   0  0  0  0  0  0  0  0  0  0  0  0
   39.9470   32.9780   40.7880 C   0  0  0  0  0  0  0  0  0  0  0  0
   42.8890   34.9450   39.3400 H   0  0  0  0  0  0  0  0  0  0  0  0
   40.6200   35.8460   39.1620 H   0  0  0  0  0  0  0  0  0  0  0  0
   38.7210   34.5380   40.1180 H   0  0  0  0  0  0  0  0  0  0  0  0
   43.7260   32.7020   40.4280 C   0  0  0  0  0  0  0  0  0  0  0  0
   43.7880   31.7850   41.0650 H   0  0  0  0  0  0  0  0  0  0  0  0
   44.3280   33.4760   40.9760 H   0  0  0  0  0  0  0  0  0  0  0  0
   44.5270   31.2180   37.1090 C   0  0  0  0  0  0  0  0  0  0  0  0
   45.5530   32.0600   36.6480 C   0  0  0  0  0  0  0  0  0  0  0  0
   45.9410   33.1120   37.4880 C   0  0  0  0  0  0  0  0  0  0  0  0
   45.3380   33.2800   38.6740 N   0  0  0  0  0  0  0  0  0  0  0  0
   44.3350   32.4450   39.1070 C   0  0  0  0  0  0  0  0  0  0  0  0
   43.9750   31.4430   38.2940 N   0  0  0  0  0  0  0  0  0  0  0  0
   44.1400   30.3730   36.5540 H   0  0  0  0  0  0  0  0  0  0  0  0
   45.9690   31.8330   35.6760 H   0  0  0  0  0  0  0  0  0  0  0  0
   46.7180   33.7450   37.1290 H   0  0  0  0  0  0  0  0  0  0  0  0
   38.8770   32.2620   41.3140 O   0  0  0  0  0  0  0  0  0  0  0  0
   38.2010   31.0260   39.1420 O   0  0  0  0  0  0  0  0  0  0  0  0
   37.5790   31.7020   40.3650 P   0  0  2  0  0  0  0  0  0  0  0  0
   36.6710   33.0300   39.8990 O   0  0  0  0  0  0  0  0  0  0  0  0
   36.6940   33.1510   38.9230 H   0  0  0  0  0  0  0  0  0  0  0  0
   36.6560   30.5610   41.1890 O   0  0  0  0  0  0  0  0  0  0  0  0
   37.1960   29.4010   41.7310 C   0  0  0  0  0  0  0  0  0  0  0  0
   37.9210   29.3270   42.9020 C   0  0  0  0  0  0  0  0  0  0  0  0
   38.0840   30.2390   43.4420 H   0  0  0  0  0  0  0  0  0  0  0  0
   38.4210   28.1200   43.3640 C   0  0  0  0  0  3  0  0  0  0  0  0
   38.1680   26.9860   42.6100 C   0  0  0  0  0  3  0  0  0  0  0  0
   37.4390   27.0160   41.4190 C   0  0  0  0  0  0  0  0  0  0  0  0
   37.2220   25.8460   40.7110 C   0  0  0  0  0  3  0  0  0  0  0  0
   36.4920   25.9000   39.5260 C   0  0  0  0  0  3  0  0  0  0  0  0
   35.9990   27.1210   39.0790 C   0  0  0  0  0  3  0  0  0  0  0  0
   36.2510   28.2500   39.8310 C   0  0  0  0  0  3  0  0  0  0  0  0
   36.9600   28.2490   40.9980 C   0  0  0  0  0  0  0  0  0  0  0  0
  2  1  1  0  0  0  0
  3 11  1  0  0  0  0
  3  2  2  0  0  0  0
  4  3  1  0  0  0  0
  5  4  2  0  0  0  0
  5  6  1  0  0  0  0
  6  7  2  0  0  0  0
  7  2  1  0  0  0  0
  7 23  1  0  0  0  0
  8  4  1  0  0  0  0
  9  5  1  0  0  0  0
 10  6  1  0  0  0  0
 11 13  1  0  0  0  0
 11 12  1  0  0  0  0
 14 19  1  0  0  0  0
 15 14  2  0  0  0  0
 15 16  1  0  0  0  0
 16 17  2  0  0  0  0
 17 18  1  0  0  0  0
 18 11  1  0  0  0  0
 19 18  2  0  0  0  0
 20 14  1  0  0  0  0
 21 15  1  0  0  0  0
 22 16  1  0  0  0  0
 25 24  2  6  0  0  0
 25 28  1  0  0  0  0
 25 23  1  0  0  0  0
 26 25  1  0  0  0  0
 27 26  1  0  0  0  0
 28 29  1  0  0  0  0
 29 30  1  0  0  0  0
 30 32  2  0  0  0  0
 30 31  1  0  0  0  0
 33 32  1  0  0  0  0
 34 33  2  0  0  0  0
 35 34  1  0  0  0  0
 36 35  2  0  0  0  0
 37 36  1  0  0  0  0
 37 38  2  0  0  0  0
 38 39  1  0  0  0  0
 39 34  1  0  0  0  0
 39 29  2  0  0  0  0
M  END
>  <minimizedAffinity>
-6.21073389

$$$$

 OpenBabel03252502573D

 39 42  0  0  0  0  0  0  0  0999 V2000
   37.6130   28.7560   36.6570 Br  0  0  0  0  0  0  0  0  0  0  0  0
   36.7650   29.2650   38.3050 C   0  0  0  0  0  0  0  0  0  0  0  0
   36.9000   30.5750   38.6670 C   0  0  0  0  0  0  0  0  0  0  0  0
   36.2760   30.9200   39.8670 C   0  0  0  0  0  0  0  0  0  0  0  0
   35.5690   30.0250   40.6440 C   0  0  0  0  0  0  0  0  0  0  0  0
   35.4770   28.7240   40.2130 C   0  0  0  0  0  0  0  0  0  0  0  0
   36.0710   28.3220   39.0400 C   0  0  0  0  0  0  0  0  0  0  0  0
   36.3360   31.9480   40.2280 H   0  0  0  0  0  0  0  0  0  0  0  0
   35.0960   30.3170   41.5670 H   0  0  0  0  0  0  0  0  0  0  0  0
   34.9410   27.9590   40.7650 H   0  0  0  0  0  0  0  0  0  0  0  0
   37.6130   31.6270   37.9510 C   0  0  0  0  0  0  0  0  0  0  0  0
   36.8640   32.2820   37.4390 H   0  0  0  0  0  0  0  0  0  0  0  0
   38.2040   31.1580   37.1180 H   0  0  0  0  0  0  0  0  0  0  0  0
   38.9060   33.9310   40.5740 C   0  0  0  0  0  0  0  0  0  0  0  0
   40.2860   33.9390   40.3070 C   0  0  0  0  0  0  0  0  0  0  0  0
   40.7330   33.1550   39.2360 C   0  0  0  0  0  0  0  0  0  0  0  0
   39.8560   32.4390   38.5170 N   0  0  0  0  0  0  0  0  0  0  0  0
   38.5090   32.4450   38.7950 C   0  0  0  0  0  0  0  0  0  0  0  0
   38.0950   33.1990   39.8210 N   0  0  0  0  0  0  0  0  0  0  0  0
   38.4380   34.4940   41.3720 H   0  0  0  0  0  0  0  0  0  0  0  0
   40.9020   34.5530   40.9500 H   0  0  0  0  0  0  0  0  0  0  0  0
   41.7800   33.1670   39.0430 H   0  0  0  0  0  0  0  0  0  0  0  0
   35.9740   27.0040   38.6070 O   0  0  0  0  0  0  0  0  0  0  0  0
   37.6720   25.1820   37.9010 O   0  0  0  0  0  0  0  0  0  0  0  0
   37.0160   25.7710   39.1500 P   0  0  2  0  0  0  0  0  0  0  0  0
   36.0840   24.6120   39.9220 O   0  0  0  0  0  0  0  0  0  0  0  0
   36.1150   23.7550   39.4420 H   0  0  0  0  0  0  0  0  0  0  0  0
   38.2260   26.3780   40.1480 O   0  0  0  0  0  0  0  0  0  0  0  0
   37.9620   27.0140   41.3570 C   0  0  0  0  0  0  0  0  0  0  0  0
   37.0930   26.5600   42.3260 C   0  0  0  0  0  0  0  0  0  0  0  0
   36.5760   25.6400   42.1370 H   0  0  0  0  0  0  0  0  0  0  0  0
   36.8950   27.2660   43.5020 C   0  0  0  0  0  3  0  0  0  0  0  0
   37.6000   28.4460   43.6730 C   0  0  0  0  0  3  0  0  0  0  0  0
   38.4890   28.9410   42.7170 C   0  0  0  0  0  0  0  0  0  0  0  0
   39.1630   30.1290   42.9490 C   0  0  0  0  0  3  0  0  0  0  0  0
   40.0460   30.6040   41.9810 C   0  0  0  0  0  3  0  0  0  0  0  0
   40.2310   29.8810   40.8070 C   0  0  0  0  0  3  0  0  0  0  0  0
   39.5280   28.7060   40.6380 C   0  0  0  0  0  3  0  0  0  0  0  0
   38.6530   28.1980   41.5560 C   0  0  0  0  0  0  0  0  0  0  0  0
  1  2  1  0  0  0  0
  2  3  2  0  0  0  0
  2  7  1  0  0  0  0
  3  4  1  0  0  0  0
  4  8  1  0  0  0  0
  4  5  2  0  0  0  0
  5  9  1  0  0  0  0
  6  5  1  0  0  0  0
  6 10  1  0  0  0  0
  7  6  2  0  0  0  0
 11  3  1  0  0  0  0
 11 18  1  0  0  0  0
 12 11  1  0  0  0  0
 13 11  1  0  0  0  0
 14 20  1  0  0  0  0
 15 14  1  0  0  0  0
 15 21  1  0  0  0  0
 16 15  2  0  0  0  0
 17 18  2  0  0  0  0
 17 16  1  0  0  0  0
 18 19  1  0  0  0  0
 19 14  2  0  0  0  0
 22 16  1  0  0  0  0
 23  7  1  0  0  0  0
 23 25  1  0  0  0  0
 25 24  2  6  0  0  0
 25 26  1  0  0  0  0
 25 28  1  0  0  0  0
 27 26  1  0  0  0  0
 28 29  1  0  0  0  0
 29 39  2  0  0  0  0
 29 30  1  0  0  0  0
 30 32  2  0  0  0  0
 31 30  1  0  0  0  0
 32 33  1  0  0  0  0
 34 35  1  0  0  0  0
 34 33  2  0  0  0  0
 36 35  2  0  0  0  0
 37 36  1  0  0  0  0
 38 37  2  0  0  0  0
 38 39  1  0  0  0  0
 39 34  1  0  0  0  0
M  END
>  <minimizedAffinity>
-6.13808584

$$$$
