
 OpenBabel03252508003D

 31 34  0  0  1  0  0  0  0  0999 V2000
   46.3200   34.6880   43.2450 C   0  0  0  0  0  0  0  0  0  0  0  0
   45.3680   35.7210   43.4960 C   0  0  0  0  0  0  0  0  0  0  0  0
   44.6620   35.6190   44.6900 C   0  0  0  0  0  0  0  0  0  0  0  0
   44.9110   34.5780   45.5190 N   0  0  0  0  0  0  0  0  0  0  0  0
   45.8450   33.6170   45.2100 C   0  0  0  0  0  0  0  0  0  0  0  0
   46.5480   33.6560   44.0950 N   0  0  0  0  0  0  0  0  0  0  0  0
   45.2390   36.5140   42.7730 H   0  0  0  0  0  0  0  0  0  0  0  0
   43.9290   36.3800   44.9230 H   0  0  0  0  0  0  0  0  0  0  0  0
   46.0690   32.5110   46.1870 C   0  0  1  0  0  0  0  0  0  0  0  0
   46.8480   32.7950   47.4510 C   0  0  0  0  0  0  0  0  0  0  0  0
   45.3480   32.6730   47.4670 C   0  0  1  0  0  0  0  0  0  0  0  0
   46.1440   31.4950   45.7570 H   0  0  0  0  0  0  0  0  0  0  0  0
   47.3330   33.7790   47.4710 H   0  0  0  0  0  0  0  0  0  0  0  0
   47.4060   31.9250   47.8470 H   0  0  0  0  0  0  0  0  0  0  0  0
   44.9290   31.7980   48.0220 H   0  0  0  0  0  0  0  0  0  0  0  0
   44.6980   33.9250   47.7810 N   0  0  0  0  0  0  0  0  0  0  0  0
   43.7130   34.0030   47.5740 H   0  0  0  0  0  0  0  0  0  0  0  0
   45.2860   34.7420   47.8740 H   0  0  0  0  0  0  0  0  0  0  0  0
   47.0560   34.8140   42.0030 C   0  0  0  0  0  0  0  0  0  0  0  0
   48.1200   35.5160   41.8920 O   0  0  0  0  0  0  0  0  0  0  0  0
   46.3890   34.0330   40.9660 C   0  0  0  0  0  0  0  0  0  0  0  0
   45.2090   33.3440   41.1940 C   0  0  0  0  0  0  0  0  0  0  0  0
   44.7610   33.3930   42.1870 H   0  0  0  0  0  0  0  0  0  0  0  0
   44.5430   32.5880   40.2530 C   0  0  0  0  0  3  0  0  0  0  0  0
   45.0670   32.4960   38.9920 C   0  0  0  0  0  3  0  0  0  0  0  0
   46.2400   33.1570   38.6920 C   0  0  0  0  0  0  0  0  0  0  0  0
   46.7970   33.0820   37.4140 C   0  0  0  0  0  3  0  0  0  0  0  0
   47.9610   33.7290   37.0890 C   0  0  0  0  0  3  0  0  0  0  0  0
   48.6100   34.4860   38.0660 C   0  0  0  0  0  3  0  0  0  0  0  0
   48.0250   34.5340   39.3190 C   0  0  0  0  0  3  0  0  0  0  0  0
   46.8590   33.8960   39.6770 C   0  0  0  0  0  0  0  0  0  0  0  0
  1  2  2  0  0  0  0
  1  6  1  0  0  0  0
  2  3  1  0  0  0  0
  3  8  1  0  0  0  0
  3  4  2  0  0  0  0
  5  4  1  0  0  0  0
  5  9  1  0  0  0  0
  6  5  2  0  0  0  0
  7  2  1  0  0  0  0
  9 12  1  6  0  0  0
  9 10  1  0  0  0  0
  9 11  1  0  0  0  0
 10 11  1  0  0  0  0
 10 13  1  0  0  0  0
 10 14  1  0  0  0  0
 11 16  1  0  0  0  0
 11 15  1  1  0  0  0
 16 18  1  0  0  0  0
 17 16  1  0  0  0  0
 19  1  1  0  0  0  0
 20 19  2  0  0  0  0
 21 22  1  0  0  0  0
 21 19  1  0  0  0  0
 22 23  1  0  0  0  0
 24 22  2  0  0  0  0
 25 24  1  0  0  0  0
 26 25  2  0  0  0  0
 26 31  1  0  0  0  0
 27 26  1  0  0  0  0
 28 27  2  0  0  0  0
 28 29  1  0  0  0  0
 29 30  2  0  0  0  0
 30 31  1  0  0  0  0
 31 21  2  0  0  0  0
M  END
>  <minimizedAffinity>
-6.46634436

>  <minimizedRMSD>
0.644326568

$$$$
