
 OpenBabel03252502373D

 26 28  0  0  1  0  0  0  0  0999 V2000
   46.1960   35.1930   42.2920 C   0  0  1  0  0  0  0  0  0  0  0  0
   45.8850   36.2600   42.3910 H   0  0  0  0  0  0  0  0  0  0  0  0
   45.4830   34.5120   41.1900 C   0  0  0  0  0  0  0  0  0  0  0  0
   46.2160   33.6280   40.3830 C   0  0  0  0  0  0  0  0  0  0  0  0
   47.2820   33.4830   40.5860 H   0  0  0  0  0  0  0  0  0  0  0  0
   45.7080   32.9050   39.3350 C   0  0  0  0  0  3  0  0  0  0  0  0
   44.3700   33.0510   39.0390 C   0  0  0  0  0  3  0  0  0  0  0  0
   43.5950   33.9040   39.7920 C   0  0  0  0  0  0  0  0  0  0  0  0
   42.2700   34.0680   39.5110 C   0  0  0  0  0  3  0  0  0  0  0  0
   41.5080   34.9330   40.2700 C   0  0  0  0  0  3  0  0  0  0  0  0
   42.0590   35.6430   41.3160 C   0  0  0  0  0  3  0  0  0  0  0  0
   43.3990   35.4630   41.5830 C   0  0  0  0  0  3  0  0  0  0  0  0
   44.1550   34.6070   40.8340 C   0  0  0  0  0  0  0  0  0  0  0  0
   45.1780   34.9480   44.5460 C   0  0  0  0  0  0  0  0  0  0  0  0
   46.1050   34.5600   43.5890 C   0  0  0  0  0  0  0  0  0  0  0  0
   46.9560   33.4980   43.9640 C   0  0  0  0  0  0  0  0  0  0  0  0
   46.8280   32.9300   45.1970 N   0  0  0  0  0  0  0  0  0  0  0  0
   45.8940   33.3690   46.0740 C   0  0  0  0  0  0  0  0  0  0  0  0
   45.0660   34.3840   45.7430 N   0  0  0  0  0  0  0  0  0  0  0  0
   44.4730   35.7500   44.3800 H   0  0  0  0  0  0  0  0  0  0  0  0
   47.7190   33.1210   43.2770 H   0  0  0  0  0  0  0  0  0  0  0  0
   45.9710   32.7760   46.9910 H   0  0  0  0  0  0  0  0  0  0  0  0
   47.6620   35.2940   41.9040 C   0  0  0  0  0  0  0  0  0  0  0  0
   48.2290   34.3880   42.1440 H   0  0  0  0  0  0  0  0  0  0  0  0
   48.1410   36.1350   42.4840 H   0  0  0  0  0  0  0  0  0  0  0  0
   47.7560   35.5890   40.8350 H   0  0  0  0  0  0  0  0  0  0  0  0
  1  2  1  1  0  0  0
  1 15  1  0  0  0  0
  3  1  1  0  0  0  0
  4  5  1  0  0  0  0
  4  3  2  0  0  0  0
  6  4  1  0  0  0  0
  7  6  2  0  0  0  0
  7  8  1  0  0  0  0
  8 13  1  0  0  0  0
  9  8  2  0  0  0  0
  9 10  1  0  0  0  0
 10 11  2  0  0  0  0
 11 12  1  0  0  0  0
 13  3  1  0  0  0  0
 13 12  2  0  0  0  0
 14 19  1  0  0  0  0
 15 16  1  0  0  0  0
 15 14  2  0  0  0  0
 16 17  2  0  0  0  0
 17 18  1  0  0  0  0
 18 22  1  0  0  0  0
 19 18  2  0  0  0  0
 20 14  1  0  0  0  0
 21 16  1  0  0  0  0
 23 24  1  0  0  0  0
 23  1  1  0  0  0  0
 23 25  1  0  0  0  0
 26 23  1  0  0  0  0
M  END
>  <minimizedAffinity>
-5.38701916

>  <minimizedRMSD>
2.61841154

$$$$
