
 OpenBabel03252509273D

 32 35  0  0  1  0  0  0  0  0999 V2000
   47.1650   35.2670   41.8440 C   0  0  1  0  0  0  0  0  0  0  0  0
   48.6820   35.4350   41.9300 C   0  0  0  0  0  0  0  0  0  0  0  0
   47.9290   34.3700   41.0700 C   0  0  2  0  0  0  0  0  0  0  0  0
   46.6740   36.1570   41.4570 H   0  0  0  0  0  0  0  0  0  0  0  0
   49.1500   36.2480   41.3240 H   0  0  0  0  0  0  0  0  0  0  0  0
   49.2170   35.1150   42.8170 H   0  0  0  0  0  0  0  0  0  0  0  0
   48.2110   33.3390   41.4620 H   0  0  0  0  0  0  0  0  0  0  0  0
   44.9660   34.8220   44.8420 C   0  0  0  0  0  0  0  0  0  0  0  0
   45.4720   35.3740   43.6330 C   0  0  0  0  0  0  0  0  0  0  0  0
   46.6020   34.7740   43.1570 C   0  0  0  0  0  0  0  0  0  0  0  0
   47.1950   33.7180   43.8110 N   0  0  0  0  0  0  0  0  0  0  0  0
   46.6840   33.2290   44.9510 C   0  0  0  0  0  0  0  0  0  0  0  0
   45.5580   33.7870   45.4710 N   0  0  0  0  0  0  0  0  0  0  0  0
   44.0710   35.2280   45.2900 H   0  0  0  0  0  0  0  0  0  0  0  0
   47.1650   32.3980   45.4550 H   0  0  0  0  0  0  0  0  0  0  0  0
   44.8580   36.4680   42.9990 N   0  0  0  0  0  0  0  0  0  0  0  0
   45.5240   37.2760   43.0570 H   0  0  0  0  0  0  0  0  0  0  0  0
   43.8900   36.4560   42.5490 H   0  0  0  0  0  0  0  0  0  0  0  0
   48.0590   34.4700   39.5730 C   0  0  0  0  0  0  0  0  0  0  0  0
   49.1550   34.4030   39.3210 H   0  0  0  0  0  0  0  0  0  0  0  0
   47.6890   35.4790   39.3410 H   0  0  0  0  0  0  0  0  0  0  0  0
   47.3890   33.3700   38.8780 C   0  0  0  0  0  0  0  0  0  0  0  0
   46.0210   33.2600   39.1690 C   0  0  0  0  0  0  0  0  0  0  0  0
   45.5100   33.8490   39.9220 H   0  0  0  0  0  0  0  0  0  0  0  0
   45.2250   32.3580   38.4730 C   0  0  0  0  0  3  0  0  0  0  0  0
   45.7220   31.5380   37.4800 C   0  0  0  0  0  3  0  0  0  0  0  0
   47.0460   31.6320   37.1940 C   0  0  0  0  0  0  0  0  0  0  0  0
   47.6120   30.7930   36.2360 C   0  0  0  0  0  3  0  0  0  0  0  0
   48.9710   30.8900   36.0130 C   0  0  0  0  0  3  0  0  0  0  0  0
   49.7600   31.7870   36.7070 C   0  0  0  0  0  3  0  0  0  0  0  0
   49.1730   32.6070   37.6460 C   0  0  0  0  0  3  0  0  0  0  0  0
   47.8010   32.5150   37.8800 C   0  0  0  0  0  0  0  0  0  0  0  0
  1  4  1  6  0  0  0
  1  2  1  0  0  0  0
  1 10  1  0  0  0  0
  2  6  1  0  0  0  0
  3  7  1  1  0  0  0
  3  1  1  0  0  0  0
  3  2  1  0  0  0  0
  5  2  1  0  0  0  0
  8 14  1  0  0  0  0
  8 13  1  0  0  0  0
  9  8  2  0  0  0  0
 10  9  1  0  0  0  0
 10 11  2  0  0  0  0
 11 12  1  0  0  0  0
 12 15  1  0  0  0  0
 12 13  2  0  0  0  0
 16 17  1  0  0  0  0
 16  9  1  0  0  0  0
 18 16  1  0  0  0  0
 19  3  1  0  0  0  0
 20 19  1  0  0  0  0
 21 19  1  0  0  0  0
 22 23  1  0  0  0  0
 22 19  1  0  0  0  0
 23 24  1  0  0  0  0
 25 23  2  0  0  0  0
 26 25  1  0  0  0  0
 27 26  2  0  0  0  0
 27 32  1  0  0  0  0
 28 27  1  0  0  0  0
 29 28  2  0  0  0  0
 29 30  1  0  0  0  0
 30 31  2  0  0  0  0
 31 32  1  0  0  0  0
 32 22  2  0  0  0  0
M  END
>  <minimizedAffinity>
-5.1738987

>  <minimizedRMSD>
3.29144239

$$$$
