
 OpenBabel03252507463D

 39 42  0  0  0  0  0  0  0  0999 V2000
   48.4460   33.8380   41.4120 C   0  0  0  0  0  0  0  0  0  0  0  0
   49.0480   32.6680   40.9830 C   0  0  0  0  0  0  0  0  0  0  0  0
   50.3460   32.3560   41.3660 C   0  0  0  0  0  0  0  0  0  0  0  0
   50.9840   33.2670   42.1850 N   0  0  0  0  0  0  0  0  0  0  0  0
   50.3610   34.3960   42.5810 C   0  0  0  0  0  0  0  0  0  0  0  0
   49.1210   34.6700   42.2010 N   0  0  0  0  0  0  0  0  0  0  0  0
   50.8270   31.4450   41.0370 H   0  0  0  0  0  0  0  0  0  0  0  0
   50.9660   35.0350   43.2240 H   0  0  0  0  0  0  0  0  0  0  0  0
   47.0660   34.0800   40.9510 C   0  0  0  0  0  0  0  0  0  0  0  0
   47.0760   34.5010   39.9050 H   0  0  0  0  0  0  0  0  0  0  0  0
   46.4870   33.1480   40.8760 H   0  0  0  0  0  0  0  0  0  0  0  0
   46.2910   35.0020   41.8380 C   0  0  0  0  0  0  0  0  0  0  0  0
   46.6200   36.0290   41.6750 H   0  0  0  0  0  0  0  0  0  0  0  0
   46.5160   34.7620   42.9160 H   0  0  0  0  0  0  0  0  0  0  0  0
   44.8220   34.9260   41.6430 C   0  0  0  0  0  0  0  0  0  0  0  0
   43.9460   35.3740   42.6910 C   0  0  0  0  0  0  0  0  0  0  0  0
   42.2780   35.0770   41.9690 S   0  0  0  0  0  0  0  0  0  0  0  0
   43.0520   34.3980   40.3740 C   0  0  0  0  0  0  0  0  0  0  0  0
   44.1640   34.4910   40.6050 N   0  0  0  0  0  0  0  0  0  0  0  0
   44.2380   35.7790   43.6520 H   0  0  0  0  0  0  0  0  0  0  0  0
   42.2890   33.9500   39.3040 O   0  0  0  0  0  0  0  0  0  0  0  0
   40.3520   34.4580   37.5580 O   0  0  0  0  0  0  0  0  0  0  0  0
   41.4500   35.1290   38.3900 P   0  0  0  0  0  0  0  0  0  0  0  0
   40.7350   36.2130   39.4810 O   0  0  0  0  0  0  0  0  0  0  0  0
   39.8370   35.8720   39.6960 H   0  0  0  0  0  0  0  0  0  0  0  0
   42.5380   35.9660   37.4050 O   0  0  0  0  0  0  0  0  0  0  0  0
   42.6570   36.9030   37.6720 H   0  0  0  0  0  0  0  0  0  0  0  0
   48.1630   31.5250   39.9230 S   0  0  0  0  0  0  0  0  0  0  0  0
   48.3840   31.8860   38.2120 C   0  0  0  0  0  0  0  0  0  0  0  0
   47.5600   32.7530   37.5230 C   0  0  0  0  0  0  0  0  0  0  0  0
   46.7470   33.2280   38.0580 H   0  0  0  0  0  0  0  0  0  0  0  0
   47.7760   32.9960   36.2000 C   0  0  0  0  0  3  0  0  0  0  0  0
   48.8260   32.3790   35.5190 C   0  0  0  0  0  3  0  0  0  0  0  0
   49.6450   31.5080   36.2320 C   0  0  0  0  0  0  0  0  0  0  0  0
   50.6940   30.8900   35.5620 C   0  0  0  0  0  3  0  0  0  0  0  0
   51.5350   30.0190   36.2200 C   0  0  0  0  0  3  0  0  0  0  0  0
   51.3350   29.7510   37.5780 C   0  0  0  0  0  3  0  0  0  0  0  0
   50.2800   30.3800   38.2340 C   0  0  0  0  0  3  0  0  0  0  0  0
   49.4360   31.2490   37.5890 C   0  0  0  0  0  0  0  0  0  0  0  0
  1  6  1  0  0  0  0
  2  3  1  0  0  0  0
  2  1  2  0  0  0  0
  3  4  2  0  0  0  0
  4  5  1  0  0  0  0
  5  8  1  0  0  0  0
  6  5  2  0  0  0  0
  7  3  1  0  0  0  0
  9  1  1  0  0  0  0
  9 12  1  0  0  0  0
 10  9  1  0  0  0  0
 11  9  1  0  0  0  0
 12 14  1  0  0  0  0
 13 12  1  0  0  0  0
 15 12  1  0  0  0  0
 15 16  2  0  0  0  0
 16 20  1  0  0  0  0
 17 16  1  0  0  0  0
 18 19  2  0  0  0  0
 18 17  1  0  0  0  0
 19 15  1  0  0  0  0
 21 18  1  0  0  0  0
 22 23  2  0  0  0  0
 23 21  1  0  0  0  0
 23 24  1  0  0  0  0
 24 25  1  0  0  0  0
 26 27  1  0  0  0  0
 26 23  1  0  0  0  0
 28  2  1  0  0  0  0
 29 28  1  0  0  0  0
 30 31  1  0  0  0  0
 30 29  2  0  0  0  0
 32 30  1  0  0  0  0
 33 32  2  0  0  0  0
 33 34  1  0  0  0  0
 34 39  1  0  0  0  0
 35 36  1  0  0  0  0
 35 34  2  0  0  0  0
 36 37  2  0  0  0  0
 37 38  1  0  0  0  0
 39 29  1  0  0  0  0
 39 38  2  0  0  0  0
M  END
>  <minimizedAffinity>
-5.13821077

>  <minimizedRMSD>
0.285554558

$$$$
