
 OpenBabel03252507463D

 39 42  0  0  0  0  0  0  0  0999 V2000
   48.4460   33.9320   41.3380 C   0  0  0  0  0  0  0  0  0  0  0  0
   48.8620   32.6790   40.9220 C   0  0  0  0  0  0  0  0  0  0  0  0
   50.1070   32.1850   41.2890 C   0  0  0  0  0  0  0  0  0  0  0  0
   50.8880   33.0060   42.0800 N   0  0  0  0  0  0  0  0  0  0  0  0
   50.4460   34.2200   42.4640 C   0  0  0  0  0  0  0  0  0  0  0  0
   49.2520   34.6680   42.0990 N   0  0  0  0  0  0  0  0  0  0  0  0
   50.4420   31.2080   40.9700 H   0  0  0  0  0  0  0  0  0  0  0  0
   51.1500   34.7750   43.0840 H   0  0  0  0  0  0  0  0  0  0  0  0
   47.1090   34.3680   40.8950 C   0  0  0  0  0  0  0  0  0  0  0  0
   47.2030   35.0920   40.0360 H   0  0  0  0  0  0  0  0  0  0  0  0
   46.5140   33.5320   40.4970 H   0  0  0  0  0  0  0  0  0  0  0  0
   46.2960   35.0020   41.9780 C   0  0  0  0  0  0  0  0  0  0  0  0
   46.6000   36.0420   42.1020 H   0  0  0  0  0  0  0  0  0  0  0  0
   46.5110   34.4870   42.9580 H   0  0  0  0  0  0  0  0  0  0  0  0
   44.8330   34.9490   41.7380 C   0  0  0  0  0  0  0  0  0  0  0  0
   43.9340   35.4540   42.7390 C   0  0  0  0  0  0  0  0  0  0  0  0
   42.2840   35.1650   41.9750 S   0  0  0  0  0  0  0  0  0  0  0  0
   43.0930   34.4110   40.4320 C   0  0  0  0  0  0  0  0  0  0  0  0
   44.1990   34.4890   40.6960 N   0  0  0  0  0  0  0  0  0  0  0  0
   44.2040   35.8890   43.6940 H   0  0  0  0  0  0  0  0  0  0  0  0
   42.3550   33.9390   39.3550 O   0  0  0  0  0  0  0  0  0  0  0  0
   40.4140   34.3920   37.6000 O   0  0  0  0  0  0  0  0  0  0  0  0
   41.4970   35.0920   38.4260 P   0  0  0  0  0  0  0  0  0  0  0  0
   40.7600   36.1750   39.5030 O   0  0  0  0  0  0  0  0  0  0  0  0
   39.8680   35.8200   39.7200 H   0  0  0  0  0  0  0  0  0  0  0  0
   42.5720   35.9370   37.4340 O   0  0  0  0  0  0  0  0  0  0  0  0
   42.6730   36.8800   37.6910 H   0  0  0  0  0  0  0  0  0  0  0  0
   47.7980   31.6610   39.8990 S   0  0  0  0  0  0  0  0  0  0  0  0
   47.9250   32.0640   38.1870 C   0  0  0  0  0  0  0  0  0  0  0  0
   48.6930   33.1130   37.7250 C   0  0  0  0  0  0  0  0  0  0  0  0
   49.2380   33.7110   38.4470 H   0  0  0  0  0  0  0  0  0  0  0  0
   48.7550   33.3810   36.3920 C   0  0  0  0  0  3  0  0  0  0  0  0
   48.0500   32.6060   35.4710 C   0  0  0  0  0  3  0  0  0  0  0  0
   47.2800   31.5510   35.9560 C   0  0  0  0  0  0  0  0  0  0  0  0
   46.5740   30.7740   35.0470 C   0  0  0  0  0  3  0  0  0  0  0  0
   45.7990   29.7190   35.4750 C   0  0  0  0  0  3  0  0  0  0  0  0
   45.7170   29.4220   36.8380 C   0  0  0  0  0  3  0  0  0  0  0  0
   46.4310   30.2130   37.7370 C   0  0  0  0  0  3  0  0  0  0  0  0
   47.2070   31.2650   37.3220 C   0  0  0  0  0  0  0  0  0  0  0  0
  1  6  1  0  0  0  0
  2  3  1  0  0  0  0
  2  1  2  0  0  0  0
  3  4  2  0  0  0  0
  4  5  1  0  0  0  0
  5  8  1  0  0  0  0
  6  5  2  0  0  0  0
  7  3  1  0  0  0  0
  9  1  1  0  0  0  0
  9 12  1  0  0  0  0
 10  9  1  0  0  0  0
 11  9  1  0  0  0  0
 12 13  1  0  0  0  0
 12 14  1  0  0  0  0
 15 12  1  0  0  0  0
 15 16  2  0  0  0  0
 16 20  1  0  0  0  0
 17 16  1  0  0  0  0
 18 19  2  0  0  0  0
 18 17  1  0  0  0  0
 19 15  1  0  0  0  0
 21 18  1  0  0  0  0
 22 23  2  0  0  0  0
 23 21  1  0  0  0  0
 23 24  1  0  0  0  0
 24 25  1  0  0  0  0
 26 27  1  0  0  0  0
 26 23  1  0  0  0  0
 28  2  1  0  0  0  0
 29 28  1  0  0  0  0
 30 29  1  0  0  0  0
 30 31  1  0  0  0  0
 32 30  2  0  0  0  0
 33 34  2  0  0  0  0
 33 32  1  0  0  0  0
 34 39  1  0  0  0  0
 35 36  2  0  0  0  0
 35 34  1  0  0  0  0
 36 37  1  0  0  0  0
 37 38  2  0  0  0  0
 39 38  1  0  0  0  0
 39 29  2  0  0  0  0
M  END
>  <minimizedAffinity>
-5.20471001

>  <minimizedRMSD>
0.422881454

$$$$
