
 OpenBabel03252508013D

 31 34  0  0  1  0  0  0  0  0999 V2000
   37.3490   30.7000   40.0970 C   0  0  0  0  0  0  0  0  0  0  0  0
   36.9960   32.0630   40.3330 C   0  0  0  0  0  0  0  0  0  0  0  0
   37.9750   33.0040   40.0300 C   0  0  0  0  0  0  0  0  0  0  0  0
   39.1670   32.5860   39.5440 N   0  0  0  0  0  0  0  0  0  0  0  0
   39.4370   31.2520   39.3430 C   0  0  0  0  0  0  0  0  0  0  0  0
   38.5530   30.3110   39.6100 N   0  0  0  0  0  0  0  0  0  0  0  0
   36.0180   32.3010   40.7240 H   0  0  0  0  0  0  0  0  0  0  0  0
   37.7530   34.0500   40.1920 H   0  0  0  0  0  0  0  0  0  0  0  0
   40.7710   30.8780   38.7890 C   0  0  1  0  0  0  0  0  0  0  0  0
   40.8360   30.0820   37.5060 C   0  0  0  0  0  0  0  0  0  0  0  0
   41.1200   31.5590   37.5250 C   0  0  1  0  0  0  0  0  0  0  0  0
   41.5740   30.7180   39.5330 H   0  0  0  0  0  0  0  0  0  0  0  0
   39.8670   29.6980   37.1630 H   0  0  0  0  0  0  0  0  0  0  0  0
   41.7220   29.4230   37.4240 H   0  0  0  0  0  0  0  0  0  0  0  0
   42.1690   31.8650   37.2900 H   0  0  0  0  0  0  0  0  0  0  0  0
   40.1200   32.3200   36.8100 N   0  0  0  0  0  0  0  0  0  0  0  0
   40.0870   33.3150   36.9750 H   0  0  0  0  0  0  0  0  0  0  0  0
   39.3200   31.8150   36.4550 H   0  0  0  0  0  0  0  0  0  0  0  0
   36.3160   29.7330   40.4070 C   0  0  0  0  0  0  0  0  0  0  0  0
   35.1620   29.7440   39.8520 O   0  0  0  0  0  0  0  0  0  0  0  0
   36.8130   28.8000   41.4130 C   0  0  0  0  0  0  0  0  0  0  0  0
   37.2440   29.2130   42.6630 C   0  0  0  0  0  0  0  0  0  0  0  0
   37.2030   30.2750   42.9040 H   0  0  0  0  0  0  0  0  0  0  0  0
   37.7280   28.3740   43.6460 C   0  0  0  0  0  3  0  0  0  0  0  0
   37.7980   27.0320   43.3910 C   0  0  0  0  0  3  0  0  0  0  0  0
   37.3860   26.5490   42.1650 C   0  0  0  0  0  0  0  0  0  0  0  0
   37.4450   25.1850   41.8770 C   0  0  0  0  0  3  0  0  0  0  0  0
   37.0420   24.6790   40.6700 C   0  0  0  0  0  3  0  0  0  0  0  0
   36.5560   25.5540   39.6960 C   0  0  0  0  0  3  0  0  0  0  0  0
   36.5150   26.8970   40.0220 C   0  0  0  0  0  3  0  0  0  0  0  0
   36.9130   27.4380   41.2240 C   0  0  0  0  0  0  0  0  0  0  0  0
  1  2  1  0  0  0  0
  1 19  1  0  0  0  0
  2  7  1  0  0  0  0
  3  8  1  0  0  0  0
  3  2  2  0  0  0  0
  4  3  1  0  0  0  0
  5  4  2  0  0  0  0
  5  6  1  0  0  0  0
  6  1  2  0  0  0  0
  9  5  1  0  0  0  0
  9 12  1  1  0  0  0
 10 11  1  0  0  0  0
 10  9  1  0  0  0  0
 11 15  1  6  0  0  0
 11  9  1  0  0  0  0
 13 10  1  0  0  0  0
 14 10  1  0  0  0  0
 16 17  1  0  0  0  0
 16 11  1  0  0  0  0
 18 16  1  0  0  0  0
 19 21  1  0  0  0  0
 20 19  2  0  0  0  0
 21 22  1  0  0  0  0
 22 23  1  0  0  0  0
 22 24  2  0  0  0  0
 25 24  1  0  0  0  0
 26 25  2  0  0  0  0
 27 26  1  0  0  0  0
 28 27  2  0  0  0  0
 29 30  2  0  0  0  0
 29 28  1  0  0  0  0
 30 31  1  0  0  0  0
 31 21  2  0  0  0  0
 31 26  1  0  0  0  0
M  END
>  <minimizedAffinity>
-6.31065178

$$$$

 OpenBabel03252508013D

 31 34  0  0  1  0  0  0  0  0999 V2000
   38.3060   29.6770   41.9650 C   0  0  0  0  0  0  0  0  0  0  0  0
   39.5650   29.6640   42.6380 C   0  0  0  0  0  0  0  0  0  0  0  0
   40.4840   30.6230   42.2240 C   0  0  0  0  0  0  0  0  0  0  0  0
   40.1410   31.4860   41.2390 N   0  0  0  0  0  0  0  0  0  0  0  0
   38.9070   31.4380   40.6340 C   0  0  0  0  0  0  0  0  0  0  0  0
   37.9920   30.5540   40.9800 N   0  0  0  0  0  0  0  0  0  0  0  0
   39.7470   28.9350   43.4140 H   0  0  0  0  0  0  0  0  0  0  0  0
   41.4520   30.6520   42.7050 H   0  0  0  0  0  0  0  0  0  0  0  0
   38.6040   32.4370   39.5670 C   0  0  1  0  0  0  0  0  0  0  0  0
   37.3470   33.2670   39.6740 C   0  0  0  0  0  0  0  0  0  0  0  0
   38.6960   33.8450   40.0060 C   0  0  1  0  0  0  0  0  0  0  0  0
   38.9660   32.1820   38.5530 H   0  0  0  0  0  0  0  0  0  0  0  0
   36.6600   32.9470   40.4680 H   0  0  0  0  0  0  0  0  0  0  0  0
   36.9190   33.5720   38.7000 H   0  0  0  0  0  0  0  0  0  0  0  0
   39.0700   34.6510   39.3270 H   0  0  0  0  0  0  0  0  0  0  0  0
   38.8280   34.1610   41.4100 N   0  0  0  0  0  0  0  0  0  0  0  0
   39.7600   34.3150   41.7660 H   0  0  0  0  0  0  0  0  0  0  0  0
   38.0650   33.8980   42.0180 H   0  0  0  0  0  0  0  0  0  0  0  0
   37.3560   28.6800   42.4140 C   0  0  0  0  0  0  0  0  0  0  0  0
   36.9170   28.6270   43.6160 O   0  0  0  0  0  0  0  0  0  0  0  0
   37.0150   27.8010   41.3010 C   0  0  0  0  0  0  0  0  0  0  0  0
   36.3110   28.2410   40.1920 C   0  0  0  0  0  0  0  0  0  0  0  0
   36.0060   29.2870   40.1500 H   0  0  0  0  0  0  0  0  0  0  0  0
   35.9600   27.4520   39.1170 C   0  0  0  0  0  3  0  0  0  0  0  0
   36.3210   26.1330   39.1230 C   0  0  0  0  0  3  0  0  0  0  0  0
   37.0240   25.6240   40.1960 C   0  0  0  0  0  0  0  0  0  0  0  0
   37.4060   24.2810   40.2290 C   0  0  0  0  0  3  0  0  0  0  0  0
   38.1060   23.7510   41.2800 C   0  0  0  0  0  3  0  0  0  0  0  0
   38.4470   24.5770   42.3540 C   0  0  0  0  0  3  0  0  0  0  0  0
   38.0480   25.8990   42.2810 C   0  0  0  0  0  3  0  0  0  0  0  0
   37.3450   26.4640   41.2400 C   0  0  0  0  0  0  0  0  0  0  0  0
  1 19  1  0  0  0  0
  1  2  1  0  0  0  0
  2  7  1  0  0  0  0
  3  2  2  0  0  0  0
  3  8  1  0  0  0  0
  4  3  1  0  0  0  0
  5  6  1  0  0  0  0
  5  4  2  0  0  0  0
  6  1  2  0  0  0  0
  9 12  1  6  0  0  0
  9 10  1  0  0  0  0
  9 11  1  0  0  0  0
  9  5  1  0  0  0  0
 10 11  1  0  0  0  0
 10 13  1  0  0  0  0
 11 15  1  6  0  0  0
 11 16  1  0  0  0  0
 14 10  1  0  0  0  0
 16 17  1  0  0  0  0
 16 18  1  0  0  0  0
 19 20  2  0  0  0  0
 21 19  1  0  0  0  0
 22 21  2  0  0  0  0
 23 22  1  0  0  0  0
 24 25  2  0  0  0  0
 24 22  1  0  0  0  0
 25 26  1  0  0  0  0
 26 27  2  0  0  0  0
 26 31  1  0  0  0  0
 27 28  1  0  0  0  0
 28 29  2  0  0  0  0
 30 29  1  0  0  0  0
 31 21  1  0  0  0  0
 31 30  2  0  0  0  0
M  END
>  <minimizedAffinity>
-6.10686398

$$$$

 OpenBabel03252508013D

 31 34  0  0  1  0  0  0  0  0999 V2000
   37.8680   30.1170   39.7270 C   0  0  0  0  0  0  0  0  0  0  0  0
   38.5590   29.4440   38.6750 C   0  0  0  0  0  0  0  0  0  0  0  0
   39.7560   30.0240   38.2670 C   0  0  0  0  0  0  0  0  0  0  0  0
   40.1820   31.1570   38.8730 N   0  0  0  0  0  0  0  0  0  0  0  0
   39.4620   31.7510   39.8820 C   0  0  0  0  0  0  0  0  0  0  0  0
   38.3210   31.2520   40.3150 N   0  0  0  0  0  0  0  0  0  0  0  0
   38.1390   28.5430   38.2520 H   0  0  0  0  0  0  0  0  0  0  0  0
   40.3150   29.5490   37.4720 H   0  0  0  0  0  0  0  0  0  0  0  0
   40.0110   32.9900   40.5060 C   0  0  1  0  0  0  0  0  0  0  0  0
   40.3760   34.1590   39.6200 C   0  0  0  0  0  0  0  0  0  0  0  0
   39.1110   34.1600   40.4350 C   0  0  1  0  0  0  0  0  0  0  0  0
   40.6020   32.8440   41.4300 H   0  0  0  0  0  0  0  0  0  0  0  0
   40.3550   33.9350   38.5460 H   0  0  0  0  0  0  0  0  0  0  0  0
   41.2000   34.7860   40.0110 H   0  0  0  0  0  0  0  0  0  0  0  0
   39.0540   34.9120   41.2600 H   0  0  0  0  0  0  0  0  0  0  0  0
   37.9250   34.1150   39.6090 N   0  0  0  0  0  0  0  0  0  0  0  0
   37.0560   33.8640   40.0560 H   0  0  0  0  0  0  0  0  0  0  0  0
   38.0590   34.0080   38.6120 H   0  0  0  0  0  0  0  0  0  0  0  0
   36.6290   29.4950   40.1490 C   0  0  0  0  0  0  0  0  0  0  0  0
   35.5090   29.7100   39.5680 O   0  0  0  0  0  0  0  0  0  0  0  0
   36.8890   28.6290   41.2940 C   0  0  0  0  0  0  0  0  0  0  0  0
   37.1800   29.1270   42.5540 C   0  0  0  0  0  0  0  0  0  0  0  0
   37.2100   30.2080   42.6930 H   0  0  0  0  0  0  0  0  0  0  0  0
   37.4390   28.3530   43.6660 C   0  0  0  0  0  3  0  0  0  0  0  0
   37.4130   26.9910   43.5420 C   0  0  0  0  0  3  0  0  0  0  0  0
   37.1300   26.4250   42.3150 C   0  0  0  0  0  0  0  0  0  0  0  0
   37.0960   25.0380   42.1590 C   0  0  0  0  0  3  0  0  0  0  0  0
   36.8160   24.4500   40.9540 C   0  0  0  0  0  3  0  0  0  0  0  0
   36.5590   25.2610   39.8470 C   0  0  0  0  0  3  0  0  0  0  0  0
   36.6030   26.6290   40.0450 C   0  0  0  0  0  3  0  0  0  0  0  0
   36.8810   27.2520   41.2410 C   0  0  0  0  0  0  0  0  0  0  0  0
  1 19  1  0  0  0  0
  1  6  1  0  0  0  0
  2  1  2  0  0  0  0
  3  2  1  0  0  0  0
  3  4  2  0  0  0  0
  4  5  1  0  0  0  0
  5  6  2  0  0  0  0
  5  9  1  0  0  0  0
  7  2  1  0  0  0  0
  8  3  1  0  0  0  0
  9 12  1  1  0  0  0
 10 14  1  0  0  0  0
 10 11  1  0  0  0  0
 10  9  1  0  0  0  0
 11  9  1  0  0  0  0
 11 15  1  1  0  0  0
 13 10  1  0  0  0  0
 16 17  1  0  0  0  0
 16 11  1  0  0  0  0
 18 16  1  0  0  0  0
 19 21  1  0  0  0  0
 20 19  2  0  0  0  0
 21 22  1  0  0  0  0
 22 23  1  0  0  0  0
 22 24  2  0  0  0  0
 25 24  1  0  0  0  0
 26 25  2  0  0  0  0
 27 26  1  0  0  0  0
 28 27  2  0  0  0  0
 29 30  2  0  0  0  0
 29 28  1  0  0  0  0
 30 31  1  0  0  0  0
 31 21  2  0  0  0  0
 31 26  1  0  0  0  0
M  END
>  <minimizedAffinity>
-6.01904726

$$$$

 OpenBabel03252508013D

 31 34  0  0  1  0  0  0  0  0999 V2000
   37.8070   29.5740   40.5730 C   0  0  0  0  0  0  0  0  0  0  0  0
   38.3990   29.0580   39.3810 C   0  0  0  0  0  0  0  0  0  0  0  0
   39.2350   29.9320   38.6920 C   0  0  0  0  0  0  0  0  0  0  0  0
   39.4310   31.1800   39.1770 N   0  0  0  0  0  0  0  0  0  0  0  0
   38.8250   31.6090   40.3340 C   0  0  0  0  0  0  0  0  0  0  0  0
   38.0230   30.8310   41.0340 N   0  0  0  0  0  0  0  0  0  0  0  0
   38.1810   28.0460   39.0720 H   0  0  0  0  0  0  0  0  0  0  0  0
   39.7060   29.5850   37.7820 H   0  0  0  0  0  0  0  0  0  0  0  0
   39.1090   32.9950   40.8080 C   0  0  1  0  0  0  0  0  0  0  0  0
   39.5410   34.0400   39.8040 C   0  0  0  0  0  0  0  0  0  0  0  0
   38.1370   34.0080   40.3450 C   0  0  1  0  0  0  0  0  0  0  0  0
   39.5000   33.0820   41.8390 H   0  0  0  0  0  0  0  0  0  0  0  0
   39.7700   33.6400   38.8080 H   0  0  0  0  0  0  0  0  0  0  0  0
   40.2000   34.8250   40.2210 H   0  0  0  0  0  0  0  0  0  0  0  0
   37.8350   34.8720   40.9860 H   0  0  0  0  0  0  0  0  0  0  0  0
   37.1650   33.6710   39.3300 N   0  0  0  0  0  0  0  0  0  0  0  0
   36.2480   33.3860   39.6400 H   0  0  0  0  0  0  0  0  0  0  0  0
   37.5170   33.4190   38.4160 H   0  0  0  0  0  0  0  0  0  0  0  0
   36.9480   28.6500   41.2850 C   0  0  0  0  0  0  0  0  0  0  0  0
   35.6700   28.7350   41.2720 O   0  0  0  0  0  0  0  0  0  0  0  0
   37.7700   27.6630   41.9770 C   0  0  0  0  0  0  0  0  0  0  0  0
   38.6470   28.0050   42.9930 C   0  0  0  0  0  0  0  0  0  0  0  0
   38.7200   29.0510   43.2890 H   0  0  0  0  0  0  0  0  0  0  0  0
   39.4490   27.1130   43.6750 C   0  0  0  0  0  3  0  0  0  0  0  0
   39.3930   25.7880   43.3400 C   0  0  0  0  0  3  0  0  0  0  0  0
   38.5410   25.3750   42.3360 C   0  0  0  0  0  0  0  0  0  0  0  0
   38.4630   24.0290   41.9730 C   0  0  0  0  0  3  0  0  0  0  0  0
   37.6250   23.5910   40.9820 C   0  0  0  0  0  3  0  0  0  0  0  0
   36.8250   24.5190   40.3110 C   0  0  0  0  0  3  0  0  0  0  0  0
   36.9350   25.8410   40.7010 C   0  0  0  0  0  3  0  0  0  0  0  0
   37.7660   26.3140   41.6920 C   0  0  0  0  0  0  0  0  0  0  0  0
  1  6  1  0  0  0  0
  1 19  1  0  0  0  0
  2  1  2  0  0  0  0
  3  4  2  0  0  0  0
  3  2  1  0  0  0  0
  4  5  1  0  0  0  0
  5  9  1  0  0  0  0
  5  6  2  0  0  0  0
  7  2  1  0  0  0  0
  8  3  1  0  0  0  0
  9 12  1  1  0  0  0
 10 14  1  0  0  0  0
 10 11  1  0  0  0  0
 10  9  1  0  0  0  0
 11  9  1  0  0  0  0
 11 15  1  1  0  0  0
 13 10  1  0  0  0  0
 16 17  1  0  0  0  0
 16 11  1  0  0  0  0
 18 16  1  0  0  0  0
 19 21  1  0  0  0  0
 20 19  2  0  0  0  0
 21 22  1  0  0  0  0
 22 23  1  0  0  0  0
 22 24  2  0  0  0  0
 25 24  1  0  0  0  0
 26 25  2  0  0  0  0
 27 26  1  0  0  0  0
 28 27  2  0  0  0  0
 29 30  2  0  0  0  0
 29 28  1  0  0  0  0
 30 31  1  0  0  0  0
 31 21  2  0  0  0  0
 31 26  1  0  0  0  0
M  END
>  <minimizedAffinity>
-6.01748037

$$$$

 OpenBabel03252508013D

 31 34  0  0  1  0  0  0  0  0999 V2000
   36.3830   30.2400   39.6190 C   0  0  0  0  0  0  0  0  0  0  0  0
   36.6530   29.8170   38.2830 C   0  0  0  0  0  0  0  0  0  0  0  0
   37.3670   30.7140   37.4950 C   0  0  0  0  0  0  0  0  0  0  0  0
   37.7530   31.8980   38.0260 N   0  0  0  0  0  0  0  0  0  0  0  0
   37.4560   32.2390   39.3250 C   0  0  0  0  0  0  0  0  0  0  0  0
   36.7820   31.4330   40.1220 N   0  0  0  0  0  0  0  0  0  0  0  0
   36.3030   28.8510   37.9480 H   0  0  0  0  0  0  0  0  0  0  0  0
   37.5950   30.4370   36.4750 H   0  0  0  0  0  0  0  0  0  0  0  0
   37.9320   33.5580   39.8350 C   0  0  1  0  0  0  0  0  0  0  0  0
   38.8240   33.5940   41.0550 C   0  0  0  0  0  0  0  0  0  0  0  0
   39.3830   33.7870   39.6710 C   0  0  1  0  0  0  0  0  0  0  0  0
   37.2480   34.4120   39.6750 H   0  0  0  0  0  0  0  0  0  0  0  0
   38.9210   32.6310   41.5720 H   0  0  0  0  0  0  0  0  0  0  0  0
   38.7220   34.5110   41.6650 H   0  0  0  0  0  0  0  0  0  0  0  0
   39.7970   34.8000   39.4420 H   0  0  0  0  0  0  0  0  0  0  0  0
   40.2490   32.7020   39.2710 N   0  0  0  0  0  0  0  0  0  0  0  0
   40.4670   32.6180   38.2890 H   0  0  0  0  0  0  0  0  0  0  0  0
   40.3250   31.9140   39.9000 H   0  0  0  0  0  0  0  0  0  0  0  0
   35.6480   29.2900   40.4300 C   0  0  0  0  0  0  0  0  0  0  0  0
   34.3890   29.0940   40.3040 O   0  0  0  0  0  0  0  0  0  0  0  0
   36.5640   28.6400   41.3620 C   0  0  0  0  0  0  0  0  0  0  0  0
   37.0780   29.2860   42.4740 C   0  0  0  0  0  0  0  0  0  0  0  0
   36.7810   30.3180   42.6610 H   0  0  0  0  0  0  0  0  0  0  0  0
   37.9500   28.7200   43.3810 C   0  0  0  0  0  3  0  0  0  0  0  0
   38.3530   27.4270   43.1890 C   0  0  0  0  0  3  0  0  0  0  0  0
   37.8810   26.7210   42.1000 C   0  0  0  0  0  0  0  0  0  0  0  0
   38.2740   25.4000   41.8790 C   0  0  0  0  0  3  0  0  0  0  0  0
   37.8190   24.6770   40.8090 C   0  0  0  0  0  3  0  0  0  0  0  0
   36.9370   25.2780   39.9090 C   0  0  0  0  0  3  0  0  0  0  0  0
   36.5740   26.5880   40.1650 C   0  0  0  0  0  3  0  0  0  0  0  0
   37.0120   27.3430   41.2300 C   0  0  0  0  0  0  0  0  0  0  0  0
  1  6  1  0  0  0  0
  1 19  1  0  0  0  0
  2  1  2  0  0  0  0
  3  4  2  0  0  0  0
  3  2  1  0  0  0  0
  4  5  1  0  0  0  0
  5  9  1  0  0  0  0
  5  6  2  0  0  0  0
  7  2  1  0  0  0  0
  8  3  1  0  0  0  0
  9 12  1  6  0  0  0
  9 10  1  0  0  0  0
 10 13  1  0  0  0  0
 10 14  1  0  0  0  0
 11 15  1  6  0  0  0
 11  9  1  0  0  0  0
 11 10  1  0  0  0  0
 16 11  1  0  0  0  0
 16 18  1  0  0  0  0
 17 16  1  0  0  0  0
 19 21  1  0  0  0  0
 20 19  2  0  0  0  0
 21 22  1  0  0  0  0
 22 23  1  0  0  0  0
 22 24  2  0  0  0  0
 25 24  1  0  0  0  0
 26 25  2  0  0  0  0
 27 26  1  0  0  0  0
 28 27  2  0  0  0  0
 29 30  2  0  0  0  0
 29 28  1  0  0  0  0
 30 31  1  0  0  0  0
 31 21  2  0  0  0  0
 31 26  1  0  0  0  0
M  END
>  <minimizedAffinity>
-6.01705933

$$$$

 OpenBabel03252508013D

 31 34  0  0  1  0  0  0  0  0999 V2000
   38.1980   29.6040   41.9630 C   0  0  0  0  0  0  0  0  0  0  0  0
   39.3060   29.6970   42.8580 C   0  0  0  0  0  0  0  0  0  0  0  0
   40.1970   30.7380   42.6140 C   0  0  0  0  0  0  0  0  0  0  0  0
   39.9670   31.5750   41.5760 N   0  0  0  0  0  0  0  0  0  0  0  0
   38.8750   31.4240   40.7540 C   0  0  0  0  0  0  0  0  0  0  0  0
   37.9940   30.4590   40.9310 N   0  0  0  0  0  0  0  0  0  0  0  0
   39.4060   28.9790   43.6590 H   0  0  0  0  0  0  0  0  0  0  0  0
   41.0530   30.8480   43.2660 H   0  0  0  0  0  0  0  0  0  0  0  0
   38.6870   32.4010   39.6420 C   0  0  1  0  0  0  0  0  0  0  0  0
   37.4260   33.2320   39.6000 C   0  0  0  0  0  0  0  0  0  0  0  0
   38.7330   33.8180   40.0610 C   0  0  1  0  0  0  0  0  0  0  0  0
   39.1530   32.1280   38.6770 H   0  0  0  0  0  0  0  0  0  0  0  0
   36.6590   32.9260   40.3230 H   0  0  0  0  0  0  0  0  0  0  0  0
   37.1030   33.5180   38.5800 H   0  0  0  0  0  0  0  0  0  0  0  0
   39.1760   34.6110   39.4100 H   0  0  0  0  0  0  0  0  0  0  0  0
   38.7170   34.1610   41.4650 N   0  0  0  0  0  0  0  0  0  0  0  0
   39.6060   34.3230   41.9150 H   0  0  0  0  0  0  0  0  0  0  0  0
   37.8930   33.9080   41.9940 H   0  0  0  0  0  0  0  0  0  0  0  0
   37.2740   28.5220   42.2360 C   0  0  0  0  0  0  0  0  0  0  0  0
   36.6900   28.3720   43.3670 O   0  0  0  0  0  0  0  0  0  0  0  0
   37.1440   27.6860   41.0470 C   0  0  0  0  0  0  0  0  0  0  0  0
   37.9880   26.6180   40.7920 C   0  0  0  0  0  0  0  0  0  0  0  0
   38.7760   26.3930   41.5110 H   0  0  0  0  0  0  0  0  0  0  0  0
   37.9120   25.8020   39.6820 C   0  0  0  0  0  3  0  0  0  0  0  0
   36.9400   26.0450   38.7510 C   0  0  0  0  0  3  0  0  0  0  0  0
   36.0630   27.0930   38.9400 C   0  0  0  0  0  0  0  0  0  0  0  0
   35.0600   27.3640   38.0070 C   0  0  0  0  0  3  0  0  0  0  0  0
   34.1760   28.3970   38.1710 C   0  0  0  0  0  3  0  0  0  0  0  0
   34.2790   29.2050   39.3050 C   0  0  0  0  0  3  0  0  0  0  0  0
   35.2860   28.9020   40.2040 C   0  0  0  0  0  3  0  0  0  0  0  0
   36.1910   27.8730   40.0690 C   0  0  0  0  0  0  0  0  0  0  0  0
  1 19  1  0  0  0  0
  1  2  1  0  0  0  0
  2  7  1  0  0  0  0
  3  2  2  0  0  0  0
  3  8  1  0  0  0  0
  4  3  1  0  0  0  0
  5  6  1  0  0  0  0
  5  4  2  0  0  0  0
  6  1  2  0  0  0  0
  9 12  1  6  0  0  0
  9 11  1  0  0  0  0
  9  5  1  0  0  0  0
 10  9  1  0  0  0  0
 10 11  1  0  0  0  0
 10 13  1  0  0  0  0
 11 15  1  6  0  0  0
 11 16  1  0  0  0  0
 14 10  1  0  0  0  0
 16 17  1  0  0  0  0
 16 18  1  0  0  0  0
 19 20  2  0  0  0  0
 21 19  1  0  0  0  0
 22 21  1  0  0  0  0
 22 23  1  0  0  0  0
 24 22  2  0  0  0  0
 25 26  2  0  0  0  0
 25 24  1  0  0  0  0
 26 31  1  0  0  0  0
 27 28  2  0  0  0  0
 27 26  1  0  0  0  0
 28 29  1  0  0  0  0
 29 30  2  0  0  0  0
 31 30  1  0  0  0  0
 31 21  2  0  0  0  0
M  END
>  <minimizedAffinity>
-5.93868637

$$$$

 OpenBabel03252508013D

 31 34  0  0  1  0  0  0  0  0999 V2000
   40.3000   29.6410   41.1130 C   0  0  0  0  0  0  0  0  0  0  0  0
   41.3740   30.5810   41.0840 C   0  0  0  0  0  0  0  0  0  0  0  0
   41.2270   31.6430   40.1970 C   0  0  0  0  0  0  0  0  0  0  0  0
   40.1100   31.7200   39.4370 N   0  0  0  0  0  0  0  0  0  0  0  0
   39.1140   30.7750   39.5190 C   0  0  0  0  0  0  0  0  0  0  0  0
   39.1920   29.7460   40.3390 N   0  0  0  0  0  0  0  0  0  0  0  0
   42.2280   30.4350   41.7300 H   0  0  0  0  0  0  0  0  0  0  0  0
   42.0160   32.3800   40.1400 H   0  0  0  0  0  0  0  0  0  0  0  0
   37.9080   30.9440   38.6560 C   0  0  1  0  0  0  0  0  0  0  0  0
   36.5610   30.5080   39.1840 C   0  0  0  0  0  0  0  0  0  0  0  0
   36.9500   31.9610   39.1400 C   0  0  1  0  0  0  0  0  0  0  0  0
   38.0800   30.8680   37.5660 H   0  0  0  0  0  0  0  0  0  0  0  0
   36.6070   29.9400   40.1230 H   0  0  0  0  0  0  0  0  0  0  0  0
   35.8520   30.1750   38.4020 H   0  0  0  0  0  0  0  0  0  0  0  0
   36.3710   32.6070   38.4360 H   0  0  0  0  0  0  0  0  0  0  0  0
   37.1010   32.5300   40.4600 N   0  0  0  0  0  0  0  0  0  0  0  0
   37.5920   33.4080   40.5350 H   0  0  0  0  0  0  0  0  0  0  0  0
   37.0140   31.9020   41.2480 H   0  0  0  0  0  0  0  0  0  0  0  0
   40.4610   28.5480   42.0500 C   0  0  0  0  0  0  0  0  0  0  0  0
   41.6070   28.1100   42.4190 O   0  0  0  0  0  0  0  0  0  0  0  0
   39.1470   28.0710   42.4670 C   0  0  0  0  0  0  0  0  0  0  0  0
   38.2950   28.8290   43.2540 C   0  0  0  0  0  0  0  0  0  0  0  0
   38.6190   29.8210   43.5670 H   0  0  0  0  0  0  0  0  0  0  0  0
   37.0470   28.4230   43.6800 C   0  0  0  0  0  3  0  0  0  0  0  0
   36.5960   27.1860   43.3120 C   0  0  0  0  0  3  0  0  0  0  0  0
   37.3920   26.3750   42.5280 C   0  0  0  0  0  0  0  0  0  0  0  0
   36.9570   25.1080   42.1370 C   0  0  0  0  0  3  0  0  0  0  0  0
   37.7260   24.2840   41.3580 C   0  0  0  0  0  3  0  0  0  0  0  0
   38.9850   24.7240   40.9430 C   0  0  0  0  0  3  0  0  0  0  0  0
   39.3770   25.9860   41.3530 C   0  0  0  0  0  3  0  0  0  0  0  0
   38.6290   26.8370   42.1350 C   0  0  0  0  0  0  0  0  0  0  0  0
  1 19  1  0  0  0  0
  2  1  1  0  0  0  0
  2  7  1  0  0  0  0
  3  2  2  0  0  0  0
  4  5  2  0  0  0  0
  4  3  1  0  0  0  0
  5  6  1  0  0  0  0
  6  1  2  0  0  0  0
  8  3  1  0  0  0  0
  9 12  1  6  0  0  0
  9 11  1  0  0  0  0
  9 10  1  0  0  0  0
  9  5  1  0  0  0  0
 10 13  1  0  0  0  0
 11 15  1  6  0  0  0
 11 10  1  0  0  0  0
 11 16  1  0  0  0  0
 14 10  1  0  0  0  0
 16 17  1  0  0  0  0
 16 18  1  0  0  0  0
 19 20  2  0  0  0  0
 19 21  1  0  0  0  0
 21 22  1  0  0  0  0
 22 23  1  0  0  0  0
 22 24  2  0  0  0  0
 25 24  1  0  0  0  0
 26 25  2  0  0  0  0
 27 26  1  0  0  0  0
 28 27  2  0  0  0  0
 29 30  2  0  0  0  0
 29 28  1  0  0  0  0
 30 31  1  0  0  0  0
 31 21  2  0  0  0  0
 31 26  1  0  0  0  0
M  END
>  <minimizedAffinity>
-5.92516994

$$$$

 OpenBabel03252508013D

 31 34  0  0  1  0  0  0  0  0999 V2000
   37.0400   28.2650   40.9980 C   0  0  0  0  0  0  0  0  0  0  0  0
   36.3270   27.4790   40.0430 C   0  0  0  0  0  0  0  0  0  0  0  0
   36.3030   27.9770   38.7450 C   0  0  0  0  0  0  0  0  0  0  0  0
   36.9380   29.1400   38.4700 N   0  0  0  0  0  0  0  0  0  0  0  0
   37.6060   29.8450   39.4440 C   0  0  0  0  0  0  0  0  0  0  0  0
   37.6660   29.4280   40.6930 N   0  0  0  0  0  0  0  0  0  0  0  0
   35.8500   26.5620   40.3580 H   0  0  0  0  0  0  0  0  0  0  0  0
   35.7740   27.4150   37.9860 H   0  0  0  0  0  0  0  0  0  0  0  0
   38.2930   31.1110   39.0530 C   0  0  1  0  0  0  0  0  0  0  0  0
   37.5200   32.1580   38.2850 C   0  0  0  0  0  0  0  0  0  0  0  0
   37.8000   32.3140   39.7550 C   0  0  1  0  0  0  0  0  0  0  0  0
   39.3790   31.0300   38.8580 H   0  0  0  0  0  0  0  0  0  0  0  0
   36.5370   31.8240   37.9300 H   0  0  0  0  0  0  0  0  0  0  0  0
   38.1410   32.7770   37.6090 H   0  0  0  0  0  0  0  0  0  0  0  0
   38.4830   33.1510   40.0430 H   0  0  0  0  0  0  0  0  0  0  0  0
   36.5970   32.2470   40.5530 N   0  0  0  0  0  0  0  0  0  0  0  0
   36.7040   32.0930   41.5450 H   0  0  0  0  0  0  0  0  0  0  0  0
   35.7340   32.0290   40.0730 H   0  0  0  0  0  0  0  0  0  0  0  0
   37.0650   27.7290   42.3440 C   0  0  0  0  0  0  0  0  0  0  0  0
   36.4830   28.2990   43.3320 O   0  0  0  0  0  0  0  0  0  0  0  0
   37.8340   26.4890   42.3550 C   0  0  0  0  0  0  0  0  0  0  0  0
   37.2850   25.2680   42.0000 C   0  0  0  0  0  0  0  0  0  0  0  0
   36.2390   25.2360   41.6960 H   0  0  0  0  0  0  0  0  0  0  0  0
   37.9660   24.0680   41.9990 C   0  0  0  0  0  3  0  0  0  0  0  0
   39.2820   24.0570   42.3730 C   0  0  0  0  0  3  0  0  0  0  0  0
   39.8950   25.2380   42.7400 C   0  0  0  0  0  0  0  0  0  0  0  0
   41.2370   25.2570   43.1260 C   0  0  0  0  0  3  0  0  0  0  0  0
   41.8700   26.4150   43.4930 C   0  0  0  0  0  3  0  0  0  0  0  0
   41.1530   27.6130   43.4840 C   0  0  0  0  0  3  0  0  0  0  0  0
   39.8270   27.5490   43.0960 C   0  0  0  0  0  3  0  0  0  0  0  0
   39.1610   26.4040   42.7210 C   0  0  0  0  0  0  0  0  0  0  0  0
  1 19  1  0  0  0  0
  2  7  1  0  0  0  0
  2  1  2  0  0  0  0
  3  2  1  0  0  0  0
  4  3  2  0  0  0  0
  4  5  1  0  0  0  0
  5  6  2  0  0  0  0
  6  1  1  0  0  0  0
  8  3  1  0  0  0  0
  9 12  1  6  0  0  0
  9  5  1  0  0  0  0
  9 11  1  0  0  0  0
 10  9  1  0  0  0  0
 10 11  1  0  0  0  0
 11 15  1  1  0  0  0
 11 16  1  0  0  0  0
 13 10  1  0  0  0  0
 14 10  1  0  0  0  0
 16 17  1  0  0  0  0
 18 16  1  0  0  0  0
 19 21  1  0  0  0  0
 19 20  2  0  0  0  0
 21 31  1  0  0  0  0
 22 21  2  0  0  0  0
 23 22  1  0  0  0  0
 24 22  1  0  0  0  0
 24 25  2  0  0  0  0
 25 26  1  0  0  0  0
 26 27  1  0  0  0  0
 27 28  2  0  0  0  0
 29 28  1  0  0  0  0
 30 29  2  0  0  0  0
 31 26  2  0  0  0  0
 31 30  1  0  0  0  0
M  END
>  <minimizedAffinity>
-5.84574842

$$$$

 OpenBabel03252508013D

 31 34  0  0  1  0  0  0  0  0999 V2000
   38.4000   29.2960   41.8540 C   0  0  0  0  0  0  0  0  0  0  0  0
   39.2620   30.1990   42.5460 C   0  0  0  0  0  0  0  0  0  0  0  0
   39.9140   31.1410   41.7570 C   0  0  0  0  0  0  0  0  0  0  0  0
   39.6990   31.1460   40.4210 N   0  0  0  0  0  0  0  0  0  0  0  0
   38.8530   30.2430   39.8220 C   0  0  0  0  0  0  0  0  0  0  0  0
   38.2050   29.3260   40.5120 N   0  0  0  0  0  0  0  0  0  0  0  0
   39.3690   30.1160   43.6180 H   0  0  0  0  0  0  0  0  0  0  0  0
   40.5780   31.8460   42.2380 H   0  0  0  0  0  0  0  0  0  0  0  0
   38.6610   30.3290   38.3440 C   0  0  1  0  0  0  0  0  0  0  0  0
   37.2680   30.5340   37.7950 C   0  0  0  0  0  0  0  0  0  0  0  0
   38.2590   31.6650   37.8580 C   0  0  1  0  0  0  0  0  0  0  0  0
   39.3720   29.7440   37.7310 H   0  0  0  0  0  0  0  0  0  0  0  0
   36.4700   30.4420   38.5430 H   0  0  0  0  0  0  0  0  0  0  0  0
   37.1040   30.0930   36.7940 H   0  0  0  0  0  0  0  0  0  0  0  0
   38.6130   32.0670   36.8770 H   0  0  0  0  0  0  0  0  0  0  0  0
   37.8640   32.6910   38.7960 N   0  0  0  0  0  0  0  0  0  0  0  0
   38.5690   33.3520   39.0870 H   0  0  0  0  0  0  0  0  0  0  0  0
   37.0390   32.5150   39.3540 H   0  0  0  0  0  0  0  0  0  0  0  0
   37.7190   28.3280   42.6900 C   0  0  0  0  0  0  0  0  0  0  0  0
   36.5840   28.5560   43.2380 O   0  0  0  0  0  0  0  0  0  0  0  0
   38.5270   27.1170   42.7830 C   0  0  0  0  0  0  0  0  0  0  0  0
   39.6710   27.0420   43.5620 C   0  0  0  0  0  0  0  0  0  0  0  0
   39.9720   27.9210   44.1310 H   0  0  0  0  0  0  0  0  0  0  0  0
   40.4720   25.9250   43.6800 C   0  0  0  0  0  3  0  0  0  0  0  0
   40.1340   24.7960   42.9850 C   0  0  0  0  0  3  0  0  0  0  0  0
   39.0080   24.7990   42.1870 C   0  0  0  0  0  0  0  0  0  0  0  0
   38.6390   23.6610   41.4670 C   0  0  0  0  0  3  0  0  0  0  0  0
   37.5250   23.6350   40.6700 C   0  0  0  0  0  3  0  0  0  0  0  0
   36.7340   24.7820   40.5720 C   0  0  0  0  0  3  0  0  0  0  0  0
   37.1360   25.8870   41.3020 C   0  0  0  0  0  3  0  0  0  0  0  0
   38.2480   25.9460   42.1110 C   0  0  0  0  0  0  0  0  0  0  0  0
  1  2  1  0  0  0  0
  1 19  1  0  0  0  0
  2  7  1  0  0  0  0
  3  8  1  0  0  0  0
  3  2  2  0  0  0  0
  4  3  1  0  0  0  0
  5  4  2  0  0  0  0
  5  6  1  0  0  0  0
  6  1  2  0  0  0  0
  9 12  1  6  0  0  0
  9  5  1  0  0  0  0
 10 11  1  0  0  0  0
 10  9  1  0  0  0  0
 10 13  1  0  0  0  0
 11 15  1  6  0  0  0
 11  9  1  0  0  0  0
 11 16  1  0  0  0  0
 14 10  1  0  0  0  0
 16 17  1  0  0  0  0
 16 18  1  0  0  0  0
 19 21  1  0  0  0  0
 19 20  2  0  0  0  0
 21 22  1  0  0  0  0
 22 24  2  0  0  0  0
 22 23  1  0  0  0  0
 25 24  1  0  0  0  0
 26 25  2  0  0  0  0
 27 26  1  0  0  0  0
 28 27  2  0  0  0  0
 29 28  1  0  0  0  0
 29 30  2  0  0  0  0
 30 31  1  0  0  0  0
 31 26  1  0  0  0  0
 31 21  2  0  0  0  0
M  END
>  <minimizedAffinity>
-5.73586035

$$$$
