
 OpenBabel03242516533D

 47 51  0  0  1  0  0  0  0  0999 V2000
   47.8020   32.7810   41.5910 C   0  0  1  0  0  0  0  0  0  0  0  0
   47.4050   32.1790   40.3140 C   0  0  0  0  0  0  0  0  0  0  0  0
   48.4180   32.6560   39.2770 C   0  0  0  0  0  0  0  0  0  0  0  0
   48.1560   34.1360   39.0670 C   0  0  0  0  0  0  0  0  0  0  0  0
   48.1750   34.9400   40.3360 C   0  0  0  0  0  0  0  0  0  0  0  0
   47.6810   34.3080   41.5650 C   0  0  1  0  0  0  0  0  0  0  0  0
   48.9150   32.6310   41.7270 H   0  0  0  0  0  0  0  0  0  0  0  0
   47.5130   31.0740   40.3830 H   0  0  0  0  0  0  0  0  0  0  0  0
   46.3980   32.4500   39.9570 H   0  0  0  0  0  0  0  0  0  0  0  0
   48.2780   32.1630   38.3110 H   0  0  0  0  0  0  0  0  0  0  0  0
   49.4370   32.5330   39.7040 H   0  0  0  0  0  0  0  0  0  0  0  0
   47.1370   34.2460   38.6240 H   0  0  0  0  0  0  0  0  0  0  0  0
   48.9290   34.5110   38.3700 H   0  0  0  0  0  0  0  0  0  0  0  0
   49.2320   35.3020   40.4640 H   0  0  0  0  0  0  0  0  0  0  0  0
   47.5780   35.8670   40.1340 H   0  0  0  0  0  0  0  0  0  0  0  0
   48.3260   34.6520   42.4270 H   0  0  0  0  0  0  0  0  0  0  0  0
   45.3300   30.9350   43.7840 C   0  0  0  0  0  0  0  0  0  0  0  0
   46.0070   31.4650   42.6830 C   0  0  0  0  0  0  0  0  0  0  0  0
   47.1540   32.2580   42.7760 C   0  0  0  0  0  0  0  0  0  0  0  0
   47.5900   32.4990   44.0210 N   0  0  0  0  0  0  0  0  0  0  0  0
   46.9410   31.9910   45.1050 C   0  0  0  0  0  0  0  0  0  0  0  0
   45.8520   31.2370   45.0030 N   0  0  0  0  0  0  0  0  0  0  0  0
   44.4570   30.3370   43.6000 H   0  0  0  0  0  0  0  0  0  0  0  0
   45.6410   31.2600   41.6850 H   0  0  0  0  0  0  0  0  0  0  0  0
   47.2760   32.1720   46.1180 H   0  0  0  0  0  0  0  0  0  0  0  0
   46.3340   34.7500   41.9240 C   0  0  0  0  0  0  0  0  0  0  0  0
   45.9800   35.4790   43.0610 C   0  0  0  0  0  0  0  0  0  0  0  0
   44.6320   35.8070   43.1880 C   0  0  0  0  0  0  0  0  0  0  0  0
   43.7660   35.3910   42.1970 C   0  0  0  0  0  0  0  0  0  0  0  0
   44.1340   34.6660   41.0740 C   0  0  0  0  0  0  0  0  0  0  0  0
   45.4510   34.3560   40.9660 N   0  0  0  0  0  0  0  0  0  0  0  0
   46.7600   35.7210   43.7270 H   0  0  0  0  0  0  0  0  0  0  0  0
   44.3450   36.3600   44.0450 H   0  0  0  0  0  0  0  0  0  0  0  0
   42.7180   35.6540   42.3110 H   0  0  0  0  0  0  0  0  0  0  0  0
   43.1370   34.2740   40.0870 C   0  0  0  0  0  0  0  0  0  0  0  0
   42.4030   35.1550   39.5950 O   0  0  0  0  0  0  0  0  0  0  0  0
   42.7670   33.0010   39.4940 C   0  0  0  0  0  0  0  0  0  0  0  0
   42.8600   32.7290   38.1470 C   0  0  0  0  0  0  0  0  0  0  0  0
   43.2400   33.4670   37.4750 H   0  0  0  0  0  0  0  0  0  0  0  0
   42.4820   31.5500   37.5360 C   0  0  0  0  0  3  0  0  0  0  0  0
   41.9670   30.5500   38.3350 C   0  0  0  0  0  3  0  0  0  0  0  0
   41.8460   30.7530   39.6930 C   0  0  0  0  0  0  0  0  0  0  0  0
   41.3380   29.7270   40.4300 C   0  0  0  0  0  3  0  0  0  0  0  0
   41.1960   29.8540   41.7970 C   0  0  0  0  0  3  0  0  0  0  0  0
   41.5860   31.0560   42.3920 C   0  0  0  0  0  3  0  0  0  0  0  0
   42.0910   32.0520   41.5920 C   0  0  0  0  0  3  0  0  0  0  0  0
   42.2440   31.9590   40.2280 C   0  0  0  0  0  0  0  0  0  0  0  0
  1  7  1  1  0  0  0
  1 19  1  0  0  0  0
  2  8  1  0  0  0  0
  2  1  1  0  0  0  0
  3 11  1  0  0  0  0
  3  2  1  0  0  0  0
  4  3  1  0  0  0  0
  4  5  1  0  0  0  0
  5 14  1  0  0  0  0
  5  6  1  0  0  0  0
  6  1  1  0  0  0  0
  6 26  1  0  0  0  0
  6 16  1  1  0  0  0
  9  2  1  0  0  0  0
 10  3  1  0  0  0  0
 12  4  1  0  0  0  0
 13  4  1  0  0  0  0
 15  5  1  0  0  0  0
 17 22  1  0  0  0  0
 18 19  1  0  0  0  0
 18 17  2  0  0  0  0
 19 20  2  0  0  0  0
 20 21  1  0  0  0  0
 21 25  1  0  0  0  0
 22 21  2  0  0  0  0
 23 17  1  0  0  0  0
 24 18  1  0  0  0  0
 26 27  1  0  0  0  0
 27 28  2  0  0  0  0
 27 32  1  0  0  0  0
 28 33  1  0  0  0  0
 29 34  1  0  0  0  0
 29 28  1  0  0  0  0
 30 29  2  0  0  0  0
 31 30  1  0  0  0  0
 31 26  2  0  0  0  0
 35 30  1  0  0  0  0
 36 35  2  0  0  0  0
 37 35  1  0  0  0  0
 37 47  1  0  0  0  0
 38 37  2  0  0  0  0
 39 38  1  0  0  0  0
 40 38  1  0  0  0  0
 40 41  2  0  0  0  0
 41 42  1  0  0  0  0
 42 47  2  0  0  0  0
 42 43  1  0  0  0  0
 43 44  2  0  0  0  0
 44 45  1  0  0  0  0
 46 45  2  0  0  0  0
 47 46  1  0  0  0  0
M  END
>  <minimizedAffinity>
-5.76907682

>  <minimizedRMSD>
1.2146225

$$$$
