
 OpenBabel03252506143D

 38 41  0  0  0  0  0  0  0  0999 V2000
   41.2060   31.7810   40.6100 F   0  0  0  0  0  0  0  0  0  0  0  0
   40.4720   32.8880   40.4760 C   0  0  0  0  0  0  0  0  0  0  0  0
   41.0810   34.0680   40.0750 C   0  0  0  0  0  0  0  0  0  0  0  0
   40.3830   35.2580   39.9100 C   0  0  0  0  0  0  0  0  0  0  0  0
   39.0110   35.2860   40.1510 C   0  0  0  0  0  0  0  0  0  0  0  0
   38.4400   34.0910   40.5480 C   0  0  0  0  0  0  0  0  0  0  0  0
   39.1050   32.9170   40.7160 C   0  0  0  0  0  0  0  0  0  0  0  0
   40.9390   36.1450   39.5910 H   0  0  0  0  0  0  0  0  0  0  0  0
   38.5370   36.2270   40.0060 H   0  0  0  0  0  0  0  0  0  0  0  0
   37.3770   34.2530   40.6930 H   0  0  0  0  0  0  0  0  0  0  0  0
   44.2780   33.9440   38.2740 C   0  0  0  0  0  0  0  0  0  0  0  0
   45.2080   34.1180   39.3220 C   0  0  0  0  0  0  0  0  0  0  0  0
   44.7300   34.2770   40.6430 C   0  0  0  0  0  0  0  0  0  0  0  0
   43.3740   34.2510   40.8160 N   0  0  0  0  0  0  0  0  0  0  0  0
   42.5230   34.0850   39.8050 C   0  0  0  0  0  0  0  0  0  0  0  0
   42.9710   33.9330   38.5470 N   0  0  0  0  0  0  0  0  0  0  0  0
   46.2740   34.1320   39.1400 H   0  0  0  0  0  0  0  0  0  0  0  0
   45.4190   34.4120   41.4650 H   0  0  0  0  0  0  0  0  0  0  0  0
   44.7610   33.7820   36.9490 N   0  0  0  0  0  0  0  0  0  0  0  0
   44.8500   34.7100   36.4840 H   0  0  0  0  0  0  0  0  0  0  0  0
   45.0270   32.9370   36.4010 H   0  0  0  0  0  0  0  0  0  0  0  0
   38.4360   31.7920   41.1160 O   0  0  0  0  0  0  0  0  0  0  0  0
   37.0760   31.4880   38.8570 O   0  0  0  0  0  0  0  0  0  0  0  0
   37.1950   31.0260   40.2720 P   0  0  2  0  0  0  0  0  0  0  0  0
   35.7300   31.3140   41.1130 O   0  0  0  0  0  0  0  0  0  0  0  0
   35.2610   32.0260   40.6020 H   0  0  0  0  0  0  0  0  0  0  0  0
   37.3460   29.3390   40.2920 O   0  0  0  0  0  0  0  0  0  0  0  0
   37.3150   28.5350   41.3970 C   0  0  0  0  0  0  0  0  0  0  0  0
   37.4810   28.9830   42.7090 C   0  0  0  0  0  0  0  0  0  0  0  0
   37.6440   30.0230   42.8620 H   0  0  0  0  0  0  0  0  0  0  0  0
   37.4440   28.1360   43.8020 C   0  0  0  0  0  3  0  0  0  0  0  0
   37.2330   26.7910   43.5900 C   0  0  0  0  0  3  0  0  0  0  0  0
   37.0650   26.3150   42.3160 C   0  0  0  0  0  0  0  0  0  0  0  0
   36.8570   24.9520   42.1850 C   0  0  0  0  0  3  0  0  0  0  0  0
   36.6790   24.4040   40.9180 C   0  0  0  0  0  3  0  0  0  0  0  0
   36.7160   25.2420   39.8230 C   0  0  0  0  0  3  0  0  0  0  0  0
   36.9230   26.5950   39.9640 C   0  0  0  0  0  3  0  0  0  0  0  0
   37.1020   27.1660   41.2100 C   0  0  0  0  0  0  0  0  0  0  0  0
  2  1  1  0  0  0  0
  2  7  1  0  0  0  0
  3  2  2  0  0  0  0
  4  3  1  0  0  0  0
  4  5  2  0  0  0  0
  5  6  1  0  0  0  0
  6 10  1  0  0  0  0
  6  7  2  0  0  0  0
  7 22  1  0  0  0  0
  8  4  1  0  0  0  0
  9  5  1  0  0  0  0
 11 16  2  0  0  0  0
 11 12  1  0  0  0  0
 12 13  2  0  0  0  0
 13 14  1  0  0  0  0
 13 18  1  0  0  0  0
 15  3  1  0  0  0  0
 15 14  2  0  0  0  0
 16 15  1  0  0  0  0
 17 12  1  0  0  0  0
 19 11  1  0  0  0  0
 20 19  1  0  0  0  0
 21 19  1  0  0  0  0
 24 23  2  6  0  0  0
 24 27  1  0  0  0  0
 24 25  1  0  0  0  0
 24 22  1  0  0  0  0
 26 25  1  0  0  0  0
 27 28  1  0  0  0  0
 28 29  1  0  0  0  0
 29 30  1  0  0  0  0
 29 31  2  0  0  0  0
 32 31  1  0  0  0  0
 33 32  2  0  0  0  0
 34 33  1  0  0  0  0
 35 34  2  0  0  0  0
 36 37  2  0  0  0  0
 36 35  1  0  0  0  0
 37 38  1  0  0  0  0
 38 28  2  0  0  0  0
 38 33  1  0  0  0  0
M  END
>  <minimizedAffinity>
-7.90828896

$$$$

 OpenBabel03252506143D

 38 41  0  0  0  0  0  0  0  0999 V2000
   37.7420   31.9750   38.9650 F   0  0  0  0  0  0  0  0  0  0  0  0
   38.4920   30.8730   39.0450 C   0  0  0  0  0  0  0  0  0  0  0  0
   39.8730   30.9880   39.0970 C   0  0  0  0  0  0  0  0  0  0  0  0
   40.7180   29.8890   39.1840 C   0  0  0  0  0  0  0  0  0  0  0  0
   40.1720   28.6080   39.2240 C   0  0  0  0  0  0  0  0  0  0  0  0
   38.7930   28.5330   39.1710 C   0  0  0  0  0  0  0  0  0  0  0  0
   37.9490   29.5960   39.0840 C   0  0  0  0  0  0  0  0  0  0  0  0
   41.7980   30.0660   39.2200 H   0  0  0  0  0  0  0  0  0  0  0  0
   40.8730   27.8100   39.2920 H   0  0  0  0  0  0  0  0  0  0  0  0
   38.5060   27.4880   39.2180 H   0  0  0  0  0  0  0  0  0  0  0  0
   41.7870   33.8970   37.9320 C   0  0  0  0  0  0  0  0  0  0  0  0
   41.6360   34.7940   39.0110 C   0  0  0  0  0  0  0  0  0  0  0  0
   40.8770   34.3940   40.1350 C   0  0  0  0  0  0  0  0  0  0  0  0
   40.3310   33.1410   40.0960 N   0  0  0  0  0  0  0  0  0  0  0  0
   40.4920   32.3180   39.0610 C   0  0  0  0  0  0  0  0  0  0  0  0
   41.2130   32.6930   37.9900 N   0  0  0  0  0  0  0  0  0  0  0  0
   42.0860   35.7780   39.0010 H   0  0  0  0  0  0  0  0  0  0  0  0
   40.7450   35.0600   40.9760 H   0  0  0  0  0  0  0  0  0  0  0  0
   42.5510   34.3020   36.8070 N   0  0  0  0  0  0  0  0  0  0  0  0
   41.9380   34.7700   36.1070 H   0  0  0  0  0  0  0  0  0  0  0  0
   43.5650   34.2130   36.5820 H   0  0  0  0  0  0  0  0  0  0  0  0
   36.5950   29.4050   39.0350 O   0  0  0  0  0  0  0  0  0  0  0  0
   34.1230   29.1690   39.9740 O   0  0  0  0  0  0  0  0  0  0  0  0
   35.5410   29.4460   40.3510 P   0  0  2  0  0  0  0  0  0  0  0  0
   35.6690   30.9910   41.0800 O   0  0  0  0  0  0  0  0  0  0  0  0
   34.8690   31.4980   40.7790 H   0  0  0  0  0  0  0  0  0  0  0  0
   36.0040   28.3790   41.5820 O   0  0  0  0  0  0  0  0  0  0  0  0
   37.2580   28.2470   42.1120 C   0  0  0  0  0  0  0  0  0  0  0  0
   38.0570   29.3120   42.5320 C   0  0  0  0  0  0  0  0  0  0  0  0
   37.6650   30.2960   42.4340 H   0  0  0  0  0  0  0  0  0  0  0  0
   39.3220   29.1370   43.0640 C   0  0  0  0  0  3  0  0  0  0  0  0
   39.8180   27.8580   43.1850 C   0  0  0  0  0  3  0  0  0  0  0  0
   39.0620   26.7880   42.7830 C   0  0  0  0  0  0  0  0  0  0  0  0
   39.6280   25.5340   42.9380 C   0  0  0  0  0  3  0  0  0  0  0  0
   38.9130   24.4050   42.5490 C   0  0  0  0  0  3  0  0  0  0  0  0
   37.6520   24.5710   42.0180 C   0  0  0  0  0  3  0  0  0  0  0  0
   37.0970   25.8210   41.8690 C   0  0  0  0  0  3  0  0  0  0  0  0
   37.7850   26.9590   42.2460 C   0  0  0  0  0  0  0  0  0  0  0  0
  1  2  1  0  0  0  0
  2  7  2  0  0  0  0
  2  3  1  0  0  0  0
  3  4  2  0  0  0  0
  4  8  1  0  0  0  0
  4  5  1  0  0  0  0
  5  9  1  0  0  0  0
  6 10  1  0  0  0  0
  6  5  2  0  0  0  0
  7  6  1  0  0  0  0
 11 16  2  0  0  0  0
 11 12  1  0  0  0  0
 12 13  2  0  0  0  0
 13 18  1  0  0  0  0
 14 13  1  0  0  0  0
 15  3  1  0  0  0  0
 15 14  2  0  0  0  0
 16 15  1  0  0  0  0
 17 12  1  0  0  0  0
 19 11  1  0  0  0  0
 20 19  1  0  0  0  0
 21 19  1  0  0  0  0
 22  7  1  0  0  0  0
 22 24  1  0  0  0  0
 24 23  2  6  0  0  0
 24 25  1  0  0  0  0
 24 27  1  0  0  0  0
 26 25  1  0  0  0  0
 27 28  1  0  0  0  0
 28 38  2  0  0  0  0
 28 29  1  0  0  0  0
 29 31  2  0  0  0  0
 30 29  1  0  0  0  0
 31 32  1  0  0  0  0
 33 34  1  0  0  0  0
 33 32  2  0  0  0  0
 35 34  2  0  0  0  0
 36 35  1  0  0  0  0
 37 36  2  0  0  0  0
 37 38  1  0  0  0  0
 38 33  1  0  0  0  0
M  END
>  <minimizedAffinity>
-7.65983295

$$$$

 OpenBabel03252506143D

 38 41  0  0  0  0  0  0  0  0999 V2000
   40.1230   31.4870   39.0080 F   0  0  0  0  0  0  0  0  0  0  0  0
   39.7370   32.6930   39.4320 C   0  0  0  0  0  0  0  0  0  0  0  0
   40.6880   33.6780   39.6530 C   0  0  0  0  0  0  0  0  0  0  0  0
   40.3610   34.9560   40.0900 C   0  0  0  0  0  0  0  0  0  0  0  0
   39.0260   35.2800   40.3210 C   0  0  0  0  0  0  0  0  0  0  0  0
   38.1080   34.2740   40.0890 C   0  0  0  0  0  0  0  0  0  0  0  0
   38.4060   33.0170   39.6630 C   0  0  0  0  0  0  0  0  0  0  0  0
   41.1730   35.6750   40.2410 H   0  0  0  0  0  0  0  0  0  0  0  0
   38.8450   36.2750   40.6530 H   0  0  0  0  0  0  0  0  0  0  0  0
   37.1170   34.6620   40.2990 H   0  0  0  0  0  0  0  0  0  0  0  0
   43.9700   33.4810   38.0200 C   0  0  0  0  0  0  0  0  0  0  0  0
   44.7430   32.8250   39.0020 C   0  0  0  0  0  0  0  0  0  0  0  0
   44.1310   32.4520   40.2210 C   0  0  0  0  0  0  0  0  0  0  0  0
   42.8070   32.7610   40.3660 N   0  0  0  0  0  0  0  0  0  0  0  0
   42.1060   33.3820   39.4200 C   0  0  0  0  0  0  0  0  0  0  0  0
   42.6820   33.7390   38.2590 N   0  0  0  0  0  0  0  0  0  0  0  0
   45.7900   32.5990   38.8450 H   0  0  0  0  0  0  0  0  0  0  0  0
   44.6990   31.9480   40.9900 H   0  0  0  0  0  0  0  0  0  0  0  0
   44.5870   33.8510   36.7970 N   0  0  0  0  0  0  0  0  0  0  0  0
   44.9890   34.8090   36.8740 H   0  0  0  0  0  0  0  0  0  0  0  0
   44.6980   33.3500   35.8900 H   0  0  0  0  0  0  0  0  0  0  0  0
   37.4130   32.0960   39.4680 O   0  0  0  0  0  0  0  0  0  0  0  0
   36.9780   29.4850   39.6570 O   0  0  0  0  0  0  0  0  0  0  0  0
   37.1060   30.7510   40.4360 P   0  0  2  0  0  0  0  0  0  0  0  0
   35.6660   31.0530   41.3160 O   0  0  0  0  0  0  0  0  0  0  0  0
   34.9550   30.5350   40.8540 H   0  0  0  0  0  0  0  0  0  0  0  0
   38.2780   30.5430   41.6410 O   0  0  0  0  0  0  0  0  0  0  0  0
   38.5290   29.3940   42.3380 C   0  0  0  0  0  0  0  0  0  0  0  0
   37.5450   28.5200   42.8070 C   0  0  0  0  0  0  0  0  0  0  0  0
   36.5290   28.7640   42.6090 H   0  0  0  0  0  0  0  0  0  0  0  0
   37.8400   27.3670   43.5110 C   0  0  0  0  0  3  0  0  0  0  0  0
   39.1600   27.0630   43.7620 C   0  0  0  0  0  3  0  0  0  0  0  0
   40.1520   27.8970   43.3170 C   0  0  0  0  0  0  0  0  0  0  0  0
   41.4530   27.5240   43.6080 C   0  0  0  0  0  3  0  0  0  0  0  0
   42.5090   28.3270   43.1850 C   0  0  0  0  0  3  0  0  0  0  0  0
   42.2230   29.4790   42.4830 C   0  0  0  0  0  3  0  0  0  0  0  0
   40.9270   29.8410   42.1990 C   0  0  0  0  0  3  0  0  0  0  0  0
   39.8600   29.0630   42.6070 C   0  0  0  0  0  0  0  0  0  0  0  0
  1  2  1  0  0  0  0
  2  3  2  0  0  0  0
  2  7  1  0  0  0  0
  3  4  1  0  0  0  0
  4  8  1  0  0  0  0
  4  5  2  0  0  0  0
  5  9  1  0  0  0  0
  6 10  1  0  0  0  0
  6  5  1  0  0  0  0
  7  6  2  0  0  0  0
 11 16  2  0  0  0  0
 11 12  1  0  0  0  0
 12 13  2  0  0  0  0
 13 14  1  0  0  0  0
 13 18  1  0  0  0  0
 15  3  1  0  0  0  0
 15 14  2  0  0  0  0
 16 15  1  0  0  0  0
 17 12  1  0  0  0  0
 19 20  1  0  0  0  0
 19 11  1  0  0  0  0
 21 19  1  0  0  0  0
 22  7  1  0  0  0  0
 22 24  1  0  0  0  0
 24 23  2  6  0  0  0
 24 25  1  0  0  0  0
 24 27  1  0  0  0  0
 26 25  1  0  0  0  0
 27 28  1  0  0  0  0
 28 38  2  0  0  0  0
 28 29  1  0  0  0  0
 29 31  2  0  0  0  0
 30 29  1  0  0  0  0
 31 32  1  0  0  0  0
 33 34  1  0  0  0  0
 33 32  2  0  0  0  0
 35 34  2  0  0  0  0
 36 35  1  0  0  0  0
 37 36  2  0  0  0  0
 37 38  1  0  0  0  0
 38 33  1  0  0  0  0
M  END
>  <minimizedAffinity>
-7.33657408

$$$$

 OpenBabel03252506143D

 38 41  0  0  0  0  0  0  0  0999 V2000
   40.5710   29.9760   39.7090 F   0  0  0  0  0  0  0  0  0  0  0  0
   39.4800   30.3790   39.0520 C   0  0  0  0  0  0  0  0  0  0  0  0
   39.5980   31.3270   38.0470 C   0  0  0  0  0  0  0  0  0  0  0  0
   38.5100   31.7910   37.3180 C   0  0  0  0  0  0  0  0  0  0  0  0
   37.2390   31.2930   37.5940 C   0  0  0  0  0  0  0  0  0  0  0  0
   37.1610   30.3510   38.6020 C   0  0  0  0  0  0  0  0  0  0  0  0
   38.2120   29.8840   39.3270 C   0  0  0  0  0  0  0  0  0  0  0  0
   38.6890   32.5410   36.5410 H   0  0  0  0  0  0  0  0  0  0  0  0
   36.4500   31.6900   37.0000 H   0  0  0  0  0  0  0  0  0  0  0  0
   36.1250   30.0460   38.7050 H   0  0  0  0  0  0  0  0  0  0  0  0
   42.3470   33.7160   37.5840 C   0  0  0  0  0  0  0  0  0  0  0  0
   43.3790   32.8810   37.1060 C   0  0  0  0  0  0  0  0  0  0  0  0
   43.1250   31.5000   36.9440 C   0  0  0  0  0  0  0  0  0  0  0  0
   41.8710   31.0610   37.2700 N   0  0  0  0  0  0  0  0  0  0  0  0
   40.9190   31.8760   37.7190 C   0  0  0  0  0  0  0  0  0  0  0  0
   41.1550   33.1900   37.8750 N   0  0  0  0  0  0  0  0  0  0  0  0
   44.3580   33.2710   36.8590 H   0  0  0  0  0  0  0  0  0  0  0  0
   43.8970   30.8370   36.5790 H   0  0  0  0  0  0  0  0  0  0  0  0
   42.6060   35.1020   37.7430 N   0  0  0  0  0  0  0  0  0  0  0  0
   42.9670   35.2920   38.7010 H   0  0  0  0  0  0  0  0  0  0  0  0
   42.5000   35.9120   37.0950 H   0  0  0  0  0  0  0  0  0  0  0  0
   38.0190   28.9480   40.3070 O   0  0  0  0  0  0  0  0  0  0  0  0
   35.4140   28.5540   40.6280 O   0  0  0  0  0  0  0  0  0  0  0  0
   36.6900   28.8560   41.3400 P   0  0  2  0  0  0  0  0  0  0  0  0
   36.5650   30.3500   42.1700 O   0  0  0  0  0  0  0  0  0  0  0  0
   35.8300   30.8460   41.7220 H   0  0  0  0  0  0  0  0  0  0  0  0
   36.9140   27.7240   42.5790 O   0  0  0  0  0  0  0  0  0  0  0  0
   37.5290   26.5080   42.4660 C   0  0  0  0  0  0  0  0  0  0  0  0
   36.9180   25.3540   41.9710 C   0  0  0  0  0  0  0  0  0  0  0  0
   35.9040   25.4230   41.6590 H   0  0  0  0  0  0  0  0  0  0  0  0
   37.5750   24.1400   41.8730 C   0  0  0  0  0  3  0  0  0  0  0  0
   38.8890   24.0640   42.2800 C   0  0  0  0  0  3  0  0  0  0  0  0
   39.5210   25.1760   42.7710 C   0  0  0  0  0  0  0  0  0  0  0  0
   40.8410   25.0210   43.1600 C   0  0  0  0  0  3  0  0  0  0  0  0
   41.5400   26.1110   43.6670 C   0  0  0  0  0  3  0  0  0  0  0  0
   40.8920   27.3240   43.7680 C   0  0  0  0  0  3  0  0  0  0  0  0
   39.5810   27.4690   43.3800 C   0  0  0  0  0  3  0  0  0  0  0  0
   38.8620   26.4030   42.8730 C   0  0  0  0  0  0  0  0  0  0  0  0
  2  7  1  0  0  0  0
  2  1  1  0  0  0  0
  3  2  2  0  0  0  0
  4  5  2  0  0  0  0
  4  3  1  0  0  0  0
  5  6  1  0  0  0  0
  6 10  1  0  0  0  0
  6  7  2  0  0  0  0
  7 22  1  0  0  0  0
  8  4  1  0  0  0  0
  9  5  1  0  0  0  0
 11 19  1  0  0  0  0
 11 16  1  0  0  0  0
 12 11  2  0  0  0  0
 13 12  1  0  0  0  0
 13 14  2  0  0  0  0
 14 15  1  0  0  0  0
 15 16  2  0  0  0  0
 15  3  1  0  0  0  0
 17 12  1  0  0  0  0
 18 13  1  0  0  0  0
 19 20  1  0  0  0  0
 21 19  1  0  0  0  0
 22 24  1  0  0  0  0
 24 23  2  6  0  0  0
 24 25  1  0  0  0  0
 24 27  1  0  0  0  0
 26 25  1  0  0  0  0
 28 27  1  0  0  0  0
 28 38  1  0  0  0  0
 29 28  2  0  0  0  0
 30 29  1  0  0  0  0
 31 29  1  0  0  0  0
 31 32  2  0  0  0  0
 32 33  1  0  0  0  0
 33 38  2  0  0  0  0
 33 34  1  0  0  0  0
 34 35  2  0  0  0  0
 35 36  1  0  0  0  0
 37 36  2  0  0  0  0
 38 37  1  0  0  0  0
M  END
>  <minimizedAffinity>
-7.11742592

$$$$

 OpenBabel03252506143D

 38 41  0  0  0  0  0  0  0  0999 V2000
   38.7420   30.2090   37.3480 F   0  0  0  0  0  0  0  0  0  0  0  0
   38.3770   31.0080   38.3530 C   0  0  0  0  0  0  0  0  0  0  0  0
   39.2890   31.9140   38.8730 C   0  0  0  0  0  0  0  0  0  0  0  0
   38.9810   32.7800   39.9150 C   0  0  0  0  0  0  0  0  0  0  0  0
   37.7050   32.7520   40.4730 C   0  0  0  0  0  0  0  0  0  0  0  0
   36.8240   31.8370   39.9290 C   0  0  0  0  0  0  0  0  0  0  0  0
   37.1050   30.9810   38.9100 C   0  0  0  0  0  0  0  0  0  0  0  0
   39.7590   33.4640   40.2680 H   0  0  0  0  0  0  0  0  0  0  0  0
   37.5340   33.4400   41.2670 H   0  0  0  0  0  0  0  0  0  0  0  0
   35.8750   31.9280   40.4470 H   0  0  0  0  0  0  0  0  0  0  0  0
   42.3100   33.2120   37.2390 C   0  0  0  0  0  0  0  0  0  0  0  0
   43.1650   32.0890   37.2780 C   0  0  0  0  0  0  0  0  0  0  0  0
   42.6980   30.8910   37.8650 C   0  0  0  0  0  0  0  0  0  0  0  0
   41.4250   30.9040   38.3650 N   0  0  0  0  0  0  0  0  0  0  0  0
   40.6440   31.9810   38.3130 C   0  0  0  0  0  0  0  0  0  0  0  0
   41.0820   33.1230   37.7560 N   0  0  0  0  0  0  0  0  0  0  0  0
   44.1670   32.1220   36.8690 H   0  0  0  0  0  0  0  0  0  0  0  0
   43.3300   30.0150   37.9070 H   0  0  0  0  0  0  0  0  0  0  0  0
   42.7820   34.4120   36.6470 N   0  0  0  0  0  0  0  0  0  0  0  0
   43.2470   35.0070   37.3650 H   0  0  0  0  0  0  0  0  0  0  0  0
   42.7430   34.7710   35.6700 H   0  0  0  0  0  0  0  0  0  0  0  0
   36.1530   30.1130   38.4500 O   0  0  0  0  0  0  0  0  0  0  0  0
   37.2290   27.6920   38.2980 O   0  0  0  0  0  0  0  0  0  0  0  0
   36.0590   28.4670   38.8040 P   0  0  2  0  0  0  0  0  0  0  0  0
   34.6080   27.8630   38.1200 O   0  0  0  0  0  0  0  0  0  0  0  0
   34.8790   27.3850   37.2930 H   0  0  0  0  0  0  0  0  0  0  0  0
   35.8770   28.1740   40.4620 O   0  0  0  0  0  0  0  0  0  0  0  0
   36.8790   28.1130   41.3900 C   0  0  0  0  0  0  0  0  0  0  0  0
   37.4090   29.2190   42.0570 C   0  0  0  0  0  0  0  0  0  0  0  0
   37.0060   30.1770   41.8300 H   0  0  0  0  0  0  0  0  0  0  0  0
   38.4250   29.1170   42.9910 C   0  0  0  0  0  3  0  0  0  0  0  0
   38.9380   27.8710   43.2760 C   0  0  0  0  0  3  0  0  0  0  0  0
   38.4420   26.7620   42.6410 C   0  0  0  0  0  0  0  0  0  0  0  0
   39.0080   25.5450   42.9820 C   0  0  0  0  0  3  0  0  0  0  0  0
   38.5510   24.3810   42.3730 C   0  0  0  0  0  3  0  0  0  0  0  0
   37.5390   24.4750   41.4410 C   0  0  0  0  0  3  0  0  0  0  0  0
   36.9820   25.6880   41.1090 C   0  0  0  0  0  3  0  0  0  0  0  0
   37.4170   26.8610   41.6980 C   0  0  0  0  0  0  0  0  0  0  0  0
  1  2  1  0  0  0  0
  2  3  2  0  0  0  0
  2  7  1  0  0  0  0
  3  4  1  0  0  0  0
  4  8  1  0  0  0  0
  4  5  2  0  0  0  0
  5  9  1  0  0  0  0
  6 10  1  0  0  0  0
  6  5  1  0  0  0  0
  7  6  2  0  0  0  0
 11 12  2  0  0  0  0
 11 16  1  0  0  0  0
 12 13  1  0  0  0  0
 13 18  1  0  0  0  0
 13 14  2  0  0  0  0
 15 14  1  0  0  0  0
 15  3  1  0  0  0  0
 16 15  2  0  0  0  0
 17 12  1  0  0  0  0
 19 11  1  0  0  0  0
 19 20  1  0  0  0  0
 21 19  1  0  0  0  0
 22 24  1  0  0  0  0
 22  7  1  0  0  0  0
 24 23  2  6  0  0  0
 24 27  1  0  0  0  0
 25 24  1  0  0  0  0
 26 25  1  0  0  0  0
 27 28  1  0  0  0  0
 28 38  2  0  0  0  0
 28 29  1  0  0  0  0
 29 31  2  0  0  0  0
 30 29  1  0  0  0  0
 31 32  1  0  0  0  0
 33 34  1  0  0  0  0
 33 32  2  0  0  0  0
 35 34  2  0  0  0  0
 36 35  1  0  0  0  0
 37 36  2  0  0  0  0
 37 38  1  0  0  0  0
 38 33  1  0  0  0  0
M  END
>  <minimizedAffinity>
-7.07094717

$$$$

 OpenBabel03252506143D

 38 41  0  0  0  0  0  0  0  0999 V2000
   40.9520   29.1840   42.0470 F   0  0  0  0  0  0  0  0  0  0  0  0
   40.6990   28.2530   41.1230 C   0  0  0  0  0  0  0  0  0  0  0  0
   39.7020   28.4740   40.1840 C   0  0  0  0  0  0  0  0  0  0  0  0
   39.3860   27.5550   39.1920 C   0  0  0  0  0  0  0  0  0  0  0  0
   40.0900   26.3550   39.1200 C   0  0  0  0  0  0  0  0  0  0  0  0
   41.0760   26.1710   40.0710 C   0  0  0  0  0  0  0  0  0  0  0  0
   41.4010   27.0570   41.0500 C   0  0  0  0  0  0  0  0  0  0  0  0
   38.5840   27.8060   38.4900 H   0  0  0  0  0  0  0  0  0  0  0  0
   39.7980   25.6950   38.3370 H   0  0  0  0  0  0  0  0  0  0  0  0
   41.5450   25.2090   39.8950 H   0  0  0  0  0  0  0  0  0  0  0  0
   36.9840   30.8650   40.7980 C   0  0  0  0  0  0  0  0  0  0  0  0
   37.5270   32.0600   40.2780 C   0  0  0  0  0  0  0  0  0  0  0  0
   38.8250   32.0370   39.7190 C   0  0  0  0  0  0  0  0  0  0  0  0
   39.4770   30.8350   39.7210 N   0  0  0  0  0  0  0  0  0  0  0  0
   38.9370   29.7250   40.2200 C   0  0  0  0  0  0  0  0  0  0  0  0
   37.7030   29.7400   40.7530 N   0  0  0  0  0  0  0  0  0  0  0  0
   36.9750   32.9900   40.2960 H   0  0  0  0  0  0  0  0  0  0  0  0
   39.2660   32.9370   39.3130 H   0  0  0  0  0  0  0  0  0  0  0  0
   35.6800   30.8910   41.3560 N   0  0  0  0  0  0  0  0  0  0  0  0
   35.7300   31.1070   42.3740 H   0  0  0  0  0  0  0  0  0  0  0  0
   34.7380   30.7390   40.9380 H   0  0  0  0  0  0  0  0  0  0  0  0
   42.3970   26.7700   41.9440 O   0  0  0  0  0  0  0  0  0  0  0  0
   42.3870   26.9730   44.5900 O   0  0  0  0  0  0  0  0  0  0  0  0
   42.1970   26.0320   43.4460 P   0  0  2  0  0  0  0  0  0  0  0  0
   43.3170   24.7390   43.5520 O   0  0  0  0  0  0  0  0  0  0  0  0
   44.0580   25.0710   44.1240 H   0  0  0  0  0  0  0  0  0  0  0  0
   40.6900   25.2750   43.5980 O   0  0  0  0  0  0  0  0  0  0  0  0
   39.4710   25.8320   43.3280 C   0  0  0  0  0  0  0  0  0  0  0  0
   39.0030   27.0230   43.8870 C   0  0  0  0  0  0  0  0  0  0  0  0
   39.6380   27.5350   44.5700 H   0  0  0  0  0  0  0  0  0  0  0  0
   37.7620   27.5550   43.5890 C   0  0  0  0  0  3  0  0  0  0  0  0
   36.9490   26.8820   42.7030 C   0  0  0  0  0  3  0  0  0  0  0  0
   37.3750   25.7100   42.1350 C   0  0  0  0  0  0  0  0  0  0  0  0
   36.5020   25.0930   41.2550 C   0  0  0  0  0  3  0  0  0  0  0  0
   36.8730   23.8990   40.6440 C   0  0  0  0  0  3  0  0  0  0  0  0
   38.1100   23.3630   40.9360 C   0  0  0  0  0  3  0  0  0  0  0  0
   38.9700   23.9830   41.8120 C   0  0  0  0  0  3  0  0  0  0  0  0
   38.6270   25.1690   42.4330 C   0  0  0  0  0  0  0  0  0  0  0  0
  2  1  1  0  0  0  0
  3 15  1  0  0  0  0
  3  2  2  0  0  0  0
  4  3  1  0  0  0  0
  5  4  2  0  0  0  0
  5  6  1  0  0  0  0
  6  7  2  0  0  0  0
  7  2  1  0  0  0  0
  7 22  1  0  0  0  0
  8  4  1  0  0  0  0
  9  5  1  0  0  0  0
 10  6  1  0  0  0  0
 11 19  1  0  0  0  0
 12 17  1  0  0  0  0
 12 11  2  0  0  0  0
 13 14  2  0  0  0  0
 13 12  1  0  0  0  0
 14 15  1  0  0  0  0
 15 16  2  0  0  0  0
 16 11  1  0  0  0  0
 18 13  1  0  0  0  0
 19 20  1  0  0  0  0
 21 19  1  0  0  0  0
 22 24  1  0  0  0  0
 24 25  1  0  0  0  0
 24 27  1  0  0  0  0
 24 23  2  1  0  0  0
 25 26  1  0  0  0  0
 28 27  1  0  0  0  0
 28 29  1  0  0  0  0
 29 30  1  0  0  0  0
 31 29  2  0  0  0  0
 32 31  1  0  0  0  0
 33 38  1  0  0  0  0
 33 32  2  0  0  0  0
 34 33  1  0  0  0  0
 35 36  1  0  0  0  0
 35 34  2  0  0  0  0
 36 37  2  0  0  0  0
 37 38  1  0  0  0  0
 38 28  2  0  0  0  0
M  END
>  <minimizedAffinity>
-7.0193634

$$$$

 OpenBabel03252506143D

 38 41  0  0  0  0  0  0  0  0999 V2000
   38.2450   31.9700   39.4000 F   0  0  0  0  0  0  0  0  0  0  0  0
   39.0510   30.9080   39.3200 C   0  0  0  0  0  0  0  0  0  0  0  0
   40.4130   31.0960   39.1350 C   0  0  0  0  0  0  0  0  0  0  0  0
   41.3130   30.0410   39.0460 C   0  0  0  0  0  0  0  0  0  0  0  0
   40.8460   28.7330   39.1470 C   0  0  0  0  0  0  0  0  0  0  0  0
   39.4850   28.5860   39.3310 C   0  0  0  0  0  0  0  0  0  0  0  0
   38.5870   29.6040   39.4200 C   0  0  0  0  0  0  0  0  0  0  0  0
   42.3730   30.2750   38.8990 H   0  0  0  0  0  0  0  0  0  0  0  0
   41.5870   27.9720   39.0710 H   0  0  0  0  0  0  0  0  0  0  0  0
   39.2620   27.5260   39.4000 H   0  0  0  0  0  0  0  0  0  0  0  0
   42.1340   34.0540   37.8060 C   0  0  0  0  0  0  0  0  0  0  0  0
   41.9410   34.9920   38.8430 C   0  0  0  0  0  0  0  0  0  0  0  0
   41.2200   34.6020   39.9940 C   0  0  0  0  0  0  0  0  0  0  0  0
   40.7500   33.3180   40.0230 N   0  0  0  0  0  0  0  0  0  0  0  0
   40.9500   32.4570   39.0270 C   0  0  0  0  0  0  0  0  0  0  0  0
   41.6350   32.8220   37.9300 N   0  0  0  0  0  0  0  0  0  0  0  0
   42.3310   35.9990   38.7790 H   0  0  0  0  0  0  0  0  0  0  0  0
   41.0570   35.2990   40.8040 H   0  0  0  0  0  0  0  0  0  0  0  0
   42.8610   34.4480   36.6530 N   0  0  0  0  0  0  0  0  0  0  0  0
   42.2130   34.8440   35.9390 H   0  0  0  0  0  0  0  0  0  0  0  0
   43.8760   34.4090   36.4190 H   0  0  0  0  0  0  0  0  0  0  0  0
   37.2560   29.3420   39.6010 O   0  0  0  0  0  0  0  0  0  0  0  0
   35.3180   28.5330   41.2250 O   0  0  0  0  0  0  0  0  0  0  0  0
   36.3920   29.5520   41.0330 P   0  0  2  0  0  0  0  0  0  0  0  0
   35.7170   31.1270   41.0150 O   0  0  0  0  0  0  0  0  0  0  0  0
   34.7590   31.0070   40.7820 H   0  0  0  0  0  0  0  0  0  0  0  0
   37.3960   29.5590   42.3970 O   0  0  0  0  0  0  0  0  0  0  0  0
   38.4110   28.6820   42.6630 C   0  0  0  0  0  0  0  0  0  0  0  0
   38.2460   27.3050   42.8220 C   0  0  0  0  0  0  0  0  0  0  0  0
   37.2640   26.9080   42.7310 H   0  0  0  0  0  0  0  0  0  0  0  0
   39.2990   26.4490   43.0910 C   0  0  0  0  0  3  0  0  0  0  0  0
   40.5670   26.9760   43.2070 C   0  0  0  0  0  3  0  0  0  0  0  0
   40.7670   28.3230   43.0570 C   0  0  0  0  0  0  0  0  0  0  0  0
   42.0680   28.7770   43.1870 C   0  0  0  0  0  3  0  0  0  0  0  0
   42.3400   30.1350   43.0460 C   0  0  0  0  0  3  0  0  0  0  0  0
   41.2950   30.9940   42.7780 C   0  0  0  0  0  3  0  0  0  0  0  0
   40.0050   30.5340   42.6500 C   0  0  0  0  0  3  0  0  0  0  0  0
   39.7070   29.1910   42.7860 C   0  0  0  0  0  0  0  0  0  0  0  0
  2  1  1  0  0  0  0
  2  7  1  0  0  0  0
  3  2  2  0  0  0  0
  4  3  1  0  0  0  0
  4  5  2  0  0  0  0
  5  6  1  0  0  0  0
  6 10  1  0  0  0  0
  6  7  2  0  0  0  0
  7 22  1  0  0  0  0
  8  4  1  0  0  0  0
  9  5  1  0  0  0  0
 11 16  2  0  0  0  0
 11 12  1  0  0  0  0
 12 13  2  0  0  0  0
 13 14  1  0  0  0  0
 13 18  1  0  0  0  0
 15  3  1  0  0  0  0
 15 14  2  0  0  0  0
 16 15  1  0  0  0  0
 17 12  1  0  0  0  0
 19 11  1  0  0  0  0
 20 19  1  0  0  0  0
 21 19  1  0  0  0  0
 22 24  1  0  0  0  0
 24 23  2  1  0  0  0
 24 27  1  0  0  0  0
 25 24  1  0  0  0  0
 26 25  1  0  0  0  0
 27 28  1  0  0  0  0
 28 38  2  0  0  0  0
 28 29  1  0  0  0  0
 29 31  2  0  0  0  0
 30 29  1  0  0  0  0
 31 32  1  0  0  0  0
 33 34  1  0  0  0  0
 33 32  2  0  0  0  0
 35 34  2  0  0  0  0
 36 35  1  0  0  0  0
 37 36  2  0  0  0  0
 37 38  1  0  0  0  0
 38 33  1  0  0  0  0
M  END
>  <minimizedAffinity>
-7.00342607

$$$$

 OpenBabel03252506143D

 38 41  0  0  0  0  0  0  0  0999 V2000
   39.5180   27.1130   41.0130 F   0  0  0  0  0  0  0  0  0  0  0  0
   38.6250   27.3640   41.9740 C   0  0  0  0  0  0  0  0  0  0  0  0
   37.4910   26.5730   42.0770 C   0  0  0  0  0  0  0  0  0  0  0  0
   36.5210   26.7710   43.0520 C   0  0  0  0  0  0  0  0  0  0  0  0
   36.6780   27.8040   43.9740 C   0  0  0  0  0  0  0  0  0  0  0  0
   37.8200   28.5700   43.8390 C   0  0  0  0  0  0  0  0  0  0  0  0
   38.7810   28.3930   42.8930 C   0  0  0  0  0  0  0  0  0  0  0  0
   35.6550   26.1020   43.0650 H   0  0  0  0  0  0  0  0  0  0  0  0
   35.9000   27.9010   44.6940 H   0  0  0  0  0  0  0  0  0  0  0  0
   37.8190   29.3240   44.6190 H   0  0  0  0  0  0  0  0  0  0  0  0
   37.6380   23.2410   40.5430 C   0  0  0  0  0  0  0  0  0  0  0  0
   36.8950   23.4340   39.3590 C   0  0  0  0  0  0  0  0  0  0  0  0
   36.3470   24.7100   39.0940 C   0  0  0  0  0  0  0  0  0  0  0  0
   36.5800   25.6870   40.0220 N   0  0  0  0  0  0  0  0  0  0  0  0
   37.2860   25.4720   41.1300 C   0  0  0  0  0  0  0  0  0  0  0  0
   37.8100   24.2610   41.3880 N   0  0  0  0  0  0  0  0  0  0  0  0
   36.7350   22.6320   38.6500 H   0  0  0  0  0  0  0  0  0  0  0  0
   35.7740   24.8870   38.1940 H   0  0  0  0  0  0  0  0  0  0  0  0
   38.1890   21.9590   40.8040 N   0  0  0  0  0  0  0  0  0  0  0  0
   37.5100   21.3800   41.3420 H   0  0  0  0  0  0  0  0  0  0  0  0
   39.1060   21.5290   40.5600 H   0  0  0  0  0  0  0  0  0  0  0  0
   39.8740   29.2160   42.8510 O   0  0  0  0  0  0  0  0  0  0  0  0
   41.0020   30.1120   40.6220 O   0  0  0  0  0  0  0  0  0  0  0  0
   40.1180   30.4830   41.7670 P   0  0  2  0  0  0  0  0  0  0  0  0
   40.7950   31.7970   42.6350 O   0  0  0  0  0  0  0  0  0  0  0  0
   41.7640   31.7930   42.4170 H   0  0  0  0  0  0  0  0  0  0  0  0
   38.6640   31.1050   41.1630 O   0  0  0  0  0  0  0  0  0  0  0  0
   38.2110   31.0070   39.8760 C   0  0  0  0  0  0  0  0  0  0  0  0
   38.8550   31.5550   38.7650 C   0  0  0  0  0  0  0  0  0  0  0  0
   39.7620   32.0870   38.9290 H   0  0  0  0  0  0  0  0  0  0  0  0
   38.3650   31.4340   37.4780 C   0  0  0  0  0  3  0  0  0  0  0  0
   37.1900   30.7440   37.2800 C   0  0  0  0  0  3  0  0  0  0  0  0
   36.5300   30.1910   38.3460 C   0  0  0  0  0  0  0  0  0  0  0  0
   35.3560   29.5120   38.0660 C   0  0  0  0  0  3  0  0  0  0  0  0
   34.6370   28.9280   39.1050 C   0  0  0  0  0  3  0  0  0  0  0  0
   35.1200   29.0440   40.3910 C   0  0  0  0  0  3  0  0  0  0  0  0
   36.2870   29.7210   40.6590 C   0  0  0  0  0  3  0  0  0  0  0  0
   37.0210   30.3110   39.6470 C   0  0  0  0  0  0  0  0  0  0  0  0
  1  2  1  0  0  0  0
  2  3  2  0  0  0  0
  2  7  1  0  0  0  0
  3  4  1  0  0  0  0
  4  8  1  0  0  0  0
  4  5  2  0  0  0  0
  5  9  1  0  0  0  0
  6  5  1  0  0  0  0
  6 10  1  0  0  0  0
  7  6  2  0  0  0  0
 11 19  1  0  0  0  0
 11 16  1  0  0  0  0
 12 11  2  0  0  0  0
 13 12  1  0  0  0  0
 13 14  2  0  0  0  0
 14 15  1  0  0  0  0
 15 16  2  0  0  0  0
 15  3  1  0  0  0  0
 17 12  1  0  0  0  0
 18 13  1  0  0  0  0
 19 20  1  0  0  0  0
 21 19  1  0  0  0  0
 22  7  1  0  0  0  0
 24 23  2  6  0  0  0
 24 25  1  0  0  0  0
 24 22  1  0  0  0  0
 26 25  1  0  0  0  0
 27 24  1  0  0  0  0
 28 27  1  0  0  0  0
 29 30  1  0  0  0  0
 29 28  2  0  0  0  0
 31 29  1  0  0  0  0
 32 31  2  0  0  0  0
 32 33  1  0  0  0  0
 33 38  1  0  0  0  0
 34 33  2  0  0  0  0
 34 35  1  0  0  0  0
 35 36  2  0  0  0  0
 36 37  1  0  0  0  0
 38 28  1  0  0  0  0
 38 37  2  0  0  0  0
M  END
>  <minimizedAffinity>
-6.98833609

$$$$

 OpenBabel03252506143D

 38 41  0  0  0  0  0  0  0  0999 V2000
   40.2570   28.0770   40.6730 F   0  0  0  0  0  0  0  0  0  0  0  0
   40.9000   28.9490   41.4530 C   0  0  0  0  0  0  0  0  0  0  0  0
   40.4450   30.2560   41.5370 C   0  0  0  0  0  0  0  0  0  0  0  0
   41.0590   31.2180   42.3300 C   0  0  0  0  0  0  0  0  0  0  0  0
   42.1800   30.8720   43.0810 C   0  0  0  0  0  0  0  0  0  0  0  0
   42.6030   29.5610   42.9720 C   0  0  0  0  0  0  0  0  0  0  0  0
   42.0180   28.6050   42.2020 C   0  0  0  0  0  0  0  0  0  0  0  0
   40.6370   32.2280   42.3400 H   0  0  0  0  0  0  0  0  0  0  0  0
   42.6020   31.6540   43.6670 H   0  0  0  0  0  0  0  0  0  0  0  0
   43.4720   29.4280   43.6090 H   0  0  0  0  0  0  0  0  0  0  0  0
   36.9590   31.0070   40.6620 C   0  0  0  0  0  0  0  0  0  0  0  0
   37.0810   31.4270   39.3200 C   0  0  0  0  0  0  0  0  0  0  0  0
   38.3620   31.4500   38.7230 C   0  0  0  0  0  0  0  0  0  0  0  0
   39.4140   31.0560   39.5030 N   0  0  0  0  0  0  0  0  0  0  0  0
   39.2650   30.6650   40.7670 C   0  0  0  0  0  0  0  0  0  0  0  0
   38.0500   30.6410   41.3410 N   0  0  0  0  0  0  0  0  0  0  0  0
   36.2210   31.7310   38.7380 H   0  0  0  0  0  0  0  0  0  0  0  0
   38.4860   31.7680   37.6970 H   0  0  0  0  0  0  0  0  0  0  0  0
   35.6710   30.9830   41.2580 N   0  0  0  0  0  0  0  0  0  0  0  0
   35.4680   31.9000   41.7080 H   0  0  0  0  0  0  0  0  0  0  0  0
   34.9410   30.2420   41.3130 H   0  0  0  0  0  0  0  0  0  0  0  0
   42.5240   27.3340   42.1680 O   0  0  0  0  0  0  0  0  0  0  0  0
   43.3360   26.7130   44.6170 O   0  0  0  0  0  0  0  0  0  0  0  0
   42.5370   26.2390   43.4490 P   0  0  2  0  0  0  0  0  0  0  0  0
   43.1630   24.7540   42.8670 O   0  0  0  0  0  0  0  0  0  0  0  0
   44.1030   24.7140   43.1890 H   0  0  0  0  0  0  0  0  0  0  0  0
   40.9760   25.8400   43.9720 O   0  0  0  0  0  0  0  0  0  0  0  0
   39.9200   25.4880   43.1790 C   0  0  0  0  0  0  0  0  0  0  0  0
   39.8790   24.3490   42.3730 C   0  0  0  0  0  0  0  0  0  0  0  0
   40.7290   23.7090   42.3740 H   0  0  0  0  0  0  0  0  0  0  0  0
   38.7910   24.0260   41.5830 C   0  0  0  0  0  3  0  0  0  0  0  0
   37.6970   24.8640   41.5890 C   0  0  0  0  0  3  0  0  0  0  0  0
   37.7000   25.9910   42.3690 C   0  0  0  0  0  0  0  0  0  0  0  0
   36.5650   26.7810   42.3230 C   0  0  0  0  0  3  0  0  0  0  0  0
   36.5040   27.9410   43.0910 C   0  0  0  0  0  3  0  0  0  0  0  0
   37.5850   28.2690   43.8810 C   0  0  0  0  0  3  0  0  0  0  0  0
   38.7090   27.4770   43.9200 C   0  0  0  0  0  3  0  0  0  0  0  0
   38.7970   26.3200   43.1680 C   0  0  0  0  0  0  0  0  0  0  0  0
  1  2  1  0  0  0  0
  2  3  2  0  0  0  0
  2  7  1  0  0  0  0
  3  4  1  0  0  0  0
  4  8  1  0  0  0  0
  4  5  2  0  0  0  0
  5  9  1  0  0  0  0
  6  5  1  0  0  0  0
  6 10  1  0  0  0  0
  7  6  2  0  0  0  0
 11 19  1  0  0  0  0
 11 16  1  0  0  0  0
 12 11  2  0  0  0  0
 13 12  1  0  0  0  0
 13 14  2  0  0  0  0
 14 15  1  0  0  0  0
 15 16  2  0  0  0  0
 15  3  1  0  0  0  0
 17 12  1  0  0  0  0
 18 13  1  0  0  0  0
 19 21  1  0  0  0  0
 19 20  1  0  0  0  0
 22  7  1  0  0  0  0
 22 24  1  0  0  0  0
 24 27  1  0  0  0  0
 24 23  2  1  0  0  0
 25 26  1  0  0  0  0
 25 24  1  0  0  0  0
 28 27  1  0  0  0  0
 29 30  1  0  0  0  0
 29 28  2  0  0  0  0
 31 32  2  0  0  0  0
 31 29  1  0  0  0  0
 32 33  1  0  0  0  0
 33 38  1  0  0  0  0
 34 33  2  0  0  0  0
 34 35  1  0  0  0  0
 35 36  2  0  0  0  0
 36 37  1  0  0  0  0
 38 28  1  0  0  0  0
 38 37  2  0  0  0  0
M  END
>  <minimizedAffinity>
-6.98814583

$$$$
