
 OpenBabel03242519413D

 31 33  0  0  0  0  0  0  0  0999 V2000
   47.9480   32.8640   41.8600 O   0  0  0  0  0  0  0  0  0  0  0  0
   47.0720   34.0310   41.3310 P   0  0  2  0  0  0  0  0  0  0  0  0
   45.4840   33.8520   41.9610 O   0  0  0  0  0  0  0  0  0  0  0  0
   44.3930   35.9570   44.7250 C   0  0  0  0  0  0  0  0  0  0  0  0
   44.6440   35.5100   43.4070 C   0  0  0  0  0  0  0  0  0  0  0  0
   45.2520   34.2550   43.2580 C   0  0  0  0  0  0  0  0  0  0  0  0
   45.5580   33.5490   44.3630 N   0  0  0  0  0  0  0  0  0  0  0  0
   45.3050   34.0030   45.6110 C   0  0  0  0  0  0  0  0  0  0  0  0
   44.7260   35.2000   45.8010 N   0  0  0  0  0  0  0  0  0  0  0  0
   43.9250   36.9240   44.8490 H   0  0  0  0  0  0  0  0  0  0  0  0
   44.3590   36.1490   42.5940 H   0  0  0  0  0  0  0  0  0  0  0  0
   45.5850   33.3710   46.4610 H   0  0  0  0  0  0  0  0  0  0  0  0
   47.0020   33.9480   39.6760 O   0  0  0  0  0  0  0  0  0  0  0  0
   46.5040   32.9760   38.8680 C   0  0  0  0  0  0  0  0  0  0  0  0
   45.3740   33.2600   38.1740 O   0  0  0  0  0  0  0  0  0  0  0  0
   46.6920   31.5980   38.3590 C   0  0  0  0  0  0  0  0  0  0  0  0
   45.8770   30.5440   38.8310 C   0  0  0  0  0  0  0  0  0  0  0  0
   45.0330   30.8870   39.4750 H   0  0  0  0  0  0  0  0  0  0  0  0
   45.9360   29.1880   38.6460 C   0  0  0  0  0  3  0  0  0  0  0  0
   47.0030   28.8560   37.8470 C   0  0  0  0  0  3  0  0  0  0  0  0
   47.8460   29.8130   37.3400 C   0  0  0  0  0  0  0  0  0  0  0  0
   48.8830   29.4570   36.5070 C   0  0  0  0  0  3  0  0  0  0  0  0
   49.7870   30.2960   35.8900 C   0  0  0  0  0  3  0  0  0  0  0  0
   49.5900   31.6560   36.1680 C   0  0  0  0  0  3  0  0  0  0  0  0
   48.5660   32.0400   36.9960 C   0  0  0  0  0  3  0  0  0  0  0  0
   47.6940   31.1750   37.5910 C   0  0  0  0  0  0  0  0  0  0  0  0
   47.7270   35.4320   41.9290 O   0  0  0  0  0  0  0  0  0  0  0  0
   48.9800   35.7020   41.3970 C   0  0  0  0  0  0  0  0  0  0  0  0
   49.4370   36.9630   41.7330 F   0  0  0  0  0  0  0  0  0  0  0  0
   49.8590   34.7170   41.7150 F   0  0  0  0  0  0  0  0  0  0  0  0
   48.8190   35.7040   40.0130 F   0  0  0  0  0  0  0  0  0  0  0  0
  2  1  2  1  0  0  0
  2 27  1  0  0  0  0
  2  3  1  0  0  0  0
  3  6  1  0  0  0  0
  4 10  1  0  0  0  0
  4  9  1  0  0  0  0
  5  4  2  0  0  0  0
  6  5  1  0  0  0  0
  6  7  2  0  0  0  0
  7  8  1  0  0  0  0
  8  9  2  0  0  0  0
  8 12  1  0  0  0  0
 11  5  1  0  0  0  0
 13  2  1  0  0  0  0
 14 13  1  0  0  0  0
 15 14  2  0  0  0  0
 16 17  1  0  0  0  0
 16 14  1  0  0  0  0
 17 18  1  0  0  0  0
 19 17  2  0  0  0  0
 20 19  1  0  0  0  0
 21 26  1  0  0  0  0
 21 20  2  0  0  0  0
 22 21  1  0  0  0  0
 23 24  1  0  0  0  0
 23 22  2  0  0  0  0
 24 25  2  0  0  0  0
 25 26  1  0  0  0  0
 26 16  2  0  0  0  0
 28 30  1  0  0  0  0
 28 29  1  0  0  0  0
 28 27  1  0  0  0  0
 31 28  1  0  0  0  0
M  END
>  <minimizedAffinity>
-5.05117464

>  <minimizedRMSD>
0.89526844

$$$$
