
 OpenBabel03252508003D

 31 34  0  0  1  0  0  0  0  0999 V2000
   46.1540   34.8240   43.3040 C   0  0  0  0  0  0  0  0  0  0  0  0
   45.2340   35.8600   43.6480 C   0  0  0  0  0  0  0  0  0  0  0  0
   44.5900   35.7170   44.8730 C   0  0  0  0  0  0  0  0  0  0  0  0
   44.8660   34.6390   45.6440 N   0  0  0  0  0  0  0  0  0  0  0  0
   45.7660   33.6780   45.2460 C   0  0  0  0  0  0  0  0  0  0  0  0
   46.4090   33.7540   44.0970 N   0  0  0  0  0  0  0  0  0  0  0  0
   45.0790   36.6840   42.9670 H   0  0  0  0  0  0  0  0  0  0  0  0
   43.8840   36.4780   45.1770 H   0  0  0  0  0  0  0  0  0  0  0  0
   46.0230   32.5290   46.1630 C   0  0  1  0  0  0  0  0  0  0  0  0
   46.8500   32.7530   47.4070 C   0  0  0  0  0  0  0  0  0  0  0  0
   45.3510   32.6340   47.4750 C   0  0  1  0  0  0  0  0  0  0  0  0
   46.0770   31.5330   45.6840 H   0  0  0  0  0  0  0  0  0  0  0  0
   47.3390   33.7350   47.4530 H   0  0  0  0  0  0  0  0  0  0  0  0
   47.4190   31.8650   47.7410 H   0  0  0  0  0  0  0  0  0  0  0  0
   44.9500   31.7360   48.0060 H   0  0  0  0  0  0  0  0  0  0  0  0
   44.7180   33.8720   47.8700 N   0  0  0  0  0  0  0  0  0  0  0  0
   43.7260   33.9610   47.7050 H   0  0  0  0  0  0  0  0  0  0  0  0
   45.3130   34.6830   47.9770 H   0  0  0  0  0  0  0  0  0  0  0  0
   46.8240   34.9920   42.0310 C   0  0  0  0  0  0  0  0  0  0  0  0
   47.9410   35.6050   41.9070 O   0  0  0  0  0  0  0  0  0  0  0  0
   46.0290   34.3650   40.9800 C   0  0  0  0  0  0  0  0  0  0  0  0
   44.6490   34.4660   40.9300 C   0  0  0  0  0  0  0  0  0  0  0  0
   44.1400   35.0410   41.7040 H   0  0  0  0  0  0  0  0  0  0  0  0
   43.8510   33.8890   39.9640 C   0  0  0  0  0  3  0  0  0  0  0  0
   44.4430   33.1570   38.9720 C   0  0  0  0  0  3  0  0  0  0  0  0
   45.8160   33.0140   38.9580 C   0  0  0  0  0  0  0  0  0  0  0  0
   46.4490   32.2740   37.9570 C   0  0  0  0  0  3  0  0  0  0  0  0
   47.8080   32.1160   37.9190 C   0  0  0  0  0  3  0  0  0  0  0  0
   48.5880   32.7140   38.9110 C   0  0  0  0  0  3  0  0  0  0  0  0
   47.9220   33.4370   39.8840 C   0  0  0  0  0  3  0  0  0  0  0  0
   46.5590   33.6150   39.9520 C   0  0  0  0  0  0  0  0  0  0  0  0
  1  2  2  0  0  0  0
  1  6  1  0  0  0  0
  2  3  1  0  0  0  0
  3  8  1  0  0  0  0
  3  4  2  0  0  0  0
  5  4  1  0  0  0  0
  5  9  1  0  0  0  0
  6  5  2  0  0  0  0
  7  2  1  0  0  0  0
  9 12  1  6  0  0  0
  9 10  1  0  0  0  0
  9 11  1  0  0  0  0
 10 13  1  0  0  0  0
 10 11  1  0  0  0  0
 10 14  1  0  0  0  0
 11 16  1  0  0  0  0
 11 15  1  1  0  0  0
 16 18  1  0  0  0  0
 17 16  1  0  0  0  0
 19  1  1  0  0  0  0
 20 19  2  0  0  0  0
 21 19  1  0  0  0  0
 22 21  1  0  0  0  0
 22 23  1  0  0  0  0
 24 22  2  0  0  0  0
 25 24  1  0  0  0  0
 26 25  2  0  0  0  0
 26 31  1  0  0  0  0
 27 26  1  0  0  0  0
 28 27  2  0  0  0  0
 28 29  1  0  0  0  0
 29 30  2  0  0  0  0
 30 31  1  0  0  0  0
 31 21  2  0  0  0  0
M  END
>  <minimizedAffinity>
-6.33124065

>  <minimizedRMSD>
0.424627692

$$$$
