
 OpenBabel03252507463D

 39 42  0  0  0  0  0  0  0  0999 V2000
   48.4450   33.8390   41.4120 C   0  0  0  0  0  0  0  0  0  0  0  0
   49.0480   32.6680   40.9840 C   0  0  0  0  0  0  0  0  0  0  0  0
   50.3460   32.3570   41.3670 C   0  0  0  0  0  0  0  0  0  0  0  0
   50.9840   33.2680   42.1860 N   0  0  0  0  0  0  0  0  0  0  0  0
   50.3610   34.3970   42.5810 C   0  0  0  0  0  0  0  0  0  0  0  0
   49.1210   34.6710   42.2000 N   0  0  0  0  0  0  0  0  0  0  0  0
   50.8260   31.4450   41.0390 H   0  0  0  0  0  0  0  0  0  0  0  0
   50.9650   35.0370   43.2240 H   0  0  0  0  0  0  0  0  0  0  0  0
   47.0660   34.0810   40.9500 C   0  0  0  0  0  0  0  0  0  0  0  0
   47.0770   34.5030   39.9050 H   0  0  0  0  0  0  0  0  0  0  0  0
   46.4870   33.1490   40.8740 H   0  0  0  0  0  0  0  0  0  0  0  0
   46.2910   35.0020   41.8370 C   0  0  0  0  0  0  0  0  0  0  0  0
   46.6190   36.0300   41.6730 H   0  0  0  0  0  0  0  0  0  0  0  0
   46.5150   34.7630   42.9150 H   0  0  0  0  0  0  0  0  0  0  0  0
   44.8220   34.9260   41.6410 C   0  0  0  0  0  0  0  0  0  0  0  0
   43.9450   35.3720   42.6900 C   0  0  0  0  0  0  0  0  0  0  0  0
   42.2780   35.0750   41.9680 S   0  0  0  0  0  0  0  0  0  0  0  0
   43.0520   34.3990   40.3720 C   0  0  0  0  0  0  0  0  0  0  0  0
   44.1640   34.4920   40.6030 N   0  0  0  0  0  0  0  0  0  0  0  0
   44.2370   35.7760   43.6520 H   0  0  0  0  0  0  0  0  0  0  0  0
   42.2890   33.9520   39.3010 O   0  0  0  0  0  0  0  0  0  0  0  0
   40.3510   34.4620   37.5580 O   0  0  0  0  0  0  0  0  0  0  0  0
   41.4500   35.1310   38.3890 P   0  0  0  0  0  0  0  0  0  0  0  0
   40.7370   36.2160   39.4810 O   0  0  0  0  0  0  0  0  0  0  0  0
   39.8390   35.8750   39.6970 H   0  0  0  0  0  0  0  0  0  0  0  0
   42.5370   35.9680   37.4030 O   0  0  0  0  0  0  0  0  0  0  0  0
   42.6570   36.9060   37.6710 H   0  0  0  0  0  0  0  0  0  0  0  0
   48.1630   31.5250   39.9240 S   0  0  0  0  0  0  0  0  0  0  0  0
   48.3840   31.8860   38.2130 C   0  0  0  0  0  0  0  0  0  0  0  0
   47.5600   32.7520   37.5230 C   0  0  0  0  0  0  0  0  0  0  0  0
   46.7460   33.2280   38.0600 H   0  0  0  0  0  0  0  0  0  0  0  0
   47.7750   32.9950   36.2010 C   0  0  0  0  0  3  0  0  0  0  0  0
   48.8250   32.3790   35.5200 C   0  0  0  0  0  3  0  0  0  0  0  0
   49.6460   31.5080   36.2330 C   0  0  0  0  0  0  0  0  0  0  0  0
   50.6940   30.8890   35.5640 C   0  0  0  0  0  3  0  0  0  0  0  0
   51.5340   30.0190   36.2220 C   0  0  0  0  0  3  0  0  0  0  0  0
   51.3360   29.7520   37.5780 C   0  0  0  0  0  3  0  0  0  0  0  0
   50.2800   30.3810   38.2350 C   0  0  0  0  0  3  0  0  0  0  0  0
   49.4360   31.2500   37.5890 C   0  0  0  0  0  0  0  0  0  0  0  0
  1  6  1  0  0  0  0
  2  3  1  0  0  0  0
  2  1  2  0  0  0  0
  3  4  2  0  0  0  0
  4  5  1  0  0  0  0
  5  8  1  0  0  0  0
  6  5  2  0  0  0  0
  7  3  1  0  0  0  0
  9  1  1  0  0  0  0
  9 12  1  0  0  0  0
 10  9  1  0  0  0  0
 11  9  1  0  0  0  0
 12 14  1  0  0  0  0
 13 12  1  0  0  0  0
 15 12  1  0  0  0  0
 15 16  2  0  0  0  0
 16 20  1  0  0  0  0
 17 16  1  0  0  0  0
 18 19  2  0  0  0  0
 18 17  1  0  0  0  0
 19 15  1  0  0  0  0
 21 18  1  0  0  0  0
 22 23  2  0  0  0  0
 23 21  1  0  0  0  0
 23 24  1  0  0  0  0
 24 25  1  0  0  0  0
 26 27  1  0  0  0  0
 26 23  1  0  0  0  0
 28  2  1  0  0  0  0
 29 28  1  0  0  0  0
 30 31  1  0  0  0  0
 30 29  2  0  0  0  0
 32 30  1  0  0  0  0
 33 32  2  0  0  0  0
 33 34  1  0  0  0  0
 34 39  1  0  0  0  0
 35 36  1  0  0  0  0
 35 34  2  0  0  0  0
 36 37  2  0  0  0  0
 37 38  1  0  0  0  0
 39 29  1  0  0  0  0
 39 38  2  0  0  0  0
M  END
>  <minimizedAffinity>
-5.13843584

>  <minimizedRMSD>
0.917639971

$$$$
