
 OpenBabel03252509003D

 47 50  0  0  1  0  0  0  0  0999 V2000
   47.0330   34.2030   43.5090 N   0  0  0  0  0  0  0  0  0  0  0  0
   46.6950   35.2060   42.5650 C   0  0  0  0  0  0  0  0  0  0  0  0
   45.2090   35.4140   42.3600 C   0  0  0  0  0  0  0  0  0  0  0  0
   44.3710   35.1830   43.5940 C   0  0  0  0  0  0  0  0  0  0  0  0
   45.2290   34.8970   44.8020 C   0  0  0  0  0  0  0  0  0  0  0  0
   46.0830   33.6560   44.3530 C   0  0  2  0  0  0  0  0  0  0  0  0
   47.0650   36.1780   42.9810 H   0  0  0  0  0  0  0  0  0  0  0  0
   47.1590   35.1120   41.5840 H   0  0  0  0  0  0  0  0  0  0  0  0
   44.8900   34.8050   41.4830 H   0  0  0  0  0  0  0  0  0  0  0  0
   45.0310   36.4690   42.0500 H   0  0  0  0  0  0  0  0  0  0  0  0
   43.6330   35.9990   43.7770 H   0  0  0  0  0  0  0  0  0  0  0  0
   43.7740   34.2620   43.4140 H   0  0  0  0  0  0  0  0  0  0  0  0
   45.9320   35.6890   45.0550 H   0  0  0  0  0  0  0  0  0  0  0  0
   44.5660   34.5520   45.6020 H   0  0  0  0  0  0  0  0  0  0  0  0
   45.3700   32.9130   43.9140 H   0  0  0  0  0  0  0  0  0  0  0  0
   48.1670   33.4100   43.1360 C   0  0  0  0  0  0  0  0  0  0  0  0
   48.6970   33.0220   44.0490 H   0  0  0  0  0  0  0  0  0  0  0  0
   48.8430   34.0440   42.5420 H   0  0  0  0  0  0  0  0  0  0  0  0
   47.6980   32.2260   42.3600 C   0  0  0  0  0  0  0  0  0  0  0  0
   47.8530   31.2510   42.8440 H   0  0  0  0  0  0  0  0  0  0  0  0
   46.6000   32.2920   42.1670 H   0  0  0  0  0  0  0  0  0  0  0  0
   50.1350   31.5910   39.5740 C   0  0  0  0  0  0  0  0  0  0  0  0
   49.5300   31.5830   40.8440 C   0  0  0  0  0  0  0  0  0  0  0  0
   48.3340   32.2360   41.0170 C   0  0  0  0  0  0  0  0  0  0  0  0
   47.7990   32.8530   39.9520 N   0  0  0  0  0  0  0  0  0  0  0  0
   48.3960   32.8480   38.7410 C   0  0  0  0  0  0  0  0  0  0  0  0
   49.5630   32.2200   38.5430 N   0  0  0  0  0  0  0  0  0  0  0  0
   51.0790   31.0380   39.5690 H   0  0  0  0  0  0  0  0  0  0  0  0
   49.9710   31.0790   41.7060 H   0  0  0  0  0  0  0  0  0  0  0  0
   47.9530   33.3530   37.8810 H   0  0  0  0  0  0  0  0  0  0  0  0
   46.6350   33.2470   45.5580 O   0  0  0  0  0  0  0  0  0  0  0  0
   45.4590   30.9760   44.8270 O   0  0  0  0  0  0  0  0  0  0  0  0
   46.2320   31.6630   45.9570 P   0  0  2  0  0  0  0  0  0  0  0  0
   45.1070   31.7710   47.2430 O   0  0  0  0  0  0  0  0  0  0  0  0
   45.5560   32.3290   47.9170 H   0  0  0  0  0  0  0  0  0  0  0  0
   47.5330   30.7910   46.4910 O   0  0  0  0  0  0  0  0  0  0  0  0
   47.6960   29.4390   46.5620 C   0  0  0  0  0  0  0  0  0  0  0  0
   47.1180   28.5580   47.4650 C   0  0  0  0  0  0  0  0  0  0  0  0
   46.4690   29.0410   48.1810 H   0  0  0  0  0  0  0  0  0  0  0  0
   47.4100   27.2050   47.3750 C   0  0  0  0  0  3  0  0  0  0  0  0
   48.2550   26.7350   46.4120 C   0  0  0  0  0  3  0  0  0  0  0  0
   48.8390   27.5750   45.5080 C   0  0  0  0  0  0  0  0  0  0  0  0
   49.6820   27.0530   44.5580 C   0  0  0  0  0  3  0  0  0  0  0  0
   50.2820   27.8810   43.6370 C   0  0  0  0  0  3  0  0  0  0  0  0
   50.0250   29.2360   43.6820 C   0  0  0  0  0  3  0  0  0  0  0  0
   49.1850   29.7210   44.6370 C   0  0  0  0  0  3  0  0  0  0  0  0
   48.5520   28.9350   45.5910 C   0  0  0  0  0  0  0  0  0  0  0  0
  1  6  1  0  0  0  0
  2  7  1  0  0  0  0
  2  1  1  0  0  0  0
  3  2  1  0  0  0  0
  3  4  1  0  0  0  0
  4 11  1  0  0  0  0
  4  5  1  0  0  0  0
  5 13  1  0  0  0  0
  5 14  1  0  0  0  0
  6 15  1  6  0  0  0
  6  5  1  0  0  0  0
  6 31  1  0  0  0  0
  8  2  1  0  0  0  0
  9  3  1  0  0  0  0
 10  3  1  0  0  0  0
 12  4  1  0  0  0  0
 16  1  1  0  0  0  0
 16 17  1  0  0  0  0
 18 16  1  0  0  0  0
 19 20  1  0  0  0  0
 19 16  1  0  0  0  0
 21 19  1  0  0  0  0
 22 23  1  0  0  0  0
 23 24  2  0  0  0  0
 23 29  1  0  0  0  0
 24 19  1  0  0  0  0
 25 24  1  0  0  0  0
 26 25  2  0  0  0  0
 27 26  1  0  0  0  0
 27 22  2  0  0  0  0
 28 22  1  0  0  0  0
 30 26  1  0  0  0  0
 31 33  1  0  0  0  0
 33 32  2  6  0  0  0
 33 36  1  0  0  0  0
 33 34  1  0  0  0  0
 34 35  1  0  0  0  0
 36 37  1  0  0  0  0
 37 38  1  0  0  0  0
 38 39  1  0  0  0  0
 40 38  2  0  0  0  0
 41 40  1  0  0  0  0
 42 47  1  0  0  0  0
 42 41  2  0  0  0  0
 43 42  1  0  0  0  0
 44 45  1  0  0  0  0
 44 43  2  0  0  0  0
 45 46  2  0  0  0  0
 46 47  1  0  0  0  0
 47 37  2  0  0  0  0
M  END
>  <minimizedAffinity>
-4.222157

>  <minimizedRMSD>
1.47800541

$$$$
