
 OpenBabel03252508003D

 31 34  0  0  1  0  0  0  0  0999 V2000
   46.1690   34.5430   43.4760 C   0  0  0  0  0  0  0  0  0  0  0  0
   45.2320   35.5330   43.9010 C   0  0  0  0  0  0  0  0  0  0  0  0
   44.6970   35.3550   45.1730 C   0  0  0  0  0  0  0  0  0  0  0  0
   45.0830   34.2870   45.9090 N   0  0  0  0  0  0  0  0  0  0  0  0
   45.9920   33.3720   45.4320 C   0  0  0  0  0  0  0  0  0  0  0  0
   46.5360   33.4830   44.2370 N   0  0  0  0  0  0  0  0  0  0  0  0
   44.9850   36.3520   43.2410 H   0  0  0  0  0  0  0  0  0  0  0  0
   43.9820   36.0800   45.5380 H   0  0  0  0  0  0  0  0  0  0  0  0
   46.3740   32.2310   46.3160 C   0  0  1  0  0  0  0  0  0  0  0  0
   47.0720   32.5190   47.6250 C   0  0  0  0  0  0  0  0  0  0  0  0
   45.6120   32.1570   47.5800 C   0  0  1  0  0  0  0  0  0  0  0  0
   46.6220   31.2840   45.8000 H   0  0  0  0  0  0  0  0  0  0  0  0
   47.3900   33.5620   47.7470 H   0  0  0  0  0  0  0  0  0  0  0  0
   47.7570   31.7170   47.9610 H   0  0  0  0  0  0  0  0  0  0  0  0
   45.3310   31.1790   48.0420 H   0  0  0  0  0  0  0  0  0  0  0  0
   44.7610   33.2540   47.9800 N   0  0  0  0  0  0  0  0  0  0  0  0
   43.7810   33.1910   47.7480 H   0  0  0  0  0  0  0  0  0  0  0  0
   45.2070   34.1430   48.1640 H   0  0  0  0  0  0  0  0  0  0  0  0
   46.7260   34.7490   42.1540 C   0  0  0  0  0  0  0  0  0  0  0  0
   47.5830   35.6650   41.8940 O   0  0  0  0  0  0  0  0  0  0  0  0
   46.1580   33.7710   41.2330 C   0  0  0  0  0  0  0  0  0  0  0  0
   46.8250   32.6110   40.8710 C   0  0  0  0  0  0  0  0  0  0  0  0
   47.8110   32.4240   41.2960 H   0  0  0  0  0  0  0  0  0  0  0  0
   46.3360   31.6590   40.0030 C   0  0  0  0  0  3  0  0  0  0  0  0
   45.1030   31.8490   39.4430 C   0  0  0  0  0  3  0  0  0  0  0  0
   44.3800   32.9820   39.7580 C   0  0  0  0  0  0  0  0  0  0  0  0
   43.1170   33.2030   39.2020 C   0  0  0  0  0  3  0  0  0  0  0  0
   42.3790   34.3180   39.4990 C   0  0  0  0  0  3  0  0  0  0  0  0
   42.9020   35.2630   40.3820 C   0  0  0  0  0  3  0  0  0  0  0  0
   44.1550   35.0060   40.9100 C   0  0  0  0  0  3  0  0  0  0  0  0
   44.9230   33.8970   40.6330 C   0  0  0  0  0  0  0  0  0  0  0  0
  1  2  2  0  0  0  0
  1  6  1  0  0  0  0
  2  3  1  0  0  0  0
  3  8  1  0  0  0  0
  3  4  2  0  0  0  0
  5  4  1  0  0  0  0
  5  9  1  0  0  0  0
  6  5  2  0  0  0  0
  7  2  1  0  0  0  0
  9 12  1  6  0  0  0
  9 11  1  0  0  0  0
  9 10  1  0  0  0  0
 10 13  1  0  0  0  0
 10 14  1  0  0  0  0
 11 10  1  0  0  0  0
 11 16  1  0  0  0  0
 11 15  1  1  0  0  0
 16 18  1  0  0  0  0
 17 16  1  0  0  0  0
 19  1  1  0  0  0  0
 20 19  2  0  0  0  0
 21 19  1  0  0  0  0
 22 21  1  0  0  0  0
 22 23  1  0  0  0  0
 24 22  2  0  0  0  0
 25 26  2  0  0  0  0
 25 24  1  0  0  0  0
 26 31  1  0  0  0  0
 27 28  2  0  0  0  0
 27 26  1  0  0  0  0
 28 29  1  0  0  0  0
 29 30  2  0  0  0  0
 31 30  1  0  0  0  0
 31 21  2  0  0  0  0
M  END
>  <minimizedAffinity>
-6.0379777

>  <minimizedRMSD>
1.02247

$$$$
