
 OpenBabel03252509273D

 32 35  0  0  1  0  0  0  0  0999 V2000
   47.1240   35.2510   41.7970 C   0  0  1  0  0  0  0  0  0  0  0  0
   48.6280   35.5140   41.8800 C   0  0  0  0  0  0  0  0  0  0  0  0
   47.9440   34.3800   41.0510 C   0  0  2  0  0  0  0  0  0  0  0  0
   46.5810   36.0980   41.3830 H   0  0  0  0  0  0  0  0  0  0  0  0
   49.0470   36.3360   41.2510 H   0  0  0  0  0  0  0  0  0  0  0  0
   49.1780   35.2540   42.7770 H   0  0  0  0  0  0  0  0  0  0  0  0
   48.2880   33.3800   41.4740 H   0  0  0  0  0  0  0  0  0  0  0  0
   44.9860   34.8190   44.8410 C   0  0  0  0  0  0  0  0  0  0  0  0
   45.4680   35.3660   43.6200 C   0  0  0  0  0  0  0  0  0  0  0  0
   46.5880   34.7640   43.1230 C   0  0  0  0  0  0  0  0  0  0  0  0
   47.1940   33.7110   43.7700 N   0  0  0  0  0  0  0  0  0  0  0  0
   46.7060   33.2260   44.9210 C   0  0  0  0  0  0  0  0  0  0  0  0
   45.5910   33.7870   45.4620 N   0  0  0  0  0  0  0  0  0  0  0  0
   44.1010   35.2270   45.3060 H   0  0  0  0  0  0  0  0  0  0  0  0
   47.1970   32.3980   45.4190 H   0  0  0  0  0  0  0  0  0  0  0  0
   44.8410   36.4580   42.9940 N   0  0  0  0  0  0  0  0  0  0  0  0
   45.5080   37.2660   43.0350 H   0  0  0  0  0  0  0  0  0  0  0  0
   43.8640   36.4440   42.5630 H   0  0  0  0  0  0  0  0  0  0  0  0
   48.0730   34.4430   39.5520 C   0  0  0  0  0  0  0  0  0  0  0  0
   49.1710   34.4960   39.3060 H   0  0  0  0  0  0  0  0  0  0  0  0
   47.5890   35.3930   39.2840 H   0  0  0  0  0  0  0  0  0  0  0  0
   47.5410   33.2490   38.8930 C   0  0  0  0  0  0  0  0  0  0  0  0
   46.1410   33.1720   38.8970 C   0  0  0  0  0  0  0  0  0  0  0  0
   45.4950   33.8590   39.4310 H   0  0  0  0  0  0  0  0  0  0  0  0
   45.4910   32.1730   38.1820 C   0  0  0  0  0  3  0  0  0  0  0  0
   46.1690   31.2200   37.4470 C   0  0  0  0  0  3  0  0  0  0  0  0
   47.5260   31.2840   37.4420 C   0  0  0  0  0  0  0  0  0  0  0  0
   48.2630   30.3200   36.7570 C   0  0  0  0  0  3  0  0  0  0  0  0
   49.6400   30.3930   36.8190 C   0  0  0  0  0  3  0  0  0  0  0  0
   50.2830   31.3870   37.5300 C   0  0  0  0  0  3  0  0  0  0  0  0
   49.5290   32.3300   38.1960 C   0  0  0  0  0  3  0  0  0  0  0  0
   48.1370   32.2620   38.1400 C   0  0  0  0  0  0  0  0  0  0  0  0
  1  4  1  6  0  0  0
  1  2  1  0  0  0  0
  1 10  1  0  0  0  0
  2  6  1  0  0  0  0
  3  7  1  1  0  0  0
  3  1  1  0  0  0  0
  3  2  1  0  0  0  0
  5  2  1  0  0  0  0
  8 14  1  0  0  0  0
  8 13  1  0  0  0  0
  9  8  2  0  0  0  0
 10  9  1  0  0  0  0
 10 11  2  0  0  0  0
 11 12  1  0  0  0  0
 12 15  1  0  0  0  0
 12 13  2  0  0  0  0
 16 17  1  0  0  0  0
 16  9  1  0  0  0  0
 18 16  1  0  0  0  0
 19  3  1  0  0  0  0
 20 19  1  0  0  0  0
 21 19  1  0  0  0  0
 22 23  1  0  0  0  0
 22 19  1  0  0  0  0
 23 24  1  0  0  0  0
 25 23  2  0  0  0  0
 26 25  1  0  0  0  0
 27 26  2  0  0  0  0
 27 32  1  0  0  0  0
 28 29  2  0  0  0  0
 28 27  1  0  0  0  0
 29 30  1  0  0  0  0
 30 31  2  0  0  0  0
 32 31  1  0  0  0  0
 32 22  2  0  0  0  0
M  END
>  <minimizedAffinity>
-5.02366161

>  <minimizedRMSD>
2.67847919

$$$$
