
 OpenBabel03242516173D

 45 49  0  0  1  0  0  0  0  0999 V2000
   36.7130   29.8710   36.8040 C   0  0  0  0  0  0  0  0  0  0  0  0
   36.4360   29.5920   38.1410 C   0  0  0  0  0  0  0  0  0  0  0  0
   37.1650   30.2830   39.1050 C   0  0  0  0  0  0  0  0  0  0  0  0
   38.1100   31.1940   38.7230 N   0  0  0  0  0  0  0  0  0  0  0  0
   38.3300   31.4180   37.4200 C   0  0  0  0  0  0  0  0  0  0  0  0
   37.6570   30.7810   36.4740 N   0  0  0  0  0  0  0  0  0  0  0  0
   39.2890   32.3540   36.9540 N   0  0  0  0  0  0  0  0  0  0  0  0
   36.1360   29.3240   36.0740 H   0  0  0  0  0  0  0  0  0  0  0  0
   38.8610   33.2140   36.5200 H   0  0  0  0  0  0  0  0  0  0  0  0
   40.1840   31.9010   37.1850 H   0  0  0  0  0  0  0  0  0  0  0  0
   35.4030   28.5800   38.5280 C   0  0  0  0  0  0  0  0  0  0  0  0
   34.3210   29.0830   39.4880 C   0  0  0  0  0  0  0  0  0  0  0  0
   34.0420   28.7200   38.0980 C   0  0  0  0  0  0  0  0  0  0  0  0
   33.9530   28.4200   40.2900 H   0  0  0  0  0  0  0  0  0  0  0  0
   34.4490   30.1280   39.8420 H   0  0  0  0  0  0  0  0  0  0  0  0
   33.5110   29.5480   37.6240 H   0  0  0  0  0  0  0  0  0  0  0  0
   33.4670   27.7560   37.9470 H   0  0  0  0  0  0  0  0  0  0  0  0
   35.9150   27.2300   38.9040 C   0  0  0  0  0  0  0  0  0  0  0  0
   37.4070   27.0280   38.7080 C   0  0  0  0  0  0  0  0  0  0  0  0
   37.7040   25.6380   39.2880 C   0  0  0  0  0  0  0  0  0  0  0  0
   37.2460   24.7260   38.3280 O   0  0  0  0  0  0  0  0  0  0  0  0
   35.8400   24.7890   38.4840 C   0  0  0  0  0  0  0  0  0  0  0  0
   35.3140   26.1270   38.0220 C   0  0  0  0  0  0  0  0  0  0  0  0
   35.6930   26.9460   39.9450 H   0  0  0  0  0  0  0  0  0  0  0  0
   37.6940   27.0870   37.6510 H   0  0  0  0  0  0  0  0  0  0  0  0
   37.9790   27.7360   39.3730 H   0  0  0  0  0  0  0  0  0  0  0  0
   38.7890   25.5250   39.4670 H   0  0  0  0  0  0  0  0  0  0  0  0
   37.1330   25.4630   40.2000 H   0  0  0  0  0  0  0  0  0  0  0  0
   35.5070   24.4860   39.4720 H   0  0  0  0  0  0  0  0  0  0  0  0
   35.4710   24.0500   37.7160 H   0  0  0  0  0  0  0  0  0  0  0  0
   35.5670   26.2530   36.9560 H   0  0  0  0  0  0  0  0  0  0  0  0
   34.2330   26.1300   38.2280 H   0  0  0  0  0  0  0  0  0  0  0  0
   37.0310   30.0420   40.5210 C   0  0  2  0  0  3  0  0  0  0  0  0
   36.3500   30.7340   41.3720 O   0  0  0  0  0  1  0  0  0  0  0  0
   37.4720   29.1290   41.5650 C   0  0  0  0  0  0  0  0  0  0  0  0
   36.5040   28.3280   42.1530 C   0  0  0  0  0  0  0  0  0  0  0  0
   35.4580   28.4640   41.8430 H   0  0  0  0  0  0  0  0  0  0  0  0
   36.6870   27.3490   43.1090 C   0  0  0  0  0  3  0  0  0  0  0  0
   37.9830   27.1810   43.4930 C   0  0  0  0  0  3  0  0  0  0  0  0
   39.0200   27.9210   42.9740 C   0  0  0  0  0  0  0  0  0  0  0  0
   40.3490   27.7840   43.3360 C   0  0  0  0  0  3  0  0  0  0  0  0
   41.3400   28.5670   42.7680 C   0  0  0  0  0  3  0  0  0  0  0  0
   41.0500   29.5230   41.8150 C   0  0  0  0  0  3  0  0  0  0  0  0
   39.7380   29.6730   41.4440 C   0  0  0  0  0  3  0  0  0  0  0  0
   38.7480   28.8970   42.0040 C   0  0  0  0  0  0  0  0  0  0  0  0
  1  2  1  0  0  0  0
  2 11  1  0  0  0  0
  2  3  2  0  0  0  0
  3 33  1  0  0  0  0
  4  3  1  0  0  0  0
  5  4  2  0  0  0  0
  6  1  2  0  0  0  0
  6  5  1  0  0  0  0
  7 10  1  0  0  0  0
  7  5  1  0  0  0  0
  8  1  1  0  0  0  0
  9  7  1  0  0  0  0
 11 18  1  0  0  0  0
 11 12  1  0  0  0  0
 12 15  1  0  0  0  0
 12 14  1  0  0  0  0
 13 11  1  0  0  0  0
 13 12  1  0  0  0  0
 16 13  1  0  0  0  0
 17 13  1  0  0  0  0
 18 24  1  0  0  0  0
 19 18  1  0  0  0  0
 19 20  1  0  0  0  0
 19 26  1  0  0  0  0
 20 27  1  0  0  0  0
 20 28  1  0  0  0  0
 21 22  1  0  0  0  0
 21 20  1  0  0  0  0
 22 29  1  0  0  0  0
 23 32  1  0  0  0  0
 23 22  1  0  0  0  0
 23 18  1  0  0  0  0
 25 19  1  0  0  0  0
 30 22  1  0  0  0  0
 31 23  1  0  0  0  0
 33 34  1  1  0  0  0
 33 35  1  0  0  0  0
 35 45  2  0  0  0  0
 35 36  1  0  0  0  0
 36 38  2  0  0  0  0
 37 36  1  0  0  0  0
 38 39  1  0  0  0  0
 40 41  1  0  0  0  0
 40 39  2  0  0  0  0
 42 41  2  0  0  0  0
 43 42  1  0  0  0  0
 44 43  2  0  0  0  0
 44 45  1  0  0  0  0
 45 40  1  0  0  0  0
M  END
>  <minimizedAffinity>
-6.66120052

$$$$

 OpenBabel03242516173D

 45 49  0  0  1  0  0  0  0  0999 V2000
   35.9890   29.4870   36.7400 C   0  0  0  0  0  0  0  0  0  0  0  0
   36.5270   29.5170   38.0250 C   0  0  0  0  0  0  0  0  0  0  0  0
   35.6760   29.2190   39.0850 C   0  0  0  0  0  0  0  0  0  0  0  0
   34.3660   28.9120   38.8430 N   0  0  0  0  0  0  0  0  0  0  0  0
   33.9080   28.8990   37.5840 C   0  0  0  0  0  0  0  0  0  0  0  0
   34.6870   29.1770   36.5490 N   0  0  0  0  0  0  0  0  0  0  0  0
   32.5630   28.5820   37.2600 N   0  0  0  0  0  0  0  0  0  0  0  0
   36.6670   29.7210   35.9340 H   0  0  0  0  0  0  0  0  0  0  0  0
   32.4550   27.6490   36.7810 H   0  0  0  0  0  0  0  0  0  0  0  0
   32.0440   29.4020   37.6040 H   0  0  0  0  0  0  0  0  0  0  0  0
   37.9640   29.8700   38.2600 C   0  0  0  0  0  0  0  0  0  0  0  0
   38.8790   28.6910   38.6030 C   0  0  0  0  0  0  0  0  0  0  0  0
   38.9830   29.4360   37.3490 C   0  0  0  0  0  0  0  0  0  0  0  0
   39.6720   28.8190   39.3610 H   0  0  0  0  0  0  0  0  0  0  0  0
   38.3710   27.7080   38.7010 H   0  0  0  0  0  0  0  0  0  0  0  0
   38.9630   28.7240   36.5210 H   0  0  0  0  0  0  0  0  0  0  0  0
   39.8840   30.1140   37.2530 H   0  0  0  0  0  0  0  0  0  0  0  0
   38.2160   31.0580   39.1270 C   0  0  0  0  0  0  0  0  0  0  0  0
   37.3530   32.2700   38.8250 C   0  0  0  0  0  0  0  0  0  0  0  0
   37.6950   33.2890   39.9210 C   0  0  0  0  0  0  0  0  0  0  0  0
   38.9370   33.8260   39.5570 O   0  0  0  0  0  0  0  0  0  0  0  0
   39.8350   32.7780   39.8730 C   0  0  0  0  0  0  0  0  0  0  0  0
   39.6350   31.6090   38.9390 C   0  0  0  0  0  0  0  0  0  0  0  0
   38.1060   30.8520   40.2040 H   0  0  0  0  0  0  0  0  0  0  0  0
   37.5510   32.6780   37.8270 H   0  0  0  0  0  0  0  0  0  0  0  0
   36.2680   32.0210   39.0050 H   0  0  0  0  0  0  0  0  0  0  0  0
   36.9160   34.0710   39.9700 H   0  0  0  0  0  0  0  0  0  0  0  0
   37.8250   32.7990   40.8860 H   0  0  0  0  0  0  0  0  0  0  0  0
   39.8370   32.5210   40.9280 H   0  0  0  0  0  0  0  0  0  0  0  0
   40.8360   33.2120   39.5870 H   0  0  0  0  0  0  0  0  0  0  0  0
   39.8240   31.9490   37.9070 H   0  0  0  0  0  0  0  0  0  0  0  0
   40.3170   30.8130   39.2770 H   0  0  0  0  0  0  0  0  0  0  0  0
   36.0820   29.2830   40.4680 C   0  0  2  0  0  3  0  0  0  0  0  0
   35.8270   30.2210   41.3170 O   0  0  0  0  0  1  0  0  0  0  0  0
   36.8320   28.5370   41.4670 C   0  0  0  0  0  0  0  0  0  0  0  0
   37.3240   29.2500   42.5500 C   0  0  0  0  0  0  0  0  0  0  0  0
   37.1710   30.3390   42.5690 H   0  0  0  0  0  0  0  0  0  0  0  0
   38.0020   28.7570   43.6460 C   0  0  0  0  0  3  0  0  0  0  0  0
   38.1920   27.4090   43.6240 C   0  0  0  0  0  3  0  0  0  0  0  0
   37.7460   26.6060   42.5990 C   0  0  0  0  0  0  0  0  0  0  0  0
   37.9180   25.2340   42.5350 C   0  0  0  0  0  3  0  0  0  0  0  0
   37.4400   24.4930   41.4680 C   0  0  0  0  0  3  0  0  0  0  0  0
   36.7700   25.0850   40.4160 C   0  0  0  0  0  3  0  0  0  0  0  0
   36.5910   26.4440   40.4620 C   0  0  0  0  0  3  0  0  0  0  0  0
   37.0630   27.1880   41.5200 C   0  0  0  0  0  0  0  0  0  0  0  0
  1  2  1  0  0  0  0
  2 11  1  0  0  0  0
  2  3  2  0  0  0  0
  3 33  1  0  0  0  0
  4  3  1  0  0  0  0
  5  4  2  0  0  0  0
  6  1  2  0  0  0  0
  6  5  1  0  0  0  0
  7  5  1  0  0  0  0
  7 10  1  0  0  0  0
  8  1  1  0  0  0  0
  9  7  1  0  0  0  0
 11 12  1  0  0  0  0
 11 18  1  0  0  0  0
 12 15  1  0  0  0  0
 12 14  1  0  0  0  0
 13 11  1  0  0  0  0
 13 12  1  0  0  0  0
 16 13  1  0  0  0  0
 17 13  1  0  0  0  0
 18 24  1  0  0  0  0
 19 26  1  0  0  0  0
 19 18  1  0  0  0  0
 19 20  1  0  0  0  0
 20 27  1  0  0  0  0
 20 28  1  0  0  0  0
 21 22  1  0  0  0  0
 21 20  1  0  0  0  0
 22 29  1  0  0  0  0
 23 18  1  0  0  0  0
 23 32  1  0  0  0  0
 23 22  1  0  0  0  0
 25 19  1  0  0  0  0
 30 22  1  0  0  0  0
 31 23  1  0  0  0  0
 33 34  1  6  0  0  0
 33 35  1  0  0  0  0
 35 45  2  0  0  0  0
 35 36  1  0  0  0  0
 36 37  1  0  0  0  0
 36 38  2  0  0  0  0
 39 38  1  0  0  0  0
 40 39  2  0  0  0  0
 41 40  1  0  0  0  0
 42 41  2  0  0  0  0
 43 44  2  0  0  0  0
 43 42  1  0  0  0  0
 44 45  1  0  0  0  0
 45 40  1  0  0  0  0
M  END
>  <minimizedAffinity>
-6.62859249

$$$$

 OpenBabel03242516173D

 45 49  0  0  1  0  0  0  0  0999 V2000
   37.4850   31.1010   37.5640 C   0  0  0  0  0  0  0  0  0  0  0  0
   37.2530   29.9200   38.2660 C   0  0  0  0  0  0  0  0  0  0  0  0
   36.9920   30.0240   39.6290 C   0  0  0  0  0  0  0  0  0  0  0  0
   36.9690   31.2530   40.2270 N   0  0  0  0  0  0  0  0  0  0  0  0
   37.1990   32.3530   39.4980 C   0  0  0  0  0  0  0  0  0  0  0  0
   37.4520   32.2940   38.1980 N   0  0  0  0  0  0  0  0  0  0  0  0
   37.1840   33.6590   40.0520 N   0  0  0  0  0  0  0  0  0  0  0  0
   37.6850   30.9960   36.5080 H   0  0  0  0  0  0  0  0  0  0  0  0
   36.3550   34.2350   39.7480 H   0  0  0  0  0  0  0  0  0  0  0  0
   38.0370   33.6750   40.6270 H   0  0  0  0  0  0  0  0  0  0  0  0
   37.2970   28.5870   37.5850 C   0  0  0  0  0  0  0  0  0  0  0  0
   38.5260   28.3420   36.7050 C   0  0  0  0  0  0  0  0  0  0  0  0
   38.2820   27.6110   37.9490 C   0  0  0  0  0  0  0  0  0  0  0  0
   38.4120   27.8050   35.7470 H   0  0  0  0  0  0  0  0  0  0  0  0
   39.2260   29.1990   36.6170 H   0  0  0  0  0  0  0  0  0  0  0  0
   39.1780   27.6780   38.5710 H   0  0  0  0  0  0  0  0  0  0  0  0
   37.9760   26.5270   37.8310 H   0  0  0  0  0  0  0  0  0  0  0  0
   36.0310   28.1400   36.9340 C   0  0  0  0  0  0  0  0  0  0  0  0
   34.8080   28.9770   37.2590 C   0  0  0  0  0  0  0  0  0  0  0  0
   33.6880   28.4130   36.3750 C   0  0  0  0  0  0  0  0  0  0  0  0
   33.2890   27.2190   36.9910 O   0  0  0  0  0  0  0  0  0  0  0  0
   34.3510   26.3360   36.6790 C   0  0  0  0  0  0  0  0  0  0  0  0
   35.6100   26.7420   37.4080 C   0  0  0  0  0  0  0  0  0  0  0  0
   36.0940   28.0860   35.8350 H   0  0  0  0  0  0  0  0  0  0  0  0
   34.5420   28.9210   38.3220 H   0  0  0  0  0  0  0  0  0  0  0  0
   34.9550   30.0310   36.8850 H   0  0  0  0  0  0  0  0  0  0  0  0
   32.8520   29.1330   36.3120 H   0  0  0  0  0  0  0  0  0  0  0  0
   34.0620   28.1550   35.3840 H   0  0  0  0  0  0  0  0  0  0  0  0
   34.4750   26.1790   35.6120 H   0  0  0  0  0  0  0  0  0  0  0  0
   34.0280   25.3740   37.1700 H   0  0  0  0  0  0  0  0  0  0  0  0
   35.4140   26.7050   38.4920 H   0  0  0  0  0  0  0  0  0  0  0  0
   36.4040   26.0560   37.0730 H   0  0  0  0  0  0  0  0  0  0  0  0
   36.8050   28.8800   40.4880 C   0  0  2  0  0  3  0  0  0  0  0  0
   35.7010   28.2600   40.7370 O   0  0  0  0  0  1  0  0  0  0  0  0
   37.5450   27.9860   41.3650 C   0  0  0  0  0  0  0  0  0  0  0  0
   38.3230   28.5710   42.3530 C   0  0  0  0  0  0  0  0  0  0  0  0
   38.3830   29.6680   42.3860 H   0  0  0  0  0  0  0  0  0  0  0  0
   39.0560   27.9360   43.3350 C   0  0  0  0  0  3  0  0  0  0  0  0
   38.9820   26.5770   43.2950 C   0  0  0  0  0  3  0  0  0  0  0  0
   38.2400   25.8940   42.3580 C   0  0  0  0  0  0  0  0  0  0  0  0
   38.1380   24.5160   42.2800 C   0  0  0  0  0  3  0  0  0  0  0  0
   37.3700   23.9000   41.3070 C   0  0  0  0  0  3  0  0  0  0  0  0
   36.6710   24.6300   40.3660 C   0  0  0  0  0  3  0  0  0  0  0  0
   36.7610   25.9980   40.4280 C   0  0  0  0  0  3  0  0  0  0  0  0
   37.5220   26.6170   41.3930 C   0  0  0  0  0  0  0  0  0  0  0  0
  1  6  2  0  0  0  0
  1  2  1  0  0  0  0
  2  3  2  0  0  0  0
  3  4  1  0  0  0  0
  3 33  1  0  0  0  0
  5  7  1  0  0  0  0
  5  4  2  0  0  0  0
  6  5  1  0  0  0  0
  7 10  1  0  0  0  0
  8  1  1  0  0  0  0
  9  7  1  0  0  0  0
 11 13  1  0  0  0  0
 11  2  1  0  0  0  0
 12 11  1  0  0  0  0
 12 13  1  0  0  0  0
 13 16  1  0  0  0  0
 14 12  1  0  0  0  0
 15 12  1  0  0  0  0
 17 13  1  0  0  0  0
 18 19  1  0  0  0  0
 18 23  1  0  0  0  0
 18 11  1  0  0  0  0
 19 25  1  0  0  0  0
 20 21  1  0  0  0  0
 20 19  1  0  0  0  0
 22 21  1  0  0  0  0
 22 30  1  0  0  0  0
 22 23  1  0  0  0  0
 23 31  1  0  0  0  0
 24 18  1  0  0  0  0
 26 19  1  0  0  0  0
 27 20  1  0  0  0  0
 28 20  1  0  0  0  0
 29 22  1  0  0  0  0
 32 23  1  0  0  0  0
 33 34  1  1  0  0  0
 33 35  1  0  0  0  0
 35 45  2  0  0  0  0
 35 36  1  0  0  0  0
 36 37  1  0  0  0  0
 36 38  2  0  0  0  0
 39 38  1  0  0  0  0
 40 39  2  0  0  0  0
 41 40  1  0  0  0  0
 42 41  2  0  0  0  0
 43 44  2  0  0  0  0
 43 42  1  0  0  0  0
 44 45  1  0  0  0  0
 45 40  1  0  0  0  0
M  END
>  <minimizedAffinity>
-6.5532198

$$$$

 OpenBabel03242516173D

 45 49  0  0  1  0  0  0  0  0999 V2000
   37.3150   30.8370   36.9020 C   0  0  0  0  0  0  0  0  0  0  0  0
   37.1270   30.4830   38.2360 C   0  0  0  0  0  0  0  0  0  0  0  0
   36.3720   29.3440   38.4970 C   0  0  0  0  0  0  0  0  0  0  0  0
   35.8470   28.6200   37.4630 N   0  0  0  0  0  0  0  0  0  0  0  0
   36.0630   29.0130   36.2000 C   0  0  0  0  0  0  0  0  0  0  0  0
   36.7760   30.0910   35.9110 N   0  0  0  0  0  0  0  0  0  0  0  0
   35.5550   28.3070   35.0790 N   0  0  0  0  0  0  0  0  0  0  0  0
   37.9040   31.7230   36.7230 H   0  0  0  0  0  0  0  0  0  0  0  0
   36.2990   27.8060   34.5250 H   0  0  0  0  0  0  0  0  0  0  0  0
   34.5440   28.4940   35.1280 H   0  0  0  0  0  0  0  0  0  0  0  0
   37.7050   31.3020   39.3490 C   0  0  0  0  0  0  0  0  0  0  0  0
   37.4000   32.8010   39.2840 C   0  0  0  0  0  0  0  0  0  0  0  0
   36.8510   31.9250   40.3190 C   0  0  0  0  0  0  0  0  0  0  0  0
   38.1800   33.5280   39.5680 H   0  0  0  0  0  0  0  0  0  0  0  0
   36.8350   33.1320   38.3870 H   0  0  0  0  0  0  0  0  0  0  0  0
   35.7680   32.0640   40.3510 H   0  0  0  0  0  0  0  0  0  0  0  0
   37.2880   32.0530   41.3550 H   0  0  0  0  0  0  0  0  0  0  0  0
   39.1280   31.0240   39.7000 C   0  0  0  0  0  0  0  0  0  0  0  0
   39.6160   29.6280   39.3560 C   0  0  0  0  0  0  0  0  0  0  0  0
   41.1170   29.6370   39.6760 C   0  0  0  0  0  0  0  0  0  0  0  0
   41.2030   29.5460   41.0720 O   0  0  0  0  0  0  0  0  0  0  0  0
   40.8280   30.8450   41.4930 C   0  0  0  0  0  0  0  0  0  0  0  0
   39.3650   31.0920   41.2140 C   0  0  0  0  0  0  0  0  0  0  0  0
   39.8420   31.7290   39.2440 H   0  0  0  0  0  0  0  0  0  0  0  0
   39.0910   28.8560   39.9320 H   0  0  0  0  0  0  0  0  0  0  0  0
   39.5700   29.4710   38.2400 H   0  0  0  0  0  0  0  0  0  0  0  0
   41.6160   28.7830   39.1850 H   0  0  0  0  0  0  0  0  0  0  0  0
   41.5750   30.5830   39.3850 H   0  0  0  0  0  0  0  0  0  0  0  0
   41.4970   31.6200   41.1300 H   0  0  0  0  0  0  0  0  0  0  0  0
   40.9030   30.7750   42.6160 H   0  0  0  0  0  0  0  0  0  0  0  0
   38.7720   30.3460   41.7690 H   0  0  0  0  0  0  0  0  0  0  0  0
   39.1590   32.1340   41.5070 H   0  0  0  0  0  0  0  0  0  0  0  0
   36.0400   28.9030   39.8310 C   0  0  2  0  0  3  0  0  0  0  0  0
   34.9500   29.1330   40.4830 O   0  0  0  0  0  1  0  0  0  0  0  0
   36.5890   28.1480   40.9470 C   0  0  0  0  0  0  0  0  0  0  0  0
   36.8390   28.8470   42.1190 C   0  0  0  0  0  0  0  0  0  0  0  0
   36.6640   29.9330   42.1250 H   0  0  0  0  0  0  0  0  0  0  0  0
   37.2940   28.3430   43.3210 C   0  0  0  0  0  3  0  0  0  0  0  0
   37.5110   26.9980   43.3140 C   0  0  0  0  0  3  0  0  0  0  0  0
   37.2950   26.2100   42.2070 C   0  0  0  0  0  0  0  0  0  0  0  0
   37.5030   24.8420   42.1560 C   0  0  0  0  0  3  0  0  0  0  0  0
   37.2640   24.1160   41.0020 C   0  0  0  0  0  3  0  0  0  0  0  0
   36.8070   24.7190   39.8470 C   0  0  0  0  0  3  0  0  0  0  0  0
   36.5950   26.0740   39.8790 C   0  0  0  0  0  3  0  0  0  0  0  0
   36.8310   26.8030   41.0230 C   0  0  0  0  0  0  0  0  0  0  0  0
  1  2  1  0  0  0  0
  2  3  2  0  0  0  0
  2 11  1  0  0  0  0
  3 33  1  0  0  0  0
  4  3  1  0  0  0  0
  5  4  2  0  0  0  0
  6  5  1  0  0  0  0
  6  1  2  0  0  0  0
  7 10  1  0  0  0  0
  7  5  1  0  0  0  0
  8  1  1  0  0  0  0
  9  7  1  0  0  0  0
 11 18  1  0  0  0  0
 11 13  1  0  0  0  0
 12 11  1  0  0  0  0
 12 14  1  0  0  0  0
 12 13  1  0  0  0  0
 13 16  1  0  0  0  0
 13 17  1  0  0  0  0
 15 12  1  0  0  0  0
 18 23  1  0  0  0  0
 19 20  1  0  0  0  0
 19 18  1  0  0  0  0
 19 25  1  0  0  0  0
 20 21  1  0  0  0  0
 21 22  1  0  0  0  0
 22 30  1  0  0  0  0
 23 22  1  0  0  0  0
 23 32  1  0  0  0  0
 23 31  1  0  0  0  0
 24 18  1  0  0  0  0
 26 19  1  0  0  0  0
 27 20  1  0  0  0  0
 28 20  1  0  0  0  0
 29 22  1  0  0  0  0
 33 34  1  1  0  0  0
 33 35  1  0  0  0  0
 35 45  2  0  0  0  0
 35 36  1  0  0  0  0
 36 37  1  0  0  0  0
 36 38  2  0  0  0  0
 39 38  1  0  0  0  0
 40 39  2  0  0  0  0
 41 40  1  0  0  0  0
 42 41  2  0  0  0  0
 43 44  2  0  0  0  0
 43 42  1  0  0  0  0
 44 45  1  0  0  0  0
 45 40  1  0  0  0  0
M  END
>  <minimizedAffinity>
-6.43987989

$$$$

 OpenBabel03242516173D

 45 49  0  0  1  0  0  0  0  0999 V2000
   37.3790   31.0930   37.0130 C   0  0  0  0  0  0  0  0  0  0  0  0
   37.9190   30.7660   38.2550 C   0  0  0  0  0  0  0  0  0  0  0  0
   38.2190   29.4280   38.4920 C   0  0  0  0  0  0  0  0  0  0  0  0
   37.9830   28.4930   37.5230 N   0  0  0  0  0  0  0  0  0  0  0  0
   37.4620   28.8710   36.3480 C   0  0  0  0  0  0  0  0  0  0  0  0
   37.1630   30.1340   36.0850 N   0  0  0  0  0  0  0  0  0  0  0  0
   37.1980   27.9560   35.2960 N   0  0  0  0  0  0  0  0  0  0  0  0
   37.1550   32.1360   36.8510 H   0  0  0  0  0  0  0  0  0  0  0  0
   37.8520   28.0590   34.4750 H   0  0  0  0  0  0  0  0  0  0  0  0
   36.3970   27.4190   35.6530 H   0  0  0  0  0  0  0  0  0  0  0  0
   38.1550   31.8100   39.3020 C   0  0  0  0  0  0  0  0  0  0  0  0
   37.0500   32.8620   39.4380 C   0  0  0  0  0  0  0  0  0  0  0  0
   37.3330   31.8700   40.4760 C   0  0  0  0  0  0  0  0  0  0  0  0
   37.3210   33.9150   39.6280 H   0  0  0  0  0  0  0  0  0  0  0  0
   36.2190   32.7750   38.7070 H   0  0  0  0  0  0  0  0  0  0  0  0
   36.3990   31.3660   40.7360 H   0  0  0  0  0  0  0  0  0  0  0  0
   37.8310   32.2650   41.4120 H   0  0  0  0  0  0  0  0  0  0  0  0
   39.5200   32.4100   39.3360 C   0  0  0  0  0  0  0  0  0  0  0  0
   40.5060   31.8270   38.3390 C   0  0  0  0  0  0  0  0  0  0  0  0
   41.7680   32.6900   38.4700 C   0  0  0  0  0  0  0  0  0  0  0  0
   42.3930   32.2630   39.6500 O   0  0  0  0  0  0  0  0  0  0  0  0
   41.5740   32.8270   40.6580 C   0  0  0  0  0  0  0  0  0  0  0  0
   40.2200   32.1580   40.6780 C   0  0  0  0  0  0  0  0  0  0  0  0
   39.5280   33.5020   39.1850 H   0  0  0  0  0  0  0  0  0  0  0  0
   40.7230   30.7720   38.5450 H   0  0  0  0  0  0  0  0  0  0  0  0
   40.1450   32.0180   37.2880 H   0  0  0  0  0  0  0  0  0  0  0  0
   42.4220   32.5440   37.5920 H   0  0  0  0  0  0  0  0  0  0  0  0
   41.5130   33.7420   38.6020 H   0  0  0  0  0  0  0  0  0  0  0  0
   41.5440   33.9120   40.6260 H   0  0  0  0  0  0  0  0  0  0  0  0
   42.0800   32.4890   41.6080 H   0  0  0  0  0  0  0  0  0  0  0  0
   40.3630   31.0840   40.8850 H   0  0  0  0  0  0  0  0  0  0  0  0
   39.6200   32.6820   41.4370 H   0  0  0  0  0  0  0  0  0  0  0  0
   38.7150   28.9400   39.7570 C   0  0  2  0  0  3  0  0  0  0  0  0
   39.9400   28.9180   40.1620 O   0  0  0  0  0  1  0  0  0  0  0  0
   38.2580   28.3320   40.9970 C   0  0  0  0  0  0  0  0  0  0  0  0
   38.2410   29.1370   42.1260 C   0  0  0  0  0  0  0  0  0  0  0  0
   38.6220   30.1650   42.0380 H   0  0  0  0  0  0  0  0  0  0  0  0
   37.7930   28.8080   43.3900 C   0  0  0  0  0  3  0  0  0  0  0  0
   37.3220   27.5350   43.5000 C   0  0  0  0  0  3  0  0  0  0  0  0
   37.2930   26.6530   42.4440 C   0  0  0  0  0  0  0  0  0  0  0  0
   36.8230   25.3530   42.5120 C   0  0  0  0  0  3  0  0  0  0  0  0
   36.8260   24.5230   41.4040 C   0  0  0  0  0  3  0  0  0  0  0  0
   37.2980   24.9510   40.1790 C   0  0  0  0  0  3  0  0  0  0  0  0
   37.7670   26.2370   40.0930 C   0  0  0  0  0  3  0  0  0  0  0  0
   37.7670   27.0680   41.1900 C   0  0  0  0  0  0  0  0  0  0  0  0
  1  2  1  0  0  0  0
  2  3  2  0  0  0  0
  2 11  1  0  0  0  0
  3 33  1  0  0  0  0
  4  3  1  0  0  0  0
  5  4  2  0  0  0  0
  6  5  1  0  0  0  0
  6  1  2  0  0  0  0
  7 10  1  0  0  0  0
  7  5  1  0  0  0  0
  8  1  1  0  0  0  0
  9  7  1  0  0  0  0
 11 18  1  0  0  0  0
 11 12  1  0  0  0  0
 11 13  1  0  0  0  0
 12 14  1  0  0  0  0
 12 13  1  0  0  0  0
 13 16  1  0  0  0  0
 13 17  1  0  0  0  0
 15 12  1  0  0  0  0
 18 23  1  0  0  0  0
 19 20  1  0  0  0  0
 19 25  1  0  0  0  0
 19 18  1  0  0  0  0
 20 28  1  0  0  0  0
 20 21  1  0  0  0  0
 21 22  1  0  0  0  0
 22 23  1  0  0  0  0
 22 30  1  0  0  0  0
 23 31  1  0  0  0  0
 23 32  1  0  0  0  0
 24 18  1  0  0  0  0
 26 19  1  0  0  0  0
 27 20  1  0  0  0  0
 29 22  1  0  0  0  0
 33 34  1  6  0  0  0
 33 35  1  0  0  0  0
 35 45  2  0  0  0  0
 35 36  1  0  0  0  0
 36 38  2  0  0  0  0
 37 36  1  0  0  0  0
 38 39  1  0  0  0  0
 40 41  1  0  0  0  0
 40 39  2  0  0  0  0
 42 41  2  0  0  0  0
 43 42  1  0  0  0  0
 44 43  2  0  0  0  0
 44 45  1  0  0  0  0
 45 40  1  0  0  0  0
M  END
>  <minimizedAffinity>
-6.38019037

$$$$

 OpenBabel03242516173D

 45 49  0  0  1  0  0  0  0  0999 V2000
   39.8370   31.5070   37.8010 C   0  0  0  0  0  0  0  0  0  0  0  0
   39.3020   31.1100   39.0250 C   0  0  0  0  0  0  0  0  0  0  0  0
   40.1530   30.4610   39.9160 C   0  0  0  0  0  0  0  0  0  0  0  0
   41.4570   30.2370   39.5750 N   0  0  0  0  0  0  0  0  0  0  0  0
   41.9110   30.6440   38.3820 C   0  0  0  0  0  0  0  0  0  0  0  0
   41.1330   31.2640   37.5070 N   0  0  0  0  0  0  0  0  0  0  0  0
   43.2540   30.4510   37.9650 N   0  0  0  0  0  0  0  0  0  0  0  0
   39.1590   32.0090   37.1260 H   0  0  0  0  0  0  0  0  0  0  0  0
   43.8150   31.3430   37.9260 H   0  0  0  0  0  0  0  0  0  0  0  0
   43.3030   29.4350   37.8100 H   0  0  0  0  0  0  0  0  0  0  0  0
   37.8660   31.3580   39.3660 C   0  0  0  0  0  0  0  0  0  0  0  0
   37.6280   32.2690   40.5750 C   0  0  0  0  0  0  0  0  0  0  0  0
   37.2900   32.6620   39.2070 C   0  0  0  0  0  0  0  0  0  0  0  0
   36.8070   32.0400   41.2760 H   0  0  0  0  0  0  0  0  0  0  0  0
   38.5450   32.6010   41.1070 H   0  0  0  0  0  0  0  0  0  0  0  0
   37.7410   33.6360   39.0050 H   0  0  0  0  0  0  0  0  0  0  0  0
   36.1850   32.6900   38.9620 H   0  0  0  0  0  0  0  0  0  0  0  0
   36.9750   30.1620   39.3710 C   0  0  0  0  0  0  0  0  0  0  0  0
   36.3220   29.8400   38.0380 C   0  0  0  0  0  0  0  0  0  0  0  0
   35.5840   28.5130   38.2630 C   0  0  0  0  0  0  0  0  0  0  0  0
   34.4280   28.8440   38.9820 O   0  0  0  0  0  0  0  0  0  0  0  0
   34.9310   29.0970   40.2820 C   0  0  0  0  0  0  0  0  0  0  0  0
   35.7630   30.3570   40.2920 C   0  0  0  0  0  0  0  0  0  0  0  0
   37.4730   29.2390   39.7090 H   0  0  0  0  0  0  0  0  0  0  0  0
   35.6310   30.6290   37.7170 H   0  0  0  0  0  0  0  0  0  0  0  0
   37.1140   29.5930   37.2740 H   0  0  0  0  0  0  0  0  0  0  0  0
   35.3360   28.0470   37.2920 H   0  0  0  0  0  0  0  0  0  0  0  0
   36.1710   27.8380   38.8860 H   0  0  0  0  0  0  0  0  0  0  0  0
   35.4110   28.2320   40.7290 H   0  0  0  0  0  0  0  0  0  0  0  0
   34.0010   29.3570   40.8630 H   0  0  0  0  0  0  0  0  0  0  0  0
   35.1250   31.2010   39.9800 H   0  0  0  0  0  0  0  0  0  0  0  0
   36.1700   30.4580   41.3100 H   0  0  0  0  0  0  0  0  0  0  0  0
   39.7150   29.9340   41.1860 C   0  0  2  0  0  3  0  0  0  0  0  0
   40.1020   30.3010   42.3620 O   0  0  0  0  0  1  0  0  0  0  0  0
   38.8230   28.9340   41.7550 C   0  0  0  0  0  0  0  0  0  0  0  0
   38.2420   29.2300   42.9780 C   0  0  0  0  0  0  0  0  0  0  0  0
   38.5250   30.1700   43.4760 H   0  0  0  0  0  0  0  0  0  0  0  0
   37.3220   28.4760   43.6790 C   0  0  0  0  0  3  0  0  0  0  0  0
   36.9710   27.3130   43.0640 C   0  0  0  0  0  3  0  0  0  0  0  0
   37.4870   26.9230   41.8490 C   0  0  0  0  0  0  0  0  0  0  0  0
   37.1590   25.7500   41.1900 C   0  0  0  0  0  3  0  0  0  0  0  0
   37.7220   25.4250   39.9680 C   0  0  0  0  0  3  0  0  0  0  0  0
   38.6370   26.2530   39.3480 C   0  0  0  0  0  3  0  0  0  0  0  0
   38.9740   27.4190   39.9870 C   0  0  0  0  0  3  0  0  0  0  0  0
   38.4180   27.7490   41.2020 C   0  0  0  0  0  0  0  0  0  0  0  0
  1  2  1  0  0  0  0
  2 11  1  0  0  0  0
  2  3  2  0  0  0  0
  3 33  1  0  0  0  0
  4  3  1  0  0  0  0
  5  4  2  0  0  0  0
  6  1  2  0  0  0  0
  6  5  1  0  0  0  0
  7  5  1  0  0  0  0
  8  1  1  0  0  0  0
  9  7  1  0  0  0  0
 10  7  1  0  0  0  0
 11 18  1  0  0  0  0
 11 12  1  0  0  0  0
 12 15  1  0  0  0  0
 12 14  1  0  0  0  0
 13 11  1  0  0  0  0
 13 12  1  0  0  0  0
 16 13  1  0  0  0  0
 17 13  1  0  0  0  0
 18 24  1  0  0  0  0
 18 23  1  0  0  0  0
 19 20  1  0  0  0  0
 19 18  1  0  0  0  0
 20 28  1  0  0  0  0
 20 21  1  0  0  0  0
 21 22  1  0  0  0  0
 22 23  1  0  0  0  0
 22 29  1  0  0  0  0
 22 30  1  0  0  0  0
 23 32  1  0  0  0  0
 25 19  1  0  0  0  0
 26 19  1  0  0  0  0
 27 20  1  0  0  0  0
 31 23  1  0  0  0  0
 33 35  1  0  0  0  0
 33 34  1  6  0  0  0
 35 36  1  0  0  0  0
 36 37  1  0  0  0  0
 36 38  2  0  0  0  0
 39 38  1  0  0  0  0
 40 39  2  0  0  0  0
 41 40  1  0  0  0  0
 42 41  2  0  0  0  0
 43 42  1  0  0  0  0
 43 44  2  0  0  0  0
 44 45  1  0  0  0  0
 45 35  2  0  0  0  0
 45 40  1  0  0  0  0
M  END
>  <minimizedAffinity>
-6.28080845

$$$$

 OpenBabel03242516173D

 45 49  0  0  1  0  0  0  0  0999 V2000
   39.8130   30.7890   41.1250 C   0  0  0  0  0  0  0  0  0  0  0  0
   39.2970   29.5360   41.4480 C   0  0  0  0  0  0  0  0  0  0  0  0
   37.9140   29.3820   41.4080 C   0  0  0  0  0  0  0  0  0  0  0  0
   37.1190   30.4370   41.0590 N   0  0  0  0  0  0  0  0  0  0  0  0
   37.6760   31.6180   40.7580 C   0  0  0  0  0  0  0  0  0  0  0  0
   38.9870   31.8050   40.7860 N   0  0  0  0  0  0  0  0  0  0  0  0
   36.9120   32.7530   40.3820 N   0  0  0  0  0  0  0  0  0  0  0  0
   40.8870   30.8860   41.1620 H   0  0  0  0  0  0  0  0  0  0  0  0
   37.0120   33.0090   39.3640 H   0  0  0  0  0  0  0  0  0  0  0  0
   36.4490   33.0210   41.2610 H   0  0  0  0  0  0  0  0  0  0  0  0
   40.1930   28.4010   41.8380 C   0  0  0  0  0  0  0  0  0  0  0  0
   41.2540   28.7370   42.8890 C   0  0  0  0  0  0  0  0  0  0  0  0
   40.1310   27.8390   43.1560 C   0  0  0  0  0  0  0  0  0  0  0  0
   42.2660   28.3040   42.8000 H   0  0  0  0  0  0  0  0  0  0  0  0
   41.2880   29.8010   43.2080 H   0  0  0  0  0  0  0  0  0  0  0  0
   39.6290   28.1740   44.0670 H   0  0  0  0  0  0  0  0  0  0  0  0
   40.3880   26.7400   43.2400 H   0  0  0  0  0  0  0  0  0  0  0  0
   40.7380   27.5800   40.7190 C   0  0  0  0  0  0  0  0  0  0  0  0
   40.0970   27.8280   39.3650 C   0  0  0  0  0  0  0  0  0  0  0  0
   40.9120   26.9850   38.3750 C   0  0  0  0  0  0  0  0  0  0  0  0
   40.4830   25.6650   38.5650 O   0  0  0  0  0  0  0  0  0  0  0  0
   41.0980   25.3110   39.7910 C   0  0  0  0  0  0  0  0  0  0  0  0
   40.4840   26.0820   40.9350 C   0  0  0  0  0  0  0  0  0  0  0  0
   41.8260   27.6900   40.5780 H   0  0  0  0  0  0  0  0  0  0  0  0
   39.0390   27.5420   39.3530 H   0  0  0  0  0  0  0  0  0  0  0  0
   40.2830   28.8930   39.0440 H   0  0  0  0  0  0  0  0  0  0  0  0
   40.7230   27.3250   37.3400 H   0  0  0  0  0  0  0  0  0  0  0  0
   41.9750   27.0170   38.6130 H   0  0  0  0  0  0  0  0  0  0  0  0
   42.1830   25.3460   39.7500 H   0  0  0  0  0  0  0  0  0  0  0  0
   40.7590   24.2460   39.9420 H   0  0  0  0  0  0  0  0  0  0  0  0
   39.4090   25.8380   40.9850 H   0  0  0  0  0  0  0  0  0  0  0  0
   41.0460   25.8060   41.8400 H   0  0  0  0  0  0  0  0  0  0  0  0
   37.2430   28.1620   41.7870 C   0  0  2  0  0  3  0  0  0  0  0  0
   36.5130   27.9620   42.8330 O   0  0  0  0  0  1  0  0  0  0  0  0
   37.0480   26.7890   41.3470 C   0  0  0  0  0  0  0  0  0  0  0  0
   37.1930   25.7930   42.3020 C   0  0  0  0  0  0  0  0  0  0  0  0
   37.5010   26.0860   43.3160 H   0  0  0  0  0  0  0  0  0  0  0  0
   36.9960   24.4360   42.1410 C   0  0  0  0  0  3  0  0  0  0  0  0
   36.6160   24.0730   40.8850 C   0  0  0  0  0  3  0  0  0  0  0  0
   36.4420   24.9790   39.8640 C   0  0  0  0  0  0  0  0  0  0  0  0
   36.0580   24.6540   38.5740 C   0  0  0  0  0  3  0  0  0  0  0  0
   35.9030   25.6230   37.5980 C   0  0  0  0  0  3  0  0  0  0  0  0
   36.1260   26.9600   37.8630 C   0  0  0  0  0  3  0  0  0  0  0  0
   36.5080   27.3010   39.1350 C   0  0  0  0  0  3  0  0  0  0  0  0
   36.6620   26.3420   40.1110 C   0  0  0  0  0  0  0  0  0  0  0  0
  1  8  1  0  0  0  0
  1  2  1  0  0  0  0
  2 11  1  0  0  0  0
  3  2  2  0  0  0  0
  3 33  1  0  0  0  0
  4  3  1  0  0  0  0
  5  6  1  0  0  0  0
  5  4  2  0  0  0  0
  6  1  2  0  0  0  0
  7  5  1  0  0  0  0
  7 10  1  0  0  0  0
  9  7  1  0  0  0  0
 11 12  1  0  0  0  0
 11 13  1  0  0  0  0
 12 13  1  0  0  0  0
 12 15  1  0  0  0  0
 13 17  1  0  0  0  0
 13 16  1  0  0  0  0
 14 12  1  0  0  0  0
 18 23  1  0  0  0  0
 18 11  1  0  0  0  0
 19 18  1  0  0  0  0
 20 21  1  0  0  0  0
 20 28  1  0  0  0  0
 20 19  1  0  0  0  0
 21 22  1  0  0  0  0
 22 30  1  0  0  0  0
 22 23  1  0  0  0  0
 23 31  1  0  0  0  0
 23 32  1  0  0  0  0
 24 18  1  0  0  0  0
 25 19  1  0  0  0  0
 26 19  1  0  0  0  0
 27 20  1  0  0  0  0
 29 22  1  0  0  0  0
 33 34  1  1  0  0  0
 35 33  1  0  0  0  0
 35 36  1  0  0  0  0
 36 37  1  0  0  0  0
 38 36  2  0  0  0  0
 39 38  1  0  0  0  0
 40 45  1  0  0  0  0
 40 39  2  0  0  0  0
 41 40  1  0  0  0  0
 42 43  1  0  0  0  0
 42 41  2  0  0  0  0
 43 44  2  0  0  0  0
 44 45  1  0  0  0  0
 45 35  2  0  0  0  0
M  END
>  <minimizedAffinity>
-6.25292635

$$$$

 OpenBabel03242516173D

 45 49  0  0  1  0  0  0  0  0999 V2000
   37.7230   31.0620   37.6580 C   0  0  0  0  0  0  0  0  0  0  0  0
   37.4540   29.9300   38.4250 C   0  0  0  0  0  0  0  0  0  0  0  0
   37.0320   30.1290   39.7360 C   0  0  0  0  0  0  0  0  0  0  0  0
   36.8940   31.3990   40.2240 N   0  0  0  0  0  0  0  0  0  0  0  0
   37.1680   32.4470   39.4350 C   0  0  0  0  0  0  0  0  0  0  0  0
   37.5720   32.2980   38.1830 N   0  0  0  0  0  0  0  0  0  0  0  0
   37.0400   33.7910   39.8730 N   0  0  0  0  0  0  0  0  0  0  0  0
   38.0480   30.8830   36.6450 H   0  0  0  0  0  0  0  0  0  0  0  0
   36.2310   34.3020   39.4310 H   0  0  0  0  0  0  0  0  0  0  0  0
   37.8190   33.8910   40.5380 H   0  0  0  0  0  0  0  0  0  0  0  0
   37.6260   28.5510   37.8680 C   0  0  0  0  0  0  0  0  0  0  0  0
   38.8970   28.3320   37.0430 C   0  0  0  0  0  0  0  0  0  0  0  0
   38.6750   27.6950   38.3410 C   0  0  0  0  0  0  0  0  0  0  0  0
   38.8560   27.7070   36.1340 H   0  0  0  0  0  0  0  0  0  0  0  0
   39.5280   29.2340   36.8940 H   0  0  0  0  0  0  0  0  0  0  0  0
   39.5420   27.8910   38.9760 H   0  0  0  0  0  0  0  0  0  0  0  0
   38.4600   26.5840   38.3130 H   0  0  0  0  0  0  0  0  0  0  0  0
   36.4210   27.9450   37.2290 C   0  0  0  0  0  0  0  0  0  0  0  0
   35.1910   28.8350   37.2000 C   0  0  0  0  0  0  0  0  0  0  0  0
   34.1520   28.0550   36.3830 C   0  0  0  0  0  0  0  0  0  0  0  0
   33.6660   27.0630   37.2440 O   0  0  0  0  0  0  0  0  0  0  0  0
   34.7330   26.1330   37.2820 C   0  0  0  0  0  0  0  0  0  0  0  0
   35.9220   26.7180   38.0040 C   0  0  0  0  0  0  0  0  0  0  0  0
   36.5910   27.6070   36.1940 H   0  0  0  0  0  0  0  0  0  0  0  0
   34.8200   29.0560   38.2080 H   0  0  0  0  0  0  0  0  0  0  0  0
   35.4000   29.7550   36.5820 H   0  0  0  0  0  0  0  0  0  0  0  0
   33.3440   28.7320   36.0510 H   0  0  0  0  0  0  0  0  0  0  0  0
   34.6160   27.5500   35.5360 H   0  0  0  0  0  0  0  0  0  0  0  0
   34.9580   25.7030   36.3100 H   0  0  0  0  0  0  0  0  0  0  0  0
   34.3400   25.3300   37.9690 H   0  0  0  0  0  0  0  0  0  0  0  0
   35.6190   26.9640   39.0360 H   0  0  0  0  0  0  0  0  0  0  0  0
   36.7290   25.9720   37.9420 H   0  0  0  0  0  0  0  0  0  0  0  0
   36.7880   29.0490   40.6620 C   0  0  2  0  0  3  0  0  0  0  0  0
   35.6470   28.6500   41.1170 O   0  0  0  0  0  1  0  0  0  0  0  0
   37.4900   28.0400   41.4400 C   0  0  0  0  0  0  0  0  0  0  0  0
   36.8740   26.8040   41.5730 C   0  0  0  0  0  0  0  0  0  0  0  0
   35.8730   26.6720   41.1360 H   0  0  0  0  0  0  0  0  0  0  0  0
   37.3680   25.6790   42.2020 C   0  0  0  0  0  3  0  0  0  0  0  0
   38.6070   25.8430   42.7440 C   0  0  0  0  0  3  0  0  0  0  0  0
   39.3070   27.0260   42.6700 C   0  0  0  0  0  0  0  0  0  0  0  0
   40.5660   27.2350   43.2060 C   0  0  0  0  0  3  0  0  0  0  0  0
   41.2080   28.4560   43.0910 C   0  0  0  0  0  3  0  0  0  0  0  0
   40.6240   29.5230   42.4380 C   0  0  0  0  0  3  0  0  0  0  0  0
   39.3760   29.3340   41.9000 C   0  0  0  0  0  3  0  0  0  0  0  0
   38.7320   28.1220   42.0100 C   0  0  0  0  0  0  0  0  0  0  0  0
  1  6  2  0  0  0  0
  1  2  1  0  0  0  0
  2  3  2  0  0  0  0
  3  4  1  0  0  0  0
  3 33  1  0  0  0  0
  5  7  1  0  0  0  0
  5  4  2  0  0  0  0
  6  5  1  0  0  0  0
  7 10  1  0  0  0  0
  8  1  1  0  0  0  0
  9  7  1  0  0  0  0
 11 13  1  0  0  0  0
 11  2  1  0  0  0  0
 12 11  1  0  0  0  0
 12 13  1  0  0  0  0
 13 16  1  0  0  0  0
 14 12  1  0  0  0  0
 15 12  1  0  0  0  0
 17 13  1  0  0  0  0
 18 11  1  0  0  0  0
 18 23  1  0  0  0  0
 19 18  1  0  0  0  0
 19 25  1  0  0  0  0
 20 19  1  0  0  0  0
 20 21  1  0  0  0  0
 21 22  1  0  0  0  0
 22 30  1  0  0  0  0
 22 23  1  0  0  0  0
 23 31  1  0  0  0  0
 24 18  1  0  0  0  0
 26 19  1  0  0  0  0
 27 20  1  0  0  0  0
 28 20  1  0  0  0  0
 29 22  1  0  0  0  0
 32 23  1  0  0  0  0
 33 34  1  1  0  0  0
 33 35  1  0  0  0  0
 35 36  2  0  0  0  0
 35 45  1  0  0  0  0
 36 38  1  0  0  0  0
 37 36  1  0  0  0  0
 38 39  2  0  0  0  0
 40 39  1  0  0  0  0
 40 41  1  0  0  0  0
 42 41  2  0  0  0  0
 43 42  1  0  0  0  0
 44 45  1  0  0  0  0
 44 43  2  0  0  0  0
 45 40  2  0  0  0  0
M  END
>  <minimizedAffinity>
-6.20686579

$$$$

 OpenBabel03242516173D

 45 49  0  0  1  0  0  0  0  0999 V2000
   40.8370   31.6010   39.1990 C   0  0  0  0  0  0  0  0  0  0  0  0
   40.0640   30.9420   40.1530 C   0  0  0  0  0  0  0  0  0  0  0  0
   38.7240   30.7190   39.8500 C   0  0  0  0  0  0  0  0  0  0  0  0
   38.2150   31.1420   38.6540 N   0  0  0  0  0  0  0  0  0  0  0  0
   39.0100   31.7700   37.7770 C   0  0  0  0  0  0  0  0  0  0  0  0
   40.2900   32.0000   38.0290 N   0  0  0  0  0  0  0  0  0  0  0  0
   38.5500   32.2290   36.5150 N   0  0  0  0  0  0  0  0  0  0  0  0
   41.8730   31.7620   39.4550 H   0  0  0  0  0  0  0  0  0  0  0  0
   38.9280   31.6730   35.7030 H   0  0  0  0  0  0  0  0  0  0  0  0
   37.9420   33.0200   36.7660 H   0  0  0  0  0  0  0  0  0  0  0  0
   40.6460   30.5020   41.4600 C   0  0  0  0  0  0  0  0  0  0  0  0
   41.4720   31.5590   42.1980 C   0  0  0  0  0  0  0  0  0  0  0  0
   40.1870   31.0690   42.6950 C   0  0  0  0  0  0  0  0  0  0  0  0
   42.3920   31.2590   42.7290 H   0  0  0  0  0  0  0  0  0  0  0  0
   41.6030   32.5210   41.6580 H   0  0  0  0  0  0  0  0  0  0  0  0
   39.5470   31.9280   42.9060 H   0  0  0  0  0  0  0  0  0  0  0  0
   40.2360   30.3920   43.6010 H   0  0  0  0  0  0  0  0  0  0  0  0
   41.2980   29.1600   41.4710 C   0  0  0  0  0  0  0  0  0  0  0  0
   41.0430   28.3100   40.2390 C   0  0  0  0  0  0  0  0  0  0  0  0
   41.9190   27.0620   40.4230 C   0  0  0  0  0  0  0  0  0  0  0  0
   41.2470   26.2690   41.3630 O   0  0  0  0  0  0  0  0  0  0  0  0
   41.4890   26.9520   42.5790 C   0  0  0  0  0  0  0  0  0  0  0  0
   40.7580   28.2730   42.6010 C   0  0  0  0  0  0  0  0  0  0  0  0
   42.3910   29.1990   41.6060 H   0  0  0  0  0  0  0  0  0  0  0  0
   39.9850   28.0410   40.1370 H   0  0  0  0  0  0  0  0  0  0  0  0
   41.4710   28.8180   39.3280 H   0  0  0  0  0  0  0  0  0  0  0  0
   42.0370   26.5350   39.4600 H   0  0  0  0  0  0  0  0  0  0  0  0
   42.8870   27.3220   40.8530 H   0  0  0  0  0  0  0  0  0  0  0  0
   42.5440   27.0120   42.8310 H   0  0  0  0  0  0  0  0  0  0  0  0
   40.9550   26.3110   43.3370 H   0  0  0  0  0  0  0  0  0  0  0  0
   39.6770   28.0770   42.5050 H   0  0  0  0  0  0  0  0  0  0  0  0
   41.0390   28.7740   43.5400 H   0  0  0  0  0  0  0  0  0  0  0  0
   37.7940   30.1140   40.7730 C   0  0  2  0  0  3  0  0  0  0  0  0
   36.7670   30.6670   41.3260 O   0  0  0  0  0  1  0  0  0  0  0  0
   37.5310   28.8590   41.4610 C   0  0  0  0  0  0  0  0  0  0  0  0
   37.3070   28.9240   42.8280 C   0  0  0  0  0  0  0  0  0  0  0  0
   37.3950   29.9020   43.3240 H   0  0  0  0  0  0  0  0  0  0  0  0
   36.9770   27.8880   43.6780 C   0  0  0  0  0  3  0  0  0  0  0  0
   36.8680   26.6770   43.0650 C   0  0  0  0  0  3  0  0  0  0  0  0
   37.0690   26.5000   41.7150 C   0  0  0  0  0  0  0  0  0  0  0  0
   36.9700   25.2890   41.0510 C   0  0  0  0  0  3  0  0  0  0  0  0
   37.1870   25.1900   39.6880 C   0  0  0  0  0  3  0  0  0  0  0  0
   37.5140   26.2930   38.9240 C   0  0  0  0  0  3  0  0  0  0  0  0
   37.6170   27.5020   39.5650 C   0  0  0  0  0  3  0  0  0  0  0  0
   37.4020   27.6080   40.9200 C   0  0  0  0  0  0  0  0  0  0  0  0
  1  8  1  0  0  0  0
  1  2  1  0  0  0  0
  2 11  1  0  0  0  0
  3  2  2  0  0  0  0
  3 33  1  0  0  0  0
  4  3  1  0  0  0  0
  5  6  1  0  0  0  0
  5  4  2  0  0  0  0
  6  1  2  0  0  0  0
  7 10  1  0  0  0  0
  7  5  1  0  0  0  0
  9  7  1  0  0  0  0
 11 18  1  0  0  0  0
 11 12  1  0  0  0  0
 11 13  1  0  0  0  0
 12 13  1  0  0  0  0
 12 14  1  0  0  0  0
 13 16  1  0  0  0  0
 13 17  1  0  0  0  0
 15 12  1  0  0  0  0
 18 24  1  0  0  0  0
 18 23  1  0  0  0  0
 19 20  1  0  0  0  0
 19 18  1  0  0  0  0
 20 28  1  0  0  0  0
 20 21  1  0  0  0  0
 21 22  1  0  0  0  0
 22 23  1  0  0  0  0
 22 29  1  0  0  0  0
 22 30  1  0  0  0  0
 23 32  1  0  0  0  0
 25 19  1  0  0  0  0
 26 19  1  0  0  0  0
 27 20  1  0  0  0  0
 31 23  1  0  0  0  0
 33 34  1  1  0  0  0
 33 35  1  0  0  0  0
 35 36  1  0  0  0  0
 36 37  1  0  0  0  0
 36 38  2  0  0  0  0
 39 38  1  0  0  0  0
 40 39  2  0  0  0  0
 41 40  1  0  0  0  0
 42 41  2  0  0  0  0
 43 44  2  0  0  0  0
 43 42  1  0  0  0  0
 44 45  1  0  0  0  0
 45 35  2  0  0  0  0
 45 40  1  0  0  0  0
M  END
>  <minimizedAffinity>
-6.18877268

$$$$
