
 OpenBabel03252503593D

 36 40  0  0  1  0  0  0  0  0999 V2000
   47.0330   35.0850   42.6330 C   0  0  0  0  0  0  0  0  0  0  0  0
   45.9720   35.9430   42.3900 C   0  0  0  0  0  0  0  0  0  0  0  0
   44.8510   35.8200   43.1940 C   0  0  0  0  0  0  0  0  0  0  0  0
   44.8470   34.8780   44.1690 N   0  0  0  0  0  0  0  0  0  0  0  0
   45.9150   34.0510   44.3750 C   0  0  0  0  0  0  0  0  0  0  0  0
   47.0060   34.1580   43.6050 N   0  0  0  0  0  0  0  0  0  0  0  0
   45.9310   36.7040   41.6290 H   0  0  0  0  0  0  0  0  0  0  0  0
   43.9890   36.4630   43.0540 H   0  0  0  0  0  0  0  0  0  0  0  0
   46.2010   31.7390   45.0680 C   0  0  0  0  0  0  0  0  0  0  0  0
   45.8810   33.0460   45.4320 C   0  0  0  0  0  0  0  0  0  0  0  0
   45.5560   33.3200   46.7350 C   0  0  0  0  0  0  0  0  0  0  0  0
   45.5520   32.3020   47.6580 C   0  0  0  0  0  0  0  0  0  0  0  0
   45.2790   32.2760   48.9790 N   0  0  0  0  0  0  0  0  0  0  0  0
   45.4080   31.0350   49.4640 C   0  0  0  0  0  0  0  0  0  0  0  0
   45.7780   30.2040   48.4420 C   0  0  0  0  0  0  0  0  0  0  0  0
   45.8690   30.9970   47.3050 C   0  0  0  0  0  0  0  0  0  0  0  0
   46.1970   30.7150   45.9940 C   0  0  0  0  0  0  0  0  0  0  0  0
   46.4730   31.4160   44.0580 H   0  0  0  0  0  0  0  0  0  0  0  0
   45.3100   34.3390   47.0000 H   0  0  0  0  0  0  0  0  0  0  0  0
   45.0020   33.1080   49.5600 H   0  0  0  0  0  0  0  0  0  0  0  0
   45.2490   30.7240   50.4980 H   0  0  0  0  0  0  0  0  0  0  0  0
   45.9780   29.1250   48.4490 H   0  0  0  0  0  0  0  0  0  0  0  0
   46.4410   29.6880   45.7460 H   0  0  0  0  0  0  0  0  0  0  0  0
   48.1860   35.2560   41.7560 C   0  0  2  0  0  3  0  0  0  0  0  0
   48.9740   36.2700   41.8130 O   0  0  0  0  0  1  0  0  0  0  0  0
   48.2810   34.1220   40.8420 C   0  0  0  0  0  0  0  0  0  0  0  0
   47.4080   33.9820   39.7580 C   0  0  0  0  0  0  0  0  0  0  0  0
   46.6320   34.7430   39.5980 H   0  0  0  0  0  0  0  0  0  0  0  0
   47.4410   32.9440   38.8520 C   0  0  0  0  0  3  0  0  0  0  0  0
   48.3950   31.9660   39.0110 C   0  0  0  0  0  3  0  0  0  0  0  0
   49.2850   32.0480   40.0620 C   0  0  0  0  0  0  0  0  0  0  0  0
   50.2300   31.0530   40.1980 C   0  0  0  0  0  3  0  0  0  0  0  0
   51.1470   31.0800   41.2310 C   0  0  0  0  0  3  0  0  0  0  0  0
   51.0570   32.1460   42.0990 C   0  0  0  0  0  3  0  0  0  0  0  0
   50.1120   33.1400   41.9600 C   0  0  0  0  0  3  0  0  0  0  0  0
   49.1970   33.1140   40.9310 C   0  0  0  0  0  0  0  0  0  0  0  0
  1  6  1  0  0  0  0
  2  1  2  0  0  0  0
  2  3  1  0  0  0  0
  3  4  2  0  0  0  0
  4  5  1  0  0  0  0
  5 10  1  0  0  0  0
  6  5  2  0  0  0  0
  7  2  1  0  0  0  0
  8  3  1  0  0  0  0
  9 10  2  0  0  0  0
  9 17  1  0  0  0  0
 10 11  1  0  0  0  0
 11 19  1  0  0  0  0
 11 12  2  0  0  0  0
 12 13  1  0  0  0  0
 13 14  1  0  0  0  0
 13 20  1  0  0  0  0
 14 21  1  0  0  0  0
 15 22  1  0  0  0  0
 15 14  2  0  0  0  0
 16 12  1  0  0  0  0
 16 15  1  0  0  0  0
 17 16  2  0  0  0  0
 18  9  1  0  0  0  0
 23 17  1  0  0  0  0
 24 25  1  6  0  0  0
 24  1  1  0  0  0  0
 26 36  1  0  0  0  0
 26 24  1  0  0  0  0
 27 26  2  0  0  0  0
 28 27  1  0  0  0  0
 29 30  2  0  0  0  0
 29 27  1  0  0  0  0
 30 31  1  0  0  0  0
 31 32  2  0  0  0  0
 31 36  1  0  0  0  0
 32 33  1  0  0  0  0
 33 34  2  0  0  0  0
 35 34  1  0  0  0  0
 36 35  2  0  0  0  0
M  END
>  <minimizedAffinity>
-6.82703114

>  <minimizedRMSD>
0.667788029

$$$$
