
 OpenBabel03252503593D

 36 40  0  0  1  0  0  0  0  0999 V2000
   47.4600   34.7280   42.7140 C   0  0  0  0  0  0  0  0  0  0  0  0
   46.4440   35.5800   42.3080 C   0  0  0  0  0  0  0  0  0  0  0  0
   45.2340   35.4980   42.9770 C   0  0  0  0  0  0  0  0  0  0  0  0
   45.1030   34.6000   43.9830 N   0  0  0  0  0  0  0  0  0  0  0  0
   46.1310   33.7770   44.3520 C   0  0  0  0  0  0  0  0  0  0  0  0
   47.3060   33.8450   43.7140 N   0  0  0  0  0  0  0  0  0  0  0  0
   46.5020   36.3070   41.5160 H   0  0  0  0  0  0  0  0  0  0  0  0
   44.4010   36.1380   42.7060 H   0  0  0  0  0  0  0  0  0  0  0  0
   46.0900   31.4710   45.1160 C   0  0  0  0  0  0  0  0  0  0  0  0
   45.9600   32.8200   45.4390 C   0  0  0  0  0  0  0  0  0  0  0  0
   45.6830   33.1780   46.7340 C   0  0  0  0  0  0  0  0  0  0  0  0
   45.5390   32.1990   47.6880 C   0  0  0  0  0  0  0  0  0  0  0  0
   45.2720   32.2530   49.0090 N   0  0  0  0  0  0  0  0  0  0  0  0
   45.2270   31.0210   49.5320 C   0  0  0  0  0  0  0  0  0  0  0  0
   45.4710   30.1150   48.5370 C   0  0  0  0  0  0  0  0  0  0  0  0
   45.6670   30.8520   47.3750 C   0  0  0  0  0  0  0  0  0  0  0  0
   45.9460   30.4860   46.0730 C   0  0  0  0  0  0  0  0  0  0  0  0
   46.3080   31.0810   44.1160 H   0  0  0  0  0  0  0  0  0  0  0  0
   45.5850   34.2280   46.9670 H   0  0  0  0  0  0  0  0  0  0  0  0
   45.1190   33.1320   49.5650 H   0  0  0  0  0  0  0  0  0  0  0  0
   45.0310   30.7670   50.5760 H   0  0  0  0  0  0  0  0  0  0  0  0
   45.5160   29.0190   48.5760 H   0  0  0  0  0  0  0  0  0  0  0  0
   46.0400   29.4280   45.8580 H   0  0  0  0  0  0  0  0  0  0  0  0
   48.7110   34.8540   41.9750 C   0  0  2  0  0  3  0  0  0  0  0  0
   49.6690   35.6320   42.3350 O   0  0  0  0  0  1  0  0  0  0  0  0
   48.6820   33.9800   40.8060 C   0  0  0  0  0  0  0  0  0  0  0  0
   48.0140   34.3500   39.6340 C   0  0  0  0  0  0  0  0  0  0  0  0
   47.4950   35.3200   39.6000 H   0  0  0  0  0  0  0  0  0  0  0  0
   47.9490   33.5830   38.4910 C   0  0  0  0  0  3  0  0  0  0  0  0
   48.5810   32.3620   38.4860 C   0  0  0  0  0  3  0  0  0  0  0  0
   49.2580   31.9410   39.6120 C   0  0  0  0  0  0  0  0  0  0  0  0
   49.8820   30.7120   39.5790 C   0  0  0  0  0  3  0  0  0  0  0  0
   50.5740   30.2360   40.6770 C   0  0  0  0  0  3  0  0  0  0  0  0
   50.5990   31.0550   41.7850 C   0  0  0  0  0  3  0  0  0  0  0  0
   49.9740   32.2830   41.8150 C   0  0  0  0  0  3  0  0  0  0  0  0
   49.2840   32.7590   40.7220 C   0  0  0  0  0  0  0  0  0  0  0  0
  1  6  1  0  0  0  0
  2  1  2  0  0  0  0
  2  3  1  0  0  0  0
  3  4  2  0  0  0  0
  4  5  1  0  0  0  0
  5 10  1  0  0  0  0
  6  5  2  0  0  0  0
  7  2  1  0  0  0  0
  8  3  1  0  0  0  0
  9 10  2  0  0  0  0
  9 17  1  0  0  0  0
 10 11  1  0  0  0  0
 11 19  1  0  0  0  0
 11 12  2  0  0  0  0
 12 13  1  0  0  0  0
 13 14  1  0  0  0  0
 13 20  1  0  0  0  0
 14 21  1  0  0  0  0
 15 22  1  0  0  0  0
 15 14  2  0  0  0  0
 16 12  1  0  0  0  0
 16 15  1  0  0  0  0
 17 16  2  0  0  0  0
 18  9  1  0  0  0  0
 23 17  1  0  0  0  0
 24 25  1  6  0  0  0
 24  1  1  0  0  0  0
 26 24  1  0  0  0  0
 27 26  2  0  0  0  0
 28 27  1  0  0  0  0
 29 27  1  0  0  0  0
 30 29  2  0  0  0  0
 30 31  1  0  0  0  0
 31 36  1  0  0  0  0
 32 31  2  0  0  0  0
 32 33  1  0  0  0  0
 33 34  2  0  0  0  0
 34 35  1  0  0  0  0
 36 26  1  0  0  0  0
 36 35  2  0  0  0  0
M  END
>  <minimizedAffinity>
-6.77523565

>  <minimizedRMSD>
2.01638031

$$$$
