
 OpenBabel03242516533D

 47 51  0  0  1  0  0  0  0  0999 V2000
   47.7780   32.7510   41.6540 C   0  0  1  0  0  0  0  0  0  0  0  0
   47.4020   32.1290   40.3810 C   0  0  0  0  0  0  0  0  0  0  0  0
   48.4050   32.6260   39.3430 C   0  0  0  0  0  0  0  0  0  0  0  0
   48.1040   34.0960   39.1210 C   0  0  0  0  0  0  0  0  0  0  0  0
   48.0960   34.9100   40.3840 C   0  0  0  0  0  0  0  0  0  0  0  0
   47.6160   34.2740   41.6160 C   0  0  1  0  0  0  0  0  0  0  0  0
   48.8950   32.6330   41.7950 H   0  0  0  0  0  0  0  0  0  0  0  0
   47.5400   31.0280   40.4590 H   0  0  0  0  0  0  0  0  0  0  0  0
   46.3900   32.3690   40.0190 H   0  0  0  0  0  0  0  0  0  0  0  0
   48.2820   32.1220   38.3810 H   0  0  0  0  0  0  0  0  0  0  0  0
   49.4250   32.5340   39.7740 H   0  0  0  0  0  0  0  0  0  0  0  0
   47.0830   34.1740   38.6750 H   0  0  0  0  0  0  0  0  0  0  0  0
   48.8680   34.4870   38.4230 H   0  0  0  0  0  0  0  0  0  0  0  0
   49.1420   35.3020   40.5120 H   0  0  0  0  0  0  0  0  0  0  0  0
   47.4740   35.8190   40.1730 H   0  0  0  0  0  0  0  0  0  0  0  0
   48.2490   34.6420   42.4770 H   0  0  0  0  0  0  0  0  0  0  0  0
   45.3250   30.8920   43.8570 C   0  0  0  0  0  0  0  0  0  0  0  0
   45.9920   31.4300   42.7530 C   0  0  0  0  0  0  0  0  0  0  0  0
   47.1420   32.2200   42.8420 C   0  0  0  0  0  0  0  0  0  0  0  0
   47.5910   32.4500   44.0840 N   0  0  0  0  0  0  0  0  0  0  0  0
   46.9510   31.9340   45.1700 C   0  0  0  0  0  0  0  0  0  0  0  0
   45.8590   31.1830   45.0730 N   0  0  0  0  0  0  0  0  0  0  0  0
   44.4490   30.2970   43.6770 H   0  0  0  0  0  0  0  0  0  0  0  0
   45.6150   31.2340   41.7580 H   0  0  0  0  0  0  0  0  0  0  0  0
   47.2960   32.1060   46.1820 H   0  0  0  0  0  0  0  0  0  0  0  0
   46.2560   34.6820   41.9680 C   0  0  0  0  0  0  0  0  0  0  0  0
   45.8530   35.2610   43.1730 C   0  0  0  0  0  0  0  0  0  0  0  0
   44.5020   35.5850   43.2790 C   0  0  0  0  0  0  0  0  0  0  0  0
   43.6820   35.3130   42.2050 C   0  0  0  0  0  0  0  0  0  0  0  0
   44.0980   34.7370   41.0140 C   0  0  0  0  0  0  0  0  0  0  0  0
   45.4170   34.4270   40.9270 N   0  0  0  0  0  0  0  0  0  0  0  0
   46.6030   35.4040   43.9000 H   0  0  0  0  0  0  0  0  0  0  0  0
   44.1800   36.0260   44.1880 H   0  0  0  0  0  0  0  0  0  0  0  0
   42.6320   35.5710   42.3030 H   0  0  0  0  0  0  0  0  0  0  0  0
   43.1470   34.4880   39.9390 C   0  0  0  0  0  0  0  0  0  0  0  0
   42.7600   35.4530   39.2480 O   0  0  0  0  0  0  0  0  0  0  0  0
   42.4900   33.2920   39.4440 C   0  0  0  0  0  0  0  0  0  0  0  0
   42.9790   32.5230   38.4100 C   0  0  0  0  0  0  0  0  0  0  0  0
   43.9000   32.7840   37.9370 H   0  0  0  0  0  0  0  0  0  0  0  0
   42.3690   31.4040   37.8810 C   0  0  0  0  0  3  0  0  0  0  0  0
   41.1640   31.0100   38.4290 C   0  0  0  0  0  3  0  0  0  0  0  0
   40.6170   31.7330   39.4680 C   0  0  0  0  0  0  0  0  0  0  0  0
   39.4320   31.2900   39.9720 C   0  0  0  0  0  3  0  0  0  0  0  0
   38.8270   31.9560   41.0180 C   0  0  0  0  0  3  0  0  0  0  0  0
   39.4650   33.0870   41.5360 C   0  0  0  0  0  3  0  0  0  0  0  0
   40.6580   33.4800   40.9830 C   0  0  0  0  0  3  0  0  0  0  0  0
   41.2870   32.8400   39.9400 C   0  0  0  0  0  0  0  0  0  0  0  0
  1  7  1  1  0  0  0
  1 19  1  0  0  0  0
  2  8  1  0  0  0  0
  2  1  1  0  0  0  0
  3 11  1  0  0  0  0
  3  2  1  0  0  0  0
  4  3  1  0  0  0  0
  4  5  1  0  0  0  0
  5 14  1  0  0  0  0
  5  6  1  0  0  0  0
  6  1  1  0  0  0  0
  6 26  1  0  0  0  0
  6 16  1  1  0  0  0
  9  2  1  0  0  0  0
 10  3  1  0  0  0  0
 12  4  1  0  0  0  0
 13  4  1  0  0  0  0
 15  5  1  0  0  0  0
 17 22  1  0  0  0  0
 18 19  1  0  0  0  0
 18 17  2  0  0  0  0
 19 20  2  0  0  0  0
 20 21  1  0  0  0  0
 21 25  1  0  0  0  0
 22 21  2  0  0  0  0
 23 17  1  0  0  0  0
 24 18  1  0  0  0  0
 26 27  1  0  0  0  0
 27 28  2  0  0  0  0
 27 32  1  0  0  0  0
 28 33  1  0  0  0  0
 29 34  1  0  0  0  0
 29 28  1  0  0  0  0
 30 29  2  0  0  0  0
 31 30  1  0  0  0  0
 31 26  2  0  0  0  0
 35 30  1  0  0  0  0
 36 35  2  0  0  0  0
 37 35  1  0  0  0  0
 37 47  1  0  0  0  0
 38 37  2  0  0  0  0
 39 38  1  0  0  0  0
 40 38  1  0  0  0  0
 40 41  2  0  0  0  0
 41 42  1  0  0  0  0
 42 47  2  0  0  0  0
 42 43  1  0  0  0  0
 43 44  2  0  0  0  0
 44 45  1  0  0  0  0
 46 45  2  0  0  0  0
 47 46  1  0  0  0  0
M  END
>  <minimizedAffinity>
-6.29002142

>  <minimizedRMSD>
1.03478026

$$$$
