
 OpenBabel03252507553D

 46 50  0  0  1  0  0  0  0  0999 V2000
   49.0960   32.1930   40.5850 C   0  0  2  0  0  0  0  0  0  0  0  0
   49.9380   31.6620   41.6480 C   0  0  0  0  0  0  0  0  0  0  0  0
   50.4830   31.8580   40.2690 C   0  0  1  0  0  0  0  0  0  0  0  0
   48.3120   31.5300   40.1730 H   0  0  0  0  0  0  0  0  0  0  0  0
   50.3720   32.3760   42.3910 H   0  0  0  0  0  0  0  0  0  0  0  0
   49.8850   30.6200   42.0250 H   0  0  0  0  0  0  0  0  0  0  0  0
   51.1000   32.6990   39.9450 H   0  0  0  0  0  0  0  0  0  0  0  0
   47.0770   34.8310   41.9790 C   0  0  2  0  0  0  0  0  0  0  0  0
   46.3080   34.2250   40.8020 C   0  0  0  0  0  0  0  0  0  0  0  0
   47.5100   34.0250   39.8540 C   0  0  0  0  0  0  0  0  0  0  0  0
   48.6420   33.6250   40.7510 C   0  0  1  0  0  0  0  0  0  0  0  0
   48.1290   33.7710   42.1520 C   0  0  0  0  0  0  0  0  0  0  0  0
   47.5480   35.7780   41.6780 H   0  0  0  0  0  0  0  0  0  0  0  0
   45.9250   33.2580   41.1400 H   0  0  0  0  0  0  0  0  0  0  0  0
   45.5780   34.9100   40.3690 H   0  0  0  0  0  0  0  0  0  0  0  0
   47.2560   33.2550   39.1010 H   0  0  0  0  0  0  0  0  0  0  0  0
   47.7540   34.9900   39.3790 H   0  0  0  0  0  0  0  0  0  0  0  0
   49.5340   34.2870   40.6370 H   0  0  0  0  0  0  0  0  0  0  0  0
   47.6610   32.8270   42.4950 H   0  0  0  0  0  0  0  0  0  0  0  0
   48.9150   34.0410   42.8880 H   0  0  0  0  0  0  0  0  0  0  0  0
   44.5360   36.0100   44.4930 C   0  0  0  0  0  0  0  0  0  0  0  0
   45.2780   35.9910   43.3200 C   0  0  0  0  0  0  0  0  0  0  0  0
   46.2010   34.9550   43.1760 C   0  0  0  0  0  0  0  0  0  0  0  0
   46.3510   33.9950   44.1850 N   0  0  0  0  0  0  0  0  0  0  0  0
   45.5940   34.0710   45.3110 C   0  0  0  0  0  0  0  0  0  0  0  0
   44.6910   35.0760   45.4610 N   0  0  0  0  0  0  0  0  0  0  0  0
   43.8150   36.8080   44.6200 H   0  0  0  0  0  0  0  0  0  0  0  0
   45.1840   36.7170   42.5270 H   0  0  0  0  0  0  0  0  0  0  0  0
   45.7920   33.2800   46.0210 H   0  0  0  0  0  0  0  0  0  0  0  0
   50.7090   30.6950   39.4900 O   0  0  0  0  0  0  0  0  0  0  0  0
   51.9730   30.0100   37.3140 O   0  0  0  0  0  0  0  0  0  0  0  0
   51.9840   31.0100   38.4420 P   0  0  1  0  0  0  0  0  0  0  0  0
   51.8070   32.5710   37.7540 O   0  0  0  0  0  0  0  0  0  0  0  0
   51.3370   32.5010   36.8930 H   0  0  0  0  0  0  0  0  0  0  0  0
   53.4830   30.9730   39.1640 O   0  0  0  0  0  0  0  0  0  0  0  0
   54.5840   30.5730   38.4220 C   0  0  0  0  0  0  0  0  0  0  0  0
   54.9500   31.0280   37.1730 C   0  0  0  0  0  0  0  0  0  0  0  0
   54.3070   31.7730   36.7340 H   0  0  0  0  0  0  0  0  0  0  0  0
   56.0730   30.5530   36.5300 C   0  0  0  0  0  3  0  0  0  0  0  0
   56.8860   29.5860   37.1260 C   0  0  0  0  0  3  0  0  0  0  0  0
   56.5350   29.1200   38.3760 C   0  0  0  0  0  0  0  0  0  0  0  0
   57.3310   28.1580   38.9860 C   0  0  0  0  0  3  0  0  0  0  0  0
   57.0100   27.6610   40.2490 C   0  0  0  0  0  3  0  0  0  0  0  0
   55.8730   28.1440   40.8930 C   0  0  0  0  0  3  0  0  0  0  0  0
   55.1260   29.0930   40.2430 C   0  0  0  0  0  3  0  0  0  0  0  0
   55.4010   29.6140   38.9990 C   0  0  0  0  0  0  0  0  0  0  0  0
  1  4  1  6  0  0  0
  1 11  1  0  0  0  0
  1  2  1  0  0  0  0
  2  6  1  0  0  0  0
  2  5  1  0  0  0  0
  3  7  1  6  0  0  0
  3  1  1  0  0  0  0
  3  2  1  0  0  0  0
  8 13  1  6  0  0  0
  8 12  1  0  0  0  0
  8 23  1  0  0  0  0
  9 14  1  0  0  0  0
  9  8  1  0  0  0  0
 10 11  1  0  0  0  0
 10  9  1  0  0  0  0
 11 18  1  6  0  0  0
 11 12  1  0  0  0  0
 12 19  1  0  0  0  0
 12 20  1  0  0  0  0
 15  9  1  0  0  0  0
 16 10  1  0  0  0  0
 17 10  1  0  0  0  0
 21 27  1  0  0  0  0
 21 26  1  0  0  0  0
 22 21  2  0  0  0  0
 23 22  1  0  0  0  0
 23 24  2  0  0  0  0
 24 25  1  0  0  0  0
 25 26  2  0  0  0  0
 25 29  1  0  0  0  0
 28 22  1  0  0  0  0
 30  3  1  0  0  0  0
 32 31  2  6  0  0  0
 32 35  1  0  0  0  0
 32 30  1  0  0  0  0
 33 32  1  0  0  0  0
 34 33  1  0  0  0  0
 36 46  1  0  0  0  0
 36 35  1  0  0  0  0
 37 36  2  0  0  0  0
 38 37  1  0  0  0  0
 39 40  2  0  0  0  0
 39 37  1  0  0  0  0
 40 41  1  0  0  0  0
 41 42  2  0  0  0  0
 41 46  1  0  0  0  0
 42 43  1  0  0  0  0
 43 44  2  0  0  0  0
 45 44  1  0  0  0  0
 46 45  2  0  0  0  0
M  END
>  <minimizedAffinity>
-5.77912951

>  <minimizedRMSD>
2.31225038

$$$$
