
 OpenBabel03242511433D

 36 39  0  0  0  0  0  0  0  0999 V2000
   39.2480   31.5260   40.2090 C   0  0  0  0  0  0  0  0  0  0  0  0
   39.8700   32.7360   40.4930 C   0  0  0  0  0  0  0  0  0  0  0  0
   39.2540   33.9480   40.3760 C   0  0  0  0  0  0  0  0  0  0  0  0
   37.9520   33.9470   39.9520 C   0  0  0  0  0  0  0  0  0  0  0  0
   37.3270   32.7280   39.6690 C   0  0  0  0  0  0  0  0  0  0  0  0
   37.9510   31.4960   39.7900 C   0  0  0  0  0  0  0  0  0  0  0  0
   40.8950   32.5270   40.8120 H   0  0  0  0  0  0  0  0  0  0  0  0
   39.9460   34.7230   40.6540 H   0  0  0  0  0  0  0  0  0  0  0  0
   37.6100   34.9940   39.9100 H   0  0  0  0  0  0  0  0  0  0  0  0
   36.3250   33.0680   39.3660 H   0  0  0  0  0  0  0  0  0  0  0  0
   36.8470   30.6420   39.3680 C   0  0  0  0  0  0  0  0  0  0  0  0
   36.1140   30.2960   40.5150 C   0  0  0  0  0  0  0  0  0  0  0  0
   36.2770   30.5950   41.5440 H   0  0  0  0  0  0  0  0  0  0  0  0
   35.0120   29.4640   40.4440 C   0  0  0  0  0  3  0  0  0  0  0  0
   34.6310   28.9680   39.2160 C   0  0  0  0  0  3  0  0  0  0  0  0
   35.3480   29.3080   38.0910 C   0  0  0  0  0  0  0  0  0  0  0  0
   35.0280   28.8770   36.8110 C   0  0  0  0  0  3  0  0  0  0  0  0
   35.7750   29.2700   35.7040 C   0  0  0  0  0  3  0  0  0  0  0  0
   36.8780   30.1140   35.8440 C   0  0  0  0  0  3  0  0  0  0  0  0
   37.2290   30.5620   37.0970 C   0  0  0  0  0  3  0  0  0  0  0  0
   36.4420   30.1300   38.1430 C   0  0  0  0  0  0  0  0  0  0  0  0
   39.8340   30.1650   40.3070 C   0  0  0  0  0  0  0  0  0  0  0  0
   40.7840   30.1620   39.7280 H   0  0  0  0  0  0  0  0  0  0  0  0
   39.1380   29.5120   39.7910 H   0  0  0  0  0  0  0  0  0  0  0  0
   40.0820   29.7910   41.7410 C   0  0  0  0  0  0  0  0  0  0  0  0
   39.7140   30.6900   42.3410 H   0  0  0  0  0  0  0  0  0  0  0  0
   41.0490   29.4200   42.0030 H   0  0  0  0  0  0  0  0  0  0  0  0
   37.6340   27.0460   41.6880 C   0  0  0  0  0  0  0  0  0  0  0  0
   36.9110   27.2810   42.8940 C   0  0  0  0  0  0  0  0  0  0  0  0
   37.3080   28.3490   43.6800 C   0  0  0  0  0  0  0  0  0  0  0  0
   38.3360   29.1130   43.2900 N   0  0  0  0  0  0  0  0  0  0  0  0
   38.9880   28.8410   42.1270 C   0  0  0  0  0  0  0  0  0  0  0  0
   38.6610   27.8410   41.3380 N   0  0  0  0  0  0  0  0  0  0  0  0
   37.3670   26.2240   41.0350 H   0  0  0  0  0  0  0  0  0  0  0  0
   36.0870   26.6370   43.1650 H   0  0  0  0  0  0  0  0  0  0  0  0
   36.7790   28.5520   44.6010 H   0  0  0  0  0  0  0  0  0  0  0  0
  1 22  1  0  0  0  0
  1  2  1  0  0  0  0
  2  7  1  0  0  0  0
  3  2  2  0  0  0  0
  3  8  1  0  0  0  0
  4  3  1  0  0  0  0
  5  6  1  0  0  0  0
  5  4  2  0  0  0  0
  6  1  2  0  0  0  0
  9  4  1  0  0  0  0
 10  5  1  0  0  0  0
 11  6  1  0  0  0  0
 11 12  1  0  0  0  0
 12 13  1  0  0  0  0
 14 12  2  0  0  0  0
 15 14  1  0  0  0  0
 16 21  1  0  0  0  0
 16 15  2  0  0  0  0
 17 16  1  0  0  0  0
 18 19  1  0  0  0  0
 18 17  2  0  0  0  0
 19 20  2  0  0  0  0
 20 21  1  0  0  0  0
 21 11  2  0  0  0  0
 22 25  1  0  0  0  0
 23 22  1  0  0  0  0
 24 22  1  0  0  0  0
 25 27  1  0  0  0  0
 25 32  1  0  0  0  0
 25 26  1  0  0  0  0
 28 29  1  0  0  0  0
 29 35  1  0  0  0  0
 29 30  2  0  0  0  0
 30 36  1  0  0  0  0
 31 30  1  0  0  0  0
 32 31  2  0  0  0  0
 33 28  2  0  0  0  0
 33 32  1  0  0  0  0
 34 28  1  0  0  0  0
M  END
>  <minimizedAffinity>
-6.35397243

$$$$

 OpenBabel03242511433D

 36 39  0  0  0  0  0  0  0  0999 V2000
   38.1110   26.7390   42.8160 C   0  0  0  0  0  0  0  0  0  0  0  0
   39.1970   26.6630   43.6800 C   0  0  0  0  0  0  0  0  0  0  0  0
   40.1410   25.6810   43.6220 C   0  0  0  0  0  0  0  0  0  0  0  0
   39.9900   24.7270   42.6510 C   0  0  0  0  0  0  0  0  0  0  0  0
   38.8970   24.8050   41.7810 C   0  0  0  0  0  0  0  0  0  0  0  0
   37.9380   25.8050   41.8380 C   0  0  0  0  0  0  0  0  0  0  0  0
   39.1400   27.5060   44.3750 H   0  0  0  0  0  0  0  0  0  0  0  0
   40.8720   25.8480   44.3930 H   0  0  0  0  0  0  0  0  0  0  0  0
   40.8270   24.0160   42.7430 H   0  0  0  0  0  0  0  0  0  0  0  0
   39.0650   23.9220   41.1470 H   0  0  0  0  0  0  0  0  0  0  0  0
   37.0910   25.3670   40.7350 C   0  0  0  0  0  0  0  0  0  0  0  0
   36.6590   24.0610   41.0220 C   0  0  0  0  0  0  0  0  0  0  0  0
   36.8670   23.4500   41.8940 H   0  0  0  0  0  0  0  0  0  0  0  0
   35.8560   23.3570   40.1450 C   0  0  0  0  0  3  0  0  0  0  0  0
   35.4740   23.9570   38.9650 C   0  0  0  0  0  3  0  0  0  0  0  0
   35.8940   25.2370   38.6840 C   0  0  0  0  0  0  0  0  0  0  0  0
   35.5430   25.9310   37.5350 C   0  0  0  0  0  3  0  0  0  0  0  0
   35.9790   27.2350   37.3100 C   0  0  0  0  0  3  0  0  0  0  0  0
   36.7890   27.8910   38.2380 C   0  0  0  0  0  3  0  0  0  0  0  0
   37.1610   27.2370   39.3910 C   0  0  0  0  0  3  0  0  0  0  0  0
   36.6900   25.9490   39.5410 C   0  0  0  0  0  0  0  0  0  0  0  0
   37.0380   27.7660   42.8030 C   0  0  0  0  0  0  0  0  0  0  0  0
   36.2600   27.4530   43.5340 H   0  0  0  0  0  0  0  0  0  0  0  0
   36.5940   27.7090   41.8140 H   0  0  0  0  0  0  0  0  0  0  0  0
   37.5880   29.1200   43.1540 C   0  0  0  0  0  0  0  0  0  0  0  0
   38.7140   28.9580   43.2450 H   0  0  0  0  0  0  0  0  0  0  0  0
   37.1270   29.6560   43.9550 H   0  0  0  0  0  0  0  0  0  0  0  0
   36.5560   31.1160   40.2420 C   0  0  0  0  0  0  0  0  0  0  0  0
   37.7750   31.2060   39.5070 C   0  0  0  0  0  0  0  0  0  0  0  0
   38.8950   30.6030   40.0510 C   0  0  0  0  0  0  0  0  0  0  0  0
   38.8010   29.9650   41.2260 N   0  0  0  0  0  0  0  0  0  0  0  0
   37.6100   29.9120   41.8810 C   0  0  0  0  0  0  0  0  0  0  0  0
   36.5110   30.4650   41.4180 N   0  0  0  0  0  0  0  0  0  0  0  0
   35.6490   31.5710   39.8640 H   0  0  0  0  0  0  0  0  0  0  0  0
   37.8000   31.7300   38.5630 H   0  0  0  0  0  0  0  0  0  0  0  0
   39.8340   30.6540   39.5180 H   0  0  0  0  0  0  0  0  0  0  0  0
  1  2  1  0  0  0  0
  2  7  1  0  0  0  0
  3  2  2  0  0  0  0
  3  8  1  0  0  0  0
  4  9  1  0  0  0  0
  4  3  1  0  0  0  0
  5  6  1  0  0  0  0
  5  4  2  0  0  0  0
  6  1  2  0  0  0  0
 10  5  1  0  0  0  0
 11 12  1  0  0  0  0
 11  6  1  0  0  0  0
 12 13  1  0  0  0  0
 14 12  2  0  0  0  0
 15 14  1  0  0  0  0
 16 15  2  0  0  0  0
 16 21  1  0  0  0  0
 17 16  1  0  0  0  0
 18 17  2  0  0  0  0
 18 19  1  0  0  0  0
 19 20  2  0  0  0  0
 20 21  1  0  0  0  0
 21 11  2  0  0  0  0
 22  1  1  0  0  0  0
 22 25  1  0  0  0  0
 22 23  1  0  0  0  0
 24 22  1  0  0  0  0
 25 26  1  0  0  0  0
 25 27  1  0  0  0  0
 28 33  1  0  0  0  0
 29 30  1  0  0  0  0
 29 28  2  0  0  0  0
 30 31  2  0  0  0  0
 31 32  1  0  0  0  0
 32 25  1  0  0  0  0
 33 32  2  0  0  0  0
 34 28  1  0  0  0  0
 35 29  1  0  0  0  0
 36 30  1  0  0  0  0
M  END
>  <minimizedAffinity>
-6.09056997

$$$$

 OpenBabel03242511433D

 36 39  0  0  0  0  0  0  0  0999 V2000
   36.0690   29.5080   38.6090 C   0  0  0  0  0  0  0  0  0  0  0  0
   36.5600   30.3630   37.6300 C   0  0  0  0  0  0  0  0  0  0  0  0
   37.8610   30.7690   37.5660 C   0  0  0  0  0  0  0  0  0  0  0  0
   38.7100   30.2950   38.5300 C   0  0  0  0  0  0  0  0  0  0  0  0
   38.2150   29.4330   39.5140 C   0  0  0  0  0  0  0  0  0  0  0  0
   36.8930   29.0180   39.5790 C   0  0  0  0  0  0  0  0  0  0  0  0
   35.7360   30.6270   36.9620 H   0  0  0  0  0  0  0  0  0  0  0  0
   37.9850   31.4230   36.7210 H   0  0  0  0  0  0  0  0  0  0  0  0
   39.7100   30.7160   38.3350 H   0  0  0  0  0  0  0  0  0  0  0  0
   39.1200   29.2460   40.1090 H   0  0  0  0  0  0  0  0  0  0  0  0
   36.9790   28.1770   40.7660 C   0  0  0  0  0  0  0  0  0  0  0  0
   37.2040   29.0180   41.8690 C   0  0  0  0  0  0  0  0  0  0  0  0
   37.2850   30.0990   41.8960 H   0  0  0  0  0  0  0  0  0  0  0  0
   37.3590   28.5100   43.1450 C   0  0  0  0  0  3  0  0  0  0  0  0
   37.2910   27.1460   43.3310 C   0  0  0  0  0  3  0  0  0  0  0  0
   37.0690   26.3210   42.2510 C   0  0  0  0  0  0  0  0  0  0  0  0
   36.9620   24.9410   42.3430 C   0  0  0  0  0  3  0  0  0  0  0  0
   36.7150   24.1540   41.2200 C   0  0  0  0  0  3  0  0  0  0  0  0
   36.5670   24.7310   39.9580 C   0  0  0  0  0  3  0  0  0  0  0  0
   36.6670   26.0970   39.8240 C   0  0  0  0  0  3  0  0  0  0  0  0
   36.9140   26.8070   40.9810 C   0  0  0  0  0  0  0  0  0  0  0  0
   34.6760   29.0140   38.7590 C   0  0  0  0  0  0  0  0  0  0  0  0
   34.0050   29.9000   38.8060 H   0  0  0  0  0  0  0  0  0  0  0  0
   34.6430   28.5320   39.7310 H   0  0  0  0  0  0  0  0  0  0  0  0
   34.3000   28.1160   37.6150 C   0  0  0  0  0  0  0  0  0  0  0  0
   33.5990   27.3410   38.0750 H   0  0  0  0  0  0  0  0  0  0  0  0
   35.0840   27.7300   37.0010 H   0  0  0  0  0  0  0  0  0  0  0  0
   32.5130   29.7590   34.8510 C   0  0  0  0  0  0  0  0  0  0  0  0
   31.3890   30.3200   35.5270 C   0  0  0  0  0  0  0  0  0  0  0  0
   31.2820   30.0900   36.8870 C   0  0  0  0  0  0  0  0  0  0  0  0
   32.2180   29.3650   37.5140 N   0  0  0  0  0  0  0  0  0  0  0  0
   33.2690   28.8570   36.8160 C   0  0  0  0  0  0  0  0  0  0  0  0
   33.4270   29.0370   35.5230 N   0  0  0  0  0  0  0  0  0  0  0  0
   32.6460   29.9060   33.7860 H   0  0  0  0  0  0  0  0  0  0  0  0
   30.6600   30.8980   34.9780 H   0  0  0  0  0  0  0  0  0  0  0  0
   30.4400   30.5010   37.4280 H   0  0  0  0  0  0  0  0  0  0  0  0
  1 22  1  0  0  0  0
  1  6  1  0  0  0  0
  2  1  2  0  0  0  0
  3  2  1  0  0  0  0
  3  4  2  0  0  0  0
  4  5  1  0  0  0  0
  5  6  2  0  0  0  0
  5 10  1  0  0  0  0
  6 11  1  0  0  0  0
  7  2  1  0  0  0  0
  8  3  1  0  0  0  0
  9  4  1  0  0  0  0
 11 21  2  0  0  0  0
 11 12  1  0  0  0  0
 12 13  1  0  0  0  0
 12 14  2  0  0  0  0
 14 15  1  0  0  0  0
 16 17  1  0  0  0  0
 16 15  2  0  0  0  0
 18 17  2  0  0  0  0
 19 18  1  0  0  0  0
 20 19  2  0  0  0  0
 20 21  1  0  0  0  0
 21 16  1  0  0  0  0
 22 23  1  0  0  0  0
 22 24  1  0  0  0  0
 25 26  1  0  0  0  0
 25 22  1  0  0  0  0
 27 25  1  0  0  0  0
 28 33  2  0  0  0  0
 28 29  1  0  0  0  0
 29 30  2  0  0  0  0
 30 36  1  0  0  0  0
 30 31  1  0  0  0  0
 32 31  2  0  0  0  0
 32 25  1  0  0  0  0
 33 32  1  0  0  0  0
 34 28  1  0  0  0  0
 35 29  1  0  0  0  0
M  END
>  <minimizedAffinity>
-6.02667332

$$$$

 OpenBabel03242511433D

 36 39  0  0  0  0  0  0  0  0999 V2000
   35.9700   29.8380   38.8750 C   0  0  0  0  0  0  0  0  0  0  0  0
   35.4070   29.1240   37.8240 C   0  0  0  0  0  0  0  0  0  0  0  0
   35.8020   29.2530   36.5260 C   0  0  0  0  0  0  0  0  0  0  0  0
   36.8110   30.1420   36.2670 C   0  0  0  0  0  0  0  0  0  0  0  0
   37.3780   30.8590   37.3250 C   0  0  0  0  0  0  0  0  0  0  0  0
   36.9790   30.7270   38.6460 C   0  0  0  0  0  0  0  0  0  0  0  0
   34.6270   28.4750   38.2320 H   0  0  0  0  0  0  0  0  0  0  0  0
   35.2150   28.5950   35.9110 H   0  0  0  0  0  0  0  0  0  0  0  0
   37.0050   30.1260   35.1810 H   0  0  0  0  0  0  0  0  0  0  0  0
   38.1310   31.4610   36.7950 H   0  0  0  0  0  0  0  0  0  0  0  0
   37.8890   31.6900   39.2540 C   0  0  0  0  0  0  0  0  0  0  0  0
   37.2220   32.9260   39.3170 C   0  0  0  0  0  0  0  0  0  0  0  0
   36.2130   33.1720   39.0060 H   0  0  0  0  0  0  0  0  0  0  0  0
   37.8390   34.0540   39.8230 C   0  0  0  0  0  3  0  0  0  0  0  0
   39.1370   33.9560   40.2760 C   0  0  0  0  0  3  0  0  0  0  0  0
   39.7900   32.7460   40.2170 C   0  0  0  0  0  0  0  0  0  0  0  0
   41.0870   32.5450   40.6690 C   0  0  0  0  0  3  0  0  0  0  0  0
   41.6930   31.2930   40.6050 C   0  0  0  0  0  3  0  0  0  0  0  0
   41.0140   30.1910   40.0820 C   0  0  0  0  0  3  0  0  0  0  0  0
   39.7260   30.3490   39.6220 C   0  0  0  0  0  3  0  0  0  0  0  0
   39.1950   31.6180   39.7180 C   0  0  0  0  0  0  0  0  0  0  0  0
   35.6070   29.7650   40.3130 C   0  0  0  0  0  0  0  0  0  0  0  0
   34.5340   30.0400   40.4070 H   0  0  0  0  0  0  0  0  0  0  0  0
   36.1840   30.5460   40.7980 H   0  0  0  0  0  0  0  0  0  0  0  0
   35.8560   28.3870   40.8590 C   0  0  0  0  0  0  0  0  0  0  0  0
   36.2680   27.7970   39.9730 H   0  0  0  0  0  0  0  0  0  0  0  0
   35.0700   27.9160   41.4080 H   0  0  0  0  0  0  0  0  0  0  0  0
   38.5840   29.5910   43.0120 C   0  0  0  0  0  0  0  0  0  0  0  0
   39.5210   28.5200   42.9170 C   0  0  0  0  0  0  0  0  0  0  0  0
   39.1670   27.4290   42.1420 C   0  0  0  0  0  0  0  0  0  0  0  0
   37.9820   27.4140   41.5190 N   0  0  0  0  0  0  0  0  0  0  0  0
   37.1290   28.4660   41.6470 C   0  0  0  0  0  0  0  0  0  0  0  0
   37.4050   29.5300   42.3680 N   0  0  0  0  0  0  0  0  0  0  0  0
   38.8090   30.4690   43.6050 H   0  0  0  0  0  0  0  0  0  0  0  0
   40.4660   28.5800   43.4370 H   0  0  0  0  0  0  0  0  0  0  0  0
   39.8570   26.6010   42.0510 H   0  0  0  0  0  0  0  0  0  0  0  0
  1 22  1  0  0  0  0
  2  7  1  0  0  0  0
  2  1  2  0  0  0  0
  3  2  1  0  0  0  0
  4  3  2  0  0  0  0
  4  5  1  0  0  0  0
  5  6  2  0  0  0  0
  6  1  1  0  0  0  0
  6 11  1  0  0  0  0
  8  3  1  0  0  0  0
  9  4  1  0  0  0  0
 10  5  1  0  0  0  0
 11 12  2  0  0  0  0
 11 21  1  0  0  0  0
 12 14  1  0  0  0  0
 13 12  1  0  0  0  0
 14 15  2  0  0  0  0
 16 15  1  0  0  0  0
 16 17  1  0  0  0  0
 18 17  2  0  0  0  0
 19 18  1  0  0  0  0
 20 21  1  0  0  0  0
 20 19  2  0  0  0  0
 21 16  2  0  0  0  0
 22 23  1  0  0  0  0
 22 24  1  0  0  0  0
 22 25  1  0  0  0  0
 25 27  1  0  0  0  0
 25 32  1  0  0  0  0
 26 25  1  0  0  0  0
 28 34  1  0  0  0  0
 29 28  1  0  0  0  0
 29 35  1  0  0  0  0
 30 29  2  0  0  0  0
 31 32  2  0  0  0  0
 31 30  1  0  0  0  0
 32 33  1  0  0  0  0
 33 28  2  0  0  0  0
 36 30  1  0  0  0  0
M  END
>  <minimizedAffinity>
-6.02646065

$$$$

 OpenBabel03242511433D

 36 39  0  0  0  0  0  0  0  0999 V2000
   36.1320   30.0290   39.8900 C   0  0  0  0  0  0  0  0  0  0  0  0
   36.6240   31.0670   40.6710 C   0  0  0  0  0  0  0  0  0  0  0  0
   37.2770   32.1510   40.1620 C   0  0  0  0  0  0  0  0  0  0  0  0
   37.4460   32.1960   38.8040 C   0  0  0  0  0  0  0  0  0  0  0  0
   36.9490   31.1510   38.0180 C   0  0  0  0  0  0  0  0  0  0  0  0
   36.2830   30.0490   38.5350 C   0  0  0  0  0  0  0  0  0  0  0  0
   36.3920   30.8480   41.7170 H   0  0  0  0  0  0  0  0  0  0  0  0
   37.5540   32.8070   40.9680 H   0  0  0  0  0  0  0  0  0  0  0  0
   37.9870   33.1250   38.5610 H   0  0  0  0  0  0  0  0  0  0  0  0
   37.2390   31.4830   37.0110 H   0  0  0  0  0  0  0  0  0  0  0  0
   36.0260   29.3370   37.2900 C   0  0  0  0  0  0  0  0  0  0  0  0
   37.2680   29.0560   36.6950 C   0  0  0  0  0  0  0  0  0  0  0  0
   38.2640   29.2830   37.0590 H   0  0  0  0  0  0  0  0  0  0  0  0
   37.3570   28.4060   35.4790 C   0  0  0  0  0  3  0  0  0  0  0  0
   36.1950   28.0270   34.8410 C   0  0  0  0  0  3  0  0  0  0  0  0
   34.9780   28.2990   35.4230 C   0  0  0  0  0  0  0  0  0  0  0  0
   33.7580   27.9380   34.8690 C   0  0  0  0  0  3  0  0  0  0  0  0
   32.5550   28.2190   35.5110 C   0  0  0  0  0  3  0  0  0  0  0  0
   32.5350   28.8790   36.7410 C   0  0  0  0  0  3  0  0  0  0  0  0
   33.7230   29.2560   37.3240 C   0  0  0  0  0  3  0  0  0  0  0  0
   34.8720   28.9430   36.6270 C   0  0  0  0  0  0  0  0  0  0  0  0
   35.4120   28.8150   40.3530 C   0  0  0  0  0  0  0  0  0  0  0  0
   34.4800   28.7230   39.7520 H   0  0  0  0  0  0  0  0  0  0  0  0
   35.1180   29.0250   41.3760 H   0  0  0  0  0  0  0  0  0  0  0  0
   36.2700   27.5910   40.1980 C   0  0  0  0  0  0  0  0  0  0  0  0
   37.0900   27.9060   39.4680 H   0  0  0  0  0  0  0  0  0  0  0  0
   35.7870   26.6630   39.9830 H   0  0  0  0  0  0  0  0  0  0  0  0
   37.4380   27.7840   43.6800 C   0  0  0  0  0  0  0  0  0  0  0  0
   38.8170   27.4490   43.5410 C   0  0  0  0  0  0  0  0  0  0  0  0
   39.2770   27.1500   42.2700 C   0  0  0  0  0  0  0  0  0  0  0  0
   38.4300   27.1860   41.2330 N   0  0  0  0  0  0  0  0  0  0  0  0
   37.1240   27.5130   41.4270 C   0  0  0  0  0  0  0  0  0  0  0  0
   36.6260   27.8060   42.6080 N   0  0  0  0  0  0  0  0  0  0  0  0
   37.0240   28.0260   44.6510 H   0  0  0  0  0  0  0  0  0  0  0  0
   39.4610   27.4360   44.4080 H   0  0  0  0  0  0  0  0  0  0  0  0
   40.3180   26.8920   42.1330 H   0  0  0  0  0  0  0  0  0  0  0  0
  1 22  1  0  0  0  0
  1  2  1  0  0  0  0
  2  7  1  0  0  0  0
  3  2  2  0  0  0  0
  3  8  1  0  0  0  0
  4  3  1  0  0  0  0
  5  6  1  0  0  0  0
  5  4  2  0  0  0  0
  6  1  2  0  0  0  0
  9  4  1  0  0  0  0
 10  5  1  0  0  0  0
 11  6  1  0  0  0  0
 12 13  1  0  0  0  0
 12 11  1  0  0  0  0
 14 12  2  0  0  0  0
 15 16  2  0  0  0  0
 15 14  1  0  0  0  0
 16 21  1  0  0  0  0
 17 16  1  0  0  0  0
 17 18  2  0  0  0  0
 18 19  1  0  0  0  0
 19 20  2  0  0  0  0
 21 11  2  0  0  0  0
 21 20  1  0  0  0  0
 22 24  1  0  0  0  0
 23 22  1  0  0  0  0
 25 22  1  0  0  0  0
 25 32  1  0  0  0  0
 26 25  1  0  0  0  0
 27 25  1  0  0  0  0
 28 34  1  0  0  0  0
 29 28  1  0  0  0  0
 29 35  1  0  0  0  0
 30 29  2  0  0  0  0
 31 32  2  0  0  0  0
 31 30  1  0  0  0  0
 32 33  1  0  0  0  0
 33 28  2  0  0  0  0
 36 30  1  0  0  0  0
M  END
>  <minimizedAffinity>
-5.94570303

$$$$

 OpenBabel03242511433D

 36 39  0  0  0  0  0  0  0  0999 V2000
   36.5110   26.0290   39.1900 C   0  0  0  0  0  0  0  0  0  0  0  0
   36.0750   24.7820   38.7600 C   0  0  0  0  0  0  0  0  0  0  0  0
   36.0930   23.6640   39.5410 C   0  0  0  0  0  0  0  0  0  0  0  0
   36.5710   23.8030   40.8170 C   0  0  0  0  0  0  0  0  0  0  0  0
   37.0080   25.0590   41.2500 C   0  0  0  0  0  0  0  0  0  0  0  0
   36.9880   26.1970   40.4570 C   0  0  0  0  0  0  0  0  0  0  0  0
   35.7350   24.8770   37.7240 H   0  0  0  0  0  0  0  0  0  0  0  0
   35.7050   22.8340   38.9780 H   0  0  0  0  0  0  0  0  0  0  0  0
   36.5190   22.8170   41.3060 H   0  0  0  0  0  0  0  0  0  0  0  0
   37.3180   24.8340   42.2810 H   0  0  0  0  0  0  0  0  0  0  0  0
   37.5450   27.1470   41.4110 C   0  0  0  0  0  0  0  0  0  0  0  0
   36.7390   27.1170   42.5620 C   0  0  0  0  0  0  0  0  0  0  0  0
   35.8670   26.5070   42.7670 H   0  0  0  0  0  0  0  0  0  0  0  0
   36.9970   27.9350   43.6450 C   0  0  0  0  0  3  0  0  0  0  0  0
   38.0720   28.7960   43.5880 C   0  0  0  0  0  3  0  0  0  0  0  0
   38.8630   28.8250   42.4630 C   0  0  0  0  0  0  0  0  0  0  0  0
   39.9770   29.6400   42.3220 C   0  0  0  0  0  3  0  0  0  0  0  0
   40.7570   29.6140   41.1680 C   0  0  0  0  0  3  0  0  0  0  0  0
   40.4420   28.7620   40.1080 C   0  0  0  0  0  3  0  0  0  0  0  0
   39.3440   27.9380   40.2080 C   0  0  0  0  0  3  0  0  0  0  0  0
   38.6220   28.0220   41.3800 C   0  0  0  0  0  0  0  0  0  0  0  0
   36.5290   27.2960   38.4150 C   0  0  0  0  0  0  0  0  0  0  0  0
   36.4590   27.0340   37.3360 H   0  0  0  0  0  0  0  0  0  0  0  0
   37.5130   27.7230   38.5810 H   0  0  0  0  0  0  0  0  0  0  0  0
   35.3930   28.1910   38.8230 C   0  0  0  0  0  0  0  0  0  0  0  0
   35.0690   27.7960   39.8450 H   0  0  0  0  0  0  0  0  0  0  0  0
   34.6080   28.3580   38.1190 H   0  0  0  0  0  0  0  0  0  0  0  0
   37.4790   31.2110   39.0460 C   0  0  0  0  0  0  0  0  0  0  0  0
   37.1340   31.7060   40.3380 C   0  0  0  0  0  0  0  0  0  0  0  0
   36.1890   31.0000   41.0620 C   0  0  0  0  0  0  0  0  0  0  0  0
   35.6410   29.8960   40.5370 N   0  0  0  0  0  0  0  0  0  0  0  0
   36.0110   29.4720   39.2980 C   0  0  0  0  0  0  0  0  0  0  0  0
   36.9010   30.0980   38.5610 N   0  0  0  0  0  0  0  0  0  0  0  0
   38.2120   31.7260   38.4360 H   0  0  0  0  0  0  0  0  0  0  0  0
   37.6050   32.6010   40.7190 H   0  0  0  0  0  0  0  0  0  0  0  0
   35.9060   31.3500   42.0450 H   0  0  0  0  0  0  0  0  0  0  0  0
  1  6  1  0  0  0  0
  2  1  2  0  0  0  0
  2  3  1  0  0  0  0
  3  4  2  0  0  0  0
  4  5  1  0  0  0  0
  4  9  1  0  0  0  0
  5 10  1  0  0  0  0
  6  5  2  0  0  0  0
  6 11  1  0  0  0  0
  7  2  1  0  0  0  0
  8  3  1  0  0  0  0
 11 12  1  0  0  0  0
 12 13  1  0  0  0  0
 12 14  2  0  0  0  0
 15 14  1  0  0  0  0
 16 15  2  0  0  0  0
 17 16  1  0  0  0  0
 18 17  2  0  0  0  0
 19 20  2  0  0  0  0
 19 18  1  0  0  0  0
 20 21  1  0  0  0  0
 21 11  2  0  0  0  0
 21 16  1  0  0  0  0
 22 24  1  0  0  0  0
 22 25  1  0  0  0  0
 22  1  1  0  0  0  0
 23 22  1  0  0  0  0
 25 32  1  0  0  0  0
 25 26  1  0  0  0  0
 27 25  1  0  0  0  0
 28 29  1  0  0  0  0
 29 35  1  0  0  0  0
 29 30  2  0  0  0  0
 30 36  1  0  0  0  0
 31 30  1  0  0  0  0
 32 31  2  0  0  0  0
 33 28  2  0  0  0  0
 33 32  1  0  0  0  0
 34 28  1  0  0  0  0
M  END
>  <minimizedAffinity>
-5.94257593

$$$$

 OpenBabel03242511433D

 36 39  0  0  0  0  0  0  0  0999 V2000
   35.4030   29.3340   39.1870 C   0  0  0  0  0  0  0  0  0  0  0  0
   34.3390   28.8130   38.4590 C   0  0  0  0  0  0  0  0  0  0  0  0
   34.3230   28.7340   37.0980 C   0  0  0  0  0  0  0  0  0  0  0  0
   35.4260   29.2000   36.4330 C   0  0  0  0  0  0  0  0  0  0  0  0
   36.4960   29.7220   37.1670 C   0  0  0  0  0  0  0  0  0  0  0  0
   36.5150   29.8010   38.5510 C   0  0  0  0  0  0  0  0  0  0  0  0
   33.5640   28.4990   39.1640 H   0  0  0  0  0  0  0  0  0  0  0  0
   33.3940   28.2950   36.7800 H   0  0  0  0  0  0  0  0  0  0  0  0
   35.2520   29.0660   35.3530 H   0  0  0  0  0  0  0  0  0  0  0  0
   37.1940   29.9970   36.3620 H   0  0  0  0  0  0  0  0  0  0  0  0
   37.8270   30.4120   38.7250 C   0  0  0  0  0  0  0  0  0  0  0  0
   38.7930   29.4480   38.3890 C   0  0  0  0  0  0  0  0  0  0  0  0
   38.6490   28.4320   38.0400 H   0  0  0  0  0  0  0  0  0  0  0  0
   40.1450   29.7190   38.4790 C   0  0  0  0  0  3  0  0  0  0  0  0
   40.5460   30.9660   38.9090 C   0  0  0  0  0  3  0  0  0  0  0  0
   39.6010   31.9110   39.2350 C   0  0  0  0  0  0  0  0  0  0  0  0
   39.9080   33.1980   39.6550 C   0  0  0  0  0  3  0  0  0  0  0  0
   38.9110   34.1230   39.9530 C   0  0  0  0  0  3  0  0  0  0  0  0
   37.5610   33.7850   39.8400 C   0  0  0  0  0  3  0  0  0  0  0  0
   37.2150   32.5190   39.4290 C   0  0  0  0  0  3  0  0  0  0  0  0
   38.2580   31.6600   39.1530 C   0  0  0  0  0  0  0  0  0  0  0  0
   35.5090   29.4600   40.6630 C   0  0  0  0  0  0  0  0  0  0  0  0
   34.4870   29.6390   41.0630 H   0  0  0  0  0  0  0  0  0  0  0  0
   36.0870   30.3620   40.8360 H   0  0  0  0  0  0  0  0  0  0  0  0
   36.1100   28.2210   41.2650 C   0  0  0  0  0  0  0  0  0  0  0  0
   36.4110   27.5820   40.3680 H   0  0  0  0  0  0  0  0  0  0  0  0
   35.5600   27.7180   42.0310 H   0  0  0  0  0  0  0  0  0  0  0  0
   38.9960   30.0960   42.5600 C   0  0  0  0  0  0  0  0  0  0  0  0
   40.0600   29.1680   42.3550 C   0  0  0  0  0  0  0  0  0  0  0  0
   39.7370   27.9380   41.8070 C   0  0  0  0  0  0  0  0  0  0  0  0
   38.4640   27.6650   41.4930 N   0  0  0  0  0  0  0  0  0  0  0  0
   37.4920   28.5920   41.7100 C   0  0  0  0  0  0  0  0  0  0  0  0
   37.7330   29.7760   42.2280 N   0  0  0  0  0  0  0  0  0  0  0  0
   39.1910   31.0730   42.9860 H   0  0  0  0  0  0  0  0  0  0  0  0
   41.0710   29.4350   42.6230 H   0  0  0  0  0  0  0  0  0  0  0  0
   40.5210   27.2130   41.6400 H   0  0  0  0  0  0  0  0  0  0  0  0
  1 22  1  0  0  0  0
  2  7  1  0  0  0  0
  2  1  2  0  0  0  0
  3  2  1  0  0  0  0
  4  3  2  0  0  0  0
  4  5  1  0  0  0  0
  5  6  2  0  0  0  0
  6 11  1  0  0  0  0
  6  1  1  0  0  0  0
  8  3  1  0  0  0  0
  9  4  1  0  0  0  0
 10  5  1  0  0  0  0
 11 21  1  0  0  0  0
 12 14  1  0  0  0  0
 12 11  2  0  0  0  0
 13 12  1  0  0  0  0
 14 15  2  0  0  0  0
 15 16  1  0  0  0  0
 16 17  1  0  0  0  0
 17 18  2  0  0  0  0
 19 18  1  0  0  0  0
 20 19  2  0  0  0  0
 21 16  2  0  0  0  0
 21 20  1  0  0  0  0
 22 24  1  0  0  0  0
 22 23  1  0  0  0  0
 22 25  1  0  0  0  0
 25 32  1  0  0  0  0
 25 27  1  0  0  0  0
 26 25  1  0  0  0  0
 28 34  1  0  0  0  0
 29 28  1  0  0  0  0
 29 35  1  0  0  0  0
 30 29  2  0  0  0  0
 31 32  2  0  0  0  0
 31 30  1  0  0  0  0
 32 33  1  0  0  0  0
 33 28  2  0  0  0  0
 36 30  1  0  0  0  0
M  END
>  <minimizedAffinity>
-5.90926647

$$$$

 OpenBabel03242511433D

 36 39  0  0  0  0  0  0  0  0999 V2000
   38.0140   28.9760   41.2970 C   0  0  0  0  0  0  0  0  0  0  0  0
   38.2280   29.3220   42.6260 C   0  0  0  0  0  0  0  0  0  0  0  0
   37.7000   28.6350   43.6790 C   0  0  0  0  0  0  0  0  0  0  0  0
   36.9190   27.5490   43.3870 C   0  0  0  0  0  0  0  0  0  0  0  0
   36.7060   27.2010   42.0490 C   0  0  0  0  0  0  0  0  0  0  0  0
   37.2440   27.8970   40.9780 C   0  0  0  0  0  0  0  0  0  0  0  0
   38.8700   30.2070   42.6490 H   0  0  0  0  0  0  0  0  0  0  0  0
   38.0130   29.1010   44.5970 H   0  0  0  0  0  0  0  0  0  0  0  0
   36.5740   27.1150   44.3400 H   0  0  0  0  0  0  0  0  0  0  0  0
   36.0600   26.3170   42.1590 H   0  0  0  0  0  0  0  0  0  0  0  0
   36.6890   27.1000   39.8900 C   0  0  0  0  0  0  0  0  0  0  0  0
   37.3370   25.8530   39.9020 C   0  0  0  0  0  0  0  0  0  0  0  0
   38.0990   25.4880   40.5810 H   0  0  0  0  0  0  0  0  0  0  0  0
   37.0460   24.8800   38.9660 C   0  0  0  0  0  3  0  0  0  0  0  0
   36.0970   25.1450   38.0020 C   0  0  0  0  0  3  0  0  0  0  0  0
   35.4600   26.3650   37.9920 C   0  0  0  0  0  0  0  0  0  0  0  0
   34.4760   26.7150   37.0770 C   0  0  0  0  0  3  0  0  0  0  0  0
   33.8480   27.9570   37.1240 C   0  0  0  0  0  3  0  0  0  0  0  0
   34.1880   28.8980   38.0980 C   0  0  0  0  0  3  0  0  0  0  0  0
   35.1600   28.5900   39.0230 C   0  0  0  0  0  3  0  0  0  0  0  0
   35.7360   27.3420   38.9100 C   0  0  0  0  0  0  0  0  0  0  0  0
   38.5450   29.6600   40.0900 C   0  0  0  0  0  0  0  0  0  0  0  0
   38.5390   28.9260   39.2540 H   0  0  0  0  0  0  0  0  0  0  0  0
   39.5820   29.8840   40.3160 H   0  0  0  0  0  0  0  0  0  0  0  0
   37.7150   30.8660   39.7500 C   0  0  0  0  0  0  0  0  0  0  0  0
   37.1780   31.1290   40.7220 H   0  0  0  0  0  0  0  0  0  0  0  0
   37.1020   30.8230   38.8760 H   0  0  0  0  0  0  0  0  0  0  0  0
   40.5780   33.0540   39.0140 C   0  0  0  0  0  0  0  0  0  0  0  0
   40.3250   34.1610   39.8770 C   0  0  0  0  0  0  0  0  0  0  0  0
   39.1780   34.1190   40.6510 C   0  0  0  0  0  0  0  0  0  0  0  0
   38.3600   33.0610   40.5670 N   0  0  0  0  0  0  0  0  0  0  0  0
   38.6550   32.0340   39.7250 C   0  0  0  0  0  0  0  0  0  0  0  0
   39.7260   32.0150   38.9640 N   0  0  0  0  0  0  0  0  0  0  0  0
   41.4600   33.0350   38.3860 H   0  0  0  0  0  0  0  0  0  0  0  0
   41.0160   34.9910   39.9110 H   0  0  0  0  0  0  0  0  0  0  0  0
   38.9580   34.9430   41.3150 H   0  0  0  0  0  0  0  0  0  0  0  0
  1  2  1  0  0  0  0
  2  7  1  0  0  0  0
  2  3  2  0  0  0  0
  3  8  1  0  0  0  0
  4  3  1  0  0  0  0
  4  9  1  0  0  0  0
  5 10  1  0  0  0  0
  5  4  2  0  0  0  0
  6  1  2  0  0  0  0
  6  5  1  0  0  0  0
 11 12  1  0  0  0  0
 11  6  1  0  0  0  0
 12 13  1  0  0  0  0
 14 12  2  0  0  0  0
 15 14  1  0  0  0  0
 16 15  2  0  0  0  0
 16 21  1  0  0  0  0
 17 18  2  0  0  0  0
 17 16  1  0  0  0  0
 18 19  1  0  0  0  0
 19 20  2  0  0  0  0
 21 20  1  0  0  0  0
 21 11  2  0  0  0  0
 22 24  1  0  0  0  0
 22  1  1  0  0  0  0
 23 22  1  0  0  0  0
 25 22  1  0  0  0  0
 25 26  1  0  0  0  0
 27 25  1  0  0  0  0
 28 29  1  0  0  0  0
 29 35  1  0  0  0  0
 29 30  2  0  0  0  0
 30 36  1  0  0  0  0
 31 30  1  0  0  0  0
 32 25  1  0  0  0  0
 32 31  2  0  0  0  0
 33 28  2  0  0  0  0
 33 32  1  0  0  0  0
 34 28  1  0  0  0  0
M  END
>  <minimizedAffinity>
-5.86528921

$$$$

 OpenBabel03242511433D

 36 39  0  0  0  0  0  0  0  0999 V2000
   36.1490   27.7460   38.6290 C   0  0  0  0  0  0  0  0  0  0  0  0
   35.0560   27.8560   37.7780 C   0  0  0  0  0  0  0  0  0  0  0  0
   33.9400   28.5830   38.0720 C   0  0  0  0  0  0  0  0  0  0  0  0
   33.9180   29.2310   39.2780 C   0  0  0  0  0  0  0  0  0  0  0  0
   35.0200   29.1210   40.1330 C   0  0  0  0  0  0  0  0  0  0  0  0
   36.1550   28.3840   39.8340 C   0  0  0  0  0  0  0  0  0  0  0  0
   35.2640   27.2720   36.8770 H   0  0  0  0  0  0  0  0  0  0  0  0
   33.2440   28.5080   37.2550 H   0  0  0  0  0  0  0  0  0  0  0  0
   32.9560   29.7640   39.3580 H   0  0  0  0  0  0  0  0  0  0  0  0
   34.6930   29.7370   40.9830 H   0  0  0  0  0  0  0  0  0  0  0  0
   36.9130   28.6330   41.0540 C   0  0  0  0  0  0  0  0  0  0  0  0
   36.3750   27.8180   42.0640 C   0  0  0  0  0  0  0  0  0  0  0  0
   35.5630   27.1030   42.0020 H   0  0  0  0  0  0  0  0  0  0  0  0
   36.8680   27.8480   43.3550 C   0  0  0  0  0  3  0  0  0  0  0  0
   37.9110   28.7000   43.6490 C   0  0  0  0  0  3  0  0  0  0  0  0
   38.4410   29.4970   42.6600 C   0  0  0  0  0  0  0  0  0  0  0  0
   39.5040   30.3670   42.8550 C   0  0  0  0  0  3  0  0  0  0  0  0
   40.0150   31.1360   41.8120 C   0  0  0  0  0  3  0  0  0  0  0  0
   39.4720   31.0570   40.5290 C   0  0  0  0  0  3  0  0  0  0  0  0
   38.4150   30.2080   40.2950 C   0  0  0  0  0  3  0  0  0  0  0  0
   37.9650   29.4810   41.3760 C   0  0  0  0  0  0  0  0  0  0  0  0
   37.4000   26.9810   38.3960 C   0  0  0  0  0  0  0  0  0  0  0  0
   38.1750   27.3770   39.0890 H   0  0  0  0  0  0  0  0  0  0  0  0
   37.7110   27.2330   37.3870 H   0  0  0  0  0  0  0  0  0  0  0  0
   37.1810   25.5120   38.6230 C   0  0  0  0  0  0  0  0  0  0  0  0
   37.9880   25.0000   37.9980 H   0  0  0  0  0  0  0  0  0  0  0  0
   36.1900   25.1290   38.5080 H   0  0  0  0  0  0  0  0  0  0  0  0
   37.6150   24.2320   42.0430 C   0  0  0  0  0  0  0  0  0  0  0  0
   38.8560   24.8260   42.4190 C   0  0  0  0  0  0  0  0  0  0  0  0
   39.4970   25.6150   41.4790 C   0  0  0  0  0  0  0  0  0  0  0  0
   38.9420   25.7930   40.2730 N   0  0  0  0  0  0  0  0  0  0  0  0
   37.7550   25.2000   39.9730 C   0  0  0  0  0  0  0  0  0  0  0  0
   37.0980   24.4390   40.8190 N   0  0  0  0  0  0  0  0  0  0  0  0
   37.0720   23.6040   42.7390 H   0  0  0  0  0  0  0  0  0  0  0  0
   39.2630   24.6540   43.4050 H   0  0  0  0  0  0  0  0  0  0  0  0
   40.4400   26.0790   41.7340 H   0  0  0  0  0  0  0  0  0  0  0  0
  1  6  1  0  0  0  0
  2  3  1  0  0  0  0
  2  1  2  0  0  0  0
  3  4  2  0  0  0  0
  4  9  1  0  0  0  0
  4  5  1  0  0  0  0
  5 10  1  0  0  0  0
  6  5  2  0  0  0  0
  6 11  1  0  0  0  0
  7  2  1  0  0  0  0
  8  3  1  0  0  0  0
 11 21  2  0  0  0  0
 11 12  1  0  0  0  0
 12 14  2  0  0  0  0
 13 12  1  0  0  0  0
 14 15  1  0  0  0  0
 16 17  1  0  0  0  0
 16 15  2  0  0  0  0
 18 17  2  0  0  0  0
 19 18  1  0  0  0  0
 20 19  2  0  0  0  0
 20 21  1  0  0  0  0
 21 16  1  0  0  0  0
 22 25  1  0  0  0  0
 22  1  1  0  0  0  0
 22 23  1  0  0  0  0
 24 22  1  0  0  0  0
 25 32  1  0  0  0  0
 26 25  1  0  0  0  0
 27 25  1  0  0  0  0
 28 29  1  0  0  0  0
 28 34  1  0  0  0  0
 29 35  1  0  0  0  0
 30 36  1  0  0  0  0
 30 29  2  0  0  0  0
 31 30  1  0  0  0  0
 32 31  2  0  0  0  0
 32 33  1  0  0  0  0
 33 28  2  0  0  0  0
M  END
>  <minimizedAffinity>
-5.81005621

$$$$
