
 OpenBabel03242519083D

 45 49  0  0  1  0  0  0  0  0999 V2000
   40.6660   31.1120   38.4540 N   0  0  0  0  0  0  0  0  0  0  0  0
   40.9090   30.4240   37.7020 H   0  0  0  0  0  0  0  0  0  0  0  0
   42.2380   33.9450   39.9270 N   0  0  0  0  0  0  0  0  0  0  0  0
   41.3750   32.7860   40.1040 C   0  0  0  0  0  0  0  0  0  0  0  0
   41.6330   32.1120   38.7830 C   0  0  2  0  0  0  0  0  0  0  0  0
   41.4410   33.2620   37.8150 C   0  0  0  0  0  0  0  0  0  0  0  0
   42.0100   34.4300   38.5800 C   0  0  0  0  0  0  0  0  0  0  0  0
   41.6720   32.1660   40.9680 H   0  0  0  0  0  0  0  0  0  0  0  0
   40.3300   33.1480   40.1620 H   0  0  0  0  0  0  0  0  0  0  0  0
   42.6630   31.7310   38.7890 H   0  0  0  0  0  0  0  0  0  0  0  0
   40.3460   33.3750   37.6340 H   0  0  0  0  0  0  0  0  0  0  0  0
   41.9370   33.0840   36.8450 H   0  0  0  0  0  0  0  0  0  0  0  0
   42.9900   34.7160   38.1630 H   0  0  0  0  0  0  0  0  0  0  0  0
   41.2840   35.2850   38.5770 H   0  0  0  0  0  0  0  0  0  0  0  0
   45.3100   34.9950   41.7550 C   0  0  0  0  0  0  0  0  0  0  0  0
   44.5120   34.3390   40.8170 C   0  0  0  0  0  0  0  0  0  0  0  0
   43.1410   34.5480   40.8180 C   0  0  0  0  0  0  0  0  0  0  0  0
   42.6460   35.4020   41.7570 N   0  0  0  0  0  0  0  0  0  0  0  0
   43.4060   36.0350   42.6590 C   0  0  0  0  0  0  0  0  0  0  0  0
   44.7380   35.8370   42.6640 N   0  0  0  0  0  0  0  0  0  0  0  0
   46.3920   34.8450   41.7710 H   0  0  0  0  0  0  0  0  0  0  0  0
   44.9260   33.6730   40.0900 H   0  0  0  0  0  0  0  0  0  0  0  0
   42.9910   36.7090   43.3970 H   0  0  0  0  0  0  0  0  0  0  0  0
   39.1120   29.8920   39.9590 C   0  0  0  0  0  0  0  0  0  0  0  0
   39.3760   30.8380   38.9550 C   0  0  0  0  0  0  0  0  0  0  0  0
   38.2590   31.4800   38.5000 C   0  0  0  0  0  0  0  0  0  0  0  0
   36.9680   31.2770   38.9290 C   0  0  0  0  0  0  0  0  0  0  0  0
   36.7510   30.3490   39.9060 C   0  0  0  0  0  0  0  0  0  0  0  0
   37.8340   29.6570   40.4200 C   0  0  0  0  0  0  0  0  0  0  0  0
   38.3910   32.2250   37.7230 H   0  0  0  0  0  0  0  0  0  0  0  0
   36.1170   31.8090   38.5390 H   0  0  0  0  0  0  0  0  0  0  0  0
   35.7540   30.1590   40.2730 H   0  0  0  0  0  0  0  0  0  0  0  0
   37.5660   28.6700   41.4640 C   0  0  0  0  0  0  0  0  0  0  0  0
   37.5870   29.2400   42.7360 C   0  0  0  0  0  0  0  0  0  0  0  0
   37.7760   30.2820   42.9520 H   0  0  0  0  0  0  0  0  0  0  0  0
   37.3520   28.4550   43.8580 C   0  0  0  0  0  3  0  0  0  0  0  0
   37.1010   27.1030   43.6490 C   0  0  0  0  0  3  0  0  0  0  0  0
   37.0800   26.5370   42.3940 C   0  0  0  0  0  0  0  0  0  0  0  0
   36.8360   25.2080   42.1530 C   0  0  0  0  0  3  0  0  0  0  0  0
   36.8230   24.6750   40.8730 C   0  0  0  0  0  3  0  0  0  0  0  0
   37.0660   25.5240   39.8090 C   0  0  0  0  0  3  0  0  0  0  0  0
   37.3210   26.8820   39.9870 C   0  0  0  0  0  3  0  0  0  0  0  0
   37.3130   27.3250   41.2980 C   0  0  0  0  0  0  0  0  0  0  0  0
   41.1400   28.5850   40.9460 N   0  0  0  0  0  0  0  0  0  0  0  0
   40.2360   29.1620   40.5020 C   0  0  0  0  0  0  0  0  0  0  0  0
  1  5  1  0  0  0  0
  1 25  1  0  0  0  0
  2  1  1  0  0  0  0
  3  4  1  0  0  0  0
  3 17  1  0  0  0  0
  4  9  1  0  0  0  0
  4  8  1  0  0  0  0
  5 10  1  6  0  0  0
  5  4  1  0  0  0  0
  6  7  1  0  0  0  0
  6  5  1  0  0  0  0
  7  3  1  0  0  0  0
 11  6  1  0  0  0  0
 12  6  1  0  0  0  0
 13  7  1  0  0  0  0
 14  7  1  0  0  0  0
 15 21  1  0  0  0  0
 15 20  1  0  0  0  0
 16 17  1  0  0  0  0
 16 15  2  0  0  0  0
 17 18  2  0  0  0  0
 18 19  1  0  0  0  0
 19 20  2  0  0  0  0
 19 23  1  0  0  0  0
 22 16  1  0  0  0  0
 24 29  1  0  0  0  0
 24 45  1  0  0  0  0
 25 24  2  0  0  0  0
 26 27  2  0  0  0  0
 26 25  1  0  0  0  0
 27 28  1  0  0  0  0
 28 32  1  0  0  0  0
 28 29  2  0  0  0  0
 29 33  1  0  0  0  0
 30 26  1  0  0  0  0
 31 27  1  0  0  0  0
 33 34  1  0  0  0  0
 34 35  1  0  0  0  0
 34 36  2  0  0  0  0
 37 36  1  0  0  0  0
 38 37  2  0  0  0  0
 39 38  1  0  0  0  0
 40 39  2  0  0  0  0
 41 42  2  0  0  0  0
 41 40  1  0  0  0  0
 42 43  1  0  0  0  0
 43 33  2  0  0  0  0
 43 38  1  0  0  0  0
 45 44  3  0  0  0  0
M  END
>  <minimizedAffinity>
-6.89017868

$$$$

 OpenBabel03242519083D

 45 49  0  0  1  0  0  0  0  0999 V2000
   38.5530   29.3900   42.5940 N   0  0  0  0  0  0  0  0  0  0  0  0
   38.9180   29.7940   43.4900 H   0  0  0  0  0  0  0  0  0  0  0  0
   37.8330   26.1170   41.3960 N   0  0  0  0  0  0  0  0  0  0  0  0
   38.1900   27.4920   41.0790 C   0  0  0  0  0  0  0  0  0  0  0  0
   38.5090   27.9660   42.4720 C   0  0  2  0  0  0  0  0  0  0  0  0
   37.2940   27.4840   43.2400 C   0  0  0  0  0  0  0  0  0  0  0  0
   36.9880   26.1670   42.5730 C   0  0  0  0  0  0  0  0  0  0  0  0
   39.0540   27.5580   40.3950 H   0  0  0  0  0  0  0  0  0  0  0  0
   37.2830   27.9960   40.6920 H   0  0  0  0  0  0  0  0  0  0  0  0
   39.4360   27.4760   42.7960 H   0  0  0  0  0  0  0  0  0  0  0  0
   36.4770   28.2300   43.0870 H   0  0  0  0  0  0  0  0  0  0  0  0
   37.4870   27.3990   44.3230 H   0  0  0  0  0  0  0  0  0  0  0  0
   37.2860   25.3320   43.2280 H   0  0  0  0  0  0  0  0  0  0  0  0
   35.9030   26.1190   42.2930 H   0  0  0  0  0  0  0  0  0  0  0  0
   38.1090   22.5450   40.3710 C   0  0  0  0  0  0  0  0  0  0  0  0
   37.6820   23.6670   41.0810 C   0  0  0  0  0  0  0  0  0  0  0  0
   38.1850   24.9180   40.7550 C   0  0  0  0  0  0  0  0  0  0  0  0
   39.0870   24.9740   39.7350 N   0  0  0  0  0  0  0  0  0  0  0  0
   39.5010   23.9020   39.0490 C   0  0  0  0  0  0  0  0  0  0  0  0
   39.0160   22.6840   39.3610 N   0  0  0  0  0  0  0  0  0  0  0  0
   37.7250   21.5510   40.6120 H   0  0  0  0  0  0  0  0  0  0  0  0
   36.9720   23.5950   41.8780 H   0  0  0  0  0  0  0  0  0  0  0  0
   40.2190   23.9700   38.2420 H   0  0  0  0  0  0  0  0  0  0  0  0
   39.0380   31.4910   41.3620 C   0  0  0  0  0  0  0  0  0  0  0  0
   38.1880   30.4290   41.7140 C   0  0  0  0  0  0  0  0  0  0  0  0
   36.9590   30.4920   41.1190 C   0  0  0  0  0  0  0  0  0  0  0  0
   36.5190   31.4640   40.2520 C   0  0  0  0  0  0  0  0  0  0  0  0
   37.3730   32.4800   39.9340 C   0  0  0  0  0  0  0  0  0  0  0  0
   38.6390   32.4860   40.4960 C   0  0  0  0  0  0  0  0  0  0  0  0
   36.2510   29.7020   41.3480 H   0  0  0  0  0  0  0  0  0  0  0  0
   35.5390   31.4710   39.8080 H   0  0  0  0  0  0  0  0  0  0  0  0
   37.0690   33.2640   39.2570 H   0  0  0  0  0  0  0  0  0  0  0  0
   39.5280   33.5890   40.1340 C   0  0  0  0  0  0  0  0  0  0  0  0
   39.2670   34.7350   40.8840 C   0  0  0  0  0  0  0  0  0  0  0  0
   38.5070   34.8240   41.6460 H   0  0  0  0  0  0  0  0  0  0  0  0
   40.0150   35.8880   40.6800 C   0  0  0  0  0  3  0  0  0  0  0  0
   41.0130   35.8400   39.7120 C   0  0  0  0  0  3  0  0  0  0  0  0
   41.2710   34.7090   38.9700 C   0  0  0  0  0  0  0  0  0  0  0  0
   42.2470   34.6280   38.0070 C   0  0  0  0  0  3  0  0  0  0  0  0
   42.4780   33.4700   37.2800 C   0  0  0  0  0  3  0  0  0  0  0  0
   41.6910   32.3650   37.5430 C   0  0  0  0  0  3  0  0  0  0  0  0
   40.6840   32.3830   38.5070 C   0  0  0  0  0  3  0  0  0  0  0  0
   40.5260   33.5800   39.1830 C   0  0  0  0  0  0  0  0  0  0  0  0
   41.4240   31.5090   42.4100 N   0  0  0  0  0  0  0  0  0  0  0  0
   40.3620   31.5080   41.9430 C   0  0  0  0  0  0  0  0  0  0  0  0
  1  2  1  0  0  0  0
  3  7  1  0  0  0  0
  4  3  1  0  0  0  0
  4  5  1  0  0  0  0
  5  1  1  0  0  0  0
  5 10  1  1  0  0  0
  5  6  1  0  0  0  0
  6 12  1  0  0  0  0
  7 13  1  0  0  0  0
  7  6  1  0  0  0  0
  8  4  1  0  0  0  0
  9  4  1  0  0  0  0
 11  6  1  0  0  0  0
 14  7  1  0  0  0  0
 15 21  1  0  0  0  0
 15 16  1  0  0  0  0
 16 22  1  0  0  0  0
 17 16  2  0  0  0  0
 17  3  1  0  0  0  0
 18 17  1  0  0  0  0
 19 20  1  0  0  0  0
 19 18  2  0  0  0  0
 20 15  2  0  0  0  0
 23 19  1  0  0  0  0
 24 25  1  0  0  0  0
 24 45  1  0  0  0  0
 25  1  1  0  0  0  0
 26 30  1  0  0  0  0
 26 25  2  0  0  0  0
 27 26  1  0  0  0  0
 28 27  2  0  0  0  0
 28 29  1  0  0  0  0
 29 24  2  0  0  0  0
 31 27  1  0  0  0  0
 32 28  1  0  0  0  0
 33 29  1  0  0  0  0
 33 34  1  0  0  0  0
 34 35  1  0  0  0  0
 36 34  2  0  0  0  0
 37 36  1  0  0  0  0
 38 43  1  0  0  0  0
 38 37  2  0  0  0  0
 39 38  1  0  0  0  0
 40 41  1  0  0  0  0
 40 39  2  0  0  0  0
 41 42  2  0  0  0  0
 42 43  1  0  0  0  0
 43 33  2  0  0  0  0
 45 44  3  0  0  0  0
M  END
>  <minimizedAffinity>
-6.8647666

$$$$

 OpenBabel03242519083D

 45 49  0  0  1  0  0  0  0  0999 V2000
   40.5600   32.8990   38.7980 N   0  0  0  0  0  0  0  0  0  0  0  0
   40.7510   32.6150   37.8070 H   0  0  0  0  0  0  0  0  0  0  0  0
   42.4990   34.3980   41.3790 N   0  0  0  0  0  0  0  0  0  0  0  0
   41.7870   33.2230   40.9000 C   0  0  0  0  0  0  0  0  0  0  0  0
   41.5590   33.6630   39.4790 C   0  0  2  0  0  0  0  0  0  0  0  0
   41.0010   35.0570   39.6820 C   0  0  0  0  0  0  0  0  0  0  0  0
   41.7850   35.5520   40.8710 C   0  0  0  0  0  0  0  0  0  0  0  0
   42.3930   32.3020   40.9720 H   0  0  0  0  0  0  0  0  0  0  0  0
   40.8280   33.1610   41.4500 H   0  0  0  0  0  0  0  0  0  0  0  0
   42.5270   33.6660   38.9620 H   0  0  0  0  0  0  0  0  0  0  0  0
   39.9130   34.9590   39.9100 H   0  0  0  0  0  0  0  0  0  0  0  0
   41.1110   35.6900   38.7830 H   0  0  0  0  0  0  0  0  0  0  0  0
   42.5370   36.2910   40.5480 H   0  0  0  0  0  0  0  0  0  0  0  0
   41.0880   35.9690   41.6460 H   0  0  0  0  0  0  0  0  0  0  0  0
   45.5160   35.6370   43.1810 C   0  0  0  0  0  0  0  0  0  0  0  0
   44.3830   35.6610   42.3670 C   0  0  0  0  0  0  0  0  0  0  0  0
   43.6520   34.4980   42.1740 C   0  0  0  0  0  0  0  0  0  0  0  0
   44.0970   33.3770   42.8070 N   0  0  0  0  0  0  0  0  0  0  0  0
   45.1820   33.3460   43.5900 C   0  0  0  0  0  0  0  0  0  0  0  0
   45.8960   34.4720   43.7820 N   0  0  0  0  0  0  0  0  0  0  0  0
   46.1050   36.5420   43.3470 H   0  0  0  0  0  0  0  0  0  0  0  0
   44.0560   36.5550   41.8810 H   0  0  0  0  0  0  0  0  0  0  0  0
   45.5180   32.4430   44.0830 H   0  0  0  0  0  0  0  0  0  0  0  0
   39.0240   31.0680   39.4740 C   0  0  0  0  0  0  0  0  0  0  0  0
   39.2960   32.4180   39.1990 C   0  0  0  0  0  0  0  0  0  0  0  0
   38.2140   33.2380   39.3560 C   0  0  0  0  0  0  0  0  0  0  0  0
   36.9490   32.8570   39.7420 C   0  0  0  0  0  0  0  0  0  0  0  0
   36.7240   31.5360   40.0000 C   0  0  0  0  0  0  0  0  0  0  0  0
   37.7730   30.6420   39.8640 C   0  0  0  0  0  0  0  0  0  0  0  0
   38.3530   34.2960   39.1600 H   0  0  0  0  0  0  0  0  0  0  0  0
   36.1260   33.5410   39.8520 H   0  0  0  0  0  0  0  0  0  0  0  0
   35.7470   31.1940   40.3060 H   0  0  0  0  0  0  0  0  0  0  0  0
   37.4960   29.2350   40.1480 C   0  0  0  0  0  0  0  0  0  0  0  0
   37.2480   28.5090   38.9840 C   0  0  0  0  0  0  0  0  0  0  0  0
   37.2530   28.9120   37.9820 H   0  0  0  0  0  0  0  0  0  0  0  0
   36.9660   27.1500   39.0560 C   0  0  0  0  0  3  0  0  0  0  0  0
   36.9440   26.5680   40.3190 C   0  0  0  0  0  3  0  0  0  0  0  0
   37.1880   27.2840   41.4700 C   0  0  0  0  0  0  0  0  0  0  0  0
   37.1740   26.7410   42.7310 C   0  0  0  0  0  3  0  0  0  0  0  0
   37.4260   27.4960   43.8670 C   0  0  0  0  0  3  0  0  0  0  0  0
   37.6990   28.8410   43.7110 C   0  0  0  0  0  3  0  0  0  0  0  0
   37.7280   29.4520   42.4590 C   0  0  0  0  0  3  0  0  0  0  0  0
   37.4660   28.6220   41.3830 C   0  0  0  0  0  0  0  0  0  0  0  0
   40.9910   29.3770   39.2150 N   0  0  0  0  0  0  0  0  0  0  0  0
   40.1120   30.1260   39.3340 C   0  0  0  0  0  0  0  0  0  0  0  0
  1 25  1  0  0  0  0
  1  5  1  0  0  0  0
  2  1  1  0  0  0  0
  3 17  1  0  0  0  0
  4  8  1  0  0  0  0
  4  3  1  0  0  0  0
  4  9  1  0  0  0  0
  5 10  1  6  0  0  0
  5  6  1  0  0  0  0
  5  4  1  0  0  0  0
  6 11  1  0  0  0  0
  6  7  1  0  0  0  0
  7  3  1  0  0  0  0
  7 14  1  0  0  0  0
 12  6  1  0  0  0  0
 13  7  1  0  0  0  0
 15 21  1  0  0  0  0
 15 20  1  0  0  0  0
 16 15  2  0  0  0  0
 17 16  1  0  0  0  0
 17 18  2  0  0  0  0
 18 19  1  0  0  0  0
 19 20  2  0  0  0  0
 19 23  1  0  0  0  0
 22 16  1  0  0  0  0
 24 29  1  0  0  0  0
 25 26  1  0  0  0  0
 25 24  2  0  0  0  0
 26 27  2  0  0  0  0
 27 31  1  0  0  0  0
 27 28  1  0  0  0  0
 28 32  1  0  0  0  0
 29 28  2  0  0  0  0
 29 33  1  0  0  0  0
 30 26  1  0  0  0  0
 33 43  1  0  0  0  0
 34 36  1  0  0  0  0
 34 33  2  0  0  0  0
 35 34  1  0  0  0  0
 36 37  2  0  0  0  0
 37 38  1  0  0  0  0
 38 39  1  0  0  0  0
 39 40  2  0  0  0  0
 41 40  1  0  0  0  0
 42 41  2  0  0  0  0
 43 38  2  0  0  0  0
 43 42  1  0  0  0  0
 44 45  3  0  0  0  0
 45 24  1  0  0  0  0
M  END
>  <minimizedAffinity>
-6.81774282

$$$$

 OpenBabel03242519083D

 45 49  0  0  1  0  0  0  0  0999 V2000
   39.5080   31.9730   39.1100 N   0  0  0  0  0  0  0  0  0  0  0  0
   39.4360   31.6400   38.1190 H   0  0  0  0  0  0  0  0  0  0  0  0
   41.7070   34.1570   40.8600 N   0  0  0  0  0  0  0  0  0  0  0  0
   41.1980   32.8040   40.6850 C   0  0  0  0  0  0  0  0  0  0  0  0
   40.4440   33.0140   39.3990 C   0  0  2  0  0  0  0  0  0  0  0  0
   39.6470   34.2630   39.7180 C   0  0  0  0  0  0  0  0  0  0  0  0
   40.6080   35.0550   40.5680 C   0  0  0  0  0  0  0  0  0  0  0  0
   42.0060   32.0570   40.5920 H   0  0  0  0  0  0  0  0  0  0  0  0
   40.5000   32.5950   41.5190 H   0  0  0  0  0  0  0  0  0  0  0  0
   41.1750   33.1730   38.5960 H   0  0  0  0  0  0  0  0  0  0  0  0
   38.7410   33.9510   40.2920 H   0  0  0  0  0  0  0  0  0  0  0  0
   39.3150   34.7950   38.8100 H   0  0  0  0  0  0  0  0  0  0  0  0
   41.0170   35.9000   39.9900 H   0  0  0  0  0  0  0  0  0  0  0  0
   40.1010   35.3930   41.5110 H   0  0  0  0  0  0  0  0  0  0  0  0
   44.5590   35.8780   42.5310 C   0  0  0  0  0  0  0  0  0  0  0  0
   43.2430   35.5070   42.2540 C   0  0  0  0  0  0  0  0  0  0  0  0
   42.9850   34.6040   41.2330 C   0  0  0  0  0  0  0  0  0  0  0  0
   44.0600   34.1220   40.5480 N   0  0  0  0  0  0  0  0  0  0  0  0
   45.3250   34.4730   40.8100 C   0  0  0  0  0  0  0  0  0  0  0  0
   45.5820   35.3490   41.8000 N   0  0  0  0  0  0  0  0  0  0  0  0
   44.7830   36.5870   43.3310 H   0  0  0  0  0  0  0  0  0  0  0  0
   42.4160   35.9000   42.8060 H   0  0  0  0  0  0  0  0  0  0  0  0
   46.1650   34.0780   40.2520 H   0  0  0  0  0  0  0  0  0  0  0  0
   38.8780   29.9870   40.4620 C   0  0  0  0  0  0  0  0  0  0  0  0
   38.6060   31.2550   39.9230 C   0  0  0  0  0  0  0  0  0  0  0  0
   37.3740   31.7410   40.2600 C   0  0  0  0  0  0  0  0  0  0  0  0
   36.4340   31.1130   41.0440 C   0  0  0  0  0  0  0  0  0  0  0  0
   36.7350   29.8810   41.5490 C   0  0  0  0  0  0  0  0  0  0  0  0
   37.9670   29.3210   41.2530 C   0  0  0  0  0  0  0  0  0  0  0  0
   37.0980   32.7180   39.8770 H   0  0  0  0  0  0  0  0  0  0  0  0
   35.4740   31.5360   41.2820 H   0  0  0  0  0  0  0  0  0  0  0  0
   36.0270   29.3530   42.1700 H   0  0  0  0  0  0  0  0  0  0  0  0
   38.2550   28.0010   41.8100 C   0  0  0  0  0  0  0  0  0  0  0  0
   39.0340   28.0830   42.9640 C   0  0  0  0  0  0  0  0  0  0  0  0
   39.3940   28.9970   43.4130 H   0  0  0  0  0  0  0  0  0  0  0  0
   39.4100   26.9270   43.6360 C   0  0  0  0  0  3  0  0  0  0  0  0
   38.9780   25.7130   43.1100 C   0  0  0  0  0  3  0  0  0  0  0  0
   38.2100   25.6310   41.9710 C   0  0  0  0  0  0  0  0  0  0  0  0
   37.7670   24.4510   41.4250 C   0  0  0  0  0  3  0  0  0  0  0  0
   36.9930   24.4080   40.2750 C   0  0  0  0  0  3  0  0  0  0  0  0
   36.6620   25.6030   39.6660 C   0  0  0  0  0  3  0  0  0  0  0  0
   37.0790   26.8340   40.1690 C   0  0  0  0  0  3  0  0  0  0  0  0
   37.8470   26.7790   41.3200 C   0  0  0  0  0  0  0  0  0  0  0  0
   41.1940   28.9170   39.9260 N   0  0  0  0  0  0  0  0  0  0  0  0
   40.1610   29.3930   40.1580 C   0  0  0  0  0  0  0  0  0  0  0  0
  1  5  1  0  0  0  0
  1 25  1  0  0  0  0
  2  1  1  0  0  0  0
  3 17  1  0  0  0  0
  4  3  1  0  0  0  0
  4  9  1  0  0  0  0
  5 10  1  6  0  0  0
  5  6  1  0  0  0  0
  5  4  1  0  0  0  0
  6 11  1  0  0  0  0
  6  7  1  0  0  0  0
  7  3  1  0  0  0  0
  7 14  1  0  0  0  0
  8  4  1  0  0  0  0
 12  6  1  0  0  0  0
 13  7  1  0  0  0  0
 15 21  1  0  0  0  0
 16 15  1  0  0  0  0
 16 22  1  0  0  0  0
 17 16  2  0  0  0  0
 18 19  2  0  0  0  0
 18 17  1  0  0  0  0
 19 20  1  0  0  0  0
 20 15  2  0  0  0  0
 23 19  1  0  0  0  0
 24 29  1  0  0  0  0
 25 26  1  0  0  0  0
 25 24  2  0  0  0  0
 26 27  2  0  0  0  0
 27 31  1  0  0  0  0
 27 28  1  0  0  0  0
 28 32  1  0  0  0  0
 29 28  2  0  0  0  0
 29 33  1  0  0  0  0
 30 26  1  0  0  0  0
 33 34  1  0  0  0  0
 34 35  1  0  0  0  0
 34 36  2  0  0  0  0
 37 36  1  0  0  0  0
 38 37  2  0  0  0  0
 39 38  1  0  0  0  0
 40 39  2  0  0  0  0
 41 42  2  0  0  0  0
 41 40  1  0  0  0  0
 42 43  1  0  0  0  0
 43 33  2  0  0  0  0
 43 38  1  0  0  0  0
 44 45  3  0  0  0  0
 45 24  1  0  0  0  0
M  END
>  <minimizedAffinity>
-6.79532242

$$$$

 OpenBabel03242519083D

 45 49  0  0  1  0  0  0  0  0999 V2000
   40.6990   33.4830   38.4530 N   0  0  0  0  0  0  0  0  0  0  0  0
   40.1690   34.0360   37.7370 H   0  0  0  0  0  0  0  0  0  0  0  0
   42.5160   34.5790   41.3110 N   0  0  0  0  0  0  0  0  0  0  0  0
   41.9330   33.4660   40.5760 C   0  0  0  0  0  0  0  0  0  0  0  0
   41.6200   34.1860   39.2920 C   0  0  2  0  0  0  0  0  0  0  0  0
   40.9110   35.4230   39.8050 C   0  0  0  0  0  0  0  0  0  0  0  0
   41.6610   35.7250   41.0770 C   0  0  0  0  0  0  0  0  0  0  0  0
   42.6420   32.6310   40.4390 H   0  0  0  0  0  0  0  0  0  0  0  0
   41.0010   33.1690   41.0960 H   0  0  0  0  0  0  0  0  0  0  0  0
   42.5680   34.4200   38.7910 H   0  0  0  0  0  0  0  0  0  0  0  0
   39.8470   35.1480   40.0030 H   0  0  0  0  0  0  0  0  0  0  0  0
   40.9240   36.2500   39.0740 H   0  0  0  0  0  0  0  0  0  0  0  0
   42.3160   36.6010   40.9320 H   0  0  0  0  0  0  0  0  0  0  0  0
   40.9410   35.8710   41.9250 H   0  0  0  0  0  0  0  0  0  0  0  0
   45.4320   33.7100   43.4630 C   0  0  0  0  0  0  0  0  0  0  0  0
   44.2880   33.5310   42.6840 C   0  0  0  0  0  0  0  0  0  0  0  0
   43.6700   34.6320   42.1110 C   0  0  0  0  0  0  0  0  0  0  0  0
   44.2330   35.8500   42.3480 N   0  0  0  0  0  0  0  0  0  0  0  0
   45.3300   36.0290   43.0930 C   0  0  0  0  0  0  0  0  0  0  0  0
   45.9360   34.9630   43.6530 N   0  0  0  0  0  0  0  0  0  0  0  0
   45.9340   32.8550   43.9230 H   0  0  0  0  0  0  0  0  0  0  0  0
   43.8660   32.5630   42.5130 H   0  0  0  0  0  0  0  0  0  0  0  0
   45.7600   37.0060   43.2690 H   0  0  0  0  0  0  0  0  0  0  0  0
   39.2070   31.5820   39.0230 C   0  0  0  0  0  0  0  0  0  0  0  0
   40.3310   32.1240   38.3790 C   0  0  0  0  0  0  0  0  0  0  0  0
   41.0460   31.2070   37.6610 C   0  0  0  0  0  0  0  0  0  0  0  0
   40.7620   29.8670   37.5330 C   0  0  0  0  0  0  0  0  0  0  0  0
   39.6610   29.3770   38.1750 C   0  0  0  0  0  0  0  0  0  0  0  0
   38.8830   30.2460   38.9220 C   0  0  0  0  0  0  0  0  0  0  0  0
   41.9280   31.5590   37.1370 H   0  0  0  0  0  0  0  0  0  0  0  0
   41.3570   29.1820   36.9550 H   0  0  0  0  0  0  0  0  0  0  0  0
   39.4010   28.3330   38.1010 H   0  0  0  0  0  0  0  0  0  0  0  0
   37.7130   29.6880   39.5960 C   0  0  0  0  0  0  0  0  0  0  0  0
   36.5760   29.7370   38.7900 C   0  0  0  0  0  0  0  0  0  0  0  0
   36.5370   30.1340   37.7860 H   0  0  0  0  0  0  0  0  0  0  0  0
   35.3640   29.2490   39.2620 C   0  0  0  0  0  3  0  0  0  0  0  0
   35.3450   28.7230   40.5490 C   0  0  0  0  0  3  0  0  0  0  0  0
   36.4660   28.6740   41.3470 C   0  0  0  0  0  0  0  0  0  0  0  0
   36.4820   28.1620   42.6210 C   0  0  0  0  0  3  0  0  0  0  0  0
   37.6330   28.1290   43.3940 C   0  0  0  0  0  3  0  0  0  0  0  0
   38.8000   28.6340   42.8510 C   0  0  0  0  0  3  0  0  0  0  0  0
   38.8500   29.1680   41.5640 C   0  0  0  0  0  3  0  0  0  0  0  0
   37.6540   29.1580   40.8670 C   0  0  0  0  0  0  0  0  0  0  0  0
   37.7410   33.2080   40.4370 N   0  0  0  0  0  0  0  0  0  0  0  0
   38.3880   32.4800   39.8070 C   0  0  0  0  0  0  0  0  0  0  0  0
  1  5  1  0  0  0  0
  2  1  1  0  0  0  0
  3 17  1  0  0  0  0
  4  9  1  0  0  0  0
  4  3  1  0  0  0  0
  5 10  1  6  0  0  0
  5  6  1  0  0  0  0
  5  4  1  0  0  0  0
  6 11  1  0  0  0  0
  6  7  1  0  0  0  0
  7  3  1  0  0  0  0
  7 14  1  0  0  0  0
  8  4  1  0  0  0  0
 12  6  1  0  0  0  0
 13  7  1  0  0  0  0
 15 20  1  0  0  0  0
 15 21  1  0  0  0  0
 16 15  2  0  0  0  0
 17 18  2  0  0  0  0
 17 16  1  0  0  0  0
 18 19  1  0  0  0  0
 19 23  1  0  0  0  0
 19 20  2  0  0  0  0
 22 16  1  0  0  0  0
 24 45  1  0  0  0  0
 25  1  1  0  0  0  0
 25 24  2  0  0  0  0
 26 25  1  0  0  0  0
 27 26  2  0  0  0  0
 27 28  1  0  0  0  0
 28 29  2  0  0  0  0
 29 24  1  0  0  0  0
 29 33  1  0  0  0  0
 30 26  1  0  0  0  0
 31 27  1  0  0  0  0
 32 28  1  0  0  0  0
 33 43  1  0  0  0  0
 34 36  1  0  0  0  0
 34 33  2  0  0  0  0
 35 34  1  0  0  0  0
 36 37  2  0  0  0  0
 37 38  1  0  0  0  0
 38 39  1  0  0  0  0
 39 40  2  0  0  0  0
 41 40  1  0  0  0  0
 42 41  2  0  0  0  0
 43 38  2  0  0  0  0
 43 42  1  0  0  0  0
 45 44  3  0  0  0  0
M  END
>  <minimizedAffinity>
-6.78568316

$$$$

 OpenBabel03242519083D

 45 49  0  0  1  0  0  0  0  0999 V2000
   40.2930   29.1300   42.8360 N   0  0  0  0  0  0  0  0  0  0  0  0
   41.0570   28.5370   43.2400 H   0  0  0  0  0  0  0  0  0  0  0  0
   40.5290   32.0580   40.8270 N   0  0  0  0  0  0  0  0  0  0  0  0
   39.6970   30.9770   41.3310 C   0  0  0  0  0  0  0  0  0  0  0  0
   40.6370   30.4400   42.3770 C   0  0  2  0  0  0  0  0  0  0  0  0
   41.9260   30.3190   41.5890 C   0  0  0  0  0  0  0  0  0  0  0  0
   41.8660   31.5200   40.6800 C   0  0  0  0  0  0  0  0  0  0  0  0
   38.7440   31.3390   41.7560 H   0  0  0  0  0  0  0  0  0  0  0  0
   39.5620   30.2430   40.5120 H   0  0  0  0  0  0  0  0  0  0  0  0
   40.7050   31.1780   43.1870 H   0  0  0  0  0  0  0  0  0  0  0  0
   41.8870   29.3600   41.0180 H   0  0  0  0  0  0  0  0  0  0  0  0
   42.8180   30.2980   42.2400 H   0  0  0  0  0  0  0  0  0  0  0  0
   42.5730   32.2920   41.0260 H   0  0  0  0  0  0  0  0  0  0  0  0
   42.0630   31.2110   39.6190 H   0  0  0  0  0  0  0  0  0  0  0  0
   38.7100   35.2520   40.2150 C   0  0  0  0  0  0  0  0  0  0  0  0
   38.9150   33.9130   40.5470 C   0  0  0  0  0  0  0  0  0  0  0  0
   40.1980   33.3870   40.5160 C   0  0  0  0  0  0  0  0  0  0  0  0
   41.2040   34.2330   40.1530 N   0  0  0  0  0  0  0  0  0  0  0  0
   41.0140   35.5190   39.8340 C   0  0  0  0  0  0  0  0  0  0  0  0
   39.7700   36.0360   39.8630 N   0  0  0  0  0  0  0  0  0  0  0  0
   37.7070   35.6860   40.2350 H   0  0  0  0  0  0  0  0  0  0  0  0
   38.1080   33.2700   40.8280 H   0  0  0  0  0  0  0  0  0  0  0  0
   41.8280   36.1730   39.5480 H   0  0  0  0  0  0  0  0  0  0  0  0
   38.7390   27.4020   41.9610 C   0  0  0  0  0  0  0  0  0  0  0  0
   39.0730   28.4240   42.8640 C   0  0  0  0  0  0  0  0  0  0  0  0
   38.0970   28.6790   43.7880 C   0  0  0  0  0  0  0  0  0  0  0  0
   36.8820   28.0430   43.8890 C   0  0  0  0  0  0  0  0  0  0  0  0
   36.5940   27.0550   42.9930 C   0  0  0  0  0  0  0  0  0  0  0  0
   37.5330   26.7370   42.0260 C   0  0  0  0  0  0  0  0  0  0  0  0
   38.2890   29.4590   44.5170 H   0  0  0  0  0  0  0  0  0  0  0  0
   36.1440   28.2800   44.6350 H   0  0  0  0  0  0  0  0  0  0  0  0
   35.6520   26.5300   43.0360 H   0  0  0  0  0  0  0  0  0  0  0  0
   37.1920   25.6750   41.0820 C   0  0  0  0  0  0  0  0  0  0  0  0
   37.5570   24.4170   41.5610 C   0  0  0  0  0  0  0  0  0  0  0  0
   38.0350   24.2240   42.5100 H   0  0  0  0  0  0  0  0  0  0  0  0
   37.3100   23.2820   40.8000 C   0  0  0  0  0  3  0  0  0  0  0  0
   36.6960   23.4620   39.5650 C   0  0  0  0  0  3  0  0  0  0  0  0
   36.3350   24.7030   39.0900 C   0  0  0  0  0  0  0  0  0  0  0  0
   35.7280   24.9160   37.8770 C   0  0  0  0  0  3  0  0  0  0  0  0
   35.3790   26.1820   37.4330 C   0  0  0  0  0  3  0  0  0  0  0  0
   35.6580   27.2610   38.2510 C   0  0  0  0  0  3  0  0  0  0  0  0
   36.2730   27.1120   39.4930 C   0  0  0  0  0  3  0  0  0  0  0  0
   36.5840   25.8130   39.8530 C   0  0  0  0  0  0  0  0  0  0  0  0
   40.4990   26.8020   40.1340 N   0  0  0  0  0  0  0  0  0  0  0  0
   39.7130   27.0630   40.9470 C   0  0  0  0  0  0  0  0  0  0  0  0
  1 25  1  0  0  0  0
  1  2  1  0  0  0  0
  3  4  1  0  0  0  0
  4  8  1  0  0  0  0
  4  5  1  0  0  0  0
  5  1  1  0  0  0  0
  5 10  1  1  0  0  0
  6 12  1  0  0  0  0
  6  5  1  0  0  0  0
  7  3  1  0  0  0  0
  7 13  1  0  0  0  0
  7  6  1  0  0  0  0
  9  4  1  0  0  0  0
 11  6  1  0  0  0  0
 14  7  1  0  0  0  0
 15 21  1  0  0  0  0
 15 16  1  0  0  0  0
 16 22  1  0  0  0  0
 17 16  2  0  0  0  0
 17  3  1  0  0  0  0
 18 17  1  0  0  0  0
 19 20  1  0  0  0  0
 19 18  2  0  0  0  0
 20 15  2  0  0  0  0
 23 19  1  0  0  0  0
 24 29  2  0  0  0  0
 24 25  1  0  0  0  0
 25 26  2  0  0  0  0
 26 27  1  0  0  0  0
 26 30  1  0  0  0  0
 27 31  1  0  0  0  0
 28 32  1  0  0  0  0
 28 27  2  0  0  0  0
 29 28  1  0  0  0  0
 33 34  1  0  0  0  0
 33 29  1  0  0  0  0
 34 35  1  0  0  0  0
 36 34  2  0  0  0  0
 37 36  1  0  0  0  0
 38 37  2  0  0  0  0
 38 43  1  0  0  0  0
 39 38  1  0  0  0  0
 40 39  2  0  0  0  0
 40 41  1  0  0  0  0
 41 42  2  0  0  0  0
 42 43  1  0  0  0  0
 43 33  2  0  0  0  0
 44 45  3  0  0  0  0
 45 24  1  0  0  0  0
M  END
>  <minimizedAffinity>
-6.73284197

$$$$

 OpenBabel03242519083D

 45 49  0  0  1  0  0  0  0  0999 V2000
   38.9810   31.8350   38.8700 N   0  0  0  0  0  0  0  0  0  0  0  0
   38.8060   31.6170   37.8600 H   0  0  0  0  0  0  0  0  0  0  0  0
   41.3920   33.7760   40.6280 N   0  0  0  0  0  0  0  0  0  0  0  0
   40.8320   32.4600   40.3580 C   0  0  0  0  0  0  0  0  0  0  0  0
   39.9690   32.8210   39.1780 C   0  0  2  0  0  0  0  0  0  0  0  0
   39.2400   34.0430   39.7020 C   0  0  0  0  0  0  0  0  0  0  0  0
   40.2960   34.7200   40.5370 C   0  0  0  0  0  0  0  0  0  0  0  0
   41.6060   31.7130   40.1100 H   0  0  0  0  0  0  0  0  0  0  0  0
   40.2080   32.1740   41.2270 H   0  0  0  0  0  0  0  0  0  0  0  0
   40.6270   33.0540   38.3310 H   0  0  0  0  0  0  0  0  0  0  0  0
   38.3820   33.6870   40.3220 H   0  0  0  0  0  0  0  0  0  0  0  0
   38.8410   34.6760   38.8910 H   0  0  0  0  0  0  0  0  0  0  0  0
   40.6750   35.6160   40.0160 H   0  0  0  0  0  0  0  0  0  0  0  0
   39.8880   34.9630   41.5540 H   0  0  0  0  0  0  0  0  0  0  0  0
   45.1020   34.1220   40.6660 C   0  0  0  0  0  0  0  0  0  0  0  0
   43.8400   33.6680   40.2820 C   0  0  0  0  0  0  0  0  0  0  0  0
   42.7110   34.1570   40.9230 C   0  0  0  0  0  0  0  0  0  0  0  0
   42.9100   35.0720   41.9130 N   0  0  0  0  0  0  0  0  0  0  0  0
   44.1180   35.5130   42.2850 C   0  0  0  0  0  0  0  0  0  0  0  0
   45.2180   35.0430   41.6660 N   0  0  0  0  0  0  0  0  0  0  0  0
   46.0030   33.7500   40.1730 H   0  0  0  0  0  0  0  0  0  0  0  0
   43.7110   32.9480   39.5020 H   0  0  0  0  0  0  0  0  0  0  0  0
   44.2530   36.2410   43.0740 H   0  0  0  0  0  0  0  0  0  0  0  0
   38.3290   29.6690   39.8960 C   0  0  0  0  0  0  0  0  0  0  0  0
   38.1430   31.0450   39.6830 C   0  0  0  0  0  0  0  0  0  0  0  0
   37.0620   31.5600   40.3440 C   0  0  0  0  0  0  0  0  0  0  0  0
   36.1940   30.8660   41.1550 C   0  0  0  0  0  0  0  0  0  0  0  0
   36.4080   29.5310   41.3360 C   0  0  0  0  0  0  0  0  0  0  0  0
   37.4840   28.9350   40.7000 C   0  0  0  0  0  0  0  0  0  0  0  0
   36.8590   32.6180   40.2240 H   0  0  0  0  0  0  0  0  0  0  0  0
   35.3540   31.3160   41.6540 H   0  0  0  0  0  0  0  0  0  0  0  0
   35.7510   28.9490   41.9640 H   0  0  0  0  0  0  0  0  0  0  0  0
   37.6830   27.5040   40.9170 C   0  0  0  0  0  0  0  0  0  0  0  0
   36.9510   26.7350   40.0140 C   0  0  0  0  0  0  0  0  0  0  0  0
   36.3060   27.1240   39.2390 H   0  0  0  0  0  0  0  0  0  0  0  0
   37.0140   25.3480   40.0650 C   0  0  0  0  0  3  0  0  0  0  0  0
   37.8280   24.7820   41.0410 C   0  0  0  0  0  3  0  0  0  0  0  0
   38.5520   25.5390   41.9340 C   0  0  0  0  0  0  0  0  0  0  0  0
   39.3630   25.0130   42.9090 C   0  0  0  0  0  3  0  0  0  0  0  0
   40.0780   25.8100   43.7910 C   0  0  0  0  0  3  0  0  0  0  0  0
   39.9610   27.1820   43.6730 C   0  0  0  0  0  3  0  0  0  0  0  0
   39.1540   27.7780   42.7060 C   0  0  0  0  0  3  0  0  0  0  0  0
   38.4790   26.9050   41.8700 C   0  0  0  0  0  0  0  0  0  0  0  0
   40.3570   28.5390   38.7100 N   0  0  0  0  0  0  0  0  0  0  0  0
   39.4500   29.0370   39.2360 C   0  0  0  0  0  0  0  0  0  0  0  0
  1  5  1  0  0  0  0
  1 25  1  0  0  0  0
  2  1  1  0  0  0  0
  3 17  1  0  0  0  0
  4  3  1  0  0  0  0
  4  9  1  0  0  0  0
  5 10  1  6  0  0  0
  5  6  1  0  0  0  0
  5  4  1  0  0  0  0
  6 11  1  0  0  0  0
  6  7  1  0  0  0  0
  7  3  1  0  0  0  0
  7 14  1  0  0  0  0
  8  4  1  0  0  0  0
 12  6  1  0  0  0  0
 13  7  1  0  0  0  0
 15 20  1  0  0  0  0
 16 15  2  0  0  0  0
 16 17  1  0  0  0  0
 17 18  2  0  0  0  0
 18 19  1  0  0  0  0
 19 23  1  0  0  0  0
 20 19  2  0  0  0  0
 21 15  1  0  0  0  0
 22 16  1  0  0  0  0
 24 29  1  0  0  0  0
 25 24  2  0  0  0  0
 25 26  1  0  0  0  0
 26 27  2  0  0  0  0
 27 28  1  0  0  0  0
 27 31  1  0  0  0  0
 28 32  1  0  0  0  0
 29 33  1  0  0  0  0
 29 28  2  0  0  0  0
 30 26  1  0  0  0  0
 33 43  1  0  0  0  0
 34 36  1  0  0  0  0
 34 33  2  0  0  0  0
 35 34  1  0  0  0  0
 36 37  2  0  0  0  0
 37 38  1  0  0  0  0
 38 39  1  0  0  0  0
 39 40  2  0  0  0  0
 41 40  1  0  0  0  0
 42 41  2  0  0  0  0
 43 38  2  0  0  0  0
 43 42  1  0  0  0  0
 44 45  3  0  0  0  0
 45 24  1  0  0  0  0
M  END
>  <minimizedAffinity>
-6.64313316

$$$$

 OpenBabel03242519083D

 45 49  0  0  1  0  0  0  0  0999 V2000
   36.4440   29.1840   40.1910 N   0  0  0  0  0  0  0  0  0  0  0  0
   35.4170   29.2970   40.0100 H   0  0  0  0  0  0  0  0  0  0  0  0
   37.8460   32.4260   39.7480 N   0  0  0  0  0  0  0  0  0  0  0  0
   37.1800   31.4840   40.6360 C   0  0  0  0  0  0  0  0  0  0  0  0
   37.3130   30.2460   39.7910 C   0  0  2  0  0  0  0  0  0  0  0  0
   36.8250   30.7460   38.4460 C   0  0  0  0  0  0  0  0  0  0  0  0
   37.3500   32.1590   38.4130 C   0  0  0  0  0  0  0  0  0  0  0  0
   37.6860   31.3930   41.6130 H   0  0  0  0  0  0  0  0  0  0  0  0
   36.1180   31.7900   40.7180 H   0  0  0  0  0  0  0  0  0  0  0  0
   38.3710   29.9550   39.7740 H   0  0  0  0  0  0  0  0  0  0  0  0
   35.7090   30.7150   38.4560 H   0  0  0  0  0  0  0  0  0  0  0  0
   37.1810   30.1210   37.6080 H   0  0  0  0  0  0  0  0  0  0  0  0
   38.2070   32.2290   37.7230 H   0  0  0  0  0  0  0  0  0  0  0  0
   36.5270   32.8710   38.1390 H   0  0  0  0  0  0  0  0  0  0  0  0
   39.5320   35.6760   40.4390 C   0  0  0  0  0  0  0  0  0  0  0  0
   38.5040   34.7750   40.1570 C   0  0  0  0  0  0  0  0  0  0  0  0
   38.7920   33.4240   40.0310 C   0  0  0  0  0  0  0  0  0  0  0  0
   40.0920   33.0520   40.1940 N   0  0  0  0  0  0  0  0  0  0  0  0
   41.0830   33.9100   40.4650 C   0  0  0  0  0  0  0  0  0  0  0  0
   40.8100   35.2230   40.5900 N   0  0  0  0  0  0  0  0  0  0  0  0
   39.3260   36.7440   40.5430 H   0  0  0  0  0  0  0  0  0  0  0  0
   37.4910   35.0940   40.0330 H   0  0  0  0  0  0  0  0  0  0  0  0
   42.1100   33.5920   40.5910 H   0  0  0  0  0  0  0  0  0  0  0  0
   36.9790   26.7600   40.1160 C   0  0  0  0  0  0  0  0  0  0  0  0
   36.6870   27.9430   40.8150 C   0  0  0  0  0  0  0  0  0  0  0  0
   36.6590   27.7850   42.1730 C   0  0  0  0  0  0  0  0  0  0  0  0
   36.8830   26.6170   42.8640 C   0  0  0  0  0  0  0  0  0  0  0  0
   37.1640   25.4880   42.1490 C   0  0  0  0  0  0  0  0  0  0  0  0
   37.2110   25.5680   40.7680 C   0  0  0  0  0  0  0  0  0  0  0  0
   36.4390   28.6600   42.7750 H   0  0  0  0  0  0  0  0  0  0  0  0
   36.8500   26.5410   43.9360 H   0  0  0  0  0  0  0  0  0  0  0  0
   37.3470   24.5500   42.6520 H   0  0  0  0  0  0  0  0  0  0  0  0
   37.5140   24.3400   40.0350 C   0  0  0  0  0  0  0  0  0  0  0  0
   38.8820   24.1900   39.8140 C   0  0  0  0  0  0  0  0  0  0  0  0
   39.6470   24.8820   40.1360 H   0  0  0  0  0  0  0  0  0  0  0  0
   39.3620   23.0790   39.1320 C   0  0  0  0  0  3  0  0  0  0  0  0
   38.4280   22.1480   38.6910 C   0  0  0  0  0  3  0  0  0  0  0  0
   37.0760   22.2950   38.9060 C   0  0  0  0  0  0  0  0  0  0  0  0
   36.1270   21.3960   38.4850 C   0  0  0  0  0  3  0  0  0  0  0  0
   34.7730   21.5780   38.7220 C   0  0  0  0  0  3  0  0  0  0  0  0
   34.3770   22.7100   39.4090 C   0  0  0  0  0  3  0  0  0  0  0  0
   35.2900   23.6610   39.8630 C   0  0  0  0  0  3  0  0  0  0  0  0
   36.6190   23.3950   39.5820 C   0  0  0  0  0  0  0  0  0  0  0  0
   37.0630   26.8990   37.5150 N   0  0  0  0  0  0  0  0  0  0  0  0
   37.0300   26.8320   38.6730 C   0  0  0  0  0  0  0  0  0  0  0  0
  1 25  1  0  0  0  0
  2  1  1  0  0  0  0
  3 17  1  0  0  0  0
  3  4  1  0  0  0  0
  4  9  1  0  0  0  0
  4  8  1  0  0  0  0
  5 10  1  6  0  0  0
  5  1  1  0  0  0  0
  5  4  1  0  0  0  0
  6 11  1  0  0  0  0
  6  5  1  0  0  0  0
  7  6  1  0  0  0  0
  7  3  1  0  0  0  0
 12  6  1  0  0  0  0
 13  7  1  0  0  0  0
 14  7  1  0  0  0  0
 15 21  1  0  0  0  0
 15 20  1  0  0  0  0
 16 15  2  0  0  0  0
 17 16  1  0  0  0  0
 17 18  2  0  0  0  0
 18 19  1  0  0  0  0
 19 20  2  0  0  0  0
 19 23  1  0  0  0  0
 22 16  1  0  0  0  0
 24 29  2  0  0  0  0
 24 25  1  0  0  0  0
 25 26  2  0  0  0  0
 26 30  1  0  0  0  0
 26 27  1  0  0  0  0
 27 31  1  0  0  0  0
 28 32  1  0  0  0  0
 28 27  2  0  0  0  0
 29 28  1  0  0  0  0
 33 29  1  0  0  0  0
 34 33  1  0  0  0  0
 34 35  1  0  0  0  0
 36 34  2  0  0  0  0
 37 38  2  0  0  0  0
 37 36  1  0  0  0  0
 38 43  1  0  0  0  0
 39 40  2  0  0  0  0
 39 38  1  0  0  0  0
 40 41  1  0  0  0  0
 41 42  2  0  0  0  0
 43 42  1  0  0  0  0
 43 33  2  0  0  0  0
 44 45  3  0  0  0  0
 45 24  1  0  0  0  0
M  END
>  <minimizedAffinity>
-6.4920845

$$$$

 OpenBabel03242519083D

 45 49  0  0  1  0  0  0  0  0999 V2000
   36.3850   29.2930   40.3270 N   0  0  0  0  0  0  0  0  0  0  0  0
   35.3550   29.4770   40.2760 H   0  0  0  0  0  0  0  0  0  0  0  0
   37.8310   32.4630   39.5990 N   0  0  0  0  0  0  0  0  0  0  0  0
   37.1500   31.6150   40.5650 C   0  0  0  0  0  0  0  0  0  0  0  0
   37.2700   30.3030   39.8360 C   0  0  2  0  0  0  0  0  0  0  0  0
   36.7920   30.6860   38.4490 C   0  0  0  0  0  0  0  0  0  0  0  0
   37.3360   32.0830   38.2910 C   0  0  0  0  0  0  0  0  0  0  0  0
   37.6520   31.6060   41.5490 H   0  0  0  0  0  0  0  0  0  0  0  0
   36.0930   31.9400   40.6150 H   0  0  0  0  0  0  0  0  0  0  0  0
   38.3240   29.9990   39.8500 H   0  0  0  0  0  0  0  0  0  0  0  0
   35.6750   30.6710   38.4570 H   0  0  0  0  0  0  0  0  0  0  0  0
   37.1420   29.9830   37.6730 H   0  0  0  0  0  0  0  0  0  0  0  0
   38.1960   32.0800   37.6010 H   0  0  0  0  0  0  0  0  0  0  0  0
   36.5230   32.7780   37.9500 H   0  0  0  0  0  0  0  0  0  0  0  0
   39.5460   35.6800   40.3700 C   0  0  0  0  0  0  0  0  0  0  0  0
   38.5060   34.7630   40.2130 C   0  0  0  0  0  0  0  0  0  0  0  0
   38.7890   33.4710   39.7940 C   0  0  0  0  0  0  0  0  0  0  0  0
   40.0970   33.1710   39.5560 N   0  0  0  0  0  0  0  0  0  0  0  0
   41.0990   34.0460   39.7060 C   0  0  0  0  0  0  0  0  0  0  0  0
   40.8310   35.3020   40.1130 N   0  0  0  0  0  0  0  0  0  0  0  0
   39.3440   36.7020   40.7000 H   0  0  0  0  0  0  0  0  0  0  0  0
   37.4880   35.0240   40.4060 H   0  0  0  0  0  0  0  0  0  0  0  0
   42.1310   33.7860   39.5100 H   0  0  0  0  0  0  0  0  0  0  0  0
   36.6910   26.8340   40.1610 C   0  0  0  0  0  0  0  0  0  0  0  0
   36.6180   28.0260   40.9000 C   0  0  0  0  0  0  0  0  0  0  0  0
   36.7950   27.8480   42.2440 C   0  0  0  0  0  0  0  0  0  0  0  0
   37.0260   26.6540   42.8870 C   0  0  0  0  0  0  0  0  0  0  0  0
   37.0890   25.5180   42.1340 C   0  0  0  0  0  0  0  0  0  0  0  0
   36.9210   25.6160   40.7630 C   0  0  0  0  0  0  0  0  0  0  0  0
   36.7500   28.7290   42.8760 H   0  0  0  0  0  0  0  0  0  0  0  0
   37.1580   26.5640   43.9510 H   0  0  0  0  0  0  0  0  0  0  0  0
   37.2690   24.5600   42.5980 H   0  0  0  0  0  0  0  0  0  0  0  0
   36.9950   24.3790   39.9880 C   0  0  0  0  0  0  0  0  0  0  0  0
   35.7600   23.7370   39.9140 C   0  0  0  0  0  0  0  0  0  0  0  0
   34.8440   24.0880   40.3670 H   0  0  0  0  0  0  0  0  0  0  0  0
   35.6350   22.5420   39.2160 C   0  0  0  0  0  3  0  0  0  0  0  0
   36.7790   22.0350   38.6080 C   0  0  0  0  0  3  0  0  0  0  0  0
   37.9990   22.6680   38.6800 C   0  0  0  0  0  0  0  0  0  0  0  0
   39.1470   22.1940   38.0930 C   0  0  0  0  0  3  0  0  0  0  0  0
   40.3590   22.8610   38.1870 C   0  0  0  0  0  3  0  0  0  0  0  0
   40.4000   24.0440   38.9000 C   0  0  0  0  0  3  0  0  0  0  0  0
   39.2710   24.5780   39.5190 C   0  0  0  0  0  3  0  0  0  0  0  0
   38.1070   23.8440   39.3720 C   0  0  0  0  0  0  0  0  0  0  0  0
   36.3780   27.0100   37.5790 N   0  0  0  0  0  0  0  0  0  0  0  0
   36.5160   26.9260   38.7280 C   0  0  0  0  0  0  0  0  0  0  0  0
  1 25  1  0  0  0  0
  2  1  1  0  0  0  0
  3 17  1  0  0  0  0
  3  4  1  0  0  0  0
  4  9  1  0  0  0  0
  4  8  1  0  0  0  0
  5 10  1  6  0  0  0
  5  1  1  0  0  0  0
  5  4  1  0  0  0  0
  6 11  1  0  0  0  0
  6  5  1  0  0  0  0
  7  6  1  0  0  0  0
  7  3  1  0  0  0  0
 12  6  1  0  0  0  0
 13  7  1  0  0  0  0
 14  7  1  0  0  0  0
 15 21  1  0  0  0  0
 16 15  1  0  0  0  0
 16 22  1  0  0  0  0
 17 16  2  0  0  0  0
 18 19  2  0  0  0  0
 18 17  1  0  0  0  0
 19 20  1  0  0  0  0
 20 15  2  0  0  0  0
 23 19  1  0  0  0  0
 24 29  2  0  0  0  0
 24 25  1  0  0  0  0
 25 26  2  0  0  0  0
 26 30  1  0  0  0  0
 26 27  1  0  0  0  0
 27 31  1  0  0  0  0
 28 32  1  0  0  0  0
 28 27  2  0  0  0  0
 29 28  1  0  0  0  0
 33 29  1  0  0  0  0
 34 33  1  0  0  0  0
 34 35  1  0  0  0  0
 36 34  2  0  0  0  0
 37 38  2  0  0  0  0
 37 36  1  0  0  0  0
 38 43  1  0  0  0  0
 39 40  2  0  0  0  0
 39 38  1  0  0  0  0
 40 41  1  0  0  0  0
 41 42  2  0  0  0  0
 43 42  1  0  0  0  0
 43 33  2  0  0  0  0
 44 45  3  0  0  0  0
 45 24  1  0  0  0  0
M  END
>  <minimizedAffinity>
-6.47401476

$$$$
