
 OpenBabel03242515253D

 33 36  0  0  0  0  0  0  0  0999 V2000
   43.7820   35.4570   42.9690 C   0  0  0  0  0  0  0  0  0  0  0  0
   43.2270   35.1990   41.7120 C   0  0  0  0  0  0  0  0  0  0  0  0
   44.0920   34.7580   40.7400 C   0  0  0  0  0  0  0  0  0  0  0  0
   45.4040   34.6000   41.0560 N   0  0  0  0  0  0  0  0  0  0  0  0
   45.8930   34.8570   42.2760 C   0  0  0  0  0  0  0  0  0  0  0  0
   45.1050   35.2860   43.2430 N   0  0  0  0  0  0  0  0  0  0  0  0
   43.1790   35.8090   43.7940 H   0  0  0  0  0  0  0  0  0  0  0  0
   43.6680   34.5650   39.7870 H   0  0  0  0  0  0  0  0  0  0  0  0
   47.3410   34.5840   42.2810 C   0  0  0  0  0  0  0  0  0  0  0  0
   48.2870   35.5310   42.0560 C   0  0  0  0  0  0  0  0  0  0  0  0
   48.0170   36.5590   41.8560 H   0  0  0  0  0  0  0  0  0  0  0  0
   49.6480   35.3140   42.0530 C   0  0  0  0  0  3  0  0  0  0  0  0
   50.1330   34.0500   42.2930 C   0  0  0  0  0  3  0  0  0  0  0  0
   49.2240   33.0440   42.5300 C   0  0  0  0  0  0  0  0  0  0  0  0
   49.7450   31.7970   42.7650 C   0  0  0  0  0  3  0  0  0  0  0  0
   48.9080   30.7350   43.0100 C   0  0  0  0  0  3  0  0  0  0  0  0
   47.5480   30.9820   43.0070 C   0  0  0  0  0  3  0  0  0  0  0  0
   47.0860   32.2550   42.7640 C   0  0  0  0  0  3  0  0  0  0  0  0
   47.8850   33.3420   42.5150 C   0  0  0  0  0  0  0  0  0  0  0  0
   41.7840   35.4130   41.5800 C   0  0  0  0  0  0  0  0  0  0  0  0
   41.3000   35.4990   42.5540 H   0  0  0  0  0  0  0  0  0  0  0  0
   41.6310   36.3990   41.0790 H   0  0  0  0  0  0  0  0  0  0  0  0
   41.2310   34.3450   40.7420 N   0  0  0  0  0  0  0  0  0  0  0  0
   41.0840   33.1180   41.2390 C   0  0  0  0  0  0  0  0  0  0  0  0
   40.5510   32.1450   40.3900 C   0  0  0  0  0  0  0  0  0  0  0  0
   40.1930   32.4490   39.0880 C   0  0  0  0  0  0  0  0  0  0  0  0
   39.7180   31.5440   38.3570 O   0  0  0  0  0  0  0  0  0  0  0  0
   40.3630   33.7160   38.6280 N   0  0  0  0  0  0  0  0  0  0  0  0
   40.8820   34.6720   39.4520 C   0  0  0  0  0  0  0  0  0  0  0  0
   41.0100   35.8140   38.9610 O   0  0  0  0  0  0  0  0  0  0  0  0
   41.3720   32.9170   42.2530 H   0  0  0  0  0  0  0  0  0  0  0  0
   40.4500   31.1650   40.8360 H   0  0  0  0  0  0  0  0  0  0  0  0
   40.0990   33.9520   37.6570 H   0  0  0  0  0  0  0  0  0  0  0  0
  1  6  1  0  0  0  0
  1  7  1  0  0  0  0
  2  1  2  0  0  0  0
  3  4  2  0  0  0  0
  3  2  1  0  0  0  0
  4  5  1  0  0  0  0
  5  9  1  0  0  0  0
  5  6  2  0  0  0  0
  8  3  1  0  0  0  0
  9 19  1  0  0  0  0
 10  9  2  0  0  0  0
 11 10  1  0  0  0  0
 12 10  1  0  0  0  0
 12 13  2  0  0  0  0
 13 14  1  0  0  0  0
 14 15  1  0  0  0  0
 15 16  2  0  0  0  0
 17 16  1  0  0  0  0
 18 17  2  0  0  0  0
 19 14  2  0  0  0  0
 19 18  1  0  0  0  0
 20  2  1  0  0  0  0
 20 21  1  0  0  0  0
 22 20  1  0  0  0  0
 23 24  1  0  0  0  0
 23 20  1  0  0  0  0
 24 31  1  0  0  0  0
 25 32  1  0  0  0  0
 25 24  2  0  0  0  0
 26 25  1  0  0  0  0
 27 26  2  0  0  0  0
 28 26  1  0  0  0  0
 28 29  1  0  0  0  0
 29 23  1  0  0  0  0
 30 29  2  0  0  0  0
 33 28  1  0  0  0  0
M  END
>  <minimizedAffinity>
-5.95153713

>  <minimizedRMSD>
4.52627182

$$$$
