
 OpenBabel03252501173D

 37 41  0  0  1  0  0  0  0  0999 V2000
   38.3570   31.4030   40.1280 C   0  0  1  0  0  0  0  0  0  0  0  0
   37.7990   32.1620   38.9880 C   0  0  0  0  0  0  0  0  0  0  0  0
   38.0070   32.8040   40.4170 C   0  0  2  0  0  0  0  0  0  0  0  0
   39.4330   31.1330   40.1770 H   0  0  0  0  0  0  0  0  0  0  0  0
   38.5290   32.4470   38.2180 H   0  0  0  0  0  0  0  0  0  0  0  0
   36.7490   32.0680   38.6900 H   0  0  0  0  0  0  0  0  0  0  0  0
   37.0630   33.0910   40.9040 H   0  0  0  0  0  0  0  0  0  0  0  0
   36.9280   28.6300   42.2210 C   0  0  0  0  0  0  0  0  0  0  0  0
   37.8010   29.6250   41.8220 C   0  0  0  0  0  0  0  0  0  0  0  0
   37.4820   30.3150   40.6570 C   0  0  0  0  0  0  0  0  0  0  0  0
   36.3580   29.9930   39.9750 N   0  0  0  0  0  0  0  0  0  0  0  0
   35.5310   29.0030   40.4090 C   0  0  0  0  0  0  0  0  0  0  0  0
   35.8280   28.3260   41.5380 N   0  0  0  0  0  0  0  0  0  0  0  0
   38.6970   29.8890   42.3560 H   0  0  0  0  0  0  0  0  0  0  0  0
   34.6240   28.7430   39.8580 H   0  0  0  0  0  0  0  0  0  0  0  0
   37.2380   27.8790   43.4770 C   0  0  0  0  0  0  0  0  0  0  0  0
   36.2130   26.9880   43.7020 F   0  0  0  0  0  0  0  0  0  0  0  0
   37.2710   28.7930   44.5090 F   0  0  0  0  0  0  0  0  0  0  0  0
   38.4210   27.1910   43.3560 F   0  0  0  0  0  0  0  0  0  0  0  0
   39.1510   33.7600   40.4280 C   0  0  0  0  0  0  0  0  0  0  0  0
   39.1280   35.1240   40.2440 C   0  0  0  0  0  0  0  0  0  0  0  0
   40.4550   35.4740   40.3660 C   0  0  0  0  0  0  0  0  0  0  0  0
   41.2380   34.3400   40.6160 C   0  0  0  0  0  0  0  0  0  0  0  0
   40.3680   33.3920   40.6310 O   0  0  0  0  0  0  0  0  0  0  0  0
   38.2600   35.7370   40.0520 H   0  0  0  0  0  0  0  0  0  0  0  0
   40.7800   36.5000   40.2710 H   0  0  0  0  0  0  0  0  0  0  0  0
   42.6610   34.4680   40.7810 C   0  0  0  0  0  0  0  0  0  0  0  0
   43.2460   34.9690   41.9280 C   0  0  0  0  0  0  0  0  0  0  0  0
   42.6450   35.2930   42.7670 H   0  0  0  0  0  0  0  0  0  0  0  0
   44.5980   35.1060   42.1270 C   0  0  0  0  0  3  0  0  0  0  0  0
   45.4680   34.7270   41.1290 C   0  0  0  0  0  3  0  0  0  0  0  0
   44.9550   34.2190   39.9580 C   0  0  0  0  0  0  0  0  0  0  0  0
   45.8410   33.8450   38.9720 C   0  0  0  0  0  3  0  0  0  0  0  0
   45.3880   33.3300   37.7780 C   0  0  0  0  0  3  0  0  0  0  0  0
   44.0090   33.2040   37.6120 C   0  0  0  0  0  3  0  0  0  0  0  0
   43.1770   33.5920   38.6250 C   0  0  0  0  0  3  0  0  0  0  0  0
   43.5910   34.1110   39.8320 C   0  0  0  0  0  0  0  0  0  0  0  0
  1  4  1  6  0  0  0
  1  3  1  0  0  0  0
  1 10  1  0  0  0  0
  2  1  1  0  0  0  0
  2  3  1  0  0  0  0
  3 20  1  0  0  0  0
  3  7  1  1  0  0  0
  5  2  1  0  0  0  0
  6  2  1  0  0  0  0
  8 16  1  0  0  0  0
  9  8  1  0  0  0  0
  9 14  1  0  0  0  0
 10  9  2  0  0  0  0
 11 12  2  0  0  0  0
 11 10  1  0  0  0  0
 12 13  1  0  0  0  0
 13  8  2  0  0  0  0
 15 12  1  0  0  0  0
 16 17  1  0  0  0  0
 16 18  1  0  0  0  0
 19 16  1  0  0  0  0
 20 24  1  0  0  0  0
 21 22  1  0  0  0  0
 21 20  2  0  0  0  0
 22 23  2  0  0  0  0
 23 24  1  0  0  0  0
 23 27  1  0  0  0  0
 25 21  1  0  0  0  0
 26 22  1  0  0  0  0
 27 28  1  0  0  0  0
 28 30  2  0  0  0  0
 28 29  1  0  0  0  0
 31 30  1  0  0  0  0
 32 31  2  0  0  0  0
 33 32  1  0  0  0  0
 34 33  2  0  0  0  0
 35 34  1  0  0  0  0
 35 36  2  0  0  0  0
 36 37  1  0  0  0  0
 37 32  1  0  0  0  0
 37 27  2  0  0  0  0
M  END
>  <minimizedAffinity>
-7.34214163

$$$$

 OpenBabel03252501173D

 37 41  0  0  1  0  0  0  0  0999 V2000
   36.1130   29.5900   39.1040 C   0  0  1  0  0  0  0  0  0  0  0  0
   36.7330   29.0640   37.8680 C   0  0  0  0  0  0  0  0  0  0  0  0
   35.5330   28.3350   38.5940 C   0  0  2  0  0  0  0  0  0  0  0  0
   35.4600   30.4870   39.0910 H   0  0  0  0  0  0  0  0  0  0  0  0
   36.4820   29.6160   36.9510 H   0  0  0  0  0  0  0  0  0  0  0  0
   37.6730   28.5030   37.8880 H   0  0  0  0  0  0  0  0  0  0  0  0
   35.8060   27.3490   38.9970 H   0  0  0  0  0  0  0  0  0  0  0  0
   37.5470   28.7500   42.4730 C   0  0  0  0  0  0  0  0  0  0  0  0
   36.6840   28.7100   41.3930 C   0  0  0  0  0  0  0  0  0  0  0  0
   36.9800   29.5440   40.3190 C   0  0  0  0  0  0  0  0  0  0  0  0
   38.0720   30.3420   40.3710 N   0  0  0  0  0  0  0  0  0  0  0  0
   38.8900   30.3450   41.4590 C   0  0  0  0  0  0  0  0  0  0  0  0
   38.6160   29.5410   42.5080 N   0  0  0  0  0  0  0  0  0  0  0  0
   35.8140   28.0810   41.3410 H   0  0  0  0  0  0  0  0  0  0  0  0
   39.7710   30.9890   41.5010 H   0  0  0  0  0  0  0  0  0  0  0  0
   37.2620   27.8560   43.6370 C   0  0  0  0  0  0  0  0  0  0  0  0
   36.1550   27.0990   43.3300 F   0  0  0  0  0  0  0  0  0  0  0  0
   36.9680   28.6610   44.7180 F   0  0  0  0  0  0  0  0  0  0  0  0
   38.3270   27.0240   43.8870 F   0  0  0  0  0  0  0  0  0  0  0  0
   34.2600   28.4830   37.8320 C   0  0  0  0  0  0  0  0  0  0  0  0
   33.8050   27.7310   36.7730 C   0  0  0  0  0  0  0  0  0  0  0  0
   32.5880   28.3100   36.4850 C   0  0  0  0  0  0  0  0  0  0  0  0
   32.3360   29.3770   37.3560 C   0  0  0  0  0  0  0  0  0  0  0  0
   33.3840   29.3880   38.1020 O   0  0  0  0  0  0  0  0  0  0  0  0
   34.3080   26.8960   36.3070 H   0  0  0  0  0  0  0  0  0  0  0  0
   31.9620   27.9410   35.6840 H   0  0  0  0  0  0  0  0  0  0  0  0
   31.1170   30.1300   37.2400 C   0  0  0  0  0  0  0  0  0  0  0  0
   30.1440   30.1490   38.2210 C   0  0  0  0  0  0  0  0  0  0  0  0
   30.2630   29.5850   39.1360 H   0  0  0  0  0  0  0  0  0  0  0  0
   28.9680   30.8550   38.1510 C   0  0  0  0  0  3  0  0  0  0  0  0
   28.7020   31.6130   37.0330 C   0  0  0  0  0  3  0  0  0  0  0  0
   29.6270   31.6410   36.0150 C   0  0  0  0  0  0  0  0  0  0  0  0
   29.3440   32.4060   34.9040 C   0  0  0  0  0  3  0  0  0  0  0  0
   30.2300   32.4740   33.8530 C   0  0  0  0  0  3  0  0  0  0  0  0
   31.4140   31.7450   33.9590 C   0  0  0  0  0  3  0  0  0  0  0  0
   31.6420   31.0040   35.0850 C   0  0  0  0  0  3  0  0  0  0  0  0
   30.7820   30.9100   36.1560 C   0  0  0  0  0  0  0  0  0  0  0  0
  1  4  1  6  0  0  0
  1 10  1  0  0  0  0
  2  6  1  0  0  0  0
  2  3  1  0  0  0  0
  2  1  1  0  0  0  0
  3  7  1  1  0  0  0
  3  1  1  0  0  0  0
  5  2  1  0  0  0  0
  8 13  1  0  0  0  0
  8 16  1  0  0  0  0
  9  8  2  0  0  0  0
 10 11  2  0  0  0  0
 10  9  1  0  0  0  0
 11 12  1  0  0  0  0
 12 15  1  0  0  0  0
 12 13  2  0  0  0  0
 14  9  1  0  0  0  0
 16 19  1  0  0  0  0
 16 18  1  0  0  0  0
 17 16  1  0  0  0  0
 20 24  1  0  0  0  0
 20  3  1  0  0  0  0
 21 20  2  0  0  0  0
 22 21  1  0  0  0  0
 22 23  2  0  0  0  0
 23 24  1  0  0  0  0
 25 21  1  0  0  0  0
 26 22  1  0  0  0  0
 27 23  1  0  0  0  0
 27 28  1  0  0  0  0
 28 29  1  0  0  0  0
 30 28  2  0  0  0  0
 31 30  1  0  0  0  0
 32 37  1  0  0  0  0
 32 31  2  0  0  0  0
 33 32  1  0  0  0  0
 34 35  1  0  0  0  0
 34 33  2  0  0  0  0
 35 36  2  0  0  0  0
 36 37  1  0  0  0  0
 37 27  2  0  0  0  0
M  END
>  <minimizedAffinity>
-7.15927362

$$$$

 OpenBabel03252501173D

 37 41  0  0  1  0  0  0  0  0999 V2000
   36.1970   29.2660   39.1250 C   0  0  1  0  0  0  0  0  0  0  0  0
   37.0040   28.7750   37.9870 C   0  0  0  0  0  0  0  0  0  0  0  0
   35.7460   27.9920   38.5360 C   0  0  2  0  0  0  0  0  0  0  0  0
   35.5160   30.1360   39.0220 H   0  0  0  0  0  0  0  0  0  0  0  0
   36.8620   29.3230   37.0450 H   0  0  0  0  0  0  0  0  0  0  0  0
   37.9550   28.2520   38.1370 H   0  0  0  0  0  0  0  0  0  0  0  0
   36.0010   27.0150   38.9730 H   0  0  0  0  0  0  0  0  0  0  0  0
   37.3250   28.3240   42.5820 C   0  0  0  0  0  0  0  0  0  0  0  0
   36.6410   28.2440   41.3820 C   0  0  0  0  0  0  0  0  0  0  0  0
   36.8870   29.2460   40.4490 C   0  0  0  0  0  0  0  0  0  0  0  0
   37.7630   30.2350   40.7420 N   0  0  0  0  0  0  0  0  0  0  0  0
   38.4110   30.2690   41.9390 C   0  0  0  0  0  0  0  0  0  0  0  0
   38.1830   29.3040   42.8540 N   0  0  0  0  0  0  0  0  0  0  0  0
   35.9420   27.4640   41.1390 H   0  0  0  0  0  0  0  0  0  0  0  0
   39.1180   31.0670   42.1750 H   0  0  0  0  0  0  0  0  0  0  0  0
   37.0920   27.2540   43.6010 C   0  0  0  0  0  0  0  0  0  0  0  0
   36.0100   27.6260   44.3660 F   0  0  0  0  0  0  0  0  0  0  0  0
   38.2100   27.1950   44.4050 F   0  0  0  0  0  0  0  0  0  0  0  0
   36.8260   26.0500   42.9940 F   0  0  0  0  0  0  0  0  0  0  0  0
   34.5870   28.0940   37.6040 C   0  0  0  0  0  0  0  0  0  0  0  0
   34.0070   27.0990   36.8500 C   0  0  0  0  0  0  0  0  0  0  0  0
   32.9880   27.7610   36.1990 C   0  0  0  0  0  0  0  0  0  0  0  0
   32.9720   29.1130   36.5640 C   0  0  0  0  0  0  0  0  0  0  0  0
   33.9550   29.1950   37.3910 O   0  0  0  0  0  0  0  0  0  0  0  0
   34.3050   26.0620   36.8050 H   0  0  0  0  0  0  0  0  0  0  0  0
   32.3280   27.2480   35.5140 H   0  0  0  0  0  0  0  0  0  0  0  0
   31.9880   29.9990   36.0050 C   0  0  0  0  0  0  0  0  0  0  0  0
   32.0380   30.4590   34.7030 C   0  0  0  0  0  0  0  0  0  0  0  0
   32.8370   30.1650   34.0370 H   0  0  0  0  0  0  0  0  0  0  0  0
   31.1190   31.3050   34.1310 C   0  0  0  0  0  3  0  0  0  0  0  0
   30.0540   31.7500   34.8800 C   0  0  0  0  0  3  0  0  0  0  0  0
   29.9400   31.3320   36.1860 C   0  0  0  0  0  0  0  0  0  0  0  0
   28.8670   31.7870   36.9200 C   0  0  0  0  0  3  0  0  0  0  0  0
   28.7000   31.4040   38.2320 C   0  0  0  0  0  3  0  0  0  0  0  0
   29.6510   30.5450   38.7800 C   0  0  0  0  0  3  0  0  0  0  0  0
   30.6950   30.1250   38.0040 C   0  0  0  0  0  3  0  0  0  0  0  0
   30.8980   30.4850   36.6900 C   0  0  0  0  0  0  0  0  0  0  0  0
  1  4  1  6  0  0  0
  1 10  1  0  0  0  0
  2  6  1  0  0  0  0
  2  3  1  0  0  0  0
  2  1  1  0  0  0  0
  3  7  1  1  0  0  0
  3  1  1  0  0  0  0
  5  2  1  0  0  0  0
  8 13  1  0  0  0  0
  8 16  1  0  0  0  0
  9  8  2  0  0  0  0
 10 11  2  0  0  0  0
 10  9  1  0  0  0  0
 11 12  1  0  0  0  0
 12 15  1  0  0  0  0
 12 13  2  0  0  0  0
 14  9  1  0  0  0  0
 16 17  1  0  0  0  0
 16 18  1  0  0  0  0
 19 16  1  0  0  0  0
 20  3  1  0  0  0  0
 21 20  2  0  0  0  0
 22 23  2  0  0  0  0
 22 21  1  0  0  0  0
 23 24  1  0  0  0  0
 24 20  1  0  0  0  0
 25 21  1  0  0  0  0
 26 22  1  0  0  0  0
 27 23  1  0  0  0  0
 27 37  1  0  0  0  0
 28 27  2  0  0  0  0
 29 28  1  0  0  0  0
 30 28  1  0  0  0  0
 30 31  2  0  0  0  0
 31 32  1  0  0  0  0
 32 37  2  0  0  0  0
 32 33  1  0  0  0  0
 33 34  2  0  0  0  0
 34 35  1  0  0  0  0
 36 35  2  0  0  0  0
 37 36  1  0  0  0  0
M  END
>  <minimizedAffinity>
-7.1030488

$$$$

 OpenBabel03252501173D

 37 41  0  0  1  0  0  0  0  0999 V2000
   38.2860   31.8800   40.2350 C   0  0  1  0  0  0  0  0  0  0  0  0
   36.8470   32.2210   40.2420 C   0  0  0  0  0  0  0  0  0  0  0  0
   37.4960   31.2990   39.1350 C   0  0  2  0  0  0  0  0  0  0  0  0
   38.7200   31.1720   40.9710 H   0  0  0  0  0  0  0  0  0  0  0  0
   36.2510   31.7100   41.0120 H   0  0  0  0  0  0  0  0  0  0  0  0
   36.4790   33.1810   39.8630 H   0  0  0  0  0  0  0  0  0  0  0  0
   37.4650   31.7430   38.1290 H   0  0  0  0  0  0  0  0  0  0  0  0
   41.1040   33.9770   38.9050 C   0  0  0  0  0  0  0  0  0  0  0  0
   40.3090   32.8640   39.1050 C   0  0  0  0  0  0  0  0  0  0  0  0
   39.2070   33.0180   39.9410 C   0  0  0  0  0  0  0  0  0  0  0  0
   38.9610   34.2190   40.5110 N   0  0  0  0  0  0  0  0  0  0  0  0
   39.7760   35.2870   40.2830 C   0  0  0  0  0  0  0  0  0  0  0  0
   40.8490   35.1520   39.4750 N   0  0  0  0  0  0  0  0  0  0  0  0
   40.4960   31.9040   38.6580 H   0  0  0  0  0  0  0  0  0  0  0  0
   39.5770   36.2570   40.7430 H   0  0  0  0  0  0  0  0  0  0  0  0
   42.2890   33.8470   38.0020 C   0  0  0  0  0  0  0  0  0  0  0  0
   43.2960   33.2300   38.7100 F   0  0  0  0  0  0  0  0  0  0  0  0
   42.6960   35.1200   37.6640 F   0  0  0  0  0  0  0  0  0  0  0  0
   41.9820   33.0910   36.8970 F   0  0  0  0  0  0  0  0  0  0  0  0
   37.1060   29.8710   39.3130 C   0  0  0  0  0  0  0  0  0  0  0  0
   36.1090   29.1700   38.6730 C   0  0  0  0  0  0  0  0  0  0  0  0
   36.2150   27.9120   39.2240 C   0  0  0  0  0  0  0  0  0  0  0  0
   37.2510   27.8760   40.1660 C   0  0  0  0  0  0  0  0  0  0  0  0
   37.7030   29.0800   40.1360 O   0  0  0  0  0  0  0  0  0  0  0  0
   35.4280   29.5490   37.9260 H   0  0  0  0  0  0  0  0  0  0  0  0
   35.5570   27.1070   38.9260 H   0  0  0  0  0  0  0  0  0  0  0  0
   37.5440   26.6570   40.8690 C   0  0  0  0  0  0  0  0  0  0  0  0
   36.9080   25.4590   40.6040 C   0  0  0  0  0  0  0  0  0  0  0  0
   36.1460   25.3890   39.8400 H   0  0  0  0  0  0  0  0  0  0  0  0
   37.1590   24.2740   41.2500 C   0  0  0  0  0  3  0  0  0  0  0  0
   38.1100   24.2360   42.2450 C   0  0  0  0  0  3  0  0  0  0  0  0
   38.7840   25.3930   42.5630 C   0  0  0  0  0  0  0  0  0  0  0  0
   39.7330   25.3360   43.5600 C   0  0  0  0  0  3  0  0  0  0  0  0
   40.4400   26.4600   43.9230 C   0  0  0  0  0  3  0  0  0  0  0  0
   40.1590   27.6450   43.2450 C   0  0  0  0  0  3  0  0  0  0  0  0
   39.2080   27.6430   42.2640 C   0  0  0  0  0  3  0  0  0  0  0  0
   38.4800   26.5410   41.8720 C   0  0  0  0  0  0  0  0  0  0  0  0
  1  2  1  0  0  0  0
  1  4  1  1  0  0  0
  2  5  1  0  0  0  0
  3  7  1  6  0  0  0
  3 20  1  0  0  0  0
  3  1  1  0  0  0  0
  3  2  1  0  0  0  0
  6  2  1  0  0  0  0
  8  9  2  0  0  0  0
  8 13  1  0  0  0  0
  9 10  1  0  0  0  0
 10  1  1  0  0  0  0
 10 11  2  0  0  0  0
 12 11  1  0  0  0  0
 12 15  1  0  0  0  0
 13 12  2  0  0  0  0
 14  9  1  0  0  0  0
 16 17  1  0  0  0  0
 16  8  1  0  0  0  0
 18 16  1  0  0  0  0
 19 16  1  0  0  0  0
 20 24  1  0  0  0  0
 21 22  1  0  0  0  0
 21 20  2  0  0  0  0
 22 23  2  0  0  0  0
 23 27  1  0  0  0  0
 24 23  1  0  0  0  0
 25 21  1  0  0  0  0
 26 22  1  0  0  0  0
 27 37  1  0  0  0  0
 28 27  2  0  0  0  0
 28 30  1  0  0  0  0
 29 28  1  0  0  0  0
 30 31  2  0  0  0  0
 31 32  1  0  0  0  0
 32 33  1  0  0  0  0
 33 34  2  0  0  0  0
 35 34  1  0  0  0  0
 36 35  2  0  0  0  0
 37 36  1  0  0  0  0
 37 32  2  0  0  0  0
M  END
>  <minimizedAffinity>
-7.03790855

$$$$

 OpenBabel03252501173D

 37 41  0  0  1  0  0  0  0  0999 V2000
   32.8110   28.7950   36.9660 C   0  0  1  0  0  0  0  0  0  0  0  0
   33.0830   27.9160   35.8080 C   0  0  0  0  0  0  0  0  0  0  0  0
   34.1480   28.9430   36.3640 C   0  0  2  0  0  0  0  0  0  0  0  0
   32.7670   28.3970   38.0010 H   0  0  0  0  0  0  0  0  0  0  0  0
   33.2520   26.8590   36.0560 H   0  0  0  0  0  0  0  0  0  0  0  0
   32.7160   28.1540   34.8030 H   0  0  0  0  0  0  0  0  0  0  0  0
   34.3910   29.7440   35.6500 H   0  0  0  0  0  0  0  0  0  0  0  0
   30.7180   31.4900   35.3950 C   0  0  0  0  0  0  0  0  0  0  0  0
   31.6920   30.5140   35.5070 C   0  0  0  0  0  0  0  0  0  0  0  0
   31.7900   29.8590   36.7300 C   0  0  0  0  0  0  0  0  0  0  0  0
   30.9520   30.1920   37.7380 N   0  0  0  0  0  0  0  0  0  0  0  0
   30.0090   31.1620   37.5780 C   0  0  0  0  0  0  0  0  0  0  0  0
   29.9020   31.8060   36.3970 N   0  0  0  0  0  0  0  0  0  0  0  0
   32.3640   30.2420   34.7130 H   0  0  0  0  0  0  0  0  0  0  0  0
   29.3330   31.4310   38.3920 H   0  0  0  0  0  0  0  0  0  0  0  0
   30.5800   32.2040   34.0880 C   0  0  0  0  0  0  0  0  0  0  0  0
   30.6000   31.2610   33.0860 F   0  0  0  0  0  0  0  0  0  0  0  0
   31.6750   33.0300   33.9480 F   0  0  0  0  0  0  0  0  0  0  0  0
   29.3960   32.8990   34.0340 F   0  0  0  0  0  0  0  0  0  0  0  0
   35.2530   28.2500   37.0850 C   0  0  0  0  0  0  0  0  0  0  0  0
   36.5430   28.0230   36.6590 C   0  0  0  0  0  0  0  0  0  0  0  0
   37.1070   27.3580   37.7260 C   0  0  0  0  0  0  0  0  0  0  0  0
   36.1700   27.1980   38.7540 C   0  0  0  0  0  0  0  0  0  0  0  0
   35.1170   27.7580   38.2680 O   0  0  0  0  0  0  0  0  0  0  0  0
   36.9720   28.3120   35.7110 H   0  0  0  0  0  0  0  0  0  0  0  0
   38.1370   27.0320   37.7070 H   0  0  0  0  0  0  0  0  0  0  0  0
   36.5400   26.5290   39.9710 C   0  0  0  0  0  0  0  0  0  0  0  0
   36.5730   25.1530   40.0970 C   0  0  0  0  0  0  0  0  0  0  0  0
   36.3150   24.5100   39.2670 H   0  0  0  0  0  0  0  0  0  0  0  0
   36.9220   24.4750   41.2390 C   0  0  0  0  0  3  0  0  0  0  0  0
   37.2710   25.1850   42.3650 C   0  0  0  0  0  3  0  0  0  0  0  0
   37.2610   26.5600   42.3120 C   0  0  0  0  0  0  0  0  0  0  0  0
   37.6150   27.2540   43.4480 C   0  0  0  0  0  3  0  0  0  0  0  0
   37.6230   28.6310   43.4570 C   0  0  0  0  0  3  0  0  0  0  0  0
   37.2640   29.2860   42.2800 C   0  0  0  0  0  3  0  0  0  0  0  0
   36.9230   28.5460   41.1830 C   0  0  0  0  0  3  0  0  0  0  0  0
   36.9010   27.1690   41.1340 C   0  0  0  0  0  0  0  0  0  0  0  0
  1  4  1  1  0  0  0
  2  5  1  0  0  0  0
  2  3  1  0  0  0  0
  2  1  1  0  0  0  0
  3  7  1  6  0  0  0
  3  1  1  0  0  0  0
  3 20  1  0  0  0  0
  6  2  1  0  0  0  0
  8  9  2  0  0  0  0
  8 13  1  0  0  0  0
  9 10  1  0  0  0  0
 10  1  1  0  0  0  0
 10 11  2  0  0  0  0
 12 11  1  0  0  0  0
 12 15  1  0  0  0  0
 13 12  2  0  0  0  0
 14  9  1  0  0  0  0
 16  8  1  0  0  0  0
 17 16  1  0  0  0  0
 18 16  1  0  0  0  0
 19 16  1  0  0  0  0
 20 24  1  0  0  0  0
 21 20  2  0  0  0  0
 21 22  1  0  0  0  0
 22 23  2  0  0  0  0
 23 27  1  0  0  0  0
 24 23  1  0  0  0  0
 25 21  1  0  0  0  0
 26 22  1  0  0  0  0
 27 28  2  0  0  0  0
 27 37  1  0  0  0  0
 28 30  1  0  0  0  0
 29 28  1  0  0  0  0
 30 31  2  0  0  0  0
 32 31  1  0  0  0  0
 32 33  1  0  0  0  0
 33 34  2  0  0  0  0
 35 34  1  0  0  0  0
 36 35  2  0  0  0  0
 37 36  1  0  0  0  0
 37 32  2  0  0  0  0
M  END
>  <minimizedAffinity>
-6.83132553

$$$$

 OpenBabel03252501173D

 37 41  0  0  1  0  0  0  0  0999 V2000
   32.3760   29.0880   37.5110 C   0  0  1  0  0  0  0  0  0  0  0  0
   32.7560   28.0900   36.4880 C   0  0  0  0  0  0  0  0  0  0  0  0
   33.7850   29.1300   37.0840 C   0  0  2  0  0  0  0  0  0  0  0  0
   32.1780   28.7960   38.5630 H   0  0  0  0  0  0  0  0  0  0  0  0
   32.8430   27.0570   36.8550 H   0  0  0  0  0  0  0  0  0  0  0  0
   32.5360   28.2400   35.4250 H   0  0  0  0  0  0  0  0  0  0  0  0
   34.1570   29.8480   36.3380 H   0  0  0  0  0  0  0  0  0  0  0  0
   30.6080   31.6530   35.4130 C   0  0  0  0  0  0  0  0  0  0  0  0
   31.5100   30.6580   35.7450 C   0  0  0  0  0  0  0  0  0  0  0  0
   31.4450   30.1570   37.0410 C   0  0  0  0  0  0  0  0  0  0  0  0
   30.5280   30.6480   37.9050 N   0  0  0  0  0  0  0  0  0  0  0  0
   29.6620   31.6300   37.5290 C   0  0  0  0  0  0  0  0  0  0  0  0
   29.7120   32.1260   36.2750 N   0  0  0  0  0  0  0  0  0  0  0  0
   32.2430   30.2610   35.0670 H   0  0  0  0  0  0  0  0  0  0  0  0
   28.9210   32.0270   38.2270 H   0  0  0  0  0  0  0  0  0  0  0  0
   30.6440   32.2040   34.0230 C   0  0  0  0  0  0  0  0  0  0  0  0
   30.7760   31.1470   33.1510 F   0  0  0  0  0  0  0  0  0  0  0  0
   31.7600   33.0080   33.9230 F   0  0  0  0  0  0  0  0  0  0  0  0
   29.4870   32.8870   33.7370 F   0  0  0  0  0  0  0  0  0  0  0  0
   34.7530   28.4760   38.0100 C   0  0  0  0  0  0  0  0  0  0  0  0
   35.4660   27.3130   37.8200 C   0  0  0  0  0  0  0  0  0  0  0  0
   36.1930   27.2040   38.9860 C   0  0  0  0  0  0  0  0  0  0  0  0
   35.9120   28.2780   39.8400 C   0  0  0  0  0  0  0  0  0  0  0  0
   35.0540   28.9600   39.1650 O   0  0  0  0  0  0  0  0  0  0  0  0
   35.4370   26.6690   36.9540 H   0  0  0  0  0  0  0  0  0  0  0  0
   36.8700   26.3780   39.1550 H   0  0  0  0  0  0  0  0  0  0  0  0
   36.5610   28.3710   41.1190 C   0  0  0  0  0  0  0  0  0  0  0  0
   36.2100   27.5900   42.2030 C   0  0  0  0  0  0  0  0  0  0  0  0
   35.4140   26.8610   42.1320 H   0  0  0  0  0  0  0  0  0  0  0  0
   36.8030   27.6460   43.4400 C   0  0  0  0  0  3  0  0  0  0  0  0
   37.8300   28.5380   43.6550 C   0  0  0  0  0  3  0  0  0  0  0  0
   38.2340   29.3480   42.6200 C   0  0  0  0  0  0  0  0  0  0  0  0
   39.2630   30.2330   42.8530 C   0  0  0  0  0  3  0  0  0  0  0  0
   39.7110   31.0710   41.8560 C   0  0  0  0  0  3  0  0  0  0  0  0
   39.0850   30.9850   40.6130 C   0  0  0  0  0  3  0  0  0  0  0  0
   38.0690   30.0880   40.4380 C   0  0  0  0  0  3  0  0  0  0  0  0
   37.5930   29.2350   41.4090 C   0  0  0  0  0  0  0  0  0  0  0  0
  1  4  1  1  0  0  0
  2  5  1  0  0  0  0
  2  3  1  0  0  0  0
  2  1  1  0  0  0  0
  3  7  1  6  0  0  0
  3  1  1  0  0  0  0
  3 20  1  0  0  0  0
  6  2  1  0  0  0  0
  8  9  2  0  0  0  0
  8 13  1  0  0  0  0
  9 10  1  0  0  0  0
 10  1  1  0  0  0  0
 10 11  2  0  0  0  0
 12 11  1  0  0  0  0
 12 15  1  0  0  0  0
 13 12  2  0  0  0  0
 14  9  1  0  0  0  0
 16  8  1  0  0  0  0
 17 16  1  0  0  0  0
 18 16  1  0  0  0  0
 19 16  1  0  0  0  0
 20 24  1  0  0  0  0
 21 20  2  0  0  0  0
 21 22  1  0  0  0  0
 22 26  1  0  0  0  0
 22 23  2  0  0  0  0
 23 27  1  0  0  0  0
 24 23  1  0  0  0  0
 25 21  1  0  0  0  0
 27 37  2  0  0  0  0
 27 28  1  0  0  0  0
 28 30  2  0  0  0  0
 29 28  1  0  0  0  0
 30 31  1  0  0  0  0
 32 33  1  0  0  0  0
 32 31  2  0  0  0  0
 34 33  2  0  0  0  0
 35 34  1  0  0  0  0
 36 35  2  0  0  0  0
 36 37  1  0  0  0  0
 37 32  1  0  0  0  0
M  END
>  <minimizedAffinity>
-6.8221693

$$$$

 OpenBabel03252501173D

 37 41  0  0  1  0  0  0  0  0999 V2000
   33.4940   28.5790   37.8370 C   0  0  1  0  0  0  0  0  0  0  0  0
   34.4570   27.6380   37.2250 C   0  0  0  0  0  0  0  0  0  0  0  0
   34.9150   28.9150   38.0350 C   0  0  2  0  0  0  0  0  0  0  0  0
   32.9100   28.3080   38.7410 H   0  0  0  0  0  0  0  0  0  0  0  0
   34.5570   26.6730   37.7420 H   0  0  0  0  0  0  0  0  0  0  0  0
   34.7030   27.6760   36.1580 H   0  0  0  0  0  0  0  0  0  0  0  0
   35.4410   29.6560   37.4150 H   0  0  0  0  0  0  0  0  0  0  0  0
   30.9410   30.8750   36.3140 C   0  0  0  0  0  0  0  0  0  0  0  0
   31.6280   30.1780   37.2910 C   0  0  0  0  0  0  0  0  0  0  0  0
   32.6890   29.3830   36.8690 C   0  0  0  0  0  0  0  0  0  0  0  0
   33.0020   29.3240   35.5550 N   0  0  0  0  0  0  0  0  0  0  0  0
   32.2940   30.0300   34.6300 C   0  0  0  0  0  0  0  0  0  0  0  0
   31.2610   30.8060   35.0240 N   0  0  0  0  0  0  0  0  0  0  0  0
   31.3880   30.2160   38.3380 H   0  0  0  0  0  0  0  0  0  0  0  0
   32.5460   29.9830   33.5690 H   0  0  0  0  0  0  0  0  0  0  0  0
   29.8030   31.7480   36.7370 C   0  0  0  0  0  0  0  0  0  0  0  0
   29.4920   32.5800   35.6850 F   0  0  0  0  0  0  0  0  0  0  0  0
   30.2380   32.5130   37.7980 F   0  0  0  0  0  0  0  0  0  0  0  0
   28.7020   30.9940   37.0600 F   0  0  0  0  0  0  0  0  0  0  0  0
   35.4780   28.5470   39.3660 C   0  0  0  0  0  0  0  0  0  0  0  0
   35.2760   29.1640   40.5800 C   0  0  0  0  0  0  0  0  0  0  0  0
   36.0290   28.3970   41.4430 C   0  0  0  0  0  0  0  0  0  0  0  0
   36.6570   27.3550   40.7510 C   0  0  0  0  0  0  0  0  0  0  0  0
   36.2640   27.5420   39.5400 O   0  0  0  0  0  0  0  0  0  0  0  0
   34.6680   30.0360   40.7710 H   0  0  0  0  0  0  0  0  0  0  0  0
   36.0830   28.6240   42.4990 H   0  0  0  0  0  0  0  0  0  0  0  0
   37.4960   26.4250   41.4550 C   0  0  0  0  0  0  0  0  0  0  0  0
   37.2200   25.0730   41.5410 C   0  0  0  0  0  0  0  0  0  0  0  0
   36.3400   24.6520   41.0730 H   0  0  0  0  0  0  0  0  0  0  0  0
   37.9940   24.1510   42.2010 C   0  0  0  0  0  3  0  0  0  0  0  0
   39.1410   24.5670   42.8380 C   0  0  0  0  0  3  0  0  0  0  0  0
   39.4800   25.8990   42.7940 C   0  0  0  0  0  0  0  0  0  0  0  0
   40.6320   26.2960   43.4360 C   0  0  0  0  0  3  0  0  0  0  0  0
   41.0230   27.6170   43.4270 C   0  0  0  0  0  3  0  0  0  0  0  0
   40.2130   28.5250   42.7470 C   0  0  0  0  0  3  0  0  0  0  0  0
   39.0810   28.0740   42.1270 C   0  0  0  0  0  3  0  0  0  0  0  0
   38.6560   26.7640   42.1130 C   0  0  0  0  0  0  0  0  0  0  0  0
  1  3  1  0  0  0  0
  1  4  1  1  0  0  0
  2  5  1  0  0  0  0
  2  1  1  0  0  0  0
  2  3  1  0  0  0  0
  3  7  1  6  0  0  0
  3 20  1  0  0  0  0
  6  2  1  0  0  0  0
  8 16  1  0  0  0  0
  8  9  1  0  0  0  0
  9 14  1  0  0  0  0
 10  9  2  0  0  0  0
 10  1  1  0  0  0  0
 11 10  1  0  0  0  0
 12 13  1  0  0  0  0
 12 11  2  0  0  0  0
 13  8  2  0  0  0  0
 15 12  1  0  0  0  0
 16 19  1  0  0  0  0
 16 18  1  0  0  0  0
 17 16  1  0  0  0  0
 20 24  1  0  0  0  0
 20 21  2  0  0  0  0
 21 25  1  0  0  0  0
 21 22  1  0  0  0  0
 22 26  1  0  0  0  0
 23 22  2  0  0  0  0
 23 27  1  0  0  0  0
 24 23  1  0  0  0  0
 27 28  2  0  0  0  0
 27 37  1  0  0  0  0
 28 30  1  0  0  0  0
 29 28  1  0  0  0  0
 30 31  2  0  0  0  0
 32 31  1  0  0  0  0
 32 33  1  0  0  0  0
 34 33  2  0  0  0  0
 35 34  1  0  0  0  0
 36 35  2  0  0  0  0
 37 36  1  0  0  0  0
 37 32  2  0  0  0  0
M  END
>  <minimizedAffinity>
-6.78890467

$$$$

 OpenBabel03252501173D

 37 41  0  0  1  0  0  0  0  0999 V2000
   39.5750   30.5420   41.3990 C   0  0  1  0  0  0  0  0  0  0  0  0
   40.4110   30.0960   42.5350 C   0  0  0  0  0  0  0  0  0  0  0  0
   38.8430   30.2600   42.6470 C   0  0  2  0  0  0  0  0  0  0  0  0
   39.3670   29.8790   40.5340 H   0  0  0  0  0  0  0  0  0  0  0  0
   40.7870   29.0660   42.4590 H   0  0  0  0  0  0  0  0  0  0  0  0
   40.9780   30.8060   43.1470 H   0  0  0  0  0  0  0  0  0  0  0  0
   38.5390   31.0520   43.3480 H   0  0  0  0  0  0  0  0  0  0  0  0
   41.0960   33.7680   40.2230 C   0  0  0  0  0  0  0  0  0  0  0  0
   41.0180   32.4350   40.5810 C   0  0  0  0  0  0  0  0  0  0  0  0
   39.7730   31.9620   40.9820 C   0  0  0  0  0  0  0  0  0  0  0  0
   38.7130   32.8020   41.0080 N   0  0  0  0  0  0  0  0  0  0  0  0
   38.8420   34.1090   40.6460 C   0  0  0  0  0  0  0  0  0  0  0  0
   40.0440   34.5820   40.2540 N   0  0  0  0  0  0  0  0  0  0  0  0
   41.8540   31.7580   40.5650 H   0  0  0  0  0  0  0  0  0  0  0  0
   37.9870   34.7870   40.6670 H   0  0  0  0  0  0  0  0  0  0  0  0
   42.4190   34.3030   39.7750 C   0  0  0  0  0  0  0  0  0  0  0  0
   42.9260   35.0850   40.7880 F   0  0  0  0  0  0  0  0  0  0  0  0
   42.1940   35.0950   38.6690 F   0  0  0  0  0  0  0  0  0  0  0  0
   43.2960   33.2800   39.5080 F   0  0  0  0  0  0  0  0  0  0  0  0
   38.1560   28.9380   42.7000 C   0  0  0  0  0  0  0  0  0  0  0  0
   37.4060   28.4040   43.7240 C   0  0  0  0  0  0  0  0  0  0  0  0
   37.0220   27.1810   43.2180 C   0  0  0  0  0  0  0  0  0  0  0  0
   37.5350   27.0020   41.9280 C   0  0  0  0  0  0  0  0  0  0  0  0
   38.1850   28.0950   41.7270 O   0  0  0  0  0  0  0  0  0  0  0  0
   37.1930   28.8630   44.6780 H   0  0  0  0  0  0  0  0  0  0  0  0
   36.4090   26.5000   43.7920 H   0  0  0  0  0  0  0  0  0  0  0  0
   37.2590   25.7920   41.2030 C   0  0  0  0  0  0  0  0  0  0  0  0
   37.5990   24.5360   41.6710 C   0  0  0  0  0  0  0  0  0  0  0  0
   38.0970   24.4110   42.6220 H   0  0  0  0  0  0  0  0  0  0  0  0
   37.3520   23.3570   41.0120 C   0  0  0  0  0  3  0  0  0  0  0  0
   36.7210   23.3870   39.7890 C   0  0  0  0  0  3  0  0  0  0  0  0
   36.3540   24.6030   39.2610 C   0  0  0  0  0  0  0  0  0  0  0  0
   35.7230   24.6130   38.0370 C   0  0  0  0  0  3  0  0  0  0  0  0
   35.3310   25.8000   37.4570 C   0  0  0  0  0  3  0  0  0  0  0  0
   35.5970   26.9770   38.1550 C   0  0  0  0  0  3  0  0  0  0  0  0
   36.2260   26.9060   39.3670 C   0  0  0  0  0  3  0  0  0  0  0  0
   36.6330   25.7420   39.9790 C   0  0  0  0  0  0  0  0  0  0  0  0
  1  4  1  6  0  0  0
  1  2  1  0  0  0  0
  1  3  1  0  0  0  0
  2  3  1  0  0  0  0
  2  6  1  0  0  0  0
  3 20  1  0  0  0  0
  3  7  1  1  0  0  0
  5  2  1  0  0  0  0
  8 13  2  0  0  0  0
  8  9  1  0  0  0  0
  9 10  2  0  0  0  0
 10 11  1  0  0  0  0
 10  1  1  0  0  0  0
 12 15  1  0  0  0  0
 12 11  2  0  0  0  0
 13 12  1  0  0  0  0
 14  9  1  0  0  0  0
 16  8  1  0  0  0  0
 16 17  1  0  0  0  0
 18 16  1  0  0  0  0
 19 16  1  0  0  0  0
 20 21  2  0  0  0  0
 21 25  1  0  0  0  0
 22 21  1  0  0  0  0
 22 26  1  0  0  0  0
 23 22  2  0  0  0  0
 24 23  1  0  0  0  0
 24 20  1  0  0  0  0
 27 28  1  0  0  0  0
 27 23  1  0  0  0  0
 28 29  1  0  0  0  0
 30 28  2  0  0  0  0
 31 30  1  0  0  0  0
 32 31  2  0  0  0  0
 32 37  1  0  0  0  0
 33 32  1  0  0  0  0
 34 33  2  0  0  0  0
 34 35  1  0  0  0  0
 35 36  2  0  0  0  0
 36 37  1  0  0  0  0
 37 27  2  0  0  0  0
M  END
>  <minimizedAffinity>
-6.73216677

$$$$

 OpenBabel03252501173D

 37 41  0  0  1  0  0  0  0  0999 V2000
   36.5090   28.5430   38.8650 C   0  0  1  0  0  0  0  0  0  0  0  0
   35.7640   27.2660   38.8390 C   0  0  0  0  0  0  0  0  0  0  0  0
   35.0600   28.6640   38.6270 C   0  0  2  0  0  0  0  0  0  0  0  0
   37.1820   28.8410   38.0340 H   0  0  0  0  0  0  0  0  0  0  0  0
   35.9150   26.6570   37.9360 H   0  0  0  0  0  0  0  0  0  0  0  0
   35.4660   26.7520   39.7590 H   0  0  0  0  0  0  0  0  0  0  0  0
   34.3470   28.9160   39.4260 H   0  0  0  0  0  0  0  0  0  0  0  0
   37.3810   28.6060   42.5180 C   0  0  0  0  0  0  0  0  0  0  0  0
   36.8360   28.1530   41.3310 C   0  0  0  0  0  0  0  0  0  0  0  0
   37.0580   28.9310   40.1980 C   0  0  0  0  0  0  0  0  0  0  0  0
   37.7780   30.0710   40.2990 N   0  0  0  0  0  0  0  0  0  0  0  0
   38.2930   30.4750   41.4940 C   0  0  0  0  0  0  0  0  0  0  0  0
   38.0870   29.7310   42.6000 N   0  0  0  0  0  0  0  0  0  0  0  0
   36.2610   27.2490   41.2390 H   0  0  0  0  0  0  0  0  0  0  0  0
   38.8750   31.3960   41.5750 H   0  0  0  0  0  0  0  0  0  0  0  0
   37.1700   27.7850   43.7510 C   0  0  0  0  0  0  0  0  0  0  0  0
   36.8520   28.6400   44.7810 F   0  0  0  0  0  0  0  0  0  0  0  0
   38.3640   27.1590   44.0410 F   0  0  0  0  0  0  0  0  0  0  0  0
   36.1450   26.8880   43.5720 F   0  0  0  0  0  0  0  0  0  0  0  0
   34.6610   28.8680   37.2050 C   0  0  0  0  0  0  0  0  0  0  0  0
   35.4580   29.2000   36.1320 C   0  0  0  0  0  0  0  0  0  0  0  0
   34.5620   29.2440   35.0860 C   0  0  0  0  0  0  0  0  0  0  0  0
   33.2710   28.9450   35.5350 C   0  0  0  0  0  0  0  0  0  0  0  0
   33.4470   28.7420   36.7940 O   0  0  0  0  0  0  0  0  0  0  0  0
   36.5230   29.3760   36.1470 H   0  0  0  0  0  0  0  0  0  0  0  0
   34.8800   29.4830   34.0800 H   0  0  0  0  0  0  0  0  0  0  0  0
   32.1700   28.9310   34.6100 C   0  0  0  0  0  0  0  0  0  0  0  0
   31.6730   27.7720   34.0450 C   0  0  0  0  0  0  0  0  0  0  0  0
   32.1010   26.8070   34.2810 H   0  0  0  0  0  0  0  0  0  0  0  0
   30.6250   27.7140   33.1590 C   0  0  0  0  0  3  0  0  0  0  0  0
   29.9960   28.8790   32.7810 C   0  0  0  0  0  3  0  0  0  0  0  0
   30.4390   30.0720   33.3050 C   0  0  0  0  0  0  0  0  0  0  0  0
   29.7980   31.2270   32.9150 C   0  0  0  0  0  3  0  0  0  0  0  0
   30.1950   32.4520   33.4050 C   0  0  0  0  0  3  0  0  0  0  0  0
   31.2620   32.4720   34.3020 C   0  0  0  0  0  3  0  0  0  0  0  0
   31.8610   31.2940   34.6530 C   0  0  0  0  0  3  0  0  0  0  0  0
   31.4930   30.0520   34.1860 C   0  0  0  0  0  0  0  0  0  0  0  0
  1  4  1  6  0  0  0
  1 10  1  0  0  0  0
  2  1  1  0  0  0  0
  2  6  1  0  0  0  0
  3  2  1  0  0  0  0
  3  1  1  0  0  0  0
  3  7  1  1  0  0  0
  5  2  1  0  0  0  0
  8 13  1  0  0  0  0
  8 16  1  0  0  0  0
  9  8  2  0  0  0  0
 10 11  2  0  0  0  0
 10  9  1  0  0  0  0
 11 12  1  0  0  0  0
 12 15  1  0  0  0  0
 12 13  2  0  0  0  0
 14  9  1  0  0  0  0
 16 18  1  0  0  0  0
 16 17  1  0  0  0  0
 19 16  1  0  0  0  0
 20  3  1  0  0  0  0
 21 25  1  0  0  0  0
 21 20  2  0  0  0  0
 22 23  2  0  0  0  0
 22 21  1  0  0  0  0
 23 24  1  0  0  0  0
 24 20  1  0  0  0  0
 26 22  1  0  0  0  0
 27 23  1  0  0  0  0
 28 29  1  0  0  0  0
 28 27  2  0  0  0  0
 30 28  1  0  0  0  0
 31 30  2  0  0  0  0
 31 32  1  0  0  0  0
 32 37  1  0  0  0  0
 33 32  2  0  0  0  0
 33 34  1  0  0  0  0
 34 35  2  0  0  0  0
 35 36  1  0  0  0  0
 37 27  1  0  0  0  0
 37 36  2  0  0  0  0
M  END
>  <minimizedAffinity>
-6.63935137

$$$$
