
 OpenBabel03252500103D

 33 36  0  0  0  0  0  0  0  0999 V2000
   45.2290   32.1860   39.7280 Cl  0  0  0  0  0  0  0  0  0  0  0  0
   46.4900   33.1300   38.9810 C   0  0  0  0  0  0  0  0  0  0  0  0
   47.3220   33.9060   39.7400 C   0  0  0  0  0  0  0  0  0  0  0  0
   48.3450   34.6750   39.1680 C   0  0  0  0  0  0  0  0  0  0  0  0
   48.4580   34.6000   37.7930 C   0  0  0  0  0  0  0  0  0  0  0  0
   47.6290   33.8260   37.0350 C   0  0  0  0  0  0  0  0  0  0  0  0
   46.6390   33.0830   37.6120 C   0  0  0  0  0  0  0  0  0  0  0  0
   48.9880   35.2810   39.7950 H   0  0  0  0  0  0  0  0  0  0  0  0
   49.2450   35.1900   37.3420 H   0  0  0  0  0  0  0  0  0  0  0  0
   47.7740   33.8120   35.9600 H   0  0  0  0  0  0  0  0  0  0  0  0
   45.7520   32.2550   36.7930 C   0  0  0  0  0  0  0  0  0  0  0  0
   44.4330   32.1110   37.1810 C   0  0  0  0  0  0  0  0  0  0  0  0
   44.0730   32.6160   38.0870 H   0  0  0  0  0  0  0  0  0  0  0  0
   43.5940   31.3270   36.4040 C   0  0  0  0  0  0  0  0  0  0  0  0
   44.0830   30.7070   35.2680 C   0  0  0  0  0  0  0  0  0  0  0  0
   45.4090   30.8950   34.9430 C   0  0  0  0  0  0  0  0  0  0  0  0
   45.8470   30.2550   33.8020 C   0  0  0  0  0  0  0  0  0  0  0  0
   47.1670   30.4040   33.4220 C   0  0  0  0  0  0  0  0  0  0  0  0
   48.0330   31.1800   34.1730 C   0  0  0  0  0  0  0  0  0  0  0  0
   47.6150   31.8370   35.3310 C   0  0  0  0  0  0  0  0  0  0  0  0
   46.2970   31.6590   35.6680 C   0  0  0  0  0  0  0  0  0  0  0  0
   47.7230   33.1900   43.3370 C   0  0  0  0  0  0  0  0  0  0  0  0
   46.7810   34.0570   43.9230 C   0  0  0  0  0  0  0  0  0  0  0  0
   46.0250   34.8690   43.0790 C   0  0  0  0  0  0  0  0  0  0  0  0
   46.2200   34.8000   41.7400 N   0  0  0  0  0  0  0  0  0  0  0  0
   47.1480   33.9440   41.2010 C   0  0  0  0  0  0  0  0  0  0  0  0
   47.8840   33.1540   41.9950 N   0  0  0  0  0  0  0  0  0  0  0  0
   48.2630   32.6020   44.0390 H   0  0  0  0  0  0  0  0  0  0  0  0
   46.5620   34.1780   44.9530 H   0  0  0  0  0  0  0  0  0  0  0  0
   44.9870   35.8350   43.5910 C   0  0  0  0  0  0  0  0  0  0  0  0
   45.2960   37.1200   43.2330 F   0  0  0  0  0  0  0  0  0  0  0  0
   43.7550   35.4990   43.0310 F   0  0  0  0  0  0  0  0  0  0  0  0
   44.9430   35.6830   44.9550 F   0  0  0  0  0  0  0  0  0  0  0  0
  2  1  1  0  0  0  0
  2  3  1  0  0  0  0
  3 26  1  0  0  0  0
  4  3  2  0  0  0  0
  4  8  1  0  0  0  0
  5  4  1  0  0  0  0
  6  7  1  0  0  0  0
  6  5  2  0  0  0  0
  7  2  2  0  0  0  0
  9  5  1  0  0  0  0
 10  6  1  0  0  0  0
 11 12  1  0  0  0  0
 11  7  1  0  0  0  0
 12 13  1  0  0  0  0
 14 12  2  0  0  0  0
 15 14  1  0  0  0  0
 16 15  2  0  0  0  0
 16 21  1  0  0  0  0
 17 16  1  0  0  0  0
 18 17  2  0  0  0  0
 18 19  1  0  0  0  0
 19 20  2  0  0  0  0
 20 21  1  0  0  0  0
 21 11  2  0  0  0  0
 22 23  1  0  0  0  0
 22 28  1  0  0  0  0
 23 29  1  0  0  0  0
 24 30  1  0  0  0  0
 24 23  2  0  0  0  0
 25 24  1  0  0  0  0
 26 25  2  0  0  0  0
 26 27  1  0  0  0  0
 27 22  2  0  0  0  0
 30 33  1  0  0  0  0
 31 30  1  0  0  0  0
 32 30  1  0  0  0  0
M  END
>  <minimizedAffinity>
-6.10674334

>  <minimizedRMSD>
0.145683587

$$$$
