
 OpenBabel03252508333D

 34 37  0  0  1  0  0  0  0  0999 V2000
   44.2820   34.4230   41.4740 N   0  0  0  0  0  0  0  0  0  0  0  0
   44.8820   33.4690   40.6640 C   0  0  1  0  0  0  0  0  0  0  0  0
   44.4230   33.4240   39.2440 C   0  0  0  0  0  0  0  0  0  0  0  0
   43.0570   33.6260   39.0230 N   0  0  0  0  0  0  0  0  0  0  0  0
   42.3690   34.4560   39.9280 C   0  0  0  0  0  0  0  0  0  0  0  0
   43.3380   35.2730   40.7770 C   0  0  0  0  0  0  0  0  0  0  0  0
   44.4520   32.4800   41.0750 H   0  0  0  0  0  0  0  0  0  0  0  0
   44.9920   34.0960   38.5700 H   0  0  0  0  0  0  0  0  0  0  0  0
   44.6830   32.3930   38.8550 H   0  0  0  0  0  0  0  0  0  0  0  0
   42.5050   32.8400   38.6520 H   0  0  0  0  0  0  0  0  0  0  0  0
   41.6370   35.1490   39.5230 H   0  0  0  0  0  0  0  0  0  0  0  0
   41.8340   33.8050   40.6610 H   0  0  0  0  0  0  0  0  0  0  0  0
   42.7280   35.9140   41.3980 H   0  0  0  0  0  0  0  0  0  0  0  0
   43.8740   35.9140   40.0430 H   0  0  0  0  0  0  0  0  0  0  0  0
   46.3330   33.2220   40.6410 C   0  0  0  0  0  0  0  0  0  0  0  0
   47.2050   34.3110   40.3970 C   0  0  0  0  0  0  0  0  0  0  0  0
   46.7680   35.3050   40.2080 H   0  0  0  0  0  0  0  0  0  0  0  0
   48.5600   34.2810   40.3680 C   0  0  0  0  0  3  0  0  0  0  0  0
   49.1870   33.0810   40.5940 C   0  0  0  0  0  3  0  0  0  0  0  0
   48.4440   31.9510   40.8420 C   0  0  0  0  0  0  0  0  0  0  0  0
   49.0170   30.7190   41.0760 C   0  0  0  0  0  3  0  0  0  0  0  0
   48.2710   29.5630   41.3290 C   0  0  0  0  0  3  0  0  0  0  0  0
   46.8790   29.6990   41.3390 C   0  0  0  0  0  3  0  0  0  0  0  0
   46.3560   30.9450   41.1000 C   0  0  0  0  0  3  0  0  0  0  0  0
   47.0810   32.0830   40.8510 C   0  0  0  0  0  0  0  0  0  0  0  0
   44.3350   35.6990   43.4980 C   0  0  0  0  0  0  0  0  0  0  0  0
   44.5670   34.4990   42.8440 C   0  0  0  0  0  0  0  0  0  0  0  0
   45.0530   33.4570   43.5930 C   0  0  0  0  0  0  0  0  0  0  0  0
   45.2950   33.5920   44.9080 N   0  0  0  0  0  0  0  0  0  0  0  0
   45.0560   34.7880   45.5220 C   0  0  0  0  0  0  0  0  0  0  0  0
   44.5870   35.8130   44.8290 N   0  0  0  0  0  0  0  0  0  0  0  0
   43.9590   36.6290   43.1060 H   0  0  0  0  0  0  0  0  0  0  0  0
   45.2660   32.4820   43.2520 H   0  0  0  0  0  0  0  0  0  0  0  0
   45.2600   34.8800   46.6020 H   0  0  0  0  0  0  0  0  0  0  0  0
  1 27  1  0  0  0  0
  2  7  1  1  0  0  0
  2  1  1  0  0  0  0
  3  2  1  0  0  0  0
  4  3  1  0  0  0  0
  4  5  1  0  0  0  0
  5 12  1  0  0  0  0
  5  6  1  0  0  0  0
  6 13  1  0  0  0  0
  6  1  1  0  0  0  0
  8  3  1  0  0  0  0
  9  3  1  0  0  0  0
 10  4  1  0  0  0  0
 11  5  1  0  0  0  0
 14  6  1  0  0  0  0
 15  2  1  0  0  0  0
 15 25  1  0  0  0  0
 16 15  2  0  0  0  0
 17 16  1  0  0  0  0
 18 16  1  0  0  0  0
 18 19  2  0  0  0  0
 19 20  1  0  0  0  0
 20 25  2  0  0  0  0
 20 21  1  0  0  0  0
 21 22  2  0  0  0  0
 22 23  1  0  0  0  0
 24 23  2  0  0  0  0
 25 24  1  0  0  0  0
 26 31  1  0  0  0  0
 27 26  2  0  0  0  0
 27 28  1  0  0  0  0
 28 29  2  0  0  0  0
 29 30  1  0  0  0  0
 30 34  1  0  0  0  0
 31 30  2  0  0  0  0
 32 26  1  0  0  0  0
 33 28  1  0  0  0  0
M  END
>  <minimizedAffinity>
-4.58647776

>  <minimizedRMSD>
1.52087295

$$$$
