
 OpenBabel03242516153D

 43 47  0  0  0  0  0  0  0  0999 V2000
   38.4130   29.8450   38.5410 C   0  0  0  0  0  0  0  0  0  0  0  0
   39.3370   28.8350   39.1770 C   0  0  0  0  0  0  0  0  0  0  0  0
   39.4350   29.2540   37.7690 C   0  0  0  0  0  0  0  0  0  0  0  0
   38.8250   27.8900   39.4530 H   0  0  0  0  0  0  0  0  0  0  0  0
   40.2140   29.0320   39.7640 H   0  0  0  0  0  0  0  0  0  0  0  0
   39.4220   28.4010   37.1120 H   0  0  0  0  0  0  0  0  0  0  0  0
   40.3010   29.9280   37.4720 H   0  0  0  0  0  0  0  0  0  0  0  0
   38.5610   31.0380   39.4500 C   0  0  0  0  0  0  0  0  0  0  0  0
   39.8650   31.5630   39.6910 C   0  0  0  0  0  0  0  0  0  0  0  0
   39.9100   33.0490   39.9270 C   0  0  0  0  0  0  0  0  0  0  0  0
   38.9100   33.4090   40.7890 O   0  0  0  0  0  0  0  0  0  0  0  0
   37.7700   33.3430   39.9520 C   0  0  0  0  0  0  0  0  0  0  0  0
   37.4760   32.0050   39.3640 C   0  0  0  0  0  0  0  0  0  0  0  0
   38.2620   30.6020   40.4710 H   0  0  0  0  0  0  0  0  0  0  0  0
   40.5230   31.4190   38.8040 H   0  0  0  0  0  0  0  0  0  0  0  0
   40.4500   31.1180   40.5280 H   0  0  0  0  0  0  0  0  0  0  0  0
   39.7720   33.5770   38.9860 H   0  0  0  0  0  0  0  0  0  0  0  0
   40.9010   33.3280   40.3640 H   0  0  0  0  0  0  0  0  0  0  0  0
   36.9300   33.7400   40.6020 H   0  0  0  0  0  0  0  0  0  0  0  0
   37.9100   34.1100   39.1880 H   0  0  0  0  0  0  0  0  0  0  0  0
   36.4670   31.7100   39.7350 H   0  0  0  0  0  0  0  0  0  0  0  0
   37.2830   32.1660   38.2610 H   0  0  0  0  0  0  0  0  0  0  0  0
   36.3530   29.7150   37.1740 C   0  0  0  0  0  0  0  0  0  0  0  0
   36.9720   29.4700   38.3850 C   0  0  0  0  0  0  0  0  0  0  0  0
   36.2340   28.8890   39.4100 C   0  0  0  0  0  0  0  0  0  0  0  0
   34.9260   28.5810   39.1960 N   0  0  0  0  0  0  0  0  0  0  0  0
   34.3620   28.8450   37.9870 C   0  0  0  0  0  0  0  0  0  0  0  0
   35.0480   29.3940   37.0000 N   0  0  0  0  0  0  0  0  0  0  0  0
   32.9830   28.5770   37.7260 N   0  0  0  0  0  0  0  0  0  0  0  0
   36.9070   30.1620   36.3780 H   0  0  0  0  0  0  0  0  0  0  0  0
   32.6380   27.7590   37.2300 H   0  0  0  0  0  0  0  0  0  0  0  0
   32.5340   29.4300   38.1810 H   0  0  0  0  0  0  0  0  0  0  0  0
   36.6650   28.4740   40.7290 C   0  0  0  0  0  0  0  0  0  0  0  0
   36.9140   29.2230   41.8730 C   0  0  0  0  0  0  0  0  0  0  0  0
   36.7950   30.2850   41.7890 H   0  0  0  0  0  0  0  0  0  0  0  0
   37.2660   28.7040   43.0970 C   0  0  0  0  0  3  0  0  0  0  0  0
   37.3940   27.3460   43.2490 C   0  0  0  0  0  3  0  0  0  0  0  0
   37.1660   26.5120   42.1600 C   0  0  0  0  0  0  0  0  0  0  0  0
   37.3200   25.1630   42.3750 C   0  0  0  0  0  3  0  0  0  0  0  0
   37.1080   24.3290   41.3040 C   0  0  0  0  0  3  0  0  0  0  0  0
   36.7480   24.8200   40.0430 C   0  0  0  0  0  3  0  0  0  0  0  0
   36.6140   26.2070   39.9190 C   0  0  0  0  0  3  0  0  0  0  0  0
   36.8140   27.0960   40.9580 C   0  0  0  0  0  0  0  0  0  0  0  0
  1  2  1  0  0  0  0
  1  8  1  0  0  0  0
  2  4  1  0  0  0  0
  2  5  1  0  0  0  0
  3  1  1  0  0  0  0
  3  2  1  0  0  0  0
  6  3  1  0  0  0  0
  7  3  1  0  0  0  0
  8  9  1  0  0  0  0
  8 14  1  0  0  0  0
  9 10  1  0  0  0  0
  9 16  1  0  0  0  0
 10 18  1  0  0  0  0
 10 11  1  0  0  0  0
 12 19  1  0  0  0  0
 12 11  1  0  0  0  0
 13  8  1  0  0  0  0
 13 21  1  0  0  0  0
 13 12  1  0  0  0  0
 15  9  1  0  0  0  0
 17 10  1  0  0  0  0
 20 12  1  0  0  0  0
 22 13  1  0  0  0  0
 23 24  1  0  0  0  0
 24  1  1  0  0  0  0
 24 25  2  0  0  0  0
 25 33  1  0  0  0  0
 26 25  1  0  0  0  0
 27 26  2  0  0  0  0
 28 23  2  0  0  0  0
 28 27  1  0  0  0  0
 29 27  1  0  0  0  0
 29 32  1  0  0  0  0
 30 23  1  0  0  0  0
 31 29  1  0  0  0  0
 33 43  2  0  0  0  0
 33 34  1  0  0  0  0
 34 36  2  0  0  0  0
 35 34  1  0  0  0  0
 36 37  1  0  0  0  0
 38 39  1  0  0  0  0
 38 37  2  0  0  0  0
 40 39  2  0  0  0  0
 41 40  1  0  0  0  0
 42 41  2  0  0  0  0
 42 43  1  0  0  0  0
 43 38  1  0  0  0  0
M  END
>  <minimizedAffinity>
-6.65168619

$$$$

 OpenBabel03242516153D

 43 47  0  0  0  0  0  0  0  0999 V2000
   39.2800   29.2860   38.5940 C   0  0  0  0  0  0  0  0  0  0  0  0
   40.1620   29.3280   37.3700 C   0  0  0  0  0  0  0  0  0  0  0  0
   40.4820   28.5480   38.5770 C   0  0  0  0  0  0  0  0  0  0  0  0
   40.6230   30.3240   37.2000 H   0  0  0  0  0  0  0  0  0  0  0  0
   40.0640   28.7460   36.4730 H   0  0  0  0  0  0  0  0  0  0  0  0
   41.4660   28.7890   38.9420 H   0  0  0  0  0  0  0  0  0  0  0  0
   40.3820   27.4170   38.5220 H   0  0  0  0  0  0  0  0  0  0  0  0
   37.9560   28.8440   38.0240 C   0  0  0  0  0  0  0  0  0  0  0  0
   37.4780   27.5340   38.3270 C   0  0  0  0  0  0  0  0  0  0  0  0
   35.9800   27.4150   38.4020 C   0  0  0  0  0  0  0  0  0  0  0  0
   35.4110   28.0700   37.3420 O   0  0  0  0  0  0  0  0  0  0  0  0
   35.5550   29.4240   37.7300 C   0  0  0  0  0  0  0  0  0  0  0  0
   36.9550   29.8960   37.9280 C   0  0  0  0  0  0  0  0  0  0  0  0
   38.1850   28.7830   36.8990 H   0  0  0  0  0  0  0  0  0  0  0  0
   37.8160   27.2110   39.3370 H   0  0  0  0  0  0  0  0  0  0  0  0
   37.8030   26.7030   37.6620 H   0  0  0  0  0  0  0  0  0  0  0  0
   35.6180   27.8600   39.3260 H   0  0  0  0  0  0  0  0  0  0  0  0
   35.6890   26.3350   38.3750 H   0  0  0  0  0  0  0  0  0  0  0  0
   34.9980   29.9990   36.9270 H   0  0  0  0  0  0  0  0  0  0  0  0
   34.9450   29.5480   38.6270 H   0  0  0  0  0  0  0  0  0  0  0  0
   37.1170   30.7220   37.1980 H   0  0  0  0  0  0  0  0  0  0  0  0
   36.9790   30.4470   38.9160 H   0  0  0  0  0  0  0  0  0  0  0  0
   39.4840   31.7440   38.7960 C   0  0  0  0  0  0  0  0  0  0  0  0
   39.1240   30.5470   39.3850 C   0  0  0  0  0  0  0  0  0  0  0  0
   38.6340   30.5600   40.6850 C   0  0  0  0  0  0  0  0  0  0  0  0
   38.5260   31.7460   41.3440 N   0  0  0  0  0  0  0  0  0  0  0  0
   38.8960   32.8970   40.7220 C   0  0  0  0  0  0  0  0  0  0  0  0
   39.3610   32.9050   39.4850 N   0  0  0  0  0  0  0  0  0  0  0  0
   38.8390   34.1610   41.3840 N   0  0  0  0  0  0  0  0  0  0  0  0
   39.8620   31.7500   37.7970 H   0  0  0  0  0  0  0  0  0  0  0  0
   38.0910   34.8410   41.2660 H   0  0  0  0  0  0  0  0  0  0  0  0
   39.7390   34.1180   41.9550 H   0  0  0  0  0  0  0  0  0  0  0  0
   38.1310   29.4630   41.4880 C   0  0  0  0  0  0  0  0  0  0  0  0
   36.8380   28.9810   41.6450 C   0  0  0  0  0  0  0  0  0  0  0  0
   36.0630   29.4960   41.1130 H   0  0  0  0  0  0  0  0  0  0  0  0
   36.4890   27.8840   42.3980 C   0  0  0  0  0  3  0  0  0  0  0  0
   37.4600   27.1800   43.0650 C   0  0  0  0  0  3  0  0  0  0  0  0
   38.7870   27.5870   42.9700 C   0  0  0  0  0  0  0  0  0  0  0  0
   39.7090   26.8460   43.6690 C   0  0  0  0  0  3  0  0  0  0  0  0
   41.0220   27.2440   43.5920 C   0  0  0  0  0  3  0  0  0  0  0  0
   41.4150   28.3550   42.8360 C   0  0  0  0  0  3  0  0  0  0  0  0
   40.4070   29.0480   42.1580 C   0  0  0  0  0  3  0  0  0  0  0  0
   39.0700   28.6950   42.1960 C   0  0  0  0  0  0  0  0  0  0  0  0
  1 24  1  0  0  0  0
  2  3  1  0  0  0  0
  2  1  1  0  0  0  0
  3  1  1  0  0  0  0
  3  6  1  0  0  0  0
  4  2  1  0  0  0  0
  5  2  1  0  0  0  0
  7  3  1  0  0  0  0
  8  9  1  0  0  0  0
  8  1  1  0  0  0  0
  9 10  1  0  0  0  0
  9 15  1  0  0  0  0
 10 17  1  0  0  0  0
 11 12  1  0  0  0  0
 11 10  1  0  0  0  0
 12 13  1  0  0  0  0
 12 20  1  0  0  0  0
 13  8  1  0  0  0  0
 13 22  1  0  0  0  0
 14  8  1  0  0  0  0
 16  9  1  0  0  0  0
 18 10  1  0  0  0  0
 19 12  1  0  0  0  0
 21 13  1  0  0  0  0
 23 24  2  0  0  0  0
 23 28  1  0  0  0  0
 24 25  1  0  0  0  0
 25 26  2  0  0  0  0
 25 33  1  0  0  0  0
 27 26  1  0  0  0  0
 27 29  1  0  0  0  0
 28 27  2  0  0  0  0
 29 32  1  0  0  0  0
 30 23  1  0  0  0  0
 31 29  1  0  0  0  0
 33 34  2  0  0  0  0
 33 43  1  0  0  0  0
 34 36  1  0  0  0  0
 35 34  1  0  0  0  0
 36 37  2  0  0  0  0
 38 37  1  0  0  0  0
 38 39  1  0  0  0  0
 40 39  2  0  0  0  0
 41 40  1  0  0  0  0
 42 43  1  0  0  0  0
 42 41  2  0  0  0  0
 43 38  2  0  0  0  0
M  END
>  <minimizedAffinity>
-6.28043747

$$$$

 OpenBabel03242516153D

 43 47  0  0  0  0  0  0  0  0999 V2000
   37.7400   27.9040   42.3140 C   0  0  0  0  0  0  0  0  0  0  0  0
   38.1630   27.4030   43.6740 C   0  0  0  0  0  0  0  0  0  0  0  0
   36.7610   27.6540   43.2990 C   0  0  0  0  0  0  0  0  0  0  0  0
   38.7370   28.1540   44.2550 H   0  0  0  0  0  0  0  0  0  0  0  0
   38.3750   26.3900   43.9600 H   0  0  0  0  0  0  0  0  0  0  0  0
   36.2850   28.3110   44.0070 H   0  0  0  0  0  0  0  0  0  0  0  0
   36.0860   26.7550   43.1270 H   0  0  0  0  0  0  0  0  0  0  0  0
   38.3510   26.8840   41.3880 C   0  0  0  0  0  0  0  0  0  0  0  0
   37.4960   26.1380   40.5230 C   0  0  0  0  0  0  0  0  0  0  0  0
   38.1180   25.7490   39.2090 C   0  0  0  0  0  0  0  0  0  0  0  0
   39.3830   25.2710   39.4200 O   0  0  0  0  0  0  0  0  0  0  0  0
   40.1040   26.4630   39.6730 C   0  0  0  0  0  0  0  0  0  0  0  0
   39.6550   27.2520   40.8550 C   0  0  0  0  0  0  0  0  0  0  0  0
   38.7350   26.0880   42.1240 H   0  0  0  0  0  0  0  0  0  0  0  0
   36.6090   26.7400   40.2250 H   0  0  0  0  0  0  0  0  0  0  0  0
   37.0550   25.1990   40.9250 H   0  0  0  0  0  0  0  0  0  0  0  0
   38.1740   26.6170   38.5550 H   0  0  0  0  0  0  0  0  0  0  0  0
   37.4950   24.9600   38.7200 H   0  0  0  0  0  0  0  0  0  0  0  0
   41.1820   26.1200   39.7470 H   0  0  0  0  0  0  0  0  0  0  0  0
   40.0650   27.0420   38.7490 H   0  0  0  0  0  0  0  0  0  0  0  0
   40.5220   27.3000   41.5530 H   0  0  0  0  0  0  0  0  0  0  0  0
   39.5650   28.3280   40.5170 H   0  0  0  0  0  0  0  0  0  0  0  0
   39.2130   29.8740   42.5830 C   0  0  0  0  0  0  0  0  0  0  0  0
   38.1490   29.2900   41.9240 C   0  0  0  0  0  0  0  0  0  0  0  0
   37.4990   30.0100   40.9280 C   0  0  0  0  0  0  0  0  0  0  0  0
   37.9250   31.2680   40.6320 N   0  0  0  0  0  0  0  0  0  0  0  0
   38.9760   31.8010   41.3110 C   0  0  0  0  0  0  0  0  0  0  0  0
   39.6080   31.1290   42.2590 N   0  0  0  0  0  0  0  0  0  0  0  0
   39.4340   33.1300   41.0650 N   0  0  0  0  0  0  0  0  0  0  0  0
   39.7220   29.3330   43.3510 H   0  0  0  0  0  0  0  0  0  0  0  0
   40.2390   33.3660   40.4890 H   0  0  0  0  0  0  0  0  0  0  0  0
   38.7210   33.6860   41.6300 H   0  0  0  0  0  0  0  0  0  0  0  0
   36.4180   29.6000   40.0560 C   0  0  0  0  0  0  0  0  0  0  0  0
   35.0500   29.5310   40.2890 C   0  0  0  0  0  0  0  0  0  0  0  0
   34.7130   29.8010   41.2700 H   0  0  0  0  0  0  0  0  0  0  0  0
   34.1050   29.1780   39.3530 C   0  0  0  0  0  3  0  0  0  0  0  0
   34.4970   28.8600   38.0780 C   0  0  0  0  0  3  0  0  0  0  0  0
   35.8480   28.8990   37.7470 C   0  0  0  0  0  0  0  0  0  0  0  0
   36.1760   28.5600   36.4570 C   0  0  0  0  0  3  0  0  0  0  0  0
   37.5080   28.5840   36.1210 C   0  0  0  0  0  3  0  0  0  0  0  0
   38.4970   28.9380   37.0450 C   0  0  0  0  0  3  0  0  0  0  0  0
   38.0700   29.2680   38.3350 C   0  0  0  0  0  3  0  0  0  0  0  0
   36.7450   29.2620   38.7320 C   0  0  0  0  0  0  0  0  0  0  0  0
  1  3  1  0  0  0  0
  1  2  1  0  0  0  0
  2  5  1  0  0  0  0
  2  4  1  0  0  0  0
  3  2  1  0  0  0  0
  3  6  1  0  0  0  0
  7  3  1  0  0  0  0
  8 14  1  0  0  0  0
  8  1  1  0  0  0  0
  9 16  1  0  0  0  0
  9  8  1  0  0  0  0
 10 11  1  0  0  0  0
 10  9  1  0  0  0  0
 11 12  1  0  0  0  0
 12 19  1  0  0  0  0
 12 13  1  0  0  0  0
 13  8  1  0  0  0  0
 13 21  1  0  0  0  0
 15  9  1  0  0  0  0
 17 10  1  0  0  0  0
 18 10  1  0  0  0  0
 20 12  1  0  0  0  0
 22 13  1  0  0  0  0
 23 30  1  0  0  0  0
 24  1  1  0  0  0  0
 24 23  2  0  0  0  0
 25 24  1  0  0  0  0
 26 25  2  0  0  0  0
 26 27  1  0  0  0  0
 27 28  2  0  0  0  0
 28 23  1  0  0  0  0
 29 27  1  0  0  0  0
 29 32  1  0  0  0  0
 31 29  1  0  0  0  0
 33 34  1  0  0  0  0
 33 25  1  0  0  0  0
 34 35  1  0  0  0  0
 36 34  2  0  0  0  0
 37 36  1  0  0  0  0
 38 37  2  0  0  0  0
 38 43  1  0  0  0  0
 39 38  1  0  0  0  0
 40 39  2  0  0  0  0
 40 41  1  0  0  0  0
 41 42  2  0  0  0  0
 42 43  1  0  0  0  0
 43 33  2  0  0  0  0
M  END
>  <minimizedAffinity>
-6.17147589

$$$$

 OpenBabel03242516153D

 43 47  0  0  0  0  0  0  0  0999 V2000
   41.0600   30.5250   42.0800 C   0  0  0  0  0  0  0  0  0  0  0  0
   42.4470   31.0620   41.8260 C   0  0  0  0  0  0  0  0  0  0  0  0
   41.8110   31.0470   43.1540 C   0  0  0  0  0  0  0  0  0  0  0  0
   42.4510   31.9860   41.2100 H   0  0  0  0  0  0  0  0  0  0  0  0
   43.3620   30.5040   41.7620 H   0  0  0  0  0  0  0  0  0  0  0  0
   41.8240   32.0270   43.5990 H   0  0  0  0  0  0  0  0  0  0  0  0
   42.1920   30.2960   43.9190 H   0  0  0  0  0  0  0  0  0  0  0  0
   41.1480   29.1240   41.5290 C   0  0  0  0  0  0  0  0  0  0  0  0
   41.6730   28.9330   40.2170 C   0  0  0  0  0  0  0  0  0  0  0  0
   42.4060   27.6340   40.0170 C   0  0  0  0  0  0  0  0  0  0  0  0
   41.6880   26.6080   40.5720 O   0  0  0  0  0  0  0  0  0  0  0  0
   41.9290   26.8010   41.9530 C   0  0  0  0  0  0  0  0  0  0  0  0
   41.4720   28.1030   42.5150 C   0  0  0  0  0  0  0  0  0  0  0  0
   40.0400   28.8400   41.4110 H   0  0  0  0  0  0  0  0  0  0  0  0
   42.4380   29.7040   39.9770 H   0  0  0  0  0  0  0  0  0  0  0  0
   40.9580   28.9970   39.3650 H   0  0  0  0  0  0  0  0  0  0  0  0
   43.3810   27.6810   40.4980 H   0  0  0  0  0  0  0  0  0  0  0  0
   42.5440   27.4460   38.9230 H   0  0  0  0  0  0  0  0  0  0  0  0
   41.4380   25.9050   42.4440 H   0  0  0  0  0  0  0  0  0  0  0  0
   42.9990   26.6390   42.0980 H   0  0  0  0  0  0  0  0  0  0  0  0
   40.7200   27.8640   43.3020 H   0  0  0  0  0  0  0  0  0  0  0  0
   42.3300   28.5160   43.1270 H   0  0  0  0  0  0  0  0  0  0  0  0
   40.1450   32.4790   40.8670 C   0  0  0  0  0  0  0  0  0  0  0  0
   39.9050   31.2620   41.4770 C   0  0  0  0  0  0  0  0  0  0  0  0
   38.6050   30.7720   41.5070 C   0  0  0  0  0  0  0  0  0  0  0  0
   37.6060   31.5020   40.9410 N   0  0  0  0  0  0  0  0  0  0  0  0
   37.8920   32.6960   40.3560 C   0  0  0  0  0  0  0  0  0  0  0  0
   39.1230   33.1770   40.3150 N   0  0  0  0  0  0  0  0  0  0  0  0
   36.8740   33.5170   39.7850 N   0  0  0  0  0  0  0  0  0  0  0  0
   41.1400   32.8680   40.8370 H   0  0  0  0  0  0  0  0  0  0  0  0
   36.6620   33.5660   38.7910 H   0  0  0  0  0  0  0  0  0  0  0  0
   36.4880   33.9810   40.6630 H   0  0  0  0  0  0  0  0  0  0  0  0
   38.1120   29.5090   42.0170 C   0  0  0  0  0  0  0  0  0  0  0  0
   37.8540   29.1030   43.3200 C   0  0  0  0  0  0  0  0  0  0  0  0
   38.0630   29.8110   44.0960 H   0  0  0  0  0  0  0  0  0  0  0  0
   37.3260   27.8840   43.6790 C   0  0  0  0  0  3  0  0  0  0  0  0
   37.0160   26.9650   42.7080 C   0  0  0  0  0  3  0  0  0  0  0  0
   37.2390   27.2800   41.3720 C   0  0  0  0  0  0  0  0  0  0  0  0
   36.9170   26.3130   40.4500 C   0  0  0  0  0  3  0  0  0  0  0  0
   37.1430   26.6080   39.1270 C   0  0  0  0  0  3  0  0  0  0  0  0
   37.6780   27.8370   38.7240 C   0  0  0  0  0  3  0  0  0  0  0  0
   37.9760   28.7590   39.7320 C   0  0  0  0  0  3  0  0  0  0  0  0
   37.7700   28.5210   41.0790 C   0  0  0  0  0  0  0  0  0  0  0  0
  1  3  1  0  0  0  0
  2  1  1  0  0  0  0
  2  3  1  0  0  0  0
  3  6  1  0  0  0  0
  3  7  1  0  0  0  0
  4  2  1  0  0  0  0
  5  2  1  0  0  0  0
  8  1  1  0  0  0  0
  8 13  1  0  0  0  0
  9  8  1  0  0  0  0
 10  9  1  0  0  0  0
 10 17  1  0  0  0  0
 10 11  1  0  0  0  0
 11 12  1  0  0  0  0
 12 20  1  0  0  0  0
 12 19  1  0  0  0  0
 12 13  1  0  0  0  0
 13 22  1  0  0  0  0
 13 21  1  0  0  0  0
 14  8  1  0  0  0  0
 15  9  1  0  0  0  0
 16  9  1  0  0  0  0
 18 10  1  0  0  0  0
 23 24  1  0  0  0  0
 24 25  2  0  0  0  0
 24  1  1  0  0  0  0
 25 33  1  0  0  0  0
 26 25  1  0  0  0  0
 27 26  2  0  0  0  0
 28 27  1  0  0  0  0
 28 23  2  0  0  0  0
 29 27  1  0  0  0  0
 29 32  1  0  0  0  0
 30 23  1  0  0  0  0
 31 29  1  0  0  0  0
 33 34  1  0  0  0  0
 34 36  2  0  0  0  0
 34 35  1  0  0  0  0
 37 36  1  0  0  0  0
 38 37  2  0  0  0  0
 39 38  1  0  0  0  0
 40 39  2  0  0  0  0
 41 40  1  0  0  0  0
 41 42  2  0  0  0  0
 42 43  1  0  0  0  0
 43 38  1  0  0  0  0
 43 33  2  0  0  0  0
M  END
>  <minimizedAffinity>
-6.10109997

$$$$

 OpenBabel03242516153D

 43 47  0  0  0  0  0  0  0  0999 V2000
   37.4710   30.9020   39.4760 C   0  0  0  0  0  0  0  0  0  0  0  0
   36.7500   31.4060   40.7020 C   0  0  0  0  0  0  0  0  0  0  0  0
   37.0380   32.2430   39.5260 C   0  0  0  0  0  0  0  0  0  0  0  0
   37.3990   31.4500   41.6010 H   0  0  0  0  0  0  0  0  0  0  0  0
   35.7070   31.3040   40.9350 H   0  0  0  0  0  0  0  0  0  0  0  0
   37.5540   33.1430   39.8110 H   0  0  0  0  0  0  0  0  0  0  0  0
   36.1700   32.5210   38.8450 H   0  0  0  0  0  0  0  0  0  0  0  0
   36.6370   29.7110   39.0760 C   0  0  0  0  0  0  0  0  0  0  0  0
   35.3630   29.5250   39.6900 C   0  0  0  0  0  0  0  0  0  0  0  0
   34.3340   28.8660   38.8120 C   0  0  0  0  0  0  0  0  0  0  0  0
   34.8930   27.7940   38.1700 O   0  0  0  0  0  0  0  0  0  0  0  0
   35.6730   28.4290   37.1740 C   0  0  0  0  0  0  0  0  0  0  0  0
   36.7440   29.3380   37.6730 C   0  0  0  0  0  0  0  0  0  0  0  0
   37.2560   28.8330   39.4880 H   0  0  0  0  0  0  0  0  0  0  0  0
   34.8990   30.5030   39.9490 H   0  0  0  0  0  0  0  0  0  0  0  0
   35.3340   28.9580   40.6480 H   0  0  0  0  0  0  0  0  0  0  0  0
   33.9730   29.5730   38.0690 H   0  0  0  0  0  0  0  0  0  0  0  0
   33.4740   28.5200   39.4390 H   0  0  0  0  0  0  0  0  0  0  0  0
   36.0700   27.5710   36.5490 H   0  0  0  0  0  0  0  0  0  0  0  0
   34.9670   28.9410   36.5180 H   0  0  0  0  0  0  0  0  0  0  0  0
   37.7100   28.9240   37.3030 H   0  0  0  0  0  0  0  0  0  0  0  0
   36.6590   30.3010   37.0830 H   0  0  0  0  0  0  0  0  0  0  0  0
   39.8410   31.1200   38.7960 C   0  0  0  0  0  0  0  0  0  0  0  0
   38.9100   30.5180   39.6220 C   0  0  0  0  0  0  0  0  0  0  0  0
   39.3450   29.5810   40.5510 C   0  0  0  0  0  0  0  0  0  0  0  0
   40.6700   29.2790   40.6210 N   0  0  0  0  0  0  0  0  0  0  0  0
   41.5470   29.8970   39.7850 C   0  0  0  0  0  0  0  0  0  0  0  0
   41.1520   30.7930   38.8970 N   0  0  0  0  0  0  0  0  0  0  0  0
   42.9410   29.5850   39.7920 N   0  0  0  0  0  0  0  0  0  0  0  0
   39.5210   31.8430   38.0770 H   0  0  0  0  0  0  0  0  0  0  0  0
   43.6540   30.1420   40.2580 H   0  0  0  0  0  0  0  0  0  0  0  0
   42.9390   28.6900   39.2140 H   0  0  0  0  0  0  0  0  0  0  0  0
   38.5880   28.8700   41.5610 C   0  0  0  0  0  0  0  0  0  0  0  0
   38.1700   29.2730   42.8230 C   0  0  0  0  0  0  0  0  0  0  0  0
   38.4570   30.2580   43.1340 H   0  0  0  0  0  0  0  0  0  0  0  0
   37.3980   28.5220   43.6780 C   0  0  0  0  0  3  0  0  0  0  0  0
   36.9850   27.2690   43.2980 C   0  0  0  0  0  3  0  0  0  0  0  0
   37.3540   26.7770   42.0510 C   0  0  0  0  0  0  0  0  0  0  0  0
   36.9170   25.5120   41.7350 C   0  0  0  0  0  3  0  0  0  0  0  0
   37.2840   25.0100   40.5100 C   0  0  0  0  0  3  0  0  0  0  0  0
   38.0690   25.7450   39.6140 C   0  0  0  0  0  3  0  0  0  0  0  0
   38.4670   27.0220   40.0210 C   0  0  0  0  0  3  0  0  0  0  0  0
   38.1290   27.5820   41.2400 C   0  0  0  0  0  0  0  0  0  0  0  0
  1  3  1  0  0  0  0
  1 24  1  0  0  0  0
  1  2  1  0  0  0  0
  2  5  1  0  0  0  0
  2  4  1  0  0  0  0
  3  6  1  0  0  0  0
  3  2  1  0  0  0  0
  7  3  1  0  0  0  0
  8  1  1  0  0  0  0
  8 14  1  0  0  0  0
  8  9  1  0  0  0  0
  9 15  1  0  0  0  0
  9 16  1  0  0  0  0
 10 18  1  0  0  0  0
 10  9  1  0  0  0  0
 11 10  1  0  0  0  0
 12 13  1  0  0  0  0
 12 11  1  0  0  0  0
 13  8  1  0  0  0  0
 17 10  1  0  0  0  0
 19 12  1  0  0  0  0
 20 12  1  0  0  0  0
 21 13  1  0  0  0  0
 22 13  1  0  0  0  0
 23 28  2  0  0  0  0
 23 24  1  0  0  0  0
 24 25  2  0  0  0  0
 25 26  1  0  0  0  0
 25 33  1  0  0  0  0
 27 29  1  0  0  0  0
 27 26  2  0  0  0  0
 28 27  1  0  0  0  0
 29 31  1  0  0  0  0
 30 23  1  0  0  0  0
 32 29  1  0  0  0  0
 33 34  1  0  0  0  0
 34 35  1  0  0  0  0
 34 36  2  0  0  0  0
 37 36  1  0  0  0  0
 38 37  2  0  0  0  0
 39 38  1  0  0  0  0
 40 39  2  0  0  0  0
 41 42  2  0  0  0  0
 41 40  1  0  0  0  0
 42 43  1  0  0  0  0
 43 33  2  0  0  0  0
 43 38  1  0  0  0  0
M  END
>  <minimizedAffinity>
-6.09120369

$$$$

 OpenBabel03242516153D

 43 47  0  0  0  0  0  0  0  0999 V2000
   36.4210   29.2690   39.8820 C   0  0  0  0  0  0  0  0  0  0  0  0
   35.7690   30.3310   40.7330 C   0  0  0  0  0  0  0  0  0  0  0  0
   35.1890   28.9960   40.5120 C   0  0  0  0  0  0  0  0  0  0  0  0
   35.4200   31.2060   40.1460 H   0  0  0  0  0  0  0  0  0  0  0  0
   35.9780   30.5640   41.7610 H   0  0  0  0  0  0  0  0  0  0  0  0
   34.1780   29.0710   40.1510 H   0  0  0  0  0  0  0  0  0  0  0  0
   35.2130   28.2550   41.3740 H   0  0  0  0  0  0  0  0  0  0  0  0
   37.7880   29.1450   40.5070 C   0  0  0  0  0  0  0  0  0  0  0  0
   37.9780   29.6090   41.8420 C   0  0  0  0  0  0  0  0  0  0  0  0
   39.0080   28.8460   42.6310 C   0  0  0  0  0  0  0  0  0  0  0  0
   40.1220   28.6440   41.8620 O   0  0  0  0  0  0  0  0  0  0  0  0
   39.6900   27.6160   40.9900 C   0  0  0  0  0  0  0  0  0  0  0  0
   38.5260   27.9520   40.1210 C   0  0  0  0  0  0  0  0  0  0  0  0
   38.4070   29.8860   39.8830 H   0  0  0  0  0  0  0  0  0  0  0  0
   37.0480   29.4900   42.4430 H   0  0  0  0  0  0  0  0  0  0  0  0
   38.2440   30.6820   41.9790 H   0  0  0  0  0  0  0  0  0  0  0  0
   38.6060   27.8790   42.9280 H   0  0  0  0  0  0  0  0  0  0  0  0
   39.2840   29.4260   43.5470 H   0  0  0  0  0  0  0  0  0  0  0  0
   40.6210   27.3440   40.4050 H   0  0  0  0  0  0  0  0  0  0  0  0
   39.4990   26.7460   41.6210 H   0  0  0  0  0  0  0  0  0  0  0  0
   38.8800   27.8600   39.0680 H   0  0  0  0  0  0  0  0  0  0  0  0
   37.7970   27.0900   40.2010 H   0  0  0  0  0  0  0  0  0  0  0  0
   35.9750   28.6070   37.5390 C   0  0  0  0  0  0  0  0  0  0  0  0
   36.5310   29.5240   38.4110 C   0  0  0  0  0  0  0  0  0  0  0  0
   37.1700   30.6430   37.8910 C   0  0  0  0  0  0  0  0  0  0  0  0
   37.2350   30.8050   36.5410 N   0  0  0  0  0  0  0  0  0  0  0  0
   36.6750   29.8720   35.7240 C   0  0  0  0  0  0  0  0  0  0  0  0
   36.0600   28.8030   36.2010 N   0  0  0  0  0  0  0  0  0  0  0  0
   36.7520   29.9760   34.3020 N   0  0  0  0  0  0  0  0  0  0  0  0
   35.4810   27.7420   37.9240 H   0  0  0  0  0  0  0  0  0  0  0  0
   36.0030   30.3250   33.7080 H   0  0  0  0  0  0  0  0  0  0  0  0
   37.7370   29.6050   34.1360 H   0  0  0  0  0  0  0  0  0  0  0  0
   37.7630   31.7670   38.5850 C   0  0  0  0  0  0  0  0  0  0  0  0
   37.1710   32.8860   39.1580 C   0  0  0  0  0  0  0  0  0  0  0  0
   36.1060   32.9670   39.0700 H   0  0  0  0  0  0  0  0  0  0  0  0
   37.8410   33.8690   39.8490 C   0  0  0  0  0  3  0  0  0  0  0  0
   39.2010   33.7800   40.0100 C   0  0  0  0  0  3  0  0  0  0  0  0
   39.8840   32.6950   39.4720 C   0  0  0  0  0  0  0  0  0  0  0  0
   41.2450   32.6710   39.6590 C   0  0  0  0  0  3  0  0  0  0  0  0
   41.9340   31.6100   39.1220 C   0  0  0  0  0  3  0  0  0  0  0  0
   41.2860   30.5910   38.4120 C   0  0  0  0  0  3  0  0  0  0  0  0
   39.8990   30.7000   38.2720 C   0  0  0  0  0  3  0  0  0  0  0  0
   39.1530   31.7430   38.7900 C   0  0  0  0  0  0  0  0  0  0  0  0
  1  8  1  0  0  0  0
  1  3  1  0  0  0  0
  1  2  1  0  0  0  0
  2  5  1  0  0  0  0
  3  2  1  0  0  0  0
  3  7  1  0  0  0  0
  4  2  1  0  0  0  0
  6  3  1  0  0  0  0
  8  9  1  0  0  0  0
  9 16  1  0  0  0  0
  9 15  1  0  0  0  0
  9 10  1  0  0  0  0
 10 17  1  0  0  0  0
 10 18  1  0  0  0  0
 11 10  1  0  0  0  0
 12 20  1  0  0  0  0
 12 11  1  0  0  0  0
 13 22  1  0  0  0  0
 13  8  1  0  0  0  0
 13 12  1  0  0  0  0
 14  8  1  0  0  0  0
 19 12  1  0  0  0  0
 21 13  1  0  0  0  0
 23 30  1  0  0  0  0
 23 24  1  0  0  0  0
 24  1  1  0  0  0  0
 25 24  2  0  0  0  0
 25 33  1  0  0  0  0
 26 25  1  0  0  0  0
 27 28  1  0  0  0  0
 27 26  2  0  0  0  0
 28 23  2  0  0  0  0
 29 27  1  0  0  0  0
 31 29  1  0  0  0  0
 32 29  1  0  0  0  0
 33 43  2  0  0  0  0
 33 34  1  0  0  0  0
 34 36  2  0  0  0  0
 35 34  1  0  0  0  0
 36 37  1  0  0  0  0
 38 39  1  0  0  0  0
 38 37  2  0  0  0  0
 40 39  2  0  0  0  0
 41 40  1  0  0  0  0
 42 41  2  0  0  0  0
 42 43  1  0  0  0  0
 43 38  1  0  0  0  0
M  END
>  <minimizedAffinity>
-6.01789379

$$$$

 OpenBabel03242516153D

 43 47  0  0  0  0  0  0  0  0999 V2000
   38.7630   28.3710   38.3420 C   0  0  0  0  0  0  0  0  0  0  0  0
   39.5230   28.3590   37.0380 C   0  0  0  0  0  0  0  0  0  0  0  0
   40.1340   28.0380   38.3390 C   0  0  0  0  0  0  0  0  0  0  0  0
   39.6380   29.3680   36.5910 H   0  0  0  0  0  0  0  0  0  0  0  0
   39.5670   27.5660   36.3150 H   0  0  0  0  0  0  0  0  0  0  0  0
   41.0090   28.6400   38.5120 H   0  0  0  0  0  0  0  0  0  0  0  0
   40.3920   26.9510   38.5530 H   0  0  0  0  0  0  0  0  0  0  0  0
   37.6180   27.4320   38.0600 C   0  0  0  0  0  0  0  0  0  0  0  0
   37.5760   26.1750   38.7320 C   0  0  0  0  0  0  0  0  0  0  0  0
   36.1900   25.6570   39.0090 C   0  0  0  0  0  0  0  0  0  0  0  0
   35.4090   25.8100   37.8950 O   0  0  0  0  0  0  0  0  0  0  0  0
   35.1450   27.2000   37.9160 C   0  0  0  0  0  0  0  0  0  0  0  0
   36.3400   28.0870   37.8240 C   0  0  0  0  0  0  0  0  0  0  0  0
   37.8130   27.1360   36.9660 H   0  0  0  0  0  0  0  0  0  0  0  0
   38.0350   26.2480   39.7440 H   0  0  0  0  0  0  0  0  0  0  0  0
   38.1150   25.3230   38.2590 H   0  0  0  0  0  0  0  0  0  0  0  0
   35.7440   26.2140   39.8310 H   0  0  0  0  0  0  0  0  0  0  0  0
   36.2440   24.5750   39.2850 H   0  0  0  0  0  0  0  0  0  0  0  0
   34.4100   27.3510   37.0670 H   0  0  0  0  0  0  0  0  0  0  0  0
   34.5610   27.3840   38.8190 H   0  0  0  0  0  0  0  0  0  0  0  0
   36.2140   28.6940   36.8980 H   0  0  0  0  0  0  0  0  0  0  0  0
   36.2310   28.8690   38.6350 H   0  0  0  0  0  0  0  0  0  0  0  0
   38.1980   30.7500   37.9610 C   0  0  0  0  0  0  0  0  0  0  0  0
   38.2600   29.6880   38.8430 C   0  0  0  0  0  0  0  0  0  0  0  0
   37.8540   29.8850   40.1580 C   0  0  0  0  0  0  0  0  0  0  0  0
   37.4130   31.1130   40.5420 N   0  0  0  0  0  0  0  0  0  0  0  0
   37.3740   32.1280   39.6360 C   0  0  0  0  0  0  0  0  0  0  0  0
   37.7520   31.9590   38.3810 N   0  0  0  0  0  0  0  0  0  0  0  0
   36.9570   33.4440   39.9990 N   0  0  0  0  0  0  0  0  0  0  0  0
   38.5070   30.6140   36.9470 H   0  0  0  0  0  0  0  0  0  0  0  0
   36.0290   33.8240   39.8250 H   0  0  0  0  0  0  0  0  0  0  0  0
   37.8510   33.8100   40.4490 H   0  0  0  0  0  0  0  0  0  0  0  0
   37.7590   28.9280   41.2410 C   0  0  0  0  0  0  0  0  0  0  0  0
   36.6730   28.1960   41.7040 C   0  0  0  0  0  0  0  0  0  0  0  0
   35.7360   28.3590   41.2110 H   0  0  0  0  0  0  0  0  0  0  0  0
   36.7210   27.2640   42.7160 C   0  0  0  0  0  3  0  0  0  0  0  0
   37.9110   27.0060   43.3470 C   0  0  0  0  0  3  0  0  0  0  0  0
   39.0560   27.6900   42.9540 C   0  0  0  0  0  0  0  0  0  0  0  0
   40.2140   27.3930   43.6330 C   0  0  0  0  0  3  0  0  0  0  0  0
   41.3500   28.0700   43.2610 C   0  0  0  0  0  3  0  0  0  0  0  0
   41.3410   29.0250   42.2370 C   0  0  0  0  0  3  0  0  0  0  0  0
   40.1170   29.2610   41.6030 C   0  0  0  0  0  3  0  0  0  0  0  0
   38.9420   28.6120   41.9320 C   0  0  0  0  0  0  0  0  0  0  0  0
  1 24  1  0  0  0  0
  2  3  1  0  0  0  0
  2  1  1  0  0  0  0
  3  1  1  0  0  0  0
  3  6  1  0  0  0  0
  3  7  1  0  0  0  0
  4  2  1  0  0  0  0
  5  2  1  0  0  0  0
  8  1  1  0  0  0  0
  8  9  1  0  0  0  0
  9 10  1  0  0  0  0
  9 15  1  0  0  0  0
 10 18  1  0  0  0  0
 10 17  1  0  0  0  0
 11 12  1  0  0  0  0
 11 10  1  0  0  0  0
 12 20  1  0  0  0  0
 13 12  1  0  0  0  0
 13  8  1  0  0  0  0
 13 22  1  0  0  0  0
 14  8  1  0  0  0  0
 16  9  1  0  0  0  0
 19 12  1  0  0  0  0
 21 13  1  0  0  0  0
 23 28  2  0  0  0  0
 23 24  1  0  0  0  0
 24 25  2  0  0  0  0
 25 26  1  0  0  0  0
 25 33  1  0  0  0  0
 27 29  1  0  0  0  0
 27 26  2  0  0  0  0
 28 27  1  0  0  0  0
 29 32  1  0  0  0  0
 30 23  1  0  0  0  0
 31 29  1  0  0  0  0
 33 34  2  0  0  0  0
 33 43  1  0  0  0  0
 34 36  1  0  0  0  0
 35 34  1  0  0  0  0
 36 37  2  0  0  0  0
 38 37  1  0  0  0  0
 38 39  1  0  0  0  0
 40 39  2  0  0  0  0
 41 40  1  0  0  0  0
 42 43  1  0  0  0  0
 42 41  2  0  0  0  0
 43 38  2  0  0  0  0
M  END
>  <minimizedAffinity>
-5.91979074

$$$$

 OpenBabel03242516153D

 43 47  0  0  0  0  0  0  0  0999 V2000
   35.8310   28.3370   38.1030 C   0  0  0  0  0  0  0  0  0  0  0  0
   34.9070   28.8010   37.0030 C   0  0  0  0  0  0  0  0  0  0  0  0
   34.6440   27.6200   37.8430 C   0  0  0  0  0  0  0  0  0  0  0  0
   35.3460   28.6890   35.9900 H   0  0  0  0  0  0  0  0  0  0  0  0
   34.1560   29.5660   37.0600 H   0  0  0  0  0  0  0  0  0  0  0  0
   34.4620   26.7500   37.2370 H   0  0  0  0  0  0  0  0  0  0  0  0
   33.8240   27.6960   38.6270 H   0  0  0  0  0  0  0  0  0  0  0  0
   35.9560   29.5700   38.9620 C   0  0  0  0  0  0  0  0  0  0  0  0
   35.5120   29.5140   40.3160 C   0  0  0  0  0  0  0  0  0  0  0  0
   36.2820   30.3920   41.2660 C   0  0  0  0  0  0  0  0  0  0  0  0
   36.4630   31.6280   40.7070 O   0  0  0  0  0  0  0  0  0  0  0  0
   37.4800   31.3690   39.7560 C   0  0  0  0  0  0  0  0  0  0  0  0
   37.1380   30.3770   38.6980 C   0  0  0  0  0  0  0  0  0  0  0  0
   35.2010   30.2850   38.4700 H   0  0  0  0  0  0  0  0  0  0  0  0
   35.6470   28.4920   40.7380 H   0  0  0  0  0  0  0  0  0  0  0  0
   34.4400   29.7410   40.5140 H   0  0  0  0  0  0  0  0  0  0  0  0
   37.2550   29.9520   41.4710 H   0  0  0  0  0  0  0  0  0  0  0  0
   35.7140   30.4940   42.2240 H   0  0  0  0  0  0  0  0  0  0  0  0
   37.7370   32.3930   39.3440 H   0  0  0  0  0  0  0  0  0  0  0  0
   38.3620   31.0760   40.3300 H   0  0  0  0  0  0  0  0  0  0  0  0
   37.2100   30.9150   37.7240 H   0  0  0  0  0  0  0  0  0  0  0  0
   38.0060   29.6540   38.6320 H   0  0  0  0  0  0  0  0  0  0  0  0
   37.7650   28.3190   36.5590 C   0  0  0  0  0  0  0  0  0  0  0  0
   37.1810   27.8240   37.7100 C   0  0  0  0  0  0  0  0  0  0  0  0
   37.8660   26.8710   38.4530 C   0  0  0  0  0  0  0  0  0  0  0  0
   39.0880   26.4490   38.0290 N   0  0  0  0  0  0  0  0  0  0  0  0
   39.6190   26.9640   36.8880 C   0  0  0  0  0  0  0  0  0  0  0  0
   38.9840   27.8730   36.1690 N   0  0  0  0  0  0  0  0  0  0  0  0
   40.8790   26.5240   36.3800 N   0  0  0  0  0  0  0  0  0  0  0  0
   37.2500   29.0520   35.9770 H   0  0  0  0  0  0  0  0  0  0  0  0
   41.7580   27.0220   36.5070 H   0  0  0  0  0  0  0  0  0  0  0  0
   40.5860   25.6200   35.8980 H   0  0  0  0  0  0  0  0  0  0  0  0
   37.5040   26.2570   39.7150 C   0  0  0  0  0  0  0  0  0  0  0  0
   36.7260   25.1380   39.9810 C   0  0  0  0  0  0  0  0  0  0  0  0
   36.2940   24.6390   39.1370 H   0  0  0  0  0  0  0  0  0  0  0  0
   36.4990   24.6120   41.2320 C   0  0  0  0  0  3  0  0  0  0  0  0
   37.0640   25.2060   42.3320 C   0  0  0  0  0  3  0  0  0  0  0  0
   37.8600   26.3350   42.1670 C   0  0  0  0  0  0  0  0  0  0  0  0
   38.3880   26.8880   43.3090 C   0  0  0  0  0  3  0  0  0  0  0  0
   39.1680   28.0090   43.1600 C   0  0  0  0  0  3  0  0  0  0  0  0
   39.4210   28.5730   41.9040 C   0  0  0  0  0  3  0  0  0  0  0  0
   38.8420   27.9420   40.7980 C   0  0  0  0  0  3  0  0  0  0  0  0
   38.0490   26.8120   40.8850 C   0  0  0  0  0  0  0  0  0  0  0  0
  1  8  1  0  0  0  0
  2  5  1  0  0  0  0
  2  3  1  0  0  0  0
  2  1  1  0  0  0  0
  3  1  1  0  0  0  0
  3  7  1  0  0  0  0
  4  2  1  0  0  0  0
  6  3  1  0  0  0  0
  8  9  1  0  0  0  0
  9 16  1  0  0  0  0
  9 15  1  0  0  0  0
  9 10  1  0  0  0  0
 10 17  1  0  0  0  0
 10 18  1  0  0  0  0
 11 10  1  0  0  0  0
 12 20  1  0  0  0  0
 12 11  1  0  0  0  0
 13  8  1  0  0  0  0
 13 12  1  0  0  0  0
 14  8  1  0  0  0  0
 19 12  1  0  0  0  0
 21 13  1  0  0  0  0
 22 13  1  0  0  0  0
 23 24  1  0  0  0  0
 24  1  1  0  0  0  0
 24 25  2  0  0  0  0
 25 33  1  0  0  0  0
 26 25  1  0  0  0  0
 27 26  2  0  0  0  0
 28 23  2  0  0  0  0
 28 27  1  0  0  0  0
 29 31  1  0  0  0  0
 29 27  1  0  0  0  0
 30 23  1  0  0  0  0
 32 29  1  0  0  0  0
 33 34  2  0  0  0  0
 33 43  1  0  0  0  0
 34 36  1  0  0  0  0
 35 34  1  0  0  0  0
 36 37  2  0  0  0  0
 38 37  1  0  0  0  0
 38 39  1  0  0  0  0
 40 39  2  0  0  0  0
 41 40  1  0  0  0  0
 42 43  1  0  0  0  0
 42 41  2  0  0  0  0
 43 38  2  0  0  0  0
M  END
>  <minimizedAffinity>
-5.90146399

$$$$

 OpenBabel03242516153D

 43 47  0  0  0  0  0  0  0  0999 V2000
   40.5460   29.5650   38.5820 C   0  0  0  0  0  0  0  0  0  0  0  0
   41.2560   29.8320   37.2770 C   0  0  0  0  0  0  0  0  0  0  0  0
   41.9110   29.2330   38.4510 C   0  0  0  0  0  0  0  0  0  0  0  0
   41.3680   30.9140   37.0560 H   0  0  0  0  0  0  0  0  0  0  0  0
   41.2610   29.2160   36.3980 H   0  0  0  0  0  0  0  0  0  0  0  0
   42.8010   29.7780   38.7160 H   0  0  0  0  0  0  0  0  0  0  0  0
   42.1620   28.1240   38.4130 H   0  0  0  0  0  0  0  0  0  0  0  0
   39.3780   28.7160   38.1480 C   0  0  0  0  0  0  0  0  0  0  0  0
   39.2620   27.3900   38.6590 C   0  0  0  0  0  0  0  0  0  0  0  0
   37.8470   26.9030   38.8240 C   0  0  0  0  0  0  0  0  0  0  0  0
   37.1170   27.2220   37.7110 O   0  0  0  0  0  0  0  0  0  0  0  0
   36.9050   28.6100   37.8920 C   0  0  0  0  0  0  0  0  0  0  0  0
   38.1360   29.4490   37.9510 C   0  0  0  0  0  0  0  0  0  0  0  0
   39.6040   28.5470   37.0330 H   0  0  0  0  0  0  0  0  0  0  0  0
   39.6830   27.3210   39.6880 H   0  0  0  0  0  0  0  0  0  0  0  0
   39.7860   26.5790   38.1050 H   0  0  0  0  0  0  0  0  0  0  0  0
   37.3920   27.3750   39.6920 H   0  0  0  0  0  0  0  0  0  0  0  0
   37.8490   25.7930   38.9670 H   0  0  0  0  0  0  0  0  0  0  0  0
   36.2100   28.8930   37.0440 H   0  0  0  0  0  0  0  0  0  0  0  0
   36.2940   28.7070   38.7910 H   0  0  0  0  0  0  0  0  0  0  0  0
   38.0700   30.1690   37.1020 H   0  0  0  0  0  0  0  0  0  0  0  0
   38.0260   30.1310   38.8470 H   0  0  0  0  0  0  0  0  0  0  0  0
   39.7780   31.9140   38.7060 C   0  0  0  0  0  0  0  0  0  0  0  0
   40.0810   30.7440   39.3770 C   0  0  0  0  0  0  0  0  0  0  0  0
   39.9430   30.7090   40.7590 C   0  0  0  0  0  0  0  0  0  0  0  0
   39.5190   31.8240   41.4140 N   0  0  0  0  0  0  0  0  0  0  0  0
   39.2370   32.9530   40.7090 C   0  0  0  0  0  0  0  0  0  0  0  0
   39.3590   33.0040   39.3940 N   0  0  0  0  0  0  0  0  0  0  0  0
   38.8280   34.1600   41.3540 N   0  0  0  0  0  0  0  0  0  0  0  0
   39.8800   31.9560   37.6430 H   0  0  0  0  0  0  0  0  0  0  0  0
   37.8640   34.4770   41.4260 H   0  0  0  0  0  0  0  0  0  0  0  0
   39.7730   34.5340   41.6750 H   0  0  0  0  0  0  0  0  0  0  0  0
   40.1280   29.6000   41.6720 C   0  0  0  0  0  0  0  0  0  0  0  0
   41.2760   29.1240   42.2910 C   0  0  0  0  0  0  0  0  0  0  0  0
   42.1930   29.6290   42.0600 H   0  0  0  0  0  0  0  0  0  0  0  0
   41.3170   28.0860   43.1940 C   0  0  0  0  0  3  0  0  0  0  0  0
   40.1570   27.4390   43.5380 C   0  0  0  0  0  3  0  0  0  0  0  0
   38.9540   27.8430   42.9700 C   0  0  0  0  0  0  0  0  0  0  0  0
   37.8300   27.1480   43.3480 C   0  0  0  0  0  3  0  0  0  0  0  0
   36.6360   27.5300   42.7850 C   0  0  0  0  0  3  0  0  0  0  0  0
   36.5560   28.5810   41.8640 C   0  0  0  0  0  3  0  0  0  0  0  0
   37.7510   29.2310   41.5380 C   0  0  0  0  0  3  0  0  0  0  0  0
   38.9810   28.8920   42.0710 C   0  0  0  0  0  0  0  0  0  0  0  0
  1 24  1  0  0  0  0
  2  3  1  0  0  0  0
  2  1  1  0  0  0  0
  3  1  1  0  0  0  0
  3  6  1  0  0  0  0
  4  2  1  0  0  0  0
  5  2  1  0  0  0  0
  7  3  1  0  0  0  0
  8  1  1  0  0  0  0
  8  9  1  0  0  0  0
  9 10  1  0  0  0  0
  9 15  1  0  0  0  0
 10 18  1  0  0  0  0
 10 17  1  0  0  0  0
 11 12  1  0  0  0  0
 11 10  1  0  0  0  0
 12 13  1  0  0  0  0
 12 20  1  0  0  0  0
 13  8  1  0  0  0  0
 13 22  1  0  0  0  0
 14  8  1  0  0  0  0
 16  9  1  0  0  0  0
 19 12  1  0  0  0  0
 21 13  1  0  0  0  0
 23 24  2  0  0  0  0
 23 28  1  0  0  0  0
 24 25  1  0  0  0  0
 25 26  2  0  0  0  0
 25 33  1  0  0  0  0
 27 29  1  0  0  0  0
 27 26  1  0  0  0  0
 28 27  2  0  0  0  0
 29 31  1  0  0  0  0
 29 32  1  0  0  0  0
 30 23  1  0  0  0  0
 33 43  2  0  0  0  0
 33 34  1  0  0  0  0
 34 36  2  0  0  0  0
 35 34  1  0  0  0  0
 36 37  1  0  0  0  0
 38 39  1  0  0  0  0
 38 37  2  0  0  0  0
 40 39  2  0  0  0  0
 41 40  1  0  0  0  0
 42 41  2  0  0  0  0
 42 43  1  0  0  0  0
 43 38  1  0  0  0  0
M  END
>  <minimizedAffinity>
-5.87163639

$$$$
