
 OpenBabel03252503133D

 36 40  0  0  0  0  0  0  0  0999 V2000
   46.6670   34.7010   41.9070 C   0  0  0  0  0  0  0  0  0  0  0  0
   47.8990   34.9850   41.9270 O   0  0  0  0  0  0  0  0  0  0  0  0
   45.3640   36.1420   43.4070 C   0  0  0  0  0  0  0  0  0  0  0  0
   45.9660   34.8970   43.1310 C   0  0  0  0  0  0  0  0  0  0  0  0
   45.8120   33.9420   44.1150 C   0  0  0  0  0  0  0  0  0  0  0  0
   45.1330   34.1810   45.2580 N   0  0  0  0  0  0  0  0  0  0  0  0
   44.5690   35.3920   45.4830 C   0  0  0  0  0  0  0  0  0  0  0  0
   44.6860   36.3680   44.5580 N   0  0  0  0  0  0  0  0  0  0  0  0
   45.4340   36.9580   42.6860 H   0  0  0  0  0  0  0  0  0  0  0  0
   44.0260   35.5830   46.3950 H   0  0  0  0  0  0  0  0  0  0  0  0
   46.3870   32.6750   43.9230 C   0  0  0  0  0  0  0  0  0  0  0  0
   47.6060   32.1230   44.1860 C   0  0  0  0  0  0  0  0  0  0  0  0
   47.9250   30.8710   43.9120 C   0  0  0  0  0  0  0  0  0  0  0  0
   46.9400   30.1240   43.3290 C   0  0  0  0  0  0  0  0  0  0  0  0
   45.5230   31.3030   43.1910 S   0  0  0  0  0  0  0  0  0  0  0  0
   48.3280   32.8200   44.6590 H   0  0  0  0  0  0  0  0  0  0  0  0
   48.8650   30.3730   44.0920 H   0  0  0  0  0  0  0  0  0  0  0  0
   46.9240   29.0620   42.9950 H   0  0  0  0  0  0  0  0  0  0  0  0
   45.9440   34.1900   40.7070 C   0  0  0  0  0  0  0  0  0  0  0  0
   44.5950   34.2250   40.4750 C   0  0  0  0  0  0  0  0  0  0  0  0
   44.4140   33.6520   39.2750 N   0  0  0  0  0  0  0  0  0  0  0  0
   45.6110   33.2680   38.7720 C   0  0  0  0  0  0  0  0  0  0  0  0
   46.5240   33.6090   39.6650 N   0  0  0  0  0  0  0  0  0  0  0  0
   43.9270   34.6560   41.1930 H   0  0  0  0  0  0  0  0  0  0  0  0
   43.4450   33.5880   38.9280 H   0  0  0  0  0  0  0  0  0  0  0  0
   45.6090   32.6240   37.4660 C   0  0  0  0  0  0  0  0  0  0  0  0
   46.6730   32.7210   36.5970 C   0  0  0  0  0  0  0  0  0  0  0  0
   47.5660   33.2810   36.8350 H   0  0  0  0  0  0  0  0  0  0  0  0
   46.7220   32.1310   35.3520 C   0  0  0  0  0  3  0  0  0  0  0  0
   45.6580   31.3870   34.9110 C   0  0  0  0  0  3  0  0  0  0  0  0
   44.5700   31.2530   35.7280 C   0  0  0  0  0  0  0  0  0  0  0  0
   43.5030   30.5030   35.2810 C   0  0  0  0  0  3  0  0  0  0  0  0
   42.3820   30.3300   36.0530 C   0  0  0  0  0  3  0  0  0  0  0  0
   42.3490   30.9350   37.3120 C   0  0  0  0  0  3  0  0  0  0  0  0
   43.4480   31.6700   37.7000 C   0  0  0  0  0  3  0  0  0  0  0  0
   44.5840   31.8640   36.9540 C   0  0  0  0  0  0  0  0  0  0  0  0
  1  2  2  0  0  0  0
  1  4  1  0  0  0  0
  3  8  1  0  0  0  0
  4  3  2  0  0  0  0
  4  5  1  0  0  0  0
  5  6  2  0  0  0  0
  6  7  1  0  0  0  0
  7 10  1  0  0  0  0
  8  7  2  0  0  0  0
  9  3  1  0  0  0  0
 11  5  1  0  0  0  0
 11 12  2  0  0  0  0
 12 16  1  0  0  0  0
 13 17  1  0  0  0  0
 13 12  1  0  0  0  0
 14 13  2  0  0  0  0
 15 14  1  0  0  0  0
 15 11  1  0  0  0  0
 18 14  1  0  0  0  0
 19  1  1  0  0  0  0
 20 19  2  0  0  0  0
 20 24  1  0  0  0  0
 21 20  1  0  0  0  0
 22 21  1  0  0  0  0
 22 23  2  0  0  0  0
 23 19  1  0  0  0  0
 25 21  1  0  0  0  0
 26 22  1  0  0  0  0
 27 28  1  0  0  0  0
 27 26  2  0  0  0  0
 29 27  1  0  0  0  0
 30 29  2  0  0  0  0
 30 31  1  0  0  0  0
 31 36  1  0  0  0  0
 32 31  2  0  0  0  0
 32 33  1  0  0  0  0
 33 34  2  0  0  0  0
 34 35  1  0  0  0  0
 36 26  1  0  0  0  0
 36 35  2  0  0  0  0
M  END
>  <minimizedAffinity>
-5.48332596

>  <minimizedRMSD>
0.668349862

$$$$
