
 OpenBabel03242516143D

 43 47  0  0  0  0  0  0  0  0999 V2000
   48.4200   34.2710   42.0930 C   0  0  0  0  0  0  0  0  0  0  0  0
   49.4210   35.3920   41.9490 C   0  0  0  0  0  0  0  0  0  0  0  0
   49.5960   34.2580   42.8720 C   0  0  0  0  0  0  0  0  0  0  0  0
   49.0390   36.3670   42.3150 H   0  0  0  0  0  0  0  0  0  0  0  0
   50.1920   35.4880   41.2070 H   0  0  0  0  0  0  0  0  0  0  0  0
   49.7860   34.6030   43.8740 H   0  0  0  0  0  0  0  0  0  0  0  0
   50.3710   33.4690   42.6060 H   0  0  0  0  0  0  0  0  0  0  0  0
   48.2850   33.7730   40.6760 C   0  0  0  0  0  0  0  0  0  0  0  0
   48.9800   32.5880   40.2940 C   0  0  0  0  0  0  0  0  0  0  0  0
   48.2860   31.7660   39.2410 C   0  0  0  0  0  0  0  0  0  0  0  0
   47.8260   32.5840   38.2450 O   0  0  0  0  0  0  0  0  0  0  0  0
   46.6960   33.1780   38.8560 C   0  0  0  0  0  0  0  0  0  0  0  0
   46.9700   33.9770   40.0840 C   0  0  0  0  0  0  0  0  0  0  0  0
   48.8230   34.5950   40.0790 H   0  0  0  0  0  0  0  0  0  0  0  0
   49.0740   31.8870   41.1530 H   0  0  0  0  0  0  0  0  0  0  0  0
   50.0260   32.7030   39.9300 H   0  0  0  0  0  0  0  0  0  0  0  0
   47.4420   31.2380   39.6800 H   0  0  0  0  0  0  0  0  0  0  0  0
   49.0030   31.0220   38.8150 H   0  0  0  0  0  0  0  0  0  0  0  0
   46.2220   33.7850   38.0240 H   0  0  0  0  0  0  0  0  0  0  0  0
   45.9900   32.3660   39.0390 H   0  0  0  0  0  0  0  0  0  0  0  0
   46.6400   35.0190   39.8660 H   0  0  0  0  0  0  0  0  0  0  0  0
   46.2180   33.6500   40.8640 H   0  0  0  0  0  0  0  0  0  0  0  0
   46.5770   35.8780   42.4800 C   0  0  0  0  0  0  0  0  0  0  0  0
   47.0800   34.6040   42.6700 C   0  0  0  0  0  0  0  0  0  0  0  0
   46.3250   33.6860   43.3890 C   0  0  0  0  0  0  0  0  0  0  0  0
   45.1160   34.0630   43.8890 N   0  0  0  0  0  0  0  0  0  0  0  0
   44.6670   35.3290   43.6780 C   0  0  0  0  0  0  0  0  0  0  0  0
   45.3700   36.2160   42.9930 N   0  0  0  0  0  0  0  0  0  0  0  0
   43.4250   35.7860   44.2150 N   0  0  0  0  0  0  0  0  0  0  0  0
   47.1470   36.5950   41.9300 H   0  0  0  0  0  0  0  0  0  0  0  0
   42.5560   35.8470   43.6880 H   0  0  0  0  0  0  0  0  0  0  0  0
   43.7180   36.0010   45.2170 H   0  0  0  0  0  0  0  0  0  0  0  0
   46.5950   32.2890   43.6620 C   0  0  0  0  0  0  0  0  0  0  0  0
   46.6780   31.2020   42.8010 C   0  0  0  0  0  0  0  0  0  0  0  0
   46.4980   31.3950   41.7630 H   0  0  0  0  0  0  0  0  0  0  0  0
   47.0020   29.9190   43.1770 C   0  0  0  0  0  0  0  0  0  0  0  0
   47.2720   29.6430   44.4930 C   0  0  0  0  0  0  0  0  0  0  0  0
   47.2140   30.6670   45.4320 C   0  0  0  0  0  0  0  0  0  0  0  0
   47.4850   30.3230   46.7350 C   0  0  0  0  0  0  0  0  0  0  0  0
   47.4200   31.3230   47.6740 C   0  0  0  0  0  0  0  0  0  0  0  0
   47.0940   32.6410   47.3310 C   0  0  0  0  0  0  0  0  0  0  0  0
   46.8340   32.8970   45.9810 C   0  0  0  0  0  0  0  0  0  0  0  0
   46.8830   31.9330   44.9910 C   0  0  0  0  0  0  0  0  0  0  0  0
  1 24  1  0  0  0  0
  1  3  1  0  0  0  0
  2  1  1  0  0  0  0
  2  4  1  0  0  0  0
  2  3  1  0  0  0  0
  3  6  1  0  0  0  0
  5  2  1  0  0  0  0
  7  3  1  0  0  0  0
  8  1  1  0  0  0  0
  9  8  1  0  0  0  0
  9 15  1  0  0  0  0
 10 17  1  0  0  0  0
 10  9  1  0  0  0  0
 11 12  1  0  0  0  0
 11 10  1  0  0  0  0
 12 20  1  0  0  0  0
 12 13  1  0  0  0  0
 13  8  1  0  0  0  0
 13 22  1  0  0  0  0
 14  8  1  0  0  0  0
 16  9  1  0  0  0  0
 18 10  1  0  0  0  0
 19 12  1  0  0  0  0
 21 13  1  0  0  0  0
 23 24  2  0  0  0  0
 23 28  1  0  0  0  0
 24 25  1  0  0  0  0
 25 33  1  0  0  0  0
 25 26  2  0  0  0  0
 27 26  1  0  0  0  0
 27 29  1  0  0  0  0
 28 27  2  0  0  0  0
 29 32  1  0  0  0  0
 30 23  1  0  0  0  0
 31 29  1  0  0  0  0
 33 43  1  0  0  0  0
 34 36  1  0  0  0  0
 34 33  2  0  0  0  0
 35 34  1  0  0  0  0
 36 37  2  0  0  0  0
 37 38  1  0  0  0  0
 38 39  1  0  0  0  0
 39 40  2  0  0  0  0
 41 40  1  0  0  0  0
 42 41  2  0  0  0  0
 43 38  2  0  0  0  0
 43 42  1  0  0  0  0
M  END
>  <minimizedAffinity>
-6.12805748

>  <minimizedRMSD>
1.44915438

$$$$
