
 OpenBabel03252509213D

 27 30  0  0  0  0  0  0  0  0999 V2000
   44.9500   34.3080   43.6340 C   0  0  0  0  0  0  0  0  0  0  0  0
   44.6600   34.2150   42.2710 C   0  0  0  0  0  0  0  0  0  0  0  0
   45.8490   34.0200   41.5670 C   0  0  0  0  0  0  0  0  0  0  0  0
   47.0900   33.9380   42.1970 N   0  0  0  0  0  0  0  0  0  0  0  0
   47.2370   34.0400   43.5180 C   0  0  0  0  0  0  0  0  0  0  0  0
   46.1280   34.2320   44.2490 N   0  0  0  0  0  0  0  0  0  0  0  0
   44.0950   34.4680   44.3160 H   0  0  0  0  0  0  0  0  0  0  0  0
   48.2760   33.9460   43.7710 H   0  0  0  0  0  0  0  0  0  0  0  0
   43.3770   34.3030   41.6820 C   0  0  0  0  0  0  0  0  0  0  0  0
   42.8110   35.4730   41.2160 C   0  0  0  0  0  0  0  0  0  0  0  0
   43.4060   36.3890   41.3150 H   0  0  0  0  0  0  0  0  0  0  0  0
   41.5650   35.5940   40.6370 C   0  0  0  0  0  3  0  0  0  0  0  0
   40.8560   34.3980   40.5380 C   0  0  0  0  0  3  0  0  0  0  0  0
   41.3480   33.1690   40.9820 C   0  0  0  0  0  0  0  0  0  0  0  0
   40.5750   32.0340   40.8430 C   0  0  0  0  0  3  0  0  0  0  0  0
   41.0750   30.8100   41.2890 C   0  0  0  0  0  3  0  0  0  0  0  0
   42.3330   30.8130   41.8510 C   0  0  0  0  0  3  0  0  0  0  0  0
   43.1210   31.9300   41.9990 C   0  0  0  0  0  3  0  0  0  0  0  0
   42.6080   33.1350   41.5510 C   0  0  0  0  0  0  0  0  0  0  0  0
   45.7670   33.8010   40.0870 C   0  0  0  0  0  0  0  0  0  0  0  0
   47.1220   33.5710   39.4570 C   0  0  0  0  0  0  0  0  0  0  0  0
   46.0300   32.4930   39.5720 C   0  0  0  0  0  0  0  0  0  0  0  0
   45.1720   34.5410   39.5570 H   0  0  0  0  0  0  0  0  0  0  0  0
   47.3090   34.0320   38.4690 H   0  0  0  0  0  0  0  0  0  0  0  0
   47.9590   33.5850   40.1380 H   0  0  0  0  0  0  0  0  0  0  0  0
   45.7390   32.1130   38.5690 H   0  0  0  0  0  0  0  0  0  0  0  0
   46.2930   31.6190   40.2460 H   0  0  0  0  0  0  0  0  0  0  0  0
  1  6  1  0  0  0  0
  1  7  1  0  0  0  0
  2  1  2  0  0  0  0
  3  4  2  0  0  0  0
  3  2  1  0  0  0  0
  4  5  1  0  0  0  0
  5  8  1  0  0  0  0
  5  6  2  0  0  0  0
  9  2  1  0  0  0  0
 10 11  1  0  0  0  0
 10  9  2  0  0  0  0
 12 10  1  0  0  0  0
 13 12  2  0  0  0  0
 13 14  1  0  0  0  0
 14 19  1  0  0  0  0
 15 14  2  0  0  0  0
 15 16  1  0  0  0  0
 16 17  2  0  0  0  0
 17 18  1  0  0  0  0
 19  9  1  0  0  0  0
 19 18  2  0  0  0  0
 20  3  1  0  0  0  0
 21 22  1  0  0  0  0
 21 20  1  0  0  0  0
 21 25  1  0  0  0  0
 22 20  1  0  0  0  0
 22 27  1  0  0  0  0
 23 20  1  0  0  0  0
 24 21  1  0  0  0  0
 26 22  1  0  0  0  0
M  END
>  <minimizedAffinity>
-4.22315502

>  <minimizedRMSD>
3.99352074

$$$$
