
 OpenBabel03242517243D

 45 49  0  0  1  0  0  0  0  0999 V2000
   35.2890   28.8490   38.1680 C   0  0  0  0  0  0  0  0  0  0  0  0
   36.2240   29.7710   38.6770 C   0  0  0  0  0  0  0  0  0  0  0  0
   37.2780   29.2930   39.4760 C   0  0  0  0  0  0  0  0  0  0  0  0
   37.3300   27.9590   39.7110 N   0  0  0  0  0  0  0  0  0  0  0  0
   36.4120   27.0960   39.2050 C   0  0  0  0  0  0  0  0  0  0  0  0
   35.3840   27.5360   38.4290 N   0  0  0  0  0  0  0  0  0  0  0  0
   36.5540   25.7050   39.5100 N   0  0  0  0  0  0  0  0  0  0  0  0
   35.7400   24.7890   38.7120 C   0  0  0  0  0  0  0  0  0  0  0  0
   35.5940   23.4360   39.2670 C   0  0  0  0  0  0  0  0  0  0  0  0
   36.8420   23.0130   39.9710 C   0  0  0  0  0  0  0  0  0  0  0  0
   37.0540   23.9590   41.1120 C   0  0  0  0  0  0  0  0  0  0  0  0
   37.4570   25.2740   40.5470 C   0  0  2  0  0  0  0  0  0  0  0  0
   34.4530   29.1320   37.5480 H   0  0  0  0  0  0  0  0  0  0  0  0
   36.1050   30.8120   38.4400 H   0  0  0  0  0  0  0  0  0  0  0  0
   38.0020   29.9900   39.8730 H   0  0  0  0  0  0  0  0  0  0  0  0
   34.7640   25.2760   38.4460 H   0  0  0  0  0  0  0  0  0  0  0  0
   36.2910   24.7060   37.7330 H   0  0  0  0  0  0  0  0  0  0  0  0
   35.4470   22.7200   38.4060 H   0  0  0  0  0  0  0  0  0  0  0  0
   34.7160   23.3260   39.9030 H   0  0  0  0  0  0  0  0  0  0  0  0
   36.6350   21.9980   40.4090 H   0  0  0  0  0  0  0  0  0  0  0  0
   37.7020   22.9260   39.2900 H   0  0  0  0  0  0  0  0  0  0  0  0
   36.0670   24.0590   41.6240 H   0  0  0  0  0  0  0  0  0  0  0  0
   37.7910   23.5920   41.8420 H   0  0  0  0  0  0  0  0  0  0  0  0
   38.4490   25.1360   40.0320 H   0  0  0  0  0  0  0  0  0  0  0  0
   39.9890   26.5480   41.0090 F   0  0  0  0  0  0  0  0  0  0  0  0
   38.9430   26.9140   41.8220 C   0  0  0  0  0  0  0  0  0  0  0  0
   37.7220   26.2950   41.5940 C   0  0  0  0  0  0  0  0  0  0  0  0
   36.6990   26.6970   42.4390 C   0  0  0  0  0  0  0  0  0  0  0  0
   36.8390   27.6310   43.4380 C   0  0  0  0  0  0  0  0  0  0  0  0
   38.0740   28.2230   43.6320 C   0  0  0  0  0  0  0  0  0  0  0  0
   39.1070   27.8570   42.8230 C   0  0  0  0  0  0  0  0  0  0  0  0
   35.7100   26.2580   42.3220 H   0  0  0  0  0  0  0  0  0  0  0  0
   36.0320   27.9240   44.0780 H   0  0  0  0  0  0  0  0  0  0  0  0
   38.2980   28.9630   44.3810 H   0  0  0  0  0  0  0  0  0  0  0  0
   40.4700   28.4210   42.9380 C   0  0  0  0  0  0  0  0  0  0  0  0
   41.4600   27.6740   43.5510 C   0  0  0  0  0  0  0  0  0  0  0  0
   41.1950   26.7080   43.9190 H   0  0  0  0  0  0  0  0  0  0  0  0
   42.7390   28.1610   43.6780 C   0  0  0  0  0  3  0  0  0  0  0  0
   43.0040   29.4150   43.1790 C   0  0  0  0  0  3  0  0  0  0  0  0
   42.0160   30.1870   42.5570 C   0  0  0  0  0  0  0  0  0  0  0  0
   42.2900   31.4490   42.0560 C   0  0  0  0  0  3  0  0  0  0  0  0
   41.2900   32.1720   41.4520 C   0  0  0  0  0  3  0  0  0  0  0  0
   39.9970   31.6810   41.3230 C   0  0  0  0  0  3  0  0  0  0  0  0
   39.7190   30.4150   41.8240 C   0  0  0  0  0  3  0  0  0  0  0  0
   40.7320   29.6800   42.4370 C   0  0  0  0  0  0  0  0  0  0  0  0
  1  6  2  0  0  0  0
  1  2  1  0  0  0  0
  2  3  2  0  0  0  0
  3  4  1  0  0  0  0
  3 15  1  0  0  0  0
  5  7  1  0  0  0  0
  5  4  2  0  0  0  0
  6  5  1  0  0  0  0
  7 12  1  0  0  0  0
  8  9  1  0  0  0  0
  8  7  1  0  0  0  0
  9 19  1  0  0  0  0
  9 10  1  0  0  0  0
 10 20  1  0  0  0  0
 10 11  1  0  0  0  0
 11 22  1  0  0  0  0
 11 23  1  0  0  0  0
 12 24  1  6  0  0  0
 12 11  1  0  0  0  0
 12 27  1  0  0  0  0
 13  1  1  0  0  0  0
 14  2  1  0  0  0  0
 16  8  1  0  0  0  0
 17  8  1  0  0  0  0
 18  9  1  0  0  0  0
 21 10  1  0  0  0  0
 25 26  1  0  0  0  0
 26 31  1  0  0  0  0
 27 26  2  0  0  0  0
 27 28  1  0  0  0  0
 28 29  2  0  0  0  0
 29 30  1  0  0  0  0
 29 33  1  0  0  0  0
 30 34  1  0  0  0  0
 31 35  1  0  0  0  0
 31 30  2  0  0  0  0
 32 28  1  0  0  0  0
 35 36  1  0  0  0  0
 36 38  2  0  0  0  0
 36 37  1  0  0  0  0
 39 38  1  0  0  0  0
 40 39  2  0  0  0  0
 41 40  1  0  0  0  0
 42 41  2  0  0  0  0
 43 42  1  0  0  0  0
 43 44  2  0  0  0  0
 44 45  1  0  0  0  0
 45 40  1  0  0  0  0
 45 35  2  0  0  0  0
M  END
>  <minimizedAffinity>
-6.88967133

$$$$

 OpenBabel03242517243D

 45 49  0  0  1  0  0  0  0  0999 V2000
   37.8470   30.8700   38.4800 C   0  0  0  0  0  0  0  0  0  0  0  0
   36.5760   30.6400   39.0400 C   0  0  0  0  0  0  0  0  0  0  0  0
   36.4940   30.1930   40.3710 C   0  0  0  0  0  0  0  0  0  0  0  0
   37.6570   30.0100   41.0420 N   0  0  0  0  0  0  0  0  0  0  0  0
   38.8680   30.2420   40.4740 C   0  0  0  0  0  0  0  0  0  0  0  0
   38.9710   30.6730   39.1870 N   0  0  0  0  0  0  0  0  0  0  0  0
   40.0380   30.0190   41.2650 N   0  0  0  0  0  0  0  0  0  0  0  0
   41.2860   30.5600   40.7290 C   0  0  0  0  0  0  0  0  0  0  0  0
   42.5140   30.0140   41.3250 C   0  0  0  0  0  0  0  0  0  0  0  0
   42.3130   29.7150   42.7750 C   0  0  0  0  0  0  0  0  0  0  0  0
   41.2470   28.6670   42.8720 C   0  0  0  0  0  0  0  0  0  0  0  0
   39.9500   29.3000   42.5120 C   0  0  2  0  0  0  0  0  0  0  0  0
   37.9980   31.2110   37.4680 H   0  0  0  0  0  0  0  0  0  0  0  0
   35.7050   30.8110   38.4330 H   0  0  0  0  0  0  0  0  0  0  0  0
   35.5240   30.0130   40.8120 H   0  0  0  0  0  0  0  0  0  0  0  0
   41.2720   30.5190   39.6070 H   0  0  0  0  0  0  0  0  0  0  0  0
   41.2410   31.6600   40.9730 H   0  0  0  0  0  0  0  0  0  0  0  0
   43.3150   30.8070   41.2640 H   0  0  0  0  0  0  0  0  0  0  0  0
   42.9030   29.1500   40.7860 H   0  0  0  0  0  0  0  0  0  0  0  0
   43.2710   29.2550   43.1430 H   0  0  0  0  0  0  0  0  0  0  0  0
   42.1140   30.6190   43.3680 H   0  0  0  0  0  0  0  0  0  0  0  0
   41.5050   27.8870   42.1160 H   0  0  0  0  0  0  0  0  0  0  0  0
   41.2010   28.1930   43.8630 H   0  0  0  0  0  0  0  0  0  0  0  0
   39.7260   30.0860   43.2870 H   0  0  0  0  0  0  0  0  0  0  0  0
   39.6130   26.9560   40.8860 F   0  0  0  0  0  0  0  0  0  0  0  0
   38.6350   27.2240   41.8150 C   0  0  0  0  0  0  0  0  0  0  0  0
   38.8040   28.3580   42.5970 C   0  0  0  0  0  0  0  0  0  0  0  0
   37.7930   28.5850   43.5190 C   0  0  0  0  0  0  0  0  0  0  0  0
   36.6920   27.7780   43.6780 C   0  0  0  0  0  0  0  0  0  0  0  0
   36.5630   26.6580   42.8770 C   0  0  0  0  0  0  0  0  0  0  0  0
   37.5340   26.3970   41.9570 C   0  0  0  0  0  0  0  0  0  0  0  0
   37.8550   29.4540   44.1710 H   0  0  0  0  0  0  0  0  0  0  0  0
   35.9250   27.9750   44.3970 H   0  0  0  0  0  0  0  0  0  0  0  0
   35.7450   25.9580   42.9130 H   0  0  0  0  0  0  0  0  0  0  0  0
   37.5010   25.2320   41.0470 C   0  0  0  0  0  0  0  0  0  0  0  0
   38.0540   24.0340   41.4630 C   0  0  0  0  0  0  0  0  0  0  0  0
   38.4860   24.0010   42.4380 H   0  0  0  0  0  0  0  0  0  0  0  0
   38.0440   22.9270   40.6480 C   0  0  0  0  0  3  0  0  0  0  0  0
   37.4680   23.0470   39.4050 C   0  0  0  0  0  3  0  0  0  0  0  0
   36.9040   24.2500   38.9650 C   0  0  0  0  0  0  0  0  0  0  0  0
   36.3260   24.3650   37.7110 C   0  0  0  0  0  3  0  0  0  0  0  0
   35.7830   25.5640   37.3200 C   0  0  0  0  0  3  0  0  0  0  0  0
   35.7920   26.6840   38.1430 C   0  0  0  0  0  3  0  0  0  0  0  0
   36.3720   26.5730   39.4010 C   0  0  0  0  0  3  0  0  0  0  0  0
   36.9220   25.3560   39.8000 C   0  0  0  0  0  0  0  0  0  0  0  0
  1  2  2  0  0  0  0
  1  6  1  0  0  0  0
  2  3  1  0  0  0  0
  3 15  1  0  0  0  0
  3  4  2  0  0  0  0
  5  4  1  0  0  0  0
  5  7  1  0  0  0  0
  6  5  2  0  0  0  0
  7 12  1  0  0  0  0
  8 17  1  0  0  0  0
  8  7  1  0  0  0  0
  8  9  1  0  0  0  0
  9 10  1  0  0  0  0
 10 11  1  0  0  0  0
 10 20  1  0  0  0  0
 10 21  1  0  0  0  0
 11 23  1  0  0  0  0
 12 27  1  0  0  0  0
 12 11  1  0  0  0  0
 12 24  1  1  0  0  0
 13  1  1  0  0  0  0
 14  2  1  0  0  0  0
 16  8  1  0  0  0  0
 18  9  1  0  0  0  0
 19  9  1  0  0  0  0
 22 11  1  0  0  0  0
 25 26  1  0  0  0  0
 26 31  2  0  0  0  0
 26 27  1  0  0  0  0
 27 28  2  0  0  0  0
 28 29  1  0  0  0  0
 28 32  1  0  0  0  0
 29 33  1  0  0  0  0
 30 34  1  0  0  0  0
 30 29  2  0  0  0  0
 31 30  1  0  0  0  0
 35 36  1  0  0  0  0
 35 31  1  0  0  0  0
 36 37  1  0  0  0  0
 38 36  2  0  0  0  0
 39 38  1  0  0  0  0
 40 39  2  0  0  0  0
 40 45  1  0  0  0  0
 41 40  1  0  0  0  0
 42 41  2  0  0  0  0
 42 43  1  0  0  0  0
 43 44  2  0  0  0  0
 44 45  1  0  0  0  0
 45 35  2  0  0  0  0
M  END
>  <minimizedAffinity>
-6.85785818

$$$$

 OpenBabel03242517243D

 45 49  0  0  1  0  0  0  0  0999 V2000
   38.2120   32.0760   39.2710 C   0  0  0  0  0  0  0  0  0  0  0  0
   36.9470   31.9210   39.8710 C   0  0  0  0  0  0  0  0  0  0  0  0
   36.8460   31.1600   41.0490 C   0  0  0  0  0  0  0  0  0  0  0  0
   37.9850   30.6160   41.5420 N   0  0  0  0  0  0  0  0  0  0  0  0
   39.1910   30.7850   40.9400 C   0  0  0  0  0  0  0  0  0  0  0  0
   39.3120   31.5170   39.7990 N   0  0  0  0  0  0  0  0  0  0  0  0
   40.3360   30.1700   41.5380 N   0  0  0  0  0  0  0  0  0  0  0  0
   41.6360   30.6190   41.0420 C   0  0  0  0  0  0  0  0  0  0  0  0
   42.7680   29.7380   41.3650 C   0  0  0  0  0  0  0  0  0  0  0  0
   42.5830   29.1060   42.7050 C   0  0  0  0  0  0  0  0  0  0  0  0
   41.3480   28.2610   42.6350 C   0  0  0  0  0  0  0  0  0  0  0  0
   40.1740   29.1730   42.5670 C   0  0  2  0  0  0  0  0  0  0  0  0
   38.3760   32.6430   38.3680 H   0  0  0  0  0  0  0  0  0  0  0  0
   36.0960   32.3880   39.4100 H   0  0  0  0  0  0  0  0  0  0  0  0
   35.8810   31.0330   41.5190 H   0  0  0  0  0  0  0  0  0  0  0  0
   41.5620   30.8780   39.9520 H   0  0  0  0  0  0  0  0  0  0  0  0
   41.8060   31.6070   41.5570 H   0  0  0  0  0  0  0  0  0  0  0  0
   43.6980   30.3760   41.4310 H   0  0  0  0  0  0  0  0  0  0  0  0
   42.9660   28.9950   40.5930 H   0  0  0  0  0  0  0  0  0  0  0  0
   43.4560   28.4130   42.8560 H   0  0  0  0  0  0  0  0  0  0  0  0
   42.5820   29.8420   43.5230 H   0  0  0  0  0  0  0  0  0  0  0  0
   41.4220   27.6760   41.6870 H   0  0  0  0  0  0  0  0  0  0  0  0
   41.2610   27.5570   43.4750 H   0  0  0  0  0  0  0  0  0  0  0  0
   40.1350   29.7530   43.5320 H   0  0  0  0  0  0  0  0  0  0  0  0
   39.2060   27.6690   40.3200 F   0  0  0  0  0  0  0  0  0  0  0  0
   38.4060   27.7170   41.4360 C   0  0  0  0  0  0  0  0  0  0  0  0
   38.8800   28.4450   42.5190 C   0  0  0  0  0  0  0  0  0  0  0  0
   38.0380   28.4630   43.6210 C   0  0  0  0  0  0  0  0  0  0  0  0
   36.8220   27.8260   43.6800 C   0  0  0  0  0  0  0  0  0  0  0  0
   36.3870   27.1120   42.5780 C   0  0  0  0  0  0  0  0  0  0  0  0
   37.1840   27.0680   41.4730 C   0  0  0  0  0  0  0  0  0  0  0  0
   38.3410   29.0120   44.5110 H   0  0  0  0  0  0  0  0  0  0  0  0
   36.1900   27.8560   44.5430 H   0  0  0  0  0  0  0  0  0  0  0  0
   35.4560   26.5770   42.5120 H   0  0  0  0  0  0  0  0  0  0  0  0
   36.8220   26.3380   40.2380 C   0  0  0  0  0  0  0  0  0  0  0  0
   36.1900   27.0170   39.2130 C   0  0  0  0  0  0  0  0  0  0  0  0
   35.9880   28.0550   39.3580 H   0  0  0  0  0  0  0  0  0  0  0  0
   35.8380   26.3760   38.0490 C   0  0  0  0  0  3  0  0  0  0  0  0
   36.1310   25.0380   37.9360 C   0  0  0  0  0  3  0  0  0  0  0  0
   36.7700   24.3320   38.9620 C   0  0  0  0  0  0  0  0  0  0  0  0
   37.0630   22.9830   38.8420 C   0  0  0  0  0  3  0  0  0  0  0  0
   37.6920   22.3300   39.8740 C   0  0  0  0  0  3  0  0  0  0  0  0
   38.0490   22.9770   41.0500 C   0  0  0  0  0  3  0  0  0  0  0  0
   37.7550   24.3290   41.1750 C   0  0  0  0  0  3  0  0  0  0  0  0
   37.1190   24.9940   40.1280 C   0  0  0  0  0  0  0  0  0  0  0  0
  1  6  2  0  0  0  0
  1  2  1  0  0  0  0
  2  3  2  0  0  0  0
  3 15  1  0  0  0  0
  3  4  1  0  0  0  0
  5  7  1  0  0  0  0
  5  4  2  0  0  0  0
  6  5  1  0  0  0  0
  7 12  1  0  0  0  0
  8  9  1  0  0  0  0
  8  7  1  0  0  0  0
  8 17  1  0  0  0  0
  9 18  1  0  0  0  0
  9 10  1  0  0  0  0
 10 20  1  0  0  0  0
 10 21  1  0  0  0  0
 11 10  1  0  0  0  0
 11 23  1  0  0  0  0
 12 11  1  0  0  0  0
 12 24  1  1  0  0  0
 13  1  1  0  0  0  0
 14  2  1  0  0  0  0
 16  8  1  0  0  0  0
 19  9  1  0  0  0  0
 22 11  1  0  0  0  0
 25 26  1  0  0  0  0
 26 31  2  0  0  0  0
 26 27  1  0  0  0  0
 27 12  1  0  0  0  0
 27 28  2  0  0  0  0
 28 29  1  0  0  0  0
 28 32  1  0  0  0  0
 29 33  1  0  0  0  0
 30 29  2  0  0  0  0
 31 30  1  0  0  0  0
 34 30  1  0  0  0  0
 35 31  1  0  0  0  0
 36 37  1  0  0  0  0
 36 35  2  0  0  0  0
 38 36  1  0  0  0  0
 39 38  2  0  0  0  0
 39 40  1  0  0  0  0
 40 45  1  0  0  0  0
 41 40  2  0  0  0  0
 41 42  1  0  0  0  0
 42 43  2  0  0  0  0
 43 44  1  0  0  0  0
 45 35  1  0  0  0  0
 45 44  2  0  0  0  0
M  END
>  <minimizedAffinity>
-6.81360483

$$$$

 OpenBabel03242517243D

 45 49  0  0  1  0  0  0  0  0999 V2000
   40.3110   25.8430   36.5240 C   0  0  0  0  0  0  0  0  0  0  0  0
   38.9210   25.8900   36.3030 C   0  0  0  0  0  0  0  0  0  0  0  0
   38.2580   27.1240   36.4250 C   0  0  0  0  0  0  0  0  0  0  0  0
   39.0060   28.2060   36.7510 N   0  0  0  0  0  0  0  0  0  0  0  0
   40.3460   28.1280   36.9560 C   0  0  0  0  0  0  0  0  0  0  0  0
   41.0090   26.9440   36.8440 N   0  0  0  0  0  0  0  0  0  0  0  0
   41.0470   29.3280   37.2960 N   0  0  0  0  0  0  0  0  0  0  0  0
   42.5060   29.2620   37.2110 C   0  0  0  0  0  0  0  0  0  0  0  0
   43.2230   30.3370   37.9130 C   0  0  0  0  0  0  0  0  0  0  0  0
   42.4610   31.6190   37.8410 C   0  0  0  0  0  0  0  0  0  0  0  0
   41.1550   31.4040   38.5410 C   0  0  0  0  0  0  0  0  0  0  0  0
   40.3230   30.5100   37.6920 C   0  0  2  0  0  0  0  0  0  0  0  0
   40.8940   24.9390   36.4510 H   0  0  0  0  0  0  0  0  0  0  0  0
   38.4070   24.9810   36.0490 H   0  0  0  0  0  0  0  0  0  0  0  0
   37.1920   27.1740   36.2590 H   0  0  0  0  0  0  0  0  0  0  0  0
   42.8600   28.2320   37.4820 H   0  0  0  0  0  0  0  0  0  0  0  0
   42.7260   29.3580   36.1100 H   0  0  0  0  0  0  0  0  0  0  0  0
   44.2020   30.5100   37.3780 H   0  0  0  0  0  0  0  0  0  0  0  0
   43.4820   30.0800   38.9400 H   0  0  0  0  0  0  0  0  0  0  0  0
   43.0430   32.3720   38.4390 H   0  0  0  0  0  0  0  0  0  0  0  0
   42.3650   31.9960   36.8110 H   0  0  0  0  0  0  0  0  0  0  0  0
   41.3960   30.8880   39.5020 H   0  0  0  0  0  0  0  0  0  0  0  0
   40.6300   32.3430   38.7700 H   0  0  0  0  0  0  0  0  0  0  0  0
   40.1060   31.0550   36.7300 H   0  0  0  0  0  0  0  0  0  0  0  0
   39.8380   29.0480   40.1160 F   0  0  0  0  0  0  0  0  0  0  0  0
   38.7420   29.5360   39.4460 C   0  0  0  0  0  0  0  0  0  0  0  0
   38.9830   30.2420   38.2760 C   0  0  0  0  0  0  0  0  0  0  0  0
   37.8470   30.7140   37.6360 C   0  0  0  0  0  0  0  0  0  0  0  0
   36.5640   30.5200   38.0900 C   0  0  0  0  0  0  0  0  0  0  0  0
   36.3680   29.8110   39.2610 C   0  0  0  0  0  0  0  0  0  0  0  0
   37.4580   29.3290   39.9210 C   0  0  0  0  0  0  0  0  0  0  0  0
   37.9530   31.2780   36.7120 H   0  0  0  0  0  0  0  0  0  0  0  0
   35.7020   30.8950   37.5770 H   0  0  0  0  0  0  0  0  0  0  0  0
   35.4120   29.5990   39.7070 H   0  0  0  0  0  0  0  0  0  0  0  0
   37.3710   28.5560   41.1800 C   0  0  0  0  0  0  0  0  0  0  0  0
   37.4850   29.2190   42.3880 C   0  0  0  0  0  0  0  0  0  0  0  0
   37.6320   30.2760   42.3610 H   0  0  0  0  0  0  0  0  0  0  0  0
   37.4100   28.5380   43.5810 C   0  0  0  0  0  3  0  0  0  0  0  0
   37.2190   27.1780   43.5350 C   0  0  0  0  0  3  0  0  0  0  0  0
   37.1020   26.4880   42.3220 C   0  0  0  0  0  0  0  0  0  0  0  0
   36.9100   25.1170   42.2830 C   0  0  0  0  0  3  0  0  0  0  0  0
   36.7990   24.4800   41.0710 C   0  0  0  0  0  3  0  0  0  0  0  0
   36.8750   25.1670   39.8660 C   0  0  0  0  0  3  0  0  0  0  0  0
   37.0680   26.5420   39.9010 C   0  0  0  0  0  3  0  0  0  0  0  0
   37.1800   27.1900   41.1310 C   0  0  0  0  0  0  0  0  0  0  0  0
  1  6  1  0  0  0  0
  2  3  1  0  0  0  0
  2  1  2  0  0  0  0
  3  4  2  0  0  0  0
  4  5  1  0  0  0  0
  5  7  1  0  0  0  0
  6  5  2  0  0  0  0
  7 12  1  0  0  0  0
  8  7  1  0  0  0  0
  8 16  1  0  0  0  0
  8  9  1  0  0  0  0
  9 19  1  0  0  0  0
 10  9  1  0  0  0  0
 10 20  1  0  0  0  0
 10 11  1  0  0  0  0
 11 23  1  0  0  0  0
 11 22  1  0  0  0  0
 12 24  1  6  0  0  0
 12 27  1  0  0  0  0
 12 11  1  0  0  0  0
 13  1  1  0  0  0  0
 14  2  1  0  0  0  0
 15  3  1  0  0  0  0
 17  8  1  0  0  0  0
 18  9  1  0  0  0  0
 21 10  1  0  0  0  0
 26 31  1  0  0  0  0
 26 25  1  0  0  0  0
 27 26  2  0  0  0  0
 28 29  2  0  0  0  0
 28 27  1  0  0  0  0
 29 30  1  0  0  0  0
 30 34  1  0  0  0  0
 30 31  2  0  0  0  0
 31 35  1  0  0  0  0
 32 28  1  0  0  0  0
 33 29  1  0  0  0  0
 35 36  1  0  0  0  0
 36 38  2  0  0  0  0
 37 36  1  0  0  0  0
 39 38  1  0  0  0  0
 40 39  2  0  0  0  0
 41 40  1  0  0  0  0
 42 41  2  0  0  0  0
 43 44  2  0  0  0  0
 43 42  1  0  0  0  0
 44 45  1  0  0  0  0
 45 35  2  0  0  0  0
 45 40  1  0  0  0  0
M  END
>  <minimizedAffinity>
-6.76513052

$$$$

 OpenBabel03242517243D

 45 49  0  0  1  0  0  0  0  0999 V2000
   41.9910   25.4090   43.3090 C   0  0  0  0  0  0  0  0  0  0  0  0
   40.9550   24.7790   42.5920 C   0  0  0  0  0  0  0  0  0  0  0  0
   40.0590   25.5760   41.8590 C   0  0  0  0  0  0  0  0  0  0  0  0
   40.2480   26.9180   41.8870 N   0  0  0  0  0  0  0  0  0  0  0  0
   41.2570   27.4950   42.5880 C   0  0  0  0  0  0  0  0  0  0  0  0
   42.1370   26.7430   43.3060 N   0  0  0  0  0  0  0  0  0  0  0  0
   41.3730   28.9210   42.5540 N   0  0  0  0  0  0  0  0  0  0  0  0
   42.6290   29.4720   43.0630 C   0  0  0  0  0  0  0  0  0  0  0  0
   42.5980   30.9070   43.3820 C   0  0  0  0  0  0  0  0  0  0  0  0
   41.7100   31.6440   42.4340 C   0  0  0  0  0  0  0  0  0  0  0  0
   40.3240   31.1040   42.6080 C   0  0  0  0  0  0  0  0  0  0  0  0
   40.2950   29.7280   42.0420 C   0  0  2  0  0  0  0  0  0  0  0  0
   42.7190   24.8720   43.8960 H   0  0  0  0  0  0  0  0  0  0  0  0
   40.8790   23.7070   42.6270 H   0  0  0  0  0  0  0  0  0  0  0  0
   39.2590   25.1060   41.3050 H   0  0  0  0  0  0  0  0  0  0  0  0
   43.0200   28.8320   43.8970 H   0  0  0  0  0  0  0  0  0  0  0  0
   43.3620   29.3190   42.2210 H   0  0  0  0  0  0  0  0  0  0  0  0
   43.6400   31.3190   43.2390 H   0  0  0  0  0  0  0  0  0  0  0  0
   42.3340   31.1090   44.4200 H   0  0  0  0  0  0  0  0  0  0  0  0
   41.6980   32.7160   42.7730 H   0  0  0  0  0  0  0  0  0  0  0  0
   42.0810   31.6140   41.3990 H   0  0  0  0  0  0  0  0  0  0  0  0
   40.1410   31.0580   43.7080 H   0  0  0  0  0  0  0  0  0  0  0  0
   39.5540   31.7420   42.1500 H   0  0  0  0  0  0  0  0  0  0  0  0
   40.4920   29.8100   40.9350 H   0  0  0  0  0  0  0  0  0  0  0  0
   38.5630   29.1950   39.8140 F   0  0  0  0  0  0  0  0  0  0  0  0
   38.1130   28.8350   41.0610 C   0  0  0  0  0  0  0  0  0  0  0  0
   38.9550   29.0940   42.1340 C   0  0  0  0  0  0  0  0  0  0  0  0
   38.4570   28.7120   43.3700 C   0  0  0  0  0  0  0  0  0  0  0  0
   37.2320   28.1200   43.5650 C   0  0  0  0  0  0  0  0  0  0  0  0
   36.4240   27.8790   42.4680 C   0  0  0  0  0  0  0  0  0  0  0  0
   36.8740   28.2400   41.2340 C   0  0  0  0  0  0  0  0  0  0  0  0
   39.0600   28.8810   44.2600 H   0  0  0  0  0  0  0  0  0  0  0  0
   36.8710   27.8340   44.5310 H   0  0  0  0  0  0  0  0  0  0  0  0
   35.4490   27.4240   42.5030 H   0  0  0  0  0  0  0  0  0  0  0  0
   36.0970   28.0330   39.9920 C   0  0  0  0  0  0  0  0  0  0  0  0
   35.2360   29.0270   39.5610 C   0  0  0  0  0  0  0  0  0  0  0  0
   35.1690   29.9130   40.1520 H   0  0  0  0  0  0  0  0  0  0  0  0
   34.4960   28.8740   38.4130 C   0  0  0  0  0  3  0  0  0  0  0  0
   34.6370   27.7040   37.7060 C   0  0  0  0  0  3  0  0  0  0  0  0
   35.5020   26.6860   38.1250 C   0  0  0  0  0  0  0  0  0  0  0  0
   35.6390   25.5090   37.4080 C   0  0  0  0  0  3  0  0  0  0  0  0
   36.5000   24.5370   37.8550 C   0  0  0  0  0  3  0  0  0  0  0  0
   37.2490   24.6900   39.0160 C   0  0  0  0  0  3  0  0  0  0  0  0
   37.1140   25.8690   39.7380 C   0  0  0  0  0  3  0  0  0  0  0  0
   36.2410   26.8570   39.2850 C   0  0  0  0  0  0  0  0  0  0  0  0
  1 13  1  0  0  0  0
  2 14  1  0  0  0  0
  2  1  2  0  0  0  0
  3  4  2  0  0  0  0
  3  2  1  0  0  0  0
  4  5  1  0  0  0  0
  5  6  2  0  0  0  0
  6  1  1  0  0  0  0
  7  5  1  0  0  0  0
  7  8  1  0  0  0  0
  8  9  1  0  0  0  0
  8 16  1  0  0  0  0
  9 19  1  0  0  0  0
 10 11  1  0  0  0  0
 10 20  1  0  0  0  0
 10  9  1  0  0  0  0
 11 22  1  0  0  0  0
 12 24  1  6  0  0  0
 12 27  1  0  0  0  0
 12  7  1  0  0  0  0
 12 11  1  0  0  0  0
 15  3  1  0  0  0  0
 17  8  1  0  0  0  0
 18  9  1  0  0  0  0
 21 10  1  0  0  0  0
 23 11  1  0  0  0  0
 25 26  1  0  0  0  0
 26 31  2  0  0  0  0
 26 27  1  0  0  0  0
 27 28  2  0  0  0  0
 28 29  1  0  0  0  0
 28 32  1  0  0  0  0
 29 33  1  0  0  0  0
 30 34  1  0  0  0  0
 30 29  2  0  0  0  0
 31 30  1  0  0  0  0
 35 31  1  0  0  0  0
 36 35  1  0  0  0  0
 36 37  1  0  0  0  0
 38 36  2  0  0  0  0
 39 40  2  0  0  0  0
 39 38  1  0  0  0  0
 40 45  1  0  0  0  0
 41 42  2  0  0  0  0
 41 40  1  0  0  0  0
 42 43  1  0  0  0  0
 43 44  2  0  0  0  0
 45 44  1  0  0  0  0
 45 35  2  0  0  0  0
M  END
>  <minimizedAffinity>
-6.72816563

$$$$

 OpenBabel03242517243D

 45 49  0  0  1  0  0  0  0  0999 V2000
   38.0070   32.1100   39.0160 C   0  0  0  0  0  0  0  0  0  0  0  0
   38.0330   32.6620   40.3100 C   0  0  0  0  0  0  0  0  0  0  0  0
   39.2740   32.8140   40.9550 C   0  0  0  0  0  0  0  0  0  0  0  0
   40.3810   32.4150   40.2830 N   0  0  0  0  0  0  0  0  0  0  0  0
   40.3220   31.8860   39.0340 C   0  0  0  0  0  0  0  0  0  0  0  0
   39.1320   31.7290   38.3910 N   0  0  0  0  0  0  0  0  0  0  0  0
   41.5480   31.4950   38.4080 N   0  0  0  0  0  0  0  0  0  0  0  0
   41.4740   31.2200   36.9740 C   0  0  0  0  0  0  0  0  0  0  0  0
   42.6080   30.4650   36.4220 C   0  0  0  0  0  0  0  0  0  0  0  0
   43.8790   30.8320   37.1150 C   0  0  0  0  0  0  0  0  0  0  0  0
   43.7280   30.4510   38.5560 C   0  0  0  0  0  0  0  0  0  0  0  0
   42.7610   31.3930   39.1790 C   0  0  2  0  0  0  0  0  0  0  0  0
   37.0990   31.9590   38.4520 H   0  0  0  0  0  0  0  0  0  0  0  0
   37.1050   32.9510   40.7690 H   0  0  0  0  0  0  0  0  0  0  0  0
   39.3090   33.2360   41.9490 H   0  0  0  0  0  0  0  0  0  0  0  0
   40.4720   30.7810   36.7180 H   0  0  0  0  0  0  0  0  0  0  0  0
   41.4680   32.2390   36.4930 H   0  0  0  0  0  0  0  0  0  0  0  0
   42.7310   30.7610   35.3390 H   0  0  0  0  0  0  0  0  0  0  0  0
   42.4460   29.3870   36.4230 H   0  0  0  0  0  0  0  0  0  0  0  0
   44.6830   30.1800   36.6770 H   0  0  0  0  0  0  0  0  0  0  0  0
   44.1600   31.8840   36.9520 H   0  0  0  0  0  0  0  0  0  0  0  0
   43.3030   29.4190   38.5640 H   0  0  0  0  0  0  0  0  0  0  0  0
   44.6850   30.4400   39.0990 H   0  0  0  0  0  0  0  0  0  0  0  0
   43.2160   32.4230   39.1460 H   0  0  0  0  0  0  0  0  0  0  0  0
   41.5160   29.0430   40.2640 F   0  0  0  0  0  0  0  0  0  0  0  0
   41.9470   29.9950   41.1560 C   0  0  0  0  0  0  0  0  0  0  0  0
   42.5480   31.1280   40.6260 C   0  0  0  0  0  0  0  0  0  0  0  0
   42.9660   32.0590   41.5650 C   0  0  0  0  0  0  0  0  0  0  0  0
   42.8160   31.9130   42.9230 C   0  0  0  0  0  0  0  0  0  0  0  0
   42.2110   30.7680   43.4100 C   0  0  0  0  0  0  0  0  0  0  0  0
   41.7850   29.8270   42.5210 C   0  0  0  0  0  0  0  0  0  0  0  0
   43.4480   32.9750   41.2270 H   0  0  0  0  0  0  0  0  0  0  0  0
   43.1470   32.6470   43.6280 H   0  0  0  0  0  0  0  0  0  0  0  0
   42.0410   30.5490   44.4500 H   0  0  0  0  0  0  0  0  0  0  0  0
   41.1240   28.5660   42.9250 C   0  0  0  0  0  0  0  0  0  0  0  0
   41.9030   27.4860   43.2980 C   0  0  0  0  0  0  0  0  0  0  0  0
   42.9630   27.6090   43.2790 H   0  0  0  0  0  0  0  0  0  0  0  0
   41.3290   26.2960   43.6800 C   0  0  0  0  0  3  0  0  0  0  0  0
   39.9570   26.2130   43.6790 C   0  0  0  0  0  3  0  0  0  0  0  0
   39.1510   27.2950   43.3050 C   0  0  0  0  0  0  0  0  0  0  0  0
   37.7690   27.2050   43.3060 C   0  0  0  0  0  3  0  0  0  0  0  0
   37.0160   28.2910   42.9320 C   0  0  0  0  0  3  0  0  0  0  0  0
   37.5950   29.4940   42.5460 C   0  0  0  0  0  3  0  0  0  0  0  0
   38.9810   29.5880   42.5430 C   0  0  0  0  0  3  0  0  0  0  0  0
   39.7470   28.4860   42.9230 C   0  0  0  0  0  0  0  0  0  0  0  0
  1  2  1  0  0  0  0
  2 14  1  0  0  0  0
  2  3  2  0  0  0  0
  3 15  1  0  0  0  0
  4  3  1  0  0  0  0
  5  4  2  0  0  0  0
  6  1  2  0  0  0  0
  6  5  1  0  0  0  0
  7  5  1  0  0  0  0
  7 12  1  0  0  0  0
  8  7  1  0  0  0  0
  9 19  1  0  0  0  0
  9  8  1  0  0  0  0
  9 10  1  0  0  0  0
 10 11  1  0  0  0  0
 11 22  1  0  0  0  0
 11 23  1  0  0  0  0
 11 12  1  0  0  0  0
 12 24  1  6  0  0  0
 12 27  1  0  0  0  0
 13  1  1  0  0  0  0
 16  8  1  0  0  0  0
 17  8  1  0  0  0  0
 18  9  1  0  0  0  0
 20 10  1  0  0  0  0
 21 10  1  0  0  0  0
 25 26  1  0  0  0  0
 26 31  1  0  0  0  0
 27 26  2  0  0  0  0
 27 28  1  0  0  0  0
 28 29  2  0  0  0  0
 29 30  1  0  0  0  0
 29 33  1  0  0  0  0
 30 34  1  0  0  0  0
 31 35  1  0  0  0  0
 31 30  2  0  0  0  0
 32 28  1  0  0  0  0
 35 36  1  0  0  0  0
 36 38  2  0  0  0  0
 37 36  1  0  0  0  0
 39 38  1  0  0  0  0
 40 41  1  0  0  0  0
 40 39  2  0  0  0  0
 42 41  2  0  0  0  0
 43 42  1  0  0  0  0
 44 43  2  0  0  0  0
 44 45  1  0  0  0  0
 45 35  2  0  0  0  0
 45 40  1  0  0  0  0
M  END
>  <minimizedAffinity>
-6.66451168

$$$$

 OpenBabel03242517243D

 45 49  0  0  1  0  0  0  0  0999 V2000
   38.1370   23.3950   39.1230 C   0  0  0  0  0  0  0  0  0  0  0  0
   37.6880   23.1500   40.4350 C   0  0  0  0  0  0  0  0  0  0  0  0
   37.0760   24.1970   41.1460 C   0  0  0  0  0  0  0  0  0  0  0  0
   36.9530   25.3920   40.5190 N   0  0  0  0  0  0  0  0  0  0  0  0
   37.3960   25.5960   39.2510 C   0  0  0  0  0  0  0  0  0  0  0  0
   37.9930   24.5970   38.5440 N   0  0  0  0  0  0  0  0  0  0  0  0
   37.2200   26.8940   38.6760 N   0  0  0  0  0  0  0  0  0  0  0  0
   37.4290   26.9870   37.2320 C   0  0  0  0  0  0  0  0  0  0  0  0
   37.6260   28.3490   36.7140 C   0  0  0  0  0  0  0  0  0  0  0  0
   36.8070   29.3330   37.4830 C   0  0  0  0  0  0  0  0  0  0  0  0
   37.2890   29.3050   38.9010 C   0  0  0  0  0  0  0  0  0  0  0  0
   36.8570   28.0160   39.5050 C   0  0  2  0  0  0  0  0  0  0  0  0
   38.6170   22.6490   38.5100 H   0  0  0  0  0  0  0  0  0  0  0  0
   37.8280   22.1710   40.8550 H   0  0  0  0  0  0  0  0  0  0  0  0
   36.7270   24.0230   42.1540 H   0  0  0  0  0  0  0  0  0  0  0  0
   38.2250   26.2630   36.9120 H   0  0  0  0  0  0  0  0  0  0  0  0
   36.4780   26.5800   36.7850 H   0  0  0  0  0  0  0  0  0  0  0  0
   37.2510   28.3750   35.6490 H   0  0  0  0  0  0  0  0  0  0  0  0
   38.6750   28.6430   36.6720 H   0  0  0  0  0  0  0  0  0  0  0  0
   37.0500   30.3480   37.0650 H   0  0  0  0  0  0  0  0  0  0  0  0
   35.7260   29.1640   37.3690 H   0  0  0  0  0  0  0  0  0  0  0  0
   38.4040   29.3410   38.8540 H   0  0  0  0  0  0  0  0  0  0  0  0
   36.9360   30.1640   39.4910 H   0  0  0  0  0  0  0  0  0  0  0  0
   35.7310   28.0100   39.5280 H   0  0  0  0  0  0  0  0  0  0  0  0
   39.5610   27.7840   40.4460 F   0  0  0  0  0  0  0  0  0  0  0  0
   38.5630   27.7700   41.3900 C   0  0  0  0  0  0  0  0  0  0  0  0
   37.2580   27.8830   40.9290 C   0  0  0  0  0  0  0  0  0  0  0  0
   36.2880   27.8650   41.9190 C   0  0  0  0  0  0  0  0  0  0  0  0
   36.5510   27.7450   43.2630 C   0  0  0  0  0  0  0  0  0  0  0  0
   37.8650   27.6340   43.6790 C   0  0  0  0  0  0  0  0  0  0  0  0
   38.8510   27.6470   42.7390 C   0  0  0  0  0  0  0  0  0  0  0  0
   35.2400   27.9510   41.6370 H   0  0  0  0  0  0  0  0  0  0  0  0
   35.7830   27.7330   44.0080 H   0  0  0  0  0  0  0  0  0  0  0  0
   38.1870   27.5340   44.7010 H   0  0  0  0  0  0  0  0  0  0  0  0
   40.2900   27.5340   43.0660 C   0  0  0  0  0  0  0  0  0  0  0  0
   40.8170   26.2920   43.3700 C   0  0  0  0  0  0  0  0  0  0  0  0
   40.1550   25.4560   43.3540 H   0  0  0  0  0  0  0  0  0  0  0  0
   42.1490   26.1440   43.6800 C   0  0  0  0  0  3  0  0  0  0  0  0
   42.9390   27.2680   43.6790 C   0  0  0  0  0  3  0  0  0  0  0  0
   42.4250   28.5340   43.3750 C   0  0  0  0  0  0  0  0  0  0  0  0
   43.2270   29.6630   43.3770 C   0  0  0  0  0  3  0  0  0  0  0  0
   42.6810   30.8860   43.0720 C   0  0  0  0  0  3  0  0  0  0  0  0
   41.3360   31.0370   42.7590 C   0  0  0  0  0  3  0  0  0  0  0  0
   40.5280   29.9070   42.7570 C   0  0  0  0  0  3  0  0  0  0  0  0
   41.0810   28.6650   43.0650 C   0  0  0  0  0  0  0  0  0  0  0  0
  1  2  1  0  0  0  0
  2 14  1  0  0  0  0
  2  3  2  0  0  0  0
  3 15  1  0  0  0  0
  4  3  1  0  0  0  0
  5  4  2  0  0  0  0
  6  1  2  0  0  0  0
  6  5  1  0  0  0  0
  7  5  1  0  0  0  0
  7 12  1  0  0  0  0
  8  7  1  0  0  0  0
  9  8  1  0  0  0  0
  9 10  1  0  0  0  0
 10 11  1  0  0  0  0
 11 23  1  0  0  0  0
 11 12  1  0  0  0  0
 12 24  1  1  0  0  0
 12 27  1  0  0  0  0
 13  1  1  0  0  0  0
 16  8  1  0  0  0  0
 17  8  1  0  0  0  0
 18  9  1  0  0  0  0
 19  9  1  0  0  0  0
 20 10  1  0  0  0  0
 21 10  1  0  0  0  0
 22 11  1  0  0  0  0
 25 26  1  0  0  0  0
 26 31  1  0  0  0  0
 27 26  2  0  0  0  0
 27 28  1  0  0  0  0
 28 29  2  0  0  0  0
 29 30  1  0  0  0  0
 29 33  1  0  0  0  0
 30 34  1  0  0  0  0
 31 35  1  0  0  0  0
 31 30  2  0  0  0  0
 32 28  1  0  0  0  0
 35 36  1  0  0  0  0
 36 38  2  0  0  0  0
 37 36  1  0  0  0  0
 39 38  1  0  0  0  0
 40 41  1  0  0  0  0
 40 39  2  0  0  0  0
 42 41  2  0  0  0  0
 43 42  1  0  0  0  0
 44 43  2  0  0  0  0
 44 45  1  0  0  0  0
 45 35  2  0  0  0  0
 45 40  1  0  0  0  0
M  END
>  <minimizedAffinity>
-6.5401125

$$$$

 OpenBabel03242517243D

 45 49  0  0  1  0  0  0  0  0999 V2000
   35.9940   28.1740   37.4370 C   0  0  0  0  0  0  0  0  0  0  0  0
   36.8290   29.0070   36.6670 C   0  0  0  0  0  0  0  0  0  0  0  0
   37.9240   29.6290   37.2920 C   0  0  0  0  0  0  0  0  0  0  0  0
   38.1130   29.3860   38.6120 N   0  0  0  0  0  0  0  0  0  0  0  0
   37.2890   28.5760   39.3260 C   0  0  0  0  0  0  0  0  0  0  0  0
   36.2220   27.9640   38.7430 N   0  0  0  0  0  0  0  0  0  0  0  0
   37.5720   28.3830   40.7150 N   0  0  0  0  0  0  0  0  0  0  0  0
   36.8580   27.2860   41.3670 C   0  0  0  0  0  0  0  0  0  0  0  0
   36.8510   27.3280   42.8360 C   0  0  0  0  0  0  0  0  0  0  0  0
   38.1340   27.8870   43.3580 C   0  0  0  0  0  0  0  0  0  0  0  0
   38.2460   29.2940   42.8570 C   0  0  0  0  0  0  0  0  0  0  0  0
   38.5130   29.2380   41.3940 C   0  0  2  0  0  0  0  0  0  0  0  0
   35.1340   27.6610   37.0360 H   0  0  0  0  0  0  0  0  0  0  0  0
   36.6040   29.1440   35.6250 H   0  0  0  0  0  0  0  0  0  0  0  0
   38.5730   30.2710   36.7130 H   0  0  0  0  0  0  0  0  0  0  0  0
   35.8380   27.1690   40.9130 H   0  0  0  0  0  0  0  0  0  0  0  0
   37.4170   26.3600   41.0480 H   0  0  0  0  0  0  0  0  0  0  0  0
   36.7800   26.2670   43.2160 H   0  0  0  0  0  0  0  0  0  0  0  0
   35.9870   27.8530   43.2450 H   0  0  0  0  0  0  0  0  0  0  0  0
   38.0310   27.9360   44.4760 H   0  0  0  0  0  0  0  0  0  0  0  0
   39.0000   27.2510   43.1180 H   0  0  0  0  0  0  0  0  0  0  0  0
   37.2520   29.7710   43.0370 H   0  0  0  0  0  0  0  0  0  0  0  0
   39.0150   29.8770   43.3830 H   0  0  0  0  0  0  0  0  0  0  0  0
   39.5150   28.7450   41.2480 H   0  0  0  0  0  0  0  0  0  0  0  0
   40.8820   30.1910   40.0800 F   0  0  0  0  0  0  0  0  0  0  0  0
   39.8120   31.0500   40.1490 C   0  0  0  0  0  0  0  0  0  0  0  0
   38.6700   30.5840   40.7850 C   0  0  0  0  0  0  0  0  0  0  0  0
   37.6190   31.4870   40.8280 C   0  0  0  0  0  0  0  0  0  0  0  0
   37.6610   32.7540   40.2980 C   0  0  0  0  0  0  0  0  0  0  0  0
   38.8190   33.1790   39.6730 C   0  0  0  0  0  0  0  0  0  0  0  0
   39.8770   32.3230   39.6080 C   0  0  0  0  0  0  0  0  0  0  0  0
   36.6870   31.1950   41.3100 H   0  0  0  0  0  0  0  0  0  0  0  0
   36.8350   33.4330   40.3440 H   0  0  0  0  0  0  0  0  0  0  0  0
   38.9650   34.1470   39.2240 H   0  0  0  0  0  0  0  0  0  0  0  0
   41.1650   32.6690   38.9660 C   0  0  0  0  0  0  0  0  0  0  0  0
   41.3120   32.4820   37.6030 C   0  0  0  0  0  0  0  0  0  0  0  0
   40.4770   32.0930   37.0640 H   0  0  0  0  0  0  0  0  0  0  0  0
   42.4920   32.7900   36.9690 C   0  0  0  0  0  3  0  0  0  0  0  0
   43.5220   33.2880   37.7300 C   0  0  0  0  0  3  0  0  0  0  0  0
   43.3950   33.4830   39.1100 C   0  0  0  0  0  0  0  0  0  0  0  0
   44.4370   33.9850   39.8720 C   0  0  0  0  0  3  0  0  0  0  0  0
   44.2680   34.1610   41.2240 C   0  0  0  0  0  3  0  0  0  0  0  0
   43.0760   33.8500   41.8670 C   0  0  0  0  0  3  0  0  0  0  0  0
   42.0280   33.3460   41.1060 C   0  0  0  0  0  3  0  0  0  0  0  0
   42.1980   33.1680   39.7340 C   0  0  0  0  0  0  0  0  0  0  0  0
  1  6  1  0  0  0  0
  2  3  1  0  0  0  0
  2  1  2  0  0  0  0
  3  4  2  0  0  0  0
  4  5  1  0  0  0  0
  5  7  1  0  0  0  0
  6  5  2  0  0  0  0
  7  8  1  0  0  0  0
  7 12  1  0  0  0  0
  8  9  1  0  0  0  0
  9 18  1  0  0  0  0
  9 19  1  0  0  0  0
  9 10  1  0  0  0  0
 10 20  1  0  0  0  0
 11 22  1  0  0  0  0
 11 10  1  0  0  0  0
 11 23  1  0  0  0  0
 12 24  1  6  0  0  0
 12 11  1  0  0  0  0
 13  1  1  0  0  0  0
 14  2  1  0  0  0  0
 15  3  1  0  0  0  0
 16  8  1  0  0  0  0
 17  8  1  0  0  0  0
 21 10  1  0  0  0  0
 25 26  1  0  0  0  0
 26 27  1  0  0  0  0
 27 28  2  0  0  0  0
 27 12  1  0  0  0  0
 28 32  1  0  0  0  0
 29 33  1  0  0  0  0
 29 28  1  0  0  0  0
 30 29  2  0  0  0  0
 31 30  1  0  0  0  0
 31 26  2  0  0  0  0
 34 30  1  0  0  0  0
 35 31  1  0  0  0  0
 35 45  1  0  0  0  0
 36 35  2  0  0  0  0
 37 36  1  0  0  0  0
 38 36  1  0  0  0  0
 38 39  2  0  0  0  0
 39 40  1  0  0  0  0
 40 45  2  0  0  0  0
 40 41  1  0  0  0  0
 41 42  2  0  0  0  0
 42 43  1  0  0  0  0
 44 43  2  0  0  0  0
 45 44  1  0  0  0  0
M  END
>  <minimizedAffinity>
-6.48865414

$$$$

 OpenBabel03242517243D

 45 49  0  0  1  0  0  0  0  0999 V2000
   38.4250   27.7840   36.2330 C   0  0  0  0  0  0  0  0  0  0  0  0
   37.1450   27.7040   36.8130 C   0  0  0  0  0  0  0  0  0  0  0  0
   36.8370   28.5540   37.8910 C   0  0  0  0  0  0  0  0  0  0  0  0
   37.8020   29.4080   38.3090 N   0  0  0  0  0  0  0  0  0  0  0  0
   39.0280   29.4610   37.7280 C   0  0  0  0  0  0  0  0  0  0  0  0
   39.3480   28.6480   36.6840 N   0  0  0  0  0  0  0  0  0  0  0  0
   39.9790   30.3970   38.2430 N   0  0  0  0  0  0  0  0  0  0  0  0
   41.1580   30.6340   37.4110 C   0  0  0  0  0  0  0  0  0  0  0  0
   42.2880   31.2780   38.0960 C   0  0  0  0  0  0  0  0  0  0  0  0
   41.8040   32.2540   39.1180 C   0  0  0  0  0  0  0  0  0  0  0  0
   41.0260   31.4830   40.1390 C   0  0  0  0  0  0  0  0  0  0  0  0
   39.7500   31.0480   39.5080 C   0  0  2  0  0  0  0  0  0  0  0  0
   38.7420   27.1690   35.4050 H   0  0  0  0  0  0  0  0  0  0  0  0
   36.4400   26.9960   36.4170 H   0  0  0  0  0  0  0  0  0  0  0  0
   35.8570   28.5030   38.3450 H   0  0  0  0  0  0  0  0  0  0  0  0
   41.4370   29.6940   36.8640 H   0  0  0  0  0  0  0  0  0  0  0  0
   40.7960   31.3340   36.6050 H   0  0  0  0  0  0  0  0  0  0  0  0
   42.8690   31.8710   37.3300 H   0  0  0  0  0  0  0  0  0  0  0  0
   42.9930   30.5650   38.5220 H   0  0  0  0  0  0  0  0  0  0  0  0
   42.7180   32.6620   39.6300 H   0  0  0  0  0  0  0  0  0  0  0  0
   41.2540   33.0960   38.6710 H   0  0  0  0  0  0  0  0  0  0  0  0
   41.6420   30.5870   40.3920 H   0  0  0  0  0  0  0  0  0  0  0  0
   40.8430   32.0540   41.0610 H   0  0  0  0  0  0  0  0  0  0  0  0
   39.1590   31.9740   39.2580 H   0  0  0  0  0  0  0  0  0  0  0  0
   40.3040   28.4200   40.5260 F   0  0  0  0  0  0  0  0  0  0  0  0
   39.1370   29.0200   40.9340 C   0  0  0  0  0  0  0  0  0  0  0  0
   38.8750   30.2900   40.4400 C   0  0  0  0  0  0  0  0  0  0  0  0
   37.6870   30.8530   40.8800 C   0  0  0  0  0  0  0  0  0  0  0  0
   36.8080   30.2380   41.7380 C   0  0  0  0  0  0  0  0  0  0  0  0
   37.1070   28.9710   42.2080 C   0  0  0  0  0  0  0  0  0  0  0  0
   38.2640   28.3810   41.7990 C   0  0  0  0  0  0  0  0  0  0  0  0
   37.4120   31.8490   40.5370 H   0  0  0  0  0  0  0  0  0  0  0  0
   35.8960   30.6940   42.0640 H   0  0  0  0  0  0  0  0  0  0  0  0
   36.4940   28.3970   42.8800 H   0  0  0  0  0  0  0  0  0  0  0  0
   38.6870   27.0310   42.2340 C   0  0  0  0  0  0  0  0  0  0  0  0
   39.6220   26.9090   43.2450 C   0  0  0  0  0  0  0  0  0  0  0  0
   40.0040   27.8080   43.6770 H   0  0  0  0  0  0  0  0  0  0  0  0
   40.0420   25.6740   43.6790 C   0  0  0  0  0  3  0  0  0  0  0  0
   39.5040   24.5620   43.0740 C   0  0  0  0  0  3  0  0  0  0  0  0
   38.5570   24.6640   42.0490 C   0  0  0  0  0  0  0  0  0  0  0  0
   38.0180   23.5400   41.4440 C   0  0  0  0  0  3  0  0  0  0  0  0
   37.0910   23.6860   40.4410 C   0  0  0  0  0  3  0  0  0  0  0  0
   36.6660   24.9340   40.0030 C   0  0  0  0  0  3  0  0  0  0  0  0
   37.2040   26.0630   40.6060 C   0  0  0  0  0  3  0  0  0  0  0  0
   38.1450   25.9170   41.6250 C   0  0  0  0  0  0  0  0  0  0  0  0
  1  6  2  0  0  0  0
  1  2  1  0  0  0  0
  2  3  2  0  0  0  0
  3  4  1  0  0  0  0
  3 15  1  0  0  0  0
  5  7  1  0  0  0  0
  5  4  2  0  0  0  0
  6  5  1  0  0  0  0
  7 12  1  0  0  0  0
  8  9  1  0  0  0  0
  8  7  1  0  0  0  0
  9 19  1  0  0  0  0
  9 10  1  0  0  0  0
 10 20  1  0  0  0  0
 10 11  1  0  0  0  0
 11 22  1  0  0  0  0
 11 23  1  0  0  0  0
 12 24  1  6  0  0  0
 12 11  1  0  0  0  0
 12 27  1  0  0  0  0
 13  1  1  0  0  0  0
 14  2  1  0  0  0  0
 16  8  1  0  0  0  0
 17  8  1  0  0  0  0
 18  9  1  0  0  0  0
 21 10  1  0  0  0  0
 25 26  1  0  0  0  0
 26 31  1  0  0  0  0
 27 28  1  0  0  0  0
 27 26  2  0  0  0  0
 28 29  2  0  0  0  0
 29 33  1  0  0  0  0
 29 30  1  0  0  0  0
 30 34  1  0  0  0  0
 31 30  2  0  0  0  0
 31 35  1  0  0  0  0
 32 28  1  0  0  0  0
 35 36  1  0  0  0  0
 36 37  1  0  0  0  0
 36 38  2  0  0  0  0
 39 38  1  0  0  0  0
 40 39  2  0  0  0  0
 41 40  1  0  0  0  0
 42 41  2  0  0  0  0
 43 42  1  0  0  0  0
 43 44  2  0  0  0  0
 44 45  1  0  0  0  0
 45 40  1  0  0  0  0
 45 35  2  0  0  0  0
M  END
>  <minimizedAffinity>
-6.40859699

$$$$
