
 OpenBabel03252506383D

 46 50  0  0  1  0  0  0  0  0999 V2000
   44.5070   35.5340   45.1200 C   0  0  0  0  0  0  0  0  0  0  0  0
   45.1550   35.5310   43.8770 C   0  0  0  0  0  0  0  0  0  0  0  0
   46.0710   34.5720   43.6110 C   0  0  0  0  0  0  0  0  0  0  0  0
   46.3100   33.6570   44.5850 N   0  0  0  0  0  0  0  0  0  0  0  0
   45.6950   33.6640   45.7570 C   0  0  0  0  0  0  0  0  0  0  0  0
   44.7870   34.5960   46.0470 N   0  0  0  0  0  0  0  0  0  0  0  0
   46.0270   32.6460   46.7180 N   0  0  0  0  0  0  0  0  0  0  0  0
   45.2920   32.3920   47.9050 C   0  0  0  0  0  0  0  0  0  0  0  0
   46.3740   32.0390   48.9110 C   0  0  0  0  0  0  0  0  0  0  0  0
   47.6500   31.9390   48.1340 C   0  0  0  0  0  0  0  0  0  0  0  0
   47.1470   31.7340   46.7070 C   0  0  1  0  0  0  0  0  0  0  0  0
   43.7610   36.2760   45.3970 H   0  0  0  0  0  0  0  0  0  0  0  0
   46.5720   34.5540   42.6750 H   0  0  0  0  0  0  0  0  0  0  0  0
   44.9400   33.4110   48.2720 H   0  0  0  0  0  0  0  0  0  0  0  0
   44.4570   31.7720   47.9830 H   0  0  0  0  0  0  0  0  0  0  0  0
   46.4050   32.6700   49.7950 H   0  0  0  0  0  0  0  0  0  0  0  0
   46.1340   31.0060   49.2790 H   0  0  0  0  0  0  0  0  0  0  0  0
   48.2900   31.0930   48.4590 H   0  0  0  0  0  0  0  0  0  0  0  0
   48.1790   32.9150   48.1710 H   0  0  0  0  0  0  0  0  0  0  0  0
   47.9490   32.0240   46.0050 H   0  0  0  0  0  0  0  0  0  0  0  0
   44.7880   36.5720   42.9560 N   0  0  0  0  0  0  0  0  0  0  0  0
   43.9860   36.1630   42.4330 H   0  0  0  0  0  0  0  0  0  0  0  0
   45.2810   37.4960   42.9000 H   0  0  0  0  0  0  0  0  0  0  0  0
   46.6310   30.0430   46.5150 S   0  0  0  0  0  0  0  0  0  0  0  0
   45.6460   30.5830   43.3730 O   0  0  0  0  0  0  0  0  0  0  0  0
   45.0110   30.0210   44.2790 C   0  0  0  0  0  0  0  0  0  0  0  0
   45.0950   29.7650   45.7380 C   0  0  1  0  0  0  0  0  0  0  0  0
   44.5610   28.3580   45.8390 C   0  0  0  0  0  0  0  0  0  0  0  0
   43.2530   28.5780   45.0700 C   0  0  0  0  0  0  0  0  0  0  0  0
   43.7720   29.3610   43.9560 N   0  0  0  0  0  0  0  0  0  0  0  0
   44.2040   30.3580   46.0860 H   0  0  0  0  0  0  0  0  0  0  0  0
   44.3120   28.1060   46.8840 H   0  0  0  0  0  0  0  0  0  0  0  0
   45.1740   27.6150   45.3260 H   0  0  0  0  0  0  0  0  0  0  0  0
   42.5130   29.1070   45.6790 H   0  0  0  0  0  0  0  0  0  0  0  0
   42.9130   27.5750   44.7330 H   0  0  0  0  0  0  0  0  0  0  0  0
   43.0020   29.3640   42.7370 C   0  0  0  0  0  0  0  0  0  0  0  0
   41.9580   30.2840   42.7540 C   0  0  0  0  0  0  0  0  0  0  0  0
   41.7250   30.9400   43.5780 H   0  0  0  0  0  0  0  0  0  0  0  0
   41.1010   30.4310   41.6630 C   0  0  0  0  0  3  0  0  0  0  0  0
   41.3410   29.6180   40.5650 C   0  0  0  0  0  3  0  0  0  0  0  0
   42.3720   28.7120   40.5520 C   0  0  0  0  0  0  0  0  0  0  0  0
   42.6380   27.8860   39.4730 C   0  0  0  0  0  3  0  0  0  0  0  0
   43.6740   27.0010   39.5070 C   0  0  0  0  0  3  0  0  0  0  0  0
   44.5160   26.8760   40.6150 C   0  0  0  0  0  3  0  0  0  0  0  0
   44.2740   27.6940   41.7170 C   0  0  0  0  0  3  0  0  0  0  0  0
   43.2280   28.5650   41.6450 C   0  0  0  0  0  0  0  0  0  0  0  0
  1 12  1  0  0  0  0
  1  6  1  0  0  0  0
  2  1  2  0  0  0  0
  3  2  1  0  0  0  0
  3  4  2  0  0  0  0
  4  5  1  0  0  0  0
  5  6  2  0  0  0  0
  5  7  1  0  0  0  0
  7  8  1  0  0  0  0
  8 15  1  0  0  0  0
  8 14  1  0  0  0  0
  8  9  1  0  0  0  0
  9 17  1  0  0  0  0
  9 16  1  0  0  0  0
 10 19  1  0  0  0  0
 10 18  1  0  0  0  0
 10  9  1  0  0  0  0
 11 20  1  6  0  0  0
 11  7  1  0  0  0  0
 11 10  1  0  0  0  0
 13  3  1  0  0  0  0
 21  2  1  0  0  0  0
 22 21  1  0  0  0  0
 23 21  1  0  0  0  0
 24 11  1  0  0  0  0
 25 26  2  0  0  0  0
 26 27  1  0  0  0  0
 27 28  1  0  0  0  0
 27 31  1  1  0  0  0
 27 24  1  0  0  0  0
 28 32  1  0  0  0  0
 29 34  1  0  0  0  0
 29 28  1  0  0  0  0
 30 26  1  0  0  0  0
 30 29  1  0  0  0  0
 33 28  1  0  0  0  0
 35 29  1  0  0  0  0
 36 37  1  0  0  0  0
 36 30  1  0  0  0  0
 37 38  1  0  0  0  0
 39 37  2  0  0  0  0
 40 39  1  0  0  0  0
 41 40  2  0  0  0  0
 41 46  1  0  0  0  0
 42 43  2  0  0  0  0
 42 41  1  0  0  0  0
 43 44  1  0  0  0  0
 44 45  2  0  0  0  0
 46 45  1  0  0  0  0
 46 36  2  0  0  0  0
M  END
>  <minimizedAffinity>
-5.36582804

>  <minimizedRMSD>
0.967183709

$$$$
