
 OpenBabel03242520163D

 27 30  0  0  0  0  0  0  0  0999 V2000
   46.8870   34.7370   42.4450 C   0  0  0  0  0  0  0  0  0  0  0  0
   46.9620   33.5040   43.1070 C   0  0  0  0  0  0  0  0  0  0  0  0
   46.1280   33.1660   44.1410 C   0  0  0  0  0  0  0  0  0  0  0  0
   45.2110   34.1470   44.4660 N   0  0  0  0  0  0  0  0  0  0  0  0
   45.1350   35.3220   43.8390 C   0  0  0  0  0  0  0  0  0  0  0  0
   45.9660   35.6010   42.8450 N   0  0  0  0  0  0  0  0  0  0  0  0
   47.6840   32.8180   42.7210 H   0  0  0  0  0  0  0  0  0  0  0  0
   44.3830   36.0360   44.1610 H   0  0  0  0  0  0  0  0  0  0  0  0
   46.0030   31.9480   44.8870 C   0  0  0  0  0  0  0  0  0  0  0  0
   45.3660   30.8790   44.2410 C   0  0  0  0  0  0  0  0  0  0  0  0
   45.0050   30.9950   43.2260 H   0  0  0  0  0  0  0  0  0  0  0  0
   45.1460   29.6450   44.7970 C   0  0  0  0  0  0  0  0  0  0  0  0
   45.5640   29.4030   46.0700 C   0  0  0  0  0  0  0  0  0  0  0  0
   46.1950   30.3990   46.7750 C   0  0  0  0  0  0  0  0  0  0  0  0
   46.5940   30.1860   48.0750 C   0  0  0  0  0  0  0  0  0  0  0  0
   47.2030   31.1810   48.8380 C   0  0  0  0  0  0  0  0  0  0  0  0
   47.3820   32.4050   48.2000 C   0  0  0  0  0  0  0  0  0  0  0  0
   46.9740   32.5860   46.9020 C   0  0  0  0  0  0  0  0  0  0  0  0
   46.3790   31.6060   46.1550 C   0  0  0  0  0  0  0  0  0  0  0  0
   47.8450   35.0260   41.3490 C   0  0  0  0  0  0  0  0  0  0  0  0
   49.0590   35.8610   41.8190 C   0  0  0  0  0  0  0  0  0  0  0  0
   49.1770   34.4560   41.3110 C   0  0  0  0  0  0  0  0  0  0  0  0
   47.4020   35.3640   40.3680 H   0  0  0  0  0  0  0  0  0  0  0  0
   49.1550   36.0810   42.8860 H   0  0  0  0  0  0  0  0  0  0  0  0
   49.4200   36.6290   41.0850 H   0  0  0  0  0  0  0  0  0  0  0  0
   49.5090   33.7420   42.1230 H   0  0  0  0  0  0  0  0  0  0  0  0
   49.6910   34.2390   40.3600 H   0  0  0  0  0  0  0  0  0  0  0  0
  1  6  2  0  0  0  0
  1  2  1  0  0  0  0
  2  3  2  0  0  0  0
  3  4  1  0  0  0  0
  3  9  1  0  0  0  0
  5  8  1  0  0  0  0
  5  4  2  0  0  0  0
  6  5  1  0  0  0  0
  7  2  1  0  0  0  0
  9 19  1  0  0  0  0
 10 12  1  0  0  0  0
 10  9  2  0  0  0  0
 11 10  1  0  0  0  0
 12 13  2  0  0  0  0
 13 14  1  0  0  0  0
 14 15  1  0  0  0  0
 15 16  2  0  0  0  0
 17 16  1  0  0  0  0
 18 17  2  0  0  0  0
 19 14  2  0  0  0  0
 19 18  1  0  0  0  0
 20 21  1  0  0  0  0
 20  1  1  0  0  0  0
 21 24  1  0  0  0  0
 22 20  1  0  0  0  0
 22 21  1  0  0  0  0
 22 26  1  0  0  0  0
 23 20  1  0  0  0  0
 25 21  1  0  0  0  0
 27 22  1  0  0  0  0
M  END
>  <minimizedAffinity>
-5.35354948

>  <minimizedRMSD>
3.97311926

$$$$
