
 OpenBabel03242516063D

 38 42  0  0  0  0  0  0  0  0999 V2000
   45.4950   33.0080   41.0950 Cl  0  0  0  0  0  0  0  0  0  0  0  0
   46.8550   34.0990   41.0330 C   0  0  0  0  0  0  0  0  0  0  0  0
   47.1700   34.9310   42.0690 C   0  0  0  0  0  0  0  0  0  0  0  0
   48.2500   35.7400   41.8980 C   0  0  0  0  0  0  0  0  0  0  0  0
   49.0000   35.7470   40.7730 C   0  0  0  0  0  0  0  0  0  0  0  0
   48.6900   34.9160   39.7320 C   0  0  0  0  0  0  0  0  0  0  0  0
   47.5910   34.0740   39.8680 C   0  0  0  0  0  0  0  0  0  0  0  0
   48.5320   36.4140   42.6980 H   0  0  0  0  0  0  0  0  0  0  0  0
   49.8610   36.3850   40.6260 H   0  0  0  0  0  0  0  0  0  0  0  0
   49.2840   34.9120   38.8220 H   0  0  0  0  0  0  0  0  0  0  0  0
   44.5050   35.7370   44.6400 C   0  0  0  0  0  0  0  0  0  0  0  0
   45.2940   35.7990   43.4930 C   0  0  0  0  0  0  0  0  0  0  0  0
   46.3370   34.8860   43.2570 C   0  0  0  0  0  0  0  0  0  0  0  0
   46.5140   33.9490   44.2220 N   0  0  0  0  0  0  0  0  0  0  0  0
   45.7430   33.9000   45.3280 C   0  0  0  0  0  0  0  0  0  0  0  0
   44.7540   34.7880   45.5250 N   0  0  0  0  0  0  0  0  0  0  0  0
   43.7070   36.4390   44.8140 H   0  0  0  0  0  0  0  0  0  0  0  0
   45.1020   36.5730   42.7560 H   0  0  0  0  0  0  0  0  0  0  0  0
   46.0680   33.0660   45.9630 H   0  0  0  0  0  0  0  0  0  0  0  0
   47.2380   33.1680   38.7480 C   0  0  0  0  0  0  0  0  0  0  0  0
   47.8000   31.9000   38.5920 C   0  0  0  0  0  0  0  0  0  0  0  0
   47.0000   31.2700   37.0800 S   0  0  0  0  0  0  0  0  0  0  0  0
   45.9990   32.8730   36.8900 C   0  0  0  0  0  0  0  0  0  0  0  0
   46.3750   33.4320   37.7890 N   0  0  0  0  0  0  0  0  0  0  0  0
   45.0570   33.1710   35.8540 N   0  0  0  0  0  0  0  0  0  0  0  0
   44.2180   32.5440   35.9730 H   0  0  0  0  0  0  0  0  0  0  0  0
   45.1950   33.8790   35.1290 H   0  0  0  0  0  0  0  0  0  0  0  0
   48.7740   31.1330   39.3400 C   0  0  0  0  0  0  0  0  0  0  0  0
   48.1970   30.4120   40.3890 C   0  0  0  0  0  0  0  0  0  0  0  0
   47.1550   30.3430   40.7210 H   0  0  0  0  0  0  0  0  0  0  0  0
   48.9800   29.6250   41.2070 C   0  0  0  0  0  3  0  0  0  0  0  0
   50.3500   29.5180   41.0200 C   0  0  0  0  0  3  0  0  0  0  0  0
   50.9130   30.2300   39.9840 C   0  0  0  0  0  0  0  0  0  0  0  0
   52.2740   30.1740   39.7320 C   0  0  0  0  0  3  0  0  0  0  0  0
   52.7670   30.9130   38.6700 C   0  0  0  0  0  3  0  0  0  0  0  0
   51.9840   31.7060   37.8460 C   0  0  0  0  0  3  0  0  0  0  0  0
   50.6260   31.7560   38.1060 C   0  0  0  0  0  3  0  0  0  0  0  0
   50.1360   31.0190   39.1630 C   0  0  0  0  0  0  0  0  0  0  0  0
  2  1  1  0  0  0  0
  2  3  1  0  0  0  0
  3 13  1  0  0  0  0
  4  3  2  0  0  0  0
  4  8  1  0  0  0  0
  5  4  1  0  0  0  0
  6  7  1  0  0  0  0
  6  5  2  0  0  0  0
  7  2  2  0  0  0  0
  9  5  1  0  0  0  0
 10  6  1  0  0  0  0
 11 17  1  0  0  0  0
 11 16  1  0  0  0  0
 12 11  2  0  0  0  0
 13 12  1  0  0  0  0
 13 14  2  0  0  0  0
 14 15  1  0  0  0  0
 15 16  2  0  0  0  0
 15 19  1  0  0  0  0
 18 12  1  0  0  0  0
 20  7  1  0  0  0  0
 21 20  2  0  0  0  0
 21 28  1  0  0  0  0
 22 21  1  0  0  0  0
 23 22  1  0  0  0  0
 23 24  2  0  0  0  0
 24 20  1  0  0  0  0
 25 26  1  0  0  0  0
 25 23  1  0  0  0  0
 27 25  1  0  0  0  0
 28 29  1  0  0  0  0
 29 30  1  0  0  0  0
 29 31  2  0  0  0  0
 32 31  1  0  0  0  0
 33 32  2  0  0  0  0
 34 33  1  0  0  0  0
 35 34  2  0  0  0  0
 36 37  2  0  0  0  0
 36 35  1  0  0  0  0
 37 38  1  0  0  0  0
 38 28  2  0  0  0  0
 38 33  1  0  0  0  0
M  END
>  <minimizedAffinity>
-6.52125645

>  <minimizedRMSD>
2.09628081

$$$$
