
 OpenBabel03252508323D

 34 37  0  0  1  0  0  0  0  0999 V2000
   44.4060   34.1580   42.3840 N   0  0  0  0  0  0  0  0  0  0  0  0
   44.7280   33.5630   41.1730 C   0  0  1  0  0  0  0  0  0  0  0  0
   44.0020   34.0730   39.9710 C   0  0  0  0  0  0  0  0  0  0  0  0
   42.6510   34.3850   40.1460 N   0  0  0  0  0  0  0  0  0  0  0  0
   42.2470   34.8320   41.4180 C   0  0  0  0  0  0  0  0  0  0  0  0
   43.4460   35.2360   42.2700 C   0  0  0  0  0  0  0  0  0  0  0  0
   44.2780   32.5060   41.2810 H   0  0  0  0  0  0  0  0  0  0  0  0
   44.5020   34.9320   39.4800 H   0  0  0  0  0  0  0  0  0  0  0  0
   44.0670   33.2580   39.1880 H   0  0  0  0  0  0  0  0  0  0  0  0
   41.9540   33.8150   39.6470 H   0  0  0  0  0  0  0  0  0  0  0  0
   41.5320   35.6490   41.4640 H   0  0  0  0  0  0  0  0  0  0  0  0
   41.7940   33.9690   41.9630 H   0  0  0  0  0  0  0  0  0  0  0  0
   43.0420   35.6140   43.2000 H   0  0  0  0  0  0  0  0  0  0  0  0
   43.8990   36.0910   41.7190 H   0  0  0  0  0  0  0  0  0  0  0  0
   46.1110   33.2990   40.7430 C   0  0  0  0  0  0  0  0  0  0  0  0
   47.0110   34.3860   40.6400 C   0  0  0  0  0  0  0  0  0  0  0  0
   46.6420   35.4010   40.8610 H   0  0  0  0  0  0  0  0  0  0  0  0
   48.3200   34.3320   40.2900 C   0  0  0  0  0  3  0  0  0  0  0  0
   48.8630   33.1070   39.9980 C   0  0  0  0  0  3  0  0  0  0  0  0
   48.0870   31.9740   40.0640 C   0  0  0  0  0  0  0  0  0  0  0  0
   48.5760   30.7170   39.7820 C   0  0  0  0  0  3  0  0  0  0  0  0
   47.7930   29.5580   39.8440 C   0  0  0  0  0  3  0  0  0  0  0  0
   46.4530   29.7200   40.2140 C   0  0  0  0  0  3  0  0  0  0  0  0
   46.0130   30.9910   40.4860 C   0  0  0  0  0  3  0  0  0  0  0  0
   46.7750   32.1320   40.4260 C   0  0  0  0  0  0  0  0  0  0  0  0
   45.0930   34.6030   44.6330 C   0  0  0  0  0  0  0  0  0  0  0  0
   44.9570   33.7010   43.5900 C   0  0  0  0  0  0  0  0  0  0  0  0
   45.3610   32.4100   43.8170 C   0  0  0  0  0  0  0  0  0  0  0  0
   45.8710   32.0330   45.0010 N   0  0  0  0  0  0  0  0  0  0  0  0
   45.9930   32.9460   46.0090 C   0  0  0  0  0  0  0  0  0  0  0  0
   45.6120   34.2000   45.8230 N   0  0  0  0  0  0  0  0  0  0  0  0
   44.8400   35.6500   44.6700 H   0  0  0  0  0  0  0  0  0  0  0  0
   45.3100   31.6050   43.1360 H   0  0  0  0  0  0  0  0  0  0  0  0
   46.4130   32.6190   46.9740 H   0  0  0  0  0  0  0  0  0  0  0  0
  1 27  1  0  0  0  0
  2  7  1  1  0  0  0
  2  1  1  0  0  0  0
  3  4  1  0  0  0  0
  3  2  1  0  0  0  0
  4  5  1  0  0  0  0
  5 11  1  0  0  0  0
  5 12  1  0  0  0  0
  5  6  1  0  0  0  0
  6  1  1  0  0  0  0
  6 13  1  0  0  0  0
  8  3  1  0  0  0  0
  9  3  1  0  0  0  0
 10  4  1  0  0  0  0
 14  6  1  0  0  0  0
 15  2  1  0  0  0  0
 16 15  1  0  0  0  0
 16 17  1  0  0  0  0
 18 16  2  0  0  0  0
 19 20  2  0  0  0  0
 19 18  1  0  0  0  0
 20 25  1  0  0  0  0
 21 22  2  0  0  0  0
 21 20  1  0  0  0  0
 22 23  1  0  0  0  0
 23 24  2  0  0  0  0
 25 24  1  0  0  0  0
 25 15  2  0  0  0  0
 26 32  1  0  0  0  0
 26 31  1  0  0  0  0
 27 28  1  0  0  0  0
 27 26  2  0  0  0  0
 28 29  2  0  0  0  0
 29 30  1  0  0  0  0
 30 34  1  0  0  0  0
 31 30  2  0  0  0  0
 33 28  1  0  0  0  0
M  END
>  <minimizedAffinity>
-4.31096601

>  <minimizedRMSD>
1.68517733

$$$$
