
 OpenBabel03242511093D

 45 50  0  0  1  0  0  0  0  0999 V2000
   45.9520   32.1360   44.1740 C   0  0  0  0  0  0  0  0  0  0  0  0
   46.2180   31.4720   45.3680 C   0  0  0  0  0  0  0  0  0  0  0  0
   46.0120   32.0370   46.6190 C   0  0  0  0  0  0  0  0  0  0  0  0
   45.5160   33.3280   46.7250 C   0  0  0  0  0  0  0  0  0  0  0  0
   45.2460   34.0010   45.5750 C   0  0  0  0  0  0  0  0  0  0  0  0
   44.7510   35.2840   45.6660 C   0  0  0  0  0  0  0  0  0  0  0  0
   44.4470   36.0340   44.5380 C   0  0  0  0  0  0  0  0  0  0  0  0
   44.6660   35.4290   43.3040 C   0  0  0  0  0  0  0  0  0  0  0  0
   45.1660   34.1360   43.2500 C   0  0  0  0  0  0  0  0  0  0  0  0
   45.4630   33.4070   44.3590 C   0  0  0  0  0  0  0  0  0  0  0  0
   46.6040   30.4660   45.3870 H   0  0  0  0  0  0  0  0  0  0  0  0
   46.2340   31.4830   47.5300 H   0  0  0  0  0  0  0  0  0  0  0  0
   45.3760   33.7160   47.7200 H   0  0  0  0  0  0  0  0  0  0  0  0
   44.5980   35.7100   46.6600 H   0  0  0  0  0  0  0  0  0  0  0  0
   44.0640   37.0310   44.7320 H   0  0  0  0  0  0  0  0  0  0  0  0
   44.3930   36.1110   42.5110 H   0  0  0  0  0  0  0  0  0  0  0  0
   45.2520   33.7850   41.8450 C   0  0  0  0  0  0  0  0  0  0  0  0
   44.4130   33.0830   41.0030 C   0  0  0  0  0  0  0  0  0  0  0  0
   43.5060   32.7790   41.5340 H   0  0  0  0  0  0  0  0  0  0  0  0
   44.7160   32.8190   39.6890 C   0  0  0  0  0  3  0  0  0  0  0  0
   45.8980   33.2440   39.1210 C   0  0  0  0  0  3  0  0  0  0  0  0
   46.7620   33.9490   39.9310 C   0  0  0  0  0  0  0  0  0  0  0  0
   47.9300   34.3560   39.3240 C   0  0  0  0  0  3  0  0  0  0  0  0
   48.8500   35.0660   40.0630 C   0  0  0  0  0  3  0  0  0  0  0  0
   48.6000   35.3610   41.3870 C   0  0  0  0  0  3  0  0  0  0  0  0
   47.4120   34.9240   41.9320 C   0  0  0  0  0  3  0  0  0  0  0  0
   46.4500   34.2110   41.2480 C   0  0  0  0  0  0  0  0  0  0  0  0
   46.2000   31.4870   42.9550 N   0  0  0  0  0  0  0  0  0  0  0  0
   45.4990   31.5240   42.1830 H   0  0  0  0  0  0  0  0  0  0  0  0
   48.7270   31.3070   42.6650 C   0  0  1  0  0  0  0  0  0  0  0  0
   48.0740   30.8560   41.3780 C   0  0  0  0  0  0  0  0  0  0  0  0
   47.3970   30.7240   42.7400 C   0  0  2  0  0  0  0  0  0  0  0  0
   48.9720   32.3960   42.6150 H   0  0  0  0  0  0  0  0  0  0  0  0
   47.6890   31.5960   40.6720 H   0  0  0  0  0  0  0  0  0  0  0  0
   48.4600   29.9270   40.8880 H   0  0  0  0  0  0  0  0  0  0  0  0
   47.3630   29.6750   43.1420 H   0  0  0  0  0  0  0  0  0  0  0  0
   50.8100   28.9940   44.6970 C   0  0  0  0  0  0  0  0  0  0  0  0
   52.0910   29.1770   44.0990 C   0  0  0  0  0  0  0  0  0  0  0  0
   52.2000   30.0830   43.0100 C   0  0  0  0  0  0  0  0  0  0  0  0
   51.1120   30.7300   42.5800 N   0  0  0  0  0  0  0  0  0  0  0  0
   49.9050   30.5320   43.1740 C   0  0  0  0  0  0  0  0  0  0  0  0
   49.7490   29.6660   44.2310 N   0  0  0  0  0  0  0  0  0  0  0  0
   50.7400   28.2920   45.5380 H   0  0  0  0  0  0  0  0  0  0  0  0
   52.9580   28.6550   44.4480 H   0  0  0  0  0  0  0  0  0  0  0  0
   53.1730   30.2290   42.5460 H   0  0  0  0  0  0  0  0  0  0  0  0
  1 10  2  0  0  0  0
  1  2  1  0  0  0  0
  2 11  1  0  0  0  0
  2  3  2  0  0  0  0
  3  4  1  0  0  0  0
  3 12  1  0  0  0  0
  4 13  1  0  0  0  0
  5  6  1  0  0  0  0
  5  4  2  0  0  0  0
  6 14  1  0  0  0  0
  7 15  1  0  0  0  0
  7  6  2  0  0  0  0
  8  7  1  0  0  0  0
  9  8  2  0  0  0  0
  9 10  1  0  0  0  0
 10  5  1  0  0  0  0
 16  8  1  0  0  0  0
 17  9  1  0  0  0  0
 18 19  1  0  0  0  0
 18 17  2  0  0  0  0
 20 18  1  0  0  0  0
 21 20  2  0  0  0  0
 21 22  1  0  0  0  0
 22 27  1  0  0  0  0
 23 22  2  0  0  0  0
 23 24  1  0  0  0  0
 24 25  2  0  0  0  0
 25 26  1  0  0  0  0
 27 17  1  0  0  0  0
 27 26  2  0  0  0  0
 28  1  1  0  0  0  0
 29 28  1  0  0  0  0
 30 33  1  1  0  0  0
 30 32  1  0  0  0  0
 30 41  1  0  0  0  0
 31 30  1  0  0  0  0
 31 32  1  0  0  0  0
 32 28  1  0  0  0  0
 32 36  1  1  0  0  0
 34 31  1  0  0  0  0
 35 31  1  0  0  0  0
 37 43  1  0  0  0  0
 38 44  1  0  0  0  0
 38 37  2  0  0  0  0
 39 38  1  0  0  0  0
 40 39  2  0  0  0  0
 40 41  1  0  0  0  0
 41 42  2  0  0  0  0
 42 37  1  0  0  0  0
 45 39  1  0  0  0  0
M  END
>  <minimizedAffinity>
-6.20999241

>  <minimizedRMSD>
1.68403912

$$$$
