
 OpenBabel03252508273D

 43 48  0  0  1  0  0  0  0  0999 V2000
   34.6110   28.6900   37.6380 C   0  0  1  0  0  0  0  0  0  0  0  0
   33.9400   27.4780   37.1500 C   0  0  0  0  0  0  0  0  0  0  0  0
   33.1660   28.7900   37.5710 C   0  0  2  0  0  0  0  0  0  0  0  0
   35.3420   28.9820   36.8010 H   0  0  0  0  0  0  0  0  0  0  0  0
   33.8360   26.6240   37.8220 H   0  0  0  0  0  0  0  0  0  0  0  0
   33.7660   27.2370   36.0910 H   0  0  0  0  0  0  0  0  0  0  0  0
   32.4670   28.4060   38.3780 H   0  0  0  0  0  0  0  0  0  0  0  0
   32.4160   29.5440   36.5650 C   0  0  0  0  0  0  0  0  0  0  0  0
   32.7690   29.7730   35.2690 C   0  0  0  0  0  0  0  0  0  0  0  0
   32.0980   30.5990   34.3770 C   0  0  0  0  0  0  0  0  0  0  0  0
   30.9510   31.2510   34.8750 C   0  0  0  0  0  0  0  0  0  0  0  0
   30.5770   31.0270   36.1900 C   0  0  0  0  0  0  0  0  0  0  0  0
   29.4160   31.6420   36.6130 C   0  0  0  0  0  0  0  0  0  0  0  0
   28.9490   31.4060   37.9100 C   0  0  0  0  0  0  0  0  0  0  0  0
   29.6370   30.5630   38.7560 C   0  0  0  0  0  0  0  0  0  0  0  0
   30.7880   29.9790   38.2820 C   0  0  0  0  0  0  0  0  0  0  0  0
   31.2910   30.1920   37.0110 C   0  0  0  0  0  0  0  0  0  0  0  0
   33.6670   29.2400   34.9410 H   0  0  0  0  0  0  0  0  0  0  0  0
   32.4530   30.7190   33.3620 H   0  0  0  0  0  0  0  0  0  0  0  0
   30.4270   31.8980   34.1830 H   0  0  0  0  0  0  0  0  0  0  0  0
   28.8840   32.3030   35.9330 H   0  0  0  0  0  0  0  0  0  0  0  0
   28.0190   31.9510   38.1350 H   0  0  0  0  0  0  0  0  0  0  0  0
   29.1310   30.5040   39.6920 H   0  0  0  0  0  0  0  0  0  0  0  0
   31.0760   29.3310   39.0600 H   0  0  0  0  0  0  0  0  0  0  0  0
   35.9040   29.9050   40.8740 C   0  0  0  0  0  0  0  0  0  0  0  0
   36.5840   28.7560   41.3890 C   0  0  0  0  0  0  0  0  0  0  0  0
   36.5670   27.5860   40.6070 C   0  0  0  0  0  0  0  0  0  0  0  0
   35.9200   27.6190   39.4390 N   0  0  0  0  0  0  0  0  0  0  0  0
   35.2820   28.7200   38.9700 C   0  0  0  0  0  0  0  0  0  0  0  0
   35.2790   29.8390   39.6810 N   0  0  0  0  0  0  0  0  0  0  0  0
   35.9350   30.7880   41.4950 H   0  0  0  0  0  0  0  0  0  0  0  0
   37.0280   28.8300   42.3530 H   0  0  0  0  0  0  0  0  0  0  0  0
   37.1170   26.3010   40.9580 C   0  0  0  0  0  0  0  0  0  0  0  0
   36.6250   25.1900   40.2590 C   0  0  0  0  0  0  0  0  0  0  0  0
   35.8460   25.3400   39.4950 H   0  0  0  0  0  0  0  0  0  0  0  0
   37.0340   23.8900   40.4430 C   0  0  0  0  0  3  0  0  0  0  0  0
   38.0060   23.6340   41.3830 C   0  0  0  0  0  3  0  0  0  0  0  0
   38.5410   24.6750   42.1070 C   0  0  0  0  0  0  0  0  0  0  0  0
   39.5400   24.4460   43.0270 C   0  0  0  0  0  3  0  0  0  0  0  0
   40.1390   25.4730   43.7560 C   0  0  0  0  0  3  0  0  0  0  0  0
   39.6500   26.7570   43.4820 C   0  0  0  0  0  3  0  0  0  0  0  0
   38.6510   26.9560   42.5600 C   0  0  0  0  0  3  0  0  0  0  0  0
   38.0790   25.9430   41.8640 C   0  0  0  0  0  0  0  0  0  0  0  0
  1  4  1  6  0  0  0
  1 29  1  0  0  0  0
  2  3  1  0  0  0  0
  2  1  1  0  0  0  0
  2  5  1  0  0  0  0
  3  1  1  0  0  0  0
  3  7  1  1  0  0  0
  6  2  1  0  0  0  0
  8 17  1  0  0  0  0
  8  3  1  0  0  0  0
  9  8  2  0  0  0  0
 10 11  2  0  0  0  0
 10  9  1  0  0  0  0
 11 12  1  0  0  0  0
 12 13  2  0  0  0  0
 12 17  1  0  0  0  0
 13 14  1  0  0  0  0
 14 22  1  0  0  0  0
 14 15  2  0  0  0  0
 15 23  1  0  0  0  0
 16 15  1  0  0  0  0
 16 24  1  0  0  0  0
 17 16  2  0  0  0  0
 18  9  1  0  0  0  0
 19 10  1  0  0  0  0
 20 11  1  0  0  0  0
 21 13  1  0  0  0  0
 25 26  1  0  0  0  0
 25 31  1  0  0  0  0
 26 32  1  0  0  0  0
 27 33  1  0  0  0  0
 27 26  2  0  0  0  0
 28 27  1  0  0  0  0
 29 28  2  0  0  0  0
 29 30  1  0  0  0  0
 30 25  2  0  0  0  0
 33 43  1  0  0  0  0
 34 36  1  0  0  0  0
 34 33  2  0  0  0  0
 35 34  1  0  0  0  0
 36 37  2  0  0  0  0
 37 38  1  0  0  0  0
 38 39  1  0  0  0  0
 39 40  2  0  0  0  0
 41 40  1  0  0  0  0
 42 41  2  0  0  0  0
 43 38  2  0  0  0  0
 43 42  1  0  0  0  0
M  END
>  <minimizedAffinity>
-8.01241875

$$$$

 OpenBabel03252508273D

 43 48  0  0  1  0  0  0  0  0999 V2000
   35.9620   28.8040   39.3180 C   0  0  1  0  0  0  0  0  0  0  0  0
   35.5820   29.9370   40.1720 C   0  0  0  0  0  0  0  0  0  0  0  0
   35.8000   28.4710   40.7190 C   0  0  2  0  0  0  0  0  0  0  0  0
   36.9450   29.1260   38.8160 H   0  0  0  0  0  0  0  0  0  0  0  0
   34.5510   30.2930   40.1510 H   0  0  0  0  0  0  0  0  0  0  0  0
   36.2890   30.6420   40.6350 H   0  0  0  0  0  0  0  0  0  0  0  0
   34.7980   28.2470   41.2050 H   0  0  0  0  0  0  0  0  0  0  0  0
   36.8900   28.2010   41.6580 C   0  0  0  0  0  0  0  0  0  0  0  0
   37.5970   29.1080   42.3880 C   0  0  0  0  0  0  0  0  0  0  0  0
   38.7090   28.8320   43.1730 C   0  0  0  0  0  0  0  0  0  0  0  0
   39.1310   27.4870   43.2020 C   0  0  0  0  0  0  0  0  0  0  0  0
   38.4220   26.5510   42.4670 C   0  0  0  0  0  0  0  0  0  0  0  0
   38.8390   25.2400   42.5740 C   0  0  0  0  0  0  0  0  0  0  0  0
   38.1270   24.2380   41.9080 C   0  0  0  0  0  0  0  0  0  0  0  0
   37.0160   24.5550   41.1550 C   0  0  0  0  0  0  0  0  0  0  0  0
   36.6480   25.8770   41.0830 C   0  0  0  0  0  0  0  0  0  0  0  0
   37.3280   26.9010   41.7170 C   0  0  0  0  0  0  0  0  0  0  0  0
   37.2210   30.1350   42.3240 H   0  0  0  0  0  0  0  0  0  0  0  0
   39.2070   29.6210   43.7210 H   0  0  0  0  0  0  0  0  0  0  0  0
   40.0000   27.2690   43.8100 H   0  0  0  0  0  0  0  0  0  0  0  0
   39.7160   25.0060   43.1730 H   0  0  0  0  0  0  0  0  0  0  0  0
   38.5520   23.2350   42.0640 H   0  0  0  0  0  0  0  0  0  0  0  0
   36.6060   23.6680   40.7300 H   0  0  0  0  0  0  0  0  0  0  0  0
   35.7470   25.8550   40.5370 H   0  0  0  0  0  0  0  0  0  0  0  0
   34.2360   26.4060   37.1070 C   0  0  0  0  0  0  0  0  0  0  0  0
   33.2890   27.2350   36.4260 C   0  0  0  0  0  0  0  0  0  0  0  0
   33.2660   28.6030   36.7590 C   0  0  0  0  0  0  0  0  0  0  0  0
   34.1220   29.0400   37.6850 N   0  0  0  0  0  0  0  0  0  0  0  0
   35.0120   28.2350   38.3190 C   0  0  0  0  0  0  0  0  0  0  0  0
   35.0610   26.9430   38.0280 N   0  0  0  0  0  0  0  0  0  0  0  0
   34.2320   25.3620   36.8300 H   0  0  0  0  0  0  0  0  0  0  0  0
   32.6240   26.7710   35.7380 H   0  0  0  0  0  0  0  0  0  0  0  0
   32.3540   29.6010   36.2590 C   0  0  0  0  0  0  0  0  0  0  0  0
   32.5590   30.0420   34.9440 C   0  0  0  0  0  0  0  0  0  0  0  0
   33.3960   29.6240   34.3630 H   0  0  0  0  0  0  0  0  0  0  0  0
   31.7890   30.9740   34.2900 C   0  0  0  0  0  3  0  0  0  0  0  0
   30.7250   31.5350   34.9590 C   0  0  0  0  0  3  0  0  0  0  0  0
   30.4580   31.1490   36.2540 C   0  0  0  0  0  0  0  0  0  0  0  0
   29.3770   31.6700   36.9300 C   0  0  0  0  0  3  0  0  0  0  0  0
   29.0460   31.2810   38.2280 C   0  0  0  0  0  3  0  0  0  0  0  0
   29.8940   30.3190   38.7930 C   0  0  0  0  0  3  0  0  0  0  0  0
   30.9660   29.8180   38.0950 C   0  0  0  0  0  3  0  0  0  0  0  0
   31.2730   30.2120   36.8350 C   0  0  0  0  0  0  0  0  0  0  0  0
  1  4  1  6  0  0  0
  1  2  1  0  0  0  0
  1  3  1  0  0  0  0
  2  6  1  0  0  0  0
  2  3  1  0  0  0  0
  3  7  1  1  0  0  0
  3  8  1  0  0  0  0
  5  2  1  0  0  0  0
  8 17  2  0  0  0  0
  8  9  1  0  0  0  0
  9 10  2  0  0  0  0
 10 11  1  0  0  0  0
 10 19  1  0  0  0  0
 11 20  1  0  0  0  0
 12 13  1  0  0  0  0
 12 11  2  0  0  0  0
 13 21  1  0  0  0  0
 14 22  1  0  0  0  0
 14 13  2  0  0  0  0
 15 14  1  0  0  0  0
 16 15  2  0  0  0  0
 16 17  1  0  0  0  0
 17 12  1  0  0  0  0
 18  9  1  0  0  0  0
 23 15  1  0  0  0  0
 24 16  1  0  0  0  0
 25 30  1  0  0  0  0
 26 27  1  0  0  0  0
 26 25  2  0  0  0  0
 27 28  2  0  0  0  0
 28 29  1  0  0  0  0
 29  1  1  0  0  0  0
 30 29  2  0  0  0  0
 31 25  1  0  0  0  0
 32 26  1  0  0  0  0
 33 27  1  0  0  0  0
 33 43  1  0  0  0  0
 34 33  2  0  0  0  0
 35 34  1  0  0  0  0
 36 34  1  0  0  0  0
 36 37  2  0  0  0  0
 37 38  1  0  0  0  0
 38 43  2  0  0  0  0
 38 39  1  0  0  0  0
 39 40  2  0  0  0  0
 40 41  1  0  0  0  0
 42 41  2  0  0  0  0
 43 42  1  0  0  0  0
M  END
>  <minimizedAffinity>
-7.88101101

$$$$

 OpenBabel03252508273D

 43 48  0  0  1  0  0  0  0  0999 V2000
   35.9680   28.7690   39.3300 C   0  0  1  0  0  0  0  0  0  0  0  0
   35.8120   30.0000   40.1170 C   0  0  0  0  0  0  0  0  0  0  0  0
   35.7370   28.5520   40.7440 C   0  0  2  0  0  0  0  0  0  0  0  0
   36.9970   28.8660   38.8280 H   0  0  0  0  0  0  0  0  0  0  0  0
   34.8710   30.5480   40.0610 H   0  0  0  0  0  0  0  0  0  0  0  0
   36.6410   30.5780   40.5530 H   0  0  0  0  0  0  0  0  0  0  0  0
   34.7080   28.5540   41.2250 H   0  0  0  0  0  0  0  0  0  0  0  0
   36.7480   28.1260   41.7120 C   0  0  0  0  0  0  0  0  0  0  0  0
   37.3940   28.9000   42.6290 C   0  0  0  0  0  0  0  0  0  0  0  0
   38.4400   28.4920   43.4460 C   0  0  0  0  0  0  0  0  0  0  0  0
   38.8590   27.1540   43.2990 C   0  0  0  0  0  0  0  0  0  0  0  0
   38.2110   26.3520   42.3730 C   0  0  0  0  0  0  0  0  0  0  0  0
   38.6190   25.0350   42.3070 C   0  0  0  0  0  0  0  0  0  0  0  0
   37.9630   24.1570   41.4390 C   0  0  0  0  0  0  0  0  0  0  0  0
   36.9160   24.6010   40.6590 C   0  0  0  0  0  0  0  0  0  0  0  0
   36.5540   25.9230   40.7650 C   0  0  0  0  0  0  0  0  0  0  0  0
   37.1810   26.8280   41.6020 C   0  0  0  0  0  0  0  0  0  0  0  0
   37.0250   29.9290   42.6960 H   0  0  0  0  0  0  0  0  0  0  0  0
   38.8920   29.1800   44.1490 H   0  0  0  0  0  0  0  0  0  0  0  0
   39.6760   26.8330   43.9330 H   0  0  0  0  0  0  0  0  0  0  0  0
   39.4450   24.7000   42.9300 H   0  0  0  0  0  0  0  0  0  0  0  0
   38.3750   23.1370   41.4690 H   0  0  0  0  0  0  0  0  0  0  0  0
   36.5420   23.7960   40.0700 H   0  0  0  0  0  0  0  0  0  0  0  0
   35.7000   25.9970   40.1530 H   0  0  0  0  0  0  0  0  0  0  0  0
   34.1920   26.8270   36.7430 C   0  0  0  0  0  0  0  0  0  0  0  0
   33.0290   27.6230   36.5000 C   0  0  0  0  0  0  0  0  0  0  0  0
   32.8840   28.8080   37.2460 C   0  0  0  0  0  0  0  0  0  0  0  0
   33.8350   29.1140   38.1320 N   0  0  0  0  0  0  0  0  0  0  0  0
   34.9300   28.3430   38.3480 C   0  0  0  0  0  0  0  0  0  0  0  0
   35.0980   27.2220   37.6610 N   0  0  0  0  0  0  0  0  0  0  0  0
   34.2770   25.9250   36.1550 H   0  0  0  0  0  0  0  0  0  0  0  0
   32.3130   27.2600   35.8020 H   0  0  0  0  0  0  0  0  0  0  0  0
   31.7660   29.7180   37.2190 C   0  0  0  0  0  0  0  0  0  0  0  0
   30.9950   29.8070   38.3870 C   0  0  0  0  0  0  0  0  0  0  0  0
   31.2630   29.1830   39.2540 H   0  0  0  0  0  0  0  0  0  0  0  0
   29.9040   30.6240   38.5580 C   0  0  0  0  0  3  0  0  0  0  0  0
   29.5160   31.4320   37.5120 C   0  0  0  0  0  3  0  0  0  0  0  0
   30.2280   31.4030   36.3340 C   0  0  0  0  0  0  0  0  0  0  0  0
   29.8800   32.2280   35.2870 C   0  0  0  0  0  3  0  0  0  0  0  0
   30.5930   32.2620   34.0890 C   0  0  0  0  0  3  0  0  0  0  0  0
   31.6910   31.3940   34.0280 C   0  0  0  0  0  3  0  0  0  0  0  0
   32.0140   30.5800   35.0880 C   0  0  0  0  0  3  0  0  0  0  0  0
   31.3050   30.5600   36.2430 C   0  0  0  0  0  0  0  0  0  0  0  0
  1  4  1  6  0  0  0
  1  2  1  0  0  0  0
  1  3  1  0  0  0  0
  2  6  1  0  0  0  0
  2  3  1  0  0  0  0
  3  7  1  1  0  0  0
  3  8  1  0  0  0  0
  5  2  1  0  0  0  0
  8  9  1  0  0  0  0
  9 18  1  0  0  0  0
  9 10  2  0  0  0  0
 10 19  1  0  0  0  0
 11 10  1  0  0  0  0
 11 20  1  0  0  0  0
 12 11  2  0  0  0  0
 13 12  1  0  0  0  0
 13 21  1  0  0  0  0
 14 22  1  0  0  0  0
 14 13  2  0  0  0  0
 15 16  2  0  0  0  0
 15 14  1  0  0  0  0
 16 17  1  0  0  0  0
 17  8  2  0  0  0  0
 17 12  1  0  0  0  0
 23 15  1  0  0  0  0
 24 16  1  0  0  0  0
 25 30  1  0  0  0  0
 26 25  2  0  0  0  0
 26 27  1  0  0  0  0
 27 28  2  0  0  0  0
 28 29  1  0  0  0  0
 29  1  1  0  0  0  0
 30 29  2  0  0  0  0
 31 25  1  0  0  0  0
 32 26  1  0  0  0  0
 33 27  1  0  0  0  0
 33 34  1  0  0  0  0
 34 36  2  0  0  0  0
 34 35  1  0  0  0  0
 37 36  1  0  0  0  0
 38 37  2  0  0  0  0
 39 38  1  0  0  0  0
 40 39  2  0  0  0  0
 41 40  1  0  0  0  0
 41 42  2  0  0  0  0
 42 43  1  0  0  0  0
 43 38  1  0  0  0  0
 43 33  2  0  0  0  0
M  END
>  <minimizedAffinity>
-7.81200171

$$$$

 OpenBabel03252508273D

 43 48  0  0  1  0  0  0  0  0999 V2000
   33.8610   29.0620   35.1000 C   0  0  1  0  0  0  0  0  0  0  0  0
   32.8090   28.0430   35.2130 C   0  0  0  0  0  0  0  0  0  0  0  0
   32.7610   29.4300   35.9690 C   0  0  2  0  0  0  0  0  0  0  0  0
   33.9330   29.2920   33.9760 H   0  0  0  0  0  0  0  0  0  0  0  0
   32.9870   27.1640   35.8340 H   0  0  0  0  0  0  0  0  0  0  0  0
   31.9570   27.9390   34.5240 H   0  0  0  0  0  0  0  0  0  0  0  0
   32.6760   29.1070   37.0540 H   0  0  0  0  0  0  0  0  0  0  0  0
   31.7140   30.3990   35.6440 C   0  0  0  0  0  0  0  0  0  0  0  0
   31.6080   31.1570   34.5170 C   0  0  0  0  0  0  0  0  0  0  0  0
   30.6730   32.1580   34.2940 C   0  0  0  0  0  0  0  0  0  0  0  0
   29.7590   32.4000   35.3410 C   0  0  0  0  0  0  0  0  0  0  0  0
   29.8510   31.6370   36.4930 C   0  0  0  0  0  0  0  0  0  0  0  0
   28.8990   31.8720   37.4650 C   0  0  0  0  0  0  0  0  0  0  0  0
   28.8970   31.0910   38.6250 C   0  0  0  0  0  0  0  0  0  0  0  0
   29.8330   30.0940   38.7950 C   0  0  0  0  0  0  0  0  0  0  0  0
   30.7580   29.9050   37.7960 C   0  0  0  0  0  0  0  0  0  0  0  0
   30.8030   30.6600   36.6380 C   0  0  0  0  0  0  0  0  0  0  0  0
   32.3450   30.9230   33.7410 H   0  0  0  0  0  0  0  0  0  0  0  0
   30.6650   32.7090   33.3630 H   0  0  0  0  0  0  0  0  0  0  0  0
   29.0310   33.1830   35.1720 H   0  0  0  0  0  0  0  0  0  0  0  0
   28.1670   32.6610   37.3140 H   0  0  0  0  0  0  0  0  0  0  0  0
   28.0960   31.3700   39.3270 H   0  0  0  0  0  0  0  0  0  0  0  0
   29.6720   29.6080   39.7310 H   0  0  0  0  0  0  0  0  0  0  0  0
   31.2950   29.0560   38.1110 H   0  0  0  0  0  0  0  0  0  0  0  0
   37.4400   28.2170   35.4210 C   0  0  0  0  0  0  0  0  0  0  0  0
   37.6760   28.3910   36.8210 C   0  0  0  0  0  0  0  0  0  0  0  0
   36.5920   28.8070   37.6170 C   0  0  0  0  0  0  0  0  0  0  0  0
   35.4160   29.0140   37.0200 N   0  0  0  0  0  0  0  0  0  0  0  0
   35.2140   28.8440   35.6890 C   0  0  0  0  0  0  0  0  0  0  0  0
   36.2130   28.4520   34.9120 N   0  0  0  0  0  0  0  0  0  0  0  0
   38.2890   27.8960   34.8360 H   0  0  0  0  0  0  0  0  0  0  0  0
   38.6660   28.2400   37.1820 H   0  0  0  0  0  0  0  0  0  0  0  0
   36.6190   29.1140   39.0250 C   0  0  0  0  0  0  0  0  0  0  0  0
   36.4510   30.4590   39.3820 C   0  0  0  0  0  0  0  0  0  0  0  0
   36.3200   31.2110   38.5890 H   0  0  0  0  0  0  0  0  0  0  0  0
   36.4340   30.9430   40.6690 C   0  0  0  0  0  3  0  0  0  0  0  0
   36.5900   30.0540   41.7080 C   0  0  0  0  0  3  0  0  0  0  0  0
   36.7560   28.7150   41.4360 C   0  0  0  0  0  0  0  0  0  0  0  0
   36.8780   27.8030   42.4610 C   0  0  0  0  0  3  0  0  0  0  0  0
   37.0090   26.4330   42.2360 C   0  0  0  0  0  3  0  0  0  0  0  0
   37.0070   26.0520   40.8880 C   0  0  0  0  0  3  0  0  0  0  0  0
   36.8840   26.9830   39.8850 C   0  0  0  0  0  3  0  0  0  0  0  0
   36.7610   28.3120   40.1260 C   0  0  0  0  0  0  0  0  0  0  0  0
  1  4  1  6  0  0  0
  1  2  1  0  0  0  0
  1 29  1  0  0  0  0
  1  3  1  0  0  0  0
  2  5  1  0  0  0  0
  2  3  1  0  0  0  0
  3  7  1  1  0  0  0
  6  2  1  0  0  0  0
  8  3  1  0  0  0  0
  8 17  1  0  0  0  0
  9  8  2  0  0  0  0
 10  9  1  0  0  0  0
 10 11  2  0  0  0  0
 11 12  1  0  0  0  0
 12 17  2  0  0  0  0
 12 13  1  0  0  0  0
 13 14  2  0  0  0  0
 14 15  1  0  0  0  0
 14 22  1  0  0  0  0
 15 23  1  0  0  0  0
 16 24  1  0  0  0  0
 16 15  2  0  0  0  0
 17 16  1  0  0  0  0
 18  9  1  0  0  0  0
 19 10  1  0  0  0  0
 20 11  1  0  0  0  0
 21 13  1  0  0  0  0
 25 26  1  0  0  0  0
 26 32  1  0  0  0  0
 26 27  2  0  0  0  0
 27 33  1  0  0  0  0
 28 27  1  0  0  0  0
 29 28  2  0  0  0  0
 30 25  2  0  0  0  0
 30 29  1  0  0  0  0
 31 25  1  0  0  0  0
 33 34  2  0  0  0  0
 33 43  1  0  0  0  0
 34 36  1  0  0  0  0
 35 34  1  0  0  0  0
 36 37  2  0  0  0  0
 38 37  1  0  0  0  0
 38 39  1  0  0  0  0
 40 39  2  0  0  0  0
 41 40  1  0  0  0  0
 42 43  1  0  0  0  0
 42 41  2  0  0  0  0
 43 38  2  0  0  0  0
M  END
>  <minimizedAffinity>
-7.70521021

$$$$

 OpenBabel03252508273D

 43 48  0  0  1  0  0  0  0  0999 V2000
   34.4770   28.8570   36.5160 C   0  0  1  0  0  0  0  0  0  0  0  0
   33.5720   27.7540   36.8680 C   0  0  0  0  0  0  0  0  0  0  0  0
   33.1870   29.2790   37.0260 C   0  0  2  0  0  0  0  0  0  0  0  0
   34.7360   28.6870   35.4090 H   0  0  0  0  0  0  0  0  0  0  0  0
   33.7430   27.2040   37.7940 H   0  0  0  0  0  0  0  0  0  0  0  0
   32.8950   27.2460   36.1640 H   0  0  0  0  0  0  0  0  0  0  0  0
   32.9360   29.3470   38.1310 H   0  0  0  0  0  0  0  0  0  0  0  0
   32.1020   29.8410   36.2220 C   0  0  0  0  0  0  0  0  0  0  0  0
   32.1140   30.1080   34.8860 C   0  0  0  0  0  0  0  0  0  0  0  0
   31.1140   30.7590   34.1770 C   0  0  0  0  0  0  0  0  0  0  0  0
   29.9930   31.1760   34.9230 C   0  0  0  0  0  0  0  0  0  0  0  0
   29.9630   30.9110   36.2830 C   0  0  0  0  0  0  0  0  0  0  0  0
   28.8200   31.2880   36.9590 C   0  0  0  0  0  0  0  0  0  0  0  0
   28.6990   30.9910   38.3200 C   0  0  0  0  0  0  0  0  0  0  0  0
   29.7100   30.3250   38.9800 C   0  0  0  0  0  0  0  0  0  0  0  0
   30.8260   29.9760   38.2570 C   0  0  0  0  0  0  0  0  0  0  0  0
   30.9910   30.2580   36.9130 C   0  0  0  0  0  0  0  0  0  0  0  0
   33.0100   29.7600   34.3610 H   0  0  0  0  0  0  0  0  0  0  0  0
   31.2110   30.9260   33.1120 H   0  0  0  0  0  0  0  0  0  0  0  0
   29.2120   31.6870   34.3740 H   0  0  0  0  0  0  0  0  0  0  0  0
   28.0310   31.8100   36.4230 H   0  0  0  0  0  0  0  0  0  0  0  0
   27.7490   31.3410   38.7520 H   0  0  0  0  0  0  0  0  0  0  0  0
   29.4390   30.1860   40.0010 H   0  0  0  0  0  0  0  0  0  0  0  0
   31.4010   29.4180   38.9410 H   0  0  0  0  0  0  0  0  0  0  0  0
   37.7410   30.2380   37.5440 C   0  0  0  0  0  0  0  0  0  0  0  0
   37.9820   29.5740   38.7880 C   0  0  0  0  0  0  0  0  0  0  0  0
   37.0030   28.6730   39.2440 C   0  0  0  0  0  0  0  0  0  0  0  0
   35.9130   28.4940   38.4940 N   0  0  0  0  0  0  0  0  0  0  0  0
   35.7040   29.1350   37.3160 C   0  0  0  0  0  0  0  0  0  0  0  0
   36.6070   29.9900   36.8580 N   0  0  0  0  0  0  0  0  0  0  0  0
   38.5100   30.9230   37.2180 H   0  0  0  0  0  0  0  0  0  0  0  0
   38.8650   29.8270   39.3240 H   0  0  0  0  0  0  0  0  0  0  0  0
   37.0010   27.9540   40.4940 C   0  0  0  0  0  0  0  0  0  0  0  0
   36.9720   28.7230   41.6660 C   0  0  0  0  0  0  0  0  0  0  0  0
   36.9640   29.8210   41.5850 H   0  0  0  0  0  0  0  0  0  0  0  0
   36.9530   28.2210   42.9450 C   0  0  0  0  0  3  0  0  0  0  0  0
   36.9610   26.8550   43.1160 C   0  0  0  0  0  3  0  0  0  0  0  0
   36.9840   26.0340   42.0120 C   0  0  0  0  0  0  0  0  0  0  0  0
   36.9560   24.6650   42.1590 C   0  0  0  0  0  3  0  0  0  0  0  0
   36.9400   23.7940   41.0700 C   0  0  0  0  0  3  0  0  0  0  0  0
   36.9530   24.4140   39.8140 C   0  0  0  0  0  3  0  0  0  0  0  0
   36.9830   25.7830   39.6970 C   0  0  0  0  0  3  0  0  0  0  0  0
   37.0020   26.6130   40.7690 C   0  0  0  0  0  0  0  0  0  0  0  0
  1  4  1  6  0  0  0
  1  2  1  0  0  0  0
  1  3  1  0  0  0  0
  1 29  1  0  0  0  0
  2  3  1  0  0  0  0
  2  5  1  0  0  0  0
  3  7  1  1  0  0  0
  6  2  1  0  0  0  0
  8 17  1  0  0  0  0
  8  3  1  0  0  0  0
  9  8  2  0  0  0  0
 10  9  1  0  0  0  0
 10 11  2  0  0  0  0
 11 12  1  0  0  0  0
 12 17  2  0  0  0  0
 12 13  1  0  0  0  0
 13 14  2  0  0  0  0
 14 22  1  0  0  0  0
 14 15  1  0  0  0  0
 15 23  1  0  0  0  0
 16 24  1  0  0  0  0
 16 15  2  0  0  0  0
 17 16  1  0  0  0  0
 18  9  1  0  0  0  0
 19 10  1  0  0  0  0
 20 11  1  0  0  0  0
 21 13  1  0  0  0  0
 25 26  1  0  0  0  0
 26 27  2  0  0  0  0
 26 32  1  0  0  0  0
 27 33  1  0  0  0  0
 28 27  1  0  0  0  0
 29 28  2  0  0  0  0
 30 29  1  0  0  0  0
 30 25  2  0  0  0  0
 31 25  1  0  0  0  0
 33 43  2  0  0  0  0
 33 34  1  0  0  0  0
 34 36  2  0  0  0  0
 35 34  1  0  0  0  0
 36 37  1  0  0  0  0
 38 39  1  0  0  0  0
 38 37  2  0  0  0  0
 40 39  2  0  0  0  0
 41 40  1  0  0  0  0
 42 41  2  0  0  0  0
 42 43  1  0  0  0  0
 43 38  1  0  0  0  0
M  END
>  <minimizedAffinity>
-7.61472511

$$$$

 OpenBabel03252508273D

 43 48  0  0  1  0  0  0  0  0999 V2000
   33.6690   28.6290   35.0670 C   0  0  1  0  0  0  0  0  0  0  0  0
   32.4810   27.7650   35.0590 C   0  0  0  0  0  0  0  0  0  0  0  0
   32.5770   29.1040   35.8930 C   0  0  2  0  0  0  0  0  0  0  0  0
   33.8440   28.9040   33.9640 H   0  0  0  0  0  0  0  0  0  0  0  0
   32.4960   26.8400   35.6360 H   0  0  0  0  0  0  0  0  0  0  0  0
   31.6690   27.8170   34.3180 H   0  0  0  0  0  0  0  0  0  0  0  0
   32.3790   28.7420   36.9500 H   0  0  0  0  0  0  0  0  0  0  0  0
   31.6960   30.2270   35.5670 C   0  0  0  0  0  0  0  0  0  0  0  0
   31.7260   31.0040   34.4480 C   0  0  0  0  0  0  0  0  0  0  0  0
   30.9590   32.1410   34.2270 C   0  0  0  0  0  0  0  0  0  0  0  0
   30.0790   32.5100   35.2650 C   0  0  0  0  0  0  0  0  0  0  0  0
   30.0350   31.7280   36.4080 C   0  0  0  0  0  0  0  0  0  0  0  0
   29.1170   32.0970   37.3710 C   0  0  0  0  0  0  0  0  0  0  0  0
   28.9780   31.3140   38.5210 C   0  0  0  0  0  0  0  0  0  0  0  0
   29.7460   30.1820   38.6900 C   0  0  0  0  0  0  0  0  0  0  0  0
   30.6450   29.8640   37.7000 C   0  0  0  0  0  0  0  0  0  0  0  0
   30.8230   30.6150   36.5530 C   0  0  0  0  0  0  0  0  0  0  0  0
   32.4290   30.6680   33.6790 H   0  0  0  0  0  0  0  0  0  0  0  0
   31.0500   32.6960   33.3030 H   0  0  0  0  0  0  0  0  0  0  0  0
   29.4820   33.3970   35.0970 H   0  0  0  0  0  0  0  0  0  0  0  0
   28.5170   32.9920   37.2210 H   0  0  0  0  0  0  0  0  0  0  0  0
   28.2190   31.7060   39.2160 H   0  0  0  0  0  0  0  0  0  0  0  0
   29.4990   29.7170   39.6170 H   0  0  0  0  0  0  0  0  0  0  0  0
   31.0390   28.9380   38.0110 H   0  0  0  0  0  0  0  0  0  0  0  0
   36.8940   26.9320   35.6510 C   0  0  0  0  0  0  0  0  0  0  0  0
   37.2360   27.3590   36.9730 C   0  0  0  0  0  0  0  0  0  0  0  0
   36.3450   28.2330   37.6240 C   0  0  0  0  0  0  0  0  0  0  0  0
   35.2430   28.6090   36.9720 N   0  0  0  0  0  0  0  0  0  0  0  0
   34.9380   28.1930   35.7170 C   0  0  0  0  0  0  0  0  0  0  0  0
   35.7550   27.3690   35.0760 N   0  0  0  0  0  0  0  0  0  0  0  0
   37.5950   26.2610   35.1770 H   0  0  0  0  0  0  0  0  0  0  0  0
   38.1630   27.0310   37.3790 H   0  0  0  0  0  0  0  0  0  0  0  0
   36.5210   28.8440   38.9190 C   0  0  0  0  0  0  0  0  0  0  0  0
   36.3750   28.0100   40.0360 C   0  0  0  0  0  0  0  0  0  0  0  0
   36.1270   26.9490   39.8840 H   0  0  0  0  0  0  0  0  0  0  0  0
   36.5170   28.4060   41.3450 C   0  0  0  0  0  3  0  0  0  0  0  0
   36.8290   29.7210   41.6050 C   0  0  0  0  0  3  0  0  0  0  0  0
   36.9920   30.5990   40.5580 C   0  0  0  0  0  0  0  0  0  0  0  0
   37.3400   31.9110   40.7930 C   0  0  0  0  0  3  0  0  0  0  0  0
   37.5530   32.8270   39.7630 C   0  0  0  0  0  3  0  0  0  0  0  0
   37.3890   32.3140   38.4700 C   0  0  0  0  0  3  0  0  0  0  0  0
   37.0400   31.0000   38.2650 C   0  0  0  0  0  3  0  0  0  0  0  0
   36.8340   30.1270   39.2810 C   0  0  0  0  0  0  0  0  0  0  0  0
  1  4  1  6  0  0  0
  1 29  1  0  0  0  0
  1  3  1  0  0  0  0
  2  1  1  0  0  0  0
  2  5  1  0  0  0  0
  2  3  1  0  0  0  0
  3  7  1  1  0  0  0
  6  2  1  0  0  0  0
  8  3  1  0  0  0  0
  8 17  1  0  0  0  0
  9  8  2  0  0  0  0
 10  9  1  0  0  0  0
 10 11  2  0  0  0  0
 11 12  1  0  0  0  0
 12 17  2  0  0  0  0
 12 13  1  0  0  0  0
 13 14  2  0  0  0  0
 14 15  1  0  0  0  0
 14 22  1  0  0  0  0
 15 23  1  0  0  0  0
 16 24  1  0  0  0  0
 16 15  2  0  0  0  0
 17 16  1  0  0  0  0
 18  9  1  0  0  0  0
 19 10  1  0  0  0  0
 20 11  1  0  0  0  0
 21 13  1  0  0  0  0
 25 26  1  0  0  0  0
 26 32  1  0  0  0  0
 26 27  2  0  0  0  0
 27 33  1  0  0  0  0
 28 27  1  0  0  0  0
 29 28  2  0  0  0  0
 30 25  2  0  0  0  0
 30 29  1  0  0  0  0
 31 25  1  0  0  0  0
 33 43  2  0  0  0  0
 33 34  1  0  0  0  0
 34 36  2  0  0  0  0
 35 34  1  0  0  0  0
 36 37  1  0  0  0  0
 38 39  1  0  0  0  0
 38 37  2  0  0  0  0
 40 39  2  0  0  0  0
 41 40  1  0  0  0  0
 42 41  2  0  0  0  0
 42 43  1  0  0  0  0
 43 38  1  0  0  0  0
M  END
>  <minimizedAffinity>
-7.31740379

$$$$

 OpenBabel03252508273D

 43 48  0  0  1  0  0  0  0  0999 V2000
   33.1830   28.4290   36.7650 C   0  0  1  0  0  0  0  0  0  0  0  0
   32.2030   29.3670   37.3280 C   0  0  0  0  0  0  0  0  0  0  0  0
   32.6620   29.3930   35.8170 C   0  0  2  0  0  0  0  0  0  0  0  0
   32.7470   27.3860   36.9670 H   0  0  0  0  0  0  0  0  0  0  0  0
   32.5550   30.1900   37.9510 H   0  0  0  0  0  0  0  0  0  0  0  0
   31.1230   29.1740   37.4110 H   0  0  0  0  0  0  0  0  0  0  0  0
   33.0590   30.4510   35.7060 H   0  0  0  0  0  0  0  0  0  0  0  0
   31.6940   29.1020   34.7580 C   0  0  0  0  0  0  0  0  0  0  0  0
   31.3570   27.8790   34.2590 C   0  0  0  0  0  0  0  0  0  0  0  0
   30.5290   27.6460   33.1690 C   0  0  0  0  0  0  0  0  0  0  0  0
   30.0010   28.7880   32.5330 C   0  0  0  0  0  0  0  0  0  0  0  0
   30.3320   30.0380   33.0300 C   0  0  0  0  0  0  0  0  0  0  0  0
   29.7440   31.1220   32.4090 C   0  0  0  0  0  0  0  0  0  0  0  0
   29.9850   32.4080   32.9020 C   0  0  0  0  0  0  0  0  0  0  0  0
   30.7990   32.5920   33.9990 C   0  0  0  0  0  0  0  0  0  0  0  0
   31.3590   31.4770   34.5760 C   0  0  0  0  0  0  0  0  0  0  0  0
   31.1550   30.1890   34.1160 C   0  0  0  0  0  0  0  0  0  0  0  0
   31.7990   27.0320   34.7940 H   0  0  0  0  0  0  0  0  0  0  0  0
   30.3170   26.6360   32.8440 H   0  0  0  0  0  0  0  0  0  0  0  0
   29.3580   28.6090   31.6810 H   0  0  0  0  0  0  0  0  0  0  0  0
   29.1030   30.9600   31.5450 H   0  0  0  0  0  0  0  0  0  0  0  0
   29.4670   33.1910   32.3270 H   0  0  0  0  0  0  0  0  0  0  0  0
   30.8610   33.6310   34.2290 H   0  0  0  0  0  0  0  0  0  0  0  0
   31.8540   31.8580   35.4240 H   0  0  0  0  0  0  0  0  0  0  0  0
   36.7830   29.2440   36.7180 C   0  0  0  0  0  0  0  0  0  0  0  0
   37.2780   28.5290   37.8540 C   0  0  0  0  0  0  0  0  0  0  0  0
   36.3510   27.7920   38.6140 C   0  0  0  0  0  0  0  0  0  0  0  0
   35.0720   27.8050   38.2320 N   0  0  0  0  0  0  0  0  0  0  0  0
   34.6230   28.4910   37.1500 C   0  0  0  0  0  0  0  0  0  0  0  0
   35.4700   29.1940   36.4130 N   0  0  0  0  0  0  0  0  0  0  0  0
   37.5170   29.7990   36.1530 H   0  0  0  0  0  0  0  0  0  0  0  0
   38.3110   28.6260   38.0920 H   0  0  0  0  0  0  0  0  0  0  0  0
   36.6110   27.0630   39.8300 C   0  0  0  0  0  0  0  0  0  0  0  0
   36.5680   25.6640   39.7500 C   0  0  0  0  0  0  0  0  0  0  0  0
   36.3310   25.1900   38.7850 H   0  0  0  0  0  0  0  0  0  0  0  0
   36.8010   24.8020   40.7950 C   0  0  0  0  0  3  0  0  0  0  0  0
   37.1040   25.3300   42.0300 C   0  0  0  0  0  3  0  0  0  0  0  0
   37.1690   26.6970   42.1850 C   0  0  0  0  0  0  0  0  0  0  0  0
   37.5050   27.2460   43.4020 C   0  0  0  0  0  3  0  0  0  0  0  0
   37.6210   28.6220   43.5970 C   0  0  0  0  0  3  0  0  0  0  0  0
   37.3700   29.4050   42.4630 C   0  0  0  0  0  3  0  0  0  0  0  0
   37.0340   28.8290   41.2610 C   0  0  0  0  0  3  0  0  0  0  0  0
   36.9240   27.4890   41.0930 C   0  0  0  0  0  0  0  0  0  0  0  0
  1  4  1  6  0  0  0
  1 29  1  0  0  0  0
  1  2  1  0  0  0  0
  2  6  1  0  0  0  0
  2  5  1  0  0  0  0
  3  7  1  6  0  0  0
  3  1  1  0  0  0  0
  3  2  1  0  0  0  0
  8  3  1  0  0  0  0
  9  8  1  0  0  0  0
  9 18  1  0  0  0  0
 10  9  2  0  0  0  0
 11 12  2  0  0  0  0
 11 10  1  0  0  0  0
 12 17  1  0  0  0  0
 13 14  2  0  0  0  0
 13 12  1  0  0  0  0
 14 15  1  0  0  0  0
 15 23  1  0  0  0  0
 15 16  2  0  0  0  0
 16 24  1  0  0  0  0
 17 16  1  0  0  0  0
 17  8  2  0  0  0  0
 19 10  1  0  0  0  0
 20 11  1  0  0  0  0
 21 13  1  0  0  0  0
 22 14  1  0  0  0  0
 25 26  1  0  0  0  0
 26 32  1  0  0  0  0
 26 27  2  0  0  0  0
 27 33  1  0  0  0  0
 28 27  1  0  0  0  0
 29 28  2  0  0  0  0
 30 25  2  0  0  0  0
 30 29  1  0  0  0  0
 31 25  1  0  0  0  0
 33 43  1  0  0  0  0
 34 33  2  0  0  0  0
 34 36  1  0  0  0  0
 35 34  1  0  0  0  0
 36 37  2  0  0  0  0
 37 38  1  0  0  0  0
 38 39  1  0  0  0  0
 39 40  2  0  0  0  0
 41 40  1  0  0  0  0
 42 41  2  0  0  0  0
 43 42  1  0  0  0  0
 43 38  2  0  0  0  0
M  END
>  <minimizedAffinity>
-7.25936937

$$$$

 OpenBabel03252508273D

 43 48  0  0  1  0  0  0  0  0999 V2000
   38.4450   29.2640   41.9970 C   0  0  1  0  0  0  0  0  0  0  0  0
   37.7450   29.2090   43.2870 C   0  0  0  0  0  0  0  0  0  0  0  0
   37.7820   28.0040   42.2660 C   0  0  2  0  0  0  0  0  0  0  0  0
   39.5350   29.5170   42.2610 H   0  0  0  0  0  0  0  0  0  0  0  0
   36.7870   29.7200   43.3920 H   0  0  0  0  0  0  0  0  0  0  0  0
   38.2100   28.9320   44.2450 H   0  0  0  0  0  0  0  0  0  0  0  0
   36.6780   27.8170   42.0780 H   0  0  0  0  0  0  0  0  0  0  0  0
   38.4520   26.7570   42.6380 C   0  0  0  0  0  0  0  0  0  0  0  0
   39.4690   26.5990   43.5320 C   0  0  0  0  0  0  0  0  0  0  0  0
   40.1680   25.4240   43.7690 C   0  0  0  0  0  0  0  0  0  0  0  0
   39.7790   24.3040   43.0050 C   0  0  0  0  0  0  0  0  0  0  0  0
   38.7460   24.4470   42.0940 C   0  0  0  0  0  0  0  0  0  0  0  0
   38.3640   23.3080   41.4130 C   0  0  0  0  0  0  0  0  0  0  0  0
   37.2850   23.3700   40.5260 C   0  0  0  0  0  0  0  0  0  0  0  0
   36.6060   24.5550   40.3360 C   0  0  0  0  0  0  0  0  0  0  0  0
   37.0310   25.6570   41.0390 C   0  0  0  0  0  0  0  0  0  0  0  0
   38.0990   25.6430   41.9180 C   0  0  0  0  0  0  0  0  0  0  0  0
   39.7260   27.5040   44.0930 H   0  0  0  0  0  0  0  0  0  0  0  0
   40.9630   25.3920   44.5020 H   0  0  0  0  0  0  0  0  0  0  0  0
   40.3250   23.3860   43.1850 H   0  0  0  0  0  0  0  0  0  0  0  0
   38.9080   22.3810   41.5750 H   0  0  0  0  0  0  0  0  0  0  0  0
   37.0740   22.4050   40.0400 H   0  0  0  0  0  0  0  0  0  0  0  0
   35.8190   24.4080   39.6320 H   0  0  0  0  0  0  0  0  0  0  0  0
   36.3210   26.3960   40.7960 H   0  0  0  0  0  0  0  0  0  0  0  0
   37.4440   32.2430   40.0620 C   0  0  0  0  0  0  0  0  0  0  0  0
   36.9700   31.6750   38.8380 C   0  0  0  0  0  0  0  0  0  0  0  0
   37.0190   30.2740   38.7100 C   0  0  0  0  0  0  0  0  0  0  0  0
   37.5040   29.5650   39.7320 N   0  0  0  0  0  0  0  0  0  0  0  0
   37.9490   30.1250   40.8850 C   0  0  0  0  0  0  0  0  0  0  0  0
   37.9160   31.4420   41.0380 N   0  0  0  0  0  0  0  0  0  0  0  0
   37.3930   33.3200   40.1330 H   0  0  0  0  0  0  0  0  0  0  0  0
   36.6460   32.3390   38.0730 H   0  0  0  0  0  0  0  0  0  0  0  0
   36.6660   29.4970   37.5480 C   0  0  0  0  0  0  0  0  0  0  0  0
   37.7140   29.1210   36.6970 C   0  0  0  0  0  0  0  0  0  0  0  0
   38.7400   29.4380   36.9390 H   0  0  0  0  0  0  0  0  0  0  0  0
   37.5780   28.3720   35.5520 C   0  0  0  0  0  3  0  0  0  0  0  0
   36.3210   27.9430   35.1930 C   0  0  0  0  0  3  0  0  0  0  0  0
   35.2410   28.2690   35.9820 C   0  0  0  0  0  0  0  0  0  0  0  0
   33.9790   27.8200   35.6610 C   0  0  0  0  0  3  0  0  0  0  0  0
   32.8620   28.0930   36.4500 C   0  0  0  0  0  3  0  0  0  0  0  0
   33.1190   28.8570   37.5960 C   0  0  0  0  0  3  0  0  0  0  0  0
   34.3880   29.2930   37.8910 C   0  0  0  0  0  3  0  0  0  0  0  0
   35.4600   29.0200   37.1080 C   0  0  0  0  0  0  0  0  0  0  0  0
  1  4  1  1  0  0  0
  1  3  1  0  0  0  0
  1  2  1  0  0  0  0
  2  5  1  0  0  0  0
  2  6  1  0  0  0  0
  3  7  1  6  0  0  0
  3  8  1  0  0  0  0
  3  2  1  0  0  0  0
  8  9  1  0  0  0  0
  9 10  2  0  0  0  0
  9 18  1  0  0  0  0
 10 19  1  0  0  0  0
 11 20  1  0  0  0  0
 11 10  1  0  0  0  0
 12 11  2  0  0  0  0
 13 21  1  0  0  0  0
 13 12  1  0  0  0  0
 14 13  2  0  0  0  0
 15 14  1  0  0  0  0
 15 16  2  0  0  0  0
 16 17  1  0  0  0  0
 17 12  1  0  0  0  0
 17  8  2  0  0  0  0
 22 14  1  0  0  0  0
 23 15  1  0  0  0  0
 24 16  1  0  0  0  0
 25 31  1  0  0  0  0
 25 30  1  0  0  0  0
 26 25  2  0  0  0  0
 27 26  1  0  0  0  0
 27 28  2  0  0  0  0
 28 29  1  0  0  0  0
 29 30  2  0  0  0  0
 29  1  1  0  0  0  0
 32 26  1  0  0  0  0
 33 27  1  0  0  0  0
 34 35  1  0  0  0  0
 34 33  2  0  0  0  0
 36 34  1  0  0  0  0
 37 36  2  0  0  0  0
 37 38  1  0  0  0  0
 38 43  1  0  0  0  0
 39 38  2  0  0  0  0
 39 40  1  0  0  0  0
 40 41  2  0  0  0  0
 41 42  1  0  0  0  0
 43 33  1  0  0  0  0
 43 42  2  0  0  0  0
M  END
>  <minimizedAffinity>
-7.25568342

$$$$

 OpenBabel03252508273D

 43 48  0  0  1  0  0  0  0  0999 V2000
   33.7500   28.6270   35.5700 C   0  0  1  0  0  0  0  0  0  0  0  0
   32.6180   27.7540   35.9050 C   0  0  0  0  0  0  0  0  0  0  0  0
   32.7330   29.2530   36.3920 C   0  0  2  0  0  0  0  0  0  0  0  0
   33.7860   28.6420   34.4220 H   0  0  0  0  0  0  0  0  0  0  0  0
   32.7470   26.9890   36.6720 H   0  0  0  0  0  0  0  0  0  0  0  0
   31.7270   27.6090   35.2750 H   0  0  0  0  0  0  0  0  0  0  0  0
   32.6740   29.1420   37.5200 H   0  0  0  0  0  0  0  0  0  0  0  0
   31.7610   30.2440   35.9270 C   0  0  0  0  0  0  0  0  0  0  0  0
   31.7820   30.9350   34.7530 C   0  0  0  0  0  0  0  0  0  0  0  0
   30.9160   31.9610   34.3970 C   0  0  0  0  0  0  0  0  0  0  0  0
   29.9350   32.3050   35.3500 C   0  0  0  0  0  0  0  0  0  0  0  0
   29.8980   31.6100   36.5480 C   0  0  0  0  0  0  0  0  0  0  0  0
   28.8850   31.9440   37.4230 C   0  0  0  0  0  0  0  0  0  0  0  0
   28.7530   31.2360   38.6220 C   0  0  0  0  0  0  0  0  0  0  0  0
   29.6240   30.2120   38.9250 C   0  0  0  0  0  0  0  0  0  0  0  0
   30.6160   29.9240   38.0180 C   0  0  0  0  0  0  0  0  0  0  0  0
   30.7880   30.6040   36.8260 C   0  0  0  0  0  0  0  0  0  0  0  0
   32.5660   30.6240   34.0550 H   0  0  0  0  0  0  0  0  0  0  0  0
   31.0080   32.4540   33.4390 H   0  0  0  0  0  0  0  0  0  0  0  0
   29.2590   33.1060   35.0780 H   0  0  0  0  0  0  0  0  0  0  0  0
   28.2040   32.7530   37.1680 H   0  0  0  0  0  0  0  0  0  0  0  0
   27.9130   31.5920   39.2390 H   0  0  0  0  0  0  0  0  0  0  0  0
   29.3670   29.7910   39.8700 H   0  0  0  0  0  0  0  0  0  0  0  0
   31.0840   29.0720   38.4240 H   0  0  0  0  0  0  0  0  0  0  0  0
   37.3710   28.9200   36.2220 C   0  0  0  0  0  0  0  0  0  0  0  0
   37.6010   27.8800   37.1780 C   0  0  0  0  0  0  0  0  0  0  0  0
   36.4930   27.1110   37.5800 C   0  0  0  0  0  0  0  0  0  0  0  0
   35.3010   27.3980   37.0500 N   0  0  0  0  0  0  0  0  0  0  0  0
   35.1060   28.3900   36.1450 C   0  0  0  0  0  0  0  0  0  0  0  0
   36.1280   29.1320   35.7440 N   0  0  0  0  0  0  0  0  0  0  0  0
   38.2400   29.4920   35.9310 H   0  0  0  0  0  0  0  0  0  0  0  0
   38.5840   27.7700   37.5670 H   0  0  0  0  0  0  0  0  0  0  0  0
   36.4760   26.0700   38.5780 C   0  0  0  0  0  0  0  0  0  0  0  0
   36.2420   24.7640   38.1250 C   0  0  0  0  0  0  0  0  0  0  0  0
   36.0720   24.5920   37.0510 H   0  0  0  0  0  0  0  0  0  0  0  0
   36.2020   23.6430   38.9200 C   0  0  0  0  0  3  0  0  0  0  0  0
   36.4080   23.7890   40.2730 C   0  0  0  0  0  3  0  0  0  0  0  0
   36.6490   25.0410   40.7920 C   0  0  0  0  0  0  0  0  0  0  0  0
   36.8930   25.2050   42.1370 C   0  0  0  0  0  3  0  0  0  0  0  0
   37.1790   26.4480   42.7020 C   0  0  0  0  0  3  0  0  0  0  0  0
   37.2010   27.5180   41.7980 C   0  0  0  0  0  3  0  0  0  0  0  0
   36.9520   27.3260   40.4600 C   0  0  0  0  0  3  0  0  0  0  0  0
   36.6720   26.1090   39.9320 C   0  0  0  0  0  0  0  0  0  0  0  0
  1  4  1  6  0  0  0
  1  2  1  0  0  0  0
  1 29  1  0  0  0  0
  1  3  1  0  0  0  0
  2  3  1  0  0  0  0
  2  5  1  0  0  0  0
  3  7  1  1  0  0  0
  6  2  1  0  0  0  0
  8  3  1  0  0  0  0
  8 17  1  0  0  0  0
  9  8  2  0  0  0  0
 10  9  1  0  0  0  0
 10 11  2  0  0  0  0
 11 12  1  0  0  0  0
 12 17  2  0  0  0  0
 12 13  1  0  0  0  0
 13 14  2  0  0  0  0
 14 15  1  0  0  0  0
 14 22  1  0  0  0  0
 15 23  1  0  0  0  0
 16 24  1  0  0  0  0
 16 15  2  0  0  0  0
 17 16  1  0  0  0  0
 18  9  1  0  0  0  0
 19 10  1  0  0  0  0
 20 11  1  0  0  0  0
 21 13  1  0  0  0  0
 25 26  1  0  0  0  0
 26 32  1  0  0  0  0
 26 27  2  0  0  0  0
 27 33  1  0  0  0  0
 28 27  1  0  0  0  0
 29 28  2  0  0  0  0
 30 29  1  0  0  0  0
 30 25  2  0  0  0  0
 31 25  1  0  0  0  0
 33 43  1  0  0  0  0
 34 33  2  0  0  0  0
 34 36  1  0  0  0  0
 35 34  1  0  0  0  0
 36 37  2  0  0  0  0
 37 38  1  0  0  0  0
 38 39  1  0  0  0  0
 39 40  2  0  0  0  0
 41 40  1  0  0  0  0
 42 41  2  0  0  0  0
 43 42  1  0  0  0  0
 43 38  2  0  0  0  0
M  END
>  <minimizedAffinity>
-7.20787144

$$$$
