
 OpenBabel03252503133D

 36 40  0  0  0  0  0  0  0  0999 V2000
   46.6460   34.8830   41.9120 C   0  0  0  0  0  0  0  0  0  0  0  0
   47.8140   35.3680   41.8860 O   0  0  0  0  0  0  0  0  0  0  0  0
   45.2990   36.1970   43.4880 C   0  0  0  0  0  0  0  0  0  0  0  0
   45.9560   34.9960   43.1530 C   0  0  0  0  0  0  0  0  0  0  0  0
   45.8620   33.9950   44.0990 C   0  0  0  0  0  0  0  0  0  0  0  0
   45.1900   34.1550   45.2590 N   0  0  0  0  0  0  0  0  0  0  0  0
   44.5730   35.3270   45.5420 C   0  0  0  0  0  0  0  0  0  0  0  0
   44.6280   36.3440   44.6560 N   0  0  0  0  0  0  0  0  0  0  0  0
   45.3190   37.0450   42.8010 H   0  0  0  0  0  0  0  0  0  0  0  0
   44.0360   35.4550   46.4690 H   0  0  0  0  0  0  0  0  0  0  0  0
   46.4940   32.7670   43.8470 C   0  0  0  0  0  0  0  0  0  0  0  0
   47.7670   32.2950   43.9780 C   0  0  0  0  0  0  0  0  0  0  0  0
   48.1350   31.0650   43.6720 C   0  0  0  0  0  0  0  0  0  0  0  0
   47.1440   30.2510   43.1990 C   0  0  0  0  0  0  0  0  0  0  0  0
   45.6470   31.3360   43.2130 S   0  0  0  0  0  0  0  0  0  0  0  0
   48.4890   33.0410   44.3710 H   0  0  0  0  0  0  0  0  0  0  0  0
   49.1190   30.6290   43.7520 H   0  0  0  0  0  0  0  0  0  0  0  0
   47.1610   29.1880   42.8690 H   0  0  0  0  0  0  0  0  0  0  0  0
   45.9850   34.2250   40.7480 C   0  0  0  0  0  0  0  0  0  0  0  0
   44.6430   34.1500   40.4900 C   0  0  0  0  0  0  0  0  0  0  0  0
   44.5280   33.4670   39.3420 N   0  0  0  0  0  0  0  0  0  0  0  0
   45.7580   33.1220   38.8950 C   0  0  0  0  0  0  0  0  0  0  0  0
   46.6260   33.5970   39.7710 N   0  0  0  0  0  0  0  0  0  0  0  0
   43.9320   34.5950   41.1560 H   0  0  0  0  0  0  0  0  0  0  0  0
   43.5730   33.3090   38.9840 H   0  0  0  0  0  0  0  0  0  0  0  0
   45.8290   32.3700   37.6500 C   0  0  0  0  0  0  0  0  0  0  0  0
   45.5230   32.9340   36.4310 C   0  0  0  0  0  0  0  0  0  0  0  0
   45.2140   33.9650   36.3320 H   0  0  0  0  0  0  0  0  0  0  0  0
   45.5740   32.2670   35.2260 C   0  0  0  0  0  3  0  0  0  0  0  0
   45.9510   30.9490   35.1950 C   0  0  0  0  0  3  0  0  0  0  0  0
   46.2670   30.3320   36.3720 C   0  0  0  0  0  0  0  0  0  0  0  0
   46.6460   29.0060   36.3350 C   0  0  0  0  0  3  0  0  0  0  0  0
   46.9770   28.3290   37.4830 C   0  0  0  0  0  3  0  0  0  0  0  0
   46.9190   29.0200   38.6960 C   0  0  0  0  0  3  0  0  0  0  0  0
   46.5330   30.3430   38.6640 C   0  0  0  0  0  3  0  0  0  0  0  0
   46.1960   31.0500   37.5370 C   0  0  0  0  0  0  0  0  0  0  0  0
  1  4  1  0  0  0  0
  2  1  2  0  0  0  0
  3  8  1  0  0  0  0
  4  3  2  0  0  0  0
  4  5  1  0  0  0  0
  5  6  2  0  0  0  0
  6  7  1  0  0  0  0
  7 10  1  0  0  0  0
  8  7  2  0  0  0  0
  9  3  1  0  0  0  0
 11 12  2  0  0  0  0
 11  5  1  0  0  0  0
 12 16  1  0  0  0  0
 13 17  1  0  0  0  0
 13 12  1  0  0  0  0
 14 15  1  0  0  0  0
 14 13  2  0  0  0  0
 15 11  1  0  0  0  0
 18 14  1  0  0  0  0
 19  1  1  0  0  0  0
 20 19  2  0  0  0  0
 20 24  1  0  0  0  0
 21 20  1  0  0  0  0
 22 21  1  0  0  0  0
 22 23  2  0  0  0  0
 23 19  1  0  0  0  0
 25 21  1  0  0  0  0
 26 22  1  0  0  0  0
 27 26  2  0  0  0  0
 28 27  1  0  0  0  0
 29 27  1  0  0  0  0
 30 29  2  0  0  0  0
 30 31  1  0  0  0  0
 31 36  1  0  0  0  0
 32 31  2  0  0  0  0
 32 33  1  0  0  0  0
 33 34  2  0  0  0  0
 35 34  1  0  0  0  0
 36 26  1  0  0  0  0
 36 35  2  0  0  0  0
M  END
>  <minimizedAffinity>
-4.99102068

>  <minimizedRMSD>
0.385019869

$$$$
