
 OpenBabel03242520523D

 24 26  0  0  0  0  0  0  0  0999 V2000
   36.4090   30.0450   37.7380 C   0  0  0  0  0  0  0  0  0  0  0  0
   37.4090   31.0160   37.6970 C   0  0  0  0  0  0  0  0  0  0  0  0
   38.2710   31.1340   38.7670 C   0  0  0  0  0  0  0  0  0  0  0  0
   38.0590   30.2780   39.7700 N   0  0  0  0  0  0  0  0  0  0  0  0
   37.1120   29.3390   39.8350 C   0  0  0  0  0  0  0  0  0  0  0  0
   36.2820   29.2360   38.7930 N   0  0  0  0  0  0  0  0  0  0  0  0
   35.7280   29.9440   36.9050 H   0  0  0  0  0  0  0  0  0  0  0  0
   37.5510   31.6930   36.8670 H   0  0  0  0  0  0  0  0  0  0  0  0
   37.1540   28.5640   41.0800 C   0  0  0  0  0  0  0  0  0  0  0  0
   37.3240   29.1890   42.2960 C   0  0  0  0  0  0  0  0  0  0  0  0
   37.4340   30.2820   42.3770 H   0  0  0  0  0  0  0  0  0  0  0  0
   37.3730   28.5200   43.4990 C   0  0  0  0  0  3  0  0  0  0  0  0
   37.2480   27.1510   43.5430 C   0  0  0  0  0  3  0  0  0  0  0  0
   37.0770   26.4860   42.3520 C   0  0  0  0  0  0  0  0  0  0  0  0
   36.9530   25.1200   42.3980 C   0  0  0  0  0  3  0  0  0  0  0  0
   36.7790   24.3740   41.2510 C   0  0  0  0  0  3  0  0  0  0  0  0
   36.7360   25.1020   40.0550 C   0  0  0  0  0  3  0  0  0  0  0  0
   36.8640   26.4710   40.0490 C   0  0  0  0  0  3  0  0  0  0  0  0
   37.0360   27.2020   41.1810 C   0  0  0  0  0  0  0  0  0  0  0  0
   39.3050   32.0400   38.8850 O   0  0  0  0  0  0  0  0  0  0  0  0
   39.1140   33.1140   39.8000 C   0  0  0  0  0  0  0  0  0  0  0  0
   39.5240   32.7030   41.0670 F   0  0  0  0  0  0  0  0  0  0  0  0
   39.9420   34.1610   39.3960 F   0  0  0  0  0  0  0  0  0  0  0  0
   37.8070   33.5720   39.7780 F   0  0  0  0  0  0  0  0  0  0  0  0
  1  6  1  0  0  0  0
  2  1  2  0  0  0  0
  2  3  1  0  0  0  0
  3 20  1  0  0  0  0
  3  4  2  0  0  0  0
  4  5  1  0  0  0  0
  5  9  1  0  0  0  0
  6  5  2  0  0  0  0
  7  1  1  0  0  0  0
  8  2  1  0  0  0  0
  9 19  2  0  0  0  0
  9 10  1  0  0  0  0
 10 11  1  0  0  0  0
 10 12  2  0  0  0  0
 12 13  1  0  0  0  0
 14 15  1  0  0  0  0
 14 13  2  0  0  0  0
 16 15  2  0  0  0  0
 17 16  1  0  0  0  0
 18 17  2  0  0  0  0
 18 19  1  0  0  0  0
 19 14  1  0  0  0  0
 20 21  1  0  0  0  0
 21 22  1  0  0  0  0
 23 21  1  0  0  0  0
 24 21  1  0  0  0  0
M  END
>  <minimizedAffinity>
-5.83657742

$$$$

 OpenBabel03242520523D

 24 26  0  0  0  0  0  0  0  0999 V2000
   39.2530   34.0250   40.5260 C   0  0  0  0  0  0  0  0  0  0  0  0
   40.3920   33.6770   39.8000 C   0  0  0  0  0  0  0  0  0  0  0  0
   40.4970   32.3990   39.2930 C   0  0  0  0  0  0  0  0  0  0  0  0
   39.4650   31.5930   39.5520 N   0  0  0  0  0  0  0  0  0  0  0  0
   38.3630   31.8990   40.2410 C   0  0  0  0  0  0  0  0  0  0  0  0
   38.2730   33.1400   40.7290 N   0  0  0  0  0  0  0  0  0  0  0  0
   39.1600   35.0230   40.9280 H   0  0  0  0  0  0  0  0  0  0  0  0
   41.2100   34.3570   39.6100 H   0  0  0  0  0  0  0  0  0  0  0  0
   37.4180   30.7820   40.3420 C   0  0  0  0  0  0  0  0  0  0  0  0
   36.4300   30.6030   39.3980 C   0  0  0  0  0  0  0  0  0  0  0  0
   36.3160   31.2870   38.5410 H   0  0  0  0  0  0  0  0  0  0  0  0
   35.5130   29.5770   39.4350 C   0  0  0  0  0  3  0  0  0  0  0  0
   35.5420   28.6510   40.4510 C   0  0  0  0  0  3  0  0  0  0  0  0
   36.5110   28.7910   41.4170 C   0  0  0  0  0  0  0  0  0  0  0  0
   36.5370   27.8660   42.4300 C   0  0  0  0  0  3  0  0  0  0  0  0
   37.4760   27.9310   43.4390 C   0  0  0  0  0  3  0  0  0  0  0  0
   38.3840   28.9930   43.3540 C   0  0  0  0  0  3  0  0  0  0  0  0
   38.3260   29.9010   42.3240 C   0  0  0  0  0  3  0  0  0  0  0  0
   37.4010   29.8330   41.3320 C   0  0  0  0  0  0  0  0  0  0  0  0
   41.5540   31.8970   38.5610 O   0  0  0  0  0  0  0  0  0  0  0  0
   41.5300   32.1340   37.1570 C   0  0  0  0  0  0  0  0  0  0  0  0
   40.2140   32.3690   36.7640 F   0  0  0  0  0  0  0  0  0  0  0  0
   42.2660   33.2940   36.9160 F   0  0  0  0  0  0  0  0  0  0  0  0
   42.1270   31.0990   36.4580 F   0  0  0  0  0  0  0  0  0  0  0  0
  1  6  1  0  0  0  0
  1  7  1  0  0  0  0
  2  1  2  0  0  0  0
  3  4  2  0  0  0  0
  3  2  1  0  0  0  0
  4  5  1  0  0  0  0
  5  9  1  0  0  0  0
  5  6  2  0  0  0  0
  8  2  1  0  0  0  0
  9 19  1  0  0  0  0
 10 12  1  0  0  0  0
 10  9  2  0  0  0  0
 11 10  1  0  0  0  0
 12 13  2  0  0  0  0
 13 14  1  0  0  0  0
 14 15  1  0  0  0  0
 15 16  2  0  0  0  0
 17 16  1  0  0  0  0
 18 17  2  0  0  0  0
 19 14  2  0  0  0  0
 19 18  1  0  0  0  0
 20  3  1  0  0  0  0
 21 20  1  0  0  0  0
 22 21  1  0  0  0  0
 23 21  1  0  0  0  0
 24 21  1  0  0  0  0
M  END
>  <minimizedAffinity>
-5.74894762

$$$$

 OpenBabel03242520523D

 24 26  0  0  0  0  0  0  0  0999 V2000
   40.1990   29.6440   38.4250 C   0  0  0  0  0  0  0  0  0  0  0  0
   39.4250   30.7400   38.0460 C   0  0  0  0  0  0  0  0  0  0  0  0
   38.2760   31.0240   38.7550 C   0  0  0  0  0  0  0  0  0  0  0  0
   38.0080   30.1960   39.7680 N   0  0  0  0  0  0  0  0  0  0  0  0
   38.7320   29.1420   40.1530 C   0  0  0  0  0  0  0  0  0  0  0  0
   39.8410   28.8760   39.4580 N   0  0  0  0  0  0  0  0  0  0  0  0
   41.1010   29.4120   37.8760 H   0  0  0  0  0  0  0  0  0  0  0  0
   39.6720   31.3900   37.2180 H   0  0  0  0  0  0  0  0  0  0  0  0
   38.1590   28.4410   41.3070 C   0  0  0  0  0  0  0  0  0  0  0  0
   38.0380   29.0690   42.5270 C   0  0  0  0  0  0  0  0  0  0  0  0
   38.3650   30.1120   42.6780 H   0  0  0  0  0  0  0  0  0  0  0  0
   37.5110   28.4690   43.6480 C   0  0  0  0  0  3  0  0  0  0  0  0
   37.0640   27.1690   43.5990 C   0  0  0  0  0  3  0  0  0  0  0  0
   37.1660   26.5020   42.4010 C   0  0  0  0  0  0  0  0  0  0  0  0
   36.7200   25.2050   42.3550 C   0  0  0  0  0  3  0  0  0  0  0  0
   36.7850   24.4630   41.1940 C   0  0  0  0  0  3  0  0  0  0  0  0
   37.3290   25.1210   40.0840 C   0  0  0  0  0  3  0  0  0  0  0  0
   37.7660   26.4210   40.1690 C   0  0  0  0  0  3  0  0  0  0  0  0
   37.7000   27.1490   41.3140 C   0  0  0  0  0  0  0  0  0  0  0  0
   37.4020   32.0630   38.5090 O   0  0  0  0  0  0  0  0  0  0  0  0
   37.4440   33.1620   39.4140 C   0  0  0  0  0  0  0  0  0  0  0  0
   36.5930   34.1610   38.9460 F   0  0  0  0  0  0  0  0  0  0  0  0
   36.9510   32.7130   40.6390 F   0  0  0  0  0  0  0  0  0  0  0  0
   38.7410   33.6050   39.6140 F   0  0  0  0  0  0  0  0  0  0  0  0
  1  6  1  0  0  0  0
  2  1  2  0  0  0  0
  2  3  1  0  0  0  0
  3  4  2  0  0  0  0
  4  5  1  0  0  0  0
  5  9  1  0  0  0  0
  6  5  2  0  0  0  0
  7  1  1  0  0  0  0
  8  2  1  0  0  0  0
  9 19  2  0  0  0  0
  9 10  1  0  0  0  0
 10 11  1  0  0  0  0
 10 12  2  0  0  0  0
 13 12  1  0  0  0  0
 14 13  2  0  0  0  0
 15 14  1  0  0  0  0
 16 15  2  0  0  0  0
 17 18  2  0  0  0  0
 17 16  1  0  0  0  0
 18 19  1  0  0  0  0
 19 14  1  0  0  0  0
 20  3  1  0  0  0  0
 20 21  1  0  0  0  0
 21 24  1  0  0  0  0
 21 23  1  0  0  0  0
 22 21  1  0  0  0  0
M  END
>  <minimizedAffinity>
-5.60853195

$$$$

 OpenBabel03242520523D

 24 26  0  0  0  0  0  0  0  0999 V2000
   33.6030   26.6150   36.5720 C   0  0  0  0  0  0  0  0  0  0  0  0
   34.5800   27.0190   37.4810 C   0  0  0  0  0  0  0  0  0  0  0  0
   34.6450   28.3460   37.8480 C   0  0  0  0  0  0  0  0  0  0  0  0
   33.7360   29.1430   37.2810 N   0  0  0  0  0  0  0  0  0  0  0  0
   32.7900   28.7840   36.4090 C   0  0  0  0  0  0  0  0  0  0  0  0
   32.7380   27.4950   36.0600 N   0  0  0  0  0  0  0  0  0  0  0  0
   33.5440   25.5780   36.2770 H   0  0  0  0  0  0  0  0  0  0  0  0
   35.3010   26.3450   37.9220 H   0  0  0  0  0  0  0  0  0  0  0  0
   31.9490   29.9060   35.9770 C   0  0  0  0  0  0  0  0  0  0  0  0
   32.1530   30.5120   34.7560 C   0  0  0  0  0  0  0  0  0  0  0  0
   32.9470   30.1800   34.0680 H   0  0  0  0  0  0  0  0  0  0  0  0
   31.4010   31.5680   34.2930 C   0  0  0  0  0  3  0  0  0  0  0  0
   30.3760   32.0830   35.0520 C   0  0  0  0  0  3  0  0  0  0  0  0
   30.1370   31.5090   36.2780 C   0  0  0  0  0  0  0  0  0  0  0  0
   29.1150   32.0250   37.0340 C   0  0  0  0  0  3  0  0  0  0  0  0
   28.8070   31.5090   38.2750 C   0  0  0  0  0  3  0  0  0  0  0  0
   29.6020   30.4370   38.7000 C   0  0  0  0  0  3  0  0  0  0  0  0
   30.6180   29.9470   37.9150 C   0  0  0  0  0  3  0  0  0  0  0  0
   30.9180   30.4580   36.6920 C   0  0  0  0  0  0  0  0  0  0  0  0
   35.5480   28.9060   38.7290 O   0  0  0  0  0  0  0  0  0  0  0  0
   35.0760   29.1750   40.0450 C   0  0  0  0  0  0  0  0  0  0  0  0
   35.6810   28.2860   40.9300 F   0  0  0  0  0  0  0  0  0  0  0  0
   35.4870   30.4650   40.3810 F   0  0  0  0  0  0  0  0  0  0  0  0
   33.6920   29.1410   40.1040 F   0  0  0  0  0  0  0  0  0  0  0  0
  1  2  1  0  0  0  0
  2  3  2  0  0  0  0
  2  8  1  0  0  0  0
  3 20  1  0  0  0  0
  4  3  1  0  0  0  0
  5  4  2  0  0  0  0
  6  5  1  0  0  0  0
  6  1  2  0  0  0  0
  7  1  1  0  0  0  0
  9  5  1  0  0  0  0
  9 19  1  0  0  0  0
 10  9  2  0  0  0  0
 11 10  1  0  0  0  0
 12 10  1  0  0  0  0
 12 13  2  0  0  0  0
 13 14  1  0  0  0  0
 14 19  2  0  0  0  0
 14 15  1  0  0  0  0
 15 16  2  0  0  0  0
 16 17  1  0  0  0  0
 18 17  2  0  0  0  0
 19 18  1  0  0  0  0
 20 21  1  0  0  0  0
 21 24  1  0  0  0  0
 21 23  1  0  0  0  0
 21 22  1  0  0  0  0
M  END
>  <minimizedAffinity>
-5.55760145

$$$$

 OpenBabel03242520523D

 24 26  0  0  0  0  0  0  0  0999 V2000
   38.0910   28.9480   37.1240 C   0  0  0  0  0  0  0  0  0  0  0  0
   37.7070   30.2860   37.2080 C   0  0  0  0  0  0  0  0  0  0  0  0
   37.2090   30.7650   38.4010 C   0  0  0  0  0  0  0  0  0  0  0  0
   37.1400   29.8740   39.3930 N   0  0  0  0  0  0  0  0  0  0  0  0
   37.5020   28.5890   39.3410 C   0  0  0  0  0  0  0  0  0  0  0  0
   37.9820   28.1360   38.1790 N   0  0  0  0  0  0  0  0  0  0  0  0
   38.4830   28.5630   36.1940 H   0  0  0  0  0  0  0  0  0  0  0  0
   37.7760   30.9810   36.3820 H   0  0  0  0  0  0  0  0  0  0  0  0
   37.2990   27.8830   40.6100 C   0  0  0  0  0  0  0  0  0  0  0  0
   37.1910   28.5760   41.7960 C   0  0  0  0  0  0  0  0  0  0  0  0
   37.2520   29.6760   41.8330 H   0  0  0  0  0  0  0  0  0  0  0  0
   37.0010   27.9730   43.0190 C   0  0  0  0  0  3  0  0  0  0  0  0
   36.9060   26.6050   43.1170 C   0  0  0  0  0  3  0  0  0  0  0  0
   37.0090   25.8720   41.9580 C   0  0  0  0  0  0  0  0  0  0  0  0
   36.9150   24.5070   42.0580 C   0  0  0  0  0  3  0  0  0  0  0  0
   37.0080   23.6960   40.9460 C   0  0  0  0  0  3  0  0  0  0  0  0
   37.2000   24.3580   39.7270 C   0  0  0  0  0  3  0  0  0  0  0  0
   37.2900   25.7290   39.6660 C   0  0  0  0  0  3  0  0  0  0  0  0
   37.1990   26.5240   40.7640 C   0  0  0  0  0  0  0  0  0  0  0  0
   36.7830   32.0550   38.6480 O   0  0  0  0  0  0  0  0  0  0  0  0
   37.5210   32.7980   39.6130 C   0  0  0  0  0  0  0  0  0  0  0  0
   37.2740   32.2640   40.8760 F   0  0  0  0  0  0  0  0  0  0  0  0
   38.8750   32.6250   39.3280 F   0  0  0  0  0  0  0  0  0  0  0  0
   37.2400   34.1520   39.5330 F   0  0  0  0  0  0  0  0  0  0  0  0
  1  2  2  0  0  0  0
  1  6  1  0  0  0  0
  2  3  1  0  0  0  0
  3 20  1  0  0  0  0
  3  4  2  0  0  0  0
  5  4  1  0  0  0  0
  5  9  1  0  0  0  0
  6  5  2  0  0  0  0
  7  1  1  0  0  0  0
  8  2  1  0  0  0  0
  9 19  2  0  0  0  0
  9 10  1  0  0  0  0
 10 11  1  0  0  0  0
 10 12  2  0  0  0  0
 12 13  1  0  0  0  0
 14 15  1  0  0  0  0
 14 13  2  0  0  0  0
 16 15  2  0  0  0  0
 17 16  1  0  0  0  0
 18 17  2  0  0  0  0
 18 19  1  0  0  0  0
 19 14  1  0  0  0  0
 20 21  1  0  0  0  0
 21 22  1  0  0  0  0
 23 21  1  0  0  0  0
 24 21  1  0  0  0  0
M  END
>  <minimizedAffinity>
-5.51033211

$$$$

 OpenBabel03242520523D

 24 26  0  0  0  0  0  0  0  0999 V2000
   36.2200   30.7840   41.0440 C   0  0  0  0  0  0  0  0  0  0  0  0
   36.8250   31.1540   39.8430 C   0  0  0  0  0  0  0  0  0  0  0  0
   37.9830   30.5140   39.4530 C   0  0  0  0  0  0  0  0  0  0  0  0
   38.4250   29.5700   40.2880 N   0  0  0  0  0  0  0  0  0  0  0  0
   37.8660   29.1950   41.4410 C   0  0  0  0  0  0  0  0  0  0  0  0
   36.7450   29.8230   41.8090 N   0  0  0  0  0  0  0  0  0  0  0  0
   35.3130   31.2790   41.3590 H   0  0  0  0  0  0  0  0  0  0  0  0
   36.4390   31.9250   39.1910 H   0  0  0  0  0  0  0  0  0  0  0  0
   38.6050   28.1250   42.1180 C   0  0  0  0  0  0  0  0  0  0  0  0
   39.6810   28.4130   42.9290 C   0  0  0  0  0  0  0  0  0  0  0  0
   40.0220   29.4490   43.0960 H   0  0  0  0  0  0  0  0  0  0  0  0
   40.4170   27.4570   43.5930 C   0  0  0  0  0  3  0  0  0  0  0  0
   40.1000   26.1250   43.4730 C   0  0  0  0  0  3  0  0  0  0  0  0
   39.0330   25.7900   42.6730 C   0  0  0  0  0  0  0  0  0  0  0  0
   38.7190   24.4590   42.5550 C   0  0  0  0  0  3  0  0  0  0  0  0
   37.6650   24.0360   41.7730 C   0  0  0  0  0  3  0  0  0  0  0  0
   36.9490   25.0480   41.1200 C   0  0  0  0  0  3  0  0  0  0  0  0
   37.2940   26.3710   41.2630 C   0  0  0  0  0  3  0  0  0  0  0  0
   38.3330   26.7840   42.0340 C   0  0  0  0  0  0  0  0  0  0  0  0
   38.7040   30.7630   38.3030 O   0  0  0  0  0  0  0  0  0  0  0  0
   39.8430   31.6080   38.4330 C   0  0  0  0  0  0  0  0  0  0  0  0
   40.9710   30.8140   38.6320 F   0  0  0  0  0  0  0  0  0  0  0  0
   40.0000   32.2860   37.2240 F   0  0  0  0  0  0  0  0  0  0  0  0
   39.6640   32.5520   39.4300 F   0  0  0  0  0  0  0  0  0  0  0  0
  1  7  1  0  0  0  0
  1  6  1  0  0  0  0
  2  1  2  0  0  0  0
  3  2  1  0  0  0  0
  3  4  2  0  0  0  0
  4  5  1  0  0  0  0
  5  6  2  0  0  0  0
  5  9  1  0  0  0  0
  8  2  1  0  0  0  0
  9 10  1  0  0  0  0
 10 11  1  0  0  0  0
 10 12  2  0  0  0  0
 13 12  1  0  0  0  0
 14 13  2  0  0  0  0
 15 14  1  0  0  0  0
 16 15  2  0  0  0  0
 17 18  2  0  0  0  0
 17 16  1  0  0  0  0
 18 19  1  0  0  0  0
 19  9  2  0  0  0  0
 19 14  1  0  0  0  0
 20 21  1  0  0  0  0
 20  3  1  0  0  0  0
 21 22  1  0  0  0  0
 21 24  1  0  0  0  0
 23 21  1  0  0  0  0
M  END
>  <minimizedAffinity>
-5.50038004

$$$$

 OpenBabel03242520523D

 24 26  0  0  0  0  0  0  0  0999 V2000
   37.3180   30.7540   36.9380 C   0  0  0  0  0  0  0  0  0  0  0  0
   37.4180   31.8530   37.7920 C   0  0  0  0  0  0  0  0  0  0  0  0
   37.4090   31.6430   39.1540 C   0  0  0  0  0  0  0  0  0  0  0  0
   37.3040   30.3690   39.5380 N   0  0  0  0  0  0  0  0  0  0  0  0
   37.2080   29.2990   38.7440 C   0  0  0  0  0  0  0  0  0  0  0  0
   37.2170   29.5150   37.4260 N   0  0  0  0  0  0  0  0  0  0  0  0
   37.3250   30.9070   35.8690 H   0  0  0  0  0  0  0  0  0  0  0  0
   37.5020   32.8730   37.4450 H   0  0  0  0  0  0  0  0  0  0  0  0
   37.1080   28.0380   39.4860 C   0  0  0  0  0  0  0  0  0  0  0  0
   36.9200   26.8430   38.8270 C   0  0  0  0  0  0  0  0  0  0  0  0
   36.8390   26.7910   37.7290 H   0  0  0  0  0  0  0  0  0  0  0  0
   36.8170   25.6270   39.4640 C   0  0  0  0  0  3  0  0  0  0  0  0
   36.9020   25.5460   40.8340 C   0  0  0  0  0  3  0  0  0  0  0  0
   37.0880   26.7150   41.5340 C   0  0  0  0  0  0  0  0  0  0  0  0
   37.1720   26.6320   42.9010 C   0  0  0  0  0  3  0  0  0  0  0  0
   37.3580   27.7550   43.6790 C   0  0  0  0  0  3  0  0  0  0  0  0
   37.4570   28.9660   42.9830 C   0  0  0  0  0  3  0  0  0  0  0  0
   37.3680   29.0090   41.6120 C   0  0  0  0  0  3  0  0  0  0  0  0
   37.1840   27.9010   40.8490 C   0  0  0  0  0  0  0  0  0  0  0  0
   37.4940   32.6160   40.1290 O   0  0  0  0  0  0  0  0  0  0  0  0
   38.7760   32.8240   40.7150 C   0  0  0  0  0  0  0  0  0  0  0  0
   38.9270   31.9470   41.7870 F   0  0  0  0  0  0  0  0  0  0  0  0
   39.7330   32.4990   39.7540 F   0  0  0  0  0  0  0  0  0  0  0  0
   38.9620   34.1490   41.0700 F   0  0  0  0  0  0  0  0  0  0  0  0
  1  6  2  0  0  0  0
  1  2  1  0  0  0  0
  2  3  2  0  0  0  0
  3  4  1  0  0  0  0
  3 20  1  0  0  0  0
  5  9  1  0  0  0  0
  5  4  2  0  0  0  0
  6  5  1  0  0  0  0
  7  1  1  0  0  0  0
  8  2  1  0  0  0  0
  9 19  1  0  0  0  0
 10 12  1  0  0  0  0
 10  9  2  0  0  0  0
 11 10  1  0  0  0  0
 12 13  2  0  0  0  0
 13 14  1  0  0  0  0
 14 15  1  0  0  0  0
 15 16  2  0  0  0  0
 17 16  1  0  0  0  0
 18 17  2  0  0  0  0
 19 14  2  0  0  0  0
 19 18  1  0  0  0  0
 20 21  1  0  0  0  0
 21 24  1  0  0  0  0
 21 22  1  0  0  0  0
 23 21  1  0  0  0  0
M  END
>  <minimizedAffinity>
-5.4763341

$$$$

 OpenBabel03242520523D

 24 26  0  0  0  0  0  0  0  0999 V2000
   34.7210   28.6110   37.3090 C   0  0  0  0  0  0  0  0  0  0  0  0
   35.7510   29.3750   36.7610 C   0  0  0  0  0  0  0  0  0  0  0  0
   36.9330   29.5010   37.4580 C   0  0  0  0  0  0  0  0  0  0  0  0
   36.9810   28.8580   38.6280 N   0  0  0  0  0  0  0  0  0  0  0  0
   36.0120   28.1200   39.1750 C   0  0  0  0  0  0  0  0  0  0  0  0
   34.8700   28.0060   38.4910 N   0  0  0  0  0  0  0  0  0  0  0  0
   33.7900   28.5050   36.7710 H   0  0  0  0  0  0  0  0  0  0  0  0
   35.6780   29.8830   35.8090 H   0  0  0  0  0  0  0  0  0  0  0  0
   36.3880   27.5480   40.4730 C   0  0  0  0  0  0  0  0  0  0  0  0
   36.3800   28.3190   41.6140 C   0  0  0  0  0  0  0  0  0  0  0  0
   36.0940   29.3840   41.5940 H   0  0  0  0  0  0  0  0  0  0  0  0
   36.7210   27.8440   42.8600 C   0  0  0  0  0  3  0  0  0  0  0  0
   37.0970   26.5320   43.0290 C   0  0  0  0  0  3  0  0  0  0  0  0
   37.1200   25.7250   41.9160 C   0  0  0  0  0  0  0  0  0  0  0  0
   37.4960   24.4160   42.0870 C   0  0  0  0  0  3  0  0  0  0  0  0
   37.5460   23.5380   41.0240 C   0  0  0  0  0  3  0  0  0  0  0  0
   37.1900   24.0720   39.7790 C   0  0  0  0  0  3  0  0  0  0  0  0
   36.8180   25.3880   39.6480 C   0  0  0  0  0  3  0  0  0  0  0  0
   36.7700   26.2500   40.6970 C   0  0  0  0  0  0  0  0  0  0  0  0
   38.0420   30.2200   37.0600 O   0  0  0  0  0  0  0  0  0  0  0  0
   37.9790   31.6340   37.2170 C   0  0  0  0  0  0  0  0  0  0  0  0
   37.5360   32.1990   36.0230 F   0  0  0  0  0  0  0  0  0  0  0  0
   37.0280   31.9030   38.2010 F   0  0  0  0  0  0  0  0  0  0  0  0
   39.1910   32.1510   37.6440 F   0  0  0  0  0  0  0  0  0  0  0  0
  1  6  1  0  0  0  0
  2  1  2  0  0  0  0
  2  3  1  0  0  0  0
  3  4  2  0  0  0  0
  4  5  1  0  0  0  0
  5  9  1  0  0  0  0
  6  5  2  0  0  0  0
  7  1  1  0  0  0  0
  8  2  1  0  0  0  0
  9 19  2  0  0  0  0
  9 10  1  0  0  0  0
 10 12  2  0  0  0  0
 11 10  1  0  0  0  0
 12 13  1  0  0  0  0
 14 15  1  0  0  0  0
 14 13  2  0  0  0  0
 16 15  2  0  0  0  0
 17 16  1  0  0  0  0
 18 17  2  0  0  0  0
 18 19  1  0  0  0  0
 19 14  1  0  0  0  0
 20 21  1  0  0  0  0
 20  3  1  0  0  0  0
 21 24  1  0  0  0  0
 21 23  1  0  0  0  0
 22 21  1  0  0  0  0
M  END
>  <minimizedAffinity>
-5.41318178

$$$$

 OpenBabel03242520523D

 24 26  0  0  0  0  0  0  0  0999 V2000
   36.6980   27.5560   43.6390 C   0  0  0  0  0  0  0  0  0  0  0  0
   36.8650   26.4660   42.7870 C   0  0  0  0  0  0  0  0  0  0  0  0
   37.7720   26.5580   41.7520 C   0  0  0  0  0  0  0  0  0  0  0  0
   38.4250   27.7200   41.6650 N   0  0  0  0  0  0  0  0  0  0  0  0
   38.2860   28.7790   42.4670 C   0  0  0  0  0  0  0  0  0  0  0  0
   37.4030   28.6770   43.4640 N   0  0  0  0  0  0  0  0  0  0  0  0
   35.9890   27.4940   44.4530 H   0  0  0  0  0  0  0  0  0  0  0  0
   36.3180   25.5390   42.8870 H   0  0  0  0  0  0  0  0  0  0  0  0
   39.1560   29.9000   42.0960 C   0  0  0  0  0  0  0  0  0  0  0  0
   40.4780   29.9270   42.4820 C   0  0  0  0  0  0  0  0  0  0  0  0
   40.9260   29.1140   43.0780 H   0  0  0  0  0  0  0  0  0  0  0  0
   41.3460   30.9480   42.1680 C   0  0  0  0  0  3  0  0  0  0  0  0
   40.9180   32.0250   41.4280 C   0  0  0  0  0  3  0  0  0  0  0  0
   39.6050   32.0420   41.0220 C   0  0  0  0  0  0  0  0  0  0  0  0
   39.1810   33.1180   40.2840 C   0  0  0  0  0  3  0  0  0  0  0  0
   37.8800   33.2150   39.8360 C   0  0  0  0  0  3  0  0  0  0  0  0
   37.0390   32.1500   40.1830 C   0  0  0  0  0  3  0  0  0  0  0  0
   37.5000   31.0880   40.9230 C   0  0  0  0  0  3  0  0  0  0  0  0
   38.7820   30.9970   41.3630 C   0  0  0  0  0  0  0  0  0  0  0  0
   38.0530   25.5770   40.8230 O   0  0  0  0  0  0  0  0  0  0  0  0
   38.7130   24.4110   41.3040 C   0  0  0  0  0  0  0  0  0  0  0  0
   39.5630   24.7740   42.3470 F   0  0  0  0  0  0  0  0  0  0  0  0
   37.7360   23.5590   41.8190 F   0  0  0  0  0  0  0  0  0  0  0  0
   39.3660   23.7410   40.2830 F   0  0  0  0  0  0  0  0  0  0  0  0
  1  7  1  0  0  0  0
  2  8  1  0  0  0  0
  2  1  2  0  0  0  0
  3  2  1  0  0  0  0
  4  3  2  0  0  0  0
  4  5  1  0  0  0  0
  5  6  2  0  0  0  0
  6  1  1  0  0  0  0
  9  5  1  0  0  0  0
  9 10  1  0  0  0  0
 10 11  1  0  0  0  0
 12 10  2  0  0  0  0
 13 12  1  0  0  0  0
 14 19  1  0  0  0  0
 14 13  2  0  0  0  0
 15 14  1  0  0  0  0
 16 17  1  0  0  0  0
 16 15  2  0  0  0  0
 17 18  2  0  0  0  0
 18 19  1  0  0  0  0
 19  9  2  0  0  0  0
 20 21  1  0  0  0  0
 20  3  1  0  0  0  0
 21 23  1  0  0  0  0
 21 22  1  0  0  0  0
 24 21  1  0  0  0  0
M  END
>  <minimizedAffinity>
-5.31865358

$$$$
