
 OpenBabel03252501483D

 35 38  0  0  0  0  0  0  0  0999 V2000
   44.1090   33.5200   40.6550 C   0  0  0  0  0  0  0  0  0  0  0  0
   44.4170   34.6790   41.3800 C   0  0  0  0  0  0  0  0  0  0  0  0
   43.4450   35.6970   41.5280 C   0  0  0  0  0  0  0  0  0  0  0  0
   42.2330   35.4790   40.9390 N   0  0  0  0  0  0  0  0  0  0  0  0
   41.9730   34.3630   40.2560 C   0  0  0  0  0  0  0  0  0  0  0  0
   42.9000   33.3970   40.1170 N   0  0  0  0  0  0  0  0  0  0  0  0
   44.8800   32.7840   40.5760 H   0  0  0  0  0  0  0  0  0  0  0  0
   43.6500   36.6050   42.0810 H   0  0  0  0  0  0  0  0  0  0  0  0
   39.7740   33.6010   41.7610 F   0  0  0  0  0  0  0  0  0  0  0  0
   39.5670   33.8070   40.4280 C   0  0  0  0  0  0  0  0  0  0  0  0
   40.6580   34.1910   39.6490 C   0  0  0  0  0  0  0  0  0  0  0  0
   40.5140   34.4140   38.3040 C   0  0  0  0  0  0  0  0  0  0  0  0
   39.2530   34.2470   37.7400 C   0  0  0  0  0  0  0  0  0  0  0  0
   38.1520   33.8620   38.5140 C   0  0  0  0  0  0  0  0  0  0  0  0
   38.3220   33.6420   39.8740 C   0  0  0  0  0  0  0  0  0  0  0  0
   41.3480   34.7120   37.6800 H   0  0  0  0  0  0  0  0  0  0  0  0
   39.1610   34.4290   36.6720 H   0  0  0  0  0  0  0  0  0  0  0  0
   37.1930   33.7390   38.0630 H   0  0  0  0  0  0  0  0  0  0  0  0
   37.5060   33.3450   40.5090 H   0  0  0  0  0  0  0  0  0  0  0  0
   45.7320   34.8820   42.0000 C   0  0  0  0  0  0  0  0  0  0  0  0
   46.8750   34.8970   41.2990 C   0  0  0  0  0  0  0  0  0  0  0  0
   48.1850   35.1140   42.0040 C   0  0  0  0  0  0  0  0  0  0  0  0
   47.9820   35.1220   43.0740 H   0  0  0  0  0  0  0  0  0  0  0  0
   48.6480   36.0630   41.6910 H   0  0  0  0  0  0  0  0  0  0  0  0
   49.1160   33.9760   41.7050 C   0  0  0  0  0  0  0  0  0  0  0  0
   50.0810   33.4810   42.5770 C   0  0  0  0  0  0  0  0  0  0  0  0
   50.1190   33.9890   43.5200 H   0  0  0  0  0  0  0  0  0  0  0  0
   50.8780   32.4320   42.1970 C   0  0  0  0  0  0  0  0  0  0  0  0
   50.7550   31.8490   40.9730 C   0  0  0  0  0  0  0  0  0  0  0  0
   49.8130   32.3110   40.0840 C   0  0  0  0  0  0  0  0  0  0  0  0
   49.7550   31.6660   38.8680 C   0  0  0  0  0  0  0  0  0  0  0  0
   48.8060   32.1190   37.9490 C   0  0  0  0  0  0  0  0  0  0  0  0
   47.9600   33.1810   38.2670 C   0  0  0  0  0  0  0  0  0  0  0  0
   48.1000   33.7580   39.5120 C   0  0  0  0  0  0  0  0  0  0  0  0
   49.0120   33.3650   40.4660 C   0  0  0  0  0  0  0  0  0  0  0  0
  1  2  1  0  0  0  0
  2  3  2  0  0  0  0
  2 20  1  0  0  0  0
  3  8  1  0  0  0  0
  4  3  1  0  0  0  0
  5  4  2  0  0  0  0
  6  5  1  0  0  0  0
  6  1  2  0  0  0  0
  7  1  1  0  0  0  0
 10  9  1  0  0  0  0
 11  5  1  0  0  0  0
 11 10  2  0  0  0  0
 12 11  1  0  0  0  0
 13 12  2  0  0  0  0
 13 14  1  0  0  0  0
 14 15  2  0  0  0  0
 15 10  1  0  0  0  0
 15 19  1  0  0  0  0
 16 12  1  0  0  0  0
 17 13  1  0  0  0  0
 18 14  1  0  0  0  0
 21 20  2  0  0  0  0
 21 22  1  0  0  0  0
 22 23  1  0  0  0  0
 24 22  1  0  0  0  0
 25 22  1  0  0  0  0
 25 26  1  0  0  0  0
 26 27  1  0  0  0  0
 28 26  2  0  0  0  0
 29 28  1  0  0  0  0
 30 35  1  0  0  0  0
 30 29  2  0  0  0  0
 31 30  1  0  0  0  0
 32 33  1  0  0  0  0
 32 31  2  0  0  0  0
 33 34  2  0  0  0  0
 34 35  1  0  0  0  0
 35 25  2  0  0  0  0
M  END
>  <minimizedAffinity>
-6.71241236

>  <minimizedRMSD>
0.938554108

$$$$
