
 OpenBabel03252506383D

 46 50  0  0  1  0  0  0  0  0999 V2000
   44.5110   35.5310   45.1200 C   0  0  0  0  0  0  0  0  0  0  0  0
   45.1650   35.5170   43.8800 C   0  0  0  0  0  0  0  0  0  0  0  0
   46.0830   34.5560   43.6270 C   0  0  0  0  0  0  0  0  0  0  0  0
   46.3170   33.6500   44.6090 N   0  0  0  0  0  0  0  0  0  0  0  0
   45.6970   33.6670   45.7790 C   0  0  0  0  0  0  0  0  0  0  0  0
   44.7880   34.6010   46.0560 N   0  0  0  0  0  0  0  0  0  0  0  0
   46.0260   32.6580   46.7500 N   0  0  0  0  0  0  0  0  0  0  0  0
   45.2860   32.4140   47.9370 C   0  0  0  0  0  0  0  0  0  0  0  0
   46.3630   32.0710   48.9500 C   0  0  0  0  0  0  0  0  0  0  0  0
   47.6430   31.9640   48.1810 C   0  0  0  0  0  0  0  0  0  0  0  0
   47.1460   31.7460   46.7530 C   0  0  1  0  0  0  0  0  0  0  0  0
   43.7640   36.2750   45.3860 H   0  0  0  0  0  0  0  0  0  0  0  0
   46.5880   34.5300   42.6930 H   0  0  0  0  0  0  0  0  0  0  0  0
   44.9310   33.4360   48.2920 H   0  0  0  0  0  0  0  0  0  0  0  0
   44.4500   31.7950   48.0160 H   0  0  0  0  0  0  0  0  0  0  0  0
   46.3890   32.7100   49.8290 H   0  0  0  0  0  0  0  0  0  0  0  0
   46.1220   31.0410   49.3270 H   0  0  0  0  0  0  0  0  0  0  0  0
   48.2810   31.1220   48.5160 H   0  0  0  0  0  0  0  0  0  0  0  0
   48.1700   32.9410   48.2100 H   0  0  0  0  0  0  0  0  0  0  0  0
   47.9510   32.0310   46.0520 H   0  0  0  0  0  0  0  0  0  0  0  0
   44.8020   36.5490   42.9470 N   0  0  0  0  0  0  0  0  0  0  0  0
   44.0020   36.1350   42.4250 H   0  0  0  0  0  0  0  0  0  0  0  0
   45.2940   37.4730   42.8860 H   0  0  0  0  0  0  0  0  0  0  0  0
   46.6320   30.0540   46.5740 S   0  0  0  0  0  0  0  0  0  0  0  0
   45.7120   30.5450   43.4040 O   0  0  0  0  0  0  0  0  0  0  0  0
   45.0570   29.9990   44.3060 C   0  0  0  0  0  0  0  0  0  0  0  0
   45.1110   29.7670   45.7700 C   0  0  1  0  0  0  0  0  0  0  0  0
   44.5720   28.3620   45.8830 C   0  0  0  0  0  0  0  0  0  0  0  0
   43.2800   28.5730   45.0840 C   0  0  0  0  0  0  0  0  0  0  0  0
   43.8240   29.3370   43.9680 N   0  0  0  0  0  0  0  0  0  0  0  0
   44.2150   30.3670   46.0900 H   0  0  0  0  0  0  0  0  0  0  0  0
   44.3010   28.1280   46.9260 H   0  0  0  0  0  0  0  0  0  0  0  0
   45.1930   27.6100   45.3950 H   0  0  0  0  0  0  0  0  0  0  0  0
   42.5290   29.1130   45.6690 H   0  0  0  0  0  0  0  0  0  0  0  0
   42.9440   27.5650   44.7570 H   0  0  0  0  0  0  0  0  0  0  0  0
   43.0790   29.3220   42.7350 C   0  0  0  0  0  0  0  0  0  0  0  0
   42.1060   30.3140   42.6720 C   0  0  0  0  0  0  0  0  0  0  0  0
   41.9060   31.0360   43.4490 H   0  0  0  0  0  0  0  0  0  0  0  0
   41.2830   30.4570   41.5550 C   0  0  0  0  0  3  0  0  0  0  0  0
   41.4820   29.5610   40.5140 C   0  0  0  0  0  3  0  0  0  0  0  0
   42.4410   28.5840   40.5790 C   0  0  0  0  0  0  0  0  0  0  0  0
   42.6650   27.6750   39.5580 C   0  0  0  0  0  3  0  0  0  0  0  0
   43.6320   26.7190   39.6700 C   0  0  0  0  0  3  0  0  0  0  0  0
   44.4420   26.6020   40.8020 C   0  0  0  0  0  3  0  0  0  0  0  0
   44.2400   27.5020   41.8470 C   0  0  0  0  0  3  0  0  0  0  0  0
   43.2650   28.4420   41.6980 C   0  0  0  0  0  0  0  0  0  0  0  0
  1 12  1  0  0  0  0
  1  6  1  0  0  0  0
  2  1  2  0  0  0  0
  3  2  1  0  0  0  0
  3  4  2  0  0  0  0
  4  5  1  0  0  0  0
  5  6  2  0  0  0  0
  5  7  1  0  0  0  0
  7 11  1  0  0  0  0
  7  8  1  0  0  0  0
  8 15  1  0  0  0  0
  8 14  1  0  0  0  0
  8  9  1  0  0  0  0
  9 17  1  0  0  0  0
  9 16  1  0  0  0  0
 10 19  1  0  0  0  0
 10 18  1  0  0  0  0
 10  9  1  0  0  0  0
 11 20  1  6  0  0  0
 11 10  1  0  0  0  0
 13  3  1  0  0  0  0
 21  2  1  0  0  0  0
 22 21  1  0  0  0  0
 23 21  1  0  0  0  0
 24 11  1  0  0  0  0
 25 26  2  0  0  0  0
 26 27  1  0  0  0  0
 27 28  1  0  0  0  0
 27 31  1  1  0  0  0
 27 24  1  0  0  0  0
 28 32  1  0  0  0  0
 29 34  1  0  0  0  0
 29 28  1  0  0  0  0
 30 26  1  0  0  0  0
 30 29  1  0  0  0  0
 33 28  1  0  0  0  0
 35 29  1  0  0  0  0
 36 30  1  0  0  0  0
 37 36  1  0  0  0  0
 37 38  1  0  0  0  0
 39 37  2  0  0  0  0
 40 41  2  0  0  0  0
 40 39  1  0  0  0  0
 41 46  1  0  0  0  0
 42 43  2  0  0  0  0
 42 41  1  0  0  0  0
 43 44  1  0  0  0  0
 44 45  2  0  0  0  0
 46 45  1  0  0  0  0
 46 36  2  0  0  0  0
M  END
>  <minimizedAffinity>
-5.35320568

>  <minimizedRMSD>
0.460386395

$$$$
