
 OpenBabel03242523473D

 21 23  0  0  0  0  0  0  0  0999 V2000
   46.9910   33.5180   41.9920 C   0  0  0  0  0  0  0  0  0  0  0  0
   47.6560   32.4590   42.6000 C   0  0  0  0  0  0  0  0  0  0  0  0
   48.2990   31.7960   42.0160 H   0  0  0  0  0  0  0  0  0  0  0  0
   47.5880   32.1370   43.9350 C   0  0  0  0  0  0  0  0  0  0  0  0
   46.8030   32.9110   44.7570 C   0  0  0  0  0  0  0  0  0  0  0  0
   46.1170   33.9650   44.2370 C   0  0  0  0  0  0  0  0  0  0  0  0
   45.3170   34.7030   45.0500 C   0  0  0  0  0  0  0  0  0  0  0  0
   44.5610   35.7730   44.5650 C   0  0  0  0  0  0  0  0  0  0  0  0
   44.6810   36.0300   43.1960 C   0  0  0  0  0  0  0  0  0  0  0  0
   45.4930   35.2660   42.4240 C   0  0  0  0  0  0  0  0  0  0  0  0
   46.2390   34.2180   42.8960 C   0  0  0  0  0  0  0  0  0  0  0  0
   48.1880   34.3780   38.4750 C   0  0  0  0  0  0  0  0  0  0  0  0
   48.1310   34.4000   39.8660 C   0  0  0  0  0  0  0  0  0  0  0  0
   47.1800   33.6860   40.5800 C   0  0  0  0  0  0  0  0  0  0  0  0
   46.3310   32.9770   39.7990 N   0  0  0  0  0  0  0  0  0  0  0  0
   46.3730   32.9430   38.4660 C   0  0  0  0  0  0  0  0  0  0  0  0
   47.2990   33.6430   37.8230 N   0  0  0  0  0  0  0  0  0  0  0  0
   48.8710   34.9470   40.3630 H   0  0  0  0  0  0  0  0  0  0  0  0
   45.6520   32.3450   37.9070 H   0  0  0  0  0  0  0  0  0  0  0  0
   49.1530   35.1100   37.8590 O   0  0  0  0  0  0  0  0  0  0  0  0
   50.0930   35.2510   38.2180 H   0  0  0  0  0  0  0  0  0  0  0  0
  1  2  2  0  0  0  0
  1 11  1  0  0  0  0
  2  4  1  0  0  0  0
  3  2  1  0  0  0  0
  4  5  2  0  0  0  0
  6  5  1  0  0  0  0
  6  7  1  0  0  0  0
  8  7  2  0  0  0  0
  9  8  1  0  0  0  0
 10 11  1  0  0  0  0
 10  9  2  0  0  0  0
 11  6  2  0  0  0  0
 12 13  1  0  0  0  0
 13 18  1  0  0  0  0
 13 14  2  0  0  0  0
 14  1  1  0  0  0  0
 15 14  1  0  0  0  0
 16 15  2  0  0  0  0
 17 16  1  0  0  0  0
 17 12  2  0  0  0  0
 19 16  1  0  0  0  0
 20 21  1  0  0  0  0
 20 12  1  0  0  0  0
M  END
>  <minimizedAffinity>
-5.58472157

>  <minimizedRMSD>
5.53544807

$$$$
