
 OpenBabel03252508363D

 33 36  0  0  0  0  0  0  0  0999 V2000
   38.7250   29.7790   39.3280 C   0  0  0  0  0  0  0  0  0  0  0  0
   38.8030   30.4440   38.1120 C   0  0  0  0  0  0  0  0  0  0  0  0
   37.6420   30.7120   37.4590 C   0  0  0  0  0  0  0  0  0  0  0  0
   36.3940   30.3590   37.9400 C   0  0  0  0  0  0  0  0  0  0  0  0
   36.3360   29.6950   39.1550 C   0  0  0  0  0  0  0  0  0  0  0  0
   37.4850   29.4080   39.8420 C   0  0  0  0  0  0  0  0  0  0  0  0
   37.7100   31.2340   36.5040 H   0  0  0  0  0  0  0  0  0  0  0  0
   35.4840   30.5810   37.4060 H   0  0  0  0  0  0  0  0  0  0  0  0
   35.4240   29.3760   39.6180 H   0  0  0  0  0  0  0  0  0  0  0  0
   41.8350   32.4410   37.0740 C   0  0  0  0  0  0  0  0  0  0  0  0
   40.5280   32.1460   37.5230 C   0  0  0  0  0  0  0  0  0  0  0  0
   40.1440   30.7930   37.6500 C   0  0  0  0  0  0  0  0  0  0  0  0
   41.0670   29.8580   37.3270 N   0  0  0  0  0  0  0  0  0  0  0  0
   42.2970   30.1730   36.9040 C   0  0  0  0  0  0  0  0  0  0  0  0
   42.6810   31.4610   36.7770 N   0  0  0  0  0  0  0  0  0  0  0  0
   42.1890   33.7950   36.9590 N   0  0  0  0  0  0  0  0  0  0  0  0
   39.8280   32.9240   37.7690 H   0  0  0  0  0  0  0  0  0  0  0  0
   43.0540   29.4520   36.6390 H   0  0  0  0  0  0  0  0  0  0  0  0
   42.8570   34.1190   36.2220 H   0  0  0  0  0  0  0  0  0  0  0  0
   41.7730   34.4840   37.6220 H   0  0  0  0  0  0  0  0  0  0  0  0
   37.4440   28.7030   41.1360 C   0  0  0  0  0  0  0  0  0  0  0  0
   37.5880   29.4440   42.2910 C   0  0  0  0  0  0  0  0  0  0  0  0
   37.7320   30.5130   42.3240 H   0  0  0  0  0  0  0  0  0  0  0  0
   37.5470   28.7660   43.5110 C   0  0  0  0  0  3  0  0  0  0  0  0
   37.3660   27.4100   43.4740 C   0  0  0  0  0  3  0  0  0  0  0  0
   37.2180   26.6430   42.3420 C   0  0  0  0  0  0  0  0  0  0  0  0
   37.0370   25.2770   42.3590 C   0  0  0  0  0  3  0  0  0  0  0  0
   36.8950   24.5650   41.1770 C   0  0  0  0  0  3  0  0  0  0  0  0
   36.9490   25.3180   40.0220 C   0  0  0  0  0  3  0  0  0  0  0  0
   37.1260   26.6830   39.9210 C   0  0  0  0  0  3  0  0  0  0  0  0
   37.2620   27.3360   41.1310 C   0  0  0  0  0  0  0  0  0  0  0  0
   40.8430   29.1770   40.7130 N   0  0  0  0  0  0  0  0  0  0  0  0
   39.8920   29.4560   40.0820 C   0  0  0  0  0  0  0  0  0  0  0  0
  1  6  1  0  0  0  0
  1 33  1  0  0  0  0
  2  1  2  0  0  0  0
  3  4  2  0  0  0  0
  3  2  1  0  0  0  0
  4  5  1  0  0  0  0
  5  9  1  0  0  0  0
  5  6  2  0  0  0  0
  6 21  1  0  0  0  0
  7  3  1  0  0  0  0
  8  4  1  0  0  0  0
 10 11  1  0  0  0  0
 11 12  2  0  0  0  0
 11 17  1  0  0  0  0
 12  2  1  0  0  0  0
 13 12  1  0  0  0  0
 14 13  2  0  0  0  0
 15 14  1  0  0  0  0
 15 10  2  0  0  0  0
 16 10  1  0  0  0  0
 16 20  1  0  0  0  0
 18 14  1  0  0  0  0
 19 16  1  0  0  0  0
 21 22  1  0  0  0  0
 22 23  1  0  0  0  0
 22 24  2  0  0  0  0
 25 24  1  0  0  0  0
 26 27  1  0  0  0  0
 26 25  2  0  0  0  0
 28 27  2  0  0  0  0
 29 28  1  0  0  0  0
 30 29  2  0  0  0  0
 30 31  1  0  0  0  0
 31 21  2  0  0  0  0
 31 26  1  0  0  0  0
 33 32  3  0  0  0  0
M  END
>  <minimizedAffinity>
-6.82823467

$$$$

 OpenBabel03252508363D

 33 36  0  0  0  0  0  0  0  0999 V2000
   38.7260   29.3750   41.1000 C   0  0  0  0  0  0  0  0  0  0  0  0
   38.2010   30.5820   40.6590 C   0  0  0  0  0  0  0  0  0  0  0  0
   36.8620   30.7750   40.7800 C   0  0  0  0  0  0  0  0  0  0  0  0
   36.0000   29.8370   41.3180 C   0  0  0  0  0  0  0  0  0  0  0  0
   36.5410   28.6380   41.7520 C   0  0  0  0  0  0  0  0  0  0  0  0
   37.8860   28.4070   41.6460 C   0  0  0  0  0  0  0  0  0  0  0  0
   36.4570   31.7250   40.4330 H   0  0  0  0  0  0  0  0  0  0  0  0
   34.9390   30.0100   41.4050 H   0  0  0  0  0  0  0  0  0  0  0  0
   35.9640   27.8430   42.1820 H   0  0  0  0  0  0  0  0  0  0  0  0
   40.3330   32.5120   38.2110 C   0  0  0  0  0  0  0  0  0  0  0  0
   39.4030   31.5730   38.7110 C   0  0  0  0  0  0  0  0  0  0  0  0
   39.1560   31.5370   40.1010 C   0  0  0  0  0  0  0  0  0  0  0  0
   39.8380   32.4160   40.8710 N   0  0  0  0  0  0  0  0  0  0  0  0
   40.7130   33.2920   40.3640 C   0  0  0  0  0  0  0  0  0  0  0  0
   40.9610   33.3400   39.0380 N   0  0  0  0  0  0  0  0  0  0  0  0
   40.5580   32.5260   36.8250 N   0  0  0  0  0  0  0  0  0  0  0  0
   38.8840   30.8930   38.0600 H   0  0  0  0  0  0  0  0  0  0  0  0
   41.2720   34.0050   40.9500 H   0  0  0  0  0  0  0  0  0  0  0  0
   41.4950   32.7710   36.4310 H   0  0  0  0  0  0  0  0  0  0  0  0
   39.7720   32.2830   36.1850 H   0  0  0  0  0  0  0  0  0  0  0  0
   38.4810   27.1370   42.1030 C   0  0  0  0  0  0  0  0  0  0  0  0
   39.2380   27.1460   43.2560 C   0  0  0  0  0  0  0  0  0  0  0  0
   39.4340   28.0190   43.8580 H   0  0  0  0  0  0  0  0  0  0  0  0
   39.7960   25.9380   43.6790 C   0  0  0  0  0  3  0  0  0  0  0  0
   39.5510   24.8280   42.9170 C   0  0  0  0  0  3  0  0  0  0  0  0
   38.8020   24.7860   41.7660 C   0  0  0  0  0  0  0  0  0  0  0  0
   38.5840   23.6390   41.0330 C   0  0  0  0  0  3  0  0  0  0  0  0
   37.8160   23.6680   39.8790 C   0  0  0  0  0  3  0  0  0  0  0  0
   37.3060   24.9040   39.5380 C   0  0  0  0  0  3  0  0  0  0  0  0
   37.4770   26.0940   40.2150 C   0  0  0  0  0  3  0  0  0  0  0  0
   38.2510   26.0010   41.3560 C   0  0  0  0  0  0  0  0  0  0  0  0
   41.2720   28.8660   40.9380 N   0  0  0  0  0  0  0  0  0  0  0  0
   40.1200   29.0850   41.0110 C   0  0  0  0  0  0  0  0  0  0  0  0
  1  6  1  0  0  0  0
  2  3  1  0  0  0  0
  2  1  2  0  0  0  0
  3  4  2  0  0  0  0
  4  8  1  0  0  0  0
  4  5  1  0  0  0  0
  5  9  1  0  0  0  0
  6  5  2  0  0  0  0
  6 21  1  0  0  0  0
  7  3  1  0  0  0  0
 10 11  2  0  0  0  0
 10 15  1  0  0  0  0
 11 12  1  0  0  0  0
 12  2  1  0  0  0  0
 12 13  2  0  0  0  0
 14 13  1  0  0  0  0
 14 18  1  0  0  0  0
 15 14  2  0  0  0  0
 16 10  1  0  0  0  0
 17 11  1  0  0  0  0
 19 16  1  0  0  0  0
 20 16  1  0  0  0  0
 21 22  1  0  0  0  0
 22 24  2  0  0  0  0
 22 23  1  0  0  0  0
 25 24  1  0  0  0  0
 26 25  2  0  0  0  0
 27 26  1  0  0  0  0
 28 27  2  0  0  0  0
 29 28  1  0  0  0  0
 29 30  2  0  0  0  0
 30 31  1  0  0  0  0
 31 26  1  0  0  0  0
 31 21  2  0  0  0  0
 32 33  3  0  0  0  0
 33  1  1  0  0  0  0
M  END
>  <minimizedAffinity>
-6.27249002

$$$$

 OpenBabel03252508363D

 33 36  0  0  0  0  0  0  0  0999 V2000
   38.1080   30.0430   39.6190 C   0  0  0  0  0  0  0  0  0  0  0  0
   38.1100   30.9910   38.6060 C   0  0  0  0  0  0  0  0  0  0  0  0
   37.1540   30.8970   37.6460 C   0  0  0  0  0  0  0  0  0  0  0  0
   36.1830   29.9120   37.6270 C   0  0  0  0  0  0  0  0  0  0  0  0
   36.1970   28.9740   38.6470 C   0  0  0  0  0  0  0  0  0  0  0  0
   37.1460   29.0360   39.6320 C   0  0  0  0  0  0  0  0  0  0  0  0
   37.1600   31.6450   36.8530 H   0  0  0  0  0  0  0  0  0  0  0  0
   35.4320   29.8550   36.8560 H   0  0  0  0  0  0  0  0  0  0  0  0
   35.4930   28.1700   38.7280 H   0  0  0  0  0  0  0  0  0  0  0  0
   41.1960   33.0260   37.8280 C   0  0  0  0  0  0  0  0  0  0  0  0
   40.2040   32.0240   37.7270 C   0  0  0  0  0  0  0  0  0  0  0  0
   39.1570   32.0090   38.6740 C   0  0  0  0  0  0  0  0  0  0  0  0
   39.1740   32.9690   39.6270 N   0  0  0  0  0  0  0  0  0  0  0  0
   40.1300   33.9030   39.6940 C   0  0  0  0  0  0  0  0  0  0  0  0
   41.1390   33.9320   38.7970 N   0  0  0  0  0  0  0  0  0  0  0  0
   42.2250   33.0160   36.8730 N   0  0  0  0  0  0  0  0  0  0  0  0
   40.2310   31.2800   36.9510 H   0  0  0  0  0  0  0  0  0  0  0  0
   40.1730   34.6800   40.4410 H   0  0  0  0  0  0  0  0  0  0  0  0
   43.1910   33.3310   37.1150 H   0  0  0  0  0  0  0  0  0  0  0  0
   42.0130   32.6840   35.9070 H   0  0  0  0  0  0  0  0  0  0  0  0
   37.1770   28.0480   40.7250 C   0  0  0  0  0  0  0  0  0  0  0  0
   36.5310   28.3550   41.9050 C   0  0  0  0  0  0  0  0  0  0  0  0
   35.9990   29.2740   42.0950 H   0  0  0  0  0  0  0  0  0  0  0  0
   36.5670   27.4110   42.9330 C   0  0  0  0  0  3  0  0  0  0  0  0
   37.2420   26.2450   42.6960 C   0  0  0  0  0  3  0  0  0  0  0  0
   37.8940   25.9080   41.5340 C   0  0  0  0  0  0  0  0  0  0  0  0
   38.5610   24.7170   41.3450 C   0  0  0  0  0  3  0  0  0  0  0  0
   39.1980   24.4420   40.1450 C   0  0  0  0  0  3  0  0  0  0  0  0
   39.1100   25.4320   39.1870 C   0  0  0  0  0  3  0  0  0  0  0  0
   38.4640   26.6460   39.2980 C   0  0  0  0  0  3  0  0  0  0  0  0
   37.8490   26.8620   40.5160 C   0  0  0  0  0  0  0  0  0  0  0  0
   39.8630   30.0660   41.5410 N   0  0  0  0  0  0  0  0  0  0  0  0
   39.0760   30.0640   40.6680 C   0  0  0  0  0  0  0  0  0  0  0  0
  1  6  1  0  0  0  0
  1 33  1  0  0  0  0
  2 12  1  0  0  0  0
  2  1  2  0  0  0  0
  3  2  1  0  0  0  0
  4  3  2  0  0  0  0
  4  5  1  0  0  0  0
  5  9  1  0  0  0  0
  5  6  2  0  0  0  0
  6 21  1  0  0  0  0
  7  3  1  0  0  0  0
  8  4  1  0  0  0  0
 10 15  1  0  0  0  0
 11 10  2  0  0  0  0
 11 12  1  0  0  0  0
 12 13  2  0  0  0  0
 13 14  1  0  0  0  0
 14 18  1  0  0  0  0
 15 14  2  0  0  0  0
 16 19  1  0  0  0  0
 16 10  1  0  0  0  0
 17 11  1  0  0  0  0
 20 16  1  0  0  0  0
 21 22  1  0  0  0  0
 22 23  1  0  0  0  0
 22 24  2  0  0  0  0
 25 24  1  0  0  0  0
 26 25  2  0  0  0  0
 27 26  1  0  0  0  0
 28 27  2  0  0  0  0
 29 30  2  0  0  0  0
 29 28  1  0  0  0  0
 30 31  1  0  0  0  0
 31 21  2  0  0  0  0
 31 26  1  0  0  0  0
 33 32  3  0  0  0  0
M  END
>  <minimizedAffinity>
-6.15977669

$$$$

 OpenBabel03252508363D

 33 36  0  0  0  0  0  0  0  0999 V2000
   38.1870   27.6420   41.4050 C   0  0  0  0  0  0  0  0  0  0  0  0
   37.3200   26.5960   41.6880 C   0  0  0  0  0  0  0  0  0  0  0  0
   36.5600   26.6860   42.8100 C   0  0  0  0  0  0  0  0  0  0  0  0
   36.6050   27.7610   43.6800 C   0  0  0  0  0  0  0  0  0  0  0  0
   37.4770   28.7950   43.3810 C   0  0  0  0  0  0  0  0  0  0  0  0
   38.2590   28.7400   42.2590 C   0  0  0  0  0  0  0  0  0  0  0  0
   35.8810   25.8620   43.0270 H   0  0  0  0  0  0  0  0  0  0  0  0
   35.9930   27.8140   44.5660 H   0  0  0  0  0  0  0  0  0  0  0  0
   37.5920   29.6730   43.9860 H   0  0  0  0  0  0  0  0  0  0  0  0
   37.8250   23.1850   40.1460 C   0  0  0  0  0  0  0  0  0  0  0  0
   37.8530   24.2320   41.0950 C   0  0  0  0  0  0  0  0  0  0  0  0
   37.3120   25.4860   40.7370 C   0  0  0  0  0  0  0  0  0  0  0  0
   36.7980   25.6020   39.4910 N   0  0  0  0  0  0  0  0  0  0  0  0
   36.7880   24.5890   38.6170 C   0  0  0  0  0  0  0  0  0  0  0  0
   37.3010   23.3840   38.9430 N   0  0  0  0  0  0  0  0  0  0  0  0
   38.3700   21.9490   40.5300 N   0  0  0  0  0  0  0  0  0  0  0  0
   38.2740   24.0940   42.0750 H   0  0  0  0  0  0  0  0  0  0  0  0
   36.3860   24.6490   37.6170 H   0  0  0  0  0  0  0  0  0  0  0  0
   38.8410   21.3260   39.8360 H   0  0  0  0  0  0  0  0  0  0  0  0
   38.3020   21.6570   41.5290 H   0  0  0  0  0  0  0  0  0  0  0  0
   39.1930   29.8310   41.9240 C   0  0  0  0  0  0  0  0  0  0  0  0
   40.5050   29.7190   42.3360 C   0  0  0  0  0  0  0  0  0  0  0  0
   40.9080   28.8870   42.8920 H   0  0  0  0  0  0  0  0  0  0  0  0
   41.3800   30.7580   42.0130 C   0  0  0  0  0  3  0  0  0  0  0  0
   40.8730   31.8150   41.3080 C   0  0  0  0  0  3  0  0  0  0  0  0
   39.5730   31.9560   40.8830 C   0  0  0  0  0  0  0  0  0  0  0  0
   39.1110   33.0440   40.1750 C   0  0  0  0  0  3  0  0  0  0  0  0
   37.7850   33.1210   39.7770 C   0  0  0  0  0  3  0  0  0  0  0  0
   36.9940   32.0510   40.1400 C   0  0  0  0  0  3  0  0  0  0  0  0
   37.3790   30.9290   40.8460 C   0  0  0  0  0  3  0  0  0  0  0  0
   38.7110   30.9100   41.2150 C   0  0  0  0  0  0  0  0  0  0  0  0
   39.7280   27.6250   39.3080 N   0  0  0  0  0  0  0  0  0  0  0  0
   39.0230   27.6320   40.2480 C   0  0  0  0  0  0  0  0  0  0  0  0
  1  2  2  0  0  0  0
  1  6  1  0  0  0  0
  2  3  1  0  0  0  0
  3  7  1  0  0  0  0
  3  4  2  0  0  0  0
  4  8  1  0  0  0  0
  5  4  1  0  0  0  0
  5  9  1  0  0  0  0
  6  5  2  0  0  0  0
 10 16  1  0  0  0  0
 10 11  1  0  0  0  0
 11 17  1  0  0  0  0
 12 11  2  0  0  0  0
 12  2  1  0  0  0  0
 13 12  1  0  0  0  0
 14 15  1  0  0  0  0
 14 13  2  0  0  0  0
 15 10  2  0  0  0  0
 16 20  1  0  0  0  0
 18 14  1  0  0  0  0
 19 16  1  0  0  0  0
 21  6  1  0  0  0  0
 21 22  1  0  0  0  0
 22 23  1  0  0  0  0
 24 22  2  0  0  0  0
 25 24  1  0  0  0  0
 26 31  1  0  0  0  0
 26 25  2  0  0  0  0
 27 26  1  0  0  0  0
 28 29  1  0  0  0  0
 28 27  2  0  0  0  0
 29 30  2  0  0  0  0
 30 31  1  0  0  0  0
 31 21  2  0  0  0  0
 32 33  3  0  0  0  0
 33  1  1  0  0  0  0
M  END
>  <minimizedAffinity>
-6.11751652

$$$$

 OpenBabel03252508363D

 33 36  0  0  0  0  0  0  0  0999 V2000
   38.6650   26.9510   41.4920 C   0  0  0  0  0  0  0  0  0  0  0  0
   39.2620   27.3550   42.6780 C   0  0  0  0  0  0  0  0  0  0  0  0
   38.4540   27.7890   43.6790 C   0  0  0  0  0  0  0  0  0  0  0  0
   37.0750   27.8480   43.5800 C   0  0  0  0  0  0  0  0  0  0  0  0
   36.4980   27.4400   42.3880 C   0  0  0  0  0  0  0  0  0  0  0  0
   37.2790   26.9970   41.3560 C   0  0  0  0  0  0  0  0  0  0  0  0
   38.9280   28.1050   44.6090 H   0  0  0  0  0  0  0  0  0  0  0  0
   36.4510   28.1960   44.3870 H   0  0  0  0  0  0  0  0  0  0  0  0
   35.4420   27.4460   42.2040 H   0  0  0  0  0  0  0  0  0  0  0  0
   42.7680   26.0450   43.1830 C   0  0  0  0  0  0  0  0  0  0  0  0
   41.3550   26.0840   43.1480 C   0  0  0  0  0  0  0  0  0  0  0  0
   40.7200   27.2730   42.7300 C   0  0  0  0  0  0  0  0  0  0  0  0
   41.5180   28.3100   42.3870 N   0  0  0  0  0  0  0  0  0  0  0  0
   42.8530   28.2400   42.4330 C   0  0  0  0  0  0  0  0  0  0  0  0
   43.4770   27.1100   42.8300 N   0  0  0  0  0  0  0  0  0  0  0  0
   43.3720   24.8490   43.6020 N   0  0  0  0  0  0  0  0  0  0  0  0
   40.7610   25.2330   43.4290 H   0  0  0  0  0  0  0  0  0  0  0  0
   43.5170   29.0480   42.1670 H   0  0  0  0  0  0  0  0  0  0  0  0
   44.2790   24.8540   44.1220 H   0  0  0  0  0  0  0  0  0  0  0  0
   42.9000   23.9440   43.3890 H   0  0  0  0  0  0  0  0  0  0  0  0
   36.6840   26.5590   40.0800 C   0  0  0  0  0  0  0  0  0  0  0  0
   36.4850   25.2080   39.8800 C   0  0  0  0  0  0  0  0  0  0  0  0
   36.7350   24.4360   40.5900 H   0  0  0  0  0  0  0  0  0  0  0  0
   35.9200   24.8060   38.6680 C   0  0  0  0  0  3  0  0  0  0  0  0
   35.6020   25.7820   37.7640 C   0  0  0  0  0  3  0  0  0  0  0  0
   35.7860   27.1340   37.9330 C   0  0  0  0  0  0  0  0  0  0  0  0
   35.4470   28.0790   36.9890 C   0  0  0  0  0  3  0  0  0  0  0  0
   35.6610   29.4280   37.2270 C   0  0  0  0  0  3  0  0  0  0  0  0
   36.2230   29.7330   38.4490 C   0  0  0  0  0  3  0  0  0  0  0  0
   36.5890   28.8490   39.4440 C   0  0  0  0  0  3  0  0  0  0  0  0
   36.3520   27.5200   39.1490 C   0  0  0  0  0  0  0  0  0  0  0  0
   40.0630   26.0760   39.4790 N   0  0  0  0  0  0  0  0  0  0  0  0
   39.4360   26.4810   40.3860 C   0  0  0  0  0  0  0  0  0  0  0  0
  1  2  1  0  0  0  0
  2 12  1  0  0  0  0
  2  3  2  0  0  0  0
  3  7  1  0  0  0  0
  4  3  1  0  0  0  0
  4  8  1  0  0  0  0
  5  4  2  0  0  0  0
  6  1  2  0  0  0  0
  6  5  1  0  0  0  0
  9  5  1  0  0  0  0
 10 16  1  0  0  0  0
 11 10  1  0  0  0  0
 11 17  1  0  0  0  0
 12 11  2  0  0  0  0
 13 14  2  0  0  0  0
 13 12  1  0  0  0  0
 14 15  1  0  0  0  0
 15 10  2  0  0  0  0
 16 19  1  0  0  0  0
 18 14  1  0  0  0  0
 20 16  1  0  0  0  0
 21  6  1  0  0  0  0
 22 21  1  0  0  0  0
 22 23  1  0  0  0  0
 24 22  2  0  0  0  0
 25 26  2  0  0  0  0
 25 24  1  0  0  0  0
 26 31  1  0  0  0  0
 27 28  2  0  0  0  0
 27 26  1  0  0  0  0
 28 29  1  0  0  0  0
 29 30  2  0  0  0  0
 31 30  1  0  0  0  0
 31 21  2  0  0  0  0
 32 33  3  0  0  0  0
 33  1  1  0  0  0  0
M  END
>  <minimizedAffinity>
-6.10450697

$$$$

 OpenBabel03252508363D

 33 36  0  0  0  0  0  0  0  0999 V2000
   37.9170   29.4130   39.5990 C   0  0  0  0  0  0  0  0  0  0  0  0
   38.2040   30.7010   40.0300 C   0  0  0  0  0  0  0  0  0  0  0  0
   37.2400   31.3720   40.7130 C   0  0  0  0  0  0  0  0  0  0  0  0
   35.9960   30.8410   41.0000 C   0  0  0  0  0  0  0  0  0  0  0  0
   35.7270   29.5550   40.5610 C   0  0  0  0  0  0  0  0  0  0  0  0
   36.6740   28.8470   39.8690 C   0  0  0  0  0  0  0  0  0  0  0  0
   37.4720   32.3830   41.0500 H   0  0  0  0  0  0  0  0  0  0  0  0
   35.2440   31.3900   41.5440 H   0  0  0  0  0  0  0  0  0  0  0  0
   34.7970   29.0490   40.7270 H   0  0  0  0  0  0  0  0  0  0  0  0
   41.0430   32.4260   38.2330 C   0  0  0  0  0  0  0  0  0  0  0  0
   39.7440   31.9480   38.5140 C   0  0  0  0  0  0  0  0  0  0  0  0
   39.5330   31.2130   39.7010 C   0  0  0  0  0  0  0  0  0  0  0  0
   40.6060   31.0130   40.5010 N   0  0  0  0  0  0  0  0  0  0  0  0
   41.8240   31.4800   40.2040 C   0  0  0  0  0  0  0  0  0  0  0  0
   42.0430   32.1850   39.0730 N   0  0  0  0  0  0  0  0  0  0  0  0
   41.2230   33.1530   37.0460 N   0  0  0  0  0  0  0  0  0  0  0  0
   38.9190   32.1310   37.8480 H   0  0  0  0  0  0  0  0  0  0  0  0
   42.6990   31.3380   40.8190 H   0  0  0  0  0  0  0  0  0  0  0  0
   42.1230   33.1110   36.5160 H   0  0  0  0  0  0  0  0  0  0  0  0
   40.4380   33.7420   36.6920 H   0  0  0  0  0  0  0  0  0  0  0  0
   36.4070   27.4770   39.3940 C   0  0  0  0  0  0  0  0  0  0  0  0
   35.9170   27.3120   38.1140 C   0  0  0  0  0  0  0  0  0  0  0  0
   35.7100   28.1150   37.4250 H   0  0  0  0  0  0  0  0  0  0  0  0
   35.6690   26.0110   37.6750 C   0  0  0  0  0  3  0  0  0  0  0  0
   35.9310   24.9880   38.5460 C   0  0  0  0  0  3  0  0  0  0  0  0
   36.4190   25.1200   39.8240 C   0  0  0  0  0  0  0  0  0  0  0  0
   36.6660   24.0550   40.6640 C   0  0  0  0  0  3  0  0  0  0  0  0
   37.1590   24.2600   41.9440 C   0  0  0  0  0  3  0  0  0  0  0  0
   37.3740   25.5780   42.2920 C   0  0  0  0  0  3  0  0  0  0  0  0
   37.1530   26.6950   41.5130 C   0  0  0  0  0  3  0  0  0  0  0  0
   36.6610   26.4260   40.2490 C   0  0  0  0  0  0  0  0  0  0  0  0
   39.6590   28.0110   38.2680 N   0  0  0  0  0  0  0  0  0  0  0  0
   38.8700   28.6350   38.8740 C   0  0  0  0  0  0  0  0  0  0  0  0
  1  6  2  0  0  0  0
  1  2  1  0  0  0  0
  2  3  2  0  0  0  0
  3  4  1  0  0  0  0
  3  7  1  0  0  0  0
  4  8  1  0  0  0  0
  5  9  1  0  0  0  0
  5  4  2  0  0  0  0
  6  5  1  0  0  0  0
 10 11  2  0  0  0  0
 10 15  1  0  0  0  0
 11 12  1  0  0  0  0
 12  2  1  0  0  0  0
 12 13  2  0  0  0  0
 14 13  1  0  0  0  0
 14 18  1  0  0  0  0
 15 14  2  0  0  0  0
 16 10  1  0  0  0  0
 17 11  1  0  0  0  0
 19 16  1  0  0  0  0
 20 16  1  0  0  0  0
 21  6  1  0  0  0  0
 21 31  1  0  0  0  0
 22 21  2  0  0  0  0
 23 22  1  0  0  0  0
 24 22  1  0  0  0  0
 24 25  2  0  0  0  0
 25 26  1  0  0  0  0
 26 31  2  0  0  0  0
 26 27  1  0  0  0  0
 27 28  2  0  0  0  0
 28 29  1  0  0  0  0
 30 29  2  0  0  0  0
 31 30  1  0  0  0  0
 32 33  3  0  0  0  0
 33  1  1  0  0  0  0
M  END
>  <minimizedAffinity>
-6.06184626

$$$$

 OpenBabel03252508363D

 33 36  0  0  0  0  0  0  0  0999 V2000
   39.1290   30.9970   40.6340 C   0  0  0  0  0  0  0  0  0  0  0  0
   39.3380   32.1990   39.9720 C   0  0  0  0  0  0  0  0  0  0  0  0
   38.2490   32.9440   39.6490 C   0  0  0  0  0  0  0  0  0  0  0  0
   36.9510   32.5690   39.9440 C   0  0  0  0  0  0  0  0  0  0  0  0
   36.7610   31.3670   40.6040 C   0  0  0  0  0  0  0  0  0  0  0  0
   37.8340   30.5890   40.9470 C   0  0  0  0  0  0  0  0  0  0  0  0
   38.4200   33.8870   39.1290 H   0  0  0  0  0  0  0  0  0  0  0  0
   36.0990   33.1760   39.6780 H   0  0  0  0  0  0  0  0  0  0  0  0
   35.8000   30.9820   40.8800 H   0  0  0  0  0  0  0  0  0  0  0  0
   42.6140   32.6920   38.1590 C   0  0  0  0  0  0  0  0  0  0  0  0
   41.2660   32.3420   38.3960 C   0  0  0  0  0  0  0  0  0  0  0  0
   40.7280   32.5470   39.6850 C   0  0  0  0  0  0  0  0  0  0  0  0
   41.5530   33.0710   40.6200 N   0  0  0  0  0  0  0  0  0  0  0  0
   42.8260   33.3910   40.3620 C   0  0  0  0  0  0  0  0  0  0  0  0
   43.3560   33.2020   39.1350 N   0  0  0  0  0  0  0  0  0  0  0  0
   43.1220   32.4770   36.8680 N   0  0  0  0  0  0  0  0  0  0  0  0
   40.6470   31.9270   37.6200 H   0  0  0  0  0  0  0  0  0  0  0  0
   43.5090   33.8100   41.0860 H   0  0  0  0  0  0  0  0  0  0  0  0
   44.1240   32.2230   36.7160 H   0  0  0  0  0  0  0  0  0  0  0  0
   42.4800   32.5730   36.0520 H   0  0  0  0  0  0  0  0  0  0  0  0
   37.6540   29.3050   41.6510 C   0  0  0  0  0  0  0  0  0  0  0  0
   37.7830   29.2880   43.0240 C   0  0  0  0  0  0  0  0  0  0  0  0
   38.0100   30.1490   43.6330 H   0  0  0  0  0  0  0  0  0  0  0  0
   37.6090   28.0670   43.6790 C   0  0  0  0  0  3  0  0  0  0  0  0
   37.3220   26.9730   42.9100 C   0  0  0  0  0  3  0  0  0  0  0  0
   37.1850   26.9570   41.5430 C   0  0  0  0  0  0  0  0  0  0  0  0
   36.8940   25.8250   40.8130 C   0  0  0  0  0  3  0  0  0  0  0  0
   36.7710   25.8820   39.4330 C   0  0  0  0  0  3  0  0  0  0  0  0
   36.9580   27.1280   38.8720 C   0  0  0  0  0  3  0  0  0  0  0  0
   37.2520   28.3050   39.5300 C   0  0  0  0  0  3  0  0  0  0  0  0
   37.3630   28.1840   40.9030 C   0  0  0  0  0  0  0  0  0  0  0  0
   41.1190   29.4670   41.3180 N   0  0  0  0  0  0  0  0  0  0  0  0
   40.2130   30.1500   41.0120 C   0  0  0  0  0  0  0  0  0  0  0  0
  1  6  1  0  0  0  0
  1 33  1  0  0  0  0
  2  1  2  0  0  0  0
  3  4  2  0  0  0  0
  3  2  1  0  0  0  0
  4  5  1  0  0  0  0
  5  9  1  0  0  0  0
  5  6  2  0  0  0  0
  6 21  1  0  0  0  0
  7  3  1  0  0  0  0
  8  4  1  0  0  0  0
 10 11  2  0  0  0  0
 10 15  1  0  0  0  0
 11 12  1  0  0  0  0
 12  2  1  0  0  0  0
 12 13  2  0  0  0  0
 14 13  1  0  0  0  0
 14 18  1  0  0  0  0
 15 14  2  0  0  0  0
 16 10  1  0  0  0  0
 17 11  1  0  0  0  0
 19 16  1  0  0  0  0
 20 16  1  0  0  0  0
 21 22  1  0  0  0  0
 22 23  1  0  0  0  0
 22 24  2  0  0  0  0
 25 24  1  0  0  0  0
 26 25  2  0  0  0  0
 27 26  1  0  0  0  0
 28 27  2  0  0  0  0
 29 28  1  0  0  0  0
 29 30  2  0  0  0  0
 30 31  1  0  0  0  0
 31 26  1  0  0  0  0
 31 21  2  0  0  0  0
 33 32  3  0  0  0  0
M  END
>  <minimizedAffinity>
-6.05873537

$$$$

 OpenBabel03252508363D

 33 36  0  0  0  0  0  0  0  0999 V2000
   37.0680   29.4250   39.6130 C   0  0  0  0  0  0  0  0  0  0  0  0
   36.6850   30.3200   38.6240 C   0  0  0  0  0  0  0  0  0  0  0  0
   36.8790   31.6440   38.8550 C   0  0  0  0  0  0  0  0  0  0  0  0
   37.4370   32.1440   40.0180 C   0  0  0  0  0  0  0  0  0  0  0  0
   37.8130   31.2360   40.9940 C   0  0  0  0  0  0  0  0  0  0  0  0
   37.6330   29.8930   40.7970 C   0  0  0  0  0  0  0  0  0  0  0  0
   36.5770   32.3420   38.0740 H   0  0  0  0  0  0  0  0  0  0  0  0
   37.5830   33.1990   40.1820 H   0  0  0  0  0  0  0  0  0  0  0  0
   38.2530   31.5140   41.9310 H   0  0  0  0  0  0  0  0  0  0  0  0
   36.2410   29.1210   35.0700 C   0  0  0  0  0  0  0  0  0  0  0  0
   36.8410   29.6920   36.2150 C   0  0  0  0  0  0  0  0  0  0  0  0
   36.1020   29.7390   37.4170 C   0  0  0  0  0  0  0  0  0  0  0  0
   34.8490   29.2280   37.3890 N   0  0  0  0  0  0  0  0  0  0  0  0
   34.3110   28.6950   36.2860 C   0  0  0  0  0  0  0  0  0  0  0  0
   35.0050   28.6420   35.1290 N   0  0  0  0  0  0  0  0  0  0  0  0
   37.0010   29.0880   33.8900 N   0  0  0  0  0  0  0  0  0  0  0  0
   37.8420   30.0860   36.1900 H   0  0  0  0  0  0  0  0  0  0  0  0
   33.3160   28.2800   36.2320 H   0  0  0  0  0  0  0  0  0  0  0  0
   36.5480   29.1710   32.9520 H   0  0  0  0  0  0  0  0  0  0  0  0
   38.0360   28.9790   33.9590 H   0  0  0  0  0  0  0  0  0  0  0  0
   38.0270   28.9110   41.8240 C   0  0  0  0  0  0  0  0  0  0  0  0
   37.0610   28.4540   42.6980 C   0  0  0  0  0  0  0  0  0  0  0  0
   36.0280   28.7620   42.6900 H   0  0  0  0  0  0  0  0  0  0  0  0
   37.4450   27.5240   43.6650 C   0  0  0  0  0  3  0  0  0  0  0  0
   38.7560   27.1300   43.6780 C   0  0  0  0  0  3  0  0  0  0  0  0
   39.7400   27.5650   42.8230 C   0  0  0  0  0  0  0  0  0  0  0  0
   41.0490   27.1360   42.8780 C   0  0  0  0  0  3  0  0  0  0  0  0
   41.9920   27.6180   41.9820 C   0  0  0  0  0  3  0  0  0  0  0  0
   41.5220   28.5320   41.0620 C   0  0  0  0  0  3  0  0  0  0  0  0
   40.2330   29.0100   40.9420 C   0  0  0  0  0  3  0  0  0  0  0  0
   39.3410   28.4950   41.8620 C   0  0  0  0  0  0  0  0  0  0  0  0
   36.7490   26.8600   39.3140 N   0  0  0  0  0  0  0  0  0  0  0  0
   36.9010   28.0160   39.4560 C   0  0  0  0  0  0  0  0  0  0  0  0
  1  6  1  0  0  0  0
  2  3  1  0  0  0  0
  2  1  2  0  0  0  0
  3  4  2  0  0  0  0
  4  8  1  0  0  0  0
  4  5  1  0  0  0  0
  5  9  1  0  0  0  0
  6  5  2  0  0  0  0
  6 21  1  0  0  0  0
  7  3  1  0  0  0  0
 10 15  2  0  0  0  0
 10 11  1  0  0  0  0
 11 12  2  0  0  0  0
 12  2  1  0  0  0  0
 13 12  1  0  0  0  0
 14 13  2  0  0  0  0
 15 14  1  0  0  0  0
 16 20  1  0  0  0  0
 16 10  1  0  0  0  0
 17 11  1  0  0  0  0
 18 14  1  0  0  0  0
 19 16  1  0  0  0  0
 21 31  2  0  0  0  0
 21 22  1  0  0  0  0
 22 24  2  0  0  0  0
 23 22  1  0  0  0  0
 24 25  1  0  0  0  0
 26 27  1  0  0  0  0
 26 25  2  0  0  0  0
 28 27  2  0  0  0  0
 29 28  1  0  0  0  0
 30 29  2  0  0  0  0
 30 31  1  0  0  0  0
 31 26  1  0  0  0  0
 32 33  3  0  0  0  0
 33  1  1  0  0  0  0
M  END
>  <minimizedAffinity>
-6.0244689

$$$$

 OpenBabel03252508363D

 33 36  0  0  0  0  0  0  0  0999 V2000
   38.9170   29.9530   38.8970 C   0  0  0  0  0  0  0  0  0  0  0  0
   38.7150   31.1820   38.2850 C   0  0  0  0  0  0  0  0  0  0  0  0
   37.6220   31.3260   37.4930 C   0  0  0  0  0  0  0  0  0  0  0  0
   36.7040   30.3170   37.2650 C   0  0  0  0  0  0  0  0  0  0  0  0
   36.9210   29.0970   37.8830 C   0  0  0  0  0  0  0  0  0  0  0  0
   38.0120   28.9140   38.6890 C   0  0  0  0  0  0  0  0  0  0  0  0
   37.4690   32.2950   37.0150 H   0  0  0  0  0  0  0  0  0  0  0  0
   35.8410   30.4520   36.6320 H   0  0  0  0  0  0  0  0  0  0  0  0
   36.2750   28.2490   37.7750 H   0  0  0  0  0  0  0  0  0  0  0  0
   41.6060   33.5790   37.8780 C   0  0  0  0  0  0  0  0  0  0  0  0
   40.6570   32.5770   37.5730 C   0  0  0  0  0  0  0  0  0  0  0  0
   39.7150   32.2130   38.5590 C   0  0  0  0  0  0  0  0  0  0  0  0
   39.7870   32.8560   39.7470 N   0  0  0  0  0  0  0  0  0  0  0  0
   40.6990   33.8000   40.0030 C   0  0  0  0  0  0  0  0  0  0  0  0
   41.6080   34.1610   39.0710 N   0  0  0  0  0  0  0  0  0  0  0  0
   42.5310   33.9210   36.8780 N   0  0  0  0  0  0  0  0  0  0  0  0
   40.6380   32.0920   36.6130 H   0  0  0  0  0  0  0  0  0  0  0  0
   40.7830   34.3310   40.9390 H   0  0  0  0  0  0  0  0  0  0  0  0
   43.5010   34.2240   37.1190 H   0  0  0  0  0  0  0  0  0  0  0  0
   42.2350   33.8660   35.8790 H   0  0  0  0  0  0  0  0  0  0  0  0
   38.2610   27.6220   39.3560 C   0  0  0  0  0  0  0  0  0  0  0  0
   39.0390   26.6880   38.7030 C   0  0  0  0  0  0  0  0  0  0  0  0
   39.4840   26.8270   37.7310 H   0  0  0  0  0  0  0  0  0  0  0  0
   39.2680   25.4690   39.3440 C   0  0  0  0  0  3  0  0  0  0  0  0
   38.7040   25.2870   40.5780 C   0  0  0  0  0  3  0  0  0  0  0  0
   37.9270   26.1970   41.2540 C   0  0  0  0  0  0  0  0  0  0  0  0
   37.3810   25.9660   42.4980 C   0  0  0  0  0  3  0  0  0  0  0  0
   36.6050   26.9300   43.1230 C   0  0  0  0  0  3  0  0  0  0  0  0
   36.4320   28.1010   42.4160 C   0  0  0  0  0  3  0  0  0  0  0  0
   36.9420   28.4100   41.1720 C   0  0  0  0  0  3  0  0  0  0  0  0
   37.7060   27.4100   40.6000 C   0  0  0  0  0  0  0  0  0  0  0  0
   40.9620   29.5320   40.4480 N   0  0  0  0  0  0  0  0  0  0  0  0
   40.0380   29.7110   39.7450 C   0  0  0  0  0  0  0  0  0  0  0  0
  1 33  1  0  0  0  0
  2 12  1  0  0  0  0
  2  1  2  0  0  0  0
  3  2  1  0  0  0  0
  4  3  2  0  0  0  0
  4  5  1  0  0  0  0
  5  6  2  0  0  0  0
  6  1  1  0  0  0  0
  6 21  1  0  0  0  0
  7  3  1  0  0  0  0
  8  4  1  0  0  0  0
  9  5  1  0  0  0  0
 10 15  1  0  0  0  0
 11 10  2  0  0  0  0
 11 12  1  0  0  0  0
 12 13  2  0  0  0  0
 13 14  1  0  0  0  0
 14 18  1  0  0  0  0
 15 14  2  0  0  0  0
 16 19  1  0  0  0  0
 16 10  1  0  0  0  0
 17 11  1  0  0  0  0
 20 16  1  0  0  0  0
 21 31  1  0  0  0  0
 22 24  1  0  0  0  0
 22 21  2  0  0  0  0
 23 22  1  0  0  0  0
 24 25  2  0  0  0  0
 25 26  1  0  0  0  0
 26 27  1  0  0  0  0
 27 28  2  0  0  0  0
 29 28  1  0  0  0  0
 30 29  2  0  0  0  0
 31 30  1  0  0  0  0
 31 26  2  0  0  0  0
 33 32  3  0  0  0  0
M  END
>  <minimizedAffinity>
-6.02121592

$$$$
