
 OpenBabel03252508263D

 43 48  0  0  1  0  0  0  0  0999 V2000
   46.1210   32.3640   45.8410 C   0  0  1  0  0  0  0  0  0  0  0  0
   46.6940   32.6570   47.1620 C   0  0  0  0  0  0  0  0  0  0  0  0
   45.3080   31.9260   46.9580 C   0  0  2  0  0  0  0  0  0  0  0  0
   46.9170   31.7320   45.3050 H   0  0  0  0  0  0  0  0  0  0  0  0
   46.6470   33.6770   47.5440 H   0  0  0  0  0  0  0  0  0  0  0  0
   47.4070   32.0110   47.6960 H   0  0  0  0  0  0  0  0  0  0  0  0
   44.5960   32.6030   47.5260 H   0  0  0  0  0  0  0  0  0  0  0  0
   45.1470   30.5390   47.3960 C   0  0  0  0  0  0  0  0  0  0  0  0
   45.0810   30.0780   48.6770 C   0  0  0  0  0  0  0  0  0  0  0  0
   45.0560   28.7440   49.0610 C   0  0  0  0  0  0  0  0  0  0  0  0
   45.1050   27.7950   48.0190 C   0  0  0  0  0  0  0  0  0  0  0  0
   45.1700   28.2470   46.7110 C   0  0  0  0  0  0  0  0  0  0  0  0
   45.1580   27.2820   45.7250 C   0  0  0  0  0  0  0  0  0  0  0  0
   45.1560   27.6730   44.3830 C   0  0  0  0  0  0  0  0  0  0  0  0
   45.1610   29.0100   44.0470 C   0  0  0  0  0  0  0  0  0  0  0  0
   45.1750   29.9280   45.0700 C   0  0  0  0  0  0  0  0  0  0  0  0
   45.1870   29.5850   46.4100 C   0  0  0  0  0  0  0  0  0  0  0  0
   45.0460   30.8620   49.4410 H   0  0  0  0  0  0  0  0  0  0  0  0
   45.0020   28.4720   50.1070 H   0  0  0  0  0  0  0  0  0  0  0  0
   45.0890   26.7540   48.3160 H   0  0  0  0  0  0  0  0  0  0  0  0
   45.1510   26.2310   46.0070 H   0  0  0  0  0  0  0  0  0  0  0  0
   45.1480   26.8190   43.6880 H   0  0  0  0  0  0  0  0  0  0  0  0
   45.1550   29.1120   42.9860 H   0  0  0  0  0  0  0  0  0  0  0  0
   45.0920   30.8530   44.5740 H   0  0  0  0  0  0  0  0  0  0  0  0
   44.7750   35.6100   44.7160 C   0  0  0  0  0  0  0  0  0  0  0  0
   44.6360   35.4180   43.3050 C   0  0  0  0  0  0  0  0  0  0  0  0
   45.0220   34.1710   42.7780 C   0  0  0  0  0  0  0  0  0  0  0  0
   45.4940   33.2500   43.6210 N   0  0  0  0  0  0  0  0  0  0  0  0
   45.6180   33.4540   44.9570 C   0  0  0  0  0  0  0  0  0  0  0  0
   45.2620   34.6170   45.4860 N   0  0  0  0  0  0  0  0  0  0  0  0
   44.4690   36.5760   45.0920 H   0  0  0  0  0  0  0  0  0  0  0  0
   44.2900   36.2380   42.7220 H   0  0  0  0  0  0  0  0  0  0  0  0
   45.0380   33.7850   41.3890 C   0  0  0  0  0  0  0  0  0  0  0  0
   43.8510   33.2540   40.8660 C   0  0  0  0  0  0  0  0  0  0  0  0
   42.9750   33.1470   41.5260 H   0  0  0  0  0  0  0  0  0  0  0  0
   43.6700   32.8420   39.5670 C   0  0  0  0  0  3  0  0  0  0  0  0
   44.7240   32.9490   38.6900 C   0  0  0  0  0  3  0  0  0  0  0  0
   45.9230   33.4640   39.1300 C   0  0  0  0  0  0  0  0  0  0  0  0
   46.9800   33.6150   38.2590 C   0  0  0  0  0  3  0  0  0  0  0  0
   48.1990   34.1680   38.6500 C   0  0  0  0  0  3  0  0  0  0  0  0
   48.2690   34.5600   39.9930 C   0  0  0  0  0  3  0  0  0  0  0  0
   47.1980   34.3970   40.8390 C   0  0  0  0  0  3  0  0  0  0  0  0
   46.0220   33.8540   40.4400 C   0  0  0  0  0  0  0  0  0  0  0  0
  1  4  1  6  0  0  0
  1  3  1  0  0  0  0
  1  2  1  0  0  0  0
  2  5  1  0  0  0  0
  2  6  1  0  0  0  0
  3  2  1  0  0  0  0
  3  8  1  0  0  0  0
  3  7  1  1  0  0  0
  8  9  1  0  0  0  0
  9 10  2  0  0  0  0
  9 18  1  0  0  0  0
 10 19  1  0  0  0  0
 11 20  1  0  0  0  0
 11 10  1  0  0  0  0
 12 11  2  0  0  0  0
 13 21  1  0  0  0  0
 13 12  1  0  0  0  0
 14 13  2  0  0  0  0
 15 14  1  0  0  0  0
 15 16  2  0  0  0  0
 16 17  1  0  0  0  0
 17 12  1  0  0  0  0
 17  8  2  0  0  0  0
 22 14  1  0  0  0  0
 23 15  1  0  0  0  0
 24 16  1  0  0  0  0
 25 31  1  0  0  0  0
 25 30  1  0  0  0  0
 26 25  2  0  0  0  0
 27 26  1  0  0  0  0
 27 28  2  0  0  0  0
 28 29  1  0  0  0  0
 29 30  2  0  0  0  0
 29  1  1  0  0  0  0
 32 26  1  0  0  0  0
 33 27  1  0  0  0  0
 34 33  1  0  0  0  0
 34 35  1  0  0  0  0
 36 34  2  0  0  0  0
 37 38  2  0  0  0  0
 37 36  1  0  0  0  0
 38 43  1  0  0  0  0
 39 40  2  0  0  0  0
 39 38  1  0  0  0  0
 40 41  1  0  0  0  0
 41 42  2  0  0  0  0
 43 42  1  0  0  0  0
 43 33  2  0  0  0  0
M  END
>  <minimizedAffinity>
-5.88257217

>  <minimizedRMSD>
2.1597321

$$$$
