
 OpenBabel03242519583D

 30 33  0  0  0  0  0  0  0  0999 V2000
   44.8820   32.8710   41.1890 Br  0  0  0  0  0  0  0  0  0  0  0  0
   46.4630   33.9170   40.9840 C   0  0  0  0  0  0  0  0  0  0  0  0
   46.9430   34.7530   41.9750 C   0  0  0  0  0  0  0  0  0  0  0  0
   48.0940   35.4680   41.7280 C   0  0  0  0  0  0  0  0  0  0  0  0
   48.7890   35.3840   40.5380 C   0  0  0  0  0  0  0  0  0  0  0  0
   48.3220   34.5470   39.5280 C   0  0  0  0  0  0  0  0  0  0  0  0
   47.1690   33.8440   39.7970 C   0  0  0  0  0  0  0  0  0  0  0  0
   48.4500   36.1170   42.5220 H   0  0  0  0  0  0  0  0  0  0  0  0
   49.6890   35.9550   40.3710 H   0  0  0  0  0  0  0  0  0  0  0  0
   48.8490   34.4670   38.5880 H   0  0  0  0  0  0  0  0  0  0  0  0
   46.7070   32.9680   38.6980 C   0  0  0  0  0  0  0  0  0  0  0  0
   45.7890   33.3910   37.7580 C   0  0  0  0  0  0  0  0  0  0  0  0
   45.3810   34.3980   37.8100 H   0  0  0  0  0  0  0  0  0  0  0  0
   45.4180   32.5040   36.7720 C   0  0  0  0  0  3  0  0  0  0  0  0
   45.9690   31.2240   36.7480 C   0  0  0  0  0  3  0  0  0  0  0  0
   46.8930   30.8360   37.7170 C   0  0  0  0  0  0  0  0  0  0  0  0
   47.4160   29.5460   37.6520 C   0  0  0  0  0  3  0  0  0  0  0  0
   48.3380   29.1670   38.6220 C   0  0  0  0  0  3  0  0  0  0  0  0
   48.7420   30.0200   39.6320 C   0  0  0  0  0  3  0  0  0  0  0  0
   48.1870   31.2710   39.6340 C   0  0  0  0  0  3  0  0  0  0  0  0
   47.2820   31.7130   38.7210 C   0  0  0  0  0  0  0  0  0  0  0  0
   44.5100   35.8500   44.6740 C   0  0  0  0  0  0  0  0  0  0  0  0
   45.2300   35.8070   43.4700 C   0  0  0  0  0  0  0  0  0  0  0  0
   46.1800   34.8170   43.2270 C   0  0  0  0  0  0  0  0  0  0  0  0
   46.3580   33.9140   44.2170 N   0  0  0  0  0  0  0  0  0  0  0  0
   45.6590   33.9660   45.3720 C   0  0  0  0  0  0  0  0  0  0  0  0
   44.7530   34.9150   45.5980 N   0  0  0  0  0  0  0  0  0  0  0  0
   43.7870   36.6600   44.7750 H   0  0  0  0  0  0  0  0  0  0  0  0
   45.1090   36.5140   42.6590 H   0  0  0  0  0  0  0  0  0  0  0  0
   45.8850   33.1920   46.0940 H   0  0  0  0  0  0  0  0  0  0  0  0
  2  1  1  0  0  0  0
  2  3  1  0  0  0  0
  3 24  1  0  0  0  0
  4  3  2  0  0  0  0
  4  8  1  0  0  0  0
  5  4  1  0  0  0  0
  6  7  1  0  0  0  0
  6  5  2  0  0  0  0
  7  2  2  0  0  0  0
  9  5  1  0  0  0  0
 10  6  1  0  0  0  0
 11 21  1  0  0  0  0
 11  7  1  0  0  0  0
 12 13  1  0  0  0  0
 12 11  2  0  0  0  0
 14 12  1  0  0  0  0
 15 14  2  0  0  0  0
 15 16  1  0  0  0  0
 16 21  1  0  0  0  0
 17 16  2  0  0  0  0
 17 18  1  0  0  0  0
 18 19  2  0  0  0  0
 19 20  1  0  0  0  0
 21 20  2  0  0  0  0
 22 28  1  0  0  0  0
 22 27  1  0  0  0  0
 23 22  2  0  0  0  0
 24 23  1  0  0  0  0
 24 25  2  0  0  0  0
 25 26  1  0  0  0  0
 26 27  2  0  0  0  0
 26 30  1  0  0  0  0
 29 23  1  0  0  0  0
M  END
>  <minimizedAffinity>
-5.62529516

>  <minimizedRMSD>
1.28561819

$$$$
