
 OpenBabel03242515233D

 23 25  0  0  0  0  0  0  0  0999 V2000
   43.0060   35.6810   41.2400 C   0  0  0  0  0  0  0  0  0  0  0  0
   43.6330   35.7130   40.3040 H   0  0  0  0  0  0  0  0  0  0  0  0
   42.8890   36.7030   41.5670 H   0  0  0  0  0  0  0  0  0  0  0  0
   41.7070   35.0320   41.0370 C   0  0  0  0  0  0  0  0  0  0  0  0
   41.0480   34.3590   42.0460 C   0  0  0  0  0  0  0  0  0  0  0  0
   41.4910   34.3190   43.0510 H   0  0  0  0  0  0  0  0  0  0  0  0
   39.8280   33.7090   41.8770 C   0  0  0  0  0  3  0  0  0  0  0  0
   39.2240   33.7350   40.6130 C   0  0  0  0  0  3  0  0  0  0  0  0
   39.8380   34.3940   39.5690 C   0  0  0  0  0  0  0  0  0  0  0  0
   39.2320   34.4290   38.3160 C   0  0  0  0  0  3  0  0  0  0  0  0
   39.8850   35.1070   37.3200 C   0  0  0  0  0  3  0  0  0  0  0  0
   41.1000   35.7590   37.4700 C   0  0  0  0  0  3  0  0  0  0  0  0
   41.6620   35.6920   38.7470 C   0  0  0  0  0  3  0  0  0  0  0  0
   41.0570   35.0190   39.8140 C   0  0  0  0  0  0  0  0  0  0  0  0
   44.2540   35.5790   43.3200 C   0  0  0  0  0  0  0  0  0  0  0  0
   43.8200   34.8610   42.1840 C   0  0  0  0  0  0  0  0  0  0  0  0
   44.1790   33.5360   42.0700 C   0  0  0  0  0  0  0  0  0  0  0  0
   44.9260   33.0110   43.0580 N   0  0  0  0  0  0  0  0  0  0  0  0
   45.3370   33.6920   44.1360 C   0  0  0  0  0  0  0  0  0  0  0  0
   45.0030   35.0050   44.2880 N   0  0  0  0  0  0  0  0  0  0  0  0
   44.0060   36.6360   43.4770 H   0  0  0  0  0  0  0  0  0  0  0  0
   43.8180   33.0440   41.1880 H   0  0  0  0  0  0  0  0  0  0  0  0
   45.9380   33.2500   44.9180 H   0  0  0  0  0  0  0  0  0  0  0  0
  1  3  1  0  0  0  0
  1 16  1  0  0  0  0
  2  1  1  0  0  0  0
  4  1  1  0  0  0  0
  4  5  1  0  0  0  0
  5  6  1  0  0  0  0
  7  5  2  0  0  0  0
  8  7  1  0  0  0  0
  9 14  1  0  0  0  0
  9  8  2  0  0  0  0
 10  9  1  0  0  0  0
 11 12  1  0  0  0  0
 11 10  2  0  0  0  0
 12 13  2  0  0  0  0
 13 14  1  0  0  0  0
 14  4  2  0  0  0  0
 15 21  1  0  0  0  0
 15 20  1  0  0  0  0
 16 15  2  0  0  0  0
 17 16  1  0  0  0  0
 17 18  2  0  0  0  0
 18 19  1  0  0  0  0
 19 20  2  0  0  0  0
 19 23  1  0  0  0  0
 22 17  1  0  0  0  0
M  END
>  <minimizedAffinity>
-5.08319378

>  <minimizedRMSD>
1.59292316

$$$$
