
 OpenBabel03242520113D

 31 34  0  0  0  0  0  0  0  0999 V2000
   38.7660   31.3910   38.7630 C   0  0  0  0  0  0  0  0  0  0  0  0
   37.9440   31.4050   37.6940 C   0  0  0  0  0  0  0  0  0  0  0  0
   36.8670   30.5650   37.6480 C   0  0  0  0  0  0  0  0  0  0  0  0
   36.6410   29.7070   38.7120 C   0  0  0  0  0  0  0  0  0  0  0  0
   37.4710   29.6870   39.8040 C   0  0  0  0  0  0  0  0  0  0  0  0
   38.4740   30.5290   39.7500 N   0  0  0  0  0  0  0  0  0  0  0  0
   38.1440   32.0840   36.8800 H   0  0  0  0  0  0  0  0  0  0  0  0
   36.2100   30.5820   36.7850 H   0  0  0  0  0  0  0  0  0  0  0  0
   35.8170   29.0550   38.5810 H   0  0  0  0  0  0  0  0  0  0  0  0
   41.6550   33.4890   37.9440 C   0  0  0  0  0  0  0  0  0  0  0  0
   42.1170   33.8510   39.2240 C   0  0  0  0  0  0  0  0  0  0  0  0
   41.4330   33.3710   40.3470 C   0  0  0  0  0  0  0  0  0  0  0  0
   40.3620   32.5830   40.1190 N   0  0  0  0  0  0  0  0  0  0  0  0
   39.9400   32.2530   38.8880 C   0  0  0  0  0  0  0  0  0  0  0  0
   40.5820   32.7020   37.8150 N   0  0  0  0  0  0  0  0  0  0  0  0
   42.3500   33.9750   36.8040 N   0  0  0  0  0  0  0  0  0  0  0  0
   42.9830   34.4850   39.3590 H   0  0  0  0  0  0  0  0  0  0  0  0
   41.7460   33.6190   41.3530 H   0  0  0  0  0  0  0  0  0  0  0  0
   41.8420   34.2980   35.9290 H   0  0  0  0  0  0  0  0  0  0  0  0
   43.4070   34.0260   36.8090 H   0  0  0  0  0  0  0  0  0  0  0  0
   37.4310   28.8180   40.9580 C   0  0  0  0  0  0  0  0  0  0  0  0
   37.5470   29.4220   42.2180 C   0  0  0  0  0  0  0  0  0  0  0  0
   37.6730   30.5150   42.2840 H   0  0  0  0  0  0  0  0  0  0  0  0
   37.5170   28.7700   43.4110 C   0  0  0  0  0  3  0  0  0  0  0  0
   37.3630   27.4090   43.4350 C   0  0  0  0  0  3  0  0  0  0  0  0
   37.2400   26.7480   42.2340 C   0  0  0  0  0  0  0  0  0  0  0  0
   37.0480   25.3870   42.2180 C   0  0  0  0  0  3  0  0  0  0  0  0
   36.8780   24.6610   41.0430 C   0  0  0  0  0  3  0  0  0  0  0  0
   36.9130   25.4060   39.8600 C   0  0  0  0  0  3  0  0  0  0  0  0
   37.1080   26.7640   39.9130 C   0  0  0  0  0  3  0  0  0  0  0  0
   37.2780   27.4680   41.0730 C   0  0  0  0  0  0  0  0  0  0  0  0
  1 14  1  0  0  0  0
  1  6  1  0  0  0  0
  2  1  2  0  0  0  0
  3  2  1  0  0  0  0
  3  4  2  0  0  0  0
  4  5  1  0  0  0  0
  5 21  1  0  0  0  0
  6  5  2  0  0  0  0
  7  2  1  0  0  0  0
  8  3  1  0  0  0  0
  9  4  1  0  0  0  0
 10 11  1  0  0  0  0
 11 17  1  0  0  0  0
 11 12  2  0  0  0  0
 12 18  1  0  0  0  0
 13 12  1  0  0  0  0
 14 13  2  0  0  0  0
 15 10  2  0  0  0  0
 15 14  1  0  0  0  0
 16 20  1  0  0  0  0
 16 10  1  0  0  0  0
 19 16  1  0  0  0  0
 21 31  2  0  0  0  0
 21 22  1  0  0  0  0
 22 23  1  0  0  0  0
 22 24  2  0  0  0  0
 24 25  1  0  0  0  0
 26 25  2  0  0  0  0
 27 26  1  0  0  0  0
 28 27  2  0  0  0  0
 29 30  2  0  0  0  0
 29 28  1  0  0  0  0
 30 31  1  0  0  0  0
 31 26  1  0  0  0  0
M  END
>  <minimizedAffinity>
-7.14904022

$$$$

 OpenBabel03242520113D

 31 34  0  0  0  0  0  0  0  0999 V2000
   39.0530   31.5440   39.1190 C   0  0  0  0  0  0  0  0  0  0  0  0
   38.0500   32.4420   39.0510 C   0  0  0  0  0  0  0  0  0  0  0  0
   36.9290   32.2780   39.8160 C   0  0  0  0  0  0  0  0  0  0  0  0
   36.8480   31.1780   40.6560 C   0  0  0  0  0  0  0  0  0  0  0  0
   37.8640   30.2600   40.7340 C   0  0  0  0  0  0  0  0  0  0  0  0
   38.8920   30.5080   39.9590 N   0  0  0  0  0  0  0  0  0  0  0  0
   38.1410   33.2890   38.3880 H   0  0  0  0  0  0  0  0  0  0  0  0
   36.1270   33.0050   39.7560 H   0  0  0  0  0  0  0  0  0  0  0  0
   35.9310   31.0940   41.1780 H   0  0  0  0  0  0  0  0  0  0  0  0
   41.9190   32.9040   37.2880 C   0  0  0  0  0  0  0  0  0  0  0  0
   42.5690   31.7290   36.8630 C   0  0  0  0  0  0  0  0  0  0  0  0
   42.0170   30.4910   37.2100 C   0  0  0  0  0  0  0  0  0  0  0  0
   40.8820   30.5110   37.9390 N   0  0  0  0  0  0  0  0  0  0  0  0
   40.2810   31.6440   38.3330 C   0  0  0  0  0  0  0  0  0  0  0  0
   40.7960   32.8260   38.0090 N   0  0  0  0  0  0  0  0  0  0  0  0
   42.4790   34.1610   36.9360 N   0  0  0  0  0  0  0  0  0  0  0  0
   43.4790   31.7630   36.2780 H   0  0  0  0  0  0  0  0  0  0  0  0
   42.4770   29.5580   36.9080 H   0  0  0  0  0  0  0  0  0  0  0  0
   42.4970   34.9810   37.6130 H   0  0  0  0  0  0  0  0  0  0  0  0
   42.8980   34.3050   35.9750 H   0  0  0  0  0  0  0  0  0  0  0  0
   37.9190   29.0300   41.4890 C   0  0  0  0  0  0  0  0  0  0  0  0
   38.4330   29.1020   42.7920 C   0  0  0  0  0  0  0  0  0  0  0  0
   38.7800   30.0710   43.1830 H   0  0  0  0  0  0  0  0  0  0  0  0
   38.5480   28.0550   43.6530 C   0  0  0  0  0  3  0  0  0  0  0  0
   38.1420   26.8070   43.2600 C   0  0  0  0  0  3  0  0  0  0  0  0
   37.6240   26.6610   41.9930 C   0  0  0  0  0  0  0  0  0  0  0  0
   37.1720   25.4320   41.5750 C   0  0  0  0  0  3  0  0  0  0  0  0
   36.6030   25.2220   40.3230 C   0  0  0  0  0  3  0  0  0  0  0  0
   36.5120   26.3490   39.5010 C   0  0  0  0  0  3  0  0  0  0  0  0
   36.9740   27.5610   39.9500 C   0  0  0  0  0  3  0  0  0  0  0  0
   37.5370   27.7580   41.1810 C   0  0  0  0  0  0  0  0  0  0  0  0
  1  6  1  0  0  0  0
  2  1  2  0  0  0  0
  2  3  1  0  0  0  0
  3  4  2  0  0  0  0
  4  5  1  0  0  0  0
  4  9  1  0  0  0  0
  5 21  1  0  0  0  0
  6  5  2  0  0  0  0
  7  2  1  0  0  0  0
  8  3  1  0  0  0  0
 10 15  1  0  0  0  0
 11 12  1  0  0  0  0
 11 10  2  0  0  0  0
 12 13  2  0  0  0  0
 13 14  1  0  0  0  0
 14  1  1  0  0  0  0
 15 14  2  0  0  0  0
 16 10  1  0  0  0  0
 16 19  1  0  0  0  0
 17 11  1  0  0  0  0
 18 12  1  0  0  0  0
 20 16  1  0  0  0  0
 21 22  1  0  0  0  0
 22 23  1  0  0  0  0
 22 24  2  0  0  0  0
 25 24  1  0  0  0  0
 26 25  2  0  0  0  0
 27 26  1  0  0  0  0
 28 27  2  0  0  0  0
 29 30  2  0  0  0  0
 29 28  1  0  0  0  0
 30 31  1  0  0  0  0
 31 21  2  0  0  0  0
 31 26  1  0  0  0  0
M  END
>  <minimizedAffinity>
-6.76457739

$$$$

 OpenBabel03242520113D

 31 34  0  0  0  0  0  0  0  0999 V2000
   39.1960   31.4210   39.0290 C   0  0  0  0  0  0  0  0  0  0  0  0
   38.3710   32.4480   39.3150 C   0  0  0  0  0  0  0  0  0  0  0  0
   37.2350   32.2320   40.0450 C   0  0  0  0  0  0  0  0  0  0  0  0
   36.9540   30.9460   40.4810 C   0  0  0  0  0  0  0  0  0  0  0  0
   37.7890   29.8960   40.1970 C   0  0  0  0  0  0  0  0  0  0  0  0
   38.8490   30.2080   39.4910 N   0  0  0  0  0  0  0  0  0  0  0  0
   38.6140   33.4380   38.9630 H   0  0  0  0  0  0  0  0  0  0  0  0
   36.5760   33.0630   40.2710 H   0  0  0  0  0  0  0  0  0  0  0  0
   36.0360   30.8510   40.9970 H   0  0  0  0  0  0  0  0  0  0  0  0
   42.0050   32.8850   37.1890 C   0  0  0  0  0  0  0  0  0  0  0  0
   42.7220   31.7370   36.8030 C   0  0  0  0  0  0  0  0  0  0  0  0
   42.2340   30.4800   37.1790 C   0  0  0  0  0  0  0  0  0  0  0  0
   41.0920   30.4580   37.8960 N   0  0  0  0  0  0  0  0  0  0  0  0
   40.4260   31.5670   38.2520 C   0  0  0  0  0  0  0  0  0  0  0  0
   40.8790   32.7660   37.9010 N   0  0  0  0  0  0  0  0  0  0  0  0
   42.5000   34.1610   36.8070 N   0  0  0  0  0  0  0  0  0  0  0  0
   43.6360   31.8030   36.2260 H   0  0  0  0  0  0  0  0  0  0  0  0
   42.7480   29.5660   36.9080 H   0  0  0  0  0  0  0  0  0  0  0  0
   42.4650   34.9990   37.4600 H   0  0  0  0  0  0  0  0  0  0  0  0
   42.9210   34.3000   35.8470 H   0  0  0  0  0  0  0  0  0  0  0  0
   37.6200   28.4940   40.5030 C   0  0  0  0  0  0  0  0  0  0  0  0
   36.7740   27.7530   39.6640 C   0  0  0  0  0  0  0  0  0  0  0  0
   36.2700   28.2570   38.8250 H   0  0  0  0  0  0  0  0  0  0  0  0
   36.5070   26.4260   39.7880 C   0  0  0  0  0  3  0  0  0  0  0  0
   37.0880   25.7100   40.8000 C   0  0  0  0  0  3  0  0  0  0  0  0
   37.9330   26.3710   41.6630 C   0  0  0  0  0  0  0  0  0  0  0  0
   38.5640   25.6790   42.6690 C   0  0  0  0  0  3  0  0  0  0  0  0
   39.4590   26.2760   43.5510 C   0  0  0  0  0  3  0  0  0  0  0  0
   39.6860   27.6410   43.3520 C   0  0  0  0  0  3  0  0  0  0  0  0
   39.0390   28.3010   42.3370 C   0  0  0  0  0  3  0  0  0  0  0  0
   38.1570   27.7070   41.4770 C   0  0  0  0  0  0  0  0  0  0  0  0
  1  2  2  0  0  0  0
  1  6  1  0  0  0  0
  2  3  1  0  0  0  0
  3  8  1  0  0  0  0
  3  4  2  0  0  0  0
  4  9  1  0  0  0  0
  5  4  1  0  0  0  0
  5 21  1  0  0  0  0
  6  5  2  0  0  0  0
  7  2  1  0  0  0  0
 10 15  1  0  0  0  0
 11 12  1  0  0  0  0
 11 10  2  0  0  0  0
 12 13  2  0  0  0  0
 13 14  1  0  0  0  0
 14  1  1  0  0  0  0
 15 14  2  0  0  0  0
 16 10  1  0  0  0  0
 16 19  1  0  0  0  0
 17 11  1  0  0  0  0
 18 12  1  0  0  0  0
 20 16  1  0  0  0  0
 21 31  1  0  0  0  0
 22 24  1  0  0  0  0
 22 21  2  0  0  0  0
 23 22  1  0  0  0  0
 24 25  2  0  0  0  0
 25 26  1  0  0  0  0
 26 27  1  0  0  0  0
 27 28  2  0  0  0  0
 29 28  1  0  0  0  0
 30 29  2  0  0  0  0
 31 26  2  0  0  0  0
 31 30  1  0  0  0  0
M  END
>  <minimizedAffinity>
-6.50430822

$$$$

 OpenBabel03242520113D

 31 34  0  0  0  0  0  0  0  0999 V2000
   38.9910   31.3010   38.5050 C   0  0  0  0  0  0  0  0  0  0  0  0
   38.2110   32.3300   38.8910 C   0  0  0  0  0  0  0  0  0  0  0  0
   36.9780   32.0900   39.4310 C   0  0  0  0  0  0  0  0  0  0  0  0
   36.5530   30.7780   39.5720 C   0  0  0  0  0  0  0  0  0  0  0  0
   37.3410   29.7250   39.1840 C   0  0  0  0  0  0  0  0  0  0  0  0
   38.5030   30.0620   38.6770 N   0  0  0  0  0  0  0  0  0  0  0  0
   38.5670   33.3420   38.7690 H   0  0  0  0  0  0  0  0  0  0  0  0
   36.3560   32.9230   39.7390 H   0  0  0  0  0  0  0  0  0  0  0  0
   35.5710   30.6760   39.9520 H   0  0  0  0  0  0  0  0  0  0  0  0
   42.0210   32.8240   37.1180 C   0  0  0  0  0  0  0  0  0  0  0  0
   42.7980   31.6890   36.8160 C   0  0  0  0  0  0  0  0  0  0  0  0
   42.2730   30.4210   37.0920 C   0  0  0  0  0  0  0  0  0  0  0  0
   41.0400   30.3760   37.6360 N   0  0  0  0  0  0  0  0  0  0  0  0
   40.3190   31.4730   37.9160 C   0  0  0  0  0  0  0  0  0  0  0  0
   40.8060   32.6820   37.6580 N   0  0  0  0  0  0  0  0  0  0  0  0
   42.5530   34.1110   36.8380 N   0  0  0  0  0  0  0  0  0  0  0  0
   43.7840   31.7750   36.3780 H   0  0  0  0  0  0  0  0  0  0  0  0
   42.8290   29.5170   36.8790 H   0  0  0  0  0  0  0  0  0  0  0  0
   42.4160   34.9350   37.4960 H   0  0  0  0  0  0  0  0  0  0  0  0
   43.1060   34.2750   35.9510 H   0  0  0  0  0  0  0  0  0  0  0  0
   37.0350   28.3130   39.1880 C   0  0  0  0  0  0  0  0  0  0  0  0
   36.6590   27.7360   37.9660 C   0  0  0  0  0  0  0  0  0  0  0  0
   36.6000   28.3680   37.0660 H   0  0  0  0  0  0  0  0  0  0  0  0
   36.3500   26.4260   37.7750 C   0  0  0  0  0  3  0  0  0  0  0  0
   36.3950   25.5580   38.8340 C   0  0  0  0  0  3  0  0  0  0  0  0
   36.7590   26.0540   40.0660 C   0  0  0  0  0  0  0  0  0  0  0  0
   36.8520   25.2080   41.1450 C   0  0  0  0  0  3  0  0  0  0  0  0
   37.2500   25.6340   42.4080 C   0  0  0  0  0  3  0  0  0  0  0  0
   37.5580   26.9930   42.5200 C   0  0  0  0  0  3  0  0  0  0  0  0
   37.4550   27.8100   41.4210 C   0  0  0  0  0  3  0  0  0  0  0  0
   37.0580   27.3830   40.1840 C   0  0  0  0  0  0  0  0  0  0  0  0
  1  6  2  0  0  0  0
  1  2  1  0  0  0  0
  2  3  2  0  0  0  0
  3  4  1  0  0  0  0
  3  8  1  0  0  0  0
  4  9  1  0  0  0  0
  5 21  1  0  0  0  0
  5  4  2  0  0  0  0
  6  5  1  0  0  0  0
  7  2  1  0  0  0  0
 10 15  1  0  0  0  0
 11 12  1  0  0  0  0
 11 10  2  0  0  0  0
 12 13  2  0  0  0  0
 13 14  1  0  0  0  0
 14  1  1  0  0  0  0
 15 14  2  0  0  0  0
 16 10  1  0  0  0  0
 16 19  1  0  0  0  0
 17 11  1  0  0  0  0
 18 12  1  0  0  0  0
 20 16  1  0  0  0  0
 21 31  1  0  0  0  0
 22 21  2  0  0  0  0
 23 22  1  0  0  0  0
 24 22  1  0  0  0  0
 24 25  2  0  0  0  0
 25 26  1  0  0  0  0
 26 31  2  0  0  0  0
 26 27  1  0  0  0  0
 27 28  2  0  0  0  0
 28 29  1  0  0  0  0
 30 29  2  0  0  0  0
 31 30  1  0  0  0  0
M  END
>  <minimizedAffinity>
-6.35772276

$$$$

 OpenBabel03242520113D

 31 34  0  0  0  0  0  0  0  0999 V2000
   40.6000   32.5410   38.9610 C   0  0  0  0  0  0  0  0  0  0  0  0
   40.5180   33.7980   39.4420 C   0  0  0  0  0  0  0  0  0  0  0  0
   39.4660   34.1600   40.2360 C   0  0  0  0  0  0  0  0  0  0  0  0
   38.4950   33.2170   40.5320 C   0  0  0  0  0  0  0  0  0  0  0  0
   38.5710   31.9360   40.0490 C   0  0  0  0  0  0  0  0  0  0  0  0
   39.6170   31.6900   39.2980 N   0  0  0  0  0  0  0  0  0  0  0  0
   41.2880   34.5120   39.1950 H   0  0  0  0  0  0  0  0  0  0  0  0
   39.4070   35.1730   40.6190 H   0  0  0  0  0  0  0  0  0  0  0  0
   37.6890   33.5860   41.1110 H   0  0  0  0  0  0  0  0  0  0  0  0
   43.7790   32.3610   37.1500 C   0  0  0  0  0  0  0  0  0  0  0  0
   43.6590   31.1250   36.4850 C   0  0  0  0  0  0  0  0  0  0  0  0
   42.4930   30.3730   36.6680 C   0  0  0  0  0  0  0  0  0  0  0  0
   41.5510   30.8940   37.4810 N   0  0  0  0  0  0  0  0  0  0  0  0
   41.6890   32.0750   38.1030 C   0  0  0  0  0  0  0  0  0  0  0  0
   42.7920   32.7980   37.9380 N   0  0  0  0  0  0  0  0  0  0  0  0
   44.9630   33.1240   36.9640 N   0  0  0  0  0  0  0  0  0  0  0  0
   44.4420   30.7470   35.8410 H   0  0  0  0  0  0  0  0  0  0  0  0
   42.3500   29.4170   36.1800 H   0  0  0  0  0  0  0  0  0  0  0  0
   45.4240   33.6530   37.7630 H   0  0  0  0  0  0  0  0  0  0  0  0
   45.4140   33.1790   36.0090 H   0  0  0  0  0  0  0  0  0  0  0  0
   37.6240   30.8540   40.1940 C   0  0  0  0  0  0  0  0  0  0  0  0
   36.6880   30.6810   39.1640 C   0  0  0  0  0  0  0  0  0  0  0  0
   36.6990   31.3680   38.3030 H   0  0  0  0  0  0  0  0  0  0  0  0
   35.7340   29.7130   39.1200 C   0  0  0  0  0  3  0  0  0  0  0  0
   35.6400   28.8080   40.1440 C   0  0  0  0  0  3  0  0  0  0  0  0
   36.5290   28.9150   41.1890 C   0  0  0  0  0  0  0  0  0  0  0  0
   36.4900   28.0030   42.2180 C   0  0  0  0  0  3  0  0  0  0  0  0
   37.3820   28.0300   43.2850 C   0  0  0  0  0  3  0  0  0  0  0  0
   38.3370   29.0500   43.2520 C   0  0  0  0  0  3  0  0  0  0  0  0
   38.3470   29.9440   42.2100 C   0  0  0  0  0  3  0  0  0  0  0  0
   37.4630   29.9130   41.1670 C   0  0  0  0  0  0  0  0  0  0  0  0
  1  6  2  0  0  0  0
  1  2  1  0  0  0  0
  2  3  2  0  0  0  0
  3  4  1  0  0  0  0
  3  8  1  0  0  0  0
  4  9  1  0  0  0  0
  5 21  1  0  0  0  0
  5  4  2  0  0  0  0
  6  5  1  0  0  0  0
  7  2  1  0  0  0  0
 10 15  1  0  0  0  0
 11 12  1  0  0  0  0
 11 10  2  0  0  0  0
 12 13  2  0  0  0  0
 13 14  1  0  0  0  0
 14  1  1  0  0  0  0
 15 14  2  0  0  0  0
 16 10  1  0  0  0  0
 16 19  1  0  0  0  0
 17 11  1  0  0  0  0
 18 12  1  0  0  0  0
 20 16  1  0  0  0  0
 21 31  1  0  0  0  0
 22 21  2  0  0  0  0
 23 22  1  0  0  0  0
 24 22  1  0  0  0  0
 24 25  2  0  0  0  0
 25 26  1  0  0  0  0
 26 27  1  0  0  0  0
 27 28  2  0  0  0  0
 29 28  1  0  0  0  0
 30 29  2  0  0  0  0
 31 26  2  0  0  0  0
 31 30  1  0  0  0  0
M  END
>  <minimizedAffinity>
-6.34336901

$$$$

 OpenBabel03242520113D

 31 34  0  0  0  0  0  0  0  0999 V2000
   36.7510   30.4560   38.6250 C   0  0  0  0  0  0  0  0  0  0  0  0
   36.9360   31.7850   38.7470 C   0  0  0  0  0  0  0  0  0  0  0  0
   37.4850   32.2990   39.8890 C   0  0  0  0  0  0  0  0  0  0  0  0
   37.8430   31.4300   40.9080 C   0  0  0  0  0  0  0  0  0  0  0  0
   37.6600   30.0760   40.7920 C   0  0  0  0  0  0  0  0  0  0  0  0
   37.1260   29.6860   39.6590 N   0  0  0  0  0  0  0  0  0  0  0  0
   36.6480   32.4380   37.9380 H   0  0  0  0  0  0  0  0  0  0  0  0
   37.6310   33.3690   39.9800 H   0  0  0  0  0  0  0  0  0  0  0  0
   38.2160   31.9060   41.7770 H   0  0  0  0  0  0  0  0  0  0  0  0
   36.2600   29.2580   35.1980 C   0  0  0  0  0  0  0  0  0  0  0  0
   34.9990   28.6380   35.2900 C   0  0  0  0  0  0  0  0  0  0  0  0
   34.3370   28.6400   36.5230 C   0  0  0  0  0  0  0  0  0  0  0  0
   34.9650   29.2450   37.5520 N   0  0  0  0  0  0  0  0  0  0  0  0
   36.1670   29.8290   37.4390 C   0  0  0  0  0  0  0  0  0  0  0  0
   36.8060   29.8340   36.2740 N   0  0  0  0  0  0  0  0  0  0  0  0
   36.9320   29.2570   33.9460 N   0  0  0  0  0  0  0  0  0  0  0  0
   34.5340   28.1650   34.4350 H   0  0  0  0  0  0  0  0  0  0  0  0
   33.3660   28.1770   36.6480 H   0  0  0  0  0  0  0  0  0  0  0  0
   37.9820   29.1100   33.8690 H   0  0  0  0  0  0  0  0  0  0  0  0
   36.3870   29.4060   33.0510 H   0  0  0  0  0  0  0  0  0  0  0  0
   37.9030   29.0400   41.7690 C   0  0  0  0  0  0  0  0  0  0  0  0
   36.7850   28.3580   42.2710 C   0  0  0  0  0  0  0  0  0  0  0  0
   35.7790   28.6360   41.9180 H   0  0  0  0  0  0  0  0  0  0  0  0
   36.8200   27.3490   43.1810 C   0  0  0  0  0  3  0  0  0  0  0  0
   38.0250   26.9280   43.6800 C   0  0  0  0  0  3  0  0  0  0  0  0
   39.1680   27.5510   43.2310 C   0  0  0  0  0  0  0  0  0  0  0  0
   40.3970   27.1330   43.6800 C   0  0  0  0  0  3  0  0  0  0  0  0
   41.5930   27.6920   43.2390 C   0  0  0  0  0  3  0  0  0  0  0  0
   41.4720   28.7180   42.2970 C   0  0  0  0  0  3  0  0  0  0  0  0
   40.2270   29.1110   41.8710 C   0  0  0  0  0  3  0  0  0  0  0  0
   39.0570   28.5580   42.3130 C   0  0  0  0  0  0  0  0  0  0  0  0
  1  2  2  0  0  0  0
  1  6  1  0  0  0  0
  2  3  1  0  0  0  0
  3  8  1  0  0  0  0
  3  4  2  0  0  0  0
  4  9  1  0  0  0  0
  5  4  1  0  0  0  0
  5 21  1  0  0  0  0
  6  5  2  0  0  0  0
  7  2  1  0  0  0  0
 10 11  2  0  0  0  0
 10 15  1  0  0  0  0
 11 12  1  0  0  0  0
 12 18  1  0  0  0  0
 12 13  2  0  0  0  0
 14 13  1  0  0  0  0
 14  1  1  0  0  0  0
 15 14  2  0  0  0  0
 16 10  1  0  0  0  0
 17 11  1  0  0  0  0
 19 16  1  0  0  0  0
 20 16  1  0  0  0  0
 21 22  2  0  0  0  0
 21 31  1  0  0  0  0
 22 24  1  0  0  0  0
 23 22  1  0  0  0  0
 24 25  2  0  0  0  0
 26 25  1  0  0  0  0
 26 27  1  0  0  0  0
 28 27  2  0  0  0  0
 29 28  1  0  0  0  0
 30 29  2  0  0  0  0
 30 31  1  0  0  0  0
 31 26  2  0  0  0  0
M  END
>  <minimizedAffinity>
-6.32797384

$$$$

 OpenBabel03242520113D

 31 34  0  0  0  0  0  0  0  0999 V2000
   39.4300   25.5990   42.2620 C   0  0  0  0  0  0  0  0  0  0  0  0
   38.9670   24.3370   42.3680 C   0  0  0  0  0  0  0  0  0  0  0  0
   37.7250   24.0210   41.8940 C   0  0  0  0  0  0  0  0  0  0  0  0
   36.9600   25.0160   41.3060 C   0  0  0  0  0  0  0  0  0  0  0  0
   37.4230   26.3020   41.1910 C   0  0  0  0  0  0  0  0  0  0  0  0
   38.6240   26.5010   41.6780 N   0  0  0  0  0  0  0  0  0  0  0  0
   39.5840   23.5830   42.8310 H   0  0  0  0  0  0  0  0  0  0  0  0
   37.3590   23.0040   41.9830 H   0  0  0  0  0  0  0  0  0  0  0  0
   35.9930   24.7050   41.0070 H   0  0  0  0  0  0  0  0  0  0  0  0
   42.9030   25.5320   43.4260 C   0  0  0  0  0  0  0  0  0  0  0  0
   43.1540   26.8990   43.6520 C   0  0  0  0  0  0  0  0  0  0  0  0
   42.1320   27.8220   43.4020 C   0  0  0  0  0  0  0  0  0  0  0  0
   40.9590   27.3270   42.9560 N   0  0  0  0  0  0  0  0  0  0  0  0
   40.7440   26.0200   42.7470 C   0  0  0  0  0  0  0  0  0  0  0  0
   41.7070   25.1340   42.9810 N   0  0  0  0  0  0  0  0  0  0  0  0
   43.9400   24.5950   43.6790 N   0  0  0  0  0  0  0  0  0  0  0  0
   44.1130   27.2490   44.0120 H   0  0  0  0  0  0  0  0  0  0  0  0
   42.2730   28.8840   43.5600 H   0  0  0  0  0  0  0  0  0  0  0  0
   44.1160   23.7620   43.0440 H   0  0  0  0  0  0  0  0  0  0  0  0
   44.5690   24.7150   44.5220 H   0  0  0  0  0  0  0  0  0  0  0  0
   36.7430   27.4690   40.6800 C   0  0  0  0  0  0  0  0  0  0  0  0
   36.7800   28.6280   41.4690 C   0  0  0  0  0  0  0  0  0  0  0  0
   37.3060   28.6070   42.4360 H   0  0  0  0  0  0  0  0  0  0  0  0
   36.2110   29.8210   41.1460 C   0  0  0  0  0  3  0  0  0  0  0  0
   35.5350   29.9490   39.9620 C   0  0  0  0  0  3  0  0  0  0  0  0
   35.4600   28.8520   39.1330 C   0  0  0  0  0  0  0  0  0  0  0  0
   34.8210   28.9520   37.9200 C   0  0  0  0  0  3  0  0  0  0  0  0
   34.7400   27.8950   37.0190 C   0  0  0  0  0  3  0  0  0  0  0  0
   35.3570   26.7070   37.4220 C   0  0  0  0  0  3  0  0  0  0  0  0
   35.9860   26.6420   38.6410 C   0  0  0  0  0  3  0  0  0  0  0  0
   36.0560   27.6850   39.5220 C   0  0  0  0  0  0  0  0  0  0  0  0
  1  2  1  0  0  0  0
  1 14  1  0  0  0  0
  2  7  1  0  0  0  0
  3  8  1  0  0  0  0
  3  2  2  0  0  0  0
  4  3  1  0  0  0  0
  5  4  2  0  0  0  0
  5  6  1  0  0  0  0
  6  1  2  0  0  0  0
  9  4  1  0  0  0  0
 10 11  1  0  0  0  0
 10 16  1  0  0  0  0
 11 17  1  0  0  0  0
 12 18  1  0  0  0  0
 12 11  2  0  0  0  0
 13 12  1  0  0  0  0
 14 13  2  0  0  0  0
 14 15  1  0  0  0  0
 15 10  2  0  0  0  0
 16 20  1  0  0  0  0
 19 16  1  0  0  0  0
 21  5  1  0  0  0  0
 21 22  1  0  0  0  0
 22 23  1  0  0  0  0
 24 22  2  0  0  0  0
 25 24  1  0  0  0  0
 26 31  1  0  0  0  0
 26 25  2  0  0  0  0
 27 26  1  0  0  0  0
 28 29  1  0  0  0  0
 28 27  2  0  0  0  0
 29 30  2  0  0  0  0
 30 31  1  0  0  0  0
 31 21  2  0  0  0  0
M  END
>  <minimizedAffinity>
-6.30504465

$$$$

 OpenBabel03242520113D

 31 34  0  0  0  0  0  0  0  0999 V2000
   41.6750   30.4670   42.1890 C   0  0  0  0  0  0  0  0  0  0  0  0
   42.8240   30.0200   42.7350 C   0  0  0  0  0  0  0  0  0  0  0  0
   42.8560   28.8080   43.3680 C   0  0  0  0  0  0  0  0  0  0  0  0
   41.6930   28.0580   43.4350 C   0  0  0  0  0  0  0  0  0  0  0  0
   40.5200   28.5040   42.8810 C   0  0  0  0  0  0  0  0  0  0  0  0
   40.5950   29.6760   42.2990 N   0  0  0  0  0  0  0  0  0  0  0  0
   43.7150   30.6250   42.6670 H   0  0  0  0  0  0  0  0  0  0  0  0
   43.7840   28.4550   43.8040 H   0  0  0  0  0  0  0  0  0  0  0  0
   41.7860   27.1560   43.9810 H   0  0  0  0  0  0  0  0  0  0  0  0
   40.3470   33.2630   40.2300 C   0  0  0  0  0  0  0  0  0  0  0  0
   41.4310   34.1610   40.2440 C   0  0  0  0  0  0  0  0  0  0  0  0
   42.5990   33.7960   40.9240 C   0  0  0  0  0  0  0  0  0  0  0  0
   42.6030   32.5900   41.5270 N   0  0  0  0  0  0  0  0  0  0  0  0
   41.5560   31.7510   41.5000 C   0  0  0  0  0  0  0  0  0  0  0  0
   40.4420   32.0860   40.8570 N   0  0  0  0  0  0  0  0  0  0  0  0
   39.1620   33.6320   39.5390 N   0  0  0  0  0  0  0  0  0  0  0  0
   41.3820   35.1200   39.7440 H   0  0  0  0  0  0  0  0  0  0  0  0
   43.4610   34.4500   40.9650 H   0  0  0  0  0  0  0  0  0  0  0  0
   38.1940   33.4140   39.9220 H   0  0  0  0  0  0  0  0  0  0  0  0
   39.2240   34.1420   38.6140 H   0  0  0  0  0  0  0  0  0  0  0  0
   39.2100   27.8950   42.9190 C   0  0  0  0  0  0  0  0  0  0  0  0
   38.1560   28.6780   43.4120 C   0  0  0  0  0  0  0  0  0  0  0  0
   38.3590   29.7040   43.7560 H   0  0  0  0  0  0  0  0  0  0  0  0
   36.8580   28.2810   43.5090 C   0  0  0  0  0  3  0  0  0  0  0  0
   36.5030   27.0220   43.1040 C   0  0  0  0  0  3  0  0  0  0  0  0
   37.4870   26.1970   42.6060 C   0  0  0  0  0  0  0  0  0  0  0  0
   37.1640   24.9400   42.1560 C   0  0  0  0  0  3  0  0  0  0  0  0
   38.1000   24.0690   41.6070 C   0  0  0  0  0  3  0  0  0  0  0  0
   39.4090   24.5550   41.5340 C   0  0  0  0  0  3  0  0  0  0  0  0
   39.6970   25.8160   41.9940 C   0  0  0  0  0  3  0  0  0  0  0  0
   38.7700   26.6630   42.5370 C   0  0  0  0  0  0  0  0  0  0  0  0
  1  6  2  0  0  0  0
  1  2  1  0  0  0  0
  2  3  2  0  0  0  0
  3  4  1  0  0  0  0
  3  8  1  0  0  0  0
  4  9  1  0  0  0  0
  5 21  1  0  0  0  0
  5  4  2  0  0  0  0
  6  5  1  0  0  0  0
  7  2  1  0  0  0  0
 10 11  2  0  0  0  0
 10 15  1  0  0  0  0
 11 12  1  0  0  0  0
 12 18  1  0  0  0  0
 12 13  2  0  0  0  0
 14 13  1  0  0  0  0
 14  1  1  0  0  0  0
 15 14  2  0  0  0  0
 16 19  1  0  0  0  0
 16 10  1  0  0  0  0
 17 11  1  0  0  0  0
 20 16  1  0  0  0  0
 21 22  1  0  0  0  0
 22 24  2  0  0  0  0
 22 23  1  0  0  0  0
 25 24  1  0  0  0  0
 26 25  2  0  0  0  0
 27 26  1  0  0  0  0
 28 27  2  0  0  0  0
 29 28  1  0  0  0  0
 29 30  2  0  0  0  0
 30 31  1  0  0  0  0
 31 26  1  0  0  0  0
 31 21  2  0  0  0  0
M  END
>  <minimizedAffinity>
-6.22074938

$$$$

 OpenBabel03242520113D

 31 34  0  0  0  0  0  0  0  0999 V2000
   36.9330   29.6150   39.0510 C   0  0  0  0  0  0  0  0  0  0  0  0
   36.3680   30.7260   39.5670 C   0  0  0  0  0  0  0  0  0  0  0  0
   36.4310   30.9640   40.9120 C   0  0  0  0  0  0  0  0  0  0  0  0
   37.0810   30.0480   41.7250 C   0  0  0  0  0  0  0  0  0  0  0  0
   37.6600   28.9180   41.2080 C   0  0  0  0  0  0  0  0  0  0  0  0
   37.5430   28.7820   39.9090 N   0  0  0  0  0  0  0  0  0  0  0  0
   35.8690   31.4210   38.9110 H   0  0  0  0  0  0  0  0  0  0  0  0
   35.9740   31.8590   41.3200 H   0  0  0  0  0  0  0  0  0  0  0  0
   37.0450   30.2780   42.7570 H   0  0  0  0  0  0  0  0  0  0  0  0
   36.7640   29.9170   35.4040 C   0  0  0  0  0  0  0  0  0  0  0  0
   36.8650   28.5710   35.0020 C   0  0  0  0  0  0  0  0  0  0  0  0
   36.9900   27.5820   35.9850 C   0  0  0  0  0  0  0  0  0  0  0  0
   37.0040   27.9960   37.2690 N   0  0  0  0  0  0  0  0  0  0  0  0
   36.9070   29.2850   37.6270 C   0  0  0  0  0  0  0  0  0  0  0  0
   36.7870   30.2330   36.7030 N   0  0  0  0  0  0  0  0  0  0  0  0
   36.6360   30.9210   34.4070 N   0  0  0  0  0  0  0  0  0  0  0  0
   36.8480   28.2870   33.9580 H   0  0  0  0  0  0  0  0  0  0  0  0
   37.0710   26.5340   35.7290 H   0  0  0  0  0  0  0  0  0  0  0  0
   37.1340   31.8570   34.4820 H   0  0  0  0  0  0  0  0  0  0  0  0
   36.0320   30.7490   33.5560 H   0  0  0  0  0  0  0  0  0  0  0  0
   38.3070   27.8300   41.9050 C   0  0  0  0  0  0  0  0  0  0  0  0
   39.2870   28.1690   42.8490 C   0  0  0  0  0  0  0  0  0  0  0  0
   39.5330   29.2290   43.0160 H   0  0  0  0  0  0  0  0  0  0  0  0
   39.9890   27.2850   43.6080 C   0  0  0  0  0  3  0  0  0  0  0  0
   39.7550   25.9420   43.4750 C   0  0  0  0  0  3  0  0  0  0  0  0
   38.8030   25.5350   42.5680 C   0  0  0  0  0  0  0  0  0  0  0  0
   38.5130   24.1990   42.4320 C   0  0  0  0  0  3  0  0  0  0  0  0
   37.5380   23.7210   41.5620 C   0  0  0  0  0  3  0  0  0  0  0  0
   36.8550   24.6930   40.8240 C   0  0  0  0  0  3  0  0  0  0  0  0
   37.1710   26.0200   40.9850 C   0  0  0  0  0  3  0  0  0  0  0  0
   38.1350   26.4790   41.8390 C   0  0  0  0  0  0  0  0  0  0  0  0
  1  2  2  0  0  0  0
  1  6  1  0  0  0  0
  2  3  1  0  0  0  0
  3  8  1  0  0  0  0
  3  4  2  0  0  0  0
  4  9  1  0  0  0  0
  5  4  1  0  0  0  0
  5 21  1  0  0  0  0
  6  5  2  0  0  0  0
  7  2  1  0  0  0  0
 10 15  1  0  0  0  0
 11 10  2  0  0  0  0
 11 12  1  0  0  0  0
 12 13  2  0  0  0  0
 13 14  1  0  0  0  0
 14  1  1  0  0  0  0
 15 14  2  0  0  0  0
 16 19  1  0  0  0  0
 16 10  1  0  0  0  0
 17 11  1  0  0  0  0
 18 12  1  0  0  0  0
 20 16  1  0  0  0  0
 21 22  1  0  0  0  0
 22 23  1  0  0  0  0
 22 24  2  0  0  0  0
 25 24  1  0  0  0  0
 26 25  2  0  0  0  0
 27 26  1  0  0  0  0
 28 27  2  0  0  0  0
 29 30  2  0  0  0  0
 29 28  1  0  0  0  0
 30 31  1  0  0  0  0
 31 21  2  0  0  0  0
 31 26  1  0  0  0  0
M  END
>  <minimizedAffinity>
-6.18695211

$$$$
