
 OpenBabel03252503073D

 22 24  0  0  0  0  0  0  0  0999 V2000
   36.5790   30.4260   38.1030 C   0  0  0  0  0  0  0  0  0  0  0  0
   36.4280   29.7160   39.3050 C   0  0  0  0  0  0  0  0  0  0  0  0
   37.5500   29.1760   39.9220 C   0  0  0  0  0  0  0  0  0  0  0  0
   38.7630   29.3700   39.3150 N   0  0  0  0  0  0  0  0  0  0  0  0
   38.8890   30.0570   38.1570 C   0  0  0  0  0  0  0  0  0  0  0  0
   37.7940   30.5800   37.5600 N   0  0  0  0  0  0  0  0  0  0  0  0
   35.7270   30.8530   37.6090 H   0  0  0  0  0  0  0  0  0  0  0  0
   39.8860   30.1630   37.7450 H   0  0  0  0  0  0  0  0  0  0  0  0
   37.4150   28.4340   41.1630 C   0  0  0  0  0  0  0  0  0  0  0  0
   37.5000   29.0090   42.4100 C   0  0  0  0  0  0  0  0  0  0  0  0
   37.6810   30.0730   42.5000 H   0  0  0  0  0  0  0  0  0  0  0  0
   37.3820   28.3500   43.6170 C   0  0  0  0  0  3  0  0  0  0  0  0
   37.1560   26.9840   43.5770 C   0  0  0  0  0  3  0  0  0  0  0  0
   37.0580   26.3260   42.3660 C   0  0  0  0  0  0  0  0  0  0  0  0
   36.8360   24.9840   42.4120 C   0  0  0  0  0  3  0  0  0  0  0  0
   36.7300   24.2820   41.2190 C   0  0  0  0  0  3  0  0  0  0  0  0
   36.8560   24.9870   40.0340 C   0  0  0  0  0  3  0  0  0  0  0  0
   37.0810   26.3550   40.0260 C   0  0  0  0  0  3  0  0  0  0  0  0
   37.1870   27.0540   41.1980 C   0  0  0  0  0  0  0  0  0  0  0  0
   35.1140   29.5620   39.8670 C   0  0  0  0  0  0  0  0  0  0  0  0
   34.2530   28.9460   39.2080 O   0  0  0  0  0  0  0  0  0  0  0  0
   34.9860   30.0140   40.8490 H   0  0  0  0  0  0  0  0  0  0  0  0
  1  2  1  0  0  0  0
  2 20  1  0  0  0  0
  2  3  2  0  0  0  0
  3  9  1  0  0  0  0
  4  3  1  0  0  0  0
  5  4  2  0  0  0  0
  6  1  2  0  0  0  0
  6  5  1  0  0  0  0
  7  1  1  0  0  0  0
  8  5  1  0  0  0  0
  9 19  2  0  0  0  0
  9 10  1  0  0  0  0
 10 11  1  0  0  0  0
 10 12  2  0  0  0  0
 13 12  1  0  0  0  0
 14 15  1  0  0  0  0
 14 13  2  0  0  0  0
 16 15  2  0  0  0  0
 17 16  1  0  0  0  0
 18 17  2  0  0  0  0
 18 19  1  0  0  0  0
 19 14  1  0  0  0  0
 20 22  1  0  0  0  0
 21 20  2  0  0  0  0
M  END
>  <minimizedAffinity>
-5.19259405

$$$$

 OpenBabel03252503073D

 22 24  0  0  0  0  0  0  0  0999 V2000
   40.3980   32.7720   39.1460 C   0  0  0  0  0  0  0  0  0  0  0  0
   39.5160   31.6860   39.2580 C   0  0  0  0  0  0  0  0  0  0  0  0
   38.3110   31.8540   39.9300 C   0  0  0  0  0  0  0  0  0  0  0  0
   38.0450   33.0910   40.4550 N   0  0  0  0  0  0  0  0  0  0  0  0
   38.9070   34.1260   40.3370 C   0  0  0  0  0  0  0  0  0  0  0  0
   40.0790   33.9580   39.6830 N   0  0  0  0  0  0  0  0  0  0  0  0
   41.3340   32.6670   38.6310 H   0  0  0  0  0  0  0  0  0  0  0  0
   38.6180   35.0700   40.7830 H   0  0  0  0  0  0  0  0  0  0  0  0
   37.3870   30.7420   40.0610 C   0  0  0  0  0  0  0  0  0  0  0  0
   36.4030   30.4540   39.1430 C   0  0  0  0  0  0  0  0  0  0  0  0
   36.2870   31.0780   38.2660 H   0  0  0  0  0  0  0  0  0  0  0  0
   35.5000   29.4130   39.2220 C   0  0  0  0  0  3  0  0  0  0  0  0
   35.5850   28.5770   40.3230 C   0  0  0  0  0  3  0  0  0  0  0  0
   36.5440   28.7950   41.2940 C   0  0  0  0  0  0  0  0  0  0  0  0
   36.5630   27.9290   42.3440 C   0  0  0  0  0  3  0  0  0  0  0  0
   37.5100   28.1110   43.3430 C   0  0  0  0  0  3  0  0  0  0  0  0
   38.3950   29.1680   43.2200 C   0  0  0  0  0  3  0  0  0  0  0  0
   38.3470   30.0290   42.1350 C   0  0  0  0  0  3  0  0  0  0  0  0
   37.4150   29.8580   41.1460 C   0  0  0  0  0  0  0  0  0  0  0  0
   39.8820   30.4240   38.6760 C   0  0  0  0  0  0  0  0  0  0  0  0
   40.6910   29.6980   39.2870 O   0  0  0  0  0  0  0  0  0  0  0  0
   39.4040   30.2100   37.7220 H   0  0  0  0  0  0  0  0  0  0  0  0
  1  2  2  0  0  0  0
  1  6  1  0  0  0  0
  2  3  1  0  0  0  0
  3  9  1  0  0  0  0
  3  4  2  0  0  0  0
  5  4  1  0  0  0  0
  5  8  1  0  0  0  0
  6  5  2  0  0  0  0
  7  1  1  0  0  0  0
  9 19  1  0  0  0  0
 10 12  1  0  0  0  0
 10  9  2  0  0  0  0
 11 10  1  0  0  0  0
 12 13  2  0  0  0  0
 13 14  1  0  0  0  0
 14 15  1  0  0  0  0
 15 16  2  0  0  0  0
 17 16  1  0  0  0  0
 18 17  2  0  0  0  0
 19 14  2  0  0  0  0
 19 18  1  0  0  0  0
 20  2  1  0  0  0  0
 20 21  2  0  0  0  0
 22 20  1  0  0  0  0
M  END
>  <minimizedAffinity>
-5.15370083

$$$$

 OpenBabel03252503073D

 22 24  0  0  0  0  0  0  0  0999 V2000
   40.1870   32.9670   39.0800 C   0  0  0  0  0  0  0  0  0  0  0  0
   39.0620   32.2830   39.5670 C   0  0  0  0  0  0  0  0  0  0  0  0
   38.9220   30.9270   39.3010 C   0  0  0  0  0  0  0  0  0  0  0  0
   39.9060   30.3190   38.5670 N   0  0  0  0  0  0  0  0  0  0  0  0
   40.9840   30.9940   38.1060 C   0  0  0  0  0  0  0  0  0  0  0  0
   41.1150   32.3150   38.3660 N   0  0  0  0  0  0  0  0  0  0  0  0
   40.3170   34.0150   39.2730 H   0  0  0  0  0  0  0  0  0  0  0  0
   41.7140   30.4360   37.5320 H   0  0  0  0  0  0  0  0  0  0  0  0
   37.7630   30.2020   39.7910 C   0  0  0  0  0  0  0  0  0  0  0  0
   36.5590   30.1490   39.1290 C   0  0  0  0  0  0  0  0  0  0  0  0
   36.4390   30.6720   38.1870 H   0  0  0  0  0  0  0  0  0  0  0  0
   35.4290   29.4780   39.5520 C   0  0  0  0  0  3  0  0  0  0  0  0
   35.5070   28.7930   40.7520 C   0  0  0  0  0  3  0  0  0  0  0  0
   36.6790   28.7940   41.4840 C   0  0  0  0  0  0  0  0  0  0  0  0
   36.6750   28.0970   42.6530 C   0  0  0  0  0  3  0  0  0  0  0  0
   37.8320   28.0720   43.4200 C   0  0  0  0  0  3  0  0  0  0  0  0
   38.9400   28.7590   42.9550 C   0  0  0  0  0  3  0  0  0  0  0  0
   38.9080   29.4580   41.7570 C   0  0  0  0  0  3  0  0  0  0  0  0
   37.7700   29.4890   40.9960 C   0  0  0  0  0  0  0  0  0  0  0  0
   38.0790   33.0060   40.3270 C   0  0  0  0  0  0  0  0  0  0  0  0
   37.2820   33.7480   39.7190 O   0  0  0  0  0  0  0  0  0  0  0  0
   38.1220   32.8340   41.4010 H   0  0  0  0  0  0  0  0  0  0  0  0
  1  7  1  0  0  0  0
  1  2  1  0  0  0  0
  2 20  1  0  0  0  0
  3  2  2  0  0  0  0
  3  9  1  0  0  0  0
  4  3  1  0  0  0  0
  5  6  1  0  0  0  0
  5  4  2  0  0  0  0
  6  1  2  0  0  0  0
  8  5  1  0  0  0  0
  9 19  1  0  0  0  0
 10 12  1  0  0  0  0
 10  9  2  0  0  0  0
 11 10  1  0  0  0  0
 12 13  2  0  0  0  0
 13 14  1  0  0  0  0
 14 15  1  0  0  0  0
 15 16  2  0  0  0  0
 17 16  1  0  0  0  0
 18 17  2  0  0  0  0
 19 14  2  0  0  0  0
 19 18  1  0  0  0  0
 20 22  1  0  0  0  0
 21 20  2  0  0  0  0
M  END
>  <minimizedAffinity>
-4.98156834

$$$$

 OpenBabel03252503073D

 22 24  0  0  0  0  0  0  0  0999 V2000
   37.8710   30.6090   39.3970 C   0  0  0  0  0  0  0  0  0  0  0  0
   38.4810   29.5510   40.0890 C   0  0  0  0  0  0  0  0  0  0  0  0
   37.9320   29.1150   41.2880 C   0  0  0  0  0  0  0  0  0  0  0  0
   36.8050   29.7510   41.7380 N   0  0  0  0  0  0  0  0  0  0  0  0
   36.2310   30.7690   41.0580 C   0  0  0  0  0  0  0  0  0  0  0  0
   36.7700   31.1910   39.8920 N   0  0  0  0  0  0  0  0  0  0  0  0
   38.2780   30.9630   38.4690 H   0  0  0  0  0  0  0  0  0  0  0  0
   35.3420   31.2170   41.4860 H   0  0  0  0  0  0  0  0  0  0  0  0
   38.5500   28.0250   42.0220 C   0  0  0  0  0  0  0  0  0  0  0  0
   39.5560   28.1990   42.9440 C   0  0  0  0  0  0  0  0  0  0  0  0
   39.9290   29.1940   43.1520 H   0  0  0  0  0  0  0  0  0  0  0  0
   40.1770   27.1990   43.6650 C   0  0  0  0  0  3  0  0  0  0  0  0
   39.7550   25.8980   43.4450 C   0  0  0  0  0  3  0  0  0  0  0  0
   38.7500   25.6340   42.5350 C   0  0  0  0  0  0  0  0  0  0  0  0
   38.3920   24.3300   42.3760 C   0  0  0  0  0  3  0  0  0  0  0  0
   37.3870   24.0180   41.4710 C   0  0  0  0  0  3  0  0  0  0  0  0
   36.7930   25.0550   40.7720 C   0  0  0  0  0  3  0  0  0  0  0  0
   37.1830   26.3720   40.9600 C   0  0  0  0  0  3  0  0  0  0  0  0
   38.1740   26.6880   41.8500 C   0  0  0  0  0  0  0  0  0  0  0  0
   39.6640   28.9450   39.5400 C   0  0  0  0  0  0  0  0  0  0  0  0
   39.5330   28.0970   38.6340 O   0  0  0  0  0  0  0  0  0  0  0  0
   40.5960   29.2920   39.9790 H   0  0  0  0  0  0  0  0  0  0  0  0
  1  6  2  0  0  0  0
  1  2  1  0  0  0  0
  2  3  2  0  0  0  0
  3  4  1  0  0  0  0
  3  9  1  0  0  0  0
  5  8  1  0  0  0  0
  5  4  2  0  0  0  0
  6  5  1  0  0  0  0
  7  1  1  0  0  0  0
  9 10  1  0  0  0  0
 10 11  1  0  0  0  0
 10 12  2  0  0  0  0
 13 12  1  0  0  0  0
 14 13  2  0  0  0  0
 15 14  1  0  0  0  0
 16 15  2  0  0  0  0
 17 18  2  0  0  0  0
 17 16  1  0  0  0  0
 18 19  1  0  0  0  0
 19  9  2  0  0  0  0
 19 14  1  0  0  0  0
 20 22  1  0  0  0  0
 20  2  1  0  0  0  0
 21 20  2  0  0  0  0
M  END
>  <minimizedAffinity>
-4.97005081

$$$$

 OpenBabel03252503073D

 22 24  0  0  0  0  0  0  0  0999 V2000
   38.8690   30.3440   38.1960 C   0  0  0  0  0  0  0  0  0  0  0  0
   38.7730   29.6110   39.3900 C   0  0  0  0  0  0  0  0  0  0  0  0
   37.5180   29.3110   39.9050 C   0  0  0  0  0  0  0  0  0  0  0  0
   36.4240   29.7530   39.2080 N   0  0  0  0  0  0  0  0  0  0  0  0
   36.5360   30.4580   38.0590 C   0  0  0  0  0  0  0  0  0  0  0  0
   37.7600   30.7490   37.5630 N   0  0  0  0  0  0  0  0  0  0  0  0
   39.8280   30.5880   37.7790 H   0  0  0  0  0  0  0  0  0  0  0  0
   35.6190   30.7690   37.5730 H   0  0  0  0  0  0  0  0  0  0  0  0
   37.3960   28.5590   41.1410 C   0  0  0  0  0  0  0  0  0  0  0  0
   37.4780   29.1260   42.3910 C   0  0  0  0  0  0  0  0  0  0  0  0
   37.6450   30.1920   42.4890 H   0  0  0  0  0  0  0  0  0  0  0  0
   37.3710   28.4570   43.5940 C   0  0  0  0  0  3  0  0  0  0  0  0
   37.1620   27.0890   43.5460 C   0  0  0  0  0  3  0  0  0  0  0  0
   37.0690   26.4380   42.3300 C   0  0  0  0  0  0  0  0  0  0  0  0
   36.8630   25.0930   42.3670 C   0  0  0  0  0  3  0  0  0  0  0  0
   36.7630   24.3980   41.1690 C   0  0  0  0  0  3  0  0  0  0  0  0
   36.8760   25.1130   39.9890 C   0  0  0  0  0  3  0  0  0  0  0  0
   37.0840   26.4840   39.9900 C   0  0  0  0  0  3  0  0  0  0  0  0
   37.1850   27.1750   41.1670 C   0  0  0  0  0  0  0  0  0  0  0  0
   39.9770   29.1910   40.0530 C   0  0  0  0  0  0  0  0  0  0  0  0
   40.6990   30.0590   40.5840 O   0  0  0  0  0  0  0  0  0  0  0  0
   40.1560   28.1190   40.0290 H   0  0  0  0  0  0  0  0  0  0  0  0
  1  2  1  0  0  0  0
  2  3  2  0  0  0  0
  2 20  1  0  0  0  0
  3  9  1  0  0  0  0
  4  3  1  0  0  0  0
  5  4  2  0  0  0  0
  6  5  1  0  0  0  0
  6  1  2  0  0  0  0
  7  1  1  0  0  0  0
  8  5  1  0  0  0  0
  9 19  2  0  0  0  0
  9 10  1  0  0  0  0
 10 11  1  0  0  0  0
 10 12  2  0  0  0  0
 13 12  1  0  0  0  0
 14 15  1  0  0  0  0
 14 13  2  0  0  0  0
 16 15  2  0  0  0  0
 17 18  2  0  0  0  0
 17 16  1  0  0  0  0
 18 19  1  0  0  0  0
 19 14  1  0  0  0  0
 20 21  2  0  0  0  0
 22 20  1  0  0  0  0
M  END
>  <minimizedAffinity>
-4.91278553

$$$$

 OpenBabel03252503073D

 22 24  0  0  0  0  0  0  0  0999 V2000
   39.9710   32.3160   40.5790 C   0  0  0  0  0  0  0  0  0  0  0  0
   39.0000   31.3490   40.2690 C   0  0  0  0  0  0  0  0  0  0  0  0
   37.7210   31.7590   39.9140 C   0  0  0  0  0  0  0  0  0  0  0  0
   37.4720   33.1060   39.8840 N   0  0  0  0  0  0  0  0  0  0  0  0
   38.4190   34.0220   40.1860 C   0  0  0  0  0  0  0  0  0  0  0  0
   39.6620   33.6190   40.5330 N   0  0  0  0  0  0  0  0  0  0  0  0
   40.9660   32.0230   40.8560 H   0  0  0  0  0  0  0  0  0  0  0  0
   38.1360   35.0670   40.1380 H   0  0  0  0  0  0  0  0  0  0  0  0
   36.7020   30.7760   39.5940 C   0  0  0  0  0  0  0  0  0  0  0  0
   35.8740   30.2010   40.5310 C   0  0  0  0  0  0  0  0  0  0  0  0
   35.9690   30.4770   41.5740 H   0  0  0  0  0  0  0  0  0  0  0  0
   34.8930   29.2630   40.2790 C   0  0  0  0  0  3  0  0  0  0  0  0
   34.7200   28.8570   38.9670 C   0  0  0  0  0  3  0  0  0  0  0  0
   35.5100   29.3830   37.9620 C   0  0  0  0  0  0  0  0  0  0  0  0
   35.2780   28.9340   36.6990 C   0  0  0  0  0  3  0  0  0  0  0  0
   36.0480   29.4350   35.6580 C   0  0  0  0  0  3  0  0  0  0  0  0
   37.0190   30.3750   35.9590 C   0  0  0  0  0  3  0  0  0  0  0  0
   37.2270   30.8110   37.2590 C   0  0  0  0  0  3  0  0  0  0  0  0
   36.4720   30.3200   38.2900 C   0  0  0  0  0  0  0  0  0  0  0  0
   39.3540   29.9570   40.3290 C   0  0  0  0  0  0  0  0  0  0  0  0
   39.7490   29.4890   41.4160 O   0  0  0  0  0  0  0  0  0  0  0  0
   39.2430   29.4210   39.3890 H   0  0  0  0  0  0  0  0  0  0  0  0
  1  7  1  0  0  0  0
  2 20  1  0  0  0  0
  2  1  2  0  0  0  0
  3  2  1  0  0  0  0
  4  3  2  0  0  0  0
  4  5  1  0  0  0  0
  5  6  2  0  0  0  0
  6  1  1  0  0  0  0
  8  5  1  0  0  0  0
  9  3  1  0  0  0  0
  9 10  1  0  0  0  0
 10 11  1  0  0  0  0
 12 10  2  0  0  0  0
 13 12  1  0  0  0  0
 14 19  1  0  0  0  0
 14 13  2  0  0  0  0
 15 14  1  0  0  0  0
 16 17  1  0  0  0  0
 16 15  2  0  0  0  0
 17 18  2  0  0  0  0
 18 19  1  0  0  0  0
 19  9  2  0  0  0  0
 20 21  2  0  0  0  0
 22 20  1  0  0  0  0
M  END
>  <minimizedAffinity>
-4.87583017

$$$$

 OpenBabel03252503073D

 22 24  0  0  0  0  0  0  0  0999 V2000
   43.2530   26.0500   41.0350 C   0  0  0  0  0  0  0  0  0  0  0  0
   41.8570   25.9030   41.0120 C   0  0  0  0  0  0  0  0  0  0  0  0
   41.1950   25.5030   42.1660 C   0  0  0  0  0  0  0  0  0  0  0  0
   41.9530   25.2690   43.2830 N   0  0  0  0  0  0  0  0  0  0  0  0
   43.2970   25.4160   43.2880 C   0  0  0  0  0  0  0  0  0  0  0  0
   43.9370   25.8050   42.1610 N   0  0  0  0  0  0  0  0  0  0  0  0
   43.7860   26.3590   40.1560 H   0  0  0  0  0  0  0  0  0  0  0  0
   43.8190   25.2100   44.2140 H   0  0  0  0  0  0  0  0  0  0  0  0
   39.7520   25.3400   42.1620 C   0  0  0  0  0  0  0  0  0  0  0  0
   39.1160   24.1800   41.7860 C   0  0  0  0  0  0  0  0  0  0  0  0
   39.6990   23.3250   41.4680 H   0  0  0  0  0  0  0  0  0  0  0  0
   37.7500   23.9750   41.7620 C   0  0  0  0  0  3  0  0  0  0  0  0
   36.9410   25.0290   42.1510 C   0  0  0  0  0  3  0  0  0  0  0  0
   37.4980   26.2320   42.5430 C   0  0  0  0  0  0  0  0  0  0  0  0
   36.6350   27.2180   42.9100 C   0  0  0  0  0  3  0  0  0  0  0  0
   37.1520   28.4430   43.3100 C   0  0  0  0  0  3  0  0  0  0  0  0
   38.5270   28.6010   43.3180 C   0  0  0  0  0  3  0  0  0  0  0  0
   39.3760   27.5720   42.9390 C   0  0  0  0  0  3  0  0  0  0  0  0
   38.8740   26.3620   42.5410 C   0  0  0  0  0  0  0  0  0  0  0  0
   41.1450   26.1690   39.7910 C   0  0  0  0  0  0  0  0  0  0  0  0
   40.8690   27.3520   39.5080 O   0  0  0  0  0  0  0  0  0  0  0  0
   40.9040   25.2840   39.2070 H   0  0  0  0  0  0  0  0  0  0  0  0
  1  6  1  0  0  0  0
  2  1  2  0  0  0  0
  2  3  1  0  0  0  0
  3  4  2  0  0  0  0
  4  5  1  0  0  0  0
  5  8  1  0  0  0  0
  6  5  2  0  0  0  0
  7  1  1  0  0  0  0
  9  3  1  0  0  0  0
  9 19  1  0  0  0  0
 10  9  2  0  0  0  0
 11 10  1  0  0  0  0
 12 10  1  0  0  0  0
 12 13  2  0  0  0  0
 13 14  1  0  0  0  0
 14 15  1  0  0  0  0
 15 16  2  0  0  0  0
 16 17  1  0  0  0  0
 18 17  2  0  0  0  0
 19 14  2  0  0  0  0
 19 18  1  0  0  0  0
 20  2  1  0  0  0  0
 21 20  2  0  0  0  0
 22 20  1  0  0  0  0
M  END
>  <minimizedAffinity>
-4.82397461

$$$$

 OpenBabel03252503073D

 22 24  0  0  0  0  0  0  0  0999 V2000
   39.5350   31.8210   38.8140 C   0  0  0  0  0  0  0  0  0  0  0  0
   39.1190   30.6730   39.5070 C   0  0  0  0  0  0  0  0  0  0  0  0
   38.7680   30.7770   40.8470 C   0  0  0  0  0  0  0  0  0  0  0  0
   38.8470   32.0150   41.4290 N   0  0  0  0  0  0  0  0  0  0  0  0
   39.2490   33.1100   40.7460 C   0  0  0  0  0  0  0  0  0  0  0  0
   39.5910   33.0040   39.4420 N   0  0  0  0  0  0  0  0  0  0  0  0
   39.8110   31.7660   37.7780 H   0  0  0  0  0  0  0  0  0  0  0  0
   39.2830   34.0500   41.2840 H   0  0  0  0  0  0  0  0  0  0  0  0
   38.3410   29.6010   41.5830 C   0  0  0  0  0  0  0  0  0  0  0  0
   37.0320   29.1840   41.6640 C   0  0  0  0  0  0  0  0  0  0  0  0
   36.2560   29.7490   41.1630 H   0  0  0  0  0  0  0  0  0  0  0  0
   36.5740   28.0780   42.3510 C   0  0  0  0  0  3  0  0  0  0  0  0
   37.5120   27.3110   43.0230 C   0  0  0  0  0  3  0  0  0  0  0  0
   38.8490   27.6590   42.9950 C   0  0  0  0  0  0  0  0  0  0  0  0
   39.7080   26.8550   43.6800 C   0  0  0  0  0  3  0  0  0  0  0  0
   41.0610   27.1670   43.6780 C   0  0  0  0  0  3  0  0  0  0  0  0
   41.4720   28.2860   42.9750 C   0  0  0  0  0  3  0  0  0  0  0  0
   40.5690   29.0810   42.2880 C   0  0  0  0  0  3  0  0  0  0  0  0
   39.2330   28.7810   42.2850 C   0  0  0  0  0  0  0  0  0  0  0  0
   39.0700   29.4160   38.8120 C   0  0  0  0  0  0  0  0  0  0  0  0
   38.1500   29.2230   37.9930 O   0  0  0  0  0  0  0  0  0  0  0  0
   39.8670   28.7230   39.0740 H   0  0  0  0  0  0  0  0  0  0  0  0
  1  6  2  0  0  0  0
  1  2  1  0  0  0  0
  2  3  2  0  0  0  0
  3  4  1  0  0  0  0
  3  9  1  0  0  0  0
  5  8  1  0  0  0  0
  5  4  2  0  0  0  0
  6  5  1  0  0  0  0
  7  1  1  0  0  0  0
  9 10  2  0  0  0  0
  9 19  1  0  0  0  0
 10 12  1  0  0  0  0
 11 10  1  0  0  0  0
 12 13  2  0  0  0  0
 14 13  1  0  0  0  0
 14 15  1  0  0  0  0
 16 15  2  0  0  0  0
 17 16  1  0  0  0  0
 18 17  2  0  0  0  0
 19 18  1  0  0  0  0
 19 14  2  0  0  0  0
 20 22  1  0  0  0  0
 20  2  1  0  0  0  0
 21 20  2  0  0  0  0
M  END
>  <minimizedAffinity>
-4.81140995

$$$$

 OpenBabel03252503073D

 22 24  0  0  0  0  0  0  0  0999 V2000
   37.0740   28.9040   36.8040 C   0  0  0  0  0  0  0  0  0  0  0  0
   37.3640   28.1030   37.9200 C   0  0  0  0  0  0  0  0  0  0  0  0
   36.3330   27.7170   38.7680 C   0  0  0  0  0  0  0  0  0  0  0  0
   35.0680   28.1460   38.4630 N   0  0  0  0  0  0  0  0  0  0  0  0
   34.8070   28.9170   37.3830 C   0  0  0  0  0  0  0  0  0  0  0  0
   35.8140   29.2910   36.5620 N   0  0  0  0  0  0  0  0  0  0  0  0
   37.8540   29.2140   36.1350 H   0  0  0  0  0  0  0  0  0  0  0  0
   33.7780   29.2120   37.2170 H   0  0  0  0  0  0  0  0  0  0  0  0
   36.6120   26.8930   39.9300 C   0  0  0  0  0  0  0  0  0  0  0  0
   36.5780   25.5180   39.9170 C   0  0  0  0  0  0  0  0  0  0  0  0
   36.3280   24.9940   39.0020 H   0  0  0  0  0  0  0  0  0  0  0  0
   36.8330   24.6900   40.9920 C   0  0  0  0  0  3  0  0  0  0  0  0
   37.1520   25.2920   42.1980 C   0  0  0  0  0  3  0  0  0  0  0  0
   37.2080   26.6690   42.3000 C   0  0  0  0  0  0  0  0  0  0  0  0
   37.5290   27.1830   43.5180 C   0  0  0  0  0  3  0  0  0  0  0  0
   37.5960   28.5610   43.6660 C   0  0  0  0  0  3  0  0  0  0  0  0
   37.3330   29.3500   42.5590 C   0  0  0  0  0  3  0  0  0  0  0  0
   37.0100   28.7910   41.3320 C   0  0  0  0  0  3  0  0  0  0  0  0
   36.9410   27.4330   41.1790 C   0  0  0  0  0  0  0  0  0  0  0  0
   38.7240   27.7030   38.1600 C   0  0  0  0  0  0  0  0  0  0  0  0
   39.5810   28.5900   38.3480 O   0  0  0  0  0  0  0  0  0  0  0  0
   38.8870   26.6270   38.1560 H   0  0  0  0  0  0  0  0  0  0  0  0
  1  2  1  0  0  0  0
  2 20  1  0  0  0  0
  2  3  2  0  0  0  0
  3  9  1  0  0  0  0
  4  3  1  0  0  0  0
  5  4  2  0  0  0  0
  6  1  2  0  0  0  0
  6  5  1  0  0  0  0
  7  1  1  0  0  0  0
  8  5  1  0  0  0  0
  9 19  1  0  0  0  0
 10  9  2  0  0  0  0
 10 12  1  0  0  0  0
 11 10  1  0  0  0  0
 12 13  2  0  0  0  0
 13 14  1  0  0  0  0
 14 15  1  0  0  0  0
 15 16  2  0  0  0  0
 17 16  1  0  0  0  0
 18 17  2  0  0  0  0
 19 18  1  0  0  0  0
 19 14  2  0  0  0  0
 20 21  2  0  0  0  0
 22 20  1  0  0  0  0
M  END
>  <minimizedAffinity>
-4.75633764

$$$$
