
 OpenBabel03252508293D

 41 45  0  0  1  0  0  0  0  0999 V2000
   42.4490   34.0490   42.0790 N   0  0  0  0  0  0  0  0  0  0  0  0
   43.6860   34.8270   42.3060 C   0  0  2  0  0  0  0  0  0  0  0  0
   44.1230   35.5500   41.0820 C   0  0  0  0  0  0  0  0  0  0  0  0
   43.1150   35.5630   40.0510 N   0  0  0  0  0  0  0  0  0  0  0  0
   42.5790   34.2880   39.7540 C   0  0  0  0  0  0  0  0  0  0  0  0
   42.7080   33.2690   40.8950 C   0  0  2  0  0  0  0  0  0  0  0  0
   41.7170   34.8000   41.8080 H   0  0  0  0  0  0  0  0  0  0  0  0
   43.4650   35.5930   43.0890 H   0  0  0  0  0  0  0  0  0  0  0  0
   44.3670   36.6310   41.2890 H   0  0  0  0  0  0  0  0  0  0  0  0
   44.9750   35.1140   40.5280 H   0  0  0  0  0  0  0  0  0  0  0  0
   42.4130   36.3280   40.2200 H   0  0  0  0  0  0  0  0  0  0  0  0
   42.9940   33.8190   38.8410 H   0  0  0  0  0  0  0  0  0  0  0  0
   41.4950   34.4330   39.5270 H   0  0  0  0  0  0  0  0  0  0  0  0
   43.7790   32.8970   40.9060 H   0  0  0  0  0  0  0  0  0  0  0  0
   41.7840   32.2090   40.5250 C   0  0  0  0  0  0  0  0  0  0  0  0
   41.5450   32.3440   39.1420 C   0  0  0  0  0  0  0  0  0  0  0  0
   41.9530   33.0530   38.4000 H   0  0  0  0  0  0  0  0  0  0  0  0
   40.6650   31.5030   38.4580 C   0  0  0  0  0  3  0  0  0  0  0  0
   40.0020   30.5050   39.1370 C   0  0  0  0  0  3  0  0  0  0  0  0
   40.2050   30.3360   40.4840 C   0  0  0  0  0  0  0  0  0  0  0  0
   39.6190   29.3770   41.2730 C   0  0  0  0  0  3  0  0  0  0  0  0
   39.8530   29.2230   42.6240 C   0  0  0  0  0  3  0  0  0  0  0  0
   40.7570   30.1230   43.2010 C   0  0  0  0  0  3  0  0  0  0  0  0
   41.3590   31.0930   42.4350 C   0  0  0  0  0  3  0  0  0  0  0  0
   41.0800   31.1920   41.0990 C   0  0  0  0  0  0  0  0  0  0  0  0
   46.0000   32.5720   43.8860 C   0  0  0  0  0  0  0  0  0  0  0  0
   46.4590   32.6480   42.5660 C   0  0  0  0  0  0  0  0  0  0  0  0
   45.6480   33.5060   41.8410 C   0  0  0  0  0  0  0  0  0  0  0  0
   44.7230   33.9280   42.7290 N   0  0  0  0  0  0  0  0  0  0  0  0
   44.9410   33.3790   43.9110 N   0  0  0  0  0  0  0  0  0  0  0  0
   47.3490   32.0490   42.2940 H   0  0  0  0  0  0  0  0  0  0  0  0
   46.0080   33.5710   40.8210 H   0  0  0  0  0  0  0  0  0  0  0  0
   47.6130   29.7890   45.8440 C   0  0  0  0  0  0  0  0  0  0  0  0
   47.0360   30.4630   44.7250 C   0  0  0  0  0  0  0  0  0  0  0  0
   46.5980   31.7700   44.9480 C   0  0  0  0  0  0  0  0  0  0  0  0
   46.7340   32.3230   46.1740 N   0  0  0  0  0  0  0  0  0  0  0  0
   47.2820   31.6620   47.2090 C   0  0  0  0  0  0  0  0  0  0  0  0
   47.7100   30.4130   47.0260 N   0  0  0  0  0  0  0  0  0  0  0  0
   47.9560   28.7760   45.6810 H   0  0  0  0  0  0  0  0  0  0  0  0
   46.9290   30.0180   43.7500 H   0  0  0  0  0  0  0  0  0  0  0  0
   47.3790   32.1280   48.1820 H   0  0  0  0  0  0  0  0  0  0  0  0
  1  2  1  0  0  0  0
  2 29  1  0  0  0  0
  2  8  1  1  0  0  0
  3  9  1  0  0  0  0
  3  2  1  0  0  0  0
  4 11  1  0  0  0  0
  4  3  1  0  0  0  0
  5  4  1  0  0  0  0
  5  6  1  0  0  0  0
  6 14  1  1  0  0  0
  6  1  1  0  0  0  0
  7  1  1  0  0  0  0
 10  3  1  0  0  0  0
 12  5  1  0  0  0  0
 13  5  1  0  0  0  0
 15  6  1  0  0  0  0
 15 25  1  0  0  0  0
 16 15  2  0  0  0  0
 17 16  1  0  0  0  0
 18 19  2  0  0  0  0
 18 16  1  0  0  0  0
 19 20  1  0  0  0  0
 20 25  2  0  0  0  0
 20 21  1  0  0  0  0
 21 22  2  0  0  0  0
 22 23  1  0  0  0  0
 24 23  2  0  0  0  0
 25 24  1  0  0  0  0
 26 30  2  0  0  0  0
 26 35  1  0  0  0  0
 27 26  1  0  0  0  0
 28 27  2  0  0  0  0
 28 29  1  0  0  0  0
 29 30  1  0  0  0  0
 31 27  1  0  0  0  0
 32 28  1  0  0  0  0
 33 38  1  0  0  0  0
 34 35  1  0  0  0  0
 34 33  2  0  0  0  0
 35 36  2  0  0  0  0
 36 37  1  0  0  0  0
 37 41  1  0  0  0  0
 38 37  2  0  0  0  0
 39 33  1  0  0  0  0
 40 34  1  0  0  0  0
M  END
>  <minimizedAffinity>
-4.88423204

>  <minimizedRMSD>
5.43531561

$$$$
