
 OpenBabel03242523033D

 34 37  0  0  0  0  0  0  0  0999 V2000
   45.2790   36.1110   43.5320 C   0  0  0  0  0  0  0  0  0  0  0  0
   45.7830   34.8740   43.2050 C   0  0  0  0  0  0  0  0  0  0  0  0
   45.6230   33.9050   44.1440 C   0  0  0  0  0  0  0  0  0  0  0  0
   44.9990   34.1580   45.3240 N   0  0  0  0  0  0  0  0  0  0  0  0
   44.5170   35.3830   45.6100 C   0  0  0  0  0  0  0  0  0  0  0  0
   44.6640   36.3420   44.7100 N   0  0  0  0  0  0  0  0  0  0  0  0
   45.3000   37.0150   42.9490 H   0  0  0  0  0  0  0  0  0  0  0  0
   44.0040   35.6370   46.5530 H   0  0  0  0  0  0  0  0  0  0  0  0
   46.3620   34.7000   41.9420 N   0  0  0  0  0  0  0  0  0  0  0  0
   47.7250   35.0060   41.7420 C   0  0  0  0  0  0  0  0  0  0  0  0
   48.2670   34.6700   40.4230 C   0  0  0  0  0  0  0  0  0  0  0  0
   47.6870   33.6450   39.6840 N   0  0  0  0  0  0  0  0  0  0  0  0
   46.4180   33.1940   40.0180 C   0  0  0  0  0  0  0  0  0  0  0  0
   45.6550   34.2360   40.7840 C   0  0  0  0  0  0  0  0  0  0  0  0
   47.7940   36.1110   41.8380 H   0  0  0  0  0  0  0  0  0  0  0  0
   48.4180   34.5940   42.5000 H   0  0  0  0  0  0  0  0  0  0  0  0
   48.3050   35.5770   39.7460 H   0  0  0  0  0  0  0  0  0  0  0  0
   49.3610   34.4170   40.5170 H   0  0  0  0  0  0  0  0  0  0  0  0
   48.3150   32.8380   39.4640 H   0  0  0  0  0  0  0  0  0  0  0  0
   46.3980   32.2490   40.6370 H   0  0  0  0  0  0  0  0  0  0  0  0
   45.8170   32.9590   39.1230 H   0  0  0  0  0  0  0  0  0  0  0  0
   45.3830   35.0870   40.1080 H   0  0  0  0  0  0  0  0  0  0  0  0
   44.6870   33.7650   41.0520 H   0  0  0  0  0  0  0  0  0  0  0  0
   45.9930   32.5240   44.1760 C   0  0  0  0  0  0  0  0  0  0  0  0
   45.9990   31.4710   43.2370 C   0  0  0  0  0  0  0  0  0  0  0  0
   45.5580   31.8190   42.2980 H   0  0  0  0  0  0  0  0  0  0  0  0
   46.4830   30.2050   43.4060 C   0  0  0  0  0  0  0  0  0  0  0  0
   47.0310   29.9100   44.6310 C   0  0  0  0  0  0  0  0  0  0  0  0
   47.0950   30.8380   45.6470 C   0  0  0  0  0  0  0  0  0  0  0  0
   47.6560   30.4520   46.8230 C   0  0  0  0  0  0  0  0  0  0  0  0
   47.7250   31.3660   47.8420 C   0  0  0  0  0  0  0  0  0  0  0  0
   47.2400   32.6480   47.6850 C   0  0  0  0  0  0  0  0  0  0  0  0
   46.6860   32.9690   46.4640 C   0  0  0  0  0  0  0  0  0  0  0  0
   46.5790   32.0990   45.3830 C   0  0  0  0  0  0  0  0  0  0  0  0
  1  6  1  0  0  0  0
  2  1  2  0  0  0  0
  2  3  1  0  0  0  0
  3 24  1  0  0  0  0
  3  4  2  0  0  0  0
  4  5  1  0  0  0  0
  5  8  1  0  0  0  0
  6  5  2  0  0  0  0
  7  1  1  0  0  0  0
  9  2  1  0  0  0  0
 10 15  1  0  0  0  0
 10  9  1  0  0  0  0
 10 16  1  0  0  0  0
 11 18  1  0  0  0  0
 11 10  1  0  0  0  0
 12 13  1  0  0  0  0
 12 11  1  0  0  0  0
 13 20  1  0  0  0  0
 13 14  1  0  0  0  0
 14 23  1  0  0  0  0
 14  9  1  0  0  0  0
 17 11  1  0  0  0  0
 19 12  1  0  0  0  0
 21 13  1  0  0  0  0
 22 14  1  0  0  0  0
 24 34  1  0  0  0  0
 25 27  1  0  0  0  0
 25 24  2  0  0  0  0
 26 25  1  0  0  0  0
 27 28  2  0  0  0  0
 28 29  1  0  0  0  0
 29 30  1  0  0  0  0
 30 31  2  0  0  0  0
 32 31  1  0  0  0  0
 33 32  2  0  0  0  0
 34 29  2  0  0  0  0
 34 33  1  0  0  0  0
M  END
>  <minimizedAffinity>
-5.53866863

>  <minimizedRMSD>
2.8066237

$$$$
