
 OpenBabel03242519593D

 30 33  0  0  0  0  0  0  0  0999 V2000
   40.3210   29.2960   40.5080 Br  0  0  0  0  0  0  0  0  0  0  0  0
   38.7510   29.7080   39.5060 C   0  0  0  0  0  0  0  0  0  0  0  0
   38.7880   30.3610   38.2880 C   0  0  0  0  0  0  0  0  0  0  0  0
   37.5980   30.6120   37.6440 C   0  0  0  0  0  0  0  0  0  0  0  0
   36.3720   30.2400   38.1590 C   0  0  0  0  0  0  0  0  0  0  0  0
   36.3130   29.5810   39.3840 C   0  0  0  0  0  0  0  0  0  0  0  0
   37.5160   29.3420   40.0100 C   0  0  0  0  0  0  0  0  0  0  0  0
   37.6540   31.1260   36.6890 H   0  0  0  0  0  0  0  0  0  0  0  0
   35.4530   30.4500   37.6330 H   0  0  0  0  0  0  0  0  0  0  0  0
   35.3650   29.2820   39.8070 H   0  0  0  0  0  0  0  0  0  0  0  0
   37.4100   28.6410   41.3090 C   0  0  0  0  0  0  0  0  0  0  0  0
   37.4860   29.3120   42.5130 C   0  0  0  0  0  0  0  0  0  0  0  0
   37.6270   30.3910   42.5270 H   0  0  0  0  0  0  0  0  0  0  0  0
   37.3770   28.5760   43.6720 C   0  0  0  0  0  3  0  0  0  0  0  0
   37.1960   27.1950   43.6000 C   0  0  0  0  0  3  0  0  0  0  0  0
   37.1250   26.5560   42.3640 C   0  0  0  0  0  0  0  0  0  0  0  0
   36.9440   25.1740   42.3430 C   0  0  0  0  0  3  0  0  0  0  0  0
   36.8740   24.5450   41.1050 C   0  0  0  0  0  3  0  0  0  0  0  0
   36.9780   25.2400   39.9150 C   0  0  0  0  0  3  0  0  0  0  0  0
   37.1550   26.5930   40.0110 C   0  0  0  0  0  3  0  0  0  0  0  0
   37.2320   27.2790   41.1820 C   0  0  0  0  0  0  0  0  0  0  0  0
   41.8220   32.4030   37.2740 C   0  0  0  0  0  0  0  0  0  0  0  0
   40.5560   32.0600   37.7730 C   0  0  0  0  0  0  0  0  0  0  0  0
   40.1080   30.7410   37.7700 C   0  0  0  0  0  0  0  0  0  0  0  0
   40.9640   29.8270   37.2610 N   0  0  0  0  0  0  0  0  0  0  0  0
   42.1800   30.1700   36.7820 C   0  0  0  0  0  0  0  0  0  0  0  0
   42.6020   31.4310   36.7870 N   0  0  0  0  0  0  0  0  0  0  0  0
   42.0880   33.4590   37.3170 H   0  0  0  0  0  0  0  0  0  0  0  0
   39.8500   32.7670   38.1880 H   0  0  0  0  0  0  0  0  0  0  0  0
   42.7810   29.3550   36.3970 H   0  0  0  0  0  0  0  0  0  0  0  0
  2  7  1  0  0  0  0
  2  1  1  0  0  0  0
  3  2  2  0  0  0  0
  4  5  2  0  0  0  0
  4  3  1  0  0  0  0
  5  6  1  0  0  0  0
  6 10  1  0  0  0  0
  6  7  2  0  0  0  0
  7 11  1  0  0  0  0
  8  4  1  0  0  0  0
  9  5  1  0  0  0  0
 11 12  1  0  0  0  0
 12 13  1  0  0  0  0
 12 14  2  0  0  0  0
 15 14  1  0  0  0  0
 16 15  2  0  0  0  0
 17 16  1  0  0  0  0
 18 17  2  0  0  0  0
 19 20  2  0  0  0  0
 19 18  1  0  0  0  0
 20 21  1  0  0  0  0
 21 11  2  0  0  0  0
 21 16  1  0  0  0  0
 22 28  1  0  0  0  0
 22 23  1  0  0  0  0
 23 29  1  0  0  0  0
 24 23  2  0  0  0  0
 24  3  1  0  0  0  0
 25 24  1  0  0  0  0
 26 27  1  0  0  0  0
 26 25  2  0  0  0  0
 27 22  2  0  0  0  0
 30 26  1  0  0  0  0
M  END
>  <minimizedAffinity>
-6.28508186

$$$$

 OpenBabel03242519593D

 30 33  0  0  0  0  0  0  0  0999 V2000
   40.3790   29.6360   39.0690 Br  0  0  0  0  0  0  0  0  0  0  0  0
   39.1390   31.0440   39.4100 C   0  0  0  0  0  0  0  0  0  0  0  0
   39.4890   32.3810   39.3560 C   0  0  0  0  0  0  0  0  0  0  0  0
   38.5200   33.3220   39.6190 C   0  0  0  0  0  0  0  0  0  0  0  0
   37.2170   32.9910   39.9320 C   0  0  0  0  0  0  0  0  0  0  0  0
   36.8440   31.6500   39.9900 C   0  0  0  0  0  0  0  0  0  0  0  0
   37.8300   30.7270   39.7250 C   0  0  0  0  0  0  0  0  0  0  0  0
   38.8200   34.3650   39.5700 H   0  0  0  0  0  0  0  0  0  0  0  0
   36.4760   33.7490   40.1340 H   0  0  0  0  0  0  0  0  0  0  0  0
   35.8300   31.3680   40.2340 H   0  0  0  0  0  0  0  0  0  0  0  0
   37.3940   29.3150   39.7980 C   0  0  0  0  0  0  0  0  0  0  0  0
   36.9910   28.6130   38.6800 C   0  0  0  0  0  0  0  0  0  0  0  0
   36.9880   29.0970   37.7050 H   0  0  0  0  0  0  0  0  0  0  0  0
   36.6020   27.3020   38.8450 C   0  0  0  0  0  3  0  0  0  0  0  0
   36.6240   26.7290   40.1160 C   0  0  0  0  0  3  0  0  0  0  0  0
   37.0380   27.4720   41.2180 C   0  0  0  0  0  0  0  0  0  0  0  0
   37.0440   26.8550   42.4680 C   0  0  0  0  0  3  0  0  0  0  0  0
   37.4580   27.6050   43.5630 C   0  0  0  0  0  3  0  0  0  0  0  0
   37.8580   28.9230   43.4490 C   0  0  0  0  0  3  0  0  0  0  0  0
   37.8270   29.4640   42.1930 C   0  0  0  0  0  3  0  0  0  0  0  0
   37.4360   28.7960   41.0750 C   0  0  0  0  0  0  0  0  0  0  0  0
   42.6250   33.2810   37.4160 C   0  0  0  0  0  0  0  0  0  0  0  0
   41.2870   32.9810   37.7180 C   0  0  0  0  0  0  0  0  0  0  0  0
   40.8830   32.6970   39.0200 C   0  0  0  0  0  0  0  0  0  0  0  0
   41.8530   32.7290   39.9600 N   0  0  0  0  0  0  0  0  0  0  0  0
   43.1380   33.0190   39.6580 C   0  0  0  0  0  0  0  0  0  0  0  0
   43.5180   33.2900   38.4120 N   0  0  0  0  0  0  0  0  0  0  0  0
   42.8490   33.4910   36.3700 H   0  0  0  0  0  0  0  0  0  0  0  0
   40.4890   32.9480   36.9880 H   0  0  0  0  0  0  0  0  0  0  0  0
   43.8290   33.0160   40.4910 H   0  0  0  0  0  0  0  0  0  0  0  0
  1  2  1  0  0  0  0
  2  7  1  0  0  0  0
  3  2  2  0  0  0  0
  3  4  1  0  0  0  0
  4  5  2  0  0  0  0
  5  6  1  0  0  0  0
  5  9  1  0  0  0  0
  6 10  1  0  0  0  0
  7 11  1  0  0  0  0
  7  6  2  0  0  0  0
  8  4  1  0  0  0  0
 11 21  1  0  0  0  0
 12 14  1  0  0  0  0
 12 11  2  0  0  0  0
 13 12  1  0  0  0  0
 14 15  2  0  0  0  0
 15 16  1  0  0  0  0
 16 17  1  0  0  0  0
 17 18  2  0  0  0  0
 19 18  1  0  0  0  0
 20 19  2  0  0  0  0
 21 16  2  0  0  0  0
 21 20  1  0  0  0  0
 22 23  2  0  0  0  0
 22 27  1  0  0  0  0
 23 24  1  0  0  0  0
 24  3  1  0  0  0  0
 24 25  2  0  0  0  0
 26 25  1  0  0  0  0
 26 30  1  0  0  0  0
 27 26  2  0  0  0  0
 28 22  1  0  0  0  0
 29 23  1  0  0  0  0
M  END
>  <minimizedAffinity>
-6.07486773

$$$$

 OpenBabel03242519593D

 30 33  0  0  0  0  0  0  0  0999 V2000
   39.5140   27.3390   40.0290 Br  0  0  0  0  0  0  0  0  0  0  0  0
   38.2940   27.3710   41.4940 C   0  0  0  0  0  0  0  0  0  0  0  0
   37.4160   26.3370   41.7620 C   0  0  0  0  0  0  0  0  0  0  0  0
   36.5740   26.4570   42.8450 C   0  0  0  0  0  0  0  0  0  0  0  0
   36.5700   27.5610   43.6740 C   0  0  0  0  0  0  0  0  0  0  0  0
   37.4480   28.6130   43.4220 C   0  0  0  0  0  0  0  0  0  0  0  0
   38.2790   28.4710   42.3330 C   0  0  0  0  0  0  0  0  0  0  0  0
   35.8940   25.6320   43.0340 H   0  0  0  0  0  0  0  0  0  0  0  0
   35.9000   27.6300   44.5170 H   0  0  0  0  0  0  0  0  0  0  0  0
   37.4610   29.4870   44.0570 H   0  0  0  0  0  0  0  0  0  0  0  0
   39.1940   29.6090   42.0990 C   0  0  0  0  0  0  0  0  0  0  0  0
   40.4860   29.6230   42.5840 C   0  0  0  0  0  0  0  0  0  0  0  0
   40.8620   28.7780   43.1580 H   0  0  0  0  0  0  0  0  0  0  0  0
   41.2670   30.7260   42.3160 C   0  0  0  0  0  3  0  0  0  0  0  0
   40.7380   31.7830   41.5750 C   0  0  0  0  0  3  0  0  0  0  0  0
   39.4290   31.7300   41.1040 C   0  0  0  0  0  0  0  0  0  0  0  0
   38.9470   32.8100   40.3670 C   0  0  0  0  0  3  0  0  0  0  0  0
   37.6380   32.7480   39.9010 C   0  0  0  0  0  3  0  0  0  0  0  0
   36.8160   31.6630   40.1430 C   0  0  0  0  0  3  0  0  0  0  0  0
   37.3560   30.6390   40.8720 C   0  0  0  0  0  3  0  0  0  0  0  0
   38.6250   30.6260   41.3620 C   0  0  0  0  0  0  0  0  0  0  0  0
   38.2230   22.9450   40.2620 C   0  0  0  0  0  0  0  0  0  0  0  0
   38.2060   24.0440   41.1360 C   0  0  0  0  0  0  0  0  0  0  0  0
   37.4480   25.1790   40.8610 C   0  0  0  0  0  0  0  0  0  0  0  0
   36.7390   25.1520   39.7100 N   0  0  0  0  0  0  0  0  0  0  0  0
   36.7640   24.0890   38.8760 C   0  0  0  0  0  0  0  0  0  0  0  0
   37.4910   23.0080   39.1450 N   0  0  0  0  0  0  0  0  0  0  0  0
   38.8450   22.1010   40.5590 H   0  0  0  0  0  0  0  0  0  0  0  0
   38.7610   24.0950   42.0640 H   0  0  0  0  0  0  0  0  0  0  0  0
   36.1580   24.1780   37.9830 H   0  0  0  0  0  0  0  0  0  0  0  0
  1  2  1  0  0  0  0
  2  3  2  0  0  0  0
  2  7  1  0  0  0  0
  3  4  1  0  0  0  0
  4  8  1  0  0  0  0
  4  5  2  0  0  0  0
  5  9  1  0  0  0  0
  6  5  1  0  0  0  0
  6 10  1  0  0  0  0
  7  6  2  0  0  0  0
 11  7  1  0  0  0  0
 11 12  1  0  0  0  0
 12 13  1  0  0  0  0
 14 12  2  0  0  0  0
 15 14  1  0  0  0  0
 16 21  1  0  0  0  0
 16 15  2  0  0  0  0
 17 16  1  0  0  0  0
 18 19  1  0  0  0  0
 18 17  2  0  0  0  0
 19 20  2  0  0  0  0
 20 21  1  0  0  0  0
 21 11  2  0  0  0  0
 22 28  1  0  0  0  0
 22 23  1  0  0  0  0
 23 29  1  0  0  0  0
 24 23  2  0  0  0  0
 24  3  1  0  0  0  0
 25 24  1  0  0  0  0
 26 27  1  0  0  0  0
 26 25  2  0  0  0  0
 27 22  2  0  0  0  0
 30 26  1  0  0  0  0
M  END
>  <minimizedAffinity>
-6.03867674

$$$$

 OpenBabel03242519593D

 30 33  0  0  0  0  0  0  0  0999 V2000
   40.6180   29.0210   40.4520 Br  0  0  0  0  0  0  0  0  0  0  0  0
   38.8410   29.6670   40.7050 C   0  0  0  0  0  0  0  0  0  0  0  0
   38.3890   30.8530   40.1590 C   0  0  0  0  0  0  0  0  0  0  0  0
   37.0880   31.2320   40.4010 C   0  0  0  0  0  0  0  0  0  0  0  0
   36.2160   30.4790   41.1620 C   0  0  0  0  0  0  0  0  0  0  0  0
   36.6520   29.2800   41.7200 C   0  0  0  0  0  0  0  0  0  0  0  0
   37.9570   28.9230   41.4660 C   0  0  0  0  0  0  0  0  0  0  0  0
   36.7570   32.1680   39.9610 H   0  0  0  0  0  0  0  0  0  0  0  0
   35.2010   30.7990   41.3360 H   0  0  0  0  0  0  0  0  0  0  0  0
   35.9870   28.6750   42.3200 H   0  0  0  0  0  0  0  0  0  0  0  0
   38.3800   27.6440   42.0770 C   0  0  0  0  0  0  0  0  0  0  0  0
   39.2110   27.5970   43.1780 C   0  0  0  0  0  0  0  0  0  0  0  0
   39.5760   28.5200   43.6260 H   0  0  0  0  0  0  0  0  0  0  0  0
   39.5520   26.3600   43.6800 C   0  0  0  0  0  3  0  0  0  0  0  0
   39.0580   25.2070   43.0700 C   0  0  0  0  0  3  0  0  0  0  0  0
   38.2210   25.2980   41.9610 C   0  0  0  0  0  0  0  0  0  0  0  0
   37.7530   24.1180   41.3870 C   0  0  0  0  0  3  0  0  0  0  0  0
   36.9180   24.2180   40.2790 C   0  0  0  0  0  3  0  0  0  0  0  0
   36.5470   25.4350   39.7400 C   0  0  0  0  0  3  0  0  0  0  0  0
   37.0450   26.5530   40.3540 C   0  0  0  0  0  3  0  0  0  0  0  0
   37.8640   26.5350   41.4390 C   0  0  0  0  0  0  0  0  0  0  0  0
   40.9800   33.4180   39.1000 C   0  0  0  0  0  0  0  0  0  0  0  0
   40.0720   32.6900   39.8850 C   0  0  0  0  0  0  0  0  0  0  0  0
   39.3420   31.6280   39.3550 C   0  0  0  0  0  0  0  0  0  0  0  0
   39.5650   31.3510   38.0510 N   0  0  0  0  0  0  0  0  0  0  0  0
   40.4410   32.0610   37.3050 C   0  0  0  0  0  0  0  0  0  0  0  0
   41.1340   33.0730   37.8180 N   0  0  0  0  0  0  0  0  0  0  0  0
   41.5060   34.2310   39.6000 H   0  0  0  0  0  0  0  0  0  0  0  0
   39.8740   32.8860   40.9310 H   0  0  0  0  0  0  0  0  0  0  0  0
   40.5380   31.7510   36.2720 H   0  0  0  0  0  0  0  0  0  0  0  0
  1  2  1  0  0  0  0
  2  7  1  0  0  0  0
  3  4  1  0  0  0  0
  3  2  2  0  0  0  0
  4  5  2  0  0  0  0
  5  9  1  0  0  0  0
  5  6  1  0  0  0  0
  6 10  1  0  0  0  0
  7  6  2  0  0  0  0
  7 11  1  0  0  0  0
  8  4  1  0  0  0  0
 11 12  1  0  0  0  0
 12 13  1  0  0  0  0
 12 14  2  0  0  0  0
 15 14  1  0  0  0  0
 16 15  2  0  0  0  0
 17 16  1  0  0  0  0
 18 17  2  0  0  0  0
 19 18  1  0  0  0  0
 19 20  2  0  0  0  0
 20 21  1  0  0  0  0
 21 16  1  0  0  0  0
 21 11  2  0  0  0  0
 22 28  1  0  0  0  0
 22 23  1  0  0  0  0
 23 29  1  0  0  0  0
 24 23  2  0  0  0  0
 24  3  1  0  0  0  0
 25 24  1  0  0  0  0
 26 27  1  0  0  0  0
 26 25  2  0  0  0  0
 27 22  2  0  0  0  0
 30 26  1  0  0  0  0
M  END
>  <minimizedAffinity>
-5.98201561

$$$$

 OpenBabel03242519593D

 30 33  0  0  0  0  0  0  0  0999 V2000
   39.9060   29.4940   38.6670 Br  0  0  0  0  0  0  0  0  0  0  0  0
   39.5370   31.2780   39.2310 C   0  0  0  0  0  0  0  0  0  0  0  0
   40.4610   32.3020   39.1320 C   0  0  0  0  0  0  0  0  0  0  0  0
   40.0970   33.5560   39.5680 C   0  0  0  0  0  0  0  0  0  0  0  0
   38.8530   33.8350   40.0960 C   0  0  0  0  0  0  0  0  0  0  0  0
   37.9080   32.8180   40.2030 C   0  0  0  0  0  0  0  0  0  0  0  0
   38.2950   31.5720   39.7620 C   0  0  0  0  0  0  0  0  0  0  0  0
   40.8400   34.3430   39.4790 H   0  0  0  0  0  0  0  0  0  0  0  0
   38.5930   34.8280   40.4300 H   0  0  0  0  0  0  0  0  0  0  0  0
   36.9280   33.0140   40.6140 H   0  0  0  0  0  0  0  0  0  0  0  0
   37.2630   30.5200   39.8940 C   0  0  0  0  0  0  0  0  0  0  0  0
   36.3080   30.3040   38.9230 C   0  0  0  0  0  0  0  0  0  0  0  0
   36.2970   30.9170   38.0230 H   0  0  0  0  0  0  0  0  0  0  0  0
   35.3870   29.3000   39.1320 C   0  0  0  0  0  3  0  0  0  0  0  0
   35.4440   28.5430   40.3010 C   0  0  0  0  0  3  0  0  0  0  0  0
   36.4250   28.7930   41.2570 C   0  0  0  0  0  0  0  0  0  0  0  0
   36.4410   28.0090   42.4090 C   0  0  0  0  0  3  0  0  0  0  0  0
   37.4240   28.2660   43.3590 C   0  0  0  0  0  3  0  0  0  0  0  0
   38.3700   29.2610   43.1940 C   0  0  0  0  0  3  0  0  0  0  0  0
   38.2940   29.9910   42.0400 C   0  0  0  0  0  3  0  0  0  0  0  0
   37.3640   29.8000   41.0660 C   0  0  0  0  0  0  0  0  0  0  0  0
   44.1330   31.4000   38.8040 C   0  0  0  0  0  0  0  0  0  0  0  0
   42.8860   31.7170   39.3650 C   0  0  0  0  0  0  0  0  0  0  0  0
   41.7730   31.9690   38.5650 C   0  0  0  0  0  0  0  0  0  0  0  0
   41.9740   31.8890   37.2310 N   0  0  0  0  0  0  0  0  0  0  0  0
   43.1800   31.5830   36.7030 C   0  0  0  0  0  0  0  0  0  0  0  0
   44.2380   31.3440   37.4720 N   0  0  0  0  0  0  0  0  0  0  0  0
   44.9460   31.2180   39.5060 H   0  0  0  0  0  0  0  0  0  0  0  0
   42.6940   31.7880   40.4270 H   0  0  0  0  0  0  0  0  0  0  0  0
   43.2240   31.5480   35.6210 H   0  0  0  0  0  0  0  0  0  0  0  0
  1  2  1  0  0  0  0
  2  7  1  0  0  0  0
  3  2  2  0  0  0  0
  3  4  1  0  0  0  0
  4  5  2  0  0  0  0
  5  6  1  0  0  0  0
  5  9  1  0  0  0  0
  6 10  1  0  0  0  0
  7 11  1  0  0  0  0
  7  6  2  0  0  0  0
  8  4  1  0  0  0  0
 11 21  1  0  0  0  0
 12 14  1  0  0  0  0
 12 11  2  0  0  0  0
 13 12  1  0  0  0  0
 14 15  2  0  0  0  0
 15 16  1  0  0  0  0
 16 17  1  0  0  0  0
 17 18  2  0  0  0  0
 19 18  1  0  0  0  0
 20 19  2  0  0  0  0
 21 16  2  0  0  0  0
 21 20  1  0  0  0  0
 22 23  1  0  0  0  0
 22 28  1  0  0  0  0
 23 29  1  0  0  0  0
 24  3  1  0  0  0  0
 24 23  2  0  0  0  0
 25 24  1  0  0  0  0
 26 25  2  0  0  0  0
 26 27  1  0  0  0  0
 27 22  2  0  0  0  0
 30 26  1  0  0  0  0
M  END
>  <minimizedAffinity>
-5.95318031

$$$$

 OpenBabel03242519593D

 30 33  0  0  0  0  0  0  0  0999 V2000
   39.8630   28.4440   39.1980 Br  0  0  0  0  0  0  0  0  0  0  0  0
   38.4040   29.3930   39.9780 C   0  0  0  0  0  0  0  0  0  0  0  0
   38.3020   30.7710   39.9450 C   0  0  0  0  0  0  0  0  0  0  0  0
   37.2090   31.3620   40.5370 C   0  0  0  0  0  0  0  0  0  0  0  0
   36.2110   30.6390   41.1600 C   0  0  0  0  0  0  0  0  0  0  0  0
   36.2940   29.2500   41.2030 C   0  0  0  0  0  0  0  0  0  0  0  0
   37.3970   28.6820   40.6050 C   0  0  0  0  0  0  0  0  0  0  0  0
   37.1530   32.4450   40.4980 H   0  0  0  0  0  0  0  0  0  0  0  0
   35.3640   31.1270   41.6170 H   0  0  0  0  0  0  0  0  0  0  0  0
   35.5250   28.6640   41.6860 H   0  0  0  0  0  0  0  0  0  0  0  0
   37.4480   27.2050   40.6740 C   0  0  0  0  0  0  0  0  0  0  0  0
   36.7520   26.4050   39.7900 C   0  0  0  0  0  0  0  0  0  0  0  0
   36.1410   26.8580   39.0110 H   0  0  0  0  0  0  0  0  0  0  0  0
   36.8600   25.0390   39.9310 C   0  0  0  0  0  3  0  0  0  0  0  0
   37.6560   24.5090   40.9460 C   0  0  0  0  0  3  0  0  0  0  0  0
   38.3430   25.3510   41.8160 C   0  0  0  0  0  0  0  0  0  0  0  0
   39.1260   24.7740   42.8140 C   0  0  0  0  0  3  0  0  0  0  0  0
   39.8080   25.6230   43.6790 C   0  0  0  0  0  3  0  0  0  0  0  0
   39.7320   27.0000   43.5790 C   0  0  0  0  0  3  0  0  0  0  0  0
   38.9440   27.4960   42.5760 C   0  0  0  0  0  3  0  0  0  0  0  0
   38.2480   26.7320   41.6920 C   0  0  0  0  0  0  0  0  0  0  0  0
   41.4160   32.8520   39.3230 C   0  0  0  0  0  0  0  0  0  0  0  0
   40.3920   32.1530   39.9820 C   0  0  0  0  0  0  0  0  0  0  0  0
   39.3810   31.5080   39.2740 C   0  0  0  0  0  0  0  0  0  0  0  0
   39.4510   31.6000   37.9280 N   0  0  0  0  0  0  0  0  0  0  0  0
   40.4410   32.2760   37.3040 C   0  0  0  0  0  0  0  0  0  0  0  0
   41.4040   32.8900   37.9860 N   0  0  0  0  0  0  0  0  0  0  0  0
   42.1640   33.3250   39.9580 H   0  0  0  0  0  0  0  0  0  0  0  0
   40.3100   32.0600   41.0570 H   0  0  0  0  0  0  0  0  0  0  0  0
   40.3960   32.2840   36.2220 H   0  0  0  0  0  0  0  0  0  0  0  0
  1  2  1  0  0  0  0
  2  7  1  0  0  0  0
  3  2  2  0  0  0  0
  3  4  1  0  0  0  0
  4  5  2  0  0  0  0
  5  6  1  0  0  0  0
  5  9  1  0  0  0  0
  6 10  1  0  0  0  0
  7 11  1  0  0  0  0
  7  6  2  0  0  0  0
  8  4  1  0  0  0  0
 11 21  1  0  0  0  0
 12 14  1  0  0  0  0
 12 11  2  0  0  0  0
 13 12  1  0  0  0  0
 14 15  2  0  0  0  0
 15 16  1  0  0  0  0
 16 17  1  0  0  0  0
 17 18  2  0  0  0  0
 19 18  1  0  0  0  0
 20 19  2  0  0  0  0
 21 16  2  0  0  0  0
 21 20  1  0  0  0  0
 22 28  1  0  0  0  0
 22 23  1  0  0  0  0
 23 29  1  0  0  0  0
 24  3  1  0  0  0  0
 24 23  2  0  0  0  0
 25 24  1  0  0  0  0
 26 25  2  0  0  0  0
 26 27  1  0  0  0  0
 27 22  2  0  0  0  0
 30 26  1  0  0  0  0
M  END
>  <minimizedAffinity>
-5.94368029

$$$$

 OpenBabel03242519593D

 30 33  0  0  0  0  0  0  0  0999 V2000
   40.6640   29.5700   40.5860 Br  0  0  0  0  0  0  0  0  0  0  0  0
   39.2050   30.7380   40.2070 C   0  0  0  0  0  0  0  0  0  0  0  0
   39.3310   31.8650   39.4170 C   0  0  0  0  0  0  0  0  0  0  0  0
   38.2160   32.6430   39.2040 C   0  0  0  0  0  0  0  0  0  0  0  0
   36.9800   32.3470   39.7420 C   0  0  0  0  0  0  0  0  0  0  0  0
   36.8310   31.2160   40.5400 C   0  0  0  0  0  0  0  0  0  0  0  0
   37.9600   30.4540   40.7400 C   0  0  0  0  0  0  0  0  0  0  0  0
   38.3410   33.5230   38.5790 H   0  0  0  0  0  0  0  0  0  0  0  0
   36.1210   32.9750   39.5590 H   0  0  0  0  0  0  0  0  0  0  0  0
   35.8730   30.9660   40.9730 H   0  0  0  0  0  0  0  0  0  0  0  0
   37.7610   29.2620   41.5940 C   0  0  0  0  0  0  0  0  0  0  0  0
   37.9080   29.3090   42.9650 C   0  0  0  0  0  0  0  0  0  0  0  0
   38.1800   30.2440   43.4520 H   0  0  0  0  0  0  0  0  0  0  0  0
   37.7020   28.1490   43.6790 C   0  0  0  0  0  3  0  0  0  0  0  0
   37.3560   26.9770   43.0080 C   0  0  0  0  0  3  0  0  0  0  0  0
   37.2160   26.9720   41.6220 C   0  0  0  0  0  0  0  0  0  0  0  0
   36.8690   25.7760   40.9970 C   0  0  0  0  0  3  0  0  0  0  0  0
   36.7320   25.7800   39.6130 C   0  0  0  0  0  3  0  0  0  0  0  0
   36.9280   26.9180   38.8530 C   0  0  0  0  0  3  0  0  0  0  0  0
   37.2670   28.0560   39.5340 C   0  0  0  0  0  3  0  0  0  0  0  0
   37.4190   28.1310   40.8830 C   0  0  0  0  0  0  0  0  0  0  0  0
   42.3020   32.0380   37.0600 C   0  0  0  0  0  0  0  0  0  0  0  0
   41.0260   31.7560   37.5740 C   0  0  0  0  0  0  0  0  0  0  0  0
   40.6590   32.1480   38.8600 C   0  0  0  0  0  0  0  0  0  0  0  0
   41.6030   32.8090   39.5680 N   0  0  0  0  0  0  0  0  0  0  0  0
   42.8280   33.0730   39.0620 C   0  0  0  0  0  0  0  0  0  0  0  0
   43.1710   32.6960   37.8330 N   0  0  0  0  0  0  0  0  0  0  0  0
   42.4990   31.6930   36.0450 H   0  0  0  0  0  0  0  0  0  0  0  0
   40.2500   31.2310   37.0330 H   0  0  0  0  0  0  0  0  0  0  0  0
   43.5030   33.6070   39.7180 H   0  0  0  0  0  0  0  0  0  0  0  0
  2  1  1  0  0  0  0
  2  7  1  0  0  0  0
  3  2  2  0  0  0  0
  4  3  1  0  0  0  0
  4  5  2  0  0  0  0
  5  6  1  0  0  0  0
  6  7  2  0  0  0  0
  6 10  1  0  0  0  0
  7 11  1  0  0  0  0
  8  4  1  0  0  0  0
  9  5  1  0  0  0  0
 11 12  1  0  0  0  0
 12 13  1  0  0  0  0
 12 14  2  0  0  0  0
 15 14  1  0  0  0  0
 16 15  2  0  0  0  0
 17 16  1  0  0  0  0
 18 17  2  0  0  0  0
 19 20  2  0  0  0  0
 19 18  1  0  0  0  0
 20 21  1  0  0  0  0
 21 11  2  0  0  0  0
 21 16  1  0  0  0  0
 22 23  2  0  0  0  0
 22 27  1  0  0  0  0
 23 24  1  0  0  0  0
 24  3  1  0  0  0  0
 24 25  2  0  0  0  0
 26 25  1  0  0  0  0
 26 30  1  0  0  0  0
 27 26  2  0  0  0  0
 28 22  1  0  0  0  0
 29 23  1  0  0  0  0
M  END
>  <minimizedAffinity>
-5.87713957

$$$$

 OpenBabel03242519593D

 30 33  0  0  0  0  0  0  0  0999 V2000
   39.0770   28.1170   38.1740 Br  0  0  0  0  0  0  0  0  0  0  0  0
   37.8460   29.1660   39.1850 C   0  0  0  0  0  0  0  0  0  0  0  0
   38.0880   30.4840   39.5270 C   0  0  0  0  0  0  0  0  0  0  0  0
   37.1360   31.1550   40.2600 C   0  0  0  0  0  0  0  0  0  0  0  0
   35.9520   30.5720   40.6650 C   0  0  0  0  0  0  0  0  0  0  0  0
   35.6890   29.2460   40.3300 C   0  0  0  0  0  0  0  0  0  0  0  0
   36.6560   28.5950   39.5980 C   0  0  0  0  0  0  0  0  0  0  0  0
   37.3490   32.1880   40.5160 H   0  0  0  0  0  0  0  0  0  0  0  0
   35.2210   31.1210   41.2390 H   0  0  0  0  0  0  0  0  0  0  0  0
   34.7690   28.7700   40.6370 H   0  0  0  0  0  0  0  0  0  0  0  0
   36.3390   27.1890   39.2630 C   0  0  0  0  0  0  0  0  0  0  0  0
   35.7210   26.8390   38.0800 C   0  0  0  0  0  0  0  0  0  0  0  0
   35.4520   27.6070   37.3570 H   0  0  0  0  0  0  0  0  0  0  0  0
   35.4660   25.5040   37.8540 C   0  0  0  0  0  3  0  0  0  0  0  0
   35.8310   24.5580   38.8120 C   0  0  0  0  0  3  0  0  0  0  0  0
   36.4540   24.9540   39.9930 C   0  0  0  0  0  0  0  0  0  0  0  0
   36.8000   23.9720   40.9190 C   0  0  0  0  0  3  0  0  0  0  0  0
   37.4210   24.3760   42.0960 C   0  0  0  0  0  3  0  0  0  0  0  0
   37.6990   25.7030   42.3680 C   0  0  0  0  0  3  0  0  0  0  0  0
   37.3310   26.6120   41.4150 C   0  0  0  0  0  3  0  0  0  0  0  0
   36.7210   26.2950   40.2410 C   0  0  0  0  0  0  0  0  0  0  0  0
   40.6970   32.3040   37.4560 C   0  0  0  0  0  0  0  0  0  0  0  0
   39.4750   31.7480   37.8670 C   0  0  0  0  0  0  0  0  0  0  0  0
   39.3560   31.0720   39.0790 C   0  0  0  0  0  0  0  0  0  0  0  0
   40.4820   30.9890   39.8220 N   0  0  0  0  0  0  0  0  0  0  0  0
   41.6530   31.5270   39.4150 C   0  0  0  0  0  0  0  0  0  0  0  0
   41.7600   32.1720   38.2560 N   0  0  0  0  0  0  0  0  0  0  0  0
   40.6950   32.8150   36.4930 H   0  0  0  0  0  0  0  0  0  0  0  0
   38.5570   31.7990   37.2960 H   0  0  0  0  0  0  0  0  0  0  0  0
   42.4900   31.3990   40.0900 H   0  0  0  0  0  0  0  0  0  0  0  0
  1  2  1  0  0  0  0
  2  3  2  0  0  0  0
  2  7  1  0  0  0  0
  3  4  1  0  0  0  0
  4  8  1  0  0  0  0
  4  5  2  0  0  0  0
  5  9  1  0  0  0  0
  6 10  1  0  0  0  0
  6  5  1  0  0  0  0
  7  6  2  0  0  0  0
 11  7  1  0  0  0  0
 11 21  1  0  0  0  0
 12 11  2  0  0  0  0
 13 12  1  0  0  0  0
 14 12  1  0  0  0  0
 14 15  2  0  0  0  0
 15 16  1  0  0  0  0
 16 21  2  0  0  0  0
 16 17  1  0  0  0  0
 17 18  2  0  0  0  0
 18 19  1  0  0  0  0
 20 19  2  0  0  0  0
 21 20  1  0  0  0  0
 22 23  2  0  0  0  0
 22 27  1  0  0  0  0
 23 24  1  0  0  0  0
 24  3  1  0  0  0  0
 24 25  2  0  0  0  0
 26 25  1  0  0  0  0
 26 30  1  0  0  0  0
 27 26  2  0  0  0  0
 28 22  1  0  0  0  0
 29 23  1  0  0  0  0
M  END
>  <minimizedAffinity>
-5.77365303

$$$$

 OpenBabel03242519593D

 30 33  0  0  0  0  0  0  0  0999 V2000
   40.4030   28.3320   40.0090 Br  0  0  0  0  0  0  0  0  0  0  0  0
   39.0290   28.0560   41.3030 C   0  0  0  0  0  0  0  0  0  0  0  0
   39.2710   27.5000   42.5460 C   0  0  0  0  0  0  0  0  0  0  0  0
   38.2110   27.3420   43.4090 C   0  0  0  0  0  0  0  0  0  0  0  0
   36.9200   27.7160   43.0900 C   0  0  0  0  0  0  0  0  0  0  0  0
   36.6570   28.2790   41.8440 C   0  0  0  0  0  0  0  0  0  0  0  0
   37.7320   28.4250   40.9970 C   0  0  0  0  0  0  0  0  0  0  0  0
   38.4260   26.9030   44.3790 H   0  0  0  0  0  0  0  0  0  0  0  0
   36.1070   27.5810   43.7860 H   0  0  0  0  0  0  0  0  0  0  0  0
   35.6540   28.5780   41.5730 H   0  0  0  0  0  0  0  0  0  0  0  0
   37.4100   29.0260   39.6840 C   0  0  0  0  0  0  0  0  0  0  0  0
   37.0200   28.2610   38.6040 C   0  0  0  0  0  0  0  0  0  0  0  0
   36.9410   27.1800   38.7020 H   0  0  0  0  0  0  0  0  0  0  0  0
   36.7400   28.9080   37.4200 C   0  0  0  0  0  3  0  0  0  0  0  0
   36.8560   30.2950   37.3460 C   0  0  0  0  0  3  0  0  0  0  0  0
   37.2530   31.0310   38.4600 C   0  0  0  0  0  0  0  0  0  0  0  0
   37.3540   32.4150   38.3370 C   0  0  0  0  0  3  0  0  0  0  0  0
   37.7510   33.1420   39.4550 C   0  0  0  0  0  3  0  0  0  0  0  0
   38.0430   32.5390   40.6640 C   0  0  0  0  0  3  0  0  0  0  0  0
   37.9220   31.1770   40.7120 C   0  0  0  0  0  3  0  0  0  0  0  0
   37.5400   30.3990   39.6640 C   0  0  0  0  0  0  0  0  0  0  0  0
   42.4660   25.4830   42.9090 C   0  0  0  0  0  0  0  0  0  0  0  0
   41.1390   25.8310   42.6110 C   0  0  0  0  0  0  0  0  0  0  0  0
   40.6540   27.1150   42.8520 C   0  0  0  0  0  0  0  0  0  0  0  0
   41.5360   27.9890   43.3860 N   0  0  0  0  0  0  0  0  0  0  0  0
   42.8100   27.6410   43.6700 C   0  0  0  0  0  0  0  0  0  0  0  0
   43.2670   26.4140   43.4380 N   0  0  0  0  0  0  0  0  0  0  0  0
   42.7570   24.4560   42.6860 H   0  0  0  0  0  0  0  0  0  0  0  0
   40.4110   25.1550   42.1820 H   0  0  0  0  0  0  0  0  0  0  0  0
   43.4270   28.4220   44.0960 H   0  0  0  0  0  0  0  0  0  0  0  0
  1  2  1  0  0  0  0
  2  3  1  0  0  0  0
  3 24  1  0  0  0  0
  3  4  2  0  0  0  0
  4  8  1  0  0  0  0
  5  4  1  0  0  0  0
  5  9  1  0  0  0  0
  6  5  2  0  0  0  0
  7  2  2  0  0  0  0
  7  6  1  0  0  0  0
 10  6  1  0  0  0  0
 11  7  1  0  0  0  0
 12 13  1  0  0  0  0
 12 11  2  0  0  0  0
 14 12  1  0  0  0  0
 15 14  2  0  0  0  0
 15 16  1  0  0  0  0
 16 21  1  0  0  0  0
 17 16  2  0  0  0  0
 17 18  1  0  0  0  0
 18 19  2  0  0  0  0
 19 20  1  0  0  0  0
 21 11  1  0  0  0  0
 21 20  2  0  0  0  0
 22 27  1  0  0  0  0
 23 24  1  0  0  0  0
 23 22  2  0  0  0  0
 24 25  2  0  0  0  0
 25 26  1  0  0  0  0
 26 30  1  0  0  0  0
 27 26  2  0  0  0  0
 28 22  1  0  0  0  0
 29 23  1  0  0  0  0
M  END
>  <minimizedAffinity>
-5.69698954

$$$$
