
 OpenBabel03242518033D

 39 42  0  0  0  0  0  0  0  0999 V2000
   33.2710   28.6080   36.1810 C   0  0  0  0  0  0  0  0  0  0  0  0
   33.4030   27.5990   35.7650 H   0  0  0  0  0  0  0  0  0  0  0  0
   33.5970   29.2900   35.3370 H   0  0  0  0  0  0  0  0  0  0  0  0
   35.4970   29.1850   37.1020 C   0  0  0  0  0  0  0  0  0  0  0  0
   34.1320   28.9280   37.3050 C   0  0  0  0  0  0  0  0  0  0  0  0
   33.6990   29.0040   38.6160 C   0  0  0  0  0  0  0  0  0  0  0  0
   34.5710   29.3070   39.5920 N   0  0  0  0  0  0  0  0  0  0  0  0
   35.8550   29.5480   39.3940 C   0  0  0  0  0  0  0  0  0  0  0  0
   36.2790   29.4790   38.1490 N   0  0  0  0  0  0  0  0  0  0  0  0
   35.9310   29.1450   36.0880 H   0  0  0  0  0  0  0  0  0  0  0  0
   32.6690   28.8220   38.8620 H   0  0  0  0  0  0  0  0  0  0  0  0
   36.9250   29.8860   40.3270 C   0  0  0  0  0  0  0  0  0  0  0  0
   37.7690   30.9850   40.1680 C   0  0  0  0  0  0  0  0  0  0  0  0
   37.6130   31.6300   39.2880 H   0  0  0  0  0  0  0  0  0  0  0  0
   38.7790   31.3240   41.0250 C   0  0  0  0  0  3  0  0  0  0  0  0
   39.0150   30.5530   42.1380 C   0  0  0  0  0  3  0  0  0  0  0  0
   38.2210   29.4510   42.3610 C   0  0  0  0  0  0  0  0  0  0  0  0
   38.5050   28.7280   43.4800 C   0  0  0  0  0  3  0  0  0  0  0  0
   37.7640   27.6140   43.7780 C   0  0  0  0  0  3  0  0  0  0  0  0
   36.7350   27.2740   42.8990 C   0  0  0  0  0  3  0  0  0  0  0  0
   36.5070   28.0510   41.7890 C   0  0  0  0  0  3  0  0  0  0  0  0
   37.2300   29.1720   41.4620 C   0  0  0  0  0  0  0  0  0  0  0  0
   31.8440   28.9350   36.5760 C   0  0  0  0  0  0  0  0  0  0  0  0
   31.7690   28.8570   37.6710 H   0  0  0  0  0  0  0  0  0  0  0  0
   31.1280   28.1470   36.1960 H   0  0  0  0  0  0  0  0  0  0  0  0
   30.4120   30.9230   36.7630 C   0  0  0  0  0  0  0  0  0  0  0  0
   31.3370   30.2020   36.0300 C   0  0  0  0  0  0  0  0  0  0  0  0
   31.8100   30.6080   34.8120 C   0  0  0  0  0  0  0  0  0  0  0  0
   31.3400   31.7910   34.2950 C   0  0  0  0  0  0  0  0  0  0  0  0
   30.4300   32.5710   34.9400 C   0  0  0  0  0  0  0  0  0  0  0  0
   29.9910   32.1020   36.1730 C   0  0  0  0  0  0  0  0  0  0  0  0
   32.5200   30.1200   34.1780 H   0  0  0  0  0  0  0  0  0  0  0  0
   31.6650   32.1930   33.3240 H   0  0  0  0  0  0  0  0  0  0  0  0
   30.0340   33.5080   34.5730 H   0  0  0  0  0  0  0  0  0  0  0  0
   29.2600   32.7090   36.7120 H   0  0  0  0  0  0  0  0  0  0  0  0
   29.7840   30.4370   38.3190 S   0  0  0  0  0  0  0  0  0  0  0  0
   28.8740   29.2330   38.2130 O   0  0  0  0  0  0  0  0  0  0  0  0
   28.8850   31.5370   38.8360 O   0  0  0  0  0  0  0  0  0  0  0  0
   30.7370   30.2620   39.2650 H   0  0  0  0  0  0  0  0  0  0  0  0
  1 23  1  0  0  0  0
  1  5  1  0  0  0  0
  2  1  1  0  0  0  0
  3  1  1  0  0  0  0
  4  5  2  0  0  0  0
  4  9  1  0  0  0  0
  5  6  1  0  0  0  0
  6 11  1  0  0  0  0
  6  7  2  0  0  0  0
  8  7  1  0  0  0  0
  8 12  1  0  0  0  0
  9  8  2  0  0  0  0
 10  4  1  0  0  0  0
 12 22  1  0  0  0  0
 13 12  2  0  0  0  0
 13 15  1  0  0  0  0
 14 13  1  0  0  0  0
 15 16  2  0  0  0  0
 16 17  1  0  0  0  0
 17 18  1  0  0  0  0
 18 19  2  0  0  0  0
 20 19  1  0  0  0  0
 21 20  2  0  0  0  0
 22 21  1  0  0  0  0
 22 17  2  0  0  0  0
 23 24  1  0  0  0  0
 25 23  1  0  0  0  0
 26 36  1  0  0  0  0
 27 23  1  0  0  0  0
 27 26  2  0  0  0  0
 28 27  1  0  0  0  0
 29 28  2  0  0  0  0
 29 30  1  0  0  0  0
 30 31  2  0  0  0  0
 31 35  1  0  0  0  0
 31 26  1  0  0  0  0
 32 28  1  0  0  0  0
 33 29  1  0  0  0  0
 34 30  1  0  0  0  0
 36 38  2  0  0  0  0
 36 39  1  0  0  0  0
 37 36  2  0  0  0  0
M  END
>  <minimizedAffinity>
-6.7514801

$$$$

 OpenBabel03242518033D

 39 42  0  0  0  0  0  0  0  0999 V2000
   33.3170   28.7490   36.4400 C   0  0  0  0  0  0  0  0  0  0  0  0
   33.3040   27.8830   35.7630 H   0  0  0  0  0  0  0  0  0  0  0  0
   33.7540   29.5790   35.8040 H   0  0  0  0  0  0  0  0  0  0  0  0
   33.8500   29.1940   38.8180 C   0  0  0  0  0  0  0  0  0  0  0  0
   34.2000   28.6210   37.5850 C   0  0  0  0  0  0  0  0  0  0  0  0
   35.4100   27.9520   37.5600 C   0  0  0  0  0  0  0  0  0  0  0  0
   36.1600   27.8860   38.6730 N   0  0  0  0  0  0  0  0  0  0  0  0
   35.8260   28.4280   39.8300 C   0  0  0  0  0  0  0  0  0  0  0  0
   34.6750   29.0670   39.8660 N   0  0  0  0  0  0  0  0  0  0  0  0
   32.9030   29.7490   38.9310 H   0  0  0  0  0  0  0  0  0  0  0  0
   35.7560   27.4830   36.6570 H   0  0  0  0  0  0  0  0  0  0  0  0
   36.5140   28.4510   41.1160 C   0  0  0  0  0  0  0  0  0  0  0  0
   36.2020   27.5970   42.1750 C   0  0  0  0  0  0  0  0  0  0  0  0
   35.3890   26.8680   42.0240 H   0  0  0  0  0  0  0  0  0  0  0  0
   36.8280   27.5980   43.3890 C   0  0  0  0  0  3  0  0  0  0  0  0
   37.8480   28.4880   43.6290 C   0  0  0  0  0  3  0  0  0  0  0  0
   38.2130   29.3620   42.6300 C   0  0  0  0  0  0  0  0  0  0  0  0
   39.2290   30.2180   42.9280 C   0  0  0  0  0  3  0  0  0  0  0  0
   39.6550   31.1230   41.9900 C   0  0  0  0  0  3  0  0  0  0  0  0
   39.0110   31.1170   40.7530 C   0  0  0  0  0  3  0  0  0  0  0  0
   37.9920   30.2230   40.5230 C   0  0  0  0  0  3  0  0  0  0  0  0
   37.5410   29.3050   41.4400 C   0  0  0  0  0  0  0  0  0  0  0  0
   31.9500   29.1630   36.9460 C   0  0  0  0  0  0  0  0  0  0  0  0
   32.0160   29.2880   38.0370 H   0  0  0  0  0  0  0  0  0  0  0  0
   31.1980   28.3300   36.8110 H   0  0  0  0  0  0  0  0  0  0  0  0
   30.3390   31.0180   36.8530 C   0  0  0  0  0  0  0  0  0  0  0  0
   31.3650   30.3160   36.2460 C   0  0  0  0  0  0  0  0  0  0  0  0
   31.8710   30.6410   35.0170 C   0  0  0  0  0  0  0  0  0  0  0  0
   31.3300   31.7170   34.3560 C   0  0  0  0  0  0  0  0  0  0  0  0
   30.3190   32.4690   34.8700 C   0  0  0  0  0  0  0  0  0  0  0  0
   29.8500   32.0870   36.1220 C   0  0  0  0  0  0  0  0  0  0  0  0
   32.6570   30.1610   34.4730 H   0  0  0  0  0  0  0  0  0  0  0  0
   31.6740   32.0480   33.3650 H   0  0  0  0  0  0  0  0  0  0  0  0
   29.8630   33.3230   34.3880 H   0  0  0  0  0  0  0  0  0  0  0  0
   29.0390   32.6730   36.5590 H   0  0  0  0  0  0  0  0  0  0  0  0
   29.6670   30.6320   38.4190 S   0  0  0  0  0  0  0  0  0  0  0  0
   28.8150   29.3820   38.3790 O   0  0  0  0  0  0  0  0  0  0  0  0
   28.6990   31.7280   38.8060 O   0  0  0  0  0  0  0  0  0  0  0  0
   30.5850   30.5810   39.4130 H   0  0  0  0  0  0  0  0  0  0  0  0
  1 23  1  0  0  0  0
  1  5  1  0  0  0  0
  2  1  1  0  0  0  0
  3  1  1  0  0  0  0
  4 10  1  0  0  0  0
  4  9  1  0  0  0  0
  5  4  2  0  0  0  0
  6  5  1  0  0  0  0
  6  7  2  0  0  0  0
  7  8  1  0  0  0  0
  8  9  2  0  0  0  0
  8 12  1  0  0  0  0
 11  6  1  0  0  0  0
 12 22  2  0  0  0  0
 12 13  1  0  0  0  0
 13 15  2  0  0  0  0
 14 13  1  0  0  0  0
 15 16  1  0  0  0  0
 17 18  1  0  0  0  0
 17 16  2  0  0  0  0
 19 18  2  0  0  0  0
 20 19  1  0  0  0  0
 21 20  2  0  0  0  0
 21 22  1  0  0  0  0
 22 17  1  0  0  0  0
 23 24  1  0  0  0  0
 25 23  1  0  0  0  0
 26 36  1  0  0  0  0
 27 26  1  0  0  0  0
 27 23  1  0  0  0  0
 28 27  2  0  0  0  0
 29 30  2  0  0  0  0
 29 28  1  0  0  0  0
 30 31  1  0  0  0  0
 31 35  1  0  0  0  0
 31 26  2  0  0  0  0
 32 28  1  0  0  0  0
 33 29  1  0  0  0  0
 34 30  1  0  0  0  0
 36 38  2  0  0  0  0
 36 39  1  0  0  0  0
 37 36  2  0  0  0  0
M  END
>  <minimizedAffinity>
-6.68404102

$$$$

 OpenBabel03242518033D

 39 42  0  0  0  0  0  0  0  0999 V2000
   35.6220   25.9230   37.7160 C   0  0  0  0  0  0  0  0  0  0  0  0
   36.1290   25.3280   36.9430 H   0  0  0  0  0  0  0  0  0  0  0  0
   35.0410   25.1530   38.3090 H   0  0  0  0  0  0  0  0  0  0  0  0
   34.8370   28.2470   37.3670 C   0  0  0  0  0  0  0  0  0  0  0  0
   34.6360   26.8660   37.2190 C   0  0  0  0  0  0  0  0  0  0  0  0
   33.4630   26.4980   36.5850 C   0  0  0  0  0  0  0  0  0  0  0  0
   32.6090   27.4440   36.1580 N   0  0  0  0  0  0  0  0  0  0  0  0
   32.8050   28.7420   36.3000 C   0  0  0  0  0  0  0  0  0  0  0  0
   33.9190   29.1040   36.9020 N   0  0  0  0  0  0  0  0  0  0  0  0
   35.7450   28.6320   37.8620 H   0  0  0  0  0  0  0  0  0  0  0  0
   33.2280   25.4620   36.4300 H   0  0  0  0  0  0  0  0  0  0  0  0
   31.9920   29.8870   35.9020 C   0  0  0  0  0  0  0  0  0  0  0  0
   32.1390   30.5530   34.6850 C   0  0  0  0  0  0  0  0  0  0  0  0
   32.9150   30.1890   33.9900 H   0  0  0  0  0  0  0  0  0  0  0  0
   31.3940   31.6270   34.2870 C   0  0  0  0  0  3  0  0  0  0  0  0
   30.4140   32.1200   35.1160 C   0  0  0  0  0  3  0  0  0  0  0  0
   30.2100   31.5130   36.3350 C   0  0  0  0  0  0  0  0  0  0  0  0
   29.2260   32.0480   37.1100 C   0  0  0  0  0  3  0  0  0  0  0  0
   28.9570   31.5050   38.3400 C   0  0  0  0  0  3  0  0  0  0  0  0
   29.7220   30.4080   38.7390 C   0  0  0  0  0  3  0  0  0  0  0  0
   30.6990   29.9230   37.9030 C   0  0  0  0  0  3  0  0  0  0  0  0
   30.9940   30.4430   36.6670 C   0  0  0  0  0  0  0  0  0  0  0  0
   36.5620   26.6720   38.6390 C   0  0  0  0  0  0  0  0  0  0  0  0
   36.2390   27.7230   38.6730 H   0  0  0  0  0  0  0  0  0  0  0  0
   37.6050   26.7200   38.2050 H   0  0  0  0  0  0  0  0  0  0  0  0
   36.8530   26.8760   41.0710 C   0  0  0  0  0  0  0  0  0  0  0  0
   36.7330   26.0570   39.9630 C   0  0  0  0  0  0  0  0  0  0  0  0
   36.7640   24.6900   40.0340 C   0  0  0  0  0  0  0  0  0  0  0  0
   36.9240   24.1080   41.2680 C   0  0  0  0  0  0  0  0  0  0  0  0
   37.0510   24.8280   42.4150 C   0  0  0  0  0  0  0  0  0  0  0  0
   37.0100   26.2110   42.2750 C   0  0  0  0  0  0  0  0  0  0  0  0
   36.6790   23.9820   39.2380 H   0  0  0  0  0  0  0  0  0  0  0  0
   36.9610   23.0190   41.4180 H   0  0  0  0  0  0  0  0  0  0  0  0
   37.1770   24.4140   43.4070 H   0  0  0  0  0  0  0  0  0  0  0  0
   37.1100   26.8140   43.1810 H   0  0  0  0  0  0  0  0  0  0  0  0
   36.8200   28.6230   41.0200 S   0  0  0  0  0  0  0  0  0  0  0  0
   37.2440   29.2370   42.3360 O   0  0  0  0  0  0  0  0  0  0  0  0
   35.3850   29.0670   40.8500 O   0  0  0  0  0  0  0  0  0  0  0  0
   37.4990   29.1540   39.9760 H   0  0  0  0  0  0  0  0  0  0  0  0
  1  3  1  0  0  0  0
  1 23  1  0  0  0  0
  2  1  1  0  0  0  0
  4 10  1  0  0  0  0
  5  4  1  0  0  0  0
  5  1  1  0  0  0  0
  6  5  2  0  0  0  0
  7  8  2  0  0  0  0
  7  6  1  0  0  0  0
  8  9  1  0  0  0  0
  9  4  2  0  0  0  0
 11  6  1  0  0  0  0
 12  8  1  0  0  0  0
 12 22  1  0  0  0  0
 13 12  2  0  0  0  0
 14 13  1  0  0  0  0
 15 13  1  0  0  0  0
 15 16  2  0  0  0  0
 16 17  1  0  0  0  0
 17 22  2  0  0  0  0
 17 18  1  0  0  0  0
 18 19  2  0  0  0  0
 19 20  1  0  0  0  0
 21 20  2  0  0  0  0
 22 21  1  0  0  0  0
 23 24  1  0  0  0  0
 23 27  1  0  0  0  0
 25 23  1  0  0  0  0
 26 31  1  0  0  0  0
 27 28  1  0  0  0  0
 27 26  2  0  0  0  0
 28 29  2  0  0  0  0
 29 33  1  0  0  0  0
 29 30  1  0  0  0  0
 30 34  1  0  0  0  0
 31 30  2  0  0  0  0
 31 35  1  0  0  0  0
 32 28  1  0  0  0  0
 36 26  1  0  0  0  0
 36 37  2  0  0  0  0
 38 36  2  0  0  0  0
 39 36  1  0  0  0  0
M  END
>  <minimizedAffinity>
-6.53606844

$$$$

 OpenBabel03242518033D

 39 42  0  0  0  0  0  0  0  0999 V2000
   36.0410   26.6230   37.6870 C   0  0  0  0  0  0  0  0  0  0  0  0
   36.6450   26.4970   36.7770 H   0  0  0  0  0  0  0  0  0  0  0  0
   35.7020   25.5710   37.9320 H   0  0  0  0  0  0  0  0  0  0  0  0
   34.5900   28.5300   38.3160 C   0  0  0  0  0  0  0  0  0  0  0  0
   34.8270   27.4010   37.5170 C   0  0  0  0  0  0  0  0  0  0  0  0
   33.8410   27.1060   36.5920 C   0  0  0  0  0  0  0  0  0  0  0  0
   32.7500   27.8850   36.5080 N   0  0  0  0  0  0  0  0  0  0  0  0
   32.5330   28.9470   37.2630 C   0  0  0  0  0  0  0  0  0  0  0  0
   33.4650   29.2370   38.1470 N   0  0  0  0  0  0  0  0  0  0  0  0
   35.3210   28.8400   39.0820 H   0  0  0  0  0  0  0  0  0  0  0  0
   33.9410   26.2590   35.9400 H   0  0  0  0  0  0  0  0  0  0  0  0
   31.4180   29.8880   37.3020 C   0  0  0  0  0  0  0  0  0  0  0  0
   30.5920   30.0610   38.4130 C   0  0  0  0  0  0  0  0  0  0  0  0
   30.7990   29.4490   39.3070 H   0  0  0  0  0  0  0  0  0  0  0  0
   29.5420   30.9340   38.4760 C   0  0  0  0  0  3  0  0  0  0  0  0
   29.2420   31.7190   37.3890 C   0  0  0  0  0  3  0  0  0  0  0  0
   30.0150   31.6050   36.2560 C   0  0  0  0  0  0  0  0  0  0  0  0
   29.6680   32.4090   35.2140 C   0  0  0  0  0  3  0  0  0  0  0  0
   30.3850   32.3580   34.0450 C   0  0  0  0  0  3  0  0  0  0  0  0
   31.4550   31.4650   33.9870 C   0  0  0  0  0  3  0  0  0  0  0  0
   31.7460   30.6840   35.0800 C   0  0  0  0  0  3  0  0  0  0  0  0
   31.0500   30.7100   36.2630 C   0  0  0  0  0  0  0  0  0  0  0  0
   36.8050   27.1990   38.8630 C   0  0  0  0  0  0  0  0  0  0  0  0
   36.4190   28.2110   39.0560 H   0  0  0  0  0  0  0  0  0  0  0  0
   37.8910   27.3660   38.5990 H   0  0  0  0  0  0  0  0  0  0  0  0
   37.1210   26.8970   41.2820 C   0  0  0  0  0  0  0  0  0  0  0  0
   36.8340   26.3340   40.0510 C   0  0  0  0  0  0  0  0  0  0  0  0
   36.5730   25.0010   39.8790 C   0  0  0  0  0  0  0  0  0  0  0  0
   36.5990   24.1870   40.9840 C   0  0  0  0  0  0  0  0  0  0  0  0
   36.8710   24.6460   42.2360 C   0  0  0  0  0  0  0  0  0  0  0  0
   37.1270   26.0090   42.3430 C   0  0  0  0  0  0  0  0  0  0  0  0
   36.3420   24.4810   38.9730 H   0  0  0  0  0  0  0  0  0  0  0  0
   36.4020   23.1060   40.9380 H   0  0  0  0  0  0  0  0  0  0  0  0
   36.9020   24.0430   43.1340 H   0  0  0  0  0  0  0  0  0  0  0  0
   37.3490   26.4040   43.3370 H   0  0  0  0  0  0  0  0  0  0  0  0
   37.4610   28.5910   41.5410 S   0  0  0  0  0  0  0  0  0  0  0  0
   37.8220   28.8840   42.9810 O   0  0  0  0  0  0  0  0  0  0  0  0
   36.1880   29.3730   41.3110 O   0  0  0  0  0  0  0  0  0  0  0  0
   38.3720   29.1060   40.6810 H   0  0  0  0  0  0  0  0  0  0  0  0
  1  3  1  0  0  0  0
  1 23  1  0  0  0  0
  2  1  1  0  0  0  0
  4 10  1  0  0  0  0
  5  1  1  0  0  0  0
  5  4  2  0  0  0  0
  6  5  1  0  0  0  0
  7  6  2  0  0  0  0
  7  8  1  0  0  0  0
  8 12  1  0  0  0  0
  8  9  2  0  0  0  0
  9  4  1  0  0  0  0
 11  6  1  0  0  0  0
 12 13  1  0  0  0  0
 13 15  2  0  0  0  0
 13 14  1  0  0  0  0
 16 15  1  0  0  0  0
 17 22  1  0  0  0  0
 17 16  2  0  0  0  0
 18 17  1  0  0  0  0
 19 18  2  0  0  0  0
 20 19  1  0  0  0  0
 20 21  2  0  0  0  0
 21 22  1  0  0  0  0
 22 12  2  0  0  0  0
 23 24  1  0  0  0  0
 23 27  1  0  0  0  0
 25 23  1  0  0  0  0
 26 36  1  0  0  0  0
 26 31  1  0  0  0  0
 27 26  2  0  0  0  0
 28 27  1  0  0  0  0
 28 29  2  0  0  0  0
 29 30  1  0  0  0  0
 30 31  2  0  0  0  0
 30 34  1  0  0  0  0
 31 35  1  0  0  0  0
 32 28  1  0  0  0  0
 33 29  1  0  0  0  0
 36 37  2  0  0  0  0
 38 36  2  0  0  0  0
 39 36  1  0  0  0  0
M  END
>  <minimizedAffinity>
-6.48895073

$$$$

 OpenBabel03242518033D

 39 42  0  0  0  0  0  0  0  0999 V2000
   39.5370   34.3340   39.9770 C   0  0  0  0  0  0  0  0  0  0  0  0
   38.8730   35.2060   40.0690 H   0  0  0  0  0  0  0  0  0  0  0  0
   39.6870   34.2280   38.8600 H   0  0  0  0  0  0  0  0  0  0  0  0
   39.7470   32.1490   41.1260 C   0  0  0  0  0  0  0  0  0  0  0  0
   38.9640   33.0750   40.4200 C   0  0  0  0  0  0  0  0  0  0  0  0
   37.6530   32.6980   40.1930 C   0  0  0  0  0  0  0  0  0  0  0  0
   37.2120   31.5110   40.6420 N   0  0  0  0  0  0  0  0  0  0  0  0
   37.9540   30.6440   41.3060 C   0  0  0  0  0  0  0  0  0  0  0  0
   39.2050   30.9920   41.5280 N   0  0  0  0  0  0  0  0  0  0  0  0
   40.8060   32.3650   41.3510 H   0  0  0  0  0  0  0  0  0  0  0  0
   36.9830   33.3470   39.6600 H   0  0  0  0  0  0  0  0  0  0  0  0
   37.6390   29.3300   41.8560 C   0  0  0  0  0  0  0  0  0  0  0  0
   37.5590   29.0640   43.2240 C   0  0  0  0  0  0  0  0  0  0  0  0
   37.7460   29.8970   43.9210 H   0  0  0  0  0  0  0  0  0  0  0  0
   37.2670   27.8430   43.7660 C   0  0  0  0  0  3  0  0  0  0  0  0
   37.0260   26.7710   42.9400 C   0  0  0  0  0  3  0  0  0  0  0  0
   37.0860   26.9580   41.5780 C   0  0  0  0  0  0  0  0  0  0  0  0
   36.8380   25.8580   40.8140 C   0  0  0  0  0  3  0  0  0  0  0  0
   36.8780   25.9550   39.4470 C   0  0  0  0  0  3  0  0  0  0  0  0
   37.1770   27.2030   38.9000 C   0  0  0  0  0  3  0  0  0  0  0  0
   37.4170   28.2690   39.7340 C   0  0  0  0  0  3  0  0  0  0  0  0
   37.3850   28.2060   41.1060 C   0  0  0  0  0  0  0  0  0  0  0  0
   40.8810   34.5020   40.6580 C   0  0  0  0  0  0  0  0  0  0  0  0
   40.8890   33.8660   41.5550 H   0  0  0  0  0  0  0  0  0  0  0  0
   41.0010   35.5510   41.0640 H   0  0  0  0  0  0  0  0  0  0  0  0
   43.2830   34.0910   40.3400 C   0  0  0  0  0  0  0  0  0  0  0  0
   42.0390   34.3050   39.7740 C   0  0  0  0  0  0  0  0  0  0  0  0
   41.8260   34.3430   38.4230 C   0  0  0  0  0  0  0  0  0  0  0  0
   42.9030   34.1590   37.5910 C   0  0  0  0  0  0  0  0  0  0  0  0
   44.1650   33.9430   38.0510 C   0  0  0  0  0  0  0  0  0  0  0  0
   44.3140   33.9150   39.4330 C   0  0  0  0  0  0  0  0  0  0  0  0
   40.9060   34.5000   37.8990 H   0  0  0  0  0  0  0  0  0  0  0  0
   42.8240   34.1750   36.4940 H   0  0  0  0  0  0  0  0  0  0  0  0
   45.0410   33.7920   37.4350 H   0  0  0  0  0  0  0  0  0  0  0  0
   45.3170   33.7420   39.8300 H   0  0  0  0  0  0  0  0  0  0  0  0
   43.5940   34.0380   42.0580 S   0  0  0  0  0  0  0  0  0  0  0  0
   45.0650   34.1980   42.3740 O   0  0  0  0  0  0  0  0  0  0  0  0
   43.2560   32.6520   42.5610 O   0  0  0  0  0  0  0  0  0  0  0  0
   42.8290   34.8900   42.7810 H   0  0  0  0  0  0  0  0  0  0  0  0
  1  2  1  0  0  0  0
  1  5  1  0  0  0  0
  1 23  1  0  0  0  0
  3  1  1  0  0  0  0
  4 10  1  0  0  0  0
  4  9  1  0  0  0  0
  5  4  2  0  0  0  0
  6  5  1  0  0  0  0
  6  7  2  0  0  0  0
  7  8  1  0  0  0  0
  8  9  2  0  0  0  0
  8 12  1  0  0  0  0
 11  6  1  0  0  0  0
 12 13  1  0  0  0  0
 13 15  2  0  0  0  0
 13 14  1  0  0  0  0
 16 15  1  0  0  0  0
 17 16  2  0  0  0  0
 18 17  1  0  0  0  0
 19 18  2  0  0  0  0
 20 19  1  0  0  0  0
 20 21  2  0  0  0  0
 21 22  1  0  0  0  0
 22 17  1  0  0  0  0
 22 12  2  0  0  0  0
 23 25  1  0  0  0  0
 23 24  1  0  0  0  0
 26 36  1  0  0  0  0
 27 26  1  0  0  0  0
 27 23  1  0  0  0  0
 28 27  2  0  0  0  0
 29 30  2  0  0  0  0
 29 28  1  0  0  0  0
 30 31  1  0  0  0  0
 31 35  1  0  0  0  0
 31 26  2  0  0  0  0
 32 28  1  0  0  0  0
 33 29  1  0  0  0  0
 34 30  1  0  0  0  0
 36 37  2  0  0  0  0
 36 38  2  0  0  0  0
 36 39  1  0  0  0  0
M  END
>  <minimizedAffinity>
-6.34032393

$$$$

 OpenBabel03242518033D

 39 42  0  0  0  0  0  0  0  0999 V2000
   32.7250   28.6390   36.7980 C   0  0  0  0  0  0  0  0  0  0  0  0
   31.9450   28.0730   37.3280 H   0  0  0  0  0  0  0  0  0  0  0  0
   33.0750   27.9230   35.9930 H   0  0  0  0  0  0  0  0  0  0  0  0
   33.8030   29.1030   38.9790 C   0  0  0  0  0  0  0  0  0  0  0  0
   33.9020   28.9520   37.5880 C   0  0  0  0  0  0  0  0  0  0  0  0
   35.1690   29.1210   37.0580 C   0  0  0  0  0  0  0  0  0  0  0  0
   36.2000   29.4100   37.8700 N   0  0  0  0  0  0  0  0  0  0  0  0
   36.1000   29.5500   39.1790 C   0  0  0  0  0  0  0  0  0  0  0  0
   34.8980   29.3910   39.6950 N   0  0  0  0  0  0  0  0  0  0  0  0
   32.8310   28.9870   39.4890 H   0  0  0  0  0  0  0  0  0  0  0  0
   35.3360   29.0230   36.0010 H   0  0  0  0  0  0  0  0  0  0  0  0
   37.1020   29.8590   40.1930 C   0  0  0  0  0  0  0  0  0  0  0  0
   37.8580   31.0330   40.2000 C   0  0  0  0  0  0  0  0  0  0  0  0
   37.6820   31.7620   39.3920 H   0  0  0  0  0  0  0  0  0  0  0  0
   38.8030   31.3470   41.1360 C   0  0  0  0  0  3  0  0  0  0  0  0
   39.0600   30.4720   42.1640 C   0  0  0  0  0  3  0  0  0  0  0  0
   38.3530   29.2930   42.2240 C   0  0  0  0  0  0  0  0  0  0  0  0
   38.6530   28.4690   43.2650 C   0  0  0  0  0  3  0  0  0  0  0  0
   37.9960   27.2720   43.4000 C   0  0  0  0  0  3  0  0  0  0  0  0
   37.0320   26.9580   42.4410 C   0  0  0  0  0  3  0  0  0  0  0  0
   36.7830   27.8400   41.4170 C   0  0  0  0  0  3  0  0  0  0  0  0
   37.4220   29.0440   41.2530 C   0  0  0  0  0  0  0  0  0  0  0  0
   32.2350   29.9230   36.1590 C   0  0  0  0  0  0  0  0  0  0  0  0
   32.1770   29.7610   35.0720 H   0  0  0  0  0  0  0  0  0  0  0  0
   32.9980   30.7500   36.2730 H   0  0  0  0  0  0  0  0  0  0  0  0
   30.1950   31.2820   35.9790 C   0  0  0  0  0  0  0  0  0  0  0  0
   31.0020   30.4640   36.7480 C   0  0  0  0  0  0  0  0  0  0  0  0
   30.7110   30.1270   38.0430 C   0  0  0  0  0  0  0  0  0  0  0  0
   29.5610   30.6280   38.6010 C   0  0  0  0  0  0  0  0  0  0  0  0
   28.7030   31.4410   37.9260 C   0  0  0  0  0  0  0  0  0  0  0  0
   29.0560   31.7450   36.6150 C   0  0  0  0  0  0  0  0  0  0  0  0
   31.2700   29.5050   38.7090 H   0  0  0  0  0  0  0  0  0  0  0  0
   29.2490   30.4100   39.6330 H   0  0  0  0  0  0  0  0  0  0  0  0
   27.7880   31.8580   38.3230 H   0  0  0  0  0  0  0  0  0  0  0  0
   28.3850   32.3950   36.0490 H   0  0  0  0  0  0  0  0  0  0  0  0
   30.5340   31.7360   34.3260 S   0  0  0  0  0  0  0  0  0  0  0  0
   30.9790   30.5530   33.4930 O   0  0  0  0  0  0  0  0  0  0  0  0
   31.7280   32.6630   34.3210 O   0  0  0  0  0  0  0  0  0  0  0  0
   29.5300   32.4210   33.7290 H   0  0  0  0  0  0  0  0  0  0  0  0
  1  2  1  0  0  0  0
  1  5  1  0  0  0  0
  3  1  1  0  0  0  0
  4 10  1  0  0  0  0
  4  9  1  0  0  0  0
  5  4  2  0  0  0  0
  6  5  1  0  0  0  0
  6  7  2  0  0  0  0
  7  8  1  0  0  0  0
  8  9  2  0  0  0  0
  8 12  1  0  0  0  0
 11  6  1  0  0  0  0
 12 13  2  0  0  0  0
 12 22  1  0  0  0  0
 13 15  1  0  0  0  0
 14 13  1  0  0  0  0
 15 16  2  0  0  0  0
 16 17  1  0  0  0  0
 17 18  1  0  0  0  0
 18 19  2  0  0  0  0
 20 19  1  0  0  0  0
 21 20  2  0  0  0  0
 22 21  1  0  0  0  0
 22 17  2  0  0  0  0
 23 25  1  0  0  0  0
 23 27  1  0  0  0  0
 23  1  1  0  0  0  0
 24 23  1  0  0  0  0
 26 31  2  0  0  0  0
 26 27  1  0  0  0  0
 27 28  2  0  0  0  0
 28 29  1  0  0  0  0
 28 32  1  0  0  0  0
 29 33  1  0  0  0  0
 30 34  1  0  0  0  0
 30 29  2  0  0  0  0
 31 30  1  0  0  0  0
 35 31  1  0  0  0  0
 36 26  1  0  0  0  0
 37 36  2  0  0  0  0
 38 36  2  0  0  0  0
 39 36  1  0  0  0  0
M  END
>  <minimizedAffinity>
-6.26762342

$$$$

 OpenBabel03242518033D

 39 42  0  0  0  0  0  0  0  0999 V2000
   37.5370   33.4320   39.6220 C   0  0  0  0  0  0  0  0  0  0  0  0
   36.6720   34.1110   39.6070 H   0  0  0  0  0  0  0  0  0  0  0  0
   38.0530   33.6340   38.6350 H   0  0  0  0  0  0  0  0  0  0  0  0
   37.6000   31.2040   38.5400 C   0  0  0  0  0  0  0  0  0  0  0  0
   37.2090   32.0170   39.6150 C   0  0  0  0  0  0  0  0  0  0  0  0
   36.5120   31.3780   40.6240 C   0  0  0  0  0  0  0  0  0  0  0  0
   36.2550   30.0630   40.5290 N   0  0  0  0  0  0  0  0  0  0  0  0
   36.6260   29.3030   39.5140 C   0  0  0  0  0  0  0  0  0  0  0  0
   37.2900   29.9010   38.5470 N   0  0  0  0  0  0  0  0  0  0  0  0
   38.1590   31.6300   37.6880 H   0  0  0  0  0  0  0  0  0  0  0  0
   36.1750   31.9240   41.4850 H   0  0  0  0  0  0  0  0  0  0  0  0
   36.4310   27.8800   39.2560 C   0  0  0  0  0  0  0  0  0  0  0  0
   35.9670   27.3720   38.0420 C   0  0  0  0  0  0  0  0  0  0  0  0
   35.7370   28.0910   37.2380 H   0  0  0  0  0  0  0  0  0  0  0  0
   35.7740   26.0460   37.7730 C   0  0  0  0  0  3  0  0  0  0  0  0
   36.0450   25.1090   38.7410 C   0  0  0  0  0  3  0  0  0  0  0  0
   36.5070   25.5350   39.9660 C   0  0  0  0  0  0  0  0  0  0  0  0
   36.7570   24.5590   40.8820 C   0  0  0  0  0  3  0  0  0  0  0  0
   37.2200   24.8960   42.1280 C   0  0  0  0  0  3  0  0  0  0  0  0
   37.4140   26.2520   42.3950 C   0  0  0  0  0  3  0  0  0  0  0  0
   37.1400   27.1810   41.4210 C   0  0  0  0  0  3  0  0  0  0  0  0
   36.6760   26.8780   40.1640 C   0  0  0  0  0  0  0  0  0  0  0  0
   38.5030   33.6820   40.7630 C   0  0  0  0  0  0  0  0  0  0  0  0
   38.2480   32.9930   41.5810 H   0  0  0  0  0  0  0  0  0  0  0  0
   38.3460   34.7090   41.2090 H   0  0  0  0  0  0  0  0  0  0  0  0
   40.7120   32.6060   40.8170 C   0  0  0  0  0  0  0  0  0  0  0  0
   39.9210   33.6510   40.3760 C   0  0  0  0  0  0  0  0  0  0  0  0
   40.3930   34.6700   39.5920 C   0  0  0  0  0  0  0  0  0  0  0  0
   41.7170   34.6480   39.2280 C   0  0  0  0  0  0  0  0  0  0  0  0
   42.5740   33.6630   39.6110 C   0  0  0  0  0  0  0  0  0  0  0  0
   42.0330   32.6580   40.4060 C   0  0  0  0  0  0  0  0  0  0  0  0
   39.8600   35.5130   39.2070 H   0  0  0  0  0  0  0  0  0  0  0  0
   42.1800   35.4240   38.6010 H   0  0  0  0  0  0  0  0  0  0  0  0
   43.6210   33.6040   39.3480 H   0  0  0  0  0  0  0  0  0  0  0  0
   42.6990   31.8550   40.7270 H   0  0  0  0  0  0  0  0  0  0  0  0
   40.1470   31.2910   41.8200 S   0  0  0  0  0  0  0  0  0  0  0  0
   41.1800   30.8730   42.8440 O   0  0  0  0  0  0  0  0  0  0  0  0
   39.9740   30.0670   40.9480 O   0  0  0  0  0  0  0  0  0  0  0  0
   38.9390   31.5140   42.3880 H   0  0  0  0  0  0  0  0  0  0  0  0
  1 23  1  0  0  0  0
  2  1  1  0  0  0  0
  3  1  1  0  0  0  0
  4  9  2  0  0  0  0
  4  5  1  0  0  0  0
  5  1  1  0  0  0  0
  5  6  2  0  0  0  0
  6 11  1  0  0  0  0
  7  6  1  0  0  0  0
  8  7  2  0  0  0  0
  9  8  1  0  0  0  0
 10  4  1  0  0  0  0
 12  8  1  0  0  0  0
 12 22  1  0  0  0  0
 13 12  2  0  0  0  0
 14 13  1  0  0  0  0
 15 13  1  0  0  0  0
 15 16  2  0  0  0  0
 16 17  1  0  0  0  0
 17 22  2  0  0  0  0
 17 18  1  0  0  0  0
 18 19  2  0  0  0  0
 19 20  1  0  0  0  0
 21 20  2  0  0  0  0
 22 21  1  0  0  0  0
 23 25  1  0  0  0  0
 23 24  1  0  0  0  0
 26 36  1  0  0  0  0
 27 23  1  0  0  0  0
 27 26  2  0  0  0  0
 28 27  1  0  0  0  0
 29 28  2  0  0  0  0
 29 30  1  0  0  0  0
 30 31  2  0  0  0  0
 31 35  1  0  0  0  0
 31 26  1  0  0  0  0
 32 28  1  0  0  0  0
 33 29  1  0  0  0  0
 34 30  1  0  0  0  0
 36 39  1  0  0  0  0
 36 37  2  0  0  0  0
 38 36  2  0  0  0  0
M  END
>  <minimizedAffinity>
-6.17950726

$$$$

 OpenBabel03242518033D

 39 42  0  0  0  0  0  0  0  0999 V2000
   37.5110   28.7380   42.7600 C   0  0  0  0  0  0  0  0  0  0  0  0
   37.0900   29.4960   43.4360 H   0  0  0  0  0  0  0  0  0  0  0  0
   38.6070   29.0170   42.6930 H   0  0  0  0  0  0  0  0  0  0  0  0
   37.8970   28.8830   40.3170 C   0  0  0  0  0  0  0  0  0  0  0  0
   37.0090   28.7810   41.3980 C   0  0  0  0  0  0  0  0  0  0  0  0
   35.6670   28.7270   41.0650 C   0  0  0  0  0  0  0  0  0  0  0  0
   35.2970   28.7730   39.7750 N   0  0  0  0  0  0  0  0  0  0  0  0
   36.1380   28.8690   38.7610 C   0  0  0  0  0  0  0  0  0  0  0  0
   37.4190   28.9210   39.0660 N   0  0  0  0  0  0  0  0  0  0  0  0
   38.9870   28.9330   40.4880 H   0  0  0  0  0  0  0  0  0  0  0  0
   34.9180   28.6480   41.8310 H   0  0  0  0  0  0  0  0  0  0  0  0
   35.9080   28.9310   37.3220 C   0  0  0  0  0  0  0  0  0  0  0  0
   36.9300   28.8860   36.3730 C   0  0  0  0  0  0  0  0  0  0  0  0
   37.9670   28.7990   36.7390 H   0  0  0  0  0  0  0  0  0  0  0  0
   36.7430   28.9440   35.0210 C   0  0  0  0  0  3  0  0  0  0  0  0
   35.4710   29.0530   34.5130 C   0  0  0  0  0  3  0  0  0  0  0  0
   34.4100   29.1020   35.3890 C   0  0  0  0  0  0  0  0  0  0  0  0
   33.1750   29.2110   34.8250 C   0  0  0  0  0  3  0  0  0  0  0  0
   32.0630   29.2670   35.6250 C   0  0  0  0  0  3  0  0  0  0  0  0
   32.2610   29.2080   37.0050 C   0  0  0  0  0  3  0  0  0  0  0  0
   33.5380   29.0990   37.5020 C   0  0  0  0  0  3  0  0  0  0  0  0
   34.6720   29.0400   36.7300 C   0  0  0  0  0  0  0  0  0  0  0  0
   37.3780   27.3140   43.2640 C   0  0  0  0  0  0  0  0  0  0  0  0
   36.5080   26.8590   42.7680 H   0  0  0  0  0  0  0  0  0  0  0  0
   37.1100   27.2960   44.3610 H   0  0  0  0  0  0  0  0  0  0  0  0
   38.5900   25.3490   42.4210 C   0  0  0  0  0  0  0  0  0  0  0  0
   38.6090   26.5160   43.1630 C   0  0  0  0  0  0  0  0  0  0  0  0
   39.7220   26.9730   43.8160 C   0  0  0  0  0  0  0  0  0  0  0  0
   40.8750   26.2320   43.7270 C   0  0  0  0  0  0  0  0  0  0  0  0
   40.9570   25.0710   43.0210 C   0  0  0  0  0  0  0  0  0  0  0  0
   39.7920   24.6630   42.3820 C   0  0  0  0  0  0  0  0  0  0  0  0
   39.8300   27.8570   44.4080 H   0  0  0  0  0  0  0  0  0  0  0  0
   41.8150   26.5230   44.2190 H   0  0  0  0  0  0  0  0  0  0  0  0
   41.8420   24.4570   42.9230 H   0  0  0  0  0  0  0  0  0  0  0  0
   39.8290   23.7350   41.8080 H   0  0  0  0  0  0  0  0  0  0  0  0
   37.1900   24.7340   41.5760 S   0  0  0  0  0  0  0  0  0  0  0  0
   37.3640   23.2880   41.1660 O   0  0  0  0  0  0  0  0  0  0  0  0
   37.0580   25.4780   40.2660 O   0  0  0  0  0  0  0  0  0  0  0  0
   36.0220   24.9320   42.2330 H   0  0  0  0  0  0  0  0  0  0  0  0
  1 23  1  0  0  0  0
  1  2  1  0  0  0  0
  3  1  1  0  0  0  0
  4 10  1  0  0  0  0
  4  5  1  0  0  0  0
  5  1  1  0  0  0  0
  6  5  2  0  0  0  0
  6 11  1  0  0  0  0
  7  6  1  0  0  0  0
  8  9  1  0  0  0  0
  8  7  2  0  0  0  0
  9  4  2  0  0  0  0
 12  8  1  0  0  0  0
 13 14  1  0  0  0  0
 13 12  2  0  0  0  0
 15 13  1  0  0  0  0
 16 15  2  0  0  0  0
 16 17  1  0  0  0  0
 17 22  1  0  0  0  0
 18 17  2  0  0  0  0
 18 19  1  0  0  0  0
 19 20  2  0  0  0  0
 20 21  1  0  0  0  0
 22 12  1  0  0  0  0
 22 21  2  0  0  0  0
 23 25  1  0  0  0  0
 24 23  1  0  0  0  0
 26 27  1  0  0  0  0
 27 23  1  0  0  0  0
 27 28  2  0  0  0  0
 28 32  1  0  0  0  0
 29 28  1  0  0  0  0
 29 33  1  0  0  0  0
 30 29  2  0  0  0  0
 31 26  2  0  0  0  0
 31 30  1  0  0  0  0
 34 30  1  0  0  0  0
 35 31  1  0  0  0  0
 36 39  1  0  0  0  0
 36 26  1  0  0  0  0
 37 36  2  0  0  0  0
 38 36  2  0  0  0  0
M  END
>  <minimizedAffinity>
-6.09346104

$$$$

 OpenBabel03242518033D

 39 42  0  0  0  0  0  0  0  0999 V2000
   34.3280   29.2980   37.1250 C   0  0  0  0  0  0  0  0  0  0  0  0
   34.6850   29.1380   36.0970 H   0  0  0  0  0  0  0  0  0  0  0  0
   34.5690   30.3870   37.3250 H   0  0  0  0  0  0  0  0  0  0  0  0
   35.5740   27.2830   37.8470 C   0  0  0  0  0  0  0  0  0  0  0  0
   35.0330   28.5430   38.1450 C   0  0  0  0  0  0  0  0  0  0  0  0
   35.2230   28.9820   39.4430 C   0  0  0  0  0  0  0  0  0  0  0  0
   35.8890   28.2110   40.3180 N   0  0  0  0  0  0  0  0  0  0  0  0
   36.3960   27.0260   40.0320 C   0  0  0  0  0  0  0  0  0  0  0  0
   36.2220   26.5970   38.7990 N   0  0  0  0  0  0  0  0  0  0  0  0
   35.4700   26.8510   36.8360 H   0  0  0  0  0  0  0  0  0  0  0  0
   34.8410   29.9360   39.7570 H   0  0  0  0  0  0  0  0  0  0  0  0
   37.1360   26.0720   40.8510 C   0  0  0  0  0  0  0  0  0  0  0  0
   36.9680   24.6900   40.7700 C   0  0  0  0  0  0  0  0  0  0  0  0
   36.2330   24.3040   40.0430 H   0  0  0  0  0  0  0  0  0  0  0  0
   37.6460   23.7750   41.5250 C   0  0  0  0  0  3  0  0  0  0  0  0
   38.5720   24.2040   42.4450 C   0  0  0  0  0  3  0  0  0  0  0  0
   38.7930   25.5550   42.5820 C   0  0  0  0  0  0  0  0  0  0  0  0
   39.7220   25.9170   43.5100 C   0  0  0  0  0  3  0  0  0  0  0  0
   40.0040   27.2440   43.7110 C   0  0  0  0  0  3  0  0  0  0  0  0
   39.3080   28.1720   42.9370 C   0  0  0  0  0  3  0  0  0  0  0  0
   38.3830   27.7330   42.0190 C   0  0  0  0  0  3  0  0  0  0  0  0
   38.0780   26.4130   41.7930 C   0  0  0  0  0  0  0  0  0  0  0  0
   32.8420   29.0630   37.3110 C   0  0  0  0  0  0  0  0  0  0  0  0
   32.5930   29.2810   38.3600 H   0  0  0  0  0  0  0  0  0  0  0  0
   32.5870   27.9690   37.1900 H   0  0  0  0  0  0  0  0  0  0  0  0
   30.7840   30.2880   36.7600 C   0  0  0  0  0  0  0  0  0  0  0  0
   31.9900   29.7600   36.3370 C   0  0  0  0  0  0  0  0  0  0  0  0
   32.4370   29.8520   35.0460 C   0  0  0  0  0  0  0  0  0  0  0  0
   31.6460   30.5010   34.1300 C   0  0  0  0  0  0  0  0  0  0  0  0
   30.4440   31.0540   34.4500 C   0  0  0  0  0  0  0  0  0  0  0  0
   30.0480   30.9260   35.7760 C   0  0  0  0  0  0  0  0  0  0  0  0
   33.3490   29.4780   34.6300 H   0  0  0  0  0  0  0  0  0  0  0  0
   31.9260   30.6220   33.0730 H   0  0  0  0  0  0  0  0  0  0  0  0
   29.7890   31.5740   33.7640 H   0  0  0  0  0  0  0  0  0  0  0  0
   29.0870   31.3610   36.0610 H   0  0  0  0  0  0  0  0  0  0  0  0
   30.1790   30.1890   38.3970 S   0  0  0  0  0  0  0  0  0  0  0  0
   29.0990   29.1390   38.5400 O   0  0  0  0  0  0  0  0  0  0  0  0
   29.4790   31.4880   38.7260 O   0  0  0  0  0  0  0  0  0  0  0  0
   31.1480   30.0440   39.3310 H   0  0  0  0  0  0  0  0  0  0  0  0
  1 23  1  0  0  0  0
  1  3  1  0  0  0  0
  1  5  1  0  0  0  0
  2  1  1  0  0  0  0
  4  5  2  0  0  0  0
  4  9  1  0  0  0  0
  5  6  1  0  0  0  0
  6 11  1  0  0  0  0
  6  7  2  0  0  0  0
  8  7  1  0  0  0  0
  8 12  1  0  0  0  0
  9  8  2  0  0  0  0
 10  4  1  0  0  0  0
 12 22  1  0  0  0  0
 13 12  2  0  0  0  0
 13 15  1  0  0  0  0
 14 13  1  0  0  0  0
 15 16  2  0  0  0  0
 16 17  1  0  0  0  0
 17 18  1  0  0  0  0
 18 19  2  0  0  0  0
 20 19  1  0  0  0  0
 21 20  2  0  0  0  0
 22 21  1  0  0  0  0
 22 17  2  0  0  0  0
 23 24  1  0  0  0  0
 25 23  1  0  0  0  0
 26 36  1  0  0  0  0
 27 26  1  0  0  0  0
 27 23  1  0  0  0  0
 28 27  2  0  0  0  0
 29 30  2  0  0  0  0
 29 28  1  0  0  0  0
 30 31  1  0  0  0  0
 31 35  1  0  0  0  0
 31 26  2  0  0  0  0
 32 28  1  0  0  0  0
 33 29  1  0  0  0  0
 34 30  1  0  0  0  0
 36 37  2  0  0  0  0
 36 38  2  0  0  0  0
 36 39  1  0  0  0  0
M  END
>  <minimizedAffinity>
-6.09342957

$$$$
