
 OpenBabel03242515233D

 23 25  0  0  0  0  0  0  0  0999 V2000
   43.9940   35.6870   41.5230 C   0  0  0  0  0  0  0  0  0  0  0  0
   44.8240   35.4600   40.7950 H   0  0  0  0  0  0  0  0  0  0  0  0
   43.9280   36.7620   41.5910 H   0  0  0  0  0  0  0  0  0  0  0  0
   42.7110   35.0950   41.1300 C   0  0  0  0  0  0  0  0  0  0  0  0
   41.5250   35.4070   41.7630 C   0  0  0  0  0  0  0  0  0  0  0  0
   41.5220   36.1440   42.5780 H   0  0  0  0  0  0  0  0  0  0  0  0
   40.2970   34.8400   41.4310 C   0  0  0  0  0  3  0  0  0  0  0  0
   40.2500   33.8980   40.3970 C   0  0  0  0  0  3  0  0  0  0  0  0
   41.4050   33.5480   39.7300 C   0  0  0  0  0  0  0  0  0  0  0  0
   41.3570   32.6180   38.6940 C   0  0  0  0  0  3  0  0  0  0  0  0
   42.5360   32.3190   38.0630 C   0  0  0  0  0  3  0  0  0  0  0  0
   43.7680   32.8720   38.3790 C   0  0  0  0  0  3  0  0  0  0  0  0
   43.7580   33.7980   39.4250 C   0  0  0  0  0  3  0  0  0  0  0  0
   42.5960   34.1560   40.1180 C   0  0  0  0  0  0  0  0  0  0  0  0
   44.3900   35.9210   43.9070 C   0  0  0  0  0  0  0  0  0  0  0  0
   44.4550   35.0540   42.7940 C   0  0  0  0  0  0  0  0  0  0  0  0
   44.9190   33.7720   42.9880 C   0  0  0  0  0  0  0  0  0  0  0  0
   45.2810   33.4290   44.2380 N   0  0  0  0  0  0  0  0  0  0  0  0
   45.2190   34.2510   45.2940 C   0  0  0  0  0  0  0  0  0  0  0  0
   44.7660   35.5270   45.1440 N   0  0  0  0  0  0  0  0  0  0  0  0
   44.0310   36.9540   43.8260 H   0  0  0  0  0  0  0  0  0  0  0  0
   44.9430   33.1620   42.1070 H   0  0  0  0  0  0  0  0  0  0  0  0
   45.5170   33.9540   46.2890 H   0  0  0  0  0  0  0  0  0  0  0  0
  1  3  1  0  0  0  0
  1 16  1  0  0  0  0
  2  1  1  0  0  0  0
  4  1  1  0  0  0  0
  4  5  1  0  0  0  0
  5  6  1  0  0  0  0
  7  5  2  0  0  0  0
  8  7  1  0  0  0  0
  9 14  1  0  0  0  0
  9  8  2  0  0  0  0
 10  9  1  0  0  0  0
 11 12  1  0  0  0  0
 11 10  2  0  0  0  0
 12 13  2  0  0  0  0
 13 14  1  0  0  0  0
 14  4  2  0  0  0  0
 15 20  1  0  0  0  0
 16 17  1  0  0  0  0
 16 15  2  0  0  0  0
 17 18  2  0  0  0  0
 18 19  1  0  0  0  0
 19 23  1  0  0  0  0
 20 19  2  0  0  0  0
 21 15  1  0  0  0  0
 22 17  1  0  0  0  0
M  END
>  <minimizedAffinity>
-4.83835888

>  <minimizedRMSD>
2.33466411

$$$$
