
 OpenBabel03252504153D

 37 40  0  0  0  0  0  0  0  0999 V2000
   48.2550   30.8070   45.9440 F   0  0  0  0  0  0  0  0  0  0  0  0
   47.3540   31.2810   46.8670 C   0  0  0  0  0  0  0  0  0  0  0  0
   46.3100   32.0890   46.4470 C   0  0  0  0  0  0  0  0  0  0  0  0
   45.4380   32.5320   47.4310 C   0  0  0  0  0  0  0  0  0  0  0  0
   45.6130   32.1790   48.7550 C   0  0  0  0  0  0  0  0  0  0  0  0
   46.6810   31.3660   49.1150 C   0  0  0  0  0  0  0  0  0  0  0  0
   47.5780   30.8980   48.1730 C   0  0  0  0  0  0  0  0  0  0  0  0
   44.6000   33.1650   47.1750 H   0  0  0  0  0  0  0  0  0  0  0  0
   44.9060   32.5510   49.4840 H   0  0  0  0  0  0  0  0  0  0  0  0
   46.8200   31.0880   50.1530 H   0  0  0  0  0  0  0  0  0  0  0  0
   48.7160   30.0360   48.5190 C   0  0  0  0  0  0  0  0  0  0  0  0
   48.5700   28.7090   48.1420 C   0  0  0  0  0  0  0  0  0  0  0  0
   47.6900   28.3040   47.6260 H   0  0  0  0  0  0  0  0  0  0  0  0
   49.5860   27.7990   48.4180 C   0  0  0  0  0  0  0  0  0  0  0  0
   50.7360   28.2210   49.0660 C   0  0  0  0  0  0  0  0  0  0  0  0
   50.8660   29.5520   49.4370 C   0  0  0  0  0  0  0  0  0  0  0  0
   51.9730   30.0330   50.0780 C   0  0  0  0  0  0  0  0  0  0  0  0
   52.0860   31.3540   50.4380 C   0  0  0  0  0  0  0  0  0  0  0  0
   51.0560   32.2480   50.1510 C   0  0  0  0  0  0  0  0  0  0  0  0
   49.9230   31.7970   49.5040 C   0  0  0  0  0  0  0  0  0  0  0  0
   49.8600   30.4610   49.1650 C   0  0  0  0  0  0  0  0  0  0  0  0
   46.8150   33.8050   43.2700 C   0  0  0  0  0  0  0  0  0  0  0  0
   45.9020   33.2160   42.4170 C   0  0  0  0  0  0  0  0  0  0  0  0
   45.0820   32.1880   42.9530 C   0  0  0  0  0  0  0  0  0  0  0  0
   45.2300   31.8420   44.2520 N   0  0  0  0  0  0  0  0  0  0  0  0
   46.1380   32.4530   45.0370 C   0  0  0  0  0  0  0  0  0  0  0  0
   46.9270   33.4320   44.5450 N   0  0  0  0  0  0  0  0  0  0  0  0
   44.3620   31.7120   42.3110 H   0  0  0  0  0  0  0  0  0  0  0  0
   45.7980   33.6500   41.0040 C   0  0  0  0  0  0  0  0  0  0  0  0
   45.8700   35.0370   40.9470 F   0  0  0  0  0  0  0  0  0  0  0  0
   46.9150   33.1660   40.3380 F   0  0  0  0  0  0  0  0  0  0  0  0
   44.6920   33.2410   40.3510 F   0  0  0  0  0  0  0  0  0  0  0  0
   47.6030   34.7930   42.7490 O   0  0  0  0  0  0  0  0  0  0  0  0
   48.9130   34.6650   42.2600 C   0  0  0  0  0  0  0  0  0  0  0  0
   49.7410   35.3320   43.1600 F   0  0  0  0  0  0  0  0  0  0  0  0
   49.2340   33.3370   42.1180 F   0  0  0  0  0  0  0  0  0  0  0  0
   49.0430   35.3630   41.0820 F   0  0  0  0  0  0  0  0  0  0  0  0
  1  2  1  0  0  0  0
  2  7  1  0  0  0  0
  3  2  2  0  0  0  0
  3  4  1  0  0  0  0
  4  5  2  0  0  0  0
  5  6  1  0  0  0  0
  5  9  1  0  0  0  0
  6 10  1  0  0  0  0
  7 11  1  0  0  0  0
  7  6  2  0  0  0  0
  8  4  1  0  0  0  0
 11 21  1  0  0  0  0
 12 14  1  0  0  0  0
 12 11  2  0  0  0  0
 13 12  1  0  0  0  0
 14 15  2  0  0  0  0
 15 16  1  0  0  0  0
 16 17  1  0  0  0  0
 17 18  2  0  0  0  0
 19 18  1  0  0  0  0
 20 19  2  0  0  0  0
 21 16  2  0  0  0  0
 21 20  1  0  0  0  0
 22 27  1  0  0  0  0
 23 24  1  0  0  0  0
 23 22  2  0  0  0  0
 24 25  2  0  0  0  0
 25 26  1  0  0  0  0
 26  3  1  0  0  0  0
 27 26  2  0  0  0  0
 28 24  1  0  0  0  0
 29 23  1  0  0  0  0
 30 29  1  0  0  0  0
 31 29  1  0  0  0  0
 32 29  1  0  0  0  0
 33 22  1  0  0  0  0
 34 33  1  0  0  0  0
 34 35  1  0  0  0  0
 36 34  1  0  0  0  0
 37 34  1  0  0  0  0
M  END
>  <minimizedAffinity>
-6.37112808

>  <minimizedRMSD>
2.34730029

$$$$
