
 OpenBabel03252506373D

 46 50  0  0  1  0  0  0  0  0999 V2000
   44.5230   35.5090   45.1300 C   0  0  0  0  0  0  0  0  0  0  0  0
   45.1600   35.4890   43.8810 C   0  0  0  0  0  0  0  0  0  0  0  0
   46.0650   34.5200   43.6150 C   0  0  0  0  0  0  0  0  0  0  0  0
   46.3030   33.6100   44.5930 N   0  0  0  0  0  0  0  0  0  0  0  0
   45.6990   33.6320   45.7710 C   0  0  0  0  0  0  0  0  0  0  0  0
   44.8040   34.5750   46.0610 N   0  0  0  0  0  0  0  0  0  0  0  0
   46.0310   32.6180   46.7360 N   0  0  0  0  0  0  0  0  0  0  0  0
   45.3050   32.3800   47.9330 C   0  0  0  0  0  0  0  0  0  0  0  0
   46.3930   32.0250   48.9300 C   0  0  0  0  0  0  0  0  0  0  0  0
   47.6600   31.9060   48.1430 C   0  0  0  0  0  0  0  0  0  0  0  0
   47.1420   31.6950   46.7220 C   0  0  1  0  0  0  0  0  0  0  0  0
   43.7880   36.2600   45.4080 H   0  0  0  0  0  0  0  0  0  0  0  0
   46.5570   34.4900   42.6740 H   0  0  0  0  0  0  0  0  0  0  0  0
   44.9660   33.4060   48.2940 H   0  0  0  0  0  0  0  0  0  0  0  0
   44.4640   31.7690   48.0220 H   0  0  0  0  0  0  0  0  0  0  0  0
   46.4370   32.6620   49.8100 H   0  0  0  0  0  0  0  0  0  0  0  0
   46.1460   30.9970   49.3090 H   0  0  0  0  0  0  0  0  0  0  0  0
   48.2950   31.0570   48.4690 H   0  0  0  0  0  0  0  0  0  0  0  0
   48.1980   32.8770   48.1670 H   0  0  0  0  0  0  0  0  0  0  0  0
   47.9400   31.9730   46.0110 H   0  0  0  0  0  0  0  0  0  0  0  0
   44.7950   36.5270   42.9550 N   0  0  0  0  0  0  0  0  0  0  0  0
   43.9840   36.1220   42.4430 H   0  0  0  0  0  0  0  0  0  0  0  0
   45.2960   37.4460   42.8880 H   0  0  0  0  0  0  0  0  0  0  0  0
   46.6080   30.0080   46.5480 S   0  0  0  0  0  0  0  0  0  0  0  0
   45.5120   30.2610   43.4070 O   0  0  0  0  0  0  0  0  0  0  0  0
   44.8880   29.8420   44.3950 C   0  0  0  0  0  0  0  0  0  0  0  0
   45.0250   29.7430   45.8680 C   0  0  1  0  0  0  0  0  0  0  0  0
   44.4160   28.3910   46.1470 C   0  0  0  0  0  0  0  0  0  0  0  0
   43.0890   28.6060   45.4110 C   0  0  0  0  0  0  0  0  0  0  0  0
   43.6000   29.2290   44.1960 N   0  0  0  0  0  0  0  0  0  0  0  0
   44.1860   30.4250   46.1830 H   0  0  0  0  0  0  0  0  0  0  0  0
   44.2020   28.2710   47.2230 H   0  0  0  0  0  0  0  0  0  0  0  0
   44.9620   27.5600   45.6970 H   0  0  0  0  0  0  0  0  0  0  0  0
   42.4090   29.2430   45.9850 H   0  0  0  0  0  0  0  0  0  0  0  0
   42.6770   27.5950   45.2020 H   0  0  0  0  0  0  0  0  0  0  0  0
   42.7760   29.1460   43.0170 C   0  0  0  0  0  0  0  0  0  0  0  0
   41.8480   30.1770   42.9260 C   0  0  0  0  0  0  0  0  0  0  0  0
   41.7310   30.9720   43.6460 H   0  0  0  0  0  0  0  0  0  0  0  0
   40.9600   30.2650   41.8520 C   0  0  0  0  0  3  0  0  0  0  0  0
   41.0510   29.2750   40.8850 C   0  0  0  0  0  3  0  0  0  0  0  0
   41.9680   28.2590   40.9780 C   0  0  0  0  0  0  0  0  0  0  0  0
   42.0840   27.2570   40.0290 C   0  0  0  0  0  3  0  0  0  0  0  0
   43.0120   26.2670   40.1660 C   0  0  0  0  0  3  0  0  0  0  0  0
   43.8880   26.2060   41.2520 C   0  0  0  0  0  3  0  0  0  0  0  0
   43.7950   27.2010   42.2240 C   0  0  0  0  0  3  0  0  0  0  0  0
   42.8560   28.1730   42.0520 C   0  0  0  0  0  0  0  0  0  0  0  0
  1 12  1  0  0  0  0
  1  6  1  0  0  0  0
  2  1  2  0  0  0  0
  3  2  1  0  0  0  0
  3  4  2  0  0  0  0
  4  5  1  0  0  0  0
  5  6  2  0  0  0  0
  5  7  1  0  0  0  0
  7  8  1  0  0  0  0
  8 15  1  0  0  0  0
  8 14  1  0  0  0  0
  8  9  1  0  0  0  0
  9 17  1  0  0  0  0
  9 16  1  0  0  0  0
 10 19  1  0  0  0  0
 10 18  1  0  0  0  0
 10  9  1  0  0  0  0
 11 20  1  6  0  0  0
 11  7  1  0  0  0  0
 11 10  1  0  0  0  0
 13  3  1  0  0  0  0
 21  2  1  0  0  0  0
 22 21  1  0  0  0  0
 23 21  1  0  0  0  0
 24 11  1  0  0  0  0
 25 26  2  0  0  0  0
 26 27  1  0  0  0  0
 27 28  1  0  0  0  0
 27 31  1  1  0  0  0
 27 24  1  0  0  0  0
 28 32  1  0  0  0  0
 29 34  1  0  0  0  0
 29 28  1  0  0  0  0
 30 26  1  0  0  0  0
 30 29  1  0  0  0  0
 33 28  1  0  0  0  0
 35 29  1  0  0  0  0
 36 30  1  0  0  0  0
 37 36  1  0  0  0  0
 37 38  1  0  0  0  0
 39 37  2  0  0  0  0
 40 41  2  0  0  0  0
 40 39  1  0  0  0  0
 41 46  1  0  0  0  0
 42 43  2  0  0  0  0
 42 41  1  0  0  0  0
 43 44  1  0  0  0  0
 44 45  2  0  0  0  0
 46 45  1  0  0  0  0
 46 36  2  0  0  0  0
M  END
>  <minimizedAffinity>
-5.42053032

>  <minimizedRMSD>
0.78217566

$$$$
