
 OpenBabel03252505263D

 45 49  0  0  1  0  0  0  0  0999 V2000
   40.0280   30.8460   38.9580 F   0  0  0  0  0  0  0  0  0  0  0  0
   39.8150   32.0970   39.4890 C   0  0  0  0  0  0  0  0  0  0  0  0
   38.7320   32.2680   40.3100 C   0  0  0  0  0  0  0  0  0  0  0  0
   38.5330   33.5070   40.8280 C   0  0  0  0  0  0  0  0  0  0  0  0
   39.4070   34.5350   40.5200 C   0  0  0  0  0  0  0  0  0  0  0  0
   40.4830   34.3650   39.7030 C   0  0  0  0  0  0  0  0  0  0  0  0
   40.6820   33.0940   39.1750 C   0  0  0  0  0  0  0  0  0  0  0  0
   37.6830   33.6860   41.4860 H   0  0  0  0  0  0  0  0  0  0  0  0
   39.2410   35.5210   40.9360 H   0  0  0  0  0  0  0  0  0  0  0  0
   41.1590   35.1800   39.4710 H   0  0  0  0  0  0  0  0  0  0  0  0
   41.8190   32.9470   38.3220 N   0  0  0  0  0  0  0  0  0  0  0  0
   42.4450   33.8920   37.4210 C   0  0  0  0  0  0  0  0  0  0  0  0
   43.9330   33.7770   37.8250 C   0  0  0  0  0  0  0  0  0  0  0  0
   44.0270   32.4160   38.4600 C   0  0  0  0  0  0  0  0  0  0  0  0
   42.6910   31.7970   38.1040 C   0  0  2  0  0  0  0  0  0  0  0  0
   42.1550   34.9440   37.6680 H   0  0  0  0  0  0  0  0  0  0  0  0
   42.3040   33.6690   36.3630 H   0  0  0  0  0  0  0  0  0  0  0  0
   44.5040   33.6910   36.8570 H   0  0  0  0  0  0  0  0  0  0  0  0
   44.2560   34.6080   38.4510 H   0  0  0  0  0  0  0  0  0  0  0  0
   44.8510   31.7990   38.0870 H   0  0  0  0  0  0  0  0  0  0  0  0
   44.0770   32.5180   39.5660 H   0  0  0  0  0  0  0  0  0  0  0  0
   42.4480   31.0170   38.8600 H   0  0  0  0  0  0  0  0  0  0  0  0
   42.6150   31.2300   36.7340 C   0  0  0  0  0  0  0  0  0  0  0  0
   43.6050   31.3260   36.2320 H   0  0  0  0  0  0  0  0  0  0  0  0
   41.8270   31.6720   36.0970 H   0  0  0  0  0  0  0  0  0  0  0  0
   42.4080   30.1280   36.7760 H   0  0  0  0  0  0  0  0  0  0  0  0
   35.7300   30.1650   40.5430 C   0  0  0  0  0  0  0  0  0  0  0  0
   36.2130   29.0200   41.1810 C   0  0  0  0  0  0  0  0  0  0  0  0
   37.5570   28.9840   41.5260 C   0  0  0  0  0  0  0  0  0  0  0  0
   38.2840   30.0740   41.2020 N   0  0  0  0  0  0  0  0  0  0  0  0
   37.8460   31.1540   40.6030 C   0  0  0  0  0  0  0  0  0  0  0  0
   36.5650   31.1830   40.2800 N   0  0  0  0  0  0  0  0  0  0  0  0
   34.6830   30.2060   40.2720 H   0  0  0  0  0  0  0  0  0  0  0  0
   35.5400   28.2280   41.3310 H   0  0  0  0  0  0  0  0  0  0  0  0
   38.2980   27.8940   42.1200 C   0  0  0  0  0  0  0  0  0  0  0  0
   39.3210   28.2400   43.0170 C   0  0  0  0  0  0  0  0  0  0  0  0
   39.5330   29.3020   43.2280 H   0  0  0  0  0  0  0  0  0  0  0  0
   40.1200   27.3440   43.6860 C   0  0  0  0  0  3  0  0  0  0  0  0
   39.9310   25.9970   43.4880 C   0  0  0  0  0  3  0  0  0  0  0  0
   38.9420   25.5830   42.6250 C   0  0  0  0  0  0  0  0  0  0  0  0
   38.6930   24.2420   42.4240 C   0  0  0  0  0  3  0  0  0  0  0  0
   37.6720   23.7800   41.5860 C   0  0  0  0  0  3  0  0  0  0  0  0
   36.9220   24.7690   40.9670 C   0  0  0  0  0  3  0  0  0  0  0  0
   37.1870   26.0940   41.1800 C   0  0  0  0  0  3  0  0  0  0  0  0
   38.1900   26.5400   41.9980 C   0  0  0  0  0  0  0  0  0  0  0  0
  1  2  1  0  0  0  0
  2  3  1  0  0  0  0
  3 31  1  0  0  0  0
  3  4  2  0  0  0  0
  4  8  1  0  0  0  0
  5  4  1  0  0  0  0
  5  9  1  0  0  0  0
  6  5  2  0  0  0  0
  7  2  2  0  0  0  0
  7  6  1  0  0  0  0
 10  6  1  0  0  0  0
 11  7  1  0  0  0  0
 12 16  1  0  0  0  0
 12 13  1  0  0  0  0
 12 11  1  0  0  0  0
 13 19  1  0  0  0  0
 13 14  1  0  0  0  0
 14 21  1  0  0  0  0
 15 11  1  0  0  0  0
 15 14  1  0  0  0  0
 15 22  1  1  0  0  0
 17 12  1  0  0  0  0
 18 13  1  0  0  0  0
 20 14  1  0  0  0  0
 23 26  1  0  0  0  0
 23 15  1  0  0  0  0
 24 23  1  0  0  0  0
 25 23  1  0  0  0  0
 27 28  1  0  0  0  0
 28 34  1  0  0  0  0
 28 29  2  0  0  0  0
 29 35  1  0  0  0  0
 30 29  1  0  0  0  0
 31 30  2  0  0  0  0
 32 27  2  0  0  0  0
 32 31  1  0  0  0  0
 33 27  1  0  0  0  0
 35 36  1  0  0  0  0
 36 37  1  0  0  0  0
 36 38  2  0  0  0  0
 39 38  1  0  0  0  0
 40 39  2  0  0  0  0
 41 40  1  0  0  0  0
 42 41  2  0  0  0  0
 43 44  2  0  0  0  0
 43 42  1  0  0  0  0
 44 45  1  0  0  0  0
 45 35  2  0  0  0  0
 45 40  1  0  0  0  0
M  END
>  <minimizedAffinity>
-7.51182461

$$$$

 OpenBabel03252505263D

 45 49  0  0  1  0  0  0  0  0999 V2000
   35.7390   27.5030   40.1920 F   0  0  0  0  0  0  0  0  0  0  0  0
   36.4390   28.5930   39.7300 C   0  0  0  0  0  0  0  0  0  0  0  0
   36.0780   29.1210   38.5190 C   0  0  0  0  0  0  0  0  0  0  0  0
   36.7770   30.1970   38.0750 C   0  0  0  0  0  0  0  0  0  0  0  0
   37.8070   30.7170   38.8390 C   0  0  0  0  0  0  0  0  0  0  0  0
   38.1660   30.1930   40.0420 C   0  0  0  0  0  0  0  0  0  0  0  0
   37.4480   29.0910   40.4930 C   0  0  0  0  0  0  0  0  0  0  0  0
   36.5210   30.6470   37.1160 H   0  0  0  0  0  0  0  0  0  0  0  0
   38.3600   31.5760   38.4780 H   0  0  0  0  0  0  0  0  0  0  0  0
   38.9750   30.6120   40.6290 H   0  0  0  0  0  0  0  0  0  0  0  0
   37.8480   28.5630   41.7590 N   0  0  0  0  0  0  0  0  0  0  0  0
   37.7000   29.1090   43.0930 C   0  0  0  0  0  0  0  0  0  0  0  0
   37.0970   27.9090   43.8600 C   0  0  0  0  0  0  0  0  0  0  0  0
   37.5160   26.7150   43.0450 C   0  0  0  0  0  0  0  0  0  0  0  0
   38.5260   27.3130   42.0870 C   0  0  2  0  0  0  0  0  0  0  0  0
   36.9110   29.9020   43.1230 H   0  0  0  0  0  0  0  0  0  0  0  0
   38.6320   29.4420   43.5500 H   0  0  0  0  0  0  0  0  0  0  0  0
   37.6870   27.8340   44.8180 H   0  0  0  0  0  0  0  0  0  0  0  0
   36.0240   28.0150   44.0150 H   0  0  0  0  0  0  0  0  0  0  0  0
   37.9670   25.9050   43.6280 H   0  0  0  0  0  0  0  0  0  0  0  0
   36.6540   26.3420   42.4490 H   0  0  0  0  0  0  0  0  0  0  0  0
   38.5680   26.6790   41.1720 H   0  0  0  0  0  0  0  0  0  0  0  0
   39.8870   27.4920   42.6530 C   0  0  0  0  0  0  0  0  0  0  0  0
   39.9180   27.0920   43.6920 H   0  0  0  0  0  0  0  0  0  0  0  0
   40.2550   28.5340   42.6410 H   0  0  0  0  0  0  0  0  0  0  0  0
   40.6350   26.8850   42.0770 H   0  0  0  0  0  0  0  0  0  0  0  0
   33.9170   26.6770   36.8310 C   0  0  0  0  0  0  0  0  0  0  0  0
   32.9020   27.4830   36.3080 C   0  0  0  0  0  0  0  0  0  0  0  0
   32.9720   28.8510   36.5380 C   0  0  0  0  0  0  0  0  0  0  0  0
   34.0280   29.2790   37.2600 N   0  0  0  0  0  0  0  0  0  0  0  0
   34.9870   28.5370   37.7570 C   0  0  0  0  0  0  0  0  0  0  0  0
   34.9160   27.2360   37.5330 N   0  0  0  0  0  0  0  0  0  0  0  0
   33.8740   25.6100   36.6560 H   0  0  0  0  0  0  0  0  0  0  0  0
   32.1150   27.0060   35.8030 H   0  0  0  0  0  0  0  0  0  0  0  0
   32.0150   29.8690   36.1670 C   0  0  0  0  0  0  0  0  0  0  0  0
   32.1410   30.4150   34.8800 C   0  0  0  0  0  0  0  0  0  0  0  0
   32.9480   30.0710   34.2120 H   0  0  0  0  0  0  0  0  0  0  0  0
   31.3190   31.3800   34.3490 C   0  0  0  0  0  3  0  0  0  0  0  0
   30.2820   31.8710   35.1070 C   0  0  0  0  0  3  0  0  0  0  0  0
   30.0950   31.3800   36.3790 C   0  0  0  0  0  0  0  0  0  0  0  0
   29.0470   31.8160   37.1600 C   0  0  0  0  0  3  0  0  0  0  0  0
   28.7990   31.3140   38.4420 C   0  0  0  0  0  3  0  0  0  0  0  0
   29.6850   30.3380   38.8760 C   0  0  0  0  0  3  0  0  0  0  0  0
   30.7190   29.9200   38.0840 C   0  0  0  0  0  3  0  0  0  0  0  0
   30.9580   30.4180   36.8320 C   0  0  0  0  0  0  0  0  0  0  0  0
  2  1  1  0  0  0  0
  2  7  1  0  0  0  0
  3  2  2  0  0  0  0
  4  3  1  0  0  0  0
  4  5  2  0  0  0  0
  5  6  1  0  0  0  0
  6  7  2  0  0  0  0
  6 10  1  0  0  0  0
  7 11  1  0  0  0  0
  8  4  1  0  0  0  0
  9  5  1  0  0  0  0
 11 15  1  0  0  0  0
 11 12  1  0  0  0  0
 12 16  1  0  0  0  0
 12 17  1  0  0  0  0
 12 13  1  0  0  0  0
 13 19  1  0  0  0  0
 13 18  1  0  0  0  0
 14 20  1  0  0  0  0
 14 13  1  0  0  0  0
 15 22  1  6  0  0  0
 15 23  1  0  0  0  0
 15 14  1  0  0  0  0
 21 14  1  0  0  0  0
 23 24  1  0  0  0  0
 25 23  1  0  0  0  0
 26 23  1  0  0  0  0
 27 32  1  0  0  0  0
 28 29  1  0  0  0  0
 28 27  2  0  0  0  0
 29 30  2  0  0  0  0
 30 31  1  0  0  0  0
 31  3  1  0  0  0  0
 32 31  2  0  0  0  0
 33 27  1  0  0  0  0
 34 28  1  0  0  0  0
 35 29  1  0  0  0  0
 35 45  1  0  0  0  0
 36 35  2  0  0  0  0
 37 36  1  0  0  0  0
 38 36  1  0  0  0  0
 38 39  2  0  0  0  0
 39 40  1  0  0  0  0
 40 45  2  0  0  0  0
 40 41  1  0  0  0  0
 41 42  2  0  0  0  0
 42 43  1  0  0  0  0
 44 43  2  0  0  0  0
 45 44  1  0  0  0  0
M  END
>  <minimizedAffinity>
-7.40048599

$$$$

 OpenBabel03252505263D

 45 49  0  0  1  0  0  0  0  0999 V2000
   40.3430   31.1010   38.0680 F   0  0  0  0  0  0  0  0  0  0  0  0
   39.9950   32.2470   38.7460 C   0  0  0  0  0  0  0  0  0  0  0  0
   38.7340   32.3190   39.2760 C   0  0  0  0  0  0  0  0  0  0  0  0
   38.4030   33.4540   39.9430 C   0  0  0  0  0  0  0  0  0  0  0  0
   39.3240   34.4790   40.0650 C   0  0  0  0  0  0  0  0  0  0  0  0
   40.5770   34.4080   39.5380 C   0  0  0  0  0  0  0  0  0  0  0  0
   40.9120   33.2430   38.8560 C   0  0  0  0  0  0  0  0  0  0  0  0
   37.4090   33.5520   40.3790 H   0  0  0  0  0  0  0  0  0  0  0  0
   39.0520   35.3820   40.5980 H   0  0  0  0  0  0  0  0  0  0  0  0
   41.2880   35.2190   39.6420 H   0  0  0  0  0  0  0  0  0  0  0  0
   42.2340   33.1970   38.3140 N   0  0  0  0  0  0  0  0  0  0  0  0
   43.0020   34.2160   37.6290 C   0  0  0  0  0  0  0  0  0  0  0  0
   44.3460   34.1640   38.3940 C   0  0  0  0  0  0  0  0  0  0  0  0
   44.3660   32.7840   38.9900 C   0  0  0  0  0  0  0  0  0  0  0  0
   43.2040   32.1090   38.2900 C   0  0  2  0  0  0  0  0  0  0  0  0
   42.5920   35.2380   37.8280 H   0  0  0  0  0  0  0  0  0  0  0  0
   43.1460   34.0340   36.5640 H   0  0  0  0  0  0  0  0  0  0  0  0
   45.1460   34.1540   37.5990 H   0  0  0  0  0  0  0  0  0  0  0  0
   44.4470   34.9820   39.1060 H   0  0  0  0  0  0  0  0  0  0  0  0
   45.2950   32.2300   38.8190 H   0  0  0  0  0  0  0  0  0  0  0  0
   44.1300   32.8370   40.0760 H   0  0  0  0  0  0  0  0  0  0  0  0
   42.8310   31.2820   38.9360 H   0  0  0  0  0  0  0  0  0  0  0  0
   43.5120   31.6010   36.9280 C   0  0  0  0  0  0  0  0  0  0  0  0
   44.5880   31.7740   36.6970 H   0  0  0  0  0  0  0  0  0  0  0  0
   42.8810   32.0280   36.1260 H   0  0  0  0  0  0  0  0  0  0  0  0
   43.3720   30.4890   36.8830 H   0  0  0  0  0  0  0  0  0  0  0  0
   36.1780   30.0780   37.8840 C   0  0  0  0  0  0  0  0  0  0  0  0
   36.0620   29.1000   38.8750 C   0  0  0  0  0  0  0  0  0  0  0  0
   36.8580   29.2220   40.0070 C   0  0  0  0  0  0  0  0  0  0  0  0
   37.6840   30.2880   40.0410 N   0  0  0  0  0  0  0  0  0  0  0  0
   37.8050   31.2120   39.1200 C   0  0  0  0  0  0  0  0  0  0  0  0
   37.0430   31.0920   38.0470 N   0  0  0  0  0  0  0  0  0  0  0  0
   35.5610   29.9950   36.9990 H   0  0  0  0  0  0  0  0  0  0  0  0
   35.4080   28.3000   38.6940 H   0  0  0  0  0  0  0  0  0  0  0  0
   36.9700   28.3090   41.1220 C   0  0  0  0  0  0  0  0  0  0  0  0
   37.1340   28.8820   42.3940 C   0  0  0  0  0  0  0  0  0  0  0  0
   37.1840   29.9790   42.5010 H   0  0  0  0  0  0  0  0  0  0  0  0
   37.2460   28.1770   43.5680 C   0  0  0  0  0  3  0  0  0  0  0  0
   37.1940   26.8030   43.5350 C   0  0  0  0  0  3  0  0  0  0  0  0
   37.0300   26.1720   42.3230 C   0  0  0  0  0  0  0  0  0  0  0  0
   36.9360   24.7990   42.2470 C   0  0  0  0  0  3  0  0  0  0  0  0
   36.7300   24.1210   41.0400 C   0  0  0  0  0  3  0  0  0  0  0  0
   36.6240   24.9300   39.9180 C   0  0  0  0  0  3  0  0  0  0  0  0
   36.7210   26.2910   40.0160 C   0  0  0  0  0  3  0  0  0  0  0  0
   36.9270   26.9480   41.2000 C   0  0  0  0  0  0  0  0  0  0  0  0
  1  2  1  0  0  0  0
  2  7  2  0  0  0  0
  2  3  1  0  0  0  0
  3  4  2  0  0  0  0
  4  5  1  0  0  0  0
  4  8  1  0  0  0  0
  5  9  1  0  0  0  0
  6 10  1  0  0  0  0
  6  5  2  0  0  0  0
  7  6  1  0  0  0  0
 11  7  1  0  0  0  0
 12 16  1  0  0  0  0
 12 11  1  0  0  0  0
 12 13  1  0  0  0  0
 13 14  1  0  0  0  0
 13 19  1  0  0  0  0
 14 21  1  0  0  0  0
 15 11  1  0  0  0  0
 15 22  1  1  0  0  0
 15 14  1  0  0  0  0
 17 12  1  0  0  0  0
 18 13  1  0  0  0  0
 20 14  1  0  0  0  0
 23 15  1  0  0  0  0
 24 23  1  0  0  0  0
 25 23  1  0  0  0  0
 26 23  1  0  0  0  0
 27 32  2  0  0  0  0
 27 28  1  0  0  0  0
 28 29  2  0  0  0  0
 29 30  1  0  0  0  0
 29 35  1  0  0  0  0
 31  3  1  0  0  0  0
 31 30  2  0  0  0  0
 32 31  1  0  0  0  0
 33 27  1  0  0  0  0
 34 28  1  0  0  0  0
 35 45  2  0  0  0  0
 35 36  1  0  0  0  0
 36 37  1  0  0  0  0
 36 38  2  0  0  0  0
 39 38  1  0  0  0  0
 40 39  2  0  0  0  0
 41 40  1  0  0  0  0
 42 41  2  0  0  0  0
 43 44  2  0  0  0  0
 43 42  1  0  0  0  0
 44 45  1  0  0  0  0
 45 40  1  0  0  0  0
M  END
>  <minimizedAffinity>
-7.32285213

$$$$

 OpenBabel03252505263D

 45 49  0  0  1  0  0  0  0  0999 V2000
   35.7590   27.7010   40.1900 F   0  0  0  0  0  0  0  0  0  0  0  0
   36.5260   28.6950   39.6280 C   0  0  0  0  0  0  0  0  0  0  0  0
   36.1710   29.1570   38.3890 C   0  0  0  0  0  0  0  0  0  0  0  0
   36.9360   30.1380   37.8460 C   0  0  0  0  0  0  0  0  0  0  0  0
   38.0250   30.6320   38.5420 C   0  0  0  0  0  0  0  0  0  0  0  0
   38.3780   30.1740   39.7740 C   0  0  0  0  0  0  0  0  0  0  0  0
   37.5920   29.1690   40.3260 C   0  0  0  0  0  0  0  0  0  0  0  0
   36.6870   30.5320   36.8610 H   0  0  0  0  0  0  0  0  0  0  0  0
   38.6310   31.4150   38.1020 H   0  0  0  0  0  0  0  0  0  0  0  0
   39.2340   30.5710   40.3080 H   0  0  0  0  0  0  0  0  0  0  0  0
   37.9880   28.7080   41.6200 N   0  0  0  0  0  0  0  0  0  0  0  0
   37.6820   29.2310   42.9360 C   0  0  0  0  0  0  0  0  0  0  0  0
   37.2150   27.9580   43.6800 C   0  0  0  0  0  0  0  0  0  0  0  0
   37.8510   26.8360   42.9050 C   0  0  0  0  0  0  0  0  0  0  0  0
   38.8190   27.5720   42.0010 C   0  0  2  0  0  0  0  0  0  0  0  0
   36.7860   29.9000   42.9100 H   0  0  0  0  0  0  0  0  0  0  0  0
   38.5260   29.6980   43.4430 H   0  0  0  0  0  0  0  0  0  0  0  0
   37.7510   27.9730   44.6720 H   0  0  0  0  0  0  0  0  0  0  0  0
   36.1300   27.9070   43.7700 H   0  0  0  0  0  0  0  0  0  0  0  0
   38.3800   26.1020   43.5230 H   0  0  0  0  0  0  0  0  0  0  0  0
   37.0900   26.3400   42.2640 H   0  0  0  0  0  0  0  0  0  0  0  0
   39.0070   26.9480   41.0990 H   0  0  0  0  0  0  0  0  0  0  0  0
   40.1030   27.9500   42.6450 C   0  0  0  0  0  0  0  0  0  0  0  0
   40.1290   27.5600   43.6890 H   0  0  0  0  0  0  0  0  0  0  0  0
   40.3160   29.0340   42.6430 H   0  0  0  0  0  0  0  0  0  0  0  0
   40.9650   27.4560   42.1210 H   0  0  0  0  0  0  0  0  0  0  0  0
   33.9830   26.8650   36.5300 C   0  0  0  0  0  0  0  0  0  0  0  0
   32.8050   27.6060   36.4080 C   0  0  0  0  0  0  0  0  0  0  0  0
   32.7750   28.8790   36.9610 C   0  0  0  0  0  0  0  0  0  0  0  0
   33.9040   29.2860   37.5770 N   0  0  0  0  0  0  0  0  0  0  0  0
   35.0160   28.6040   37.7000 C   0  0  0  0  0  0  0  0  0  0  0  0
   35.0380   27.3930   37.1700 N   0  0  0  0  0  0  0  0  0  0  0  0
   34.0190   25.8720   36.1000 H   0  0  0  0  0  0  0  0  0  0  0  0
   31.9870   27.1430   35.9390 H   0  0  0  0  0  0  0  0  0  0  0  0
   31.6620   29.7980   37.0270 C   0  0  0  0  0  0  0  0  0  0  0  0
   30.9580   29.8530   38.2410 C   0  0  0  0  0  0  0  0  0  0  0  0
   31.2580   29.2040   39.0810 H   0  0  0  0  0  0  0  0  0  0  0  0
   29.8840   30.6720   38.4940 C   0  0  0  0  0  3  0  0  0  0  0  0
   29.4360   31.5180   37.5070 C   0  0  0  0  0  3  0  0  0  0  0  0
   30.0800   31.5220   36.2910 C   0  0  0  0  0  0  0  0  0  0  0  0
   29.6890   32.3790   35.2850 C   0  0  0  0  0  3  0  0  0  0  0  0
   30.3420   32.4420   34.0490 C   0  0  0  0  0  3  0  0  0  0  0  0
   31.4170   31.5780   33.9030 C   0  0  0  0  0  3  0  0  0  0  0  0
   31.7880   30.7350   34.9140 C   0  0  0  0  0  3  0  0  0  0  0  0
   31.1430   30.6750   36.1200 C   0  0  0  0  0  0  0  0  0  0  0  0
  2  1  1  0  0  0  0
  2  7  1  0  0  0  0
  3  2  2  0  0  0  0
  4  3  1  0  0  0  0
  4  5  2  0  0  0  0
  5  6  1  0  0  0  0
  6 10  1  0  0  0  0
  6  7  2  0  0  0  0
  7 11  1  0  0  0  0
  8  4  1  0  0  0  0
  9  5  1  0  0  0  0
 11 15  1  0  0  0  0
 11 12  1  0  0  0  0
 12 17  1  0  0  0  0
 12 13  1  0  0  0  0
 13 19  1  0  0  0  0
 13 18  1  0  0  0  0
 14 20  1  0  0  0  0
 14 13  1  0  0  0  0
 15 22  1  6  0  0  0
 15 23  1  0  0  0  0
 15 14  1  0  0  0  0
 16 12  1  0  0  0  0
 21 14  1  0  0  0  0
 23 24  1  0  0  0  0
 25 23  1  0  0  0  0
 26 23  1  0  0  0  0
 27 32  1  0  0  0  0
 28 27  2  0  0  0  0
 28 29  1  0  0  0  0
 29 35  1  0  0  0  0
 29 30  2  0  0  0  0
 30 31  1  0  0  0  0
 31  3  1  0  0  0  0
 32 31  2  0  0  0  0
 33 27  1  0  0  0  0
 34 28  1  0  0  0  0
 35 36  1  0  0  0  0
 36 38  2  0  0  0  0
 36 37  1  0  0  0  0
 39 38  1  0  0  0  0
 40 39  2  0  0  0  0
 41 40  1  0  0  0  0
 42 41  2  0  0  0  0
 43 42  1  0  0  0  0
 43 44  2  0  0  0  0
 44 45  1  0  0  0  0
 45 40  1  0  0  0  0
 45 35  2  0  0  0  0
M  END
>  <minimizedAffinity>
-7.28258038

$$$$

 OpenBabel03252505263D

 45 49  0  0  1  0  0  0  0  0999 V2000
   40.3580   31.3530   38.4530 F   0  0  0  0  0  0  0  0  0  0  0  0
   39.5540   32.3380   38.9780 C   0  0  0  0  0  0  0  0  0  0  0  0
   38.1980   32.1510   38.9350 C   0  0  0  0  0  0  0  0  0  0  0  0
   37.4160   33.1300   39.4570 C   0  0  0  0  0  0  0  0  0  0  0  0
   37.9970   34.2610   40.0050 C   0  0  0  0  0  0  0  0  0  0  0  0
   39.3440   34.4480   40.0480 C   0  0  0  0  0  0  0  0  0  0  0  0
   40.1410   33.4420   39.5120 C   0  0  0  0  0  0  0  0  0  0  0  0
   36.3330   33.0200   39.4410 H   0  0  0  0  0  0  0  0  0  0  0  0
   37.3660   35.0380   40.4190 H   0  0  0  0  0  0  0  0  0  0  0  0
   39.7840   35.3390   40.4810 H   0  0  0  0  0  0  0  0  0  0  0  0
   41.5510   33.6670   39.5720 N   0  0  0  0  0  0  0  0  0  0  0  0
   42.3380   34.4410   40.5090 C   0  0  0  0  0  0  0  0  0  0  0  0
   43.4490   33.4360   40.8930 C   0  0  0  0  0  0  0  0  0  0  0  0
   43.4850   32.4800   39.7320 C   0  0  0  0  0  0  0  0  0  0  0  0
   42.6190   33.1820   38.7060 C   0  0  2  0  0  0  0  0  0  0  0  0
   41.7750   34.6300   41.4570 H   0  0  0  0  0  0  0  0  0  0  0  0
   42.7600   35.3570   40.0960 H   0  0  0  0  0  0  0  0  0  0  0  0
   44.4160   34.0140   40.8300 H   0  0  0  0  0  0  0  0  0  0  0  0
   43.2750   32.9810   41.8680 H   0  0  0  0  0  0  0  0  0  0  0  0
   44.4870   32.2930   39.3310 H   0  0  0  0  0  0  0  0  0  0  0  0
   42.9860   31.5270   40.0120 H   0  0  0  0  0  0  0  0  0  0  0  0
   42.1990   32.4180   38.0130 H   0  0  0  0  0  0  0  0  0  0  0  0
   43.3100   34.2500   37.9390 C   0  0  0  0  0  0  0  0  0  0  0  0
   44.3810   34.2960   38.2400 H   0  0  0  0  0  0  0  0  0  0  0  0
   42.8500   35.2510   38.0300 H   0  0  0  0  0  0  0  0  0  0  0  0
   43.3180   34.0040   36.8430 H   0  0  0  0  0  0  0  0  0  0  0  0
   36.7610   29.7860   36.5200 C   0  0  0  0  0  0  0  0  0  0  0  0
   36.5890   28.6340   37.2920 C   0  0  0  0  0  0  0  0  0  0  0  0
   36.9660   28.6820   38.6270 C   0  0  0  0  0  0  0  0  0  0  0  0
   37.4730   29.8550   39.0600 N   0  0  0  0  0  0  0  0  0  0  0  0
   37.6410   30.9430   38.3490 C   0  0  0  0  0  0  0  0  0  0  0  0
   37.2790   30.8910   37.0790 N   0  0  0  0  0  0  0  0  0  0  0  0
   36.4690   29.7610   35.4780 H   0  0  0  0  0  0  0  0  0  0  0  0
   36.2230   27.7760   36.8090 H   0  0  0  0  0  0  0  0  0  0  0  0
   36.9540   27.6110   39.5980 C   0  0  0  0  0  0  0  0  0  0  0  0
   36.8310   26.3050   39.0960 C   0  0  0  0  0  0  0  0  0  0  0  0
   36.7380   26.1390   38.0100 H   0  0  0  0  0  0  0  0  0  0  0  0
   36.8130   25.1640   39.8630 C   0  0  0  0  0  3  0  0  0  0  0  0
   36.9240   25.2710   41.2290 C   0  0  0  0  0  3  0  0  0  0  0  0
   37.0510   26.5200   41.7920 C   0  0  0  0  0  0  0  0  0  0  0  0
   37.2020   26.6720   43.1530 C   0  0  0  0  0  3  0  0  0  0  0  0
   37.3740   27.9210   43.7610 C   0  0  0  0  0  3  0  0  0  0  0  0
   37.3840   29.0040   42.8940 C   0  0  0  0  0  3  0  0  0  0  0  0
   37.2320   28.8300   41.5450 C   0  0  0  0  0  3  0  0  0  0  0  0
   37.0610   27.6060   40.9570 C   0  0  0  0  0  0  0  0  0  0  0  0
  1  2  1  0  0  0  0
  2  7  1  0  0  0  0
  3  2  2  0  0  0  0
  3  4  1  0  0  0  0
  4  5  2  0  0  0  0
  5  6  1  0  0  0  0
  5  9  1  0  0  0  0
  6 10  1  0  0  0  0
  7 11  1  0  0  0  0
  7  6  2  0  0  0  0
  8  4  1  0  0  0  0
 11 12  1  0  0  0  0
 12 13  1  0  0  0  0
 12 16  1  0  0  0  0
 13 19  1  0  0  0  0
 14 21  1  0  0  0  0
 14 13  1  0  0  0  0
 15 22  1  6  0  0  0
 15 11  1  0  0  0  0
 15 14  1  0  0  0  0
 17 12  1  0  0  0  0
 18 13  1  0  0  0  0
 20 14  1  0  0  0  0
 23 25  1  0  0  0  0
 23 24  1  0  0  0  0
 23 15  1  0  0  0  0
 26 23  1  0  0  0  0
 27 32  2  0  0  0  0
 27 28  1  0  0  0  0
 28 29  2  0  0  0  0
 29 30  1  0  0  0  0
 29 35  1  0  0  0  0
 31  3  1  0  0  0  0
 31 30  2  0  0  0  0
 32 31  1  0  0  0  0
 33 27  1  0  0  0  0
 34 28  1  0  0  0  0
 35 45  1  0  0  0  0
 36 35  2  0  0  0  0
 36 38  1  0  0  0  0
 37 36  1  0  0  0  0
 38 39  2  0  0  0  0
 39 40  1  0  0  0  0
 40 41  1  0  0  0  0
 41 42  2  0  0  0  0
 43 42  1  0  0  0  0
 44 43  2  0  0  0  0
 45 44  1  0  0  0  0
 45 40  2  0  0  0  0
M  END
>  <minimizedAffinity>
-7.20653725

$$$$

 OpenBabel03252505263D

 45 49  0  0  1  0  0  0  0  0999 V2000
   36.3290   30.7920   37.9710 F   0  0  0  0  0  0  0  0  0  0  0  0
   36.4160   30.1830   39.2010 C   0  0  0  0  0  0  0  0  0  0  0  0
   35.5840   29.1250   39.4520 C   0  0  0  0  0  0  0  0  0  0  0  0
   35.6800   28.5320   40.6700 C   0  0  0  0  0  0  0  0  0  0  0  0
   36.5930   29.0010   41.5980 C   0  0  0  0  0  0  0  0  0  0  0  0
   37.4200   30.0530   41.3490 C   0  0  0  0  0  0  0  0  0  0  0  0
   37.3180   30.6560   40.1000 C   0  0  0  0  0  0  0  0  0  0  0  0
   35.0350   27.6870   40.9100 H   0  0  0  0  0  0  0  0  0  0  0  0
   36.6630   28.5230   42.5680 H   0  0  0  0  0  0  0  0  0  0  0  0
   38.1300   30.4080   42.0860 H   0  0  0  0  0  0  0  0  0  0  0  0
   38.1990   31.7580   39.8680 N   0  0  0  0  0  0  0  0  0  0  0  0
   37.9250   33.1780   39.7910 C   0  0  0  0  0  0  0  0  0  0  0  0
   38.9990   33.7580   40.7410 C   0  0  0  0  0  0  0  0  0  0  0  0
   40.0660   32.6970   40.7660 C   0  0  0  0  0  0  0  0  0  0  0  0
   39.6400   31.7790   39.6390 C   0  0  2  0  0  0  0  0  0  0  0  0
   36.9460   33.4310   40.2680 H   0  0  0  0  0  0  0  0  0  0  0  0
   38.0130   33.6010   38.7900 H   0  0  0  0  0  0  0  0  0  0  0  0
   39.4580   34.6250   40.1860 H   0  0  0  0  0  0  0  0  0  0  0  0
   38.5880   34.0290   41.7130 H   0  0  0  0  0  0  0  0  0  0  0  0
   41.0810   33.0720   40.5970 H   0  0  0  0  0  0  0  0  0  0  0  0
   40.0080   32.1250   41.7180 H   0  0  0  0  0  0  0  0  0  0  0  0
   40.0480   30.7620   39.8350 H   0  0  0  0  0  0  0  0  0  0  0  0
   40.0310   32.2400   38.2830 C   0  0  0  0  0  0  0  0  0  0  0  0
   40.6280   33.1770   38.3620 H   0  0  0  0  0  0  0  0  0  0  0  0
   39.1850   32.3900   37.5870 H   0  0  0  0  0  0  0  0  0  0  0  0
   40.7130   31.4930   37.7960 H   0  0  0  0  0  0  0  0  0  0  0  0
   33.9890   27.1230   36.8170 C   0  0  0  0  0  0  0  0  0  0  0  0
   32.8340   27.8580   36.5380 C   0  0  0  0  0  0  0  0  0  0  0  0
   32.6170   29.0290   37.2530 C   0  0  0  0  0  0  0  0  0  0  0  0
   33.5570   29.3500   38.1670 N   0  0  0  0  0  0  0  0  0  0  0  0
   34.6430   28.6710   38.4410 C   0  0  0  0  0  0  0  0  0  0  0  0
   34.8440   27.5590   37.7560 N   0  0  0  0  0  0  0  0  0  0  0  0
   34.1690   26.2100   36.2650 H   0  0  0  0  0  0  0  0  0  0  0  0
   32.1670   27.4640   35.8290 H   0  0  0  0  0  0  0  0  0  0  0  0
   31.4740   29.9120   37.1960 C   0  0  0  0  0  0  0  0  0  0  0  0
   30.6660   29.9730   38.3430 C   0  0  0  0  0  0  0  0  0  0  0  0
   30.9110   29.3560   39.2230 H   0  0  0  0  0  0  0  0  0  0  0  0
   29.5480   30.7620   38.4780 C   0  0  0  0  0  3  0  0  0  0  0  0
   29.1630   31.5670   37.4320 C   0  0  0  0  0  3  0  0  0  0  0  0
   29.9110   31.5620   36.2760 C   0  0  0  0  0  0  0  0  0  0  0  0
   29.5830   32.3800   35.2170 C   0  0  0  0  0  3  0  0  0  0  0  0
   30.3390   32.4330   34.0410 C   0  0  0  0  0  3  0  0  0  0  0  0
   31.4500   31.6020   34.0130 C   0  0  0  0  0  3  0  0  0  0  0  0
   31.7560   30.7980   35.0760 C   0  0  0  0  0  3  0  0  0  0  0  0
   31.0100   30.7470   36.2230 C   0  0  0  0  0  0  0  0  0  0  0  0
  1  2  1  0  0  0  0
  2  3  2  0  0  0  0
  2  7  1  0  0  0  0
  3  4  1  0  0  0  0
  4  8  1  0  0  0  0
  4  5  2  0  0  0  0
  5  9  1  0  0  0  0
  6  5  1  0  0  0  0
  6 10  1  0  0  0  0
  7  6  2  0  0  0  0
 11  7  1  0  0  0  0
 12 11  1  0  0  0  0
 12 16  1  0  0  0  0
 12 13  1  0  0  0  0
 13 14  1  0  0  0  0
 13 19  1  0  0  0  0
 14 21  1  0  0  0  0
 15 22  1  1  0  0  0
 15 11  1  0  0  0  0
 15 14  1  0  0  0  0
 17 12  1  0  0  0  0
 18 13  1  0  0  0  0
 20 14  1  0  0  0  0
 23 24  1  0  0  0  0
 23 15  1  0  0  0  0
 25 23  1  0  0  0  0
 26 23  1  0  0  0  0
 27 32  1  0  0  0  0
 28 27  2  0  0  0  0
 28 29  1  0  0  0  0
 29 30  2  0  0  0  0
 30 31  1  0  0  0  0
 31  3  1  0  0  0  0
 32 31  2  0  0  0  0
 33 27  1  0  0  0  0
 34 28  1  0  0  0  0
 35 29  1  0  0  0  0
 35 36  1  0  0  0  0
 36 38  2  0  0  0  0
 36 37  1  0  0  0  0
 39 38  1  0  0  0  0
 40 39  2  0  0  0  0
 41 40  1  0  0  0  0
 42 41  2  0  0  0  0
 43 42  1  0  0  0  0
 43 44  2  0  0  0  0
 44 45  1  0  0  0  0
 45 40  1  0  0  0  0
 45 35  2  0  0  0  0
M  END
>  <minimizedAffinity>
-7.18999767

$$$$

 OpenBabel03252505263D

 45 49  0  0  1  0  0  0  0  0999 V2000
   36.1640   26.2910   38.0680 F   0  0  0  0  0  0  0  0  0  0  0  0
   36.0470   27.1860   39.1070 C   0  0  0  0  0  0  0  0  0  0  0  0
   35.2160   28.2620   38.9360 C   0  0  0  0  0  0  0  0  0  0  0  0
   35.1090   29.1370   39.9680 C   0  0  0  0  0  0  0  0  0  0  0  0
   35.8230   28.9220   41.1340 C   0  0  0  0  0  0  0  0  0  0  0  0
   36.6490   27.8540   41.3050 C   0  0  0  0  0  0  0  0  0  0  0  0
   36.7550   26.9600   40.2450 C   0  0  0  0  0  0  0  0  0  0  0  0
   34.4600   30.0060   39.8720 H   0  0  0  0  0  0  0  0  0  0  0  0
   35.7330   29.6260   41.9530 H   0  0  0  0  0  0  0  0  0  0  0  0
   37.2010   27.6990   42.2240 H   0  0  0  0  0  0  0  0  0  0  0  0
   37.6290   25.8480   40.4530 N   0  0  0  0  0  0  0  0  0  0  0  0
   39.0740   25.7930   40.5300 C   0  0  0  0  0  0  0  0  0  0  0  0
   39.2890   24.9780   41.8270 C   0  0  0  0  0  0  0  0  0  0  0  0
   38.0060   24.2100   41.9850 C   0  0  0  0  0  0  0  0  0  0  0  0
   37.3240   24.4360   40.6510 C   0  0  2  0  0  0  0  0  0  0  0  0
   39.5100   26.8010   40.7430 H   0  0  0  0  0  0  0  0  0  0  0  0
   39.5540   25.3120   39.6780 H   0  0  0  0  0  0  0  0  0  0  0  0
   40.0680   24.2040   41.5730 H   0  0  0  0  0  0  0  0  0  0  0  0
   39.5610   25.6110   42.6720 H   0  0  0  0  0  0  0  0  0  0  0  0
   38.1400   23.1390   42.1750 H   0  0  0  0  0  0  0  0  0  0  0  0
   37.3790   24.6770   42.7770 H   0  0  0  0  0  0  0  0  0  0  0  0
   36.2250   24.3230   40.7900 H   0  0  0  0  0  0  0  0  0  0  0  0
   37.8000   23.5540   39.5550 C   0  0  0  0  0  0  0  0  0  0  0  0
   38.5550   22.8360   39.9500 H   0  0  0  0  0  0  0  0  0  0  0  0
   38.2120   24.0900   38.6810 H   0  0  0  0  0  0  0  0  0  0  0  0
   36.9590   22.9180   39.1690 H   0  0  0  0  0  0  0  0  0  0  0  0
   34.2420   28.0420   35.4010 C   0  0  0  0  0  0  0  0  0  0  0  0
   33.0740   28.8070   35.3630 C   0  0  0  0  0  0  0  0  0  0  0  0
   32.6360   29.3890   36.5450 C   0  0  0  0  0  0  0  0  0  0  0  0
   33.3910   29.1540   37.6380 N   0  0  0  0  0  0  0  0  0  0  0  0
   34.4880   28.4390   37.6910 C   0  0  0  0  0  0  0  0  0  0  0  0
   34.9000   27.8890   36.5620 N   0  0  0  0  0  0  0  0  0  0  0  0
   34.5940   27.5850   34.4850 H   0  0  0  0  0  0  0  0  0  0  0  0
   32.5630   28.8670   34.4470 H   0  0  0  0  0  0  0  0  0  0  0  0
   31.4310   30.1550   36.7710 C   0  0  0  0  0  0  0  0  0  0  0  0
   30.8410   30.0450   38.0400 C   0  0  0  0  0  0  0  0  0  0  0  0
   31.2930   29.3880   38.8020 H   0  0  0  0  0  0  0  0  0  0  0  0
   29.7040   30.7040   38.4410 C   0  0  0  0  0  3  0  0  0  0  0  0
   29.0700   31.5470   37.5590 C   0  0  0  0  0  3  0  0  0  0  0  0
   29.5940   31.7080   36.2970 C   0  0  0  0  0  0  0  0  0  0  0  0
   29.0120   32.5700   35.3930 C   0  0  0  0  0  3  0  0  0  0  0  0
   29.5350   32.7910   34.1140 C   0  0  0  0  0  3  0  0  0  0  0  0
   30.6880   32.0800   33.8160 C   0  0  0  0  0  3  0  0  0  0  0  0
   31.2490   31.2290   34.7280 C   0  0  0  0  0  3  0  0  0  0  0  0
   30.7300   31.0140   35.9770 C   0  0  0  0  0  0  0  0  0  0  0  0
  1  2  1  0  0  0  0
  2  7  1  0  0  0  0
  3  2  2  0  0  0  0
  3  4  1  0  0  0  0
  4  5  2  0  0  0  0
  5  6  1  0  0  0  0
  5  9  1  0  0  0  0
  6 10  1  0  0  0  0
  7 11  1  0  0  0  0
  7  6  2  0  0  0  0
  8  4  1  0  0  0  0
 11 12  1  0  0  0  0
 11 15  1  0  0  0  0
 12 16  1  0  0  0  0
 12 13  1  0  0  0  0
 13 14  1  0  0  0  0
 13 19  1  0  0  0  0
 14 20  1  0  0  0  0
 14 21  1  0  0  0  0
 15 22  1  1  0  0  0
 15 14  1  0  0  0  0
 17 12  1  0  0  0  0
 18 13  1  0  0  0  0
 23 24  1  0  0  0  0
 23 15  1  0  0  0  0
 25 23  1  0  0  0  0
 26 23  1  0  0  0  0
 27 32  1  0  0  0  0
 28 27  2  0  0  0  0
 28 29  1  0  0  0  0
 29 35  1  0  0  0  0
 29 30  2  0  0  0  0
 30 31  1  0  0  0  0
 31  3  1  0  0  0  0
 32 31  2  0  0  0  0
 33 27  1  0  0  0  0
 34 28  1  0  0  0  0
 35 36  1  0  0  0  0
 36 38  2  0  0  0  0
 36 37  1  0  0  0  0
 39 38  1  0  0  0  0
 40 39  2  0  0  0  0
 41 40  1  0  0  0  0
 42 41  2  0  0  0  0
 43 42  1  0  0  0  0
 43 44  2  0  0  0  0
 44 45  1  0  0  0  0
 45 40  1  0  0  0  0
 45 35  2  0  0  0  0
M  END
>  <minimizedAffinity>
-7.0754652

$$$$

 OpenBabel03252505263D

 45 49  0  0  1  0  0  0  0  0999 V2000
   39.6370   30.5200   38.1200 F   0  0  0  0  0  0  0  0  0  0  0  0
   39.1140   31.5930   38.8040 C   0  0  0  0  0  0  0  0  0  0  0  0
   37.7980   31.5330   39.1810 C   0  0  0  0  0  0  0  0  0  0  0  0
   37.2940   32.5980   39.8560 C   0  0  0  0  0  0  0  0  0  0  0  0
   38.1030   33.6850   40.1370 C   0  0  0  0  0  0  0  0  0  0  0  0
   39.4110   33.7450   39.7630 C   0  0  0  0  0  0  0  0  0  0  0  0
   39.9220   32.6520   39.0720 C   0  0  0  0  0  0  0  0  0  0  0  0
   36.2520   32.5900   40.1730 H   0  0  0  0  0  0  0  0  0  0  0  0
   37.6940   34.5310   40.6750 H   0  0  0  0  0  0  0  0  0  0  0  0
   40.0310   34.6030   39.9910 H   0  0  0  0  0  0  0  0  0  0  0  0
   41.2970   32.7440   38.6920 N   0  0  0  0  0  0  0  0  0  0  0  0
   42.4940   32.3320   39.3970 C   0  0  0  0  0  0  0  0  0  0  0  0
   43.2390   31.5260   38.3070 C   0  0  0  0  0  0  0  0  0  0  0  0
   42.6780   32.0610   37.0180 C   0  0  0  0  0  0  0  0  0  0  0  0
   41.9050   33.2800   37.4800 C   0  0  2  0  0  0  0  0  0  0  0  0
   42.2590   31.5900   40.2010 H   0  0  0  0  0  0  0  0  0  0  0  0
   43.1060   33.1550   39.7670 H   0  0  0  0  0  0  0  0  0  0  0  0
   44.3060   31.8900   38.3380 H   0  0  0  0  0  0  0  0  0  0  0  0
   43.1400   30.4500   38.4490 H   0  0  0  0  0  0  0  0  0  0  0  0
   43.4340   32.3390   36.2760 H   0  0  0  0  0  0  0  0  0  0  0  0
   41.9520   31.3340   36.5910 H   0  0  0  0  0  0  0  0  0  0  0  0
   41.1010   33.4920   36.7400 H   0  0  0  0  0  0  0  0  0  0  0  0
   42.7350   34.4910   37.7030 C   0  0  0  0  0  0  0  0  0  0  0  0
   43.7940   34.2780   37.4290 H   0  0  0  0  0  0  0  0  0  0  0  0
   42.6870   34.8980   38.7300 H   0  0  0  0  0  0  0  0  0  0  0  0
   42.4120   35.3200   37.0180 H   0  0  0  0  0  0  0  0  0  0  0  0
   35.4360   29.2770   37.5010 C   0  0  0  0  0  0  0  0  0  0  0  0
   35.4900   28.1330   38.3020 C   0  0  0  0  0  0  0  0  0  0  0  0
   36.3320   28.1500   39.4060 C   0  0  0  0  0  0  0  0  0  0  0  0
   37.0320   29.2860   39.6030 N   0  0  0  0  0  0  0  0  0  0  0  0
   36.9930   30.3660   38.8610 C   0  0  0  0  0  0  0  0  0  0  0  0
   36.1880   30.3440   37.8130 N   0  0  0  0  0  0  0  0  0  0  0  0
   34.7820   29.2770   36.6390 H   0  0  0  0  0  0  0  0  0  0  0  0
   34.9210   27.3030   38.0020 H   0  0  0  0  0  0  0  0  0  0  0  0
   36.6110   27.0760   40.3320 C   0  0  0  0  0  0  0  0  0  0  0  0
   36.7180   27.4230   41.6890 C   0  0  0  0  0  0  0  0  0  0  0  0
   36.6000   28.4740   41.9990 H   0  0  0  0  0  0  0  0  0  0  0  0
   36.9660   26.5390   42.7110 C   0  0  0  0  0  3  0  0  0  0  0  0
   37.1270   25.2040   42.4220 C   0  0  0  0  0  3  0  0  0  0  0  0
   37.0320   24.7900   41.1130 C   0  0  0  0  0  0  0  0  0  0  0  0
   37.1500   23.4580   40.7820 C   0  0  0  0  0  3  0  0  0  0  0  0
   37.0210   22.9910   39.4690 C   0  0  0  0  0  3  0  0  0  0  0  0
   36.7630   23.9660   38.5170 C   0  0  0  0  0  3  0  0  0  0  0  0
   36.6510   25.2830   38.8680 C   0  0  0  0  0  3  0  0  0  0  0  0
   36.7820   25.7350   40.1540 C   0  0  0  0  0  0  0  0  0  0  0  0
  1  2  1  0  0  0  0
  2  7  2  0  0  0  0
  2  3  1  0  0  0  0
  3  4  2  0  0  0  0
  4  5  1  0  0  0  0
  4  8  1  0  0  0  0
  5  9  1  0  0  0  0
  6 10  1  0  0  0  0
  6  5  2  0  0  0  0
  7  6  1  0  0  0  0
 11  7  1  0  0  0  0
 11 12  1  0  0  0  0
 12 17  1  0  0  0  0
 12 16  1  0  0  0  0
 13 18  1  0  0  0  0
 13 19  1  0  0  0  0
 13 12  1  0  0  0  0
 14 15  1  0  0  0  0
 14 13  1  0  0  0  0
 15 22  1  6  0  0  0
 15 23  1  0  0  0  0
 15 11  1  0  0  0  0
 20 14  1  0  0  0  0
 21 14  1  0  0  0  0
 23 25  1  0  0  0  0
 24 23  1  0  0  0  0
 26 23  1  0  0  0  0
 27 32  2  0  0  0  0
 27 28  1  0  0  0  0
 28 29  2  0  0  0  0
 29 30  1  0  0  0  0
 29 35  1  0  0  0  0
 31  3  1  0  0  0  0
 31 30  2  0  0  0  0
 32 31  1  0  0  0  0
 33 27  1  0  0  0  0
 34 28  1  0  0  0  0
 35 36  1  0  0  0  0
 36 37  1  0  0  0  0
 36 38  2  0  0  0  0
 39 38  1  0  0  0  0
 40 39  2  0  0  0  0
 41 40  1  0  0  0  0
 42 41  2  0  0  0  0
 43 44  2  0  0  0  0
 43 42  1  0  0  0  0
 44 45  1  0  0  0  0
 45 35  2  0  0  0  0
 45 40  1  0  0  0  0
M  END
>  <minimizedAffinity>
-6.92825747

$$$$

 OpenBabel03252505263D

 45 49  0  0  1  0  0  0  0  0999 V2000
   39.8760   30.4590   39.3640 F   0  0  0  0  0  0  0  0  0  0  0  0
   39.4340   31.7280   39.6590 C   0  0  0  0  0  0  0  0  0  0  0  0
   38.1880   31.8600   40.2110 C   0  0  0  0  0  0  0  0  0  0  0  0
   37.7630   33.1180   40.4970 C   0  0  0  0  0  0  0  0  0  0  0  0
   38.5810   34.2020   40.2310 C   0  0  0  0  0  0  0  0  0  0  0  0
   39.8190   34.0710   39.6820 C   0  0  0  0  0  0  0  0  0  0  0  0
   40.2500   32.7820   39.3900 C   0  0  0  0  0  0  0  0  0  0  0  0
   36.7780   33.2660   40.9370 H   0  0  0  0  0  0  0  0  0  0  0  0
   38.2350   35.2020   40.4610 H   0  0  0  0  0  0  0  0  0  0  0  0
   40.4480   34.9300   39.4790 H   0  0  0  0  0  0  0  0  0  0  0  0
   41.5540   32.6760   38.8150 N   0  0  0  0  0  0  0  0  0  0  0  0
   42.7800   32.1330   39.3630 C   0  0  0  0  0  0  0  0  0  0  0  0
   43.2470   31.1970   38.2240 C   0  0  0  0  0  0  0  0  0  0  0  0
   42.5740   31.7580   37.0010 C   0  0  0  0  0  0  0  0  0  0  0  0
   42.0400   33.0840   37.5020 C   0  0  2  0  0  0  0  0  0  0  0  0
   42.5740   31.4570   40.2310 H   0  0  0  0  0  0  0  0  0  0  0  0
   43.5390   32.8790   39.5980 H   0  0  0  0  0  0  0  0  0  0  0  0
   44.3440   31.4160   38.0830 H   0  0  0  0  0  0  0  0  0  0  0  0
   43.0340   30.1500   38.4360 H   0  0  0  0  0  0  0  0  0  0  0  0
   43.2410   31.9070   36.1450 H   0  0  0  0  0  0  0  0  0  0  0  0
   41.7070   31.1200   36.7200 H   0  0  0  0  0  0  0  0  0  0  0  0
   41.1680   33.3770   36.8730 H   0  0  0  0  0  0  0  0  0  0  0  0
   43.0410   34.1810   37.5390 C   0  0  0  0  0  0  0  0  0  0  0  0
   44.0110   33.8180   37.1300 H   0  0  0  0  0  0  0  0  0  0  0  0
   43.1970   34.6250   38.5390 H   0  0  0  0  0  0  0  0  0  0  0  0
   42.7270   35.0210   36.8650 H   0  0  0  0  0  0  0  0  0  0  0  0
   35.3170   29.5740   40.3770 C   0  0  0  0  0  0  0  0  0  0  0  0
   35.8670   28.4450   40.9900 C   0  0  0  0  0  0  0  0  0  0  0  0
   37.2100   28.4820   41.3390 C   0  0  0  0  0  0  0  0  0  0  0  0
   37.8700   29.6220   41.0470 N   0  0  0  0  0  0  0  0  0  0  0  0
   37.3700   30.6880   40.4720 C   0  0  0  0  0  0  0  0  0  0  0  0
   36.0900   30.6470   40.1430 N   0  0  0  0  0  0  0  0  0  0  0  0
   34.2710   29.5580   40.1020 H   0  0  0  0  0  0  0  0  0  0  0  0
   35.2430   27.6100   41.1160 H   0  0  0  0  0  0  0  0  0  0  0  0
   38.0130   27.4240   41.9110 C   0  0  0  0  0  0  0  0  0  0  0  0
   37.4780   26.1270   41.8610 C   0  0  0  0  0  0  0  0  0  0  0  0
   36.4860   25.9580   41.4120 H   0  0  0  0  0  0  0  0  0  0  0  0
   38.1000   24.9990   42.3410 C   0  0  0  0  0  3  0  0  0  0  0  0
   39.3430   25.1100   42.9180 C   0  0  0  0  0  3  0  0  0  0  0  0
   39.9320   26.3520   42.9980 C   0  0  0  0  0  0  0  0  0  0  0  0
   41.1910   26.5050   43.5350 C   0  0  0  0  0  3  0  0  0  0  0  0
   41.8410   27.7420   43.5990 C   0  0  0  0  0  3  0  0  0  0  0  0
   41.1270   28.8130   43.0800 C   0  0  0  0  0  3  0  0  0  0  0  0
   39.8770   28.6380   42.5520 C   0  0  0  0  0  3  0  0  0  0  0  0
   39.2450   27.4250   42.4960 C   0  0  0  0  0  0  0  0  0  0  0  0
  1  2  1  0  0  0  0
  2  3  1  0  0  0  0
  3 31  1  0  0  0  0
  3  4  2  0  0  0  0
  4  8  1  0  0  0  0
  5  9  1  0  0  0  0
  5  4  1  0  0  0  0
  6  5  2  0  0  0  0
  7  2  2  0  0  0  0
  7  6  1  0  0  0  0
 10  6  1  0  0  0  0
 11 12  1  0  0  0  0
 11  7  1  0  0  0  0
 12 17  1  0  0  0  0
 12 16  1  0  0  0  0
 13 19  1  0  0  0  0
 13 12  1  0  0  0  0
 14 15  1  0  0  0  0
 14 13  1  0  0  0  0
 15 22  1  6  0  0  0
 15 23  1  0  0  0  0
 15 11  1  0  0  0  0
 18 13  1  0  0  0  0
 20 14  1  0  0  0  0
 21 14  1  0  0  0  0
 23 25  1  0  0  0  0
 24 23  1  0  0  0  0
 26 23  1  0  0  0  0
 27 28  1  0  0  0  0
 28 34  1  0  0  0  0
 28 29  2  0  0  0  0
 29 35  1  0  0  0  0
 30 29  1  0  0  0  0
 31 30  2  0  0  0  0
 32 27  2  0  0  0  0
 32 31  1  0  0  0  0
 33 27  1  0  0  0  0
 35 45  1  0  0  0  0
 36 35  2  0  0  0  0
 36 38  1  0  0  0  0
 37 36  1  0  0  0  0
 38 39  2  0  0  0  0
 39 40  1  0  0  0  0
 40 41  1  0  0  0  0
 41 42  2  0  0  0  0
 43 42  1  0  0  0  0
 44 43  2  0  0  0  0
 45 44  1  0  0  0  0
 45 40  2  0  0  0  0
M  END
>  <minimizedAffinity>
-6.88178778

$$$$
