
 OpenBabel03252505193D

 36 40  0  0  0  0  0  0  0  0999 V2000
   46.1330   32.6620   47.0510 C   0  0  0  0  0  0  0  0  0  0  0  0
   45.0260   32.3800   47.8040 C   0  0  0  0  0  0  0  0  0  0  0  0
   45.1190   31.5910   48.9290 C   0  0  0  0  0  0  0  0  0  0  0  0
   46.3640   31.1060   49.2550 C   0  0  0  0  0  0  0  0  0  0  0  0
   47.4810   31.4010   48.4780 C   0  0  0  0  0  0  0  0  0  0  0  0
   47.3420   32.1930   47.3650 N   0  0  0  0  0  0  0  0  0  0  0  0
   44.0830   32.7970   47.4830 H   0  0  0  0  0  0  0  0  0  0  0  0
   44.2480   31.3790   49.5060 H   0  0  0  0  0  0  0  0  0  0  0  0
   46.3940   30.5420   50.1600 H   0  0  0  0  0  0  0  0  0  0  0  0
   48.8560   31.0220   48.7400 C   0  0  0  0  0  0  0  0  0  0  0  0
   49.6390   31.8930   49.5190 C   0  0  0  0  0  0  0  0  0  0  0  0
   49.1920   32.8040   49.9060 H   0  0  0  0  0  0  0  0  0  0  0  0
   50.9440   31.7090   49.8510 C   0  0  0  0  0  3  0  0  0  0  0  0
   51.5950   30.5850   49.4070 C   0  0  0  0  0  3  0  0  0  0  0  0
   50.8920   29.6880   48.6360 C   0  0  0  0  0  0  0  0  0  0  0  0
   51.5440   28.5780   48.1550 C   0  0  0  0  0  3  0  0  0  0  0  0
   50.9100   27.6440   47.3370 C   0  0  0  0  0  3  0  0  0  0  0  0
   49.5700   27.9130   47.0380 C   0  0  0  0  0  3  0  0  0  0  0  0
   48.9570   29.0360   47.5410 C   0  0  0  0  0  3  0  0  0  0  0  0
   49.5780   29.9330   48.3350 C   0  0  0  0  0  0  0  0  0  0  0  0
   44.9150   35.1550   44.6320 C   0  0  0  0  0  0  0  0  0  0  0  0
   45.8030   35.0430   43.5570 C   0  0  0  0  0  0  0  0  0  0  0  0
   46.8060   34.1120   43.6950 C   0  0  0  0  0  0  0  0  0  0  0  0
   46.8900   33.3580   44.8410 N   0  0  0  0  0  0  0  0  0  0  0  0
   46.0040   33.4980   45.8630 C   0  0  0  0  0  0  0  0  0  0  0  0
   45.0200   34.3990   45.7500 N   0  0  0  0  0  0  0  0  0  0  0  0
   44.1020   35.8750   44.5790 H   0  0  0  0  0  0  0  0  0  0  0  0
   45.7120   35.6460   42.6740 H   0  0  0  0  0  0  0  0  0  0  0  0
   47.8010   33.8800   42.5950 C   0  0  0  0  0  0  0  0  0  0  0  0
   48.0410   35.1320   41.7460 C   0  0  0  0  0  0  0  0  0  0  0  0
   49.1080   34.4740   42.6850 C   0  0  0  0  0  0  0  0  0  0  0  0
   47.6280   32.9840   41.9410 H   0  0  0  0  0  0  0  0  0  0  0  0
   47.6230   36.0880   42.0870 H   0  0  0  0  0  0  0  0  0  0  0  0
   48.2350   35.0380   40.6760 H   0  0  0  0  0  0  0  0  0  0  0  0
   49.3520   35.0440   43.6180 H   0  0  0  0  0  0  0  0  0  0  0  0
   49.9840   34.0380   42.1610 H   0  0  0  0  0  0  0  0  0  0  0  0
  1  6  2  0  0  0  0
  1  2  1  0  0  0  0
  2  3  2  0  0  0  0
  3  4  1  0  0  0  0
  3  8  1  0  0  0  0
  4  9  1  0  0  0  0
  5 10  1  0  0  0  0
  5  4  2  0  0  0  0
  6  5  1  0  0  0  0
  7  2  1  0  0  0  0
 10 11  1  0  0  0  0
 11 13  2  0  0  0  0
 11 12  1  0  0  0  0
 14 13  1  0  0  0  0
 15 14  2  0  0  0  0
 16 15  1  0  0  0  0
 17 16  2  0  0  0  0
 18 17  1  0  0  0  0
 18 19  2  0  0  0  0
 19 20  1  0  0  0  0
 20 15  1  0  0  0  0
 20 10  2  0  0  0  0
 21 26  1  0  0  0  0
 22 23  1  0  0  0  0
 22 21  2  0  0  0  0
 23 24  2  0  0  0  0
 24 25  1  0  0  0  0
 25  1  1  0  0  0  0
 26 25  2  0  0  0  0
 27 21  1  0  0  0  0
 28 22  1  0  0  0  0
 29 31  1  0  0  0  0
 29 23  1  0  0  0  0
 30 33  1  0  0  0  0
 30 29  1  0  0  0  0
 30 31  1  0  0  0  0
 31 35  1  0  0  0  0
 32 29  1  0  0  0  0
 34 30  1  0  0  0  0
 36 31  1  0  0  0  0
M  END
>  <minimizedAffinity>
-6.81946421

>  <minimizedRMSD>
2.07972217

$$$$
