
 OpenBabel03242510403D

 33 36  0  0  0  0  0  0  0  0999 V2000
   47.7100   32.0550   45.1630 Cl  0  0  0  0  0  0  0  0  0  0  0  0
   46.6950   32.0590   46.5990 C   0  0  0  0  0  0  0  0  0  0  0  0
   45.7020   33.0160   46.6820 C   0  0  0  0  0  0  0  0  0  0  0  0
   44.9170   33.0170   47.7960 C   0  0  0  0  0  0  0  0  0  0  0  0
   45.1450   32.0670   48.7920 C   0  0  0  0  0  0  0  0  0  0  0  0
   46.1380   31.1230   48.6930 C   0  0  0  0  0  0  0  0  0  0  0  0
   46.9440   31.1130   47.5630 C   0  0  0  0  0  0  0  0  0  0  0  0
   44.1190   33.7360   47.9300 H   0  0  0  0  0  0  0  0  0  0  0  0
   44.5420   32.0340   49.6980 H   0  0  0  0  0  0  0  0  0  0  0  0
   46.2910   30.4010   49.4800 H   0  0  0  0  0  0  0  0  0  0  0  0
   48.0050   30.1190   47.4370 C   0  0  0  0  0  0  0  0  0  0  0  0
   47.9910   29.0110   46.6100 C   0  0  0  0  0  0  0  0  0  0  0  0
   47.0800   28.9020   46.0090 H   0  0  0  0  0  0  0  0  0  0  0  0
   49.0260   28.1240   46.5480 C   0  0  0  0  0  0  0  0  0  0  0  0
   50.1400   28.3310   47.3370 C   0  0  0  0  0  0  0  0  0  0  0  0
   50.1700   29.4350   48.1700 C   0  0  0  0  0  0  0  0  0  0  0  0
   51.3170   29.6090   48.9540 C   0  0  0  0  0  0  0  0  0  0  0  0
   51.3470   30.7150   49.7860 C   0  0  0  0  0  0  0  0  0  0  0  0
   50.3230   31.6510   49.8920 C   0  0  0  0  0  0  0  0  0  0  0  0
   49.2410   31.3890   49.0800 C   0  0  0  0  0  0  0  0  0  0  0  0
   49.1200   30.3170   48.2200 C   0  0  0  0  0  0  0  0  0  0  0  0
   44.5240   35.8870   44.7580 C   0  0  0  0  0  0  0  0  0  0  0  0
   45.2140   35.7680   43.5270 C   0  0  0  0  0  0  0  0  0  0  0  0
   46.0860   34.6680   43.4060 C   0  0  0  0  0  0  0  0  0  0  0  0
   46.2080   33.8130   44.4470 N   0  0  0  0  0  0  0  0  0  0  0  0
   45.5230   33.9730   45.6060 C   0  0  0  0  0  0  0  0  0  0  0  0
   44.6870   35.0100   45.7470 N   0  0  0  0  0  0  0  0  0  0  0  0
   43.8420   36.7090   44.9110 H   0  0  0  0  0  0  0  0  0  0  0  0
   45.0580   36.4930   42.7570 H   0  0  0  0  0  0  0  0  0  0  0  0
   46.7810   34.5850   42.1140 C   0  0  0  0  0  0  0  0  0  0  0  0
   47.4420   33.3630   42.0530 F   0  0  0  0  0  0  0  0  0  0  0  0
   47.7800   35.5400   42.1360 F   0  0  0  0  0  0  0  0  0  0  0  0
   45.9590   34.6650   41.0310 F   0  0  0  0  0  0  0  0  0  0  0  0
  1  2  1  0  0  0  0
  2  3  2  0  0  0  0
  2  7  1  0  0  0  0
  3  4  1  0  0  0  0
  4  8  1  0  0  0  0
  4  5  2  0  0  0  0
  5  9  1  0  0  0  0
  6  5  1  0  0  0  0
  6 10  1  0  0  0  0
  7  6  2  0  0  0  0
 11  7  1  0  0  0  0
 11 21  1  0  0  0  0
 12 11  2  0  0  0  0
 13 12  1  0  0  0  0
 14 12  1  0  0  0  0
 14 15  2  0  0  0  0
 15 16  1  0  0  0  0
 16 21  2  0  0  0  0
 16 17  1  0  0  0  0
 17 18  2  0  0  0  0
 18 19  1  0  0  0  0
 20 19  2  0  0  0  0
 21 20  1  0  0  0  0
 22 28  1  0  0  0  0
 22 27  1  0  0  0  0
 23 22  2  0  0  0  0
 24 23  1  0  0  0  0
 24 25  2  0  0  0  0
 25 26  1  0  0  0  0
 26 27  2  0  0  0  0
 26  3  1  0  0  0  0
 29 23  1  0  0  0  0
 30 32  1  0  0  0  0
 30 24  1  0  0  0  0
 31 30  1  0  0  0  0
 33 30  1  0  0  0  0
M  END
>  <minimizedAffinity>
-6.78651762

>  <minimizedRMSD>
1.12118256

$$$$
