
 OpenBabel03252506383D

 46 50  0  0  1  0  0  0  0  0999 V2000
   44.5130   35.5130   45.1230 C   0  0  0  0  0  0  0  0  0  0  0  0
   45.1670   35.5030   43.8830 C   0  0  0  0  0  0  0  0  0  0  0  0
   46.0870   34.5450   43.6270 C   0  0  0  0  0  0  0  0  0  0  0  0
   46.3240   33.6370   44.6070 N   0  0  0  0  0  0  0  0  0  0  0  0
   45.7030   33.6490   45.7770 C   0  0  0  0  0  0  0  0  0  0  0  0
   44.7920   34.5810   46.0560 N   0  0  0  0  0  0  0  0  0  0  0  0
   46.0340   32.6380   46.7450 N   0  0  0  0  0  0  0  0  0  0  0  0
   45.2940   32.3890   47.9310 C   0  0  0  0  0  0  0  0  0  0  0  0
   46.3730   32.0460   48.9430 C   0  0  0  0  0  0  0  0  0  0  0  0
   47.6520   31.9440   48.1730 C   0  0  0  0  0  0  0  0  0  0  0  0
   47.1560   31.7290   46.7450 C   0  0  1  0  0  0  0  0  0  0  0  0
   43.7650   36.2540   45.3910 H   0  0  0  0  0  0  0  0  0  0  0  0
   46.5920   34.5230   42.6930 H   0  0  0  0  0  0  0  0  0  0  0  0
   44.9380   33.4100   48.2890 H   0  0  0  0  0  0  0  0  0  0  0  0
   44.4600   31.7680   48.0080 H   0  0  0  0  0  0  0  0  0  0  0  0
   46.3980   32.6820   49.8240 H   0  0  0  0  0  0  0  0  0  0  0  0
   46.1330   31.0140   49.3170 H   0  0  0  0  0  0  0  0  0  0  0  0
   48.2930   31.1020   48.5060 H   0  0  0  0  0  0  0  0  0  0  0  0
   48.1780   32.9210   48.2060 H   0  0  0  0  0  0  0  0  0  0  0  0
   47.9600   32.0170   46.0450 H   0  0  0  0  0  0  0  0  0  0  0  0
   44.8020   36.5380   42.9530 N   0  0  0  0  0  0  0  0  0  0  0  0
   44.0030   36.1240   42.4300 H   0  0  0  0  0  0  0  0  0  0  0  0
   45.2930   37.4620   42.8940 H   0  0  0  0  0  0  0  0  0  0  0  0
   46.6450   30.0360   46.5610 S   0  0  0  0  0  0  0  0  0  0  0  0
   45.5970   30.5210   43.4310 O   0  0  0  0  0  0  0  0  0  0  0  0
   44.9780   29.9800   44.3600 C   0  0  0  0  0  0  0  0  0  0  0  0
   45.0920   29.7510   45.8210 C   0  0  1  0  0  0  0  0  0  0  0  0
   44.5540   28.3480   45.9600 C   0  0  0  0  0  0  0  0  0  0  0  0
   43.2310   28.5600   45.2140 C   0  0  0  0  0  0  0  0  0  0  0  0
   43.7300   29.3200   44.0750 N   0  0  0  0  0  0  0  0  0  0  0  0
   44.2110   30.3550   46.1770 H   0  0  0  0  0  0  0  0  0  0  0  0
   44.3260   28.1180   47.0140 H   0  0  0  0  0  0  0  0  0  0  0  0
   45.1530   27.5930   45.4490 H   0  0  0  0  0  0  0  0  0  0  0  0
   42.5070   29.1040   45.8290 H   0  0  0  0  0  0  0  0  0  0  0  0
   42.8790   27.5530   44.9040 H   0  0  0  0  0  0  0  0  0  0  0  0
   42.9350   29.3040   42.8730 C   0  0  0  0  0  0  0  0  0  0  0  0
   41.8920   30.2230   42.8960 C   0  0  0  0  0  0  0  0  0  0  0  0
   41.6750   30.8940   43.7130 H   0  0  0  0  0  0  0  0  0  0  0  0
   41.0120   30.3540   41.8210 C   0  0  0  0  0  3  0  0  0  0  0  0
   41.2300   29.5210   40.7330 C   0  0  0  0  0  3  0  0  0  0  0  0
   42.2590   28.6160   40.7130 C   0  0  0  0  0  0  0  0  0  0  0  0
   42.5030   27.7710   39.6420 C   0  0  0  0  0  3  0  0  0  0  0  0
   43.5400   26.8860   39.6710 C   0  0  0  0  0  3  0  0  0  0  0  0
   44.4040   26.7790   40.7620 C   0  0  0  0  0  3  0  0  0  0  0  0
   44.1850   27.6150   41.8550 C   0  0  0  0  0  3  0  0  0  0  0  0
   43.1400   28.4860   41.7900 C   0  0  0  0  0  0  0  0  0  0  0  0
  1 12  1  0  0  0  0
  1  6  1  0  0  0  0
  2  1  2  0  0  0  0
  3  2  1  0  0  0  0
  3  4  2  0  0  0  0
  4  5  1  0  0  0  0
  5  6  2  0  0  0  0
  5  7  1  0  0  0  0
  7  8  1  0  0  0  0
  8 15  1  0  0  0  0
  8 14  1  0  0  0  0
  8  9  1  0  0  0  0
  9 17  1  0  0  0  0
  9 16  1  0  0  0  0
 10 19  1  0  0  0  0
 10 18  1  0  0  0  0
 10  9  1  0  0  0  0
 11 20  1  6  0  0  0
 11  7  1  0  0  0  0
 11 10  1  0  0  0  0
 13  3  1  0  0  0  0
 21  2  1  0  0  0  0
 22 21  1  0  0  0  0
 23 21  1  0  0  0  0
 24 11  1  0  0  0  0
 25 26  2  0  0  0  0
 26 27  1  0  0  0  0
 27 28  1  0  0  0  0
 27 31  1  1  0  0  0
 27 24  1  0  0  0  0
 28 32  1  0  0  0  0
 29 34  1  0  0  0  0
 29 28  1  0  0  0  0
 30 26  1  0  0  0  0
 30 29  1  0  0  0  0
 33 28  1  0  0  0  0
 35 29  1  0  0  0  0
 36 37  1  0  0  0  0
 36 30  1  0  0  0  0
 37 38  1  0  0  0  0
 39 37  2  0  0  0  0
 40 39  1  0  0  0  0
 41 40  2  0  0  0  0
 41 46  1  0  0  0  0
 42 43  2  0  0  0  0
 42 41  1  0  0  0  0
 43 44  1  0  0  0  0
 44 45  2  0  0  0  0
 46 45  1  0  0  0  0
 46 36  2  0  0  0  0
M  END
>  <minimizedAffinity>
-5.38007307

>  <minimizedRMSD>
0.753605962

$$$$
