
 OpenBabel03242519583D

 30 33  0  0  0  0  0  0  0  0999 V2000
   44.5970   31.8360   42.7800 Br  0  0  0  0  0  0  0  0  0  0  0  0
   46.0030   33.0910   42.4830 C   0  0  0  0  0  0  0  0  0  0  0  0
   46.9080   33.4500   43.4640 C   0  0  0  0  0  0  0  0  0  0  0  0
   47.8860   34.3650   43.1490 C   0  0  0  0  0  0  0  0  0  0  0  0
   48.0040   34.9370   41.8980 C   0  0  0  0  0  0  0  0  0  0  0  0
   47.1030   34.5880   40.8950 C   0  0  0  0  0  0  0  0  0  0  0  0
   46.1320   33.6720   41.2340 C   0  0  0  0  0  0  0  0  0  0  0  0
   48.5850   34.6310   43.9360 H   0  0  0  0  0  0  0  0  0  0  0  0
   48.7810   35.6530   41.6770 H   0  0  0  0  0  0  0  0  0  0  0  0
   47.1760   35.0240   39.9090 H   0  0  0  0  0  0  0  0  0  0  0  0
   45.1950   33.3290   40.1420 C   0  0  0  0  0  0  0  0  0  0  0  0
   45.5020   32.3870   39.1810 C   0  0  0  0  0  0  0  0  0  0  0  0
   46.4590   31.8700   39.2110 H   0  0  0  0  0  0  0  0  0  0  0  0
   44.5660   32.1340   38.2020 C   0  0  0  0  0  3  0  0  0  0  0  0
   43.3540   32.8230   38.2090 C   0  0  0  0  0  3  0  0  0  0  0  0
   43.0830   33.7660   39.1970 C   0  0  0  0  0  0  0  0  0  0  0  0
   41.8580   34.4280   39.1600 C   0  0  0  0  0  3  0  0  0  0  0  0
   41.5960   35.3690   40.1520 C   0  0  0  0  0  3  0  0  0  0  0  0
   42.5020   35.6580   41.1550 C   0  0  0  0  0  3  0  0  0  0  0  0
   43.6850   34.9690   41.1280 C   0  0  0  0  0  3  0  0  0  0  0  0
   44.0130   34.0370   40.1940 C   0  0  0  0  0  0  0  0  0  0  0  0
   45.8730   32.7920   47.0560 C   0  0  0  0  0  0  0  0  0  0  0  0
   46.0090   33.4090   45.8030 C   0  0  0  0  0  0  0  0  0  0  0  0
   46.7530   32.8220   44.7820 C   0  0  0  0  0  0  0  0  0  0  0  0
   47.3270   31.6340   45.0770 N   0  0  0  0  0  0  0  0  0  0  0  0
   47.1890   31.0500   46.2880 C   0  0  0  0  0  0  0  0  0  0  0  0
   46.4770   31.6160   47.2580 N   0  0  0  0  0  0  0  0  0  0  0  0
   45.2720   33.3240   47.7930 H   0  0  0  0  0  0  0  0  0  0  0  0
   45.5610   34.3570   45.5360 H   0  0  0  0  0  0  0  0  0  0  0  0
   47.6930   30.1000   46.4120 H   0  0  0  0  0  0  0  0  0  0  0  0
  2  1  1  0  0  0  0
  2  3  1  0  0  0  0
  3 24  1  0  0  0  0
  4  3  2  0  0  0  0
  4  8  1  0  0  0  0
  5  4  1  0  0  0  0
  6  7  1  0  0  0  0
  6  5  2  0  0  0  0
  7  2  2  0  0  0  0
  9  5  1  0  0  0  0
 10  6  1  0  0  0  0
 11 21  1  0  0  0  0
 11  7  1  0  0  0  0
 12 13  1  0  0  0  0
 12 11  2  0  0  0  0
 14 15  2  0  0  0  0
 14 12  1  0  0  0  0
 15 16  1  0  0  0  0
 16 21  1  0  0  0  0
 17 16  2  0  0  0  0
 17 18  1  0  0  0  0
 18 19  2  0  0  0  0
 20 19  1  0  0  0  0
 21 20  2  0  0  0  0
 22 27  1  0  0  0  0
 22 28  1  0  0  0  0
 23 22  2  0  0  0  0
 24 25  2  0  0  0  0
 24 23  1  0  0  0  0
 25 26  1  0  0  0  0
 26 30  1  0  0  0  0
 26 27  2  0  0  0  0
 29 23  1  0  0  0  0
M  END
>  <minimizedAffinity>
-5.66718245

>  <minimizedRMSD>
2.52380133

$$$$
