
 OpenBabel03252509243D

 29 32  0  0  1  0  0  0  0  0999 V2000
   46.5540   34.7540   42.0380 C   0  0  1  0  0  0  0  0  0  0  0  0
   47.9870   35.3520   42.0510 C   0  0  0  0  0  0  0  0  0  0  0  0
   47.6240   33.8700   41.7430 C   0  0  2  0  0  0  0  0  0  0  0  0
   45.8910   35.2550   41.3070 H   0  0  0  0  0  0  0  0  0  0  0  0
   48.5060   35.4840   42.9950 H   0  0  0  0  0  0  0  0  0  0  0  0
   48.2810   35.9680   41.1650 H   0  0  0  0  0  0  0  0  0  0  0  0
   47.9060   33.1170   42.5370 H   0  0  0  0  0  0  0  0  0  0  0  0
   47.9550   33.3480   40.3950 C   0  0  0  0  0  0  0  0  0  0  0  0
   47.0330   33.5900   39.3970 C   0  0  0  0  0  0  0  0  0  0  0  0
   46.1130   34.1370   39.6010 H   0  0  0  0  0  0  0  0  0  0  0  0
   47.3440   33.1010   38.1380 C   0  0  0  0  0  3  0  0  0  0  0  0
   48.4890   32.4200   37.8860 C   0  0  0  0  0  3  0  0  0  0  0  0
   49.4070   32.1850   38.8960 C   0  0  0  0  0  0  0  0  0  0  0  0
   50.5930   31.4910   38.6780 C   0  0  0  0  0  3  0  0  0  0  0  0
   51.4500   31.3020   39.7480 C   0  0  0  0  0  3  0  0  0  0  0  0
   51.2100   31.7530   41.0080 C   0  0  0  0  0  3  0  0  0  0  0  0
   50.0230   32.4450   41.2170 C   0  0  0  0  0  3  0  0  0  0  0  0
   49.1440   32.6510   40.1700 C   0  0  0  0  0  0  0  0  0  0  0  0
   44.5140   35.6180   45.0780 C   0  0  0  0  0  0  0  0  0  0  0  0
   45.0610   35.7090   43.7620 C   0  0  0  0  0  0  0  0  0  0  0  0
   45.9850   34.7530   43.4400 C   0  0  0  0  0  0  0  0  0  0  0  0
   46.3530   33.7710   44.3460 N   0  0  0  0  0  0  0  0  0  0  0  0
   45.8170   33.7200   45.5720 C   0  0  0  0  0  0  0  0  0  0  0  0
   44.8960   34.6420   45.9430 N   0  0  0  0  0  0  0  0  0  0  0  0
   43.7840   36.3910   45.2980 H   0  0  0  0  0  0  0  0  0  0  0  0
   46.0910   32.9630   46.2910 H   0  0  0  0  0  0  0  0  0  0  0  0
   44.6820   36.7430   42.8560 N   0  0  0  0  0  0  0  0  0  0  0  0
   43.7050   37.0270   42.5520 H   0  0  0  0  0  0  0  0  0  0  0  0
   45.4760   37.3020   42.4290 H   0  0  0  0  0  0  0  0  0  0  0  0
  1  4  1  6  0  0  0
  1  2  1  0  0  0  0
  1 21  1  0  0  0  0
  2  5  1  0  0  0  0
  3  1  1  0  0  0  0
  3  2  1  0  0  0  0
  3  7  1  1  0  0  0
  6  2  1  0  0  0  0
  8  3  1  0  0  0  0
  9 10  1  0  0  0  0
  9  8  2  0  0  0  0
 11  9  1  0  0  0  0
 12 11  2  0  0  0  0
 12 13  1  0  0  0  0
 13 18  1  0  0  0  0
 14 13  2  0  0  0  0
 14 15  1  0  0  0  0
 15 16  2  0  0  0  0
 16 17  1  0  0  0  0
 18  8  1  0  0  0  0
 18 17  2  0  0  0  0
 19 25  1  0  0  0  0
 19 24  1  0  0  0  0
 20 19  2  0  0  0  0
 21 20  1  0  0  0  0
 21 22  2  0  0  0  0
 22 23  1  0  0  0  0
 23 24  2  0  0  0  0
 23 26  1  0  0  0  0
 27 20  1  0  0  0  0
 28 27  1  0  0  0  0
 29 27  1  0  0  0  0
M  END
>  <minimizedAffinity>
-5.6072154

>  <minimizedRMSD>
1.06367791

$$$$
