
 OpenBabel03252506593D

 26 28  0  0  0  0  0  0  0  0999 V2000
   37.5930   27.8530   43.5840 C   0  0  0  0  0  0  0  0  0  0  0  0
   36.6580   27.6560   43.0280 H   0  0  0  0  0  0  0  0  0  0  0  0
   37.3750   27.8140   44.6640 H   0  0  0  0  0  0  0  0  0  0  0  0
   38.6240   26.8410   43.2830 C   0  0  0  0  0  0  0  0  0  0  0  0
   39.9320   26.9280   43.6790 C   0  0  0  0  0  0  0  0  0  0  0  0
   40.2540   27.7890   44.2630 H   0  0  0  0  0  0  0  0  0  0  0  0
   40.8700   25.9590   43.3670 C   0  0  0  0  0  3  0  0  0  0  0  0
   40.5500   24.8550   42.6440 C   0  0  0  0  0  3  0  0  0  0  0  0
   39.2280   24.7570   42.2370 C   0  0  0  0  0  0  0  0  0  0  0  0
   38.8840   23.6230   41.4970 C   0  0  0  0  0  3  0  0  0  0  0  0
   37.5950   23.4250   41.0480 C   0  0  0  0  0  3  0  0  0  0  0  0
   36.6360   24.3760   41.3450 C   0  0  0  0  0  3  0  0  0  0  0  0
   37.0300   25.4750   42.0790 C   0  0  0  0  0  3  0  0  0  0  0  0
   38.3000   25.7180   42.5500 C   0  0  0  0  0  0  0  0  0  0  0  0
   38.0450   29.2590   43.2270 C   0  0  0  0  0  0  0  0  0  0  0  0
   39.1120   29.4040   43.1970 H   0  0  0  0  0  0  0  0  0  0  0  0
   37.6860   29.8940   44.0960 H   0  0  0  0  0  0  0  0  0  0  0  0
   37.3420   29.6770   42.0070 C   0  0  0  0  0  0  0  0  0  0  0  0
   36.2730   28.9630   41.4930 C   0  0  0  0  0  0  0  0  0  0  0  0
   35.6640   29.4500   40.3120 C   0  0  0  0  0  0  0  0  0  0  0  0
   36.1710   30.5780   39.7680 N   0  0  0  0  0  0  0  0  0  0  0  0
   37.2100   31.2370   40.3030 C   0  0  0  0  0  0  0  0  0  0  0  0
   37.7920   30.7920   41.4130 N   0  0  0  0  0  0  0  0  0  0  0  0
   35.9050   28.0660   41.9660 H   0  0  0  0  0  0  0  0  0  0  0  0
   34.8240   28.9400   39.8570 H   0  0  0  0  0  0  0  0  0  0  0  0
   37.6090   32.1560   39.8440 H   0  0  0  0  0  0  0  0  0  0  0  0
  1  3  1  0  0  0  0
  2  1  1  0  0  0  0
  4  1  1  0  0  0  0
  4  5  1  0  0  0  0
  5  6  1  0  0  0  0
  7  5  2  0  0  0  0
  8  7  1  0  0  0  0
  9 14  1  0  0  0  0
  9  8  2  0  0  0  0
 10  9  1  0  0  0  0
 11 12  1  0  0  0  0
 11 10  2  0  0  0  0
 12 13  2  0  0  0  0
 13 14  1  0  0  0  0
 14  4  2  0  0  0  0
 15  1  1  0  0  0  0
 15 17  1  0  0  0  0
 16 15  1  0  0  0  0
 18 15  1  0  0  0  0
 19 24  1  0  0  0  0
 19 18  1  0  0  0  0
 20 19  2  0  0  0  0
 21 22  2  0  0  0  0
 21 20  1  0  0  0  0
 22 23  1  0  0  0  0
 23 18  2  0  0  0  0
 25 20  1  0  0  0  0
 26 22  1  0  0  0  0
M  END
>  <minimizedAffinity>
-5.50478268

$$$$

 OpenBabel03252506593D

 26 28  0  0  0  0  0  0  0  0999 V2000
   36.8910   29.4380   39.8730 C   0  0  0  0  0  0  0  0  0  0  0  0
   36.4960   28.7840   39.0740 H   0  0  0  0  0  0  0  0  0  0  0  0
   36.1740   30.2580   40.0440 H   0  0  0  0  0  0  0  0  0  0  0  0
   37.0630   28.6990   41.1390 C   0  0  0  0  0  0  0  0  0  0  0  0
   37.3190   29.2890   42.3490 C   0  0  0  0  0  0  0  0  0  0  0  0
   37.4000   30.3730   42.4050 H   0  0  0  0  0  0  0  0  0  0  0  0
   37.4820   28.5580   43.5120 C   0  0  0  0  0  3  0  0  0  0  0  0
   37.3970   27.2020   43.5280 C   0  0  0  0  0  3  0  0  0  0  0  0
   37.1370   26.5950   42.3090 C   0  0  0  0  0  0  0  0  0  0  0  0
   37.0420   25.2020   42.3110 C   0  0  0  0  0  3  0  0  0  0  0  0
   36.7810   24.5000   41.1530 C   0  0  0  0  0  3  0  0  0  0  0  0
   36.6140   25.2040   39.9750 C   0  0  0  0  0  3  0  0  0  0  0  0
   36.7170   26.5780   40.0290 C   0  0  0  0  0  3  0  0  0  0  0  0
   36.9750   27.3230   41.1570 C   0  0  0  0  0  0  0  0  0  0  0  0
   38.1970   30.0280   39.3690 C   0  0  0  0  0  0  0  0  0  0  0  0
   38.4630   29.7600   38.3600 H   0  0  0  0  0  0  0  0  0  0  0  0
   38.9890   29.5430   40.0210 H   0  0  0  0  0  0  0  0  0  0  0  0
   38.1860   31.4740   39.6280 C   0  0  0  0  0  0  0  0  0  0  0  0
   37.1540   32.2900   39.1940 C   0  0  0  0  0  0  0  0  0  0  0  0
   37.2370   33.6700   39.4950 C   0  0  0  0  0  0  0  0  0  0  0  0
   38.3190   34.0950   40.1830 N   0  0  0  0  0  0  0  0  0  0  0  0
   39.2950   33.2660   40.5830 C   0  0  0  0  0  0  0  0  0  0  0  0
   39.2310   31.9660   40.3090 N   0  0  0  0  0  0  0  0  0  0  0  0
   36.3110   31.9010   38.6470 H   0  0  0  0  0  0  0  0  0  0  0  0
   36.4660   34.3640   39.1850 H   0  0  0  0  0  0  0  0  0  0  0  0
   40.1700   33.6320   41.1440 H   0  0  0  0  0  0  0  0  0  0  0  0
  1  3  1  0  0  0  0
  1  4  1  0  0  0  0
  2  1  1  0  0  0  0
  4 14  2  0  0  0  0
  4  5  1  0  0  0  0
  5  6  1  0  0  0  0
  5  7  2  0  0  0  0
  7  8  1  0  0  0  0
  9 10  1  0  0  0  0
  9  8  2  0  0  0  0
 11 10  2  0  0  0  0
 12 13  2  0  0  0  0
 12 11  1  0  0  0  0
 13 14  1  0  0  0  0
 14  9  1  0  0  0  0
 15 18  1  0  0  0  0
 15  1  1  0  0  0  0
 15 17  1  0  0  0  0
 16 15  1  0  0  0  0
 18 23  1  0  0  0  0
 19 20  1  0  0  0  0
 19 18  2  0  0  0  0
 20 21  2  0  0  0  0
 21 22  1  0  0  0  0
 22 26  1  0  0  0  0
 23 22  2  0  0  0  0
 24 19  1  0  0  0  0
 25 20  1  0  0  0  0
M  END
>  <minimizedAffinity>
-5.43527651

$$$$

 OpenBabel03252506593D

 26 28  0  0  0  0  0  0  0  0999 V2000
   35.8280   28.5180   40.6890 C   0  0  0  0  0  0  0  0  0  0  0  0
   36.0640   28.1700   39.6660 H   0  0  0  0  0  0  0  0  0  0  0  0
   34.8340   28.1320   40.9710 H   0  0  0  0  0  0  0  0  0  0  0  0
   36.8130   28.0200   41.6680 C   0  0  0  0  0  0  0  0  0  0  0  0
   37.3830   28.7870   42.6490 C   0  0  0  0  0  0  0  0  0  0  0  0
   37.1010   29.8350   42.7360 H   0  0  0  0  0  0  0  0  0  0  0  0
   38.3110   28.2830   43.5430 C   0  0  0  0  0  3  0  0  0  0  0  0
   38.7170   26.9870   43.5040 C   0  0  0  0  0  3  0  0  0  0  0  0
   38.1470   26.2010   42.5150 C   0  0  0  0  0  0  0  0  0  0  0  0
   38.5510   24.8660   42.4660 C   0  0  0  0  0  3  0  0  0  0  0  0
   38.0410   23.9960   41.5240 C   0  0  0  0  0  3  0  0  0  0  0  0
   37.1120   24.4720   40.6180 C   0  0  0  0  0  3  0  0  0  0  0  0
   36.7470   25.7990   40.7110 C   0  0  0  0  0  3  0  0  0  0  0  0
   37.2260   26.7040   41.6300 C   0  0  0  0  0  0  0  0  0  0  0  0
   35.7710   30.0350   40.6500 C   0  0  0  0  0  0  0  0  0  0  0  0
   36.1200   30.5300   41.5410 H   0  0  0  0  0  0  0  0  0  0  0  0
   34.6620   30.2690   40.5980 H   0  0  0  0  0  0  0  0  0  0  0  0
   36.4140   30.4930   39.4120 C   0  0  0  0  0  0  0  0  0  0  0  0
   36.5040   29.6880   38.2880 C   0  0  0  0  0  0  0  0  0  0  0  0
   37.1430   30.2220   37.1450 C   0  0  0  0  0  0  0  0  0  0  0  0
   37.6230   31.4830   37.2310 N   0  0  0  0  0  0  0  0  0  0  0  0
   37.5120   32.2270   38.3420 C   0  0  0  0  0  0  0  0  0  0  0  0
   36.9130   31.7380   39.4230 N   0  0  0  0  0  0  0  0  0  0  0  0
   36.1040   28.6860   38.2710 H   0  0  0  0  0  0  0  0  0  0  0  0
   37.2480   29.6470   36.2340 H   0  0  0  0  0  0  0  0  0  0  0  0
   37.9100   33.2530   38.3920 H   0  0  0  0  0  0  0  0  0  0  0  0
  1  3  1  0  0  0  0
  1  4  1  0  0  0  0
  2  1  1  0  0  0  0
  4  5  1  0  0  0  0
  5  6  1  0  0  0  0
  5  7  2  0  0  0  0
  8  7  1  0  0  0  0
  9  8  2  0  0  0  0
 10  9  1  0  0  0  0
 11 10  2  0  0  0  0
 12 13  2  0  0  0  0
 12 11  1  0  0  0  0
 13 14  1  0  0  0  0
 14  4  2  0  0  0  0
 14  9  1  0  0  0  0
 15  1  1  0  0  0  0
 15 16  1  0  0  0  0
 17 15  1  0  0  0  0
 18 23  1  0  0  0  0
 18 15  1  0  0  0  0
 19 18  2  0  0  0  0
 20 21  2  0  0  0  0
 20 19  1  0  0  0  0
 21 22  1  0  0  0  0
 22 26  1  0  0  0  0
 22 23  2  0  0  0  0
 24 19  1  0  0  0  0
 25 20  1  0  0  0  0
M  END
>  <minimizedAffinity>
-5.38507318

$$$$

 OpenBabel03252506593D

 26 28  0  0  0  0  0  0  0  0999 V2000
   36.1370   30.4890   40.0770 C   0  0  0  0  0  0  0  0  0  0  0  0
   35.0670   30.7140   39.9140 H   0  0  0  0  0  0  0  0  0  0  0  0
   36.4540   30.9530   41.0260 H   0  0  0  0  0  0  0  0  0  0  0  0
   36.3740   29.0350   40.1710 C   0  0  0  0  0  0  0  0  0  0  0  0
   36.0590   28.1360   39.1870 C   0  0  0  0  0  0  0  0  0  0  0  0
   35.6090   28.4950   38.2630 H   0  0  0  0  0  0  0  0  0  0  0  0
   36.2890   26.7780   39.3180 C   0  0  0  0  0  3  0  0  0  0  0  0
   36.8470   26.2480   40.4380 C   0  0  0  0  0  3  0  0  0  0  0  0
   37.1700   27.1490   41.4400 C   0  0  0  0  0  0  0  0  0  0  0  0
   37.7490   26.6190   42.5960 C   0  0  0  0  0  3  0  0  0  0  0  0
   38.1130   27.4290   43.6510 C   0  0  0  0  0  3  0  0  0  0  0  0
   37.8950   28.7900   43.5480 C   0  0  0  0  0  3  0  0  0  0  0  0
   37.3210   29.2610   42.3850 C   0  0  0  0  0  3  0  0  0  0  0  0
   36.9410   28.4960   41.3070 C   0  0  0  0  0  0  0  0  0  0  0  0
   36.9130   31.1260   38.9370 C   0  0  0  0  0  0  0  0  0  0  0  0
   36.3090   31.5840   38.1710 H   0  0  0  0  0  0  0  0  0  0  0  0
   37.4230   30.2510   38.4270 H   0  0  0  0  0  0  0  0  0  0  0  0
   37.9380   32.0090   39.5080 C   0  0  0  0  0  0  0  0  0  0  0  0
   39.1910   31.5440   39.8690 C   0  0  0  0  0  0  0  0  0  0  0  0
   40.1080   32.4750   40.4110 C   0  0  0  0  0  0  0  0  0  0  0  0
   39.6940   33.7550   40.5400 N   0  0  0  0  0  0  0  0  0  0  0  0
   38.4680   34.1600   40.1760 C   0  0  0  0  0  0  0  0  0  0  0  0
   37.5960   33.2970   39.6650 N   0  0  0  0  0  0  0  0  0  0  0  0
   39.4730   30.5100   39.7460 H   0  0  0  0  0  0  0  0  0  0  0  0
   41.1040   32.1790   40.7140 H   0  0  0  0  0  0  0  0  0  0  0  0
   38.1490   35.2090   40.2890 H   0  0  0  0  0  0  0  0  0  0  0  0
  1  4  1  0  0  0  0
  1  3  1  0  0  0  0
  2  1  1  0  0  0  0
  4 14  1  0  0  0  0
  5  7  1  0  0  0  0
  5  4  2  0  0  0  0
  6  5  1  0  0  0  0
  7  8  2  0  0  0  0
  8  9  1  0  0  0  0
  9 10  1  0  0  0  0
 10 11  2  0  0  0  0
 12 11  1  0  0  0  0
 13 12  2  0  0  0  0
 14  9  2  0  0  0  0
 14 13  1  0  0  0  0
 15 18  1  0  0  0  0
 15  1  1  0  0  0  0
 16 15  1  0  0  0  0
 17 15  1  0  0  0  0
 18 23  2  0  0  0  0
 18 19  1  0  0  0  0
 19 20  2  0  0  0  0
 20 21  1  0  0  0  0
 20 25  1  0  0  0  0
 22 26  1  0  0  0  0
 22 21  2  0  0  0  0
 23 22  1  0  0  0  0
 24 19  1  0  0  0  0
M  END
>  <minimizedAffinity>
-5.23491335

$$$$

 OpenBabel03252506593D

 26 28  0  0  0  0  0  0  0  0999 V2000
   36.3000   28.1020   41.9530 C   0  0  0  0  0  0  0  0  0  0  0  0
   35.3320   28.1720   42.4850 H   0  0  0  0  0  0  0  0  0  0  0  0
   36.3380   27.1410   41.4160 H   0  0  0  0  0  0  0  0  0  0  0  0
   36.4530   29.1910   40.9680 C   0  0  0  0  0  0  0  0  0  0  0  0
   36.7340   30.4920   41.2930 C   0  0  0  0  0  0  0  0  0  0  0  0
   36.8630   30.7630   42.3390 H   0  0  0  0  0  0  0  0  0  0  0  0
   36.8610   31.4850   40.3380 C   0  0  0  0  0  3  0  0  0  0  0  0
   36.7150   31.2310   39.0120 C   0  0  0  0  0  3  0  0  0  0  0  0
   36.4310   29.9170   38.6720 C   0  0  0  0  0  0  0  0  0  0  0  0
   36.2840   29.6400   37.3110 C   0  0  0  0  0  3  0  0  0  0  0  0
   36.0050   28.3650   36.8660 C   0  0  0  0  0  3  0  0  0  0  0  0
   35.8730   27.3520   37.7970 C   0  0  0  0  0  3  0  0  0  0  0  0
   36.0290   27.6800   39.1280 C   0  0  0  0  0  3  0  0  0  0  0  0
   36.3070   28.9340   39.6220 C   0  0  0  0  0  0  0  0  0  0  0  0
   37.3960   28.1180   43.0050 C   0  0  0  0  0  0  0  0  0  0  0  0
   37.0820   28.4230   43.9900 H   0  0  0  0  0  0  0  0  0  0  0  0
   38.1020   28.9330   42.6550 H   0  0  0  0  0  0  0  0  0  0  0  0
   38.0970   26.8290   42.9650 C   0  0  0  0  0  0  0  0  0  0  0  0
   37.6090   25.7480   42.2500 C   0  0  0  0  0  0  0  0  0  0  0  0
   38.3600   24.5480   42.2760 C   0  0  0  0  0  0  0  0  0  0  0  0
   39.5020   24.5430   42.9990 N   0  0  0  0  0  0  0  0  0  0  0  0
   39.9360   25.6160   43.6770 C   0  0  0  0  0  0  0  0  0  0  0  0
   39.2410   26.7500   43.6610 N   0  0  0  0  0  0  0  0  0  0  0  0
   36.6910   25.8030   41.6880 H   0  0  0  0  0  0  0  0  0  0  0  0
   38.0360   23.6660   41.7400 H   0  0  0  0  0  0  0  0  0  0  0  0
   40.8700   25.5920   44.2610 H   0  0  0  0  0  0  0  0  0  0  0  0
  1  2  1  0  0  0  0
  1 15  1  0  0  0  0
  3  1  1  0  0  0  0
  4  5  1  0  0  0  0
  4  1  1  0  0  0  0
  5  6  1  0  0  0  0
  7  5  2  0  0  0  0
  8  7  1  0  0  0  0
  9  8  2  0  0  0  0
  9 14  1  0  0  0  0
 10  9  1  0  0  0  0
 11 10  2  0  0  0  0
 11 12  1  0  0  0  0
 12 13  2  0  0  0  0
 13 14  1  0  0  0  0
 14  4  2  0  0  0  0
 15 16  1  0  0  0  0
 17 15  1  0  0  0  0
 18 15  1  0  0  0  0
 18 23  1  0  0  0  0
 19 20  1  0  0  0  0
 19 18  2  0  0  0  0
 20 21  2  0  0  0  0
 21 22  1  0  0  0  0
 22 26  1  0  0  0  0
 23 22  2  0  0  0  0
 24 19  1  0  0  0  0
 25 20  1  0  0  0  0
M  END
>  <minimizedAffinity>
-5.1936655

$$$$

 OpenBabel03252506593D

 26 28  0  0  0  0  0  0  0  0999 V2000
   37.5640   28.5430   43.2930 C   0  0  0  0  0  0  0  0  0  0  0  0
   36.8030   28.6250   44.0910 H   0  0  0  0  0  0  0  0  0  0  0  0
   38.5120   28.9650   43.6660 H   0  0  0  0  0  0  0  0  0  0  0  0
   37.7990   27.1360   42.9150 C   0  0  0  0  0  0  0  0  0  0  0  0
   36.8340   26.2950   42.4280 C   0  0  0  0  0  0  0  0  0  0  0  0
   35.8200   26.6700   42.2950 H   0  0  0  0  0  0  0  0  0  0  0  0
   37.0950   24.9780   42.0930 C   0  0  0  0  0  3  0  0  0  0  0  0
   38.3320   24.4330   42.2270 C   0  0  0  0  0  3  0  0  0  0  0  0
   39.3170   25.2760   42.7200 C   0  0  0  0  0  0  0  0  0  0  0  0
   40.5950   24.7300   42.8580 C   0  0  0  0  0  3  0  0  0  0  0  0
   41.6480   25.4840   43.3340 C   0  0  0  0  0  3  0  0  0  0  0  0
   41.4170   26.8030   43.6760 C   0  0  0  0  0  3  0  0  0  0  0  0
   40.1360   27.2910   43.5190 C   0  0  0  0  0  3  0  0  0  0  0  0
   39.0550   26.5820   43.0500 C   0  0  0  0  0  0  0  0  0  0  0  0
   37.0830   29.3820   42.1210 C   0  0  0  0  0  0  0  0  0  0  0  0
   36.2120   29.9860   42.3160 H   0  0  0  0  0  0  0  0  0  0  0  0
   36.7450   28.6170   41.3550 H   0  0  0  0  0  0  0  0  0  0  0  0
   38.2280   30.1250   41.5800 C   0  0  0  0  0  0  0  0  0  0  0  0
   39.2460   30.6000   42.3910 C   0  0  0  0  0  0  0  0  0  0  0  0
   40.3040   31.3060   41.7720 C   0  0  0  0  0  0  0  0  0  0  0  0
   40.2470   31.4680   40.4320 N   0  0  0  0  0  0  0  0  0  0  0  0
   39.2390   30.9890   39.6860 C   0  0  0  0  0  0  0  0  0  0  0  0
   38.2380   30.3230   40.2540 N   0  0  0  0  0  0  0  0  0  0  0  0
   39.2450   30.4440   43.4580 H   0  0  0  0  0  0  0  0  0  0  0  0
   41.1310   31.7040   42.3460 H   0  0  0  0  0  0  0  0  0  0  0  0
   39.2100   31.1320   38.5940 H   0  0  0  0  0  0  0  0  0  0  0  0
  1  3  1  0  0  0  0
  1  2  1  0  0  0  0
  4 14  1  0  0  0  0
  4  1  1  0  0  0  0
  5  4  2  0  0  0  0
  6  5  1  0  0  0  0
  7  8  2  0  0  0  0
  7  5  1  0  0  0  0
  8  9  1  0  0  0  0
  9 10  2  0  0  0  0
  9 14  1  0  0  0  0
 10 11  1  0  0  0  0
 11 12  2  0  0  0  0
 13 12  1  0  0  0  0
 14 13  2  0  0  0  0
 15 16  1  0  0  0  0
 15  1  1  0  0  0  0
 17 15  1  0  0  0  0
 18 15  1  0  0  0  0
 18 19  1  0  0  0  0
 19 24  1  0  0  0  0
 20 25  1  0  0  0  0
 20 19  2  0  0  0  0
 21 20  1  0  0  0  0
 22 23  1  0  0  0  0
 22 21  2  0  0  0  0
 23 18  2  0  0  0  0
 26 22  1  0  0  0  0
M  END
>  <minimizedAffinity>
-5.14597654

$$$$

 OpenBabel03252506593D

 26 28  0  0  0  0  0  0  0  0999 V2000
   37.6330   28.1390   43.6200 C   0  0  0  0  0  0  0  0  0  0  0  0
   37.5110   28.5200   44.6510 H   0  0  0  0  0  0  0  0  0  0  0  0
   36.6760   27.7030   43.2900 H   0  0  0  0  0  0  0  0  0  0  0  0
   37.9960   29.2230   42.6860 C   0  0  0  0  0  0  0  0  0  0  0  0
   39.0960   30.0280   42.8260 C   0  0  0  0  0  0  0  0  0  0  0  0
   39.7640   29.8720   43.6710 H   0  0  0  0  0  0  0  0  0  0  0  0
   39.3950   31.0400   41.9310 C   0  0  0  0  0  3  0  0  0  0  0  0
   38.6130   31.3000   40.8510 C   0  0  0  0  0  3  0  0  0  0  0  0
   37.4980   30.4910   40.7000 C   0  0  0  0  0  0  0  0  0  0  0  0
   36.6870   30.7440   39.5900 C   0  0  0  0  0  3  0  0  0  0  0  0
   35.5560   29.9940   39.3440 C   0  0  0  0  0  3  0  0  0  0  0  0
   35.2320   28.9760   40.2210 C   0  0  0  0  0  3  0  0  0  0  0  0
   36.0670   28.7690   41.2990 C   0  0  0  0  0  3  0  0  0  0  0  0
   37.2040   29.4870   41.5880 C   0  0  0  0  0  0  0  0  0  0  0  0
   38.6820   27.0420   43.6640 C   0  0  0  0  0  0  0  0  0  0  0  0
   38.8270   26.5840   44.6290 H   0  0  0  0  0  0  0  0  0  0  0  0
   39.6560   27.5810   43.4450 H   0  0  0  0  0  0  0  0  0  0  0  0
   38.4080   26.0920   42.5780 C   0  0  0  0  0  0  0  0  0  0  0  0
   37.1620   25.5120   42.4050 C   0  0  0  0  0  0  0  0  0  0  0  0
   37.0010   24.6090   41.3280 C   0  0  0  0  0  0  0  0  0  0  0  0
   38.0750   24.3760   40.5430 N   0  0  0  0  0  0  0  0  0  0  0  0
   39.2640   24.9620   40.7490 C   0  0  0  0  0  0  0  0  0  0  0  0
   39.4310   25.8130   41.7570 N   0  0  0  0  0  0  0  0  0  0  0  0
   36.3350   25.7320   43.0600 H   0  0  0  0  0  0  0  0  0  0  0  0
   36.0540   24.1210   41.1360 H   0  0  0  0  0  0  0  0  0  0  0  0
   40.1300   24.7580   40.0980 H   0  0  0  0  0  0  0  0  0  0  0  0
  1 15  1  0  0  0  0
  1  2  1  0  0  0  0
  3  1  1  0  0  0  0
  4  5  1  0  0  0  0
  4  1  1  0  0  0  0
  5  6  1  0  0  0  0
  7  5  2  0  0  0  0
  8  7  1  0  0  0  0
  9  8  2  0  0  0  0
  9 14  1  0  0  0  0
 10  9  1  0  0  0  0
 11 10  2  0  0  0  0
 11 12  1  0  0  0  0
 12 13  2  0  0  0  0
 13 14  1  0  0  0  0
 14  4  2  0  0  0  0
 15 16  1  0  0  0  0
 17 15  1  0  0  0  0
 18 15  1  0  0  0  0
 19 18  1  0  0  0  0
 19 24  1  0  0  0  0
 20 19  2  0  0  0  0
 21 22  2  0  0  0  0
 21 20  1  0  0  0  0
 22 23  1  0  0  0  0
 23 18  2  0  0  0  0
 25 20  1  0  0  0  0
 26 22  1  0  0  0  0
M  END
>  <minimizedAffinity>
-5.12130547

$$$$

 OpenBabel03252506593D

 26 28  0  0  0  0  0  0  0  0999 V2000
   39.1860   29.0740   42.7100 C   0  0  0  0  0  0  0  0  0  0  0  0
   39.8060   28.4320   42.0570 H   0  0  0  0  0  0  0  0  0  0  0  0
   39.8500   29.6250   43.3960 H   0  0  0  0  0  0  0  0  0  0  0  0
   38.4130   30.0560   41.9240 C   0  0  0  0  0  0  0  0  0  0  0  0
   37.0710   29.9590   41.6720 C   0  0  0  0  0  0  0  0  0  0  0  0
   36.5140   29.1140   42.0740 H   0  0  0  0  0  0  0  0  0  0  0  0
   36.3850   30.8980   40.9210 C   0  0  0  0  0  3  0  0  0  0  0  0
   37.0050   31.9810   40.3850 C   0  0  0  0  0  3  0  0  0  0  0  0
   38.3640   32.0890   40.6340 C   0  0  0  0  0  0  0  0  0  0  0  0
   39.0130   33.2010   40.0930 C   0  0  0  0  0  3  0  0  0  0  0  0
   40.3630   33.4070   40.2850 C   0  0  0  0  0  3  0  0  0  0  0  0
   41.0740   32.4840   41.0310 C   0  0  0  0  0  3  0  0  0  0  0  0
   40.3840   31.4060   41.5420 C   0  0  0  0  0  3  0  0  0  0  0  0
   39.0410   31.1570   41.3790 C   0  0  0  0  0  0  0  0  0  0  0  0
   38.2900   28.1580   43.5260 C   0  0  0  0  0  0  0  0  0  0  0  0
   37.2410   28.4050   43.5060 H   0  0  0  0  0  0  0  0  0  0  0  0
   38.6150   28.3380   44.5980 H   0  0  0  0  0  0  0  0  0  0  0  0
   38.5920   26.7670   43.1630 C   0  0  0  0  0  0  0  0  0  0  0  0
   39.7190   26.1130   43.6340 C   0  0  0  0  0  0  0  0  0  0  0  0
   39.9200   24.7730   43.2250 C   0  0  0  0  0  0  0  0  0  0  0  0
   38.9980   24.2270   42.4020 N   0  0  0  0  0  0  0  0  0  0  0  0
   37.9210   24.9010   41.9710 C   0  0  0  0  0  0  0  0  0  0  0  0
   37.7180   26.1600   42.3470 N   0  0  0  0  0  0  0  0  0  0  0  0
   40.4260   26.5940   44.2910 H   0  0  0  0  0  0  0  0  0  0  0  0
   40.7790   24.2030   43.5560 H   0  0  0  0  0  0  0  0  0  0  0  0
   37.1800   24.4380   41.2990 H   0  0  0  0  0  0  0  0  0  0  0  0
  1  3  1  0  0  0  0
  1 15  1  0  0  0  0
  2  1  1  0  0  0  0
  4  1  1  0  0  0  0
  5  4  1  0  0  0  0
  5  6  1  0  0  0  0
  7  5  2  0  0  0  0
  8  9  2  0  0  0  0
  8  7  1  0  0  0  0
  9 14  1  0  0  0  0
 10 11  2  0  0  0  0
 10  9  1  0  0  0  0
 11 12  1  0  0  0  0
 12 13  2  0  0  0  0
 14 13  1  0  0  0  0
 14  4  2  0  0  0  0
 15 17  1  0  0  0  0
 16 15  1  0  0  0  0
 18 15  1  0  0  0  0
 18 19  1  0  0  0  0
 19 24  1  0  0  0  0
 20 25  1  0  0  0  0
 20 19  2  0  0  0  0
 21 20  1  0  0  0  0
 22 23  1  0  0  0  0
 22 21  2  0  0  0  0
 23 18  2  0  0  0  0
 26 22  1  0  0  0  0
M  END
>  <minimizedAffinity>
-5.10128975

$$$$

 OpenBabel03252506593D

 26 28  0  0  0  0  0  0  0  0999 V2000
   36.5750   29.6740   41.1280 C   0  0  0  0  0  0  0  0  0  0  0  0
   35.8560   29.6060   41.9660 H   0  0  0  0  0  0  0  0  0  0  0  0
   37.5960   29.7120   41.5420 H   0  0  0  0  0  0  0  0  0  0  0  0
   36.4780   28.4990   40.2390 C   0  0  0  0  0  0  0  0  0  0  0  0
   36.2270   28.5670   38.8940 C   0  0  0  0  0  0  0  0  0  0  0  0
   36.0950   29.5410   38.4260 H   0  0  0  0  0  0  0  0  0  0  0  0
   36.1350   27.4390   38.0970 C   0  0  0  0  0  3  0  0  0  0  0  0
   36.2880   26.1880   38.6020 C   0  0  0  0  0  3  0  0  0  0  0  0
   36.5420   26.1080   39.9620 C   0  0  0  0  0  0  0  0  0  0  0  0
   36.7070   24.8270   40.4940 C   0  0  0  0  0  3  0  0  0  0  0  0
   36.9680   24.6350   41.8350 C   0  0  0  0  0  3  0  0  0  0  0  0
   37.0660   25.7440   42.6550 C   0  0  0  0  0  3  0  0  0  0  0  0
   36.8950   26.9850   42.0790 C   0  0  0  0  0  3  0  0  0  0  0  0
   36.6340   27.2280   40.7500 C   0  0  0  0  0  0  0  0  0  0  0  0
   36.2950   30.9750   40.3950 C   0  0  0  0  0  0  0  0  0  0  0  0
   35.3960   31.4870   40.6970 H   0  0  0  0  0  0  0  0  0  0  0  0
   36.1060   30.6540   39.3240 H   0  0  0  0  0  0  0  0  0  0  0  0
   37.5070   31.8030   40.4390 C   0  0  0  0  0  0  0  0  0  0  0  0
   37.5380   33.0880   39.9230 C   0  0  0  0  0  0  0  0  0  0  0  0
   38.7550   33.8040   40.0140 C   0  0  0  0  0  0  0  0  0  0  0  0
   39.8030   33.1810   40.5960 N   0  0  0  0  0  0  0  0  0  0  0  0
   39.7260   31.9330   41.0820 C   0  0  0  0  0  0  0  0  0  0  0  0
   38.5890   31.2490   41.0050 N   0  0  0  0  0  0  0  0  0  0  0  0
   36.6720   33.5410   39.4670 H   0  0  0  0  0  0  0  0  0  0  0  0
   38.8490   34.8120   39.6310 H   0  0  0  0  0  0  0  0  0  0  0  0
   40.5930   31.4420   41.5540 H   0  0  0  0  0  0  0  0  0  0  0  0
  1  3  1  0  0  0  0
  1  2  1  0  0  0  0
  4 14  1  0  0  0  0
  4  1  1  0  0  0  0
  5  4  2  0  0  0  0
  6  5  1  0  0  0  0
  7  8  2  0  0  0  0
  7  5  1  0  0  0  0
  8  9  1  0  0  0  0
  9 10  2  0  0  0  0
  9 14  1  0  0  0  0
 10 11  1  0  0  0  0
 11 12  2  0  0  0  0
 13 12  1  0  0  0  0
 14 13  2  0  0  0  0
 15 18  1  0  0  0  0
 15 16  1  0  0  0  0
 15  1  1  0  0  0  0
 17 15  1  0  0  0  0
 18 23  1  0  0  0  0
 19 20  1  0  0  0  0
 19 18  2  0  0  0  0
 20 21  2  0  0  0  0
 21 22  1  0  0  0  0
 22 26  1  0  0  0  0
 23 22  2  0  0  0  0
 24 19  1  0  0  0  0
 25 20  1  0  0  0  0
M  END
>  <minimizedAffinity>
-5.05072212

$$$$
