
 OpenBabel03242515513D

 22 24  0  0  0  0  0  0  0  0999 V2000
   38.5190   31.1050   40.7170 C   0  0  0  0  0  0  0  0  0  0  0  0
   37.1960   31.5270   40.6730 C   0  0  0  0  0  0  0  0  0  0  0  0
   36.2200   30.6870   41.1660 C   0  0  0  0  0  0  0  0  0  0  0  0
   36.6010   29.4980   41.6670 N   0  0  0  0  0  0  0  0  0  0  0  0
   37.8590   29.0890   41.7130 C   0  0  0  0  0  0  0  0  0  0  0  0
   38.7940   29.9110   41.2330 N   0  0  0  0  0  0  0  0  0  0  0  0
   39.3020   31.7700   40.3250 H   0  0  0  0  0  0  0  0  0  0  0  0
   35.1880   30.9780   41.1480 H   0  0  0  0  0  0  0  0  0  0  0  0
   38.4320   27.8450   42.2180 C   0  0  0  0  0  0  0  0  0  0  0  0
   39.4350   27.7980   43.1890 C   0  0  0  0  0  0  0  0  0  0  0  0
   39.8080   28.7360   43.5900 H   0  0  0  0  0  0  0  0  0  0  0  0
   39.9880   26.6460   43.6800 C   0  0  0  0  0  3  0  0  0  0  0  0
   39.5700   25.4380   43.2250 C   0  0  0  0  0  3  0  0  0  0  0  0
   38.5850   25.4010   42.2680 C   0  0  0  0  0  0  0  0  0  0  0  0
   38.1870   24.1580   41.8310 C   0  0  0  0  0  3  0  0  0  0  0  0
   37.2050   24.0350   40.8730 C   0  0  0  0  0  3  0  0  0  0  0  0
   36.6580   25.2110   40.3910 C   0  0  0  0  0  3  0  0  0  0  0  0
   37.0960   26.4230   40.8640 C   0  0  0  0  0  3  0  0  0  0  0  0
   38.0590   26.5860   41.8060 C   0  0  0  0  0  0  0  0  0  0  0  0
   36.9440   32.8080   40.1150 N   0  0  0  0  0  0  0  0  0  0  0  0
   36.2760   32.8470   39.3080 H   0  0  0  0  0  0  0  0  0  0  0  0
   37.4880   33.5640   40.6090 H   0  0  0  0  0  0  0  0  0  0  0  0
  1  6  1  0  0  0  0
  2  1  2  0  0  0  0
  2  3  1  0  0  0  0
  3  4  2  0  0  0  0
  4  5  1  0  0  0  0
  5  9  1  0  0  0  0
  6  5  2  0  0  0  0
  7  1  1  0  0  0  0
  8  3  1  0  0  0  0
  9 10  1  0  0  0  0
 10 11  1  0  0  0  0
 10 12  2  0  0  0  0
 13 12  1  0  0  0  0
 14 13  2  0  0  0  0
 15 14  1  0  0  0  0
 16 15  2  0  0  0  0
 17 18  2  0  0  0  0
 17 16  1  0  0  0  0
 18 19  1  0  0  0  0
 19  9  2  0  0  0  0
 19 14  1  0  0  0  0
 20 22  1  0  0  0  0
 20  2  1  0  0  0  0
 21 20  1  0  0  0  0
M  END
>  <minimizedAffinity>
-5.81709909

$$$$

 OpenBabel03242515513D

 22 24  0  0  0  0  0  0  0  0999 V2000
   39.6510   30.8320   38.7100 C   0  0  0  0  0  0  0  0  0  0  0  0
   38.7200   31.4060   37.8520 C   0  0  0  0  0  0  0  0  0  0  0  0
   37.3800   31.1870   38.0920 C   0  0  0  0  0  0  0  0  0  0  0  0
   37.0420   30.4250   39.1480 N   0  0  0  0  0  0  0  0  0  0  0  0
   37.9220   29.8750   39.9700 C   0  0  0  0  0  0  0  0  0  0  0  0
   39.2160   30.0950   39.7270 N   0  0  0  0  0  0  0  0  0  0  0  0
   40.7210   31.0020   38.5240 H   0  0  0  0  0  0  0  0  0  0  0  0
   36.6330   31.6130   37.4520 H   0  0  0  0  0  0  0  0  0  0  0  0
   37.7220   29.0350   41.1460 C   0  0  0  0  0  0  0  0  0  0  0  0
   37.7830   29.5160   42.4560 C   0  0  0  0  0  0  0  0  0  0  0  0
   37.9900   30.5710   42.6080 H   0  0  0  0  0  0  0  0  0  0  0  0
   37.5990   28.7500   43.5750 C   0  0  0  0  0  3  0  0  0  0  0  0
   37.3370   27.4240   43.4610 C   0  0  0  0  0  3  0  0  0  0  0  0
   37.2600   26.8750   42.2050 C   0  0  0  0  0  0  0  0  0  0  0  0
   36.9920   25.5270   42.1280 C   0  0  0  0  0  3  0  0  0  0  0  0
   36.8990   24.9000   40.9050 C   0  0  0  0  0  3  0  0  0  0  0  0
   37.0870   25.6920   39.7870 C   0  0  0  0  0  3  0  0  0  0  0  0
   37.3530   27.0320   39.9240 C   0  0  0  0  0  3  0  0  0  0  0  0
   37.4520   27.6860   41.1090 C   0  0  0  0  0  0  0  0  0  0  0  0
   39.2260   32.1850   36.7780 N   0  0  0  0  0  0  0  0  0  0  0  0
   38.9340   31.9010   35.8120 H   0  0  0  0  0  0  0  0  0  0  0  0
   39.8470   32.9650   37.1190 H   0  0  0  0  0  0  0  0  0  0  0  0
  1  6  1  0  0  0  0
  2  3  1  0  0  0  0
  2  1  2  0  0  0  0
  3  4  2  0  0  0  0
  4  5  1  0  0  0  0
  5  9  1  0  0  0  0
  6  5  2  0  0  0  0
  7  1  1  0  0  0  0
  8  3  1  0  0  0  0
  9 10  1  0  0  0  0
 10 11  1  0  0  0  0
 10 12  2  0  0  0  0
 13 12  1  0  0  0  0
 14 13  2  0  0  0  0
 15 14  1  0  0  0  0
 16 15  2  0  0  0  0
 17 18  2  0  0  0  0
 17 16  1  0  0  0  0
 18 19  1  0  0  0  0
 19  9  2  0  0  0  0
 19 14  1  0  0  0  0
 20 22  1  0  0  0  0
 20  2  1  0  0  0  0
 21 20  1  0  0  0  0
M  END
>  <minimizedAffinity>
-5.647964

$$$$

 OpenBabel03242515513D

 22 24  0  0  0  0  0  0  0  0999 V2000
   38.3370   30.6760   40.2800 C   0  0  0  0  0  0  0  0  0  0  0  0
   37.2170   31.4290   40.6140 C   0  0  0  0  0  0  0  0  0  0  0  0
   36.0960   30.7730   41.0760 C   0  0  0  0  0  0  0  0  0  0  0  0
   36.1450   29.4320   41.1800 N   0  0  0  0  0  0  0  0  0  0  0  0
   37.2070   28.7080   40.8640 C   0  0  0  0  0  0  0  0  0  0  0  0
   38.2850   29.3550   40.4180 N   0  0  0  0  0  0  0  0  0  0  0  0
   39.2340   31.1940   39.9100 H   0  0  0  0  0  0  0  0  0  0  0  0
   35.2130   31.3200   41.3430 H   0  0  0  0  0  0  0  0  0  0  0  0
   37.4190   27.2660   40.9190 C   0  0  0  0  0  0  0  0  0  0  0  0
   36.7800   26.3600   40.0690 C   0  0  0  0  0  0  0  0  0  0  0  0
   36.0890   26.7490   39.3270 H   0  0  0  0  0  0  0  0  0  0  0  0
   36.9630   25.0040   40.1000 C   0  0  0  0  0  3  0  0  0  0  0  0
   37.8110   24.4470   41.0000 C   0  0  0  0  0  3  0  0  0  0  0  0
   38.4780   25.2730   41.8720 C   0  0  0  0  0  0  0  0  0  0  0  0
   39.3300   24.6730   42.7710 C   0  0  0  0  0  3  0  0  0  0  0  0
   40.0360   25.4310   43.6790 C   0  0  0  0  0  3  0  0  0  0  0  0
   39.8390   26.7990   43.6300 C   0  0  0  0  0  3  0  0  0  0  0  0
   38.9750   27.3420   42.7120 C   0  0  0  0  0  3  0  0  0  0  0  0
   38.2620   26.6300   41.8020 C   0  0  0  0  0  0  0  0  0  0  0  0
   37.3130   32.8370   40.4520 N   0  0  0  0  0  0  0  0  0  0  0  0
   36.5960   33.2890   39.8350 H   0  0  0  0  0  0  0  0  0  0  0  0
   38.1220   33.2390   40.9930 H   0  0  0  0  0  0  0  0  0  0  0  0
  1  6  2  0  0  0  0
  1  2  1  0  0  0  0
  2  3  2  0  0  0  0
  3  4  1  0  0  0  0
  3  8  1  0  0  0  0
  5  9  1  0  0  0  0
  5  4  2  0  0  0  0
  6  5  1  0  0  0  0
  7  1  1  0  0  0  0
  9 19  1  0  0  0  0
 10 12  1  0  0  0  0
 10  9  2  0  0  0  0
 11 10  1  0  0  0  0
 12 13  2  0  0  0  0
 13 14  1  0  0  0  0
 14 15  1  0  0  0  0
 15 16  2  0  0  0  0
 17 16  1  0  0  0  0
 18 17  2  0  0  0  0
 19 14  2  0  0  0  0
 19 18  1  0  0  0  0
 20  2  1  0  0  0  0
 20 22  1  0  0  0  0
 21 20  1  0  0  0  0
M  END
>  <minimizedAffinity>
-5.52600241

$$$$

 OpenBabel03242515513D

 22 24  0  0  0  0  0  0  0  0999 V2000
   40.8950   32.3920   37.3610 C   0  0  0  0  0  0  0  0  0  0  0  0
   41.5880   33.5360   37.7390 C   0  0  0  0  0  0  0  0  0  0  0  0
   41.3190   34.0920   38.9720 C   0  0  0  0  0  0  0  0  0  0  0  0
   40.3960   33.4950   39.7470 N   0  0  0  0  0  0  0  0  0  0  0  0
   39.7320   32.4060   39.3950 C   0  0  0  0  0  0  0  0  0  0  0  0
   40.0010   31.8780   38.2000 N   0  0  0  0  0  0  0  0  0  0  0  0
   41.1040   31.9440   36.3790 H   0  0  0  0  0  0  0  0  0  0  0  0
   41.8330   34.9740   39.2980 H   0  0  0  0  0  0  0  0  0  0  0  0
   38.7130   31.6450   40.1120 C   0  0  0  0  0  0  0  0  0  0  0  0
   37.3410   31.8280   39.9240 C   0  0  0  0  0  0  0  0  0  0  0  0
   37.0140   32.5750   39.2070 H   0  0  0  0  0  0  0  0  0  0  0  0
   36.3660   31.1270   40.5820 C   0  0  0  0  0  3  0  0  0  0  0  0
   36.7010   30.1780   41.4920 C   0  0  0  0  0  3  0  0  0  0  0  0
   38.0320   29.9390   41.7320 C   0  0  0  0  0  0  0  0  0  0  0  0
   38.3340   28.9690   42.6610 C   0  0  0  0  0  3  0  0  0  0  0  0
   39.6450   28.6700   42.9600 C   0  0  0  0  0  3  0  0  0  0  0  0
   40.6140   29.3880   42.2830 C   0  0  0  0  0  3  0  0  0  0  0  0
   40.2540   30.3450   41.3670 C   0  0  0  0  0  3  0  0  0  0  0  0
   38.9760   30.6690   41.0450 C   0  0  0  0  0  0  0  0  0  0  0  0
   42.5330   34.0540   36.8140 N   0  0  0  0  0  0  0  0  0  0  0  0
   42.4030   35.0510   36.5170 H   0  0  0  0  0  0  0  0  0  0  0  0
   43.2560   33.3350   36.5490 H   0  0  0  0  0  0  0  0  0  0  0  0
  1  2  2  0  0  0  0
  1  6  1  0  0  0  0
  2  3  1  0  0  0  0
  3  8  1  0  0  0  0
  3  4  2  0  0  0  0
  5  4  1  0  0  0  0
  5  9  1  0  0  0  0
  6  5  2  0  0  0  0
  7  1  1  0  0  0  0
  9 19  1  0  0  0  0
 10  9  2  0  0  0  0
 10 12  1  0  0  0  0
 11 10  1  0  0  0  0
 12 13  2  0  0  0  0
 13 14  1  0  0  0  0
 14 15  1  0  0  0  0
 15 16  2  0  0  0  0
 17 16  1  0  0  0  0
 18 17  2  0  0  0  0
 19 18  1  0  0  0  0
 19 14  2  0  0  0  0
 20  2  1  0  0  0  0
 21 20  1  0  0  0  0
 22 20  1  0  0  0  0
M  END
>  <minimizedAffinity>
-5.46169043

$$$$

 OpenBabel03242515513D

 22 24  0  0  0  0  0  0  0  0999 V2000
   36.1740   30.8240   41.0550 C   0  0  0  0  0  0  0  0  0  0  0  0
   37.1610   31.5230   40.3710 C   0  0  0  0  0  0  0  0  0  0  0  0
   38.2040   30.8140   39.8120 C   0  0  0  0  0  0  0  0  0  0  0  0
   38.2090   29.4760   39.9590 N   0  0  0  0  0  0  0  0  0  0  0  0
   37.2740   28.8040   40.6090 C   0  0  0  0  0  0  0  0  0  0  0  0
   36.2700   29.5010   41.1450 N   0  0  0  0  0  0  0  0  0  0  0  0
   35.3410   31.3840   41.5030 H   0  0  0  0  0  0  0  0  0  0  0  0
   38.9840   31.3180   39.2780 H   0  0  0  0  0  0  0  0  0  0  0  0
   37.1350   27.3720   40.8550 C   0  0  0  0  0  0  0  0  0  0  0  0
   37.4910   26.7580   42.0580 C   0  0  0  0  0  0  0  0  0  0  0  0
   37.8920   27.3790   42.8540 H   0  0  0  0  0  0  0  0  0  0  0  0
   37.3700   25.4190   42.3130 C   0  0  0  0  0  3  0  0  0  0  0  0
   36.8770   24.5830   41.3660 C   0  0  0  0  0  3  0  0  0  0  0  0
   36.5030   25.1110   40.1540 C   0  0  0  0  0  0  0  0  0  0  0  0
   36.0080   24.2330   39.2170 C   0  0  0  0  0  3  0  0  0  0  0  0
   35.6110   24.6830   37.9770 C   0  0  0  0  0  3  0  0  0  0  0  0
   35.7400   26.0390   37.7400 C   0  0  0  0  0  3  0  0  0  0  0  0
   36.2420   26.8680   38.7120 C   0  0  0  0  0  3  0  0  0  0  0  0
   36.6430   26.4640   39.9440 C   0  0  0  0  0  0  0  0  0  0  0  0
   37.0220   32.9350   40.2980 N   0  0  0  0  0  0  0  0  0  0  0  0
   37.8210   33.5060   40.6650 H   0  0  0  0  0  0  0  0  0  0  0  0
   36.1000   33.2150   39.8710 H   0  0  0  0  0  0  0  0  0  0  0  0
  1  6  1  0  0  0  0
  1  7  1  0  0  0  0
  2  1  2  0  0  0  0
  3  4  2  0  0  0  0
  3  2  1  0  0  0  0
  4  5  1  0  0  0  0
  5  9  1  0  0  0  0
  5  6  2  0  0  0  0
  8  3  1  0  0  0  0
  9 10  1  0  0  0  0
 10 12  2  0  0  0  0
 10 11  1  0  0  0  0
 13 12  1  0  0  0  0
 14 13  2  0  0  0  0
 15 14  1  0  0  0  0
 16 15  2  0  0  0  0
 17 16  1  0  0  0  0
 17 18  2  0  0  0  0
 18 19  1  0  0  0  0
 19 14  1  0  0  0  0
 19  9  2  0  0  0  0
 20  2  1  0  0  0  0
 20 21  1  0  0  0  0
 22 20  1  0  0  0  0
M  END
>  <minimizedAffinity>
-5.38224745

$$$$

 OpenBabel03242515513D

 22 24  0  0  0  0  0  0  0  0999 V2000
   41.0540   33.6240   38.9370 C   0  0  0  0  0  0  0  0  0  0  0  0
   41.5230   33.1620   37.7130 C   0  0  0  0  0  0  0  0  0  0  0  0
   41.2280   31.8670   37.3410 C   0  0  0  0  0  0  0  0  0  0  0  0
   40.4990   31.1160   38.1860 N   0  0  0  0  0  0  0  0  0  0  0  0
   40.0490   31.5480   39.3530 C   0  0  0  0  0  0  0  0  0  0  0  0
   40.3410   32.8030   39.7020 N   0  0  0  0  0  0  0  0  0  0  0  0
   41.2870   34.6550   39.2400 H   0  0  0  0  0  0  0  0  0  0  0  0
   41.5720   31.4760   36.4040 H   0  0  0  0  0  0  0  0  0  0  0  0
   39.2550   30.8690   40.3720 C   0  0  0  0  0  0  0  0  0  0  0  0
   39.7030   30.6460   41.6760 C   0  0  0  0  0  0  0  0  0  0  0  0
   40.6950   30.9970   41.9470 H   0  0  0  0  0  0  0  0  0  0  0  0
   38.9790   30.0130   42.6490 C   0  0  0  0  0  3  0  0  0  0  0  0
   37.7320   29.5480   42.3820 C   0  0  0  0  0  3  0  0  0  0  0  0
   37.2200   29.7290   41.1210 C   0  0  0  0  0  0  0  0  0  0  0  0
   35.9530   29.2450   40.8870 C   0  0  0  0  0  3  0  0  0  0  0  0
   35.3680   29.3860   39.6470 C   0  0  0  0  0  3  0  0  0  0  0  0
   36.1160   30.0300   38.6790 C   0  0  0  0  0  3  0  0  0  0  0  0
   37.3760   30.4910   38.9690 C   0  0  0  0  0  3  0  0  0  0  0  0
   37.9870   30.3730   40.1760 C   0  0  0  0  0  0  0  0  0  0  0  0
   42.2810   34.0700   36.9270 N   0  0  0  0  0  0  0  0  0  0  0  0
   43.2420   33.7600   36.6460 H   0  0  0  0  0  0  0  0  0  0  0  0
   41.7490   34.9580   36.7330 H   0  0  0  0  0  0  0  0  0  0  0  0
  1  7  1  0  0  0  0
  1  6  1  0  0  0  0
  2  1  2  0  0  0  0
  3  2  1  0  0  0  0
  3  4  2  0  0  0  0
  4  5  1  0  0  0  0
  5  6  2  0  0  0  0
  5  9  1  0  0  0  0
  8  3  1  0  0  0  0
  9 10  1  0  0  0  0
 10 11  1  0  0  0  0
 10 12  2  0  0  0  0
 13 12  1  0  0  0  0
 14 13  2  0  0  0  0
 15 14  1  0  0  0  0
 16 15  2  0  0  0  0
 17 18  2  0  0  0  0
 17 16  1  0  0  0  0
 18 19  1  0  0  0  0
 19  9  2  0  0  0  0
 19 14  1  0  0  0  0
 20  2  1  0  0  0  0
 21 20  1  0  0  0  0
 22 20  1  0  0  0  0
M  END
>  <minimizedAffinity>
-5.33952188

$$$$

 OpenBabel03242515513D

 22 24  0  0  0  0  0  0  0  0999 V2000
   39.9410   30.3750   37.8960 C   0  0  0  0  0  0  0  0  0  0  0  0
   39.6010   31.7230   37.9010 C   0  0  0  0  0  0  0  0  0  0  0  0
   39.3530   32.3350   39.1120 C   0  0  0  0  0  0  0  0  0  0  0  0
   39.4540   31.5920   40.2290 N   0  0  0  0  0  0  0  0  0  0  0  0
   39.7770   30.3090   40.2320 C   0  0  0  0  0  0  0  0  0  0  0  0
   40.0150   29.7280   39.0550 N   0  0  0  0  0  0  0  0  0  0  0  0
   40.1390   29.8810   36.9340 H   0  0  0  0  0  0  0  0  0  0  0  0
   39.0870   33.3720   39.1560 H   0  0  0  0  0  0  0  0  0  0  0  0
   39.9280   29.3730   41.3430 C   0  0  0  0  0  0  0  0  0  0  0  0
   41.1590   29.0630   41.9270 C   0  0  0  0  0  0  0  0  0  0  0  0
   42.0510   29.5430   41.5350 H   0  0  0  0  0  0  0  0  0  0  0  0
   41.3270   28.1910   42.9680 C   0  0  0  0  0  3  0  0  0  0  0  0
   40.2570   27.5540   43.5080 C   0  0  0  0  0  3  0  0  0  0  0  0
   39.0120   27.8070   42.9880 C   0  0  0  0  0  0  0  0  0  0  0  0
   37.9500   27.1430   43.5600 C   0  0  0  0  0  3  0  0  0  0  0  0
   36.6680   27.3420   43.0960 C   0  0  0  0  0  3  0  0  0  0  0  0
   36.5200   28.2280   42.0450 C   0  0  0  0  0  3  0  0  0  0  0  0
   37.6150   28.8600   41.5130 C   0  0  0  0  0  3  0  0  0  0  0  0
   38.8930   28.6930   41.9410 C   0  0  0  0  0  0  0  0  0  0  0  0
   39.5330   32.3770   36.6430 N   0  0  0  0  0  0  0  0  0  0  0  0
   38.6250   32.8450   36.4040 H   0  0  0  0  0  0  0  0  0  0  0  0
   40.4370   32.2950   36.1090 H   0  0  0  0  0  0  0  0  0  0  0  0
  1  2  2  0  0  0  0
  1  6  1  0  0  0  0
  2  3  1  0  0  0  0
  3  8  1  0  0  0  0
  3  4  2  0  0  0  0
  4  5  1  0  0  0  0
  5  9  1  0  0  0  0
  6  5  2  0  0  0  0
  7  1  1  0  0  0  0
  9 10  2  0  0  0  0
  9 19  1  0  0  0  0
 10 12  1  0  0  0  0
 11 10  1  0  0  0  0
 12 13  2  0  0  0  0
 14 13  1  0  0  0  0
 14 15  1  0  0  0  0
 16 15  2  0  0  0  0
 17 16  1  0  0  0  0
 18 19  1  0  0  0  0
 18 17  2  0  0  0  0
 19 14  2  0  0  0  0
 20  2  1  0  0  0  0
 21 20  1  0  0  0  0
 22 20  1  0  0  0  0
M  END
>  <minimizedAffinity>
-5.28207922

$$$$

 OpenBabel03242515513D

 22 24  0  0  0  0  0  0  0  0999 V2000
   38.0980   30.2040   37.5920 C   0  0  0  0  0  0  0  0  0  0  0  0
   38.4090   31.5570   37.6450 C   0  0  0  0  0  0  0  0  0  0  0  0
   38.5550   32.1530   38.8790 C   0  0  0  0  0  0  0  0  0  0  0  0
   38.3880   31.3880   39.9740 N   0  0  0  0  0  0  0  0  0  0  0  0
   38.0920   30.1000   39.9330 C   0  0  0  0  0  0  0  0  0  0  0  0
   37.9530   29.5350   38.7320 N   0  0  0  0  0  0  0  0  0  0  0  0
   37.9790   29.7240   36.6100 H   0  0  0  0  0  0  0  0  0  0  0  0
   38.7950   33.1950   38.9600 H   0  0  0  0  0  0  0  0  0  0  0  0
   37.8810   29.1420   41.0140 C   0  0  0  0  0  0  0  0  0  0  0  0
   36.6250   28.6380   41.3630 C   0  0  0  0  0  0  0  0  0  0  0  0
   35.7600   28.9770   40.8000 H   0  0  0  0  0  0  0  0  0  0  0  0
   36.4010   27.7400   42.3710 C   0  0  0  0  0  3  0  0  0  0  0  0
   37.4350   27.2730   43.1150 C   0  0  0  0  0  3  0  0  0  0  0  0
   38.7020   27.7220   42.8330 C   0  0  0  0  0  0  0  0  0  0  0  0
   39.7260   27.2270   43.6090 C   0  0  0  0  0  3  0  0  0  0  0  0
   41.0260   27.6270   43.3900 C   0  0  0  0  0  3  0  0  0  0  0  0
   41.2310   28.5340   42.3660 C   0  0  0  0  0  3  0  0  0  0  0  0
   40.1710   28.9940   41.6260 C   0  0  0  0  0  3  0  0  0  0  0  0
   38.8780   28.6250   41.8090 C   0  0  0  0  0  0  0  0  0  0  0  0
   38.5550   32.2360   36.4050 N   0  0  0  0  0  0  0  0  0  0  0  0
   37.9450   33.0740   36.2530 H   0  0  0  0  0  0  0  0  0  0  0  0
   39.2810   31.7800   35.7930 H   0  0  0  0  0  0  0  0  0  0  0  0
  1  2  2  0  0  0  0
  1  6  1  0  0  0  0
  2  3  1  0  0  0  0
  3  8  1  0  0  0  0
  3  4  2  0  0  0  0
  5  4  1  0  0  0  0
  5  9  1  0  0  0  0
  6  5  2  0  0  0  0
  7  1  1  0  0  0  0
  9 10  2  0  0  0  0
  9 19  1  0  0  0  0
 10 12  1  0  0  0  0
 11 10  1  0  0  0  0
 12 13  2  0  0  0  0
 14 13  1  0  0  0  0
 14 15  1  0  0  0  0
 16 15  2  0  0  0  0
 17 16  1  0  0  0  0
 18 19  1  0  0  0  0
 18 17  2  0  0  0  0
 19 14  2  0  0  0  0
 20  2  1  0  0  0  0
 21 20  1  0  0  0  0
 22 20  1  0  0  0  0
M  END
>  <minimizedAffinity>
-5.23443079

$$$$

 OpenBabel03242515513D

 22 24  0  0  0  0  0  0  0  0999 V2000
   38.1450   27.6910   36.5830 C   0  0  0  0  0  0  0  0  0  0  0  0
   37.0720   28.2990   35.9430 C   0  0  0  0  0  0  0  0  0  0  0  0
   35.8500   28.3200   36.5820 C   0  0  0  0  0  0  0  0  0  0  0  0
   35.7610   27.7490   37.7970 N   0  0  0  0  0  0  0  0  0  0  0  0
   36.7780   27.1680   38.4130 C   0  0  0  0  0  0  0  0  0  0  0  0
   37.9550   27.1540   37.7840 N   0  0  0  0  0  0  0  0  0  0  0  0
   39.1220   27.6700   36.0780 H   0  0  0  0  0  0  0  0  0  0  0  0
   34.9990   28.7800   36.1200 H   0  0  0  0  0  0  0  0  0  0  0  0
   36.8470   26.5110   39.7140 C   0  0  0  0  0  0  0  0  0  0  0  0
   36.7350   25.1290   39.8870 C   0  0  0  0  0  0  0  0  0  0  0  0
   36.5890   24.5100   39.0060 H   0  0  0  0  0  0  0  0  0  0  0  0
   36.7960   24.4890   41.0950 C   0  0  0  0  0  3  0  0  0  0  0  0
   36.9760   25.1990   42.2380 C   0  0  0  0  0  3  0  0  0  0  0  0
   37.0960   26.5640   42.1510 C   0  0  0  0  0  0  0  0  0  0  0  0
   37.2770   27.2510   43.3300 C   0  0  0  0  0  3  0  0  0  0  0  0
   37.4060   28.6230   43.3280 C   0  0  0  0  0  3  0  0  0  0  0  0
   37.3420   29.2490   42.0970 C   0  0  0  0  0  3  0  0  0  0  0  0
   37.1580   28.5130   40.9540 C   0  0  0  0  0  3  0  0  0  0  0  0
   37.0280   27.1620   40.9130 C   0  0  0  0  0  0  0  0  0  0  0  0
   37.3170   28.8600   34.6620 N   0  0  0  0  0  0  0  0  0  0  0  0
   36.7170   28.5150   33.8750 H   0  0  0  0  0  0  0  0  0  0  0  0
   38.0960   29.5690   34.6870 H   0  0  0  0  0  0  0  0  0  0  0  0
  1  6  1  0  0  0  0
  2  3  1  0  0  0  0
  2  1  2  0  0  0  0
  3  4  2  0  0  0  0
  4  5  1  0  0  0  0
  5  9  1  0  0  0  0
  6  5  2  0  0  0  0
  7  1  1  0  0  0  0
  8  3  1  0  0  0  0
  9 10  2  0  0  0  0
  9 19  1  0  0  0  0
 10 12  1  0  0  0  0
 11 10  1  0  0  0  0
 12 13  2  0  0  0  0
 14 13  1  0  0  0  0
 14 15  1  0  0  0  0
 16 15  2  0  0  0  0
 17 16  1  0  0  0  0
 18 17  2  0  0  0  0
 19 18  1  0  0  0  0
 19 14  2  0  0  0  0
 20 22  1  0  0  0  0
 20  2  1  0  0  0  0
 21 20  1  0  0  0  0
M  END
>  <minimizedAffinity>
-5.2289505

$$$$
