
 OpenBabel03252507263D

 29 32  0  0  0  0  0  0  0  0999 V2000
   45.5940   33.9600   45.5510 C   0  0  0  0  0  0  0  0  0  0  0  0
   44.6840   34.9940   45.7850 C   0  0  0  0  0  0  0  0  0  0  0  0
   44.4760   35.9290   44.7730 C   0  0  0  0  0  0  0  0  0  0  0  0
   45.1710   35.7890   43.5980 N   0  0  0  0  0  0  0  0  0  0  0  0
   46.0300   34.7920   43.4030 C   0  0  0  0  0  0  0  0  0  0  0  0
   46.2210   33.9100   44.3710 N   0  0  0  0  0  0  0  0  0  0  0  0
   44.1020   35.1070   46.6570 H   0  0  0  0  0  0  0  0  0  0  0  0
   43.7840   36.7370   44.9240 H   0  0  0  0  0  0  0  0  0  0  0  0
   45.8970   32.8540   46.4350 C   0  0  0  0  0  0  0  0  0  0  0  0
   45.3380   32.8750   47.7200 C   0  0  0  0  0  0  0  0  0  0  0  0
   44.7080   33.7110   48.0310 H   0  0  0  0  0  0  0  0  0  0  0  0
   45.5120   31.9020   48.6740 C   0  0  0  0  0  3  0  0  0  0  0  0
   46.2880   30.8030   48.3860 C   0  0  0  0  0  3  0  0  0  0  0  0
   46.8620   30.7160   47.1480 C   0  0  0  0  0  0  0  0  0  0  0  0
   47.6150   29.6160   46.8030 C   0  0  0  0  0  3  0  0  0  0  0  0
   48.1950   29.4490   45.5400 C   0  0  0  0  0  3  0  0  0  0  0  0
   47.9510   30.4930   44.6410 C   0  0  0  0  0  3  0  0  0  0  0  0
   47.2060   31.5660   45.0060 C   0  0  0  0  0  3  0  0  0  0  0  0
   46.6450   31.7240   46.2460 C   0  0  0  0  0  0  0  0  0  0  0  0
   46.7500   34.6750   42.1360 C   0  0  0  0  0  0  0  0  0  0  0  0
   47.9450   35.3230   41.9670 C   0  0  0  0  0  0  0  0  0  0  0  0
   48.7010   35.2800   40.8090 C   0  0  0  0  0  0  0  0  0  0  0  0
   48.1450   34.5070   39.7970 C   0  0  0  0  0  0  0  0  0  0  0  0
   46.9360   33.8450   39.9550 C   0  0  0  0  0  0  0  0  0  0  0  0
   46.2580   33.9440   41.1330 N   0  0  0  0  0  0  0  0  0  0  0  0
   48.3260   35.9160   42.8060 H   0  0  0  0  0  0  0  0  0  0  0  0
   49.6390   35.7830   40.6610 H   0  0  0  0  0  0  0  0  0  0  0  0
   48.6700   34.4130   38.8460 H   0  0  0  0  0  0  0  0  0  0  0  0
   46.5690   33.2600   39.1160 H   0  0  0  0  0  0  0  0  0  0  0  0
  1  2  1  0  0  0  0
  1  9  1  0  0  0  0
  2  7  1  0  0  0  0
  3  8  1  0  0  0  0
  3  2  2  0  0  0  0
  4  3  1  0  0  0  0
  5  4  2  0  0  0  0
  5  6  1  0  0  0  0
  6  1  2  0  0  0  0
  9 10  1  0  0  0  0
 10 11  1  0  0  0  0
 10 12  2  0  0  0  0
 13 12  1  0  0  0  0
 14 13  2  0  0  0  0
 15 14  1  0  0  0  0
 16 15  2  0  0  0  0
 17 18  2  0  0  0  0
 17 16  1  0  0  0  0
 18 19  1  0  0  0  0
 19  9  2  0  0  0  0
 19 14  1  0  0  0  0
 20  5  1  0  0  0  0
 21 20  1  0  0  0  0
 21 26  1  0  0  0  0
 22 21  2  0  0  0  0
 23 24  2  0  0  0  0
 23 22  1  0  0  0  0
 24 25  1  0  0  0  0
 25 20  2  0  0  0  0
 27 22  1  0  0  0  0
 28 23  1  0  0  0  0
 29 24  1  0  0  0  0
M  END
>  <minimizedAffinity>
-6.94440651

>  <minimizedRMSD>
0.138417408

$$$$
