
 OpenBabel03242511483D

 46 49  0  0  0  0  0  0  0  0999 V2000
   36.2270   30.0870   39.9700 C   0  0  0  0  0  0  0  0  0  0  0  0
   36.7750   29.4520   41.0970 C   0  0  0  0  0  0  0  0  0  0  0  0
   37.7460   30.1380   41.7810 C   0  0  0  0  0  0  0  0  0  0  0  0
   38.1370   31.3620   41.3670 N   0  0  0  0  0  0  0  0  0  0  0  0
   37.5690   31.9170   40.2750 C   0  0  0  0  0  0  0  0  0  0  0  0
   36.6450   31.3150   39.5870 N   0  0  0  0  0  0  0  0  0  0  0  0
   35.4560   29.5540   39.4210 H   0  0  0  0  0  0  0  0  0  0  0  0
   36.4390   28.4620   41.4070 H   0  0  0  0  0  0  0  0  0  0  0  0
   38.0470   33.2630   39.8800 C   0  0  0  0  0  0  0  0  0  0  0  0
   37.3560   34.0650   40.2160 H   0  0  0  0  0  0  0  0  0  0  0  0
   38.0700   33.3200   38.7630 H   0  0  0  0  0  0  0  0  0  0  0  0
   39.4560   33.4440   40.3650 C   0  0  0  0  0  0  0  0  0  0  0  0
   39.7410   32.6450   41.0970 H   0  0  0  0  0  0  0  0  0  0  0  0
   39.4900   34.3980   40.9390 H   0  0  0  0  0  0  0  0  0  0  0  0
   40.4220   33.4390   39.2910 C   0  0  0  0  0  0  0  0  0  0  0  0
   40.6010   32.5180   38.2910 C   0  0  0  0  0  0  0  0  0  0  0  0
   41.5450   32.6120   37.3260 C   0  0  0  0  0  0  0  0  0  0  0  0
   42.3880   33.7080   37.3470 C   0  0  0  0  0  0  0  0  0  0  0  0
   42.2240   34.6410   38.3430 C   0  0  0  0  0  0  0  0  0  0  0  0
   41.2540   34.5200   39.3120 C   0  0  0  0  0  0  0  0  0  0  0  0
   39.9080   31.6690   38.3170 H   0  0  0  0  0  0  0  0  0  0  0  0
   41.6010   31.8310   36.5820 H   0  0  0  0  0  0  0  0  0  0  0  0
   43.1300   33.7300   36.5450 H   0  0  0  0  0  0  0  0  0  0  0  0
   42.9690   35.4400   38.2150 H   0  0  0  0  0  0  0  0  0  0  0  0
   42.2510   35.4830   41.2910 C   0  0  0  0  0  0  0  0  0  0  0  0
   43.0130   34.5780   41.7950 O   0  0  0  0  0  0  0  0  0  0  0  0
   41.3660   35.6590   40.1860 N   0  0  0  0  0  0  0  0  0  0  0  0
   42.5260   36.1820   42.0790 H   0  0  0  0  0  0  0  0  0  0  0  0
   40.9360   36.6010   40.1900 H   0  0  0  0  0  0  0  0  0  0  0  0
   38.3290   29.4610   42.9790 C   0  0  0  0  0  0  0  0  0  0  0  0
   39.4160   29.2530   42.7420 H   0  0  0  0  0  0  0  0  0  0  0  0
   38.3520   30.1910   43.7960 H   0  0  0  0  0  0  0  0  0  0  0  0
   37.6170   28.1720   43.2840 C   0  0  0  0  0  0  0  0  0  0  0  0
   37.2830   28.2580   44.3600 H   0  0  0  0  0  0  0  0  0  0  0  0
   36.6800   28.1160   42.7120 H   0  0  0  0  0  0  0  0  0  0  0  0
   38.4740   26.9910   43.1240 C   0  0  0  0  0  0  0  0  0  0  0  0
   39.6740   26.9940   43.8210 C   0  0  0  0  0  0  0  0  0  0  0  0
   39.9820   27.8190   44.4430 H   0  0  0  0  0  0  0  0  0  0  0  0
   40.5820   25.9390   43.7750 C   0  0  0  0  0  3  0  0  0  0  0  0
   40.2780   24.8380   43.0030 C   0  0  0  0  0  3  0  0  0  0  0  0
   39.0830   24.8180   42.3030 C   0  0  0  0  0  0  0  0  0  0  0  0
   38.8050   23.6960   41.5320 C   0  0  0  0  0  3  0  0  0  0  0  0
   37.5930   23.7170   40.8380 C   0  0  0  0  0  3  0  0  0  0  0  0
   36.7120   24.7620   40.8930 C   0  0  0  0  0  3  0  0  0  0  0  0
   37.0260   25.8560   41.6700 C   0  0  0  0  0  3  0  0  0  0  0  0
   38.2080   25.8820   42.3710 C   0  0  0  0  0  0  0  0  0  0  0  0
  1  2  1  0  0  0  0
  2  8  1  0  0  0  0
  2  3  2  0  0  0  0
  3 30  1  0  0  0  0
  4  3  1  0  0  0  0
  5  4  2  0  0  0  0
  6  1  2  0  0  0  0
  6  5  1  0  0  0  0
  7  1  1  0  0  0  0
  9 10  1  0  0  0  0
  9  5  1  0  0  0  0
  9 12  1  0  0  0  0
 11  9  1  0  0  0  0
 12 14  1  0  0  0  0
 12 13  1  0  0  0  0
 15 20  1  0  0  0  0
 15 12  1  0  0  0  0
 16 21  1  0  0  0  0
 16 15  2  0  0  0  0
 17 18  2  0  0  0  0
 17 16  1  0  0  0  0
 18 19  1  0  0  0  0
 19 20  2  0  0  0  0
 20 27  1  0  0  0  0
 22 17  1  0  0  0  0
 23 18  1  0  0  0  0
 24 19  1  0  0  0  0
 25 26  2  0  0  0  0
 25 28  1  0  0  0  0
 27 29  1  0  0  0  0
 27 25  1  0  0  0  0
 30 33  1  0  0  0  0
 30 32  1  0  0  0  0
 31 30  1  0  0  0  0
 33 34  1  0  0  0  0
 35 33  1  0  0  0  0
 36 33  1  0  0  0  0
 36 37  1  0  0  0  0
 37 38  1  0  0  0  0
 39 37  2  0  0  0  0
 40 39  1  0  0  0  0
 41 46  1  0  0  0  0
 41 40  2  0  0  0  0
 42 41  1  0  0  0  0
 43 44  1  0  0  0  0
 43 42  2  0  0  0  0
 44 45  2  0  0  0  0
 45 46  1  0  0  0  0
 46 36  2  0  0  0  0
M  END
>  <minimizedAffinity>
-7.0154562

$$$$

 OpenBabel03242511483D

 46 49  0  0  0  0  0  0  0  0999 V2000
   35.8670   29.0620   39.1490 C   0  0  0  0  0  0  0  0  0  0  0  0
   36.1130   28.5980   40.4520 C   0  0  0  0  0  0  0  0  0  0  0  0
   36.7750   29.4530   41.2970 C   0  0  0  0  0  0  0  0  0  0  0  0
   37.1600   30.6730   40.8690 N   0  0  0  0  0  0  0  0  0  0  0  0
   36.8930   31.0590   39.6020 C   0  0  0  0  0  0  0  0  0  0  0  0
   36.2690   30.2920   38.7570 N   0  0  0  0  0  0  0  0  0  0  0  0
   35.3430   28.3940   38.4710 H   0  0  0  0  0  0  0  0  0  0  0  0
   35.7900   27.6070   40.7690 H   0  0  0  0  0  0  0  0  0  0  0  0
   37.3450   32.4120   39.2020 C   0  0  0  0  0  0  0  0  0  0  0  0
   36.5910   32.9330   38.5750 H   0  0  0  0  0  0  0  0  0  0  0  0
   38.2600   32.3090   38.5680 H   0  0  0  0  0  0  0  0  0  0  0  0
   37.7380   33.1790   40.4310 C   0  0  0  0  0  0  0  0  0  0  0  0
   37.7820   32.5140   41.3310 H   0  0  0  0  0  0  0  0  0  0  0  0
   36.9220   33.9090   40.6420 H   0  0  0  0  0  0  0  0  0  0  0  0
   39.0140   33.8400   40.2930 C   0  0  0  0  0  0  0  0  0  0  0  0
   39.2860   35.1360   39.9380 C   0  0  0  0  0  0  0  0  0  0  0  0
   40.5310   35.6560   39.8380 C   0  0  0  0  0  0  0  0  0  0  0  0
   41.6040   34.8290   40.1110 C   0  0  0  0  0  0  0  0  0  0  0  0
   41.3520   33.5240   40.4670 C   0  0  0  0  0  0  0  0  0  0  0  0
   40.0740   33.0220   40.5600 C   0  0  0  0  0  0  0  0  0  0  0  0
   38.4020   35.7520   39.7330 H   0  0  0  0  0  0  0  0  0  0  0  0
   40.6350   36.6930   39.5520 H   0  0  0  0  0  0  0  0  0  0  0  0
   42.5840   35.3020   40.0130 H   0  0  0  0  0  0  0  0  0  0  0  0
   42.3070   33.0090   40.6460 H   0  0  0  0  0  0  0  0  0  0  0  0
   40.5780   30.7510   39.9080 C   0  0  0  0  0  0  0  0  0  0  0  0
   40.8800   30.7870   38.6590 O   0  0  0  0  0  0  0  0  0  0  0  0
   40.1770   31.6400   40.9500 N   0  0  0  0  0  0  0  0  0  0  0  0
   40.7460   29.6760   39.9390 H   0  0  0  0  0  0  0  0  0  0  0  0
   40.0200   31.1350   41.8400 H   0  0  0  0  0  0  0  0  0  0  0  0
   37.0360   28.9570   42.6830 C   0  0  0  0  0  0  0  0  0  0  0  0
   38.1540   29.0180   42.8470 H   0  0  0  0  0  0  0  0  0  0  0  0
   36.6070   29.6840   43.3830 H   0  0  0  0  0  0  0  0  0  0  0  0
   36.5690   27.5390   42.8590 C   0  0  0  0  0  0  0  0  0  0  0  0
   36.0690   27.5080   43.8720 H   0  0  0  0  0  0  0  0  0  0  0  0
   35.7590   27.3190   42.1480 H   0  0  0  0  0  0  0  0  0  0  0  0
   37.6660   26.5640   42.8180 C   0  0  0  0  0  0  0  0  0  0  0  0
   38.7860   26.8560   43.5840 C   0  0  0  0  0  0  0  0  0  0  0  0
   38.8670   27.7520   44.1760 H   0  0  0  0  0  0  0  0  0  0  0  0
   39.8980   26.0200   43.6530 C   0  0  0  0  0  3  0  0  0  0  0  0
   39.8890   24.8470   42.9270 C   0  0  0  0  0  3  0  0  0  0  0  0
   38.7790   24.5410   42.1580 C   0  0  0  0  0  0  0  0  0  0  0  0
   38.8010   23.3540   41.4360 C   0  0  0  0  0  3  0  0  0  0  0  0
   37.6650   23.0840   40.6700 C   0  0  0  0  0  3  0  0  0  0  0  0
   36.5790   23.9170   40.6140 C   0  0  0  0  0  3  0  0  0  0  0  0
   36.5980   25.0840   41.3450 C   0  0  0  0  0  3  0  0  0  0  0  0
   37.6950   25.3940   42.1130 C   0  0  0  0  0  0  0  0  0  0  0  0
  1  2  1  0  0  0  0
  2  8  1  0  0  0  0
  2  3  2  0  0  0  0
  3 30  1  0  0  0  0
  4  3  1  0  0  0  0
  5  4  2  0  0  0  0
  6  1  2  0  0  0  0
  6  5  1  0  0  0  0
  7  1  1  0  0  0  0
  9  5  1  0  0  0  0
  9 12  1  0  0  0  0
 10  9  1  0  0  0  0
 11  9  1  0  0  0  0
 12 14  1  0  0  0  0
 12 13  1  0  0  0  0
 15 12  1  0  0  0  0
 15 20  1  0  0  0  0
 16 15  2  0  0  0  0
 17 16  1  0  0  0  0
 17 18  2  0  0  0  0
 18 19  1  0  0  0  0
 19 20  2  0  0  0  0
 19 24  1  0  0  0  0
 20 27  1  0  0  0  0
 21 16  1  0  0  0  0
 22 17  1  0  0  0  0
 23 18  1  0  0  0  0
 25 28  1  0  0  0  0
 25 27  1  0  0  0  0
 26 25  2  0  0  0  0
 27 29  1  0  0  0  0
 30 31  1  0  0  0  0
 30 33  1  0  0  0  0
 30 32  1  0  0  0  0
 33 34  1  0  0  0  0
 35 33  1  0  0  0  0
 36 33  1  0  0  0  0
 36 37  1  0  0  0  0
 37 39  2  0  0  0  0
 37 38  1  0  0  0  0
 40 39  1  0  0  0  0
 41 40  2  0  0  0  0
 42 41  1  0  0  0  0
 43 42  2  0  0  0  0
 44 43  1  0  0  0  0
 44 45  2  0  0  0  0
 45 46  1  0  0  0  0
 46 41  1  0  0  0  0
 46 36  2  0  0  0  0
M  END
>  <minimizedAffinity>
-6.70414066

$$$$

 OpenBabel03242511483D

 46 49  0  0  0  0  0  0  0  0999 V2000
   43.3960   30.0450   44.0630 C   0  0  0  0  0  0  0  0  0  0  0  0
   43.0470   28.6850   44.0190 C   0  0  0  0  0  0  0  0  0  0  0  0
   42.0140   28.3390   43.1850 C   0  0  0  0  0  0  0  0  0  0  0  0
   41.3810   29.2820   42.4550 N   0  0  0  0  0  0  0  0  0  0  0  0
   41.7660   30.5730   42.5440 C   0  0  0  0  0  0  0  0  0  0  0  0
   42.7380   30.9600   43.3160 N   0  0  0  0  0  0  0  0  0  0  0  0
   44.2130   30.3310   44.7190 H   0  0  0  0  0  0  0  0  0  0  0  0
   43.5760   27.9460   44.6210 H   0  0  0  0  0  0  0  0  0  0  0  0
   41.0270   31.5530   41.7130 C   0  0  0  0  0  0  0  0  0  0  0  0
   41.2210   31.4100   40.6290 H   0  0  0  0  0  0  0  0  0  0  0  0
   41.3930   32.5800   41.9620 H   0  0  0  0  0  0  0  0  0  0  0  0
   39.5700   31.5000   42.0740 C   0  0  0  0  0  0  0  0  0  0  0  0
   39.2510   32.4250   42.6190 H   0  0  0  0  0  0  0  0  0  0  0  0
   39.4390   30.6660   42.8020 H   0  0  0  0  0  0  0  0  0  0  0  0
   38.7150   31.3340   40.9220 C   0  0  0  0  0  0  0  0  0  0  0  0
   38.3990   30.1910   40.2340 C   0  0  0  0  0  0  0  0  0  0  0  0
   37.5790   30.1500   39.1590 C   0  0  0  0  0  0  0  0  0  0  0  0
   37.0220   31.3360   38.7200 C   0  0  0  0  0  0  0  0  0  0  0  0
   37.3290   32.4930   39.3960 C   0  0  0  0  0  0  0  0  0  0  0  0
   38.1660   32.5060   40.4880 C   0  0  0  0  0  0  0  0  0  0  0  0
   38.8640   29.2780   40.6220 H   0  0  0  0  0  0  0  0  0  0  0  0
   37.3940   29.1930   38.6890 H   0  0  0  0  0  0  0  0  0  0  0  0
   36.3700   31.2410   37.8480 H   0  0  0  0  0  0  0  0  0  0  0  0
   36.8080   33.3370   38.9210 H   0  0  0  0  0  0  0  0  0  0  0  0
   39.3280   34.6210   40.3550 C   0  0  0  0  0  0  0  0  0  0  0  0
   40.2860   34.4600   39.5120 O   0  0  0  0  0  0  0  0  0  0  0  0
   38.2680   33.8690   40.9430 N   0  0  0  0  0  0  0  0  0  0  0  0
   39.6100   35.6610   40.5080 H   0  0  0  0  0  0  0  0  0  0  0  0
   37.7290   34.4370   41.6200 H   0  0  0  0  0  0  0  0  0  0  0  0
   41.6430   26.8920   43.1400 C   0  0  0  0  0  0  0  0  0  0  0  0
   41.3530   26.6610   42.0710 H   0  0  0  0  0  0  0  0  0  0  0  0
   42.5550   26.3090   43.3180 H   0  0  0  0  0  0  0  0  0  0  0  0
   40.4930   26.5880   44.0600 C   0  0  0  0  0  0  0  0  0  0  0  0
   40.6450   25.5190   44.3920 H   0  0  0  0  0  0  0  0  0  0  0  0
   40.5860   27.1770   44.9840 H   0  0  0  0  0  0  0  0  0  0  0  0
   39.1860   26.7230   43.4070 C   0  0  0  0  0  0  0  0  0  0  0  0
   38.4790   27.8900   43.6660 C   0  0  0  0  0  0  0  0  0  0  0  0
   38.8520   28.6620   44.3180 H   0  0  0  0  0  0  0  0  0  0  0  0
   37.2310   28.1620   43.1090 C   0  0  0  0  0  3  0  0  0  0  0  0
   36.6690   27.2310   42.2610 C   0  0  0  0  0  3  0  0  0  0  0  0
   37.3620   26.0630   41.9910 C   0  0  0  0  0  0  0  0  0  0  0  0
   36.7690   25.1440   41.1350 C   0  0  0  0  0  3  0  0  0  0  0  0
   37.4970   23.9760   40.8920 C   0  0  0  0  0  3  0  0  0  0  0  0
   38.7220   23.7250   41.4480 C   0  0  0  0  0  3  0  0  0  0  0  0
   39.2750   24.6630   42.2920 C   0  0  0  0  0  3  0  0  0  0  0  0
   38.5950   25.8270   42.5620 C   0  0  0  0  0  0  0  0  0  0  0  0
  1  7  1  0  0  0  0
  2  1  1  0  0  0  0
  2  8  1  0  0  0  0
  3  2  2  0  0  0  0
  4  5  2  0  0  0  0
  4  3  1  0  0  0  0
  5  6  1  0  0  0  0
  6  1  2  0  0  0  0
  9 11  1  0  0  0  0
  9 12  1  0  0  0  0
  9  5  1  0  0  0  0
 10  9  1  0  0  0  0
 12 13  1  0  0  0  0
 12 14  1  0  0  0  0
 15 12  1  0  0  0  0
 16 21  1  0  0  0  0
 16 15  2  0  0  0  0
 17 16  1  0  0  0  0
 18 17  2  0  0  0  0
 18 19  1  0  0  0  0
 19 20  2  0  0  0  0
 20 15  1  0  0  0  0
 20 27  1  0  0  0  0
 22 17  1  0  0  0  0
 23 18  1  0  0  0  0
 24 19  1  0  0  0  0
 25 28  1  0  0  0  0
 25 27  1  0  0  0  0
 26 25  2  0  0  0  0
 27 29  1  0  0  0  0
 30  3  1  0  0  0  0
 30 32  1  0  0  0  0
 30 33  1  0  0  0  0
 31 30  1  0  0  0  0
 33 34  1  0  0  0  0
 33 35  1  0  0  0  0
 36 37  1  0  0  0  0
 36 33  1  0  0  0  0
 37 38  1  0  0  0  0
 39 37  2  0  0  0  0
 40 39  1  0  0  0  0
 41 40  2  0  0  0  0
 41 46  1  0  0  0  0
 42 41  1  0  0  0  0
 43 42  2  0  0  0  0
 43 44  1  0  0  0  0
 44 45  2  0  0  0  0
 45 46  1  0  0  0  0
 46 36  2  0  0  0  0
M  END
>  <minimizedAffinity>
-6.55698729

$$$$

 OpenBabel03242511483D

 46 49  0  0  0  0  0  0  0  0999 V2000
   42.0010   28.2120   43.1860 C   0  0  0  0  0  0  0  0  0  0  0  0
   40.9390   27.3690   43.5530 C   0  0  0  0  0  0  0  0  0  0  0  0
   39.6710   27.8230   43.2900 C   0  0  0  0  0  0  0  0  0  0  0  0
   39.4830   29.0260   42.7070 N   0  0  0  0  0  0  0  0  0  0  0  0
   40.5480   29.7880   42.3780 C   0  0  0  0  0  0  0  0  0  0  0  0
   41.7720   29.4110   42.6030 N   0  0  0  0  0  0  0  0  0  0  0  0
   43.0090   27.8640   43.3890 H   0  0  0  0  0  0  0  0  0  0  0  0
   41.1210   26.4030   44.0240 H   0  0  0  0  0  0  0  0  0  0  0  0
   40.2670   31.0960   41.7410 C   0  0  0  0  0  0  0  0  0  0  0  0
   40.9040   31.2690   40.8480 H   0  0  0  0  0  0  0  0  0  0  0  0
   40.5210   31.9080   42.4660 H   0  0  0  0  0  0  0  0  0  0  0  0
   38.7960   31.1950   41.4570 C   0  0  0  0  0  0  0  0  0  0  0  0
   38.3750   32.1670   41.8210 H   0  0  0  0  0  0  0  0  0  0  0  0
   38.2880   30.4080   42.0580 H   0  0  0  0  0  0  0  0  0  0  0  0
   38.4890   31.0670   40.0520 C   0  0  0  0  0  0  0  0  0  0  0  0
   38.7890   30.0450   39.1890 C   0  0  0  0  0  0  0  0  0  0  0  0
   38.4500   30.0270   37.8790 C   0  0  0  0  0  0  0  0  0  0  0  0
   37.7550   31.1090   37.3730 C   0  0  0  0  0  0  0  0  0  0  0  0
   37.4470   32.1450   38.2230 C   0  0  0  0  0  0  0  0  0  0  0  0
   37.8050   32.1370   39.5510 C   0  0  0  0  0  0  0  0  0  0  0  0
   39.3390   29.2100   39.6380 H   0  0  0  0  0  0  0  0  0  0  0  0
   38.7340   29.1690   37.2850 H   0  0  0  0  0  0  0  0  0  0  0  0
   37.5090   31.0400   36.3100 H   0  0  0  0  0  0  0  0  0  0  0  0
   36.8990   32.9180   37.6640 H   0  0  0  0  0  0  0  0  0  0  0  0
   38.2880   34.4190   40.1780 C   0  0  0  0  0  0  0  0  0  0  0  0
   39.5130   34.6370   39.8540 O   0  0  0  0  0  0  0  0  0  0  0  0
   37.3300   33.3630   40.1380 N   0  0  0  0  0  0  0  0  0  0  0  0
   38.1840   35.4380   40.5480 H   0  0  0  0  0  0  0  0  0  0  0  0
   36.4250   33.6550   40.5480 H   0  0  0  0  0  0  0  0  0  0  0  0
   38.5420   26.9250   43.6820 C   0  0  0  0  0  0  0  0  0  0  0  0
   38.7990   25.8900   43.3020 H   0  0  0  0  0  0  0  0  0  0  0  0
   38.5510   26.8360   44.7750 H   0  0  0  0  0  0  0  0  0  0  0  0
   37.2400   27.3810   43.0830 C   0  0  0  0  0  0  0  0  0  0  0  0
   36.4330   26.9210   43.7260 H   0  0  0  0  0  0  0  0  0  0  0  0
   37.1200   28.4650   43.2270 H   0  0  0  0  0  0  0  0  0  0  0  0
   37.0680   26.9520   41.6900 C   0  0  0  0  0  0  0  0  0  0  0  0
   37.6460   25.7410   41.3360 C   0  0  0  0  0  0  0  0  0  0  0  0
   38.2050   25.1390   42.0330 H   0  0  0  0  0  0  0  0  0  0  0  0
   37.5560   25.2010   40.0550 C   0  0  0  0  0  3  0  0  0  0  0  0
   36.8610   25.9010   39.0910 C   0  0  0  0  0  3  0  0  0  0  0  0
   36.2770   27.1110   39.4270 C   0  0  0  0  0  0  0  0  0  0  0  0
   35.5870   27.7930   38.4340 C   0  0  0  0  0  3  0  0  0  0  0  0
   35.0170   29.0110   38.8120 C   0  0  0  0  0  3  0  0  0  0  0  0
   35.1150   29.5270   40.0770 C   0  0  0  0  0  3  0  0  0  0  0  0
   35.8090   28.8180   41.0330 C   0  0  0  0  0  3  0  0  0  0  0  0
   36.3890   27.6150   40.7070 C   0  0  0  0  0  0  0  0  0  0  0  0
  1  7  1  0  0  0  0
  1  2  1  0  0  0  0
  2  8  1  0  0  0  0
  3  2  2  0  0  0  0
  3 30  1  0  0  0  0
  4  3  1  0  0  0  0
  5  6  1  0  0  0  0
  5  4  2  0  0  0  0
  6  1  2  0  0  0  0
  9  5  1  0  0  0  0
  9 11  1  0  0  0  0
 10  9  1  0  0  0  0
 12  9  1  0  0  0  0
 12 13  1  0  0  0  0
 12 14  1  0  0  0  0
 15 12  1  0  0  0  0
 16 21  1  0  0  0  0
 16 15  2  0  0  0  0
 17 16  1  0  0  0  0
 18 17  2  0  0  0  0
 18 19  1  0  0  0  0
 19 20  2  0  0  0  0
 20 15  1  0  0  0  0
 20 27  1  0  0  0  0
 22 17  1  0  0  0  0
 23 18  1  0  0  0  0
 24 19  1  0  0  0  0
 25 28  1  0  0  0  0
 26 25  2  0  0  0  0
 27 25  1  0  0  0  0
 27 29  1  0  0  0  0
 30 32  1  0  0  0  0
 31 30  1  0  0  0  0
 33 35  1  0  0  0  0
 33 30  1  0  0  0  0
 33 34  1  0  0  0  0
 36 33  1  0  0  0  0
 37 36  1  0  0  0  0
 37 38  1  0  0  0  0
 39 37  2  0  0  0  0
 40 41  2  0  0  0  0
 40 39  1  0  0  0  0
 41 46  1  0  0  0  0
 42 43  2  0  0  0  0
 42 41  1  0  0  0  0
 43 44  1  0  0  0  0
 44 45  2  0  0  0  0
 46 45  1  0  0  0  0
 46 36  2  0  0  0  0
M  END
>  <minimizedAffinity>
-6.52436781

$$$$

 OpenBabel03242511483D

 46 49  0  0  0  0  0  0  0  0999 V2000
   36.8380   29.2980   36.4560 C   0  0  0  0  0  0  0  0  0  0  0  0
   35.4750   28.9640   36.5230 C   0  0  0  0  0  0  0  0  0  0  0  0
   34.8480   29.1620   37.7270 C   0  0  0  0  0  0  0  0  0  0  0  0
   35.5350   29.6540   38.7810 N   0  0  0  0  0  0  0  0  0  0  0  0
   36.8440   29.9560   38.6500 C   0  0  0  0  0  0  0  0  0  0  0  0
   37.4900   29.7900   37.5340 N   0  0  0  0  0  0  0  0  0  0  0  0
   37.3440   29.1470   35.5070 H   0  0  0  0  0  0  0  0  0  0  0  0
   34.9480   28.5670   35.6550 H   0  0  0  0  0  0  0  0  0  0  0  0
   37.5330   30.4930   39.8470 C   0  0  0  0  0  0  0  0  0  0  0  0
   37.7540   31.5760   39.7490 H   0  0  0  0  0  0  0  0  0  0  0  0
   38.5220   29.9820   39.9490 H   0  0  0  0  0  0  0  0  0  0  0  0
   36.7270   30.1540   41.0680 C   0  0  0  0  0  0  0  0  0  0  0  0
   35.6420   30.0270   40.8180 H   0  0  0  0  0  0  0  0  0  0  0  0
   36.7730   31.0320   41.7510 H   0  0  0  0  0  0  0  0  0  0  0  0
   37.1840   28.9510   41.7220 C   0  0  0  0  0  0  0  0  0  0  0  0
   36.7720   27.6550   41.5420 C   0  0  0  0  0  0  0  0  0  0  0  0
   37.2730   26.5940   42.2150 C   0  0  0  0  0  0  0  0  0  0  0  0
   38.2660   26.8260   43.1470 C   0  0  0  0  0  0  0  0  0  0  0  0
   38.6920   28.1190   43.3430 C   0  0  0  0  0  0  0  0  0  0  0  0
   38.1640   29.1800   42.6440 C   0  0  0  0  0  0  0  0  0  0  0  0
   35.9840   27.5240   40.7920 H   0  0  0  0  0  0  0  0  0  0  0  0
   36.8780   25.6120   41.9960 H   0  0  0  0  0  0  0  0  0  0  0  0
   38.6320   25.9320   43.6600 H   0  0  0  0  0  0  0  0  0  0  0  0
   39.4780   28.1260   44.1130 H   0  0  0  0  0  0  0  0  0  0  0  0
   40.0860   30.6340   42.4690 C   0  0  0  0  0  0  0  0  0  0  0  0
   40.8650   30.1070   41.5910 O   0  0  0  0  0  0  0  0  0  0  0  0
   38.8310   30.3740   43.0960 N   0  0  0  0  0  0  0  0  0  0  0  0
   40.7750   31.4640   42.6120 H   0  0  0  0  0  0  0  0  0  0  0  0
   38.5960   31.1030   43.7920 H   0  0  0  0  0  0  0  0  0  0  0  0
   33.3990   28.8040   37.7970 C   0  0  0  0  0  0  0  0  0  0  0  0
   33.3450   27.6840   37.9470 H   0  0  0  0  0  0  0  0  0  0  0  0
   32.9940   29.2340   38.7200 H   0  0  0  0  0  0  0  0  0  0  0  0
   32.6760   29.1870   36.5350 C   0  0  0  0  0  0  0  0  0  0  0  0
   33.4370   29.7360   35.9050 H   0  0  0  0  0  0  0  0  0  0  0  0
   32.4380   28.2860   35.9510 H   0  0  0  0  0  0  0  0  0  0  0  0
   31.5160   30.0520   36.7780 C   0  0  0  0  0  0  0  0  0  0  0  0
   30.9530   29.9970   38.0450 C   0  0  0  0  0  0  0  0  0  0  0  0
   31.3290   29.3490   38.8200 H   0  0  0  0  0  0  0  0  0  0  0  0
   29.8570   30.7680   38.4250 C   0  0  0  0  0  3  0  0  0  0  0  0
   29.3030   31.6280   37.5000 C   0  0  0  0  0  3  0  0  0  0  0  0
   29.8530   31.6970   36.2310 C   0  0  0  0  0  0  0  0  0  0  0  0
   29.2710   32.5700   35.3210 C   0  0  0  0  0  3  0  0  0  0  0  0
   29.8520   32.6070   34.0510 C   0  0  0  0  0  3  0  0  0  0  0  0
   30.9300   31.8410   33.6950 C   0  0  0  0  0  3  0  0  0  0  0  0
   31.4770   30.9880   34.6280 C   0  0  0  0  0  3  0  0  0  0  0  0
   30.9390   30.9160   35.8910 C   0  0  0  0  0  0  0  0  0  0  0  0
  1  2  2  0  0  0  0
  1  6  1  0  0  0  0
  2  3  1  0  0  0  0
  3 30  1  0  0  0  0
  3  4  2  0  0  0  0
  5  4  1  0  0  0  0
  5  9  1  0  0  0  0
  6  5  2  0  0  0  0
  7  1  1  0  0  0  0
  8  2  1  0  0  0  0
  9 11  1  0  0  0  0
  9 12  1  0  0  0  0
 10  9  1  0  0  0  0
 12 15  1  0  0  0  0
 12 14  1  0  0  0  0
 13 12  1  0  0  0  0
 15 20  1  0  0  0  0
 16 15  2  0  0  0  0
 16 17  1  0  0  0  0
 17 18  2  0  0  0  0
 18 19  1  0  0  0  0
 18 23  1  0  0  0  0
 19 24  1  0  0  0  0
 20 27  1  0  0  0  0
 20 19  2  0  0  0  0
 21 16  1  0  0  0  0
 22 17  1  0  0  0  0
 25 28  1  0  0  0  0
 25 27  1  0  0  0  0
 26 25  2  0  0  0  0
 27 29  1  0  0  0  0
 30 31  1  0  0  0  0
 30 32  1  0  0  0  0
 33 36  1  0  0  0  0
 33 30  1  0  0  0  0
 34 33  1  0  0  0  0
 35 33  1  0  0  0  0
 36 37  1  0  0  0  0
 37 39  2  0  0  0  0
 37 38  1  0  0  0  0
 40 39  1  0  0  0  0
 41 40  2  0  0  0  0
 42 41  1  0  0  0  0
 43 42  2  0  0  0  0
 44 43  1  0  0  0  0
 44 45  2  0  0  0  0
 45 46  1  0  0  0  0
 46 41  1  0  0  0  0
 46 36  2  0  0  0  0
M  END
>  <minimizedAffinity>
-6.51389503

$$$$

 OpenBabel03242511483D

 46 49  0  0  0  0  0  0  0  0999 V2000
   37.7640   26.8590   38.9760 C   0  0  0  0  0  0  0  0  0  0  0  0
   37.6300   26.3940   40.2950 C   0  0  0  0  0  0  0  0  0  0  0  0
   36.9490   27.2030   41.1690 C   0  0  0  0  0  0  0  0  0  0  0  0
   36.4440   28.3840   40.7530 N   0  0  0  0  0  0  0  0  0  0  0  0
   36.6080   28.7730   39.4710 C   0  0  0  0  0  0  0  0  0  0  0  0
   37.2440   28.0480   38.5980 N   0  0  0  0  0  0  0  0  0  0  0  0
   38.3010   26.2260   38.2750 H   0  0  0  0  0  0  0  0  0  0  0  0
   38.0490   25.4360   40.6010 H   0  0  0  0  0  0  0  0  0  0  0  0
   36.0270   30.0810   39.0860 C   0  0  0  0  0  0  0  0  0  0  0  0
   35.7790   30.7030   39.9710 H   0  0  0  0  0  0  0  0  0  0  0  0
   35.0600   29.8980   38.5540 H   0  0  0  0  0  0  0  0  0  0  0  0
   36.9490   30.7590   38.1150 C   0  0  0  0  0  0  0  0  0  0  0  0
   36.3820   31.2100   37.2600 H   0  0  0  0  0  0  0  0  0  0  0  0
   37.5920   29.9710   37.6610 H   0  0  0  0  0  0  0  0  0  0  0  0
   37.7420   31.7980   38.7300 C   0  0  0  0  0  0  0  0  0  0  0  0
   37.3520   32.7870   39.5960 C   0  0  0  0  0  0  0  0  0  0  0  0
   38.1850   33.7170   40.1170 C   0  0  0  0  0  0  0  0  0  0  0  0
   39.5180   33.6710   39.7550 C   0  0  0  0  0  0  0  0  0  0  0  0
   39.9280   32.6860   38.8870 C   0  0  0  0  0  0  0  0  0  0  0  0
   39.0580   31.7530   38.3720 C   0  0  0  0  0  0  0  0  0  0  0  0
   36.2870   32.7810   39.8530 H   0  0  0  0  0  0  0  0  0  0  0  0
   37.7760   34.4550   40.7930 H   0  0  0  0  0  0  0  0  0  0  0  0
   40.1430   34.4460   40.2060 H   0  0  0  0  0  0  0  0  0  0  0  0
   41.0070   32.7920   38.7050 H   0  0  0  0  0  0  0  0  0  0  0  0
   40.3760   29.7400   38.1480 C   0  0  0  0  0  0  0  0  0  0  0  0
   40.4420   29.2130   39.3190 O   0  0  0  0  0  0  0  0  0  0  0  0
   39.8130   30.8840   37.5070 N   0  0  0  0  0  0  0  0  0  0  0  0
   40.9670   28.9290   37.7270 H   0  0  0  0  0  0  0  0  0  0  0  0
   40.0440   30.9060   36.4980 H   0  0  0  0  0  0  0  0  0  0  0  0
   36.8080   26.7080   42.5720 C   0  0  0  0  0  0  0  0  0  0  0  0
   35.7010   26.5760   42.7630 H   0  0  0  0  0  0  0  0  0  0  0  0
   37.2250   25.6950   42.6110 H   0  0  0  0  0  0  0  0  0  0  0  0
   37.3860   27.6820   43.5610 C   0  0  0  0  0  0  0  0  0  0  0  0
   36.9290   28.6830   43.3020 H   0  0  0  0  0  0  0  0  0  0  0  0
   37.0050   27.4620   44.5700 H   0  0  0  0  0  0  0  0  0  0  0  0
   38.8490   27.7710   43.4930 C   0  0  0  0  0  0  0  0  0  0  0  0
   39.5590   26.6390   43.8670 C   0  0  0  0  0  0  0  0  0  0  0  0
   39.0770   25.7360   44.2050 H   0  0  0  0  0  0  0  0  0  0  0  0
   40.9500   26.5720   43.8430 C   0  0  0  0  0  3  0  0  0  0  0  0
   41.6580   27.6800   43.4270 C   0  0  0  0  0  3  0  0  0  0  0  0
   40.9640   28.8180   43.0480 C   0  0  0  0  0  0  0  0  0  0  0  0
   41.7050   29.9180   42.6360 C   0  0  0  0  0  3  0  0  0  0  0  0
   40.9680   31.0470   42.2670 C   0  0  0  0  0  3  0  0  0  0  0  0
   39.6010   31.0960   42.2970 C   0  0  0  0  0  3  0  0  0  0  0  0
   38.9040   29.9820   42.7120 C   0  0  0  0  0  3  0  0  0  0  0  0
   39.5850   28.8480   43.0860 C   0  0  0  0  0  0  0  0  0  0  0  0
  1  2  1  0  0  0  0
  2  8  1  0  0  0  0
  2  3  2  0  0  0  0
  3 30  1  0  0  0  0
  4  3  1  0  0  0  0
  5  4  2  0  0  0  0
  6  1  2  0  0  0  0
  6  5  1  0  0  0  0
  7  1  1  0  0  0  0
  9  5  1  0  0  0  0
  9 10  1  0  0  0  0
 11  9  1  0  0  0  0
 12 15  1  0  0  0  0
 12  9  1  0  0  0  0
 13 12  1  0  0  0  0
 14 12  1  0  0  0  0
 15 16  1  0  0  0  0
 16 21  1  0  0  0  0
 16 17  2  0  0  0  0
 17 22  1  0  0  0  0
 18 17  1  0  0  0  0
 18 23  1  0  0  0  0
 19 18  2  0  0  0  0
 20 15  2  0  0  0  0
 20 19  1  0  0  0  0
 24 19  1  0  0  0  0
 25 26  2  0  0  0  0
 27 25  1  0  0  0  0
 27 20  1  0  0  0  0
 28 25  1  0  0  0  0
 29 27  1  0  0  0  0
 30 32  1  0  0  0  0
 30 31  1  0  0  0  0
 30 33  1  0  0  0  0
 33 35  1  0  0  0  0
 34 33  1  0  0  0  0
 36 33  1  0  0  0  0
 36 37  1  0  0  0  0
 37 38  1  0  0  0  0
 39 37  2  0  0  0  0
 40 39  1  0  0  0  0
 41 46  1  0  0  0  0
 41 40  2  0  0  0  0
 42 41  1  0  0  0  0
 43 44  1  0  0  0  0
 43 42  2  0  0  0  0
 44 45  2  0  0  0  0
 45 46  1  0  0  0  0
 46 36  2  0  0  0  0
M  END
>  <minimizedAffinity>
-6.42335129

$$$$

 OpenBabel03242511483D

 46 49  0  0  0  0  0  0  0  0999 V2000
   39.8080   30.5450   40.9020 C   0  0  0  0  0  0  0  0  0  0  0  0
   39.4460   29.9130   42.1040 C   0  0  0  0  0  0  0  0  0  0  0  0
   38.1090   29.6720   42.2960 C   0  0  0  0  0  0  0  0  0  0  0  0
   37.2080   30.0350   41.3590 N   0  0  0  0  0  0  0  0  0  0  0  0
   37.6220   30.6390   40.2240 C   0  0  0  0  0  0  0  0  0  0  0  0
   38.8750   30.8930   39.9870 N   0  0  0  0  0  0  0  0  0  0  0  0
   40.8640   30.7410   40.7390 H   0  0  0  0  0  0  0  0  0  0  0  0
   40.1960   29.6320   42.8430 H   0  0  0  0  0  0  0  0  0  0  0  0
   36.5780   31.0090   39.2400 C   0  0  0  0  0  0  0  0  0  0  0  0
   37.0090   31.4970   38.3400 H   0  0  0  0  0  0  0  0  0  0  0  0
   35.8990   31.7640   39.7070 H   0  0  0  0  0  0  0  0  0  0  0  0
   35.7510   29.7970   38.9260 C   0  0  0  0  0  0  0  0  0  0  0  0
   34.6840   29.9390   39.2380 H   0  0  0  0  0  0  0  0  0  0  0  0
   36.1340   28.9610   39.5550 H   0  0  0  0  0  0  0  0  0  0  0  0
   35.7700   29.4550   37.5230 C   0  0  0  0  0  0  0  0  0  0  0  0
   36.7580   29.6600   36.5950 C   0  0  0  0  0  0  0  0  0  0  0  0
   36.6710   29.2970   35.2950 C   0  0  0  0  0  0  0  0  0  0  0  0
   35.5110   28.6770   34.8690 C   0  0  0  0  0  0  0  0  0  0  0  0
   34.5080   28.4640   35.7860 C   0  0  0  0  0  0  0  0  0  0  0  0
   34.6240   28.8440   37.1030 C   0  0  0  0  0  0  0  0  0  0  0  0
   37.6570   30.1530   36.9810 H   0  0  0  0  0  0  0  0  0  0  0  0
   37.5100   29.5040   34.6440 H   0  0  0  0  0  0  0  0  0  0  0  0
   35.4970   28.4070   33.8100 H   0  0  0  0  0  0  0  0  0  0  0  0
   33.6640   27.9660   35.2870 H   0  0  0  0  0  0  0  0  0  0  0  0
   32.2490   29.2060   37.3610 C   0  0  0  0  0  0  0  0  0  0  0  0
   31.9320   30.1520   36.5500 O   0  0  0  0  0  0  0  0  0  0  0  0
   33.4040   28.4750   37.7720 N   0  0  0  0  0  0  0  0  0  0  0  0
   31.2160   29.1140   37.6900 H   0  0  0  0  0  0  0  0  0  0  0  0
   33.1730   27.7790   38.5030 H   0  0  0  0  0  0  0  0  0  0  0  0
   37.7250   29.0010   43.5750 C   0  0  0  0  0  0  0  0  0  0  0  0
   38.6750   28.8720   44.1760 H   0  0  0  0  0  0  0  0  0  0  0  0
   37.1180   29.7080   44.1530 H   0  0  0  0  0  0  0  0  0  0  0  0
   37.0920   27.6600   43.3260 C   0  0  0  0  0  0  0  0  0  0  0  0
   36.4920   27.4310   44.2560 H   0  0  0  0  0  0  0  0  0  0  0  0
   36.3380   27.7420   42.5300 H   0  0  0  0  0  0  0  0  0  0  0  0
   38.0750   26.5950   43.0960 C   0  0  0  0  0  0  0  0  0  0  0  0
   39.2370   26.6470   43.8530 C   0  0  0  0  0  0  0  0  0  0  0  0
   39.4290   27.4280   44.5690 H   0  0  0  0  0  0  0  0  0  0  0  0
   40.2530   25.6990   43.7510 C   0  0  0  0  0  3  0  0  0  0  0  0
   40.1000   24.6600   42.8590 C   0  0  0  0  0  3  0  0  0  0  0  0
   38.9460   24.5920   42.0970 C   0  0  0  0  0  0  0  0  0  0  0  0
   38.8220   23.5350   41.2040 C   0  0  0  0  0  3  0  0  0  0  0  0
   37.6460   23.5050   40.4520 C   0  0  0  0  0  3  0  0  0  0  0  0
   36.6570   24.4440   40.5640 C   0  0  0  0  0  3  0  0  0  0  0  0
   36.8190   25.4770   41.4610 C   0  0  0  0  0  3  0  0  0  0  0  0
   37.9610   25.5490   42.2230 C   0  0  0  0  0  0  0  0  0  0  0  0
  1  2  1  0  0  0  0
  2  3  2  0  0  0  0
  2  8  1  0  0  0  0
  3 30  1  0  0  0  0
  4  3  1  0  0  0  0
  5  4  2  0  0  0  0
  6  5  1  0  0  0  0
  6  1  2  0  0  0  0
  7  1  1  0  0  0  0
  9 11  1  0  0  0  0
  9  5  1  0  0  0  0
 10  9  1  0  0  0  0
 12 13  1  0  0  0  0
 12  9  1  0  0  0  0
 12 14  1  0  0  0  0
 15 12  1  0  0  0  0
 16 21  1  0  0  0  0
 16 15  2  0  0  0  0
 17 16  1  0  0  0  0
 18 17  2  0  0  0  0
 18 19  1  0  0  0  0
 19 20  2  0  0  0  0
 20 15  1  0  0  0  0
 20 27  1  0  0  0  0
 22 17  1  0  0  0  0
 23 18  1  0  0  0  0
 24 19  1  0  0  0  0
 25 28  1  0  0  0  0
 25 27  1  0  0  0  0
 26 25  2  0  0  0  0
 27 29  1  0  0  0  0
 30 32  1  0  0  0  0
 30 31  1  0  0  0  0
 33 30  1  0  0  0  0
 33 34  1  0  0  0  0
 35 33  1  0  0  0  0
 36 33  1  0  0  0  0
 36 37  1  0  0  0  0
 37 38  1  0  0  0  0
 39 37  2  0  0  0  0
 40 39  1  0  0  0  0
 41 46  1  0  0  0  0
 41 40  2  0  0  0  0
 42 41  1  0  0  0  0
 43 44  1  0  0  0  0
 43 42  2  0  0  0  0
 44 45  2  0  0  0  0
 45 46  1  0  0  0  0
 46 36  2  0  0  0  0
M  END
>  <minimizedAffinity>
-6.35275888

$$$$

 OpenBabel03242511483D

 46 49  0  0  0  0  0  0  0  0999 V2000
   37.0780   29.7280   36.4570 C   0  0  0  0  0  0  0  0  0  0  0  0
   36.9050   28.4980   37.1130 C   0  0  0  0  0  0  0  0  0  0  0  0
   36.8370   28.5330   38.4840 C   0  0  0  0  0  0  0  0  0  0  0  0
   36.9370   29.7080   39.1420 N   0  0  0  0  0  0  0  0  0  0  0  0
   37.1020   30.8560   38.4500 C   0  0  0  0  0  0  0  0  0  0  0  0
   37.1730   30.8840   37.1520 N   0  0  0  0  0  0  0  0  0  0  0  0
   37.1330   29.7130   35.3720 H   0  0  0  0  0  0  0  0  0  0  0  0
   36.8290   27.5650   36.5550 H   0  0  0  0  0  0  0  0  0  0  0  0
   37.2020   32.1060   39.2380 C   0  0  0  0  0  0  0  0  0  0  0  0
   36.2950   32.2840   39.8540 H   0  0  0  0  0  0  0  0  0  0  0  0
   37.2710   32.9700   38.5310 H   0  0  0  0  0  0  0  0  0  0  0  0
   38.4730   32.0810   40.0370 C   0  0  0  0  0  0  0  0  0  0  0  0
   39.1620   31.2720   39.6810 H   0  0  0  0  0  0  0  0  0  0  0  0
   38.2040   31.8030   41.0810 H   0  0  0  0  0  0  0  0  0  0  0  0
   39.1870   33.3350   39.9910 C   0  0  0  0  0  0  0  0  0  0  0  0
   38.8610   34.5380   40.5630 C   0  0  0  0  0  0  0  0  0  0  0  0
   39.6090   35.6610   40.4560 C   0  0  0  0  0  0  0  0  0  0  0  0
   40.7790   35.5960   39.7230 C   0  0  0  0  0  0  0  0  0  0  0  0
   41.1210   34.3980   39.1410 C   0  0  0  0  0  0  0  0  0  0  0  0
   40.3420   33.2710   39.2670 C   0  0  0  0  0  0  0  0  0  0  0  0
   37.9260   34.5390   41.1340 H   0  0  0  0  0  0  0  0  0  0  0  0
   39.2620   36.5600   40.9480 H   0  0  0  0  0  0  0  0  0  0  0  0
   41.3400   36.5330   39.6710 H   0  0  0  0  0  0  0  0  0  0  0  0
   42.0710   34.5190   38.6000 H   0  0  0  0  0  0  0  0  0  0  0  0
   41.9690   31.4850   39.2810 C   0  0  0  0  0  0  0  0  0  0  0  0
   42.5000   31.4830   40.4520 O   0  0  0  0  0  0  0  0  0  0  0  0
   40.9890   32.2100   38.5390 N   0  0  0  0  0  0  0  0  0  0  0  0
   42.5820   30.6380   38.9780 H   0  0  0  0  0  0  0  0  0  0  0  0
   40.9000   31.8490   37.5730 H   0  0  0  0  0  0  0  0  0  0  0  0
   36.6540   27.2240   39.1800 C   0  0  0  0  0  0  0  0  0  0  0  0
   35.6800   26.7870   38.8050 H   0  0  0  0  0  0  0  0  0  0  0  0
   37.4300   26.5410   38.8160 H   0  0  0  0  0  0  0  0  0  0  0  0
   36.5950   27.3970   40.6730 C   0  0  0  0  0  0  0  0  0  0  0  0
   36.9870   28.4380   40.8720 H   0  0  0  0  0  0  0  0  0  0  0  0
   35.5470   27.4330   41.0050 H   0  0  0  0  0  0  0  0  0  0  0  0
   37.4070   26.4140   41.3980 C   0  0  0  0  0  0  0  0  0  0  0  0
   37.0290   25.0840   41.2780 C   0  0  0  0  0  0  0  0  0  0  0  0
   36.1770   24.7730   40.6950 H   0  0  0  0  0  0  0  0  0  0  0  0
   37.7110   24.0400   41.8990 C   0  0  0  0  0  3  0  0  0  0  0  0
   38.8150   24.3390   42.6690 C   0  0  0  0  0  3  0  0  0  0  0  0
   39.2080   25.6610   42.7980 C   0  0  0  0  0  0  0  0  0  0  0  0
   40.3220   25.9290   43.5830 C   0  0  0  0  0  3  0  0  0  0  0  0
   40.6820   27.2750   43.6910 C   0  0  0  0  0  3  0  0  0  0  0  0
   40.0000   28.2890   43.0740 C   0  0  0  0  0  3  0  0  0  0  0  0
   38.9000   27.9790   42.3050 C   0  0  0  0  0  3  0  0  0  0  0  0
   38.5060   26.6690   42.1690 C   0  0  0  0  0  0  0  0  0  0  0  0
  1  2  2  0  0  0  0
  1  6  1  0  0  0  0
  2  3  1  0  0  0  0
  3  4  2  0  0  0  0
  3 30  1  0  0  0  0
  5  4  1  0  0  0  0
  5  9  1  0  0  0  0
  6  5  2  0  0  0  0
  7  1  1  0  0  0  0
  8  2  1  0  0  0  0
  9 10  1  0  0  0  0
  9 12  1  0  0  0  0
 11  9  1  0  0  0  0
 12 14  1  0  0  0  0
 13 12  1  0  0  0  0
 15 12  1  0  0  0  0
 15 16  1  0  0  0  0
 16 21  1  0  0  0  0
 17 16  2  0  0  0  0
 17 22  1  0  0  0  0
 18 17  1  0  0  0  0
 19 20  1  0  0  0  0
 19 18  2  0  0  0  0
 20 15  2  0  0  0  0
 23 18  1  0  0  0  0
 24 19  1  0  0  0  0
 25 26  2  0  0  0  0
 27 20  1  0  0  0  0
 27 25  1  0  0  0  0
 28 25  1  0  0  0  0
 29 27  1  0  0  0  0
 30 33  1  0  0  0  0
 31 30  1  0  0  0  0
 32 30  1  0  0  0  0
 33 34  1  0  0  0  0
 33 35  1  0  0  0  0
 33 36  1  0  0  0  0
 36 46  1  0  0  0  0
 37 36  2  0  0  0  0
 37 39  1  0  0  0  0
 38 37  1  0  0  0  0
 39 40  2  0  0  0  0
 40 41  1  0  0  0  0
 41 42  1  0  0  0  0
 42 43  2  0  0  0  0
 44 43  1  0  0  0  0
 45 44  2  0  0  0  0
 46 45  1  0  0  0  0
 46 41  2  0  0  0  0
M  END
>  <minimizedAffinity>
-6.32917833

$$$$

 OpenBabel03242511483D

 46 49  0  0  0  0  0  0  0  0999 V2000
   37.4810   31.4510   40.1230 C   0  0  0  0  0  0  0  0  0  0  0  0
   38.1650   30.9790   41.2560 C   0  0  0  0  0  0  0  0  0  0  0  0
   37.6420   29.8730   41.8770 C   0  0  0  0  0  0  0  0  0  0  0  0
   36.5220   29.2880   41.4000 N   0  0  0  0  0  0  0  0  0  0  0  0
   35.9130   29.7920   40.3050 C   0  0  0  0  0  0  0  0  0  0  0  0
   36.3630   30.8370   39.6760 N   0  0  0  0  0  0  0  0  0  0  0  0
   37.8870   32.3260   39.6230 H   0  0  0  0  0  0  0  0  0  0  0  0
   39.0670   31.4730   41.6180 H   0  0  0  0  0  0  0  0  0  0  0  0
   34.6900   29.0980   39.8380 C   0  0  0  0  0  0  0  0  0  0  0  0
   33.7660   29.5800   40.2230 H   0  0  0  0  0  0  0  0  0  0  0  0
   34.6910   28.0580   40.2480 H   0  0  0  0  0  0  0  0  0  0  0  0
   34.7310   28.9890   38.3420 C   0  0  0  0  0  0  0  0  0  0  0  0
   35.1150   29.9320   37.8740 H   0  0  0  0  0  0  0  0  0  0  0  0
   33.6790   28.8900   37.9870 H   0  0  0  0  0  0  0  0  0  0  0  0
   35.5490   27.8910   37.8840 C   0  0  0  0  0  0  0  0  0  0  0  0
   35.4060   26.5470   38.1190 C   0  0  0  0  0  0  0  0  0  0  0  0
   36.2370   25.5960   37.6360 C   0  0  0  0  0  0  0  0  0  0  0  0
   37.3030   25.9990   36.8550 C   0  0  0  0  0  0  0  0  0  0  0  0
   37.4640   27.3430   36.6090 C   0  0  0  0  0  0  0  0  0  0  0  0
   36.6020   28.2900   37.1130 C   0  0  0  0  0  0  0  0  0  0  0  0
   34.5460   26.2780   38.7420 H   0  0  0  0  0  0  0  0  0  0  0  0
   36.0340   24.5620   37.8800 H   0  0  0  0  0  0  0  0  0  0  0  0
   37.9410   25.1880   36.4940 H   0  0  0  0  0  0  0  0  0  0  0  0
   38.3520   27.4900   35.9780 H   0  0  0  0  0  0  0  0  0  0  0  0
   36.5150   30.0150   35.4240 C   0  0  0  0  0  0  0  0  0  0  0  0
   35.7080   29.5970   34.5150 O   0  0  0  0  0  0  0  0  0  0  0  0
   37.0620   29.5790   36.6680 N   0  0  0  0  0  0  0  0  0  0  0  0
   36.6800   30.9430   34.8800 H   0  0  0  0  0  0  0  0  0  0  0  0
   37.7200   30.2770   37.0590 H   0  0  0  0  0  0  0  0  0  0  0  0
   38.3700   29.3730   43.0830 C   0  0  0  0  0  0  0  0  0  0  0  0
   39.4460   29.2090   42.7710 H   0  0  0  0  0  0  0  0  0  0  0  0
   38.4060   30.1900   43.8120 H   0  0  0  0  0  0  0  0  0  0  0  0
   37.7820   28.0830   43.5860 C   0  0  0  0  0  0  0  0  0  0  0  0
   37.6840   28.2120   44.7050 H   0  0  0  0  0  0  0  0  0  0  0  0
   36.7460   27.9800   43.2320 H   0  0  0  0  0  0  0  0  0  0  0  0
   38.6210   26.9160   43.2930 C   0  0  0  0  0  0  0  0  0  0  0  0
   39.8850   26.9000   43.8660 C   0  0  0  0  0  0  0  0  0  0  0  0
   40.2520   27.7000   44.4880 H   0  0  0  0  0  0  0  0  0  0  0  0
   40.7880   25.8540   43.6860 C   0  0  0  0  0  3  0  0  0  0  0  0
   40.4110   24.7830   42.9040 C   0  0  0  0  0  3  0  0  0  0  0  0
   39.1520   24.7830   42.3260 C   0  0  0  0  0  0  0  0  0  0  0  0
   38.8020   23.6920   41.5410 C   0  0  0  0  0  3  0  0  0  0  0  0
   37.5260   23.7320   40.9720 C   0  0  0  0  0  3  0  0  0  0  0  0
   36.6520   24.7680   41.1590 C   0  0  0  0  0  3  0  0  0  0  0  0
   37.0390   25.8320   41.9450 C   0  0  0  0  0  3  0  0  0  0  0  0
   38.2850   25.8370   42.5250 C   0  0  0  0  0  0  0  0  0  0  0  0
  1  2  1  0  0  0  0
  2  8  1  0  0  0  0
  2  3  2  0  0  0  0
  3 30  1  0  0  0  0
  4  3  1  0  0  0  0
  5  4  2  0  0  0  0
  6  1  2  0  0  0  0
  6  5  1  0  0  0  0
  7  1  1  0  0  0  0
  9 10  1  0  0  0  0
  9 11  1  0  0  0  0
  9  5  1  0  0  0  0
 12  9  1  0  0  0  0
 13 12  1  0  0  0  0
 14 12  1  0  0  0  0
 15 16  1  0  0  0  0
 15 12  1  0  0  0  0
 16 21  1  0  0  0  0
 17 22  1  0  0  0  0
 17 16  2  0  0  0  0
 18 17  1  0  0  0  0
 19 18  2  0  0  0  0
 19 20  1  0  0  0  0
 20 15  2  0  0  0  0
 23 18  1  0  0  0  0
 24 19  1  0  0  0  0
 25 27  1  0  0  0  0
 26 25  2  0  0  0  0
 27 29  1  0  0  0  0
 27 20  1  0  0  0  0
 28 25  1  0  0  0  0
 30 33  1  0  0  0  0
 30 32  1  0  0  0  0
 31 30  1  0  0  0  0
 33 34  1  0  0  0  0
 35 33  1  0  0  0  0
 36 33  1  0  0  0  0
 36 37  1  0  0  0  0
 37 38  1  0  0  0  0
 39 37  2  0  0  0  0
 40 39  1  0  0  0  0
 41 46  1  0  0  0  0
 41 40  2  0  0  0  0
 42 41  1  0  0  0  0
 43 44  1  0  0  0  0
 43 42  2  0  0  0  0
 44 45  2  0  0  0  0
 45 46  1  0  0  0  0
 46 36  2  0  0  0  0
M  END
>  <minimizedAffinity>
-6.2365613

$$$$
