
 OpenBabel03242515193D

 39 42  0  0  0  0  0  0  0  0999 V2000
   34.8190   29.0270   37.4090 C   0  0  0  0  0  0  0  0  0  0  0  0
   34.8370   28.4150   38.6260 C   0  0  0  0  0  0  0  0  0  0  0  0
   36.1170   28.5020   39.1210 C   0  0  0  0  0  0  0  0  0  0  0  0
   36.8480   29.1560   38.2130 N   0  0  0  0  0  0  0  0  0  0  0  0
   36.0530   29.4690   37.1810 N   0  0  0  0  0  0  0  0  0  0  0  0
   33.9340   27.9710   39.0240 H   0  0  0  0  0  0  0  0  0  0  0  0
   36.4510   27.9700   40.4280 C   0  0  0  0  0  0  0  0  0  0  0  0
   36.5430   28.6630   41.6120 C   0  0  0  0  0  0  0  0  0  0  0  0
   36.3890   29.7190   41.6070 H   0  0  0  0  0  0  0  0  0  0  0  0
   36.8360   28.1300   42.8380 C   0  0  0  0  0  3  0  0  0  0  0  0
   37.0670   26.7910   42.9490 C   0  0  0  0  0  3  0  0  0  0  0  0
   36.9950   26.0190   41.8180 C   0  0  0  0  0  0  0  0  0  0  0  0
   37.2290   24.6730   41.9840 C   0  0  0  0  0  3  0  0  0  0  0  0
   37.1660   23.8310   40.8970 C   0  0  0  0  0  3  0  0  0  0  0  0
   36.8700   24.3580   39.6580 C   0  0  0  0  0  3  0  0  0  0  0  0
   36.6470   25.7140   39.5550 C   0  0  0  0  0  3  0  0  0  0  0  0
   36.6960   26.6040   40.6060 C   0  0  0  0  0  0  0  0  0  0  0  0
   38.2710   29.5000   38.3070 C   0  0  0  0  0  0  0  0  0  0  0  0
   39.0340   28.3150   38.4230 F   0  0  0  0  0  0  0  0  0  0  0  0
   38.4940   30.3430   39.3330 F   0  0  0  0  0  0  0  0  0  0  0  0
   38.6690   30.0660   37.1120 F   0  0  0  0  0  0  0  0  0  0  0  0
   33.7050   29.2270   36.4600 C   0  0  0  0  0  0  0  0  0  0  0  0
   33.8480   28.6410   35.5300 H   0  0  0  0  0  0  0  0  0  0  0  0
   33.7230   30.3170   36.1730 H   0  0  0  0  0  0  0  0  0  0  0  0
   32.3800   28.9620   37.1050 C   0  0  0  0  0  0  0  0  0  0  0  0
   32.5710   28.6490   38.1190 H   0  0  0  0  0  0  0  0  0  0  0  0
   31.9100   28.0910   36.5610 H   0  0  0  0  0  0  0  0  0  0  0  0
   29.8510   31.6420   37.6220 C   0  0  0  0  0  0  0  0  0  0  0  0
   29.8210   32.2210   36.3280 C   0  0  0  0  0  0  0  0  0  0  0  0
   30.6510   31.6740   35.3700 C   0  0  0  0  0  0  0  0  0  0  0  0
   31.4060   30.6410   35.7660 N   0  0  0  0  0  0  0  0  0  0  0  0
   31.4300   30.1030   36.9820 C   0  0  0  0  0  0  0  0  0  0  0  0
   30.6400   30.6210   37.9020 N   0  0  0  0  0  0  0  0  0  0  0  0
   29.2250   32.0240   38.4190 H   0  0  0  0  0  0  0  0  0  0  0  0
   29.1380   33.0490   36.2190 H   0  0  0  0  0  0  0  0  0  0  0  0
   30.6130   32.2810   34.0440 C   0  0  0  0  0  0  0  0  0  0  0  0
   30.7270   31.2760   33.0790 F   0  0  0  0  0  0  0  0  0  0  0  0
   31.8010   33.0050   33.9190 F   0  0  0  0  0  0  0  0  0  0  0  0
   29.4950   33.0250   33.8220 F   0  0  0  0  0  0  0  0  0  0  0  0
  1  2  1  0  0  0  0
  2  6  1  0  0  0  0
  2  3  2  0  0  0  0
  3  7  1  0  0  0  0
  4 18  1  0  0  0  0
  4  3  1  0  0  0  0
  5  1  2  0  0  0  0
  5  4  1  0  0  0  0
  7 17  2  0  0  0  0
  7  8  1  0  0  0  0
  8 10  2  0  0  0  0
  9  8  1  0  0  0  0
 10 11  1  0  0  0  0
 12 13  1  0  0  0  0
 12 11  2  0  0  0  0
 14 13  2  0  0  0  0
 15 14  1  0  0  0  0
 16 15  2  0  0  0  0
 16 17  1  0  0  0  0
 17 12  1  0  0  0  0
 18 19  1  0  0  0  0
 18 20  1  0  0  0  0
 21 18  1  0  0  0  0
 22 25  1  0  0  0  0
 22  1  1  0  0  0  0
 23 22  1  0  0  0  0
 24 22  1  0  0  0  0
 25 26  1  0  0  0  0
 27 25  1  0  0  0  0
 28 33  1  0  0  0  0
 28 34  1  0  0  0  0
 29 28  2  0  0  0  0
 30 31  2  0  0  0  0
 30 29  1  0  0  0  0
 31 32  1  0  0  0  0
 32 25  1  0  0  0  0
 32 33  2  0  0  0  0
 35 29  1  0  0  0  0
 36 30  1  0  0  0  0
 37 36  1  0  0  0  0
 38 36  1  0  0  0  0
 39 36  1  0  0  0  0
M  END
>  <minimizedAffinity>
-6.83772707

$$$$

 OpenBabel03242515193D

 39 42  0  0  0  0  0  0  0  0999 V2000
   35.0100   28.5010   37.0900 C   0  0  0  0  0  0  0  0  0  0  0  0
   34.9660   27.7760   38.2410 C   0  0  0  0  0  0  0  0  0  0  0  0
   36.2560   27.4250   38.5660 C   0  0  0  0  0  0  0  0  0  0  0  0
   37.0530   27.9340   37.6210 N   0  0  0  0  0  0  0  0  0  0  0  0
   36.2880   28.5830   36.7330 N   0  0  0  0  0  0  0  0  0  0  0  0
   34.0180   27.5740   38.7210 H   0  0  0  0  0  0  0  0  0  0  0  0
   36.5460   26.6720   39.7710 C   0  0  0  0  0  0  0  0  0  0  0  0
   36.5770   25.3050   39.9130 C   0  0  0  0  0  0  0  0  0  0  0  0
   36.3370   24.6920   39.0730 H   0  0  0  0  0  0  0  0  0  0  0  0
   36.8780   24.6190   41.0580 C   0  0  0  0  0  3  0  0  0  0  0  0
   37.1830   25.3110   42.1930 C   0  0  0  0  0  3  0  0  0  0  0  0
   37.1770   26.6810   42.1450 C   0  0  0  0  0  0  0  0  0  0  0  0
   37.4990   27.3340   43.3140 C   0  0  0  0  0  3  0  0  0  0  0  0
   37.5240   28.7100   43.3430 C   0  0  0  0  0  3  0  0  0  0  0  0
   37.2240   29.4080   42.1930 C   0  0  0  0  0  3  0  0  0  0  0  0
   36.9090   28.7000   41.0540 C   0  0  0  0  0  3  0  0  0  0  0  0
   36.8680   27.3260   40.9660 C   0  0  0  0  0  0  0  0  0  0  0  0
   38.5150   27.8310   37.5500 C   0  0  0  0  0  0  0  0  0  0  0  0
   38.8920   26.4690   37.6000 F   0  0  0  0  0  0  0  0  0  0  0  0
   39.0950   28.5490   38.5290 F   0  0  0  0  0  0  0  0  0  0  0  0
   38.9280   28.2700   36.3080 F   0  0  0  0  0  0  0  0  0  0  0  0
   33.9170   29.1270   36.3180 C   0  0  0  0  0  0  0  0  0  0  0  0
   33.9790   28.8750   35.2400 H   0  0  0  0  0  0  0  0  0  0  0  0
   34.0620   30.2420   36.4080 H   0  0  0  0  0  0  0  0  0  0  0  0
   32.5770   28.8080   36.9040 C   0  0  0  0  0  0  0  0  0  0  0  0
   32.7430   28.4190   37.8960 H   0  0  0  0  0  0  0  0  0  0  0  0
   32.1280   27.9790   36.2820 H   0  0  0  0  0  0  0  0  0  0  0  0
   30.0350   31.4440   37.5620 C   0  0  0  0  0  0  0  0  0  0  0  0
   30.0080   32.0950   36.3030 C   0  0  0  0  0  0  0  0  0  0  0  0
   30.8430   31.6060   35.3180 C   0  0  0  0  0  0  0  0  0  0  0  0
   31.6010   30.5560   35.6580 N   0  0  0  0  0  0  0  0  0  0  0  0
   31.6230   29.9500   36.8420 C   0  0  0  0  0  0  0  0  0  0  0  0
   30.8270   30.4120   37.7870 N   0  0  0  0  0  0  0  0  0  0  0  0
   29.4050   31.7770   38.3770 H   0  0  0  0  0  0  0  0  0  0  0  0
   29.3220   32.9250   36.2380 H   0  0  0  0  0  0  0  0  0  0  0  0
   30.8070   32.2870   34.0290 C   0  0  0  0  0  0  0  0  0  0  0  0
   29.5700   32.9210   33.8840 F   0  0  0  0  0  0  0  0  0  0  0  0
   30.7850   31.2790   33.0620 F   0  0  0  0  0  0  0  0  0  0  0  0
   31.8190   33.1810   33.8610 F   0  0  0  0  0  0  0  0  0  0  0  0
  1  2  1  0  0  0  0
  2  3  2  0  0  0  0
  2  6  1  0  0  0  0
  3  7  1  0  0  0  0
  4  3  1  0  0  0  0
  5  1  2  0  0  0  0
  5  4  1  0  0  0  0
  7  8  2  0  0  0  0
  7 17  1  0  0  0  0
  8 10  1  0  0  0  0
  9  8  1  0  0  0  0
 10 11  2  0  0  0  0
 12 11  1  0  0  0  0
 12 13  1  0  0  0  0
 13 14  2  0  0  0  0
 15 14  1  0  0  0  0
 16 15  2  0  0  0  0
 17 16  1  0  0  0  0
 17 12  2  0  0  0  0
 18 19  1  0  0  0  0
 18  4  1  0  0  0  0
 18 20  1  0  0  0  0
 21 18  1  0  0  0  0
 22 24  1  0  0  0  0
 22 25  1  0  0  0  0
 22  1  1  0  0  0  0
 23 22  1  0  0  0  0
 25 26  1  0  0  0  0
 27 25  1  0  0  0  0
 28 33  1  0  0  0  0
 28 34  1  0  0  0  0
 29 28  2  0  0  0  0
 30 31  2  0  0  0  0
 30 29  1  0  0  0  0
 31 32  1  0  0  0  0
 32 25  1  0  0  0  0
 32 33  2  0  0  0  0
 35 29  1  0  0  0  0
 36 30  1  0  0  0  0
 37 36  1  0  0  0  0
 38 36  1  0  0  0  0
 39 36  1  0  0  0  0
M  END
>  <minimizedAffinity>
-6.69835854

$$$$

 OpenBabel03242515193D

 39 42  0  0  0  0  0  0  0  0999 V2000
   36.9140   28.8430   41.7070 C   0  0  0  0  0  0  0  0  0  0  0  0
   36.7670   28.2830   40.4740 C   0  0  0  0  0  0  0  0  0  0  0  0
   36.9570   29.2730   39.5380 C   0  0  0  0  0  0  0  0  0  0  0  0
   37.2130   30.4030   40.2040 N   0  0  0  0  0  0  0  0  0  0  0  0
   37.1850   30.1320   41.5160 N   0  0  0  0  0  0  0  0  0  0  0  0
   36.5360   27.2310   40.3800 H   0  0  0  0  0  0  0  0  0  0  0  0
   36.9000   28.9810   38.1190 C   0  0  0  0  0  0  0  0  0  0  0  0
   37.9560   28.7220   37.2780 C   0  0  0  0  0  0  0  0  0  0  0  0
   38.9480   28.7620   37.6660 H   0  0  0  0  0  0  0  0  0  0  0  0
   37.8710   28.4240   35.9440 C   0  0  0  0  0  3  0  0  0  0  0  0
   36.6470   28.3660   35.3470 C   0  0  0  0  0  3  0  0  0  0  0  0
   35.5350   28.6090   36.1100 C   0  0  0  0  0  0  0  0  0  0  0  0
   34.3220   28.5310   35.4630 C   0  0  0  0  0  3  0  0  0  0  0  0
   33.1590   28.7530   36.1640 C   0  0  0  0  0  3  0  0  0  0  0  0
   33.2340   29.0520   37.5080 C   0  0  0  0  0  3  0  0  0  0  0  0
   34.4770   29.1170   38.1000 C   0  0  0  0  0  3  0  0  0  0  0  0
   35.6720   28.9050   37.4500 C   0  0  0  0  0  0  0  0  0  0  0  0
   37.4950   31.7230   39.6290 C   0  0  0  0  0  0  0  0  0  0  0  0
   38.7910   31.7210   39.0640 F   0  0  0  0  0  0  0  0  0  0  0  0
   37.3510   32.6900   40.5540 F   0  0  0  0  0  0  0  0  0  0  0  0
   36.6410   31.9320   38.5640 F   0  0  0  0  0  0  0  0  0  0  0  0
   36.8250   28.2300   43.0470 C   0  0  0  0  0  0  0  0  0  0  0  0
   36.1890   27.3220   43.0420 H   0  0  0  0  0  0  0  0  0  0  0  0
   36.3170   28.9880   43.7110 H   0  0  0  0  0  0  0  0  0  0  0  0
   38.1810   27.9750   43.6270 C   0  0  0  0  0  0  0  0  0  0  0  0
   38.1200   28.1660   44.6870 H   0  0  0  0  0  0  0  0  0  0  0  0
   38.8850   28.7390   43.1820 H   0  0  0  0  0  0  0  0  0  0  0  0
   40.1810   24.8570   43.2730 C   0  0  0  0  0  0  0  0  0  0  0  0
   39.3700   24.1340   42.3630 C   0  0  0  0  0  0  0  0  0  0  0  0
   38.2070   24.7400   41.9290 C   0  0  0  0  0  0  0  0  0  0  0  0
   37.9640   25.9620   42.4190 N   0  0  0  0  0  0  0  0  0  0  0  0
   38.7290   26.6360   43.2730 C   0  0  0  0  0  0  0  0  0  0  0  0
   39.8400   26.0630   43.6910 N   0  0  0  0  0  0  0  0  0  0  0  0
   41.1050   24.4390   43.6520 H   0  0  0  0  0  0  0  0  0  0  0  0
   39.7500   23.1600   42.0930 H   0  0  0  0  0  0  0  0  0  0  0  0
   37.3810   23.9830   40.9950 C   0  0  0  0  0  0  0  0  0  0  0  0
   36.0650   23.9610   41.4670 F   0  0  0  0  0  0  0  0  0  0  0  0
   37.7990   22.6540   41.1030 F   0  0  0  0  0  0  0  0  0  0  0  0
   37.4200   24.4660   39.7240 F   0  0  0  0  0  0  0  0  0  0  0  0
  1 22  1  0  0  0  0
  2  1  1  0  0  0  0
  3  4  1  0  0  0  0
  3  2  2  0  0  0  0
  4  5  1  0  0  0  0
  5  1  2  0  0  0  0
  6  2  1  0  0  0  0
  7  3  1  0  0  0  0
  8  9  1  0  0  0  0
  8  7  2  0  0  0  0
 10  8  1  0  0  0  0
 11 10  2  0  0  0  0
 11 12  1  0  0  0  0
 12 17  1  0  0  0  0
 13 12  2  0  0  0  0
 13 14  1  0  0  0  0
 14 15  2  0  0  0  0
 15 16  1  0  0  0  0
 17 16  2  0  0  0  0
 17  7  1  0  0  0  0
 18  4  1  0  0  0  0
 18 20  1  0  0  0  0
 19 18  1  0  0  0  0
 21 18  1  0  0  0  0
 22 25  1  0  0  0  0
 22 24  1  0  0  0  0
 23 22  1  0  0  0  0
 25 26  1  0  0  0  0
 27 25  1  0  0  0  0
 28 34  1  0  0  0  0
 28 33  1  0  0  0  0
 29 28  2  0  0  0  0
 30 29  1  0  0  0  0
 30 31  2  0  0  0  0
 31 32  1  0  0  0  0
 32 25  1  0  0  0  0
 32 33  2  0  0  0  0
 35 29  1  0  0  0  0
 36 38  1  0  0  0  0
 36 37  1  0  0  0  0
 36 30  1  0  0  0  0
 39 36  1  0  0  0  0
M  END
>  <minimizedAffinity>
-6.58338594

$$$$

 OpenBabel03242515193D

 39 42  0  0  0  0  0  0  0  0999 V2000
   37.2390   28.5880   42.4070 C   0  0  0  0  0  0  0  0  0  0  0  0
   36.3850   28.1880   41.4240 C   0  0  0  0  0  0  0  0  0  0  0  0
   36.3690   29.1670   40.4580 C   0  0  0  0  0  0  0  0  0  0  0  0
   37.1990   30.1330   40.8610 N   0  0  0  0  0  0  0  0  0  0  0  0
   37.7200   29.7730   42.0420 N   0  0  0  0  0  0  0  0  0  0  0  0
   35.8660   27.2430   41.5070 H   0  0  0  0  0  0  0  0  0  0  0  0
   35.5750   29.0160   39.2540 C   0  0  0  0  0  0  0  0  0  0  0  0
   34.2140   29.1660   39.1280 C   0  0  0  0  0  0  0  0  0  0  0  0
   33.6360   29.3900   39.9960 H   0  0  0  0  0  0  0  0  0  0  0  0
   33.4920   29.0410   37.9720 C   0  0  0  0  0  3  0  0  0  0  0  0
   34.1370   28.7400   36.8080 C   0  0  0  0  0  3  0  0  0  0  0  0
   35.4970   28.5720   36.8390 C   0  0  0  0  0  0  0  0  0  0  0  0
   36.1010   28.2760   35.6380 C   0  0  0  0  0  3  0  0  0  0  0  0
   37.4660   28.1010   35.5860 C   0  0  0  0  0  3  0  0  0  0  0  0
   38.2010   28.2270   36.7450 C   0  0  0  0  0  3  0  0  0  0  0  0
   37.5390   28.5240   37.9170 C   0  0  0  0  0  3  0  0  0  0  0  0
   36.1790   28.7090   38.0290 C   0  0  0  0  0  0  0  0  0  0  0  0
   37.5180   31.3770   40.1500 C   0  0  0  0  0  0  0  0  0  0  0  0
   36.3700   31.8290   39.4580 F   0  0  0  0  0  0  0  0  0  0  0  0
   38.5660   31.2020   39.3240 F   0  0  0  0  0  0  0  0  0  0  0  0
   37.7850   32.3610   41.0800 F   0  0  0  0  0  0  0  0  0  0  0  0
   37.6310   27.9120   43.6600 C   0  0  0  0  0  0  0  0  0  0  0  0
   36.9650   27.0560   43.8900 H   0  0  0  0  0  0  0  0  0  0  0  0
   37.4960   28.6690   44.4850 H   0  0  0  0  0  0  0  0  0  0  0  0
   39.0770   27.5260   43.6470 C   0  0  0  0  0  0  0  0  0  0  0  0
   39.3360   27.2130   44.6460 H   0  0  0  0  0  0  0  0  0  0  0  0
   39.6720   28.4590   43.4160 H   0  0  0  0  0  0  0  0  0  0  0  0
   40.6790   25.4300   41.0230 C   0  0  0  0  0  0  0  0  0  0  0  0
   39.5990   24.5780   40.6800 C   0  0  0  0  0  0  0  0  0  0  0  0
   38.4070   24.7640   41.3510 C   0  0  0  0  0  0  0  0  0  0  0  0
   38.3940   25.7410   42.2670 N   0  0  0  0  0  0  0  0  0  0  0  0
   39.4110   26.5360   42.5850 C   0  0  0  0  0  0  0  0  0  0  0  0
   40.5520   26.3640   41.9480 N   0  0  0  0  0  0  0  0  0  0  0  0
   41.6410   25.3370   40.5350 H   0  0  0  0  0  0  0  0  0  0  0  0
   39.8200   23.8530   39.9110 H   0  0  0  0  0  0  0  0  0  0  0  0
   37.3050   23.8780   40.9900 C   0  0  0  0  0  0  0  0  0  0  0  0
   36.8050   24.2590   39.7410 F   0  0  0  0  0  0  0  0  0  0  0  0
   36.2660   24.1780   41.8750 F   0  0  0  0  0  0  0  0  0  0  0  0
   37.6500   22.5620   40.9800 F   0  0  0  0  0  0  0  0  0  0  0  0
  1 22  1  0  0  0  0
  2  6  1  0  0  0  0
  2  1  1  0  0  0  0
  3  4  1  0  0  0  0
  3  2  2  0  0  0  0
  4  5  1  0  0  0  0
  5  1  2  0  0  0  0
  7  3  1  0  0  0  0
  8  7  1  0  0  0  0
  8  9  1  0  0  0  0
 10  8  2  0  0  0  0
 11 12  2  0  0  0  0
 11 10  1  0  0  0  0
 12 17  1  0  0  0  0
 13 12  1  0  0  0  0
 14 13  2  0  0  0  0
 14 15  1  0  0  0  0
 15 16  2  0  0  0  0
 16 17  1  0  0  0  0
 17  7  2  0  0  0  0
 18  4  1  0  0  0  0
 18 21  1  0  0  0  0
 19 18  1  0  0  0  0
 20 18  1  0  0  0  0
 22 23  1  0  0  0  0
 22 24  1  0  0  0  0
 25 22  1  0  0  0  0
 25 26  1  0  0  0  0
 27 25  1  0  0  0  0
 28 33  1  0  0  0  0
 29 28  2  0  0  0  0
 29 30  1  0  0  0  0
 30 31  2  0  0  0  0
 31 32  1  0  0  0  0
 32 25  1  0  0  0  0
 33 32  2  0  0  0  0
 34 28  1  0  0  0  0
 35 29  1  0  0  0  0
 36 30  1  0  0  0  0
 36 38  1  0  0  0  0
 37 36  1  0  0  0  0
 39 36  1  0  0  0  0
M  END
>  <minimizedAffinity>
-6.50274181

$$$$

 OpenBabel03242515193D

 39 42  0  0  0  0  0  0  0  0999 V2000
   34.4070   28.0060   36.8770 C   0  0  0  0  0  0  0  0  0  0  0  0
   33.6540   29.0810   37.2390 C   0  0  0  0  0  0  0  0  0  0  0  0
   32.3720   28.8680   36.7870 C   0  0  0  0  0  0  0  0  0  0  0  0
   32.3650   27.6860   36.1660 N   0  0  0  0  0  0  0  0  0  0  0  0
   33.6010   27.1720   36.2260 N   0  0  0  0  0  0  0  0  0  0  0  0
   34.1040   29.9010   37.7840 H   0  0  0  0  0  0  0  0  0  0  0  0
   31.3180   29.8280   37.0510 C   0  0  0  0  0  0  0  0  0  0  0  0
   30.6220   30.0010   38.2240 C   0  0  0  0  0  0  0  0  0  0  0  0
   30.8300   29.3560   39.0490 H   0  0  0  0  0  0  0  0  0  0  0  0
   29.6460   30.9330   38.4540 C   0  0  0  0  0  3  0  0  0  0  0  0
   29.2940   31.7940   37.4570 C   0  0  0  0  0  3  0  0  0  0  0  0
   29.9360   31.6950   36.2500 C   0  0  0  0  0  0  0  0  0  0  0  0
   29.5500   32.5920   35.2790 C   0  0  0  0  0  3  0  0  0  0  0  0
   30.1560   32.5620   34.0440 C   0  0  0  0  0  3  0  0  0  0  0  0
   31.1410   31.6280   33.8040 C   0  0  0  0  0  3  0  0  0  0  0  0
   31.4840   30.7560   34.8150 C   0  0  0  0  0  3  0  0  0  0  0  0
   30.9140   30.7400   36.0690 C   0  0  0  0  0  0  0  0  0  0  0  0
   31.2150   27.0290   35.5310 C   0  0  0  0  0  0  0  0  0  0  0  0
   30.0660   27.2180   36.3330 F   0  0  0  0  0  0  0  0  0  0  0  0
   31.4680   25.7240   35.3150 F   0  0  0  0  0  0  0  0  0  0  0  0
   30.9350   27.6780   34.3460 F   0  0  0  0  0  0  0  0  0  0  0  0
   35.8350   27.7190   37.1200 C   0  0  0  0  0  0  0  0  0  0  0  0
   36.4600   28.6290   37.0180 H   0  0  0  0  0  0  0  0  0  0  0  0
   36.1570   27.0020   36.3100 H   0  0  0  0  0  0  0  0  0  0  0  0
   36.0410   27.0260   38.4300 C   0  0  0  0  0  0  0  0  0  0  0  0
   36.7620   26.2400   38.2700 H   0  0  0  0  0  0  0  0  0  0  0  0
   35.0610   26.5390   38.7110 H   0  0  0  0  0  0  0  0  0  0  0  0
   36.8270   29.9530   40.5900 C   0  0  0  0  0  0  0  0  0  0  0  0
   37.0330   29.3060   41.8340 C   0  0  0  0  0  0  0  0  0  0  0  0
   36.8950   27.9320   41.8650 C   0  0  0  0  0  0  0  0  0  0  0  0
   36.5770   27.3470   40.7040 N   0  0  0  0  0  0  0  0  0  0  0  0
   36.3850   27.9590   39.5390 C   0  0  0  0  0  0  0  0  0  0  0  0
   36.5150   29.2710   39.5020 N   0  0  0  0  0  0  0  0  0  0  0  0
   36.9210   31.0270   40.4960 H   0  0  0  0  0  0  0  0  0  0  0  0
   37.2840   29.9650   42.6510 H   0  0  0  0  0  0  0  0  0  0  0  0
   37.1060   27.2800   43.1530 C   0  0  0  0  0  0  0  0  0  0  0  0
   37.3150   25.9140   42.9430 F   0  0  0  0  0  0  0  0  0  0  0  0
   35.8790   27.3360   43.8180 F   0  0  0  0  0  0  0  0  0  0  0  0
   38.1360   27.8120   43.8660 F   0  0  0  0  0  0  0  0  0  0  0  0
  1 22  1  0  0  0  0
  1  2  1  0  0  0  0
  2  6  1  0  0  0  0
  3  7  1  0  0  0  0
  3  2  2  0  0  0  0
  4  5  1  0  0  0  0
  4  3  1  0  0  0  0
  5  1  2  0  0  0  0
  7  8  1  0  0  0  0
  8 10  2  0  0  0  0
  8  9  1  0  0  0  0
 11 10  1  0  0  0  0
 12 11  2  0  0  0  0
 13 12  1  0  0  0  0
 14 13  2  0  0  0  0
 15 14  1  0  0  0  0
 15 16  2  0  0  0  0
 16 17  1  0  0  0  0
 17 12  1  0  0  0  0
 17  7  2  0  0  0  0
 18  4  1  0  0  0  0
 18 19  1  0  0  0  0
 20 18  1  0  0  0  0
 21 18  1  0  0  0  0
 22 25  1  0  0  0  0
 23 22  1  0  0  0  0
 24 22  1  0  0  0  0
 25 27  1  0  0  0  0
 25 32  1  0  0  0  0
 26 25  1  0  0  0  0
 28 29  1  0  0  0  0
 29 30  2  0  0  0  0
 29 35  1  0  0  0  0
 30 36  1  0  0  0  0
 31 30  1  0  0  0  0
 32 31  2  0  0  0  0
 33 32  1  0  0  0  0
 33 28  2  0  0  0  0
 34 28  1  0  0  0  0
 36 38  1  0  0  0  0
 36 39  1  0  0  0  0
 37 36  1  0  0  0  0
M  END
>  <minimizedAffinity>
-6.49901962

$$$$

 OpenBabel03242515193D

 39 42  0  0  0  0  0  0  0  0999 V2000
   38.6370   30.0100   41.7800 C   0  0  0  0  0  0  0  0  0  0  0  0
   39.7210   30.5440   41.1510 C   0  0  0  0  0  0  0  0  0  0  0  0
   39.3330   30.9030   39.8800 C   0  0  0  0  0  0  0  0  0  0  0  0
   38.0410   30.5860   39.7570 N   0  0  0  0  0  0  0  0  0  0  0  0
   37.6300   30.0460   40.9130 N   0  0  0  0  0  0  0  0  0  0  0  0
   40.6680   30.6160   41.6670 H   0  0  0  0  0  0  0  0  0  0  0  0
   40.2630   31.5390   38.9680 C   0  0  0  0  0  0  0  0  0  0  0  0
   40.5600   32.8790   38.8790 C   0  0  0  0  0  0  0  0  0  0  0  0
   40.0470   33.5650   39.5140 H   0  0  0  0  0  0  0  0  0  0  0  0
   41.4620   33.4510   38.0220 C   0  0  0  0  0  3  0  0  0  0  0  0
   42.1570   32.6600   37.1560 C   0  0  0  0  0  3  0  0  0  0  0  0
   41.9260   31.3090   37.1740 C   0  0  0  0  0  0  0  0  0  0  0  0
   42.6580   30.5540   36.2860 C   0  0  0  0  0  3  0  0  0  0  0  0
   42.4900   29.1880   36.2500 C   0  0  0  0  0  3  0  0  0  0  0  0
   41.5850   28.6030   37.1100 C   0  0  0  0  0  3  0  0  0  0  0  0
   40.8810   29.4120   37.9770 C   0  0  0  0  0  3  0  0  0  0  0  0
   41.0080   30.7810   38.0560 C   0  0  0  0  0  0  0  0  0  0  0  0
   37.1890   30.7950   38.5810 C   0  0  0  0  0  0  0  0  0  0  0  0
   35.8820   30.3340   38.8610 F   0  0  0  0  0  0  0  0  0  0  0  0
   37.7130   30.1930   37.4960 F   0  0  0  0  0  0  0  0  0  0  0  0
   37.0520   32.1520   38.3700 F   0  0  0  0  0  0  0  0  0  0  0  0
   38.5000   29.4790   43.1510 C   0  0  0  0  0  0  0  0  0  0  0  0
   38.2210   30.2740   43.8730 H   0  0  0  0  0  0  0  0  0  0  0  0
   39.5200   29.1010   43.4500 H   0  0  0  0  0  0  0  0  0  0  0  0
   37.5650   28.3110   43.1980 C   0  0  0  0  0  0  0  0  0  0  0  0
   36.8050   28.4760   42.4510 H   0  0  0  0  0  0  0  0  0  0  0  0
   37.0610   28.3230   44.2090 H   0  0  0  0  0  0  0  0  0  0  0  0
   39.8510   25.3870   43.4760 C   0  0  0  0  0  0  0  0  0  0  0  0
   39.2120   24.4770   42.5980 C   0  0  0  0  0  0  0  0  0  0  0  0
   38.0580   24.9040   41.9710 C   0  0  0  0  0  0  0  0  0  0  0  0
   37.6580   26.1490   42.2610 N   0  0  0  0  0  0  0  0  0  0  0  0
   38.2610   26.9980   43.0870 C   0  0  0  0  0  0  0  0  0  0  0  0
   39.3640   26.5970   43.6890 N   0  0  0  0  0  0  0  0  0  0  0  0
   40.7590   25.1150   43.9990 H   0  0  0  0  0  0  0  0  0  0  0  0
   39.7010   23.5190   42.5030 H   0  0  0  0  0  0  0  0  0  0  0  0
   37.4090   23.9560   41.0720 C   0  0  0  0  0  0  0  0  0  0  0  0
   37.4170   24.4790   39.7760 F   0  0  0  0  0  0  0  0  0  0  0  0
   36.0580   23.9530   41.4270 F   0  0  0  0  0  0  0  0  0  0  0  0
   37.9790   22.7200   41.0870 F   0  0  0  0  0  0  0  0  0  0  0  0
  1 22  1  0  0  0  0
  2  6  1  0  0  0  0
  2  1  1  0  0  0  0
  3  2  2  0  0  0  0
  4  3  1  0  0  0  0
  4  5  1  0  0  0  0
  5  1  2  0  0  0  0
  7  3  1  0  0  0  0
  8  7  1  0  0  0  0
  8  9  1  0  0  0  0
 10  8  2  0  0  0  0
 11 12  2  0  0  0  0
 11 10  1  0  0  0  0
 12 17  1  0  0  0  0
 13 12  1  0  0  0  0
 14 13  2  0  0  0  0
 14 15  1  0  0  0  0
 15 16  2  0  0  0  0
 16 17  1  0  0  0  0
 17  7  2  0  0  0  0
 18 19  1  0  0  0  0
 18  4  1  0  0  0  0
 20 18  1  0  0  0  0
 21 18  1  0  0  0  0
 22 25  1  0  0  0  0
 22 24  1  0  0  0  0
 22 23  1  0  0  0  0
 25 27  1  0  0  0  0
 26 25  1  0  0  0  0
 28 33  1  0  0  0  0
 28 34  1  0  0  0  0
 29 28  2  0  0  0  0
 30 31  2  0  0  0  0
 30 29  1  0  0  0  0
 31 32  1  0  0  0  0
 32 25  1  0  0  0  0
 32 33  2  0  0  0  0
 35 29  1  0  0  0  0
 36 39  1  0  0  0  0
 36 38  1  0  0  0  0
 36 30  1  0  0  0  0
 37 36  1  0  0  0  0
M  END
>  <minimizedAffinity>
-6.49659443

$$$$

 OpenBabel03242515193D

 39 42  0  0  0  0  0  0  0  0999 V2000
   38.8130   29.9290   41.6970 C   0  0  0  0  0  0  0  0  0  0  0  0
   39.9550   30.0410   40.9630 C   0  0  0  0  0  0  0  0  0  0  0  0
   39.5970   30.3820   39.6790 C   0  0  0  0  0  0  0  0  0  0  0  0
   38.2650   30.4710   39.6510 N   0  0  0  0  0  0  0  0  0  0  0  0
   37.7990   30.1950   40.8770 N   0  0  0  0  0  0  0  0  0  0  0  0
   40.9170   29.8630   41.4240 H   0  0  0  0  0  0  0  0  0  0  0  0
   40.6030   30.6110   38.6590 C   0  0  0  0  0  0  0  0  0  0  0  0
   41.1380   29.6870   37.7930 C   0  0  0  0  0  0  0  0  0  0  0  0
   40.8280   28.6690   37.8670 H   0  0  0  0  0  0  0  0  0  0  0  0
   42.0690   29.9370   36.8220 C   0  0  0  0  0  3  0  0  0  0  0  0
   42.5430   31.2050   36.6580 C   0  0  0  0  0  3  0  0  0  0  0  0
   42.0650   32.1930   37.4780 C   0  0  0  0  0  0  0  0  0  0  0  0
   42.5690   33.4570   37.2680 C   0  0  0  0  0  3  0  0  0  0  0  0
   42.1310   34.5040   38.0460 C   0  0  0  0  0  3  0  0  0  0  0  0
   41.1910   34.2630   39.0250 C   0  0  0  0  0  3  0  0  0  0  0  0
   40.7250   32.9760   39.1890 C   0  0  0  0  0  3  0  0  0  0  0  0
   41.1260   31.8910   38.4420 C   0  0  0  0  0  0  0  0  0  0  0  0
   37.4270   30.8240   38.4980 C   0  0  0  0  0  0  0  0  0  0  0  0
   36.0650   30.6730   38.8450 F   0  0  0  0  0  0  0  0  0  0  0  0
   37.7570   30.0830   37.4220 F   0  0  0  0  0  0  0  0  0  0  0  0
   37.5830   32.1690   38.2340 F   0  0  0  0  0  0  0  0  0  0  0  0
   38.6270   29.5970   43.1240 C   0  0  0  0  0  0  0  0  0  0  0  0
   38.3350   30.4870   43.7170 H   0  0  0  0  0  0  0  0  0  0  0  0
   39.6340   29.2590   43.5050 H   0  0  0  0  0  0  0  0  0  0  0  0
   37.6800   28.4530   43.3030 C   0  0  0  0  0  0  0  0  0  0  0  0
   36.8560   28.6070   42.6260 H   0  0  0  0  0  0  0  0  0  0  0  0
   37.2740   28.5150   44.3560 H   0  0  0  0  0  0  0  0  0  0  0  0
   39.8790   25.4610   43.5560 C   0  0  0  0  0  0  0  0  0  0  0  0
   39.2150   24.5790   42.6670 C   0  0  0  0  0  0  0  0  0  0  0  0
   38.0760   25.0460   42.0430 C   0  0  0  0  0  0  0  0  0  0  0  0
   37.7110   26.2980   42.3450 N   0  0  0  0  0  0  0  0  0  0  0  0
   38.3380   27.1220   43.1810 C   0  0  0  0  0  0  0  0  0  0  0  0
   39.4270   26.6820   43.7800 N   0  0  0  0  0  0  0  0  0  0  0  0
   40.7780   25.1580   44.0770 H   0  0  0  0  0  0  0  0  0  0  0  0
   39.6770   23.6090   42.5640 H   0  0  0  0  0  0  0  0  0  0  0  0
   37.4010   24.1260   41.1340 C   0  0  0  0  0  0  0  0  0  0  0  0
   38.0430   22.8850   41.1830 F   0  0  0  0  0  0  0  0  0  0  0  0
   37.6700   24.5940   39.8450 F   0  0  0  0  0  0  0  0  0  0  0  0
   36.0730   23.9830   41.3950 F   0  0  0  0  0  0  0  0  0  0  0  0
  1 22  1  0  0  0  0
  2  6  1  0  0  0  0
  2  1  1  0  0  0  0
  3  2  2  0  0  0  0
  4  3  1  0  0  0  0
  4  5  1  0  0  0  0
  5  1  2  0  0  0  0
  7  3  1  0  0  0  0
  8  9  1  0  0  0  0
  8  7  2  0  0  0  0
 10  8  1  0  0  0  0
 11 10  2  0  0  0  0
 11 12  1  0  0  0  0
 12 17  1  0  0  0  0
 13 12  2  0  0  0  0
 13 14  1  0  0  0  0
 14 15  2  0  0  0  0
 15 16  1  0  0  0  0
 17  7  1  0  0  0  0
 17 16  2  0  0  0  0
 18 19  1  0  0  0  0
 18  4  1  0  0  0  0
 20 18  1  0  0  0  0
 21 18  1  0  0  0  0
 22 25  1  0  0  0  0
 22 24  1  0  0  0  0
 22 23  1  0  0  0  0
 25 27  1  0  0  0  0
 26 25  1  0  0  0  0
 28 33  1  0  0  0  0
 28 34  1  0  0  0  0
 29 28  2  0  0  0  0
 30 31  2  0  0  0  0
 30 29  1  0  0  0  0
 31 32  1  0  0  0  0
 32 25  1  0  0  0  0
 32 33  2  0  0  0  0
 35 29  1  0  0  0  0
 36 37  1  0  0  0  0
 36 39  1  0  0  0  0
 36 30  1  0  0  0  0
 38 36  1  0  0  0  0
M  END
>  <minimizedAffinity>
-6.46119928

$$$$

 OpenBabel03242515193D

 39 42  0  0  0  0  0  0  0  0999 V2000
   39.9070   28.5850   40.9460 C   0  0  0  0  0  0  0  0  0  0  0  0
   39.3150   27.8070   39.9980 C   0  0  0  0  0  0  0  0  0  0  0  0
   38.1160   27.3630   40.5070 C   0  0  0  0  0  0  0  0  0  0  0  0
   37.9990   27.8700   41.7380 N   0  0  0  0  0  0  0  0  0  0  0  0
   39.0880   28.6080   41.9940 N   0  0  0  0  0  0  0  0  0  0  0  0
   39.8050   27.6400   39.0480 H   0  0  0  0  0  0  0  0  0  0  0  0
   37.2280   26.5350   39.7150 C   0  0  0  0  0  0  0  0  0  0  0  0
   36.2890   26.9550   38.8020 C   0  0  0  0  0  0  0  0  0  0  0  0
   36.1450   28.0010   38.6530 H   0  0  0  0  0  0  0  0  0  0  0  0
   35.4800   26.1490   38.0490 C   0  0  0  0  0  3  0  0  0  0  0  0
   35.5740   24.7940   38.1780 C   0  0  0  0  0  3  0  0  0  0  0  0
   36.4860   24.2850   39.0660 C   0  0  0  0  0  0  0  0  0  0  0  0
   36.5480   22.9120   39.1550 C   0  0  0  0  0  3  0  0  0  0  0  0
   37.4450   22.3250   40.0190 C   0  0  0  0  0  3  0  0  0  0  0  0
   38.2660   23.1290   40.7800 C   0  0  0  0  0  3  0  0  0  0  0  0
   38.1570   24.4960   40.6480 C   0  0  0  0  0  3  0  0  0  0  0  0
   37.2790   25.1390   39.8030 C   0  0  0  0  0  0  0  0  0  0  0  0
   36.8790   27.6820   42.6670 C   0  0  0  0  0  0  0  0  0  0  0  0
   37.0930   28.4650   43.8240 F   0  0  0  0  0  0  0  0  0  0  0  0
   36.7170   26.3790   42.9660 F   0  0  0  0  0  0  0  0  0  0  0  0
   35.7360   28.1990   42.0920 F   0  0  0  0  0  0  0  0  0  0  0  0
   41.1910   29.3140   40.9120 C   0  0  0  0  0  0  0  0  0  0  0  0
   42.0550   28.6280   41.0270 H   0  0  0  0  0  0  0  0  0  0  0  0
   41.1910   30.0010   41.8070 H   0  0  0  0  0  0  0  0  0  0  0  0
   41.3030   30.1760   39.6940 C   0  0  0  0  0  0  0  0  0  0  0  0
   40.8770   29.6260   38.8700 H   0  0  0  0  0  0  0  0  0  0  0  0
   42.4030   30.3150   39.4810 H   0  0  0  0  0  0  0  0  0  0  0  0
   40.6590   33.7580   40.4720 C   0  0  0  0  0  0  0  0  0  0  0  0
   39.3050   33.8690   40.0690 C   0  0  0  0  0  0  0  0  0  0  0  0
   38.6990   32.7360   39.5630 C   0  0  0  0  0  0  0  0  0  0  0  0
   39.4610   31.6370   39.5060 N   0  0  0  0  0  0  0  0  0  0  0  0
   40.7320   31.5380   39.8850 C   0  0  0  0  0  0  0  0  0  0  0  0
   41.3170   32.6170   40.3690 N   0  0  0  0  0  0  0  0  0  0  0  0
   41.1940   34.6080   40.8760 H   0  0  0  0  0  0  0  0  0  0  0  0
   38.8720   34.8490   40.2000 H   0  0  0  0  0  0  0  0  0  0  0  0
   37.3060   32.8650   39.1500 C   0  0  0  0  0  0  0  0  0  0  0  0
   36.5260   31.9680   39.8870 F   0  0  0  0  0  0  0  0  0  0  0  0
   37.2450   32.3710   37.8440 F   0  0  0  0  0  0  0  0  0  0  0  0
   36.8190   34.1300   39.2770 F   0  0  0  0  0  0  0  0  0  0  0  0
  1  5  2  0  0  0  0
  2  3  2  0  0  0  0
  2  1  1  0  0  0  0
  3  4  1  0  0  0  0
  4  5  1  0  0  0  0
  4 18  1  0  0  0  0
  6  2  1  0  0  0  0
  7 17  1  0  0  0  0
  7  3  1  0  0  0  0
  8  7  2  0  0  0  0
  9  8  1  0  0  0  0
 10 11  2  0  0  0  0
 10  8  1  0  0  0  0
 11 12  1  0  0  0  0
 12 13  2  0  0  0  0
 12 17  1  0  0  0  0
 13 14  1  0  0  0  0
 14 15  2  0  0  0  0
 16 15  1  0  0  0  0
 17 16  2  0  0  0  0
 18 20  1  0  0  0  0
 18 19  1  0  0  0  0
 21 18  1  0  0  0  0
 22  1  1  0  0  0  0
 22 23  1  0  0  0  0
 22 24  1  0  0  0  0
 25 32  1  0  0  0  0
 25 22  1  0  0  0  0
 26 25  1  0  0  0  0
 27 25  1  0  0  0  0
 28 34  1  0  0  0  0
 29 35  1  0  0  0  0
 29 28  2  0  0  0  0
 30 29  1  0  0  0  0
 31 30  2  0  0  0  0
 31 32  1  0  0  0  0
 32 33  2  0  0  0  0
 33 28  1  0  0  0  0
 36 39  1  0  0  0  0
 36 30  1  0  0  0  0
 36 37  1  0  0  0  0
 38 36  1  0  0  0  0
M  END
>  <minimizedAffinity>
-6.44500446

$$$$

 OpenBabel03242515193D

 39 42  0  0  0  0  0  0  0  0999 V2000
   34.4010   27.5460   37.3000 C   0  0  0  0  0  0  0  0  0  0  0  0
   33.9610   28.7970   36.9900 C   0  0  0  0  0  0  0  0  0  0  0  0
   32.7840   28.6660   36.2900 C   0  0  0  0  0  0  0  0  0  0  0  0
   32.5290   27.3590   36.1860 N   0  0  0  0  0  0  0  0  0  0  0  0
   33.5140   26.6890   36.8010 N   0  0  0  0  0  0  0  0  0  0  0  0
   34.5310   29.6640   37.2940 H   0  0  0  0  0  0  0  0  0  0  0  0
   32.0440   29.8320   35.8470 C   0  0  0  0  0  0  0  0  0  0  0  0
   32.1660   30.4900   34.6450 C   0  0  0  0  0  0  0  0  0  0  0  0
   32.8970   30.1560   33.9450 H   0  0  0  0  0  0  0  0  0  0  0  0
   31.4360   31.5760   34.2430 C   0  0  0  0  0  3  0  0  0  0  0  0
   30.4870   32.0910   35.0750 C   0  0  0  0  0  3  0  0  0  0  0  0
   30.2950   31.4980   36.2950 C   0  0  0  0  0  0  0  0  0  0  0  0
   29.3200   32.0510   37.0950 C   0  0  0  0  0  3  0  0  0  0  0  0
   29.0620   31.5050   38.3320 C   0  0  0  0  0  3  0  0  0  0  0  0
   29.7910   30.4100   38.7460 C   0  0  0  0  0  3  0  0  0  0  0  0
   30.7540   29.9020   37.9010 C   0  0  0  0  0  3  0  0  0  0  0  0
   31.0560   30.4050   36.6550 C   0  0  0  0  0  0  0  0  0  0  0  0
   31.3730   26.7330   35.5330 C   0  0  0  0  0  0  0  0  0  0  0  0
   31.3610   27.0850   34.1640 F   0  0  0  0  0  0  0  0  0  0  0  0
   30.2280   27.0790   36.1510 F   0  0  0  0  0  0  0  0  0  0  0  0
   31.5450   25.3630   35.5490 F   0  0  0  0  0  0  0  0  0  0  0  0
   35.6010   27.1170   38.0470 C   0  0  0  0  0  0  0  0  0  0  0  0
   36.3980   26.7530   37.3680 H   0  0  0  0  0  0  0  0  0  0  0  0
   35.2830   26.2440   38.6860 H   0  0  0  0  0  0  0  0  0  0  0  0
   36.0830   28.1890   38.9740 C   0  0  0  0  0  0  0  0  0  0  0  0
   35.3550   28.9840   38.9540 H   0  0  0  0  0  0  0  0  0  0  0  0
   37.0450   28.5960   38.5440 H   0  0  0  0  0  0  0  0  0  0  0  0
   36.6520   27.7120   42.6200 C   0  0  0  0  0  0  0  0  0  0  0  0
   37.1100   26.3710   42.6350 C   0  0  0  0  0  0  0  0  0  0  0  0
   37.1980   25.7170   41.4220 C   0  0  0  0  0  0  0  0  0  0  0  0
   36.8370   26.4250   40.3450 N   0  0  0  0  0  0  0  0  0  0  0  0
   36.4070   27.6840   40.3370 C   0  0  0  0  0  0  0  0  0  0  0  0
   36.3210   28.3140   41.4920 N   0  0  0  0  0  0  0  0  0  0  0  0
   36.5590   28.2820   43.5360 H   0  0  0  0  0  0  0  0  0  0  0  0
   37.3510   25.9860   43.6140 H   0  0  0  0  0  0  0  0  0  0  0  0
   37.6680   24.3360   41.4530 C   0  0  0  0  0  0  0  0  0  0  0  0
   38.0630   24.0190   42.7560 F   0  0  0  0  0  0  0  0  0  0  0  0
   38.8610   24.3200   40.7260 F   0  0  0  0  0  0  0  0  0  0  0  0
   36.7460   23.4400   41.0070 F   0  0  0  0  0  0  0  0  0  0  0  0
  1 22  1  0  0  0  0
  2  6  1  0  0  0  0
  2  1  1  0  0  0  0
  3  2  2  0  0  0  0
  4  3  1  0  0  0  0
  4  5  1  0  0  0  0
  5  1  2  0  0  0  0
  7  3  1  0  0  0  0
  7 17  1  0  0  0  0
  8  7  2  0  0  0  0
  9  8  1  0  0  0  0
 10  8  1  0  0  0  0
 10 11  2  0  0  0  0
 11 12  1  0  0  0  0
 12 17  2  0  0  0  0
 12 13  1  0  0  0  0
 13 14  2  0  0  0  0
 14 15  1  0  0  0  0
 16 15  2  0  0  0  0
 17 16  1  0  0  0  0
 18 21  1  0  0  0  0
 18 20  1  0  0  0  0
 18  4  1  0  0  0  0
 19 18  1  0  0  0  0
 22 24  1  0  0  0  0
 22 25  1  0  0  0  0
 23 22  1  0  0  0  0
 25 32  1  0  0  0  0
 26 25  1  0  0  0  0
 27 25  1  0  0  0  0
 28 29  1  0  0  0  0
 28 34  1  0  0  0  0
 29 35  1  0  0  0  0
 30 36  1  0  0  0  0
 30 29  2  0  0  0  0
 31 30  1  0  0  0  0
 32 31  2  0  0  0  0
 32 33  1  0  0  0  0
 33 28  2  0  0  0  0
 36 37  1  0  0  0  0
 38 36  1  0  0  0  0
 39 36  1  0  0  0  0
M  END
>  <minimizedAffinity>
-6.4337163

$$$$
