
 OpenBabel03242515183D

 39 42  0  0  0  0  0  0  0  0999 V2000
   45.4540   30.5690   47.2510 C   0  0  0  0  0  0  0  0  0  0  0  0
   45.2900   29.9480   46.0500 C   0  0  0  0  0  0  0  0  0  0  0  0
   44.9890   28.6290   46.2970 C   0  0  0  0  0  0  0  0  0  0  0  0
   44.9740   28.4690   47.6230 N   0  0  0  0  0  0  0  0  0  0  0  0
   45.2570   29.6490   48.1910 N   0  0  0  0  0  0  0  0  0  0  0  0
   45.4080   30.5050   45.1300 H   0  0  0  0  0  0  0  0  0  0  0  0
   44.7200   27.7070   45.2100 C   0  0  0  0  0  0  0  0  0  0  0  0
   45.6080   26.8510   44.6030 C   0  0  0  0  0  0  0  0  0  0  0  0
   46.6280   26.8560   44.9170 H   0  0  0  0  0  0  0  0  0  0  0  0
   45.3200   25.9730   43.5940 C   0  0  0  0  0  0  0  0  0  0  0  0
   44.0470   25.9020   43.1090 C   0  0  0  0  0  0  0  0  0  0  0  0
   43.0930   26.7200   43.6560 C   0  0  0  0  0  0  0  0  0  0  0  0
   41.8230   26.6050   43.1380 C   0  0  0  0  0  0  0  0  0  0  0  0
   40.8080   27.3870   43.6420 C   0  0  0  0  0  0  0  0  0  0  0  0
   41.0870   28.2730   44.6600 C   0  0  0  0  0  0  0  0  0  0  0  0
   42.3790   28.3430   45.1360 C   0  0  0  0  0  0  0  0  0  0  0  0
   43.4330   27.5880   44.6720 C   0  0  0  0  0  0  0  0  0  0  0  0
   44.6860   27.2330   48.3610 C   0  0  0  0  0  0  0  0  0  0  0  0
   44.3090   27.5550   49.6850 F   0  0  0  0  0  0  0  0  0  0  0  0
   45.7430   26.3990   48.3280 F   0  0  0  0  0  0  0  0  0  0  0  0
   43.5720   26.6370   47.8060 F   0  0  0  0  0  0  0  0  0  0  0  0
   45.7740   31.9780   47.5580 C   0  0  0  0  0  0  0  0  0  0  0  0
   46.1660   32.0950   48.5880 H   0  0  0  0  0  0  0  0  0  0  0  0
   44.7990   32.5440   47.5070 H   0  0  0  0  0  0  0  0  0  0  0  0
   46.6830   32.5720   46.5280 C   0  0  0  0  0  0  0  0  0  0  0  0
   47.1020   31.7570   45.9590 H   0  0  0  0  0  0  0  0  0  0  0  0
   47.5310   33.0760   47.0790 H   0  0  0  0  0  0  0  0  0  0  0  0
   44.5910   35.3390   45.1820 C   0  0  0  0  0  0  0  0  0  0  0  0
   45.0980   35.4260   43.8610 C   0  0  0  0  0  0  0  0  0  0  0  0
   46.1080   34.5520   43.5110 C   0  0  0  0  0  0  0  0  0  0  0  0
   46.5070   33.7020   44.4660 N   0  0  0  0  0  0  0  0  0  0  0  0
   46.0270   33.6250   45.7040 C   0  0  0  0  0  0  0  0  0  0  0  0
   45.0630   34.4580   46.0450 N   0  0  0  0  0  0  0  0  0  0  0  0
   43.7990   35.9960   45.5210 H   0  0  0  0  0  0  0  0  0  0  0  0
   44.6350   36.1840   43.2470 H   0  0  0  0  0  0  0  0  0  0  0  0
   46.6230   34.6540   42.1500 C   0  0  0  0  0  0  0  0  0  0  0  0
   47.4020   33.5280   41.8720 F   0  0  0  0  0  0  0  0  0  0  0  0
   47.5430   35.7060   42.1660 F   0  0  0  0  0  0  0  0  0  0  0  0
   45.6470   34.7990   41.2120 F   0  0  0  0  0  0  0  0  0  0  0  0
  1 22  1  0  0  0  0
  1  5  2  0  0  0  0
  2  3  2  0  0  0  0
  2  1  1  0  0  0  0
  3  4  1  0  0  0  0
  4  5  1  0  0  0  0
  4 18  1  0  0  0  0
  6  2  1  0  0  0  0
  7  3  1  0  0  0  0
  8  9  1  0  0  0  0
  8  7  2  0  0  0  0
 10  8  1  0  0  0  0
 11 10  2  0  0  0  0
 11 12  1  0  0  0  0
 12 17  1  0  0  0  0
 13 14  1  0  0  0  0
 13 12  2  0  0  0  0
 14 15  2  0  0  0  0
 15 16  1  0  0  0  0
 17 16  2  0  0  0  0
 17  7  1  0  0  0  0
 18 19  1  0  0  0  0
 20 18  1  0  0  0  0
 21 18  1  0  0  0  0
 22 23  1  0  0  0  0
 24 22  1  0  0  0  0
 25 27  1  0  0  0  0
 25 22  1  0  0  0  0
 26 25  1  0  0  0  0
 28 34  1  0  0  0  0
 28 33  1  0  0  0  0
 29 28  2  0  0  0  0
 30 29  1  0  0  0  0
 30 31  2  0  0  0  0
 31 32  1  0  0  0  0
 32 33  2  0  0  0  0
 32 25  1  0  0  0  0
 35 29  1  0  0  0  0
 36 38  1  0  0  0  0
 36 30  1  0  0  0  0
 37 36  1  0  0  0  0
 39 36  1  0  0  0  0
M  END
>  <minimizedAffinity>
-5.83921051

>  <minimizedRMSD>
1.82526791

$$$$
