
 OpenBabel03252507263D

 29 32  0  0  0  0  0  0  0  0999 V2000
   46.1840   33.3310   44.8830 C   0  0  0  0  0  0  0  0  0  0  0  0
   45.2610   34.2960   45.2940 C   0  0  0  0  0  0  0  0  0  0  0  0
   44.9770   35.3470   44.4240 C   0  0  0  0  0  0  0  0  0  0  0  0
   45.6130   35.3820   43.2100 N   0  0  0  0  0  0  0  0  0  0  0  0
   46.4860   34.4470   42.8440 C   0  0  0  0  0  0  0  0  0  0  0  0
   46.7500   33.4540   43.6780 N   0  0  0  0  0  0  0  0  0  0  0  0
   44.7230   34.2750   46.2010 H   0  0  0  0  0  0  0  0  0  0  0  0
   44.2730   36.1060   44.7140 H   0  0  0  0  0  0  0  0  0  0  0  0
   46.5610   32.1290   45.5990 C   0  0  0  0  0  0  0  0  0  0  0  0
   47.4230   31.2320   44.9540 C   0  0  0  0  0  0  0  0  0  0  0  0
   47.7770   31.4420   43.9430 H   0  0  0  0  0  0  0  0  0  0  0  0
   47.8890   30.0570   45.4940 C   0  0  0  0  0  3  0  0  0  0  0  0
   47.5040   29.6980   46.7650 C   0  0  0  0  0  3  0  0  0  0  0  0
   46.6660   30.5290   47.4530 C   0  0  0  0  0  0  0  0  0  0  0  0
   46.2860   30.2280   48.7430 C   0  0  0  0  0  3  0  0  0  0  0  0
   45.4640   31.0560   49.5130 C   0  0  0  0  0  3  0  0  0  0  0  0
   45.0500   32.2310   48.8730 C   0  0  0  0  0  3  0  0  0  0  0  0
   45.4380   32.5050   47.6030 C   0  0  0  0  0  3  0  0  0  0  0  0
   46.2410   31.6850   46.8530 C   0  0  0  0  0  0  0  0  0  0  0  0
   47.1420   34.5180   41.5400 C   0  0  0  0  0  0  0  0  0  0  0  0
   48.2210   35.3440   41.3620 C   0  0  0  0  0  0  0  0  0  0  0  0
   48.9080   35.4860   40.1680 C   0  0  0  0  0  0  0  0  0  0  0  0
   48.4110   34.7070   39.1310 C   0  0  0  0  0  0  0  0  0  0  0  0
   47.3200   33.8670   39.2980 C   0  0  0  0  0  0  0  0  0  0  0  0
   46.7030   33.7890   40.5110 N   0  0  0  0  0  0  0  0  0  0  0  0
   48.5610   35.9300   42.2220 H   0  0  0  0  0  0  0  0  0  0  0  0
   49.7550   36.1290   40.0130 H   0  0  0  0  0  0  0  0  0  0  0  0
   48.8890   34.7520   38.1520 H   0  0  0  0  0  0  0  0  0  0  0  0
   46.9930   33.2890   38.4370 H   0  0  0  0  0  0  0  0  0  0  0  0
  1  2  1  0  0  0  0
  1  9  1  0  0  0  0
  2  7  1  0  0  0  0
  3  8  1  0  0  0  0
  3  2  2  0  0  0  0
  4  3  1  0  0  0  0
  5  4  2  0  0  0  0
  5  6  1  0  0  0  0
  6  1  2  0  0  0  0
  9 19  1  0  0  0  0
 10 12  1  0  0  0  0
 10  9  2  0  0  0  0
 11 10  1  0  0  0  0
 12 13  2  0  0  0  0
 13 14  1  0  0  0  0
 14 15  1  0  0  0  0
 15 16  2  0  0  0  0
 17 16  1  0  0  0  0
 18 17  2  0  0  0  0
 19 14  2  0  0  0  0
 19 18  1  0  0  0  0
 20  5  1  0  0  0  0
 21 20  1  0  0  0  0
 21 26  1  0  0  0  0
 22 21  2  0  0  0  0
 23 24  2  0  0  0  0
 23 22  1  0  0  0  0
 24 25  1  0  0  0  0
 25 20  2  0  0  0  0
 27 22  1  0  0  0  0
 28 23  1  0  0  0  0
 29 24  1  0  0  0  0
M  END
>  <minimizedAffinity>
-6.01070309

>  <minimizedRMSD>
1.4802413

$$$$
