
 OpenBabel03242523343D

 39 43  0  0  0  0  0  0  0  0999 V2000
   45.5360   33.1720   46.4650 C   0  0  0  0  0  0  0  0  0  0  0  0
   44.5710   32.6020   46.4900 H   0  0  0  0  0  0  0  0  0  0  0  0
   45.7460   33.5190   47.4750 H   0  0  0  0  0  0  0  0  0  0  0  0
   44.3940   36.3160   44.8250 C   0  0  0  0  0  0  0  0  0  0  0  0
   44.9950   36.1830   43.5810 C   0  0  0  0  0  0  0  0  0  0  0  0
   45.7700   35.0590   43.2900 C   0  0  0  0  0  0  0  0  0  0  0  0
   45.9030   34.1160   44.2840 N   0  0  0  0  0  0  0  0  0  0  0  0
   45.3070   34.2700   45.4910 C   0  0  0  0  0  0  0  0  0  0  0  0
   44.5760   35.3580   45.7210 N   0  0  0  0  0  0  0  0  0  0  0  0
   43.7940   37.1860   45.0470 H   0  0  0  0  0  0  0  0  0  0  0  0
   44.8610   36.9870   42.9170 H   0  0  0  0  0  0  0  0  0  0  0  0
   46.5260   34.7800   42.0940 C   0  0  0  0  0  0  0  0  0  0  0  0
   47.8640   35.2000   42.0980 C   0  0  0  0  0  0  0  0  0  0  0  0
   48.2840   35.7180   42.9740 H   0  0  0  0  0  0  0  0  0  0  0  0
   48.7500   35.0190   41.0580 C   0  0  0  0  0  0  0  0  0  0  0  0
   48.3240   34.3830   39.9210 C   0  0  0  0  0  0  0  0  0  0  0  0
   47.0230   33.9400   39.8480 C   0  0  0  0  0  0  0  0  0  0  0  0
   46.5740   33.2700   38.7440 C   0  0  0  0  0  0  0  0  0  0  0  0
   45.2710   32.7710   38.6530 C   0  0  0  0  0  0  0  0  0  0  0  0
   44.4330   32.9880   39.7530 C   0  0  0  0  0  0  0  0  0  0  0  0
   44.9370   33.6650   40.8290 C   0  0  0  0  0  0  0  0  0  0  0  0
   46.2130   34.1630   40.9280 C   0  0  0  0  0  0  0  0  0  0  0  0
   46.7590   32.0460   45.7640 S   0  0  0  0  0  0  0  0  0  0  0  0
   47.6940   31.2520   47.0520 C   0  0  0  0  0  0  0  0  0  0  0  0
   47.9170   31.9630   48.2070 C   0  0  0  0  0  0  0  0  0  0  0  0
   48.6390   31.3590   49.2100 C   0  0  0  0  0  0  0  0  0  0  0  0
   49.1420   30.0660   49.0910 C   0  0  0  0  0  0  0  0  0  0  0  0
   49.8430   29.5150   50.0990 N   0  0  0  0  0  0  0  0  0  0  0  0
   50.3350   28.2520   49.9820 C   0  0  0  0  0  0  0  0  0  0  0  0
   50.1110   27.5440   48.8260 C   0  0  0  0  0  0  0  0  0  0  0  0
   49.3960   28.1120   47.8050 C   0  0  0  0  0  0  0  0  0  0  0  0
   48.8720   29.4120   47.8890 C   0  0  0  0  0  0  0  0  0  0  0  0
   48.1590   29.9750   46.8620 C   0  0  0  0  0  0  0  0  0  0  0  0
   47.5980   32.9550   48.4400 H   0  0  0  0  0  0  0  0  0  0  0  0
   48.8600   31.8570   50.1610 H   0  0  0  0  0  0  0  0  0  0  0  0
   50.8840   27.9000   50.8460 H   0  0  0  0  0  0  0  0  0  0  0  0
   50.5180   26.5420   48.7690 H   0  0  0  0  0  0  0  0  0  0  0  0
   49.2420   27.5210   46.9110 H   0  0  0  0  0  0  0  0  0  0  0  0
   47.9840   29.4150   45.9560 H   0  0  0  0  0  0  0  0  0  0  0  0
  1  2  1  0  0  0  0
  1  3  1  0  0  0  0
  4 10  1  0  0  0  0
  4  9  1  0  0  0  0
  5  4  2  0  0  0  0
  6  5  1  0  0  0  0
  6  7  2  0  0  0  0
  7  8  1  0  0  0  0
  8  9  2  0  0  0  0
  8  1  1  0  0  0  0
 11  5  1  0  0  0  0
 12 13  1  0  0  0  0
 12  6  1  0  0  0  0
 13 14  1  0  0  0  0
 15 13  2  0  0  0  0
 16 15  1  0  0  0  0
 17 16  2  0  0  0  0
 17 22  1  0  0  0  0
 18 17  1  0  0  0  0
 19 18  2  0  0  0  0
 19 20  1  0  0  0  0
 20 21  2  0  0  0  0
 21 22  1  0  0  0  0
 22 12  2  0  0  0  0
 23  1  1  0  0  0  0
 23 24  1  0  0  0  0
 24 25  1  0  0  0  0
 25 34  1  0  0  0  0
 25 26  2  0  0  0  0
 26 35  1  0  0  0  0
 27 26  1  0  0  0  0
 27 28  1  0  0  0  0
 29 28  2  0  0  0  0
 29 36  1  0  0  0  0
 30 29  1  0  0  0  0
 31 32  1  0  0  0  0
 31 30  2  0  0  0  0
 32 27  2  0  0  0  0
 33 24  2  0  0  0  0
 33 32  1  0  0  0  0
 37 30  1  0  0  0  0
 38 31  1  0  0  0  0
 39 33  1  0  0  0  0
M  END
>  <minimizedAffinity>
-7.00034237

>  <minimizedRMSD>
1.79286885

$$$$
