
 OpenBabel03252509243D

 29 32  0  0  1  0  0  0  0  0999 V2000
   46.5620   35.1200   41.9550 C   0  0  1  0  0  0  0  0  0  0  0  0
   48.1140   35.1390   41.9170 C   0  0  0  0  0  0  0  0  0  0  0  0
   47.2020   34.0710   41.2460 C   0  0  2  0  0  0  0  0  0  0  0  0
   46.1140   36.0340   41.5200 H   0  0  0  0  0  0  0  0  0  0  0  0
   48.6780   34.7600   42.7630 H   0  0  0  0  0  0  0  0  0  0  0  0
   48.5890   35.8720   41.2170 H   0  0  0  0  0  0  0  0  0  0  0  0
   47.2040   33.0490   41.7260 H   0  0  0  0  0  0  0  0  0  0  0  0
   47.2600   33.9480   39.7690 C   0  0  0  0  0  0  0  0  0  0  0  0
   48.3360   34.5430   39.1430 C   0  0  0  0  0  0  0  0  0  0  0  0
   49.0980   35.0750   39.7160 H   0  0  0  0  0  0  0  0  0  0  0  0
   48.3900   34.4270   37.7640 C   0  0  0  0  0  3  0  0  0  0  0  0
   47.4410   33.7660   37.0540 C   0  0  0  0  0  3  0  0  0  0  0  0
   46.3660   33.1720   37.6930 C   0  0  0  0  0  0  0  0  0  0  0  0
   45.3730   32.4860   37.0010 C   0  0  0  0  0  3  0  0  0  0  0  0
   44.3360   31.9250   37.7240 C   0  0  0  0  0  3  0  0  0  0  0  0
   44.2200   31.9990   39.0780 C   0  0  0  0  0  3  0  0  0  0  0  0
   45.2160   32.6870   39.7600 C   0  0  0  0  0  3  0  0  0  0  0  0
   46.2670   33.2600   39.0690 C   0  0  0  0  0  0  0  0  0  0  0  0
   44.6800   35.3350   45.2050 C   0  0  0  0  0  0  0  0  0  0  0  0
   45.1340   35.6780   43.8950 C   0  0  0  0  0  0  0  0  0  0  0  0
   46.0860   34.8500   43.3660 C   0  0  0  0  0  0  0  0  0  0  0  0
   46.5650   33.7570   44.0710 N   0  0  0  0  0  0  0  0  0  0  0  0
   46.1130   33.4690   45.2980 C   0  0  0  0  0  0  0  0  0  0  0  0
   45.1700   34.2550   45.8700 N   0  0  0  0  0  0  0  0  0  0  0  0
   43.9250   36.0130   45.5920 H   0  0  0  0  0  0  0  0  0  0  0  0
   46.4740   32.6230   45.8620 H   0  0  0  0  0  0  0  0  0  0  0  0
   44.6420   36.8210   43.2000 N   0  0  0  0  0  0  0  0  0  0  0  0
   43.6330   37.0880   43.0030 H   0  0  0  0  0  0  0  0  0  0  0  0
   45.3750   37.4930   42.8310 H   0  0  0  0  0  0  0  0  0  0  0  0
  1  4  1  6  0  0  0
  1 21  1  0  0  0  0
  2  1  1  0  0  0  0
  2  5  1  0  0  0  0
  3  7  1  1  0  0  0
  3  2  1  0  0  0  0
  3  1  1  0  0  0  0
  6  2  1  0  0  0  0
  8  3  1  0  0  0  0
  9 10  1  0  0  0  0
  9  8  1  0  0  0  0
 11  9  2  0  0  0  0
 12 13  2  0  0  0  0
 12 11  1  0  0  0  0
 13 18  1  0  0  0  0
 14 13  1  0  0  0  0
 14 15  2  0  0  0  0
 15 16  1  0  0  0  0
 16 17  2  0  0  0  0
 18 17  1  0  0  0  0
 18  8  2  0  0  0  0
 19 25  1  0  0  0  0
 19 24  1  0  0  0  0
 20 19  2  0  0  0  0
 21 20  1  0  0  0  0
 21 22  2  0  0  0  0
 22 23  1  0  0  0  0
 23 26  1  0  0  0  0
 23 24  2  0  0  0  0
 27 20  1  0  0  0  0
 28 27  1  0  0  0  0
 29 27  1  0  0  0  0
M  END
>  <minimizedAffinity>
-5.97816896

>  <minimizedRMSD>
0.446024954

$$$$
