
 OpenBabel03242522593D

 33 36  0  0  0  0  0  0  0  0999 V2000
   44.9190   33.8970   46.9410 C   0  0  0  0  0  0  0  0  0  0  0  0
   45.2240   34.2910   45.6370 C   0  0  0  0  0  0  0  0  0  0  0  0
   46.0520   33.5410   44.8510 C   0  0  0  0  0  0  0  0  0  0  0  0
   46.5220   32.4270   45.4430 N   0  0  0  0  0  0  0  0  0  0  0  0
   46.2550   32.0170   46.6790 C   0  0  0  0  0  0  0  0  0  0  0  0
   45.4430   32.7760   47.4190 N   0  0  0  0  0  0  0  0  0  0  0  0
   44.2720   34.4760   47.5660 H   0  0  0  0  0  0  0  0  0  0  0  0
   44.8040   35.2010   45.2380 H   0  0  0  0  0  0  0  0  0  0  0  0
   46.9380   30.7660   46.9880 C   0  0  0  0  0  0  0  0  0  0  0  0
   46.6030   29.5710   46.3950 C   0  0  0  0  0  0  0  0  0  0  0  0
   45.7910   29.5220   45.6530 H   0  0  0  0  0  0  0  0  0  0  0  0
   47.2220   28.3740   46.6620 C   0  0  0  0  0  0  0  0  0  0  0  0
   48.2410   28.3020   47.5610 C   0  0  0  0  0  0  0  0  0  0  0  0
   48.6270   29.4640   48.1900 C   0  0  0  0  0  0  0  0  0  0  0  0
   49.6540   29.3890   49.0960 C   0  0  0  0  0  0  0  0  0  0  0  0
   50.0930   30.5080   49.7650 C   0  0  0  0  0  0  0  0  0  0  0  0
   49.4440   31.6890   49.4670 C   0  0  0  0  0  0  0  0  0  0  0  0
   48.4290   31.7290   48.5640 C   0  0  0  0  0  0  0  0  0  0  0  0
   47.9690   30.6300   47.8830 C   0  0  0  0  0  0  0  0  0  0  0  0
   44.1620   32.5310   42.7560 Cl  0  0  0  0  0  0  0  0  0  0  0  0
   45.6050   33.4600   42.4580 C   0  0  0  0  0  0  0  0  0  0  0  0
   46.4190   33.8840   43.4700 C   0  0  0  0  0  0  0  0  0  0  0  0
   47.5190   34.6030   43.0990 C   0  0  0  0  0  0  0  0  0  0  0  0
   47.8180   34.8960   41.8140 C   0  0  0  0  0  0  0  0  0  0  0  0
   47.0050   34.4720   40.8040 C   0  0  0  0  0  0  0  0  0  0  0  0
   45.8860   33.7450   41.1370 C   0  0  0  0  0  0  0  0  0  0  0  0
   48.1840   34.9520   43.8940 H   0  0  0  0  0  0  0  0  0  0  0  0
   47.1930   34.6760   39.7600 H   0  0  0  0  0  0  0  0  0  0  0  0
   45.2360   33.4060   40.3290 H   0  0  0  0  0  0  0  0  0  0  0  0
   49.0250   35.6830   41.4300 C   0  0  0  0  0  0  0  0  0  0  0  0
   50.1330   34.9780   41.8000 F   0  0  0  0  0  0  0  0  0  0  0  0
   48.9960   36.9550   42.0100 F   0  0  0  0  0  0  0  0  0  0  0  0
   49.0010   35.8490   40.0470 F   0  0  0  0  0  0  0  0  0  0  0  0
  1  6  1  0  0  0  0
  1  7  1  0  0  0  0
  2  1  2  0  0  0  0
  3  4  2  0  0  0  0
  3  2  1  0  0  0  0
  4  5  1  0  0  0  0
  5  9  1  0  0  0  0
  5  6  2  0  0  0  0
  8  2  1  0  0  0  0
  9 19  1  0  0  0  0
 10 12  1  0  0  0  0
 10  9  2  0  0  0  0
 11 10  1  0  0  0  0
 12 13  2  0  0  0  0
 13 14  1  0  0  0  0
 14 15  1  0  0  0  0
 15 16  2  0  0  0  0
 17 16  1  0  0  0  0
 18 17  2  0  0  0  0
 19 14  2  0  0  0  0
 19 18  1  0  0  0  0
 21 20  1  0  0  0  0
 21 22  1  0  0  0  0
 22  3  1  0  0  0  0
 23 22  2  0  0  0  0
 23 27  1  0  0  0  0
 24 23  1  0  0  0  0
 25 26  1  0  0  0  0
 25 24  2  0  0  0  0
 26 21  2  0  0  0  0
 28 25  1  0  0  0  0
 29 26  1  0  0  0  0
 30 31  1  0  0  0  0
 30 24  1  0  0  0  0
 30 32  1  0  0  0  0
 33 30  1  0  0  0  0
M  END
>  <minimizedAffinity>
-6.99147511

>  <minimizedRMSD>
0.73196125

$$$$
