
 OpenBabel03242521523D

 38 42  0  0  0  0  0  0  0  0999 V2000
   46.1040   32.2740   46.1120 C   0  0  0  0  0  0  0  0  0  0  0  0
   45.5620   32.8820   47.2260 C   0  0  0  0  0  0  0  0  0  0  0  0
   45.8090   32.4440   48.5350 C   0  0  0  0  0  0  0  0  0  0  0  0
   46.6330   31.3540   48.7780 C   0  0  0  0  0  0  0  0  0  0  0  0
   47.1880   30.7170   47.6750 C   0  0  0  0  0  0  0  0  0  0  0  0
   47.9630   29.6080   47.9050 C   0  0  0  0  0  0  0  0  0  0  0  0
   48.4620   28.9090   46.7700 C   0  0  0  0  0  0  0  0  0  0  0  0
   48.1130   29.4020   45.4760 C   0  0  0  0  0  0  0  0  0  0  0  0
   47.3780   30.4600   45.4080 C   0  0  0  0  0  0  0  0  0  0  0  0
   46.8760   31.2170   46.4240 C   0  0  0  0  0  0  0  0  0  0  0  0
   44.9140   33.7380   47.0650 H   0  0  0  0  0  0  0  0  0  0  0  0
   45.3190   33.0100   49.3160 H   0  0  0  0  0  0  0  0  0  0  0  0
   46.8220   31.0320   49.7670 H   0  0  0  0  0  0  0  0  0  0  0  0
   48.1370   29.3460   48.9500 H   0  0  0  0  0  0  0  0  0  0  0  0
   49.0660   28.0670   47.2090 H   0  0  0  0  0  0  0  0  0  0  0  0
   48.6430   28.5960   44.9770 H   0  0  0  0  0  0  0  0  0  0  0  0
   46.9080   30.1810   44.0500 C   0  0  0  0  0  0  0  0  0  0  0  0
   47.8690   30.5580   43.0470 C   0  0  0  0  0  0  0  0  0  0  0  0
   48.8670   30.9660   43.2950 H   0  0  0  0  0  0  0  0  0  0  0  0
   47.6910   30.4760   41.6830 C   0  0  0  0  0  0  0  0  0  0  0  0
   46.4860   29.9920   41.2240 C   0  0  0  0  0  0  0  0  0  0  0  0
   45.5250   29.6160   42.1340 C   0  0  0  0  0  0  0  0  0  0  0  0
   44.2670   29.1580   41.8110 C   0  0  0  0  0  0  0  0  0  0  0  0
   43.2790   28.8150   42.7110 C   0  0  0  0  0  0  0  0  0  0  0  0
   43.5690   28.9370   44.0750 C   0  0  0  0  0  0  0  0  0  0  0  0
   44.8070   29.3860   44.4430 C   0  0  0  0  0  0  0  0  0  0  0  0
   45.7530   29.7160   43.4860 C   0  0  0  0  0  0  0  0  0  0  0  0
   45.3020   33.7420   42.7880 C   0  0  0  0  0  0  0  0  0  0  0  0
   46.5380   34.3190   42.4590 C   0  0  0  0  0  0  0  0  0  0  0  0
   47.5820   34.1420   43.3720 C   0  0  0  0  0  0  0  0  0  0  0  0
   47.2780   33.4420   44.4630 N   0  0  0  0  0  0  0  0  0  0  0  0
   46.1360   32.8900   44.8000 C   0  0  0  0  0  0  0  0  0  0  0  0
   45.1510   33.0620   43.9230 N   0  0  0  0  0  0  0  0  0  0  0  0
   44.4620   33.8520   42.1130 H   0  0  0  0  0  0  0  0  0  0  0  0
   46.6960   34.8730   41.5540 H   0  0  0  0  0  0  0  0  0  0  0  0
   48.8870   34.5980   43.1180 N   0  0  0  0  0  0  0  0  0  0  0  0
   49.2150   35.1810   43.9400 H   0  0  0  0  0  0  0  0  0  0  0  0
   49.2950   34.2990   42.2030 H   0  0  0  0  0  0  0  0  0  0  0  0
  1 10  2  0  0  0  0
  1  2  1  0  0  0  0
  2  3  2  0  0  0  0
  3  4  1  0  0  0  0
  3 12  1  0  0  0  0
  4 13  1  0  0  0  0
  5  6  1  0  0  0  0
  5  4  2  0  0  0  0
  6 14  1  0  0  0  0
  7 15  1  0  0  0  0
  7  6  2  0  0  0  0
  8  7  1  0  0  0  0
  9  8  2  0  0  0  0
  9 10  1  0  0  0  0
 10  5  1  0  0  0  0
 11  2  1  0  0  0  0
 16  8  1  0  0  0  0
 17  9  1  0  0  0  0
 18 19  1  0  0  0  0
 18 17  2  0  0  0  0
 20 18  1  0  0  0  0
 21 20  2  0  0  0  0
 21 22  1  0  0  0  0
 22 27  1  0  0  0  0
 23 22  2  0  0  0  0
 23 24  1  0  0  0  0
 24 25  2  0  0  0  0
 25 26  1  0  0  0  0
 27 17  1  0  0  0  0
 27 26  2  0  0  0  0
 28 33  1  0  0  0  0
 29 28  2  0  0  0  0
 29 30  1  0  0  0  0
 30 31  2  0  0  0  0
 31 32  1  0  0  0  0
 32  1  1  0  0  0  0
 33 32  2  0  0  0  0
 34 28  1  0  0  0  0
 35 29  1  0  0  0  0
 36 30  1  0  0  0  0
 36 37  1  0  0  0  0
 38 36  1  0  0  0  0
M  END
>  <minimizedAffinity>
-5.14892912

>  <minimizedRMSD>
1.7266494

$$$$
