
 OpenBabel03252506383D

 46 50  0  0  1  0  0  0  0  0999 V2000
   44.4760   35.5200   45.0730 C   0  0  0  0  0  0  0  0  0  0  0  0
   45.1710   35.5140   43.8560 C   0  0  0  0  0  0  0  0  0  0  0  0
   46.1330   34.5860   43.6480 C   0  0  0  0  0  0  0  0  0  0  0  0
   46.3690   33.7030   44.6510 N   0  0  0  0  0  0  0  0  0  0  0  0
   45.7090   33.7120   45.7990 C   0  0  0  0  0  0  0  0  0  0  0  0
   44.7560   34.6150   46.0310 N   0  0  0  0  0  0  0  0  0  0  0  0
   46.0430   32.7300   46.7950 N   0  0  0  0  0  0  0  0  0  0  0  0
   45.2730   32.4740   47.9600 C   0  0  0  0  0  0  0  0  0  0  0  0
   46.3280   32.1870   49.0140 C   0  0  0  0  0  0  0  0  0  0  0  0
   47.6360   32.1190   48.2890 C   0  0  0  0  0  0  0  0  0  0  0  0
   47.1960   31.8620   46.8490 C   0  0  1  0  0  0  0  0  0  0  0  0
   43.6920   36.2380   45.3030 H   0  0  0  0  0  0  0  0  0  0  0  0
   46.6700   34.5670   42.7310 H   0  0  0  0  0  0  0  0  0  0  0  0
   44.8680   33.4870   48.2880 H   0  0  0  0  0  0  0  0  0  0  0  0
   44.4590   31.8240   48.0210 H   0  0  0  0  0  0  0  0  0  0  0  0
   46.3000   32.8380   49.8830 H   0  0  0  0  0  0  0  0  0  0  0  0
   46.1130   31.1540   49.3980 H   0  0  0  0  0  0  0  0  0  0  0  0
   48.2940   31.3070   48.6570 H   0  0  0  0  0  0  0  0  0  0  0  0
   48.1250   33.1150   48.3220 H   0  0  0  0  0  0  0  0  0  0  0  0
   48.0130   32.1680   46.1710 H   0  0  0  0  0  0  0  0  0  0  0  0
   44.8010   36.5190   42.8960 N   0  0  0  0  0  0  0  0  0  0  0  0
   44.0360   36.0680   42.3540 H   0  0  0  0  0  0  0  0  0  0  0  0
   45.2600   37.4600   42.8370 H   0  0  0  0  0  0  0  0  0  0  0  0
   46.7530   30.1490   46.6780 S   0  0  0  0  0  0  0  0  0  0  0  0
   45.9020   30.6920   43.4980 O   0  0  0  0  0  0  0  0  0  0  0  0
   45.2570   30.0730   44.3590 C   0  0  0  0  0  0  0  0  0  0  0  0
   45.2810   29.7920   45.8150 C   0  0  1  0  0  0  0  0  0  0  0  0
   44.8330   28.3520   45.8620 C   0  0  0  0  0  0  0  0  0  0  0  0
   43.5560   28.5060   45.0280 C   0  0  0  0  0  0  0  0  0  0  0  0
   44.0820   29.3440   43.9570 N   0  0  0  0  0  0  0  0  0  0  0  0
   44.3370   30.3210   46.1250 H   0  0  0  0  0  0  0  0  0  0  0  0
   44.5460   28.0630   46.8870 H   0  0  0  0  0  0  0  0  0  0  0  0
   45.5180   27.6600   45.3700 H   0  0  0  0  0  0  0  0  0  0  0  0
   42.7530   28.9750   45.6050 H   0  0  0  0  0  0  0  0  0  0  0  0
   43.2980   27.4910   44.6560 H   0  0  0  0  0  0  0  0  0  0  0  0
   43.3780   29.3230   42.7000 C   0  0  0  0  0  0  0  0  0  0  0  0
   44.2200   29.1560   41.6060 C   0  0  0  0  0  0  0  0  0  0  0  0
   45.2930   29.0490   41.6590 H   0  0  0  0  0  0  0  0  0  0  0  0
   43.7200   29.1100   40.3040 C   0  0  0  0  0  0  0  0  0  0  0  0
   42.3470   29.2410   40.1560 C   0  0  0  0  0  0  0  0  0  0  0  0
   41.5210   29.4060   41.2380 C   0  0  0  0  0  0  0  0  0  0  0  0
   40.1450   29.5390   41.1250 C   0  0  0  0  0  0  0  0  0  0  0  0
   39.3650   29.7010   42.2310 C   0  0  0  0  0  0  0  0  0  0  0  0
   39.8940   29.7420   43.5220 C   0  0  0  0  0  0  0  0  0  0  0  0
   41.2740   29.6110   43.6680 C   0  0  0  0  0  0  0  0  0  0  0  0
   42.0200   29.4500   42.5410 C   0  0  0  0  0  0  0  0  0  0  0  0
  1 12  1  0  0  0  0
  1  6  1  0  0  0  0
  2  1  2  0  0  0  0
  3  2  1  0  0  0  0
  3  4  2  0  0  0  0
  4  5  1  0  0  0  0
  5  6  2  0  0  0  0
  5  7  1  0  0  0  0
  7 11  1  0  0  0  0
  7  8  1  0  0  0  0
  8 15  1  0  0  0  0
  8 14  1  0  0  0  0
  8  9  1  0  0  0  0
  9 17  1  0  0  0  0
  9 16  1  0  0  0  0
 10 19  1  0  0  0  0
 10 18  1  0  0  0  0
 10  9  1  0  0  0  0
 11 20  1  6  0  0  0
 11 10  1  0  0  0  0
 13  3  1  0  0  0  0
 21  2  1  0  0  0  0
 22 21  1  0  0  0  0
 23 21  1  0  0  0  0
 24 11  1  0  0  0  0
 25 26  2  0  0  0  0
 26 27  1  0  0  0  0
 27 28  1  0  0  0  0
 27 31  1  1  0  0  0
 27 24  1  0  0  0  0
 28 32  1  0  0  0  0
 29 34  1  0  0  0  0
 29 28  1  0  0  0  0
 30 26  1  0  0  0  0
 30 29  1  0  0  0  0
 33 28  1  0  0  0  0
 35 29  1  0  0  0  0
 36 30  1  0  0  0  0
 37 38  1  0  0  0  0
 37 36  2  0  0  0  0
 39 37  1  0  0  0  0
 40 39  2  0  0  0  0
 40 41  1  0  0  0  0
 41 46  1  0  0  0  0
 42 41  2  0  0  0  0
 42 43  1  0  0  0  0
 43 44  2  0  0  0  0
 44 45  1  0  0  0  0
 46 36  1  0  0  0  0
 46 45  2  0  0  0  0
M  END
>  <minimizedAffinity>
-5.74786854

>  <minimizedRMSD>
0.373964757

$$$$
