
 OpenBabel03242515273D

 33 36  0  0  0  0  0  0  0  0999 V2000
   37.3440   30.4080   41.4310 C   0  0  0  0  0  0  0  0  0  0  0  0
   38.3030   30.8580   40.5190 C   0  0  0  0  0  0  0  0  0  0  0  0
   39.3360   29.9960   40.2420 C   0  0  0  0  0  0  0  0  0  0  0  0
   39.3580   28.7840   40.8560 N   0  0  0  0  0  0  0  0  0  0  0  0
   38.4150   28.3930   41.7230 C   0  0  0  0  0  0  0  0  0  0  0  0
   37.4040   29.1840   42.0250 N   0  0  0  0  0  0  0  0  0  0  0  0
   36.4970   31.0190   41.7110 H   0  0  0  0  0  0  0  0  0  0  0  0
   40.0620   30.3420   39.5510 H   0  0  0  0  0  0  0  0  0  0  0  0
   38.7360   27.0360   42.2020 C   0  0  0  0  0  0  0  0  0  0  0  0
   39.6160   26.7800   43.2040 C   0  0  0  0  0  0  0  0  0  0  0  0
   40.1390   27.5800   43.7110 H   0  0  0  0  0  0  0  0  0  0  0  0
   39.9410   25.5290   43.6790 C   0  0  0  0  0  3  0  0  0  0  0  0
   39.3500   24.4190   43.1240 C   0  0  0  0  0  3  0  0  0  0  0  0
   38.4470   24.6110   42.1030 C   0  0  0  0  0  0  0  0  0  0  0  0
   37.8770   23.4800   41.5750 C   0  0  0  0  0  3  0  0  0  0  0  0
   36.9640   23.5800   40.5530 C   0  0  0  0  0  3  0  0  0  0  0  0
   36.6580   24.8480   40.0960 C   0  0  0  0  0  3  0  0  0  0  0  0
   37.2620   25.9450   40.6660 C   0  0  0  0  0  3  0  0  0  0  0  0
   38.1770   25.8890   41.6870 C   0  0  0  0  0  0  0  0  0  0  0  0
   38.0880   32.1910   39.9510 C   0  0  0  0  0  0  0  0  0  0  0  0
   37.1600   32.2390   39.3800 H   0  0  0  0  0  0  0  0  0  0  0  0
   37.9570   32.9050   40.7990 H   0  0  0  0  0  0  0  0  0  0  0  0
   39.2740   32.5630   39.1760 N   0  0  0  0  0  0  0  0  0  0  0  0
   40.2840   33.1980   39.7680 C   0  0  0  0  0  0  0  0  0  0  0  0
   41.3860   33.5250   38.9740 C   0  0  0  0  0  0  0  0  0  0  0  0
   41.4220   33.1990   37.6290 C   0  0  0  0  0  0  0  0  0  0  0  0
   42.4330   33.5110   36.9500 O   0  0  0  0  0  0  0  0  0  0  0  0
   40.3660   32.5510   37.0720 N   0  0  0  0  0  0  0  0  0  0  0  0
   39.2870   32.2270   37.8420 C   0  0  0  0  0  0  0  0  0  0  0  0
   38.3530   31.6330   37.2620 O   0  0  0  0  0  0  0  0  0  0  0  0
   40.2240   33.4360   40.8120 H   0  0  0  0  0  0  0  0  0  0  0  0
   42.1810   34.0390   39.4970 H   0  0  0  0  0  0  0  0  0  0  0  0
   40.3840   32.3030   36.0680 H   0  0  0  0  0  0  0  0  0  0  0  0
  1  7  1  0  0  0  0
  1  6  1  0  0  0  0
  2  1  2  0  0  0  0
  3  2  1  0  0  0  0
  3  4  2  0  0  0  0
  4  5  1  0  0  0  0
  5  6  2  0  0  0  0
  5  9  1  0  0  0  0
  8  3  1  0  0  0  0
  9 10  1  0  0  0  0
 10 12  2  0  0  0  0
 10 11  1  0  0  0  0
 13 12  1  0  0  0  0
 14 13  2  0  0  0  0
 15 14  1  0  0  0  0
 16 15  2  0  0  0  0
 17 16  1  0  0  0  0
 17 18  2  0  0  0  0
 18 19  1  0  0  0  0
 19 14  1  0  0  0  0
 19  9  2  0  0  0  0
 20  2  1  0  0  0  0
 20 22  1  0  0  0  0
 21 20  1  0  0  0  0
 23 24  1  0  0  0  0
 23 20  1  0  0  0  0
 24 31  1  0  0  0  0
 25 32  1  0  0  0  0
 25 24  2  0  0  0  0
 26 25  1  0  0  0  0
 27 26  2  0  0  0  0
 28 26  1  0  0  0  0
 28 29  1  0  0  0  0
 29 23  1  0  0  0  0
 30 29  2  0  0  0  0
 33 28  1  0  0  0  0
M  END
>  <minimizedAffinity>
-6.46012926

$$$$

 OpenBabel03242515273D

 33 36  0  0  0  0  0  0  0  0999 V2000
   36.2090   30.4120   40.3450 C   0  0  0  0  0  0  0  0  0  0  0  0
   37.5130   30.9030   40.2290 C   0  0  0  0  0  0  0  0  0  0  0  0
   38.5270   29.9910   40.3990 C   0  0  0  0  0  0  0  0  0  0  0  0
   38.2060   28.6980   40.6600 N   0  0  0  0  0  0  0  0  0  0  0  0
   36.9400   28.2700   40.7610 C   0  0  0  0  0  0  0  0  0  0  0  0
   35.9300   29.1050   40.6090 N   0  0  0  0  0  0  0  0  0  0  0  0
   35.3480   31.0550   40.2290 H   0  0  0  0  0  0  0  0  0  0  0  0
   39.5140   30.3680   40.3120 H   0  0  0  0  0  0  0  0  0  0  0  0
   36.9420   26.8240   41.0480 C   0  0  0  0  0  0  0  0  0  0  0  0
   37.2940   26.2960   42.2490 C   0  0  0  0  0  0  0  0  0  0  0  0
   37.5990   26.9270   43.0720 H   0  0  0  0  0  0  0  0  0  0  0  0
   37.3090   24.9530   42.5550 C   0  0  0  0  0  3  0  0  0  0  0  0
   36.9430   24.0360   41.5990 C   0  0  0  0  0  3  0  0  0  0  0  0
   36.5750   24.5080   40.3590 C   0  0  0  0  0  0  0  0  0  0  0  0
   36.2160   23.5630   39.4310 C   0  0  0  0  0  3  0  0  0  0  0  0
   35.8340   23.9470   38.1680 C   0  0  0  0  0  3  0  0  0  0  0  0
   35.8300   25.3010   37.8890 C   0  0  0  0  0  3  0  0  0  0  0  0
   36.1990   26.2010   38.8620 C   0  0  0  0  0  3  0  0  0  0  0  0
   36.5870   25.8610   40.1330 C   0  0  0  0  0  0  0  0  0  0  0  0
   37.6480   32.3290   39.9230 C   0  0  0  0  0  0  0  0  0  0  0  0
   36.7560   32.7200   39.4320 H   0  0  0  0  0  0  0  0  0  0  0  0
   37.7250   32.8780   40.8920 H   0  0  0  0  0  0  0  0  0  0  0  0
   38.8770   32.5230   39.1500 N   0  0  0  0  0  0  0  0  0  0  0  0
   39.9620   33.0240   39.7390 C   0  0  0  0  0  0  0  0  0  0  0  0
   41.1020   33.1850   38.9470 C   0  0  0  0  0  0  0  0  0  0  0  0
   41.0980   32.8390   37.6080 C   0  0  0  0  0  0  0  0  0  0  0  0
   42.1440   33.0000   36.9300 O   0  0  0  0  0  0  0  0  0  0  0  0
   39.9660   32.3320   37.0520 N   0  0  0  0  0  0  0  0  0  0  0  0
   38.8490   32.1710   37.8210 C   0  0  0  0  0  0  0  0  0  0  0  0
   37.8450   31.7010   37.2430 O   0  0  0  0  0  0  0  0  0  0  0  0
   39.9310   33.2820   40.7800 H   0  0  0  0  0  0  0  0  0  0  0  0
   41.9570   33.5930   39.4680 H   0  0  0  0  0  0  0  0  0  0  0  0
   39.9530   32.0710   36.0520 H   0  0  0  0  0  0  0  0  0  0  0  0
  1  6  1  0  0  0  0
  2  1  2  0  0  0  0
  2  3  1  0  0  0  0
  3  4  2  0  0  0  0
  4  5  1  0  0  0  0
  5  9  1  0  0  0  0
  6  5  2  0  0  0  0
  7  1  1  0  0  0  0
  8  3  1  0  0  0  0
  9 10  1  0  0  0  0
 10 12  2  0  0  0  0
 10 11  1  0  0  0  0
 13 12  1  0  0  0  0
 14 13  2  0  0  0  0
 15 14  1  0  0  0  0
 16 15  2  0  0  0  0
 17 16  1  0  0  0  0
 17 18  2  0  0  0  0
 18 19  1  0  0  0  0
 19 14  1  0  0  0  0
 19  9  2  0  0  0  0
 20  2  1  0  0  0  0
 20 22  1  0  0  0  0
 21 20  1  0  0  0  0
 23 24  1  0  0  0  0
 23 20  1  0  0  0  0
 24 31  1  0  0  0  0
 25 32  1  0  0  0  0
 25 24  2  0  0  0  0
 26 25  1  0  0  0  0
 27 26  2  0  0  0  0
 28 26  1  0  0  0  0
 28 29  1  0  0  0  0
 29 23  1  0  0  0  0
 30 29  2  0  0  0  0
 33 28  1  0  0  0  0
M  END
>  <minimizedAffinity>
-6.29824162

$$$$

 OpenBabel03242515273D

 33 36  0  0  0  0  0  0  0  0999 V2000
   38.3120   30.7460   38.1500 C   0  0  0  0  0  0  0  0  0  0  0  0
   39.5580   31.3340   38.3870 C   0  0  0  0  0  0  0  0  0  0  0  0
   40.1530   31.0420   39.5910 C   0  0  0  0  0  0  0  0  0  0  0  0
   39.5080   30.2150   40.4540 N   0  0  0  0  0  0  0  0  0  0  0  0
   38.3140   29.6710   40.1830 C   0  0  0  0  0  0  0  0  0  0  0  0
   37.7000   29.9220   39.0440 N   0  0  0  0  0  0  0  0  0  0  0  0
   37.7690   30.9210   37.2310 H   0  0  0  0  0  0  0  0  0  0  0  0
   41.0970   31.4920   39.7680 H   0  0  0  0  0  0  0  0  0  0  0  0
   37.9000   28.8300   41.3210 C   0  0  0  0  0  0  0  0  0  0  0  0
   37.7680   29.2950   42.5910 C   0  0  0  0  0  0  0  0  0  0  0  0
   37.9670   30.3290   42.8350 H   0  0  0  0  0  0  0  0  0  0  0  0
   37.3830   28.5420   43.6790 C   0  0  0  0  0  3  0  0  0  0  0  0
   37.0980   27.2080   43.5130 C   0  0  0  0  0  3  0  0  0  0  0  0
   37.2120   26.6760   42.2490 C   0  0  0  0  0  0  0  0  0  0  0  0
   36.9190   25.3420   42.1220 C   0  0  0  0  0  3  0  0  0  0  0  0
   37.0070   24.7290   40.8940 C   0  0  0  0  0  3  0  0  0  0  0  0
   37.3960   25.5090   39.8210 C   0  0  0  0  0  3  0  0  0  0  0  0
   37.6760   26.8430   40.0110 C   0  0  0  0  0  3  0  0  0  0  0  0
   37.6010   27.4920   41.2170 C   0  0  0  0  0  0  0  0  0  0  0  0
   40.0940   32.1820   37.3200 C   0  0  0  0  0  0  0  0  0  0  0  0
   39.4810   32.1280   36.4190 H   0  0  0  0  0  0  0  0  0  0  0  0
   40.0310   33.2420   37.6630 H   0  0  0  0  0  0  0  0  0  0  0  0
   41.4960   31.8190   37.0990 N   0  0  0  0  0  0  0  0  0  0  0  0
   41.8230   30.5560   36.8310 C   0  0  0  0  0  0  0  0  0  0  0  0
   43.1760   30.2750   36.6310 C   0  0  0  0  0  0  0  0  0  0  0  0
   44.1340   31.2720   36.7080 C   0  0  0  0  0  0  0  0  0  0  0  0
   45.3410   30.9770   36.5210 O   0  0  0  0  0  0  0  0  0  0  0  0
   43.7500   32.5460   36.9840 N   0  0  0  0  0  0  0  0  0  0  0  0
   42.4290   32.8270   37.1800 C   0  0  0  0  0  0  0  0  0  0  0  0
   42.1500   34.0190   37.4300 O   0  0  0  0  0  0  0  0  0  0  0  0
   41.0560   29.8080   36.7790 H   0  0  0  0  0  0  0  0  0  0  0  0
   43.3940   29.2380   36.4160 H   0  0  0  0  0  0  0  0  0  0  0  0
   44.4580   33.2970   37.0430 H   0  0  0  0  0  0  0  0  0  0  0  0
  1  2  2  0  0  0  0
  1  6  1  0  0  0  0
  2  3  1  0  0  0  0
  3  8  1  0  0  0  0
  3  4  2  0  0  0  0
  5  4  1  0  0  0  0
  5  9  1  0  0  0  0
  6  5  2  0  0  0  0
  7  1  1  0  0  0  0
  9 10  1  0  0  0  0
 10 11  1  0  0  0  0
 10 12  2  0  0  0  0
 13 12  1  0  0  0  0
 14 13  2  0  0  0  0
 15 14  1  0  0  0  0
 16 15  2  0  0  0  0
 17 18  2  0  0  0  0
 17 16  1  0  0  0  0
 18 19  1  0  0  0  0
 19  9  2  0  0  0  0
 19 14  1  0  0  0  0
 20 22  1  0  0  0  0
 20  2  1  0  0  0  0
 21 20  1  0  0  0  0
 23 29  1  0  0  0  0
 23 20  1  0  0  0  0
 24 23  1  0  0  0  0
 25 26  1  0  0  0  0
 25 24  2  0  0  0  0
 26 28  1  0  0  0  0
 27 26  2  0  0  0  0
 28 33  1  0  0  0  0
 28 29  1  0  0  0  0
 29 30  2  0  0  0  0
 31 24  1  0  0  0  0
 32 25  1  0  0  0  0
M  END
>  <minimizedAffinity>
-6.19332266

$$$$

 OpenBabel03242515273D

 33 36  0  0  0  0  0  0  0  0999 V2000
   37.5310   30.5400   41.3370 C   0  0  0  0  0  0  0  0  0  0  0  0
   37.6170   30.6580   39.9470 C   0  0  0  0  0  0  0  0  0  0  0  0
   37.7680   29.4890   39.2410 C   0  0  0  0  0  0  0  0  0  0  0  0
   37.8200   28.3160   39.9250 N   0  0  0  0  0  0  0  0  0  0  0  0
   37.7310   28.2500   41.2600 C   0  0  0  0  0  0  0  0  0  0  0  0
   37.5880   29.3430   41.9830 N   0  0  0  0  0  0  0  0  0  0  0  0
   37.4130   31.4060   41.9740 H   0  0  0  0  0  0  0  0  0  0  0  0
   37.8340   29.5830   38.1870 H   0  0  0  0  0  0  0  0  0  0  0  0
   37.8210   26.8390   41.6780 C   0  0  0  0  0  0  0  0  0  0  0  0
   36.7730   25.9760   41.6440 C   0  0  0  0  0  0  0  0  0  0  0  0
   35.7970   26.2900   41.3010 H   0  0  0  0  0  0  0  0  0  0  0  0
   36.8180   24.6530   42.0250 C   0  0  0  0  0  3  0  0  0  0  0  0
   37.9990   24.1190   42.4820 C   0  0  0  0  0  3  0  0  0  0  0  0
   39.1000   24.9430   42.5400 C   0  0  0  0  0  0  0  0  0  0  0  0
   40.2610   24.3740   43.0010 C   0  0  0  0  0  3  0  0  0  0  0  0
   41.4080   25.1260   43.0910 C   0  0  0  0  0  3  0  0  0  0  0  0
   41.3340   26.4500   42.7020 C   0  0  0  0  0  3  0  0  0  0  0  0
   40.1400   26.9630   42.2480 C   0  0  0  0  0  3  0  0  0  0  0  0
   38.9740   26.2490   42.1420 C   0  0  0  0  0  0  0  0  0  0  0  0
   37.5190   32.0140   39.4000 C   0  0  0  0  0  0  0  0  0  0  0  0
   36.6820   32.1080   38.7070 H   0  0  0  0  0  0  0  0  0  0  0  0
   37.2900   32.7060   40.2450 H   0  0  0  0  0  0  0  0  0  0  0  0
   38.8120   32.3710   38.8110 N   0  0  0  0  0  0  0  0  0  0  0  0
   39.7850   32.8530   39.5830 C   0  0  0  0  0  0  0  0  0  0  0  0
   40.9940   33.1750   38.9600 C   0  0  0  0  0  0  0  0  0  0  0  0
   41.1680   32.9980   37.5990 C   0  0  0  0  0  0  0  0  0  0  0  0
   42.2710   33.3000   37.0780 O   0  0  0  0  0  0  0  0  0  0  0  0
   40.1450   32.5030   36.8540 N   0  0  0  0  0  0  0  0  0  0  0  0
   38.9610   32.1860   37.4560 C   0  0  0  0  0  0  0  0  0  0  0  0
   38.0660   31.7370   36.7090 O   0  0  0  0  0  0  0  0  0  0  0  0
   39.6170   32.9780   40.6350 H   0  0  0  0  0  0  0  0  0  0  0  0
   41.7540   33.5620   39.6260 H   0  0  0  0  0  0  0  0  0  0  0  0
   40.2660   32.3680   35.8360 H   0  0  0  0  0  0  0  0  0  0  0  0
  1  7  1  0  0  0  0
  1  6  1  0  0  0  0
  2  1  2  0  0  0  0
  3  4  2  0  0  0  0
  3  2  1  0  0  0  0
  4  5  1  0  0  0  0
  5  9  1  0  0  0  0
  5  6  2  0  0  0  0
  8  3  1  0  0  0  0
  9 19  1  0  0  0  0
 10  9  2  0  0  0  0
 10 12  1  0  0  0  0
 11 10  1  0  0  0  0
 12 13  2  0  0  0  0
 13 14  1  0  0  0  0
 14 15  1  0  0  0  0
 15 16  2  0  0  0  0
 17 16  1  0  0  0  0
 18 17  2  0  0  0  0
 19 18  1  0  0  0  0
 19 14  2  0  0  0  0
 20  2  1  0  0  0  0
 20 22  1  0  0  0  0
 21 20  1  0  0  0  0
 23 20  1  0  0  0  0
 23 24  1  0  0  0  0
 24 31  1  0  0  0  0
 25 24  2  0  0  0  0
 25 32  1  0  0  0  0
 26 25  1  0  0  0  0
 27 26  2  0  0  0  0
 28 29  1  0  0  0  0
 28 26  1  0  0  0  0
 29 23  1  0  0  0  0
 30 29  2  0  0  0  0
 33 28  1  0  0  0  0
M  END
>  <minimizedAffinity>
-6.02559423

$$$$

 OpenBabel03242515273D

 33 36  0  0  0  0  0  0  0  0999 V2000
   33.7770   28.8350   37.8650 C   0  0  0  0  0  0  0  0  0  0  0  0
   35.0860   28.7300   37.3840 C   0  0  0  0  0  0  0  0  0  0  0  0
   35.2350   28.6980   36.0180 C   0  0  0  0  0  0  0  0  0  0  0  0
   34.1250   28.7720   35.2390 N   0  0  0  0  0  0  0  0  0  0  0  0
   32.8890   28.8740   35.7440 C   0  0  0  0  0  0  0  0  0  0  0  0
   32.6910   28.9060   37.0470 N   0  0  0  0  0  0  0  0  0  0  0  0
   33.5640   28.8660   38.9240 H   0  0  0  0  0  0  0  0  0  0  0  0
   36.2290   28.6160   35.6570 H   0  0  0  0  0  0  0  0  0  0  0  0
   31.9190   28.9330   34.6340 C   0  0  0  0  0  0  0  0  0  0  0  0
   31.5070   27.8420   33.9370 C   0  0  0  0  0  0  0  0  0  0  0  0
   31.8800   26.8540   34.1670 H   0  0  0  0  0  0  0  0  0  0  0  0
   30.6050   27.8570   32.8960 C   0  0  0  0  0  3  0  0  0  0  0  0
   30.0490   29.0490   32.4970 C   0  0  0  0  0  3  0  0  0  0  0  0
   30.4260   30.1920   33.1650 C   0  0  0  0  0  0  0  0  0  0  0  0
   29.8510   31.3630   32.7390 C   0  0  0  0  0  3  0  0  0  0  0  0
   30.1710   32.5520   33.3500 C   0  0  0  0  0  3  0  0  0  0  0  0
   31.0800   32.5070   34.3910 C   0  0  0  0  0  3  0  0  0  0  0  0
   31.6230   31.3020   34.7740 C   0  0  0  0  0  3  0  0  0  0  0  0
   31.3310   30.0940   34.1910 C   0  0  0  0  0  0  0  0  0  0  0  0
   36.1490   28.6830   38.3900 C   0  0  0  0  0  0  0  0  0  0  0  0
   35.8620   28.0760   39.2500 H   0  0  0  0  0  0  0  0  0  0  0  0
   37.0260   28.1630   37.9340 H   0  0  0  0  0  0  0  0  0  0  0  0
   36.5200   30.0570   38.7390 N   0  0  0  0  0  0  0  0  0  0  0  0
   37.1590   30.8190   37.8530 C   0  0  0  0  0  0  0  0  0  0  0  0
   37.4840   32.1200   38.2470 C   0  0  0  0  0  0  0  0  0  0  0  0
   37.1540   32.5910   39.5060 C   0  0  0  0  0  0  0  0  0  0  0  0
   37.4650   33.7670   39.8210 O   0  0  0  0  0  0  0  0  0  0  0  0
   36.5020   31.7740   40.3740 N   0  0  0  0  0  0  0  0  0  0  0  0
   36.1800   30.5020   39.9960 C   0  0  0  0  0  0  0  0  0  0  0  0
   35.5830   29.8080   40.8450 O   0  0  0  0  0  0  0  0  0  0  0  0
   37.3990   30.4230   36.8860 H   0  0  0  0  0  0  0  0  0  0  0  0
   38.0000   32.7020   37.4960 H   0  0  0  0  0  0  0  0  0  0  0  0
   36.2520   32.1170   41.3170 H   0  0  0  0  0  0  0  0  0  0  0  0
  1  7  1  0  0  0  0
  2  1  1  0  0  0  0
  2 20  1  0  0  0  0
  3  2  2  0  0  0  0
  4  5  2  0  0  0  0
  4  3  1  0  0  0  0
  5  6  1  0  0  0  0
  6  1  2  0  0  0  0
  8  3  1  0  0  0  0
  9  5  1  0  0  0  0
 10 11  1  0  0  0  0
 10  9  2  0  0  0  0
 12 10  1  0  0  0  0
 13 12  2  0  0  0  0
 13 14  1  0  0  0  0
 14 19  1  0  0  0  0
 15 14  2  0  0  0  0
 15 16  1  0  0  0  0
 16 17  2  0  0  0  0
 17 18  1  0  0  0  0
 19  9  1  0  0  0  0
 19 18  2  0  0  0  0
 20 23  1  0  0  0  0
 20 21  1  0  0  0  0
 22 20  1  0  0  0  0
 23 29  1  0  0  0  0
 24 25  2  0  0  0  0
 24 23  1  0  0  0  0
 25 26  1  0  0  0  0
 26 27  2  0  0  0  0
 26 28  1  0  0  0  0
 28 33  1  0  0  0  0
 29 28  1  0  0  0  0
 29 30  2  0  0  0  0
 31 24  1  0  0  0  0
 32 25  1  0  0  0  0
M  END
>  <minimizedAffinity>
-6.01556969

$$$$

 OpenBabel03242515273D

 33 36  0  0  0  0  0  0  0  0999 V2000
   38.6360   33.8070   40.0520 C   0  0  0  0  0  0  0  0  0  0  0  0
   39.8720   33.2320   40.3640 C   0  0  0  0  0  0  0  0  0  0  0  0
   39.9210   31.8590   40.3820 C   0  0  0  0  0  0  0  0  0  0  0  0
   38.7910   31.1620   40.0990 N   0  0  0  0  0  0  0  0  0  0  0  0
   37.6270   31.7550   39.8020 C   0  0  0  0  0  0  0  0  0  0  0  0
   37.5260   33.0700   39.7740 N   0  0  0  0  0  0  0  0  0  0  0  0
   38.5030   34.8790   40.0150 H   0  0  0  0  0  0  0  0  0  0  0  0
   40.8600   31.4270   40.6210 H   0  0  0  0  0  0  0  0  0  0  0  0
   36.6100   30.7180   39.5480 C   0  0  0  0  0  0  0  0  0  0  0  0
   35.8290   30.1770   40.5190 C   0  0  0  0  0  0  0  0  0  0  0  0
   35.9190   30.4880   41.5510 H   0  0  0  0  0  0  0  0  0  0  0  0
   34.8690   29.2090   40.3210 C   0  0  0  0  0  3  0  0  0  0  0  0
   34.6480   28.7220   39.0550 C   0  0  0  0  0  3  0  0  0  0  0  0
   35.4080   29.2300   38.0260 C   0  0  0  0  0  0  0  0  0  0  0  0
   35.1600   28.7200   36.7770 C   0  0  0  0  0  3  0  0  0  0  0  0
   35.8730   29.1730   35.6920 C   0  0  0  0  0  3  0  0  0  0  0  0
   36.8300   30.1440   35.9210 C   0  0  0  0  0  3  0  0  0  0  0  0
   37.0330   30.6170   37.1970 C   0  0  0  0  0  3  0  0  0  0  0  0
   36.3440   30.1930   38.3050 C   0  0  0  0  0  0  0  0  0  0  0  0
   40.9770   34.1600   40.6190 C   0  0  0  0  0  0  0  0  0  0  0  0
   40.6390   35.1970   40.6160 H   0  0  0  0  0  0  0  0  0  0  0  0
   41.3500   33.9670   41.6540 H   0  0  0  0  0  0  0  0  0  0  0  0
   42.0450   33.8870   39.6530 N   0  0  0  0  0  0  0  0  0  0  0  0
   41.8600   34.1610   38.3630 C   0  0  0  0  0  0  0  0  0  0  0  0
   42.9170   33.8780   37.4930 C   0  0  0  0  0  0  0  0  0  0  0  0
   44.1020   33.3370   37.9580 C   0  0  0  0  0  0  0  0  0  0  0  0
   45.0280   33.0970   37.1420 O   0  0  0  0  0  0  0  0  0  0  0  0
   44.2410   33.0750   39.2840 N   0  0  0  0  0  0  0  0  0  0  0  0
   43.2140   33.3500   40.1400 C   0  0  0  0  0  0  0  0  0  0  0  0
   43.4120   33.0830   41.3440 O   0  0  0  0  0  0  0  0  0  0  0  0
   40.9290   34.5800   38.0350 H   0  0  0  0  0  0  0  0  0  0  0  0
   42.7220   34.1170   36.4560 H   0  0  0  0  0  0  0  0  0  0  0  0
   45.1230   32.6710   39.6410 H   0  0  0  0  0  0  0  0  0  0  0  0
  1  2  1  0  0  0  0
  2  3  2  0  0  0  0
  2 20  1  0  0  0  0
  3  8  1  0  0  0  0
  4  3  1  0  0  0  0
  5  4  2  0  0  0  0
  6  5  1  0  0  0  0
  6  1  2  0  0  0  0
  7  1  1  0  0  0  0
  9  5  1  0  0  0  0
  9 10  1  0  0  0  0
 10 11  1  0  0  0  0
 12 10  2  0  0  0  0
 13 12  1  0  0  0  0
 14 19  1  0  0  0  0
 14 13  2  0  0  0  0
 15 14  1  0  0  0  0
 16 17  1  0  0  0  0
 16 15  2  0  0  0  0
 17 18  2  0  0  0  0
 18 19  1  0  0  0  0
 19  9  2  0  0  0  0
 20 22  1  0  0  0  0
 21 20  1  0  0  0  0
 23 29  1  0  0  0  0
 23 20  1  0  0  0  0
 24 23  1  0  0  0  0
 25 26  1  0  0  0  0
 25 24  2  0  0  0  0
 26 28  1  0  0  0  0
 27 26  2  0  0  0  0
 28 33  1  0  0  0  0
 28 29  1  0  0  0  0
 29 30  2  0  0  0  0
 31 24  1  0  0  0  0
 32 25  1  0  0  0  0
M  END
>  <minimizedAffinity>
-6.01078701

$$$$

 OpenBabel03242515273D

 33 36  0  0  0  0  0  0  0  0999 V2000
   36.7040   30.1510   39.9020 C   0  0  0  0  0  0  0  0  0  0  0  0
   37.4770   30.3540   38.7550 C   0  0  0  0  0  0  0  0  0  0  0  0
   38.1560   29.2600   38.2730 C   0  0  0  0  0  0  0  0  0  0  0  0
   38.0330   28.0750   38.9250 N   0  0  0  0  0  0  0  0  0  0  0  0
   37.2780   27.9260   40.0220 C   0  0  0  0  0  0  0  0  0  0  0  0
   36.6080   28.9440   40.5260 N   0  0  0  0  0  0  0  0  0  0  0  0
   36.1370   30.9530   40.3530 H   0  0  0  0  0  0  0  0  0  0  0  0
   38.7430   29.4190   37.4040 H   0  0  0  0  0  0  0  0  0  0  0  0
   37.3620   26.5260   40.4760 C   0  0  0  0  0  0  0  0  0  0  0  0
   36.6200   25.5180   39.9490 C   0  0  0  0  0  0  0  0  0  0  0  0
   35.9120   25.6980   39.1510 H   0  0  0  0  0  0  0  0  0  0  0  0
   36.6700   24.1990   40.3450 C   0  0  0  0  0  3  0  0  0  0  0  0
   37.5290   23.8270   41.3520 C   0  0  0  0  0  3  0  0  0  0  0  0
   38.3100   24.8030   41.9280 C   0  0  0  0  0  0  0  0  0  0  0  0
   39.1530   24.3940   42.9300 C   0  0  0  0  0  3  0  0  0  0  0  0
   39.9690   25.3040   43.5600 C   0  0  0  0  0  3  0  0  0  0  0  0
   39.8970   26.6190   43.1410 C   0  0  0  0  0  3  0  0  0  0  0  0
   39.0300   26.9690   42.1310 C   0  0  0  0  0  3  0  0  0  0  0  0
   38.2000   26.0940   41.4770 C   0  0  0  0  0  0  0  0  0  0  0  0
   37.4630   31.7050   38.1890 C   0  0  0  0  0  0  0  0  0  0  0  0
   37.2130   31.6920   37.1270 H   0  0  0  0  0  0  0  0  0  0  0  0
   36.6400   32.2720   38.6860 H   0  0  0  0  0  0  0  0  0  0  0  0
   38.7470   32.3450   38.4820 N   0  0  0  0  0  0  0  0  0  0  0  0
   39.8280   32.0240   37.7730 C   0  0  0  0  0  0  0  0  0  0  0  0
   41.0230   32.6700   38.1010 C   0  0  0  0  0  0  0  0  0  0  0  0
   41.0750   33.6030   39.1220 C   0  0  0  0  0  0  0  0  0  0  0  0
   42.1700   34.1610   39.3860 O   0  0  0  0  0  0  0  0  0  0  0  0
   39.9450   33.8960   39.8170 N   0  0  0  0  0  0  0  0  0  0  0  0
   38.7740   33.2690   39.5010 C   0  0  0  0  0  0  0  0  0  0  0  0
   37.7770   33.5870   40.1820 O   0  0  0  0  0  0  0  0  0  0  0  0
   39.7530   31.2960   36.9880 H   0  0  0  0  0  0  0  0  0  0  0  0
   41.8720   32.3790   37.4990 H   0  0  0  0  0  0  0  0  0  0  0  0
   39.9750   34.5910   40.5820 H   0  0  0  0  0  0  0  0  0  0  0  0
  1  7  1  0  0  0  0
  1  6  1  0  0  0  0
  2  1  2  0  0  0  0
  3  2  1  0  0  0  0
  3  4  2  0  0  0  0
  4  5  1  0  0  0  0
  5  9  1  0  0  0  0
  5  6  2  0  0  0  0
  8  3  1  0  0  0  0
  9 19  1  0  0  0  0
 10 12  1  0  0  0  0
 10  9  2  0  0  0  0
 11 10  1  0  0  0  0
 12 13  2  0  0  0  0
 13 14  1  0  0  0  0
 14 15  1  0  0  0  0
 15 16  2  0  0  0  0
 17 16  1  0  0  0  0
 18 17  2  0  0  0  0
 19 14  2  0  0  0  0
 19 18  1  0  0  0  0
 20 23  1  0  0  0  0
 20 22  1  0  0  0  0
 20  2  1  0  0  0  0
 21 20  1  0  0  0  0
 23 29  1  0  0  0  0
 24 25  2  0  0  0  0
 24 23  1  0  0  0  0
 25 26  1  0  0  0  0
 26 27  2  0  0  0  0
 26 28  1  0  0  0  0
 28 33  1  0  0  0  0
 29 28  1  0  0  0  0
 29 30  2  0  0  0  0
 31 24  1  0  0  0  0
 32 25  1  0  0  0  0
M  END
>  <minimizedAffinity>
-5.83936405

$$$$

 OpenBabel03242515273D

 33 36  0  0  0  0  0  0  0  0999 V2000
   36.7470   30.6270   39.5500 C   0  0  0  0  0  0  0  0  0  0  0  0
   38.0560   30.8750   39.1260 C   0  0  0  0  0  0  0  0  0  0  0  0
   38.9490   29.8380   39.2590 C   0  0  0  0  0  0  0  0  0  0  0  0
   38.5110   28.6620   39.7790 N   0  0  0  0  0  0  0  0  0  0  0  0
   37.2440   28.4690   40.1710 C   0  0  0  0  0  0  0  0  0  0  0  0
   36.3500   29.4320   40.0670 N   0  0  0  0  0  0  0  0  0  0  0  0
   35.9780   31.3840   39.4850 H   0  0  0  0  0  0  0  0  0  0  0  0
   39.9410   30.0310   38.9390 H   0  0  0  0  0  0  0  0  0  0  0  0
   37.1050   27.0930   40.6830 C   0  0  0  0  0  0  0  0  0  0  0  0
   37.4510   26.7220   41.9430 C   0  0  0  0  0  0  0  0  0  0  0  0
   37.8580   27.4340   42.6480 H   0  0  0  0  0  0  0  0  0  0  0  0
   37.3360   25.4490   42.4580 C   0  0  0  0  0  3  0  0  0  0  0  0
   36.8320   24.4420   41.6700 C   0  0  0  0  0  3  0  0  0  0  0  0
   36.4610   24.7550   40.3820 C   0  0  0  0  0  0  0  0  0  0  0  0
   35.9630   23.7240   39.6260 C   0  0  0  0  0  3  0  0  0  0  0  0
   35.5680   23.9480   38.3280 C   0  0  0  0  0  3  0  0  0  0  0  0
   35.6960   25.2350   37.8380 C   0  0  0  0  0  3  0  0  0  0  0  0
   36.2030   26.2270   38.6450 C   0  0  0  0  0  3  0  0  0  0  0  0
   36.6080   26.0460   39.9430 C   0  0  0  0  0  0  0  0  0  0  0  0
   38.3230   32.2050   38.5740 C   0  0  0  0  0  0  0  0  0  0  0  0
   38.2850   32.2020   37.4840 H   0  0  0  0  0  0  0  0  0  0  0  0
   37.4980   32.8810   38.9030 H   0  0  0  0  0  0  0  0  0  0  0  0
   39.5970   32.6860   39.1160 N   0  0  0  0  0  0  0  0  0  0  0  0
   40.7180   32.5360   38.4120 C   0  0  0  0  0  0  0  0  0  0  0  0
   41.8990   33.0150   38.9830 C   0  0  0  0  0  0  0  0  0  0  0  0
   41.8990   33.6190   40.2280 C   0  0  0  0  0  0  0  0  0  0  0  0
   42.9840   34.0370   40.7070 O   0  0  0  0  0  0  0  0  0  0  0  0
   40.7290   33.7480   40.9070 N   0  0  0  0  0  0  0  0  0  0  0  0
   39.5710   33.2830   40.3540 C   0  0  0  0  0  0  0  0  0  0  0  0
   38.5340   33.4350   41.0350 O   0  0  0  0  0  0  0  0  0  0  0  0
   40.6830   32.0620   37.4500 H   0  0  0  0  0  0  0  0  0  0  0  0
   42.7830   32.8720   38.3770 H   0  0  0  0  0  0  0  0  0  0  0  0
   40.7190   34.1980   41.8380 H   0  0  0  0  0  0  0  0  0  0  0  0
  1  6  1  0  0  0  0
  2  3  1  0  0  0  0
  2  1  2  0  0  0  0
  3  4  2  0  0  0  0
  4  5  1  0  0  0  0
  5  9  1  0  0  0  0
  6  5  2  0  0  0  0
  7  1  1  0  0  0  0
  8  3  1  0  0  0  0
  9 10  1  0  0  0  0
 10 12  2  0  0  0  0
 10 11  1  0  0  0  0
 13 12  1  0  0  0  0
 14 13  2  0  0  0  0
 15 14  1  0  0  0  0
 16 15  2  0  0  0  0
 17 16  1  0  0  0  0
 17 18  2  0  0  0  0
 18 19  1  0  0  0  0
 19 14  1  0  0  0  0
 19  9  2  0  0  0  0
 20 22  1  0  0  0  0
 20 23  1  0  0  0  0
 20  2  1  0  0  0  0
 21 20  1  0  0  0  0
 23 29  1  0  0  0  0
 24 25  2  0  0  0  0
 24 23  1  0  0  0  0
 25 26  1  0  0  0  0
 26 27  2  0  0  0  0
 26 28  1  0  0  0  0
 28 33  1  0  0  0  0
 29 28  1  0  0  0  0
 29 30  2  0  0  0  0
 31 24  1  0  0  0  0
 32 25  1  0  0  0  0
M  END
>  <minimizedAffinity>
-5.80502462

$$$$

 OpenBabel03242515273D

 33 36  0  0  0  0  0  0  0  0999 V2000
   36.5810   28.5980   41.1440 C   0  0  0  0  0  0  0  0  0  0  0  0
   36.8140   27.2340   41.3460 C   0  0  0  0  0  0  0  0  0  0  0  0
   36.7830   26.4360   40.2280 C   0  0  0  0  0  0  0  0  0  0  0  0
   36.5370   27.0100   39.0220 N   0  0  0  0  0  0  0  0  0  0  0  0
   36.3210   28.3240   38.8750 C   0  0  0  0  0  0  0  0  0  0  0  0
   36.3370   29.1330   39.9160 N   0  0  0  0  0  0  0  0  0  0  0  0
   36.5840   29.3010   41.9650 H   0  0  0  0  0  0  0  0  0  0  0  0
   36.9590   25.4020   40.3860 H   0  0  0  0  0  0  0  0  0  0  0  0
   36.0890   28.6160   37.4490 C   0  0  0  0  0  0  0  0  0  0  0  0
   37.0770   28.6530   36.5180 C   0  0  0  0  0  0  0  0  0  0  0  0
   38.1080   28.4680   36.7850 H   0  0  0  0  0  0  0  0  0  0  0  0
   36.9000   28.9220   35.1780 C   0  0  0  0  0  3  0  0  0  0  0  0
   35.6370   29.1760   34.6990 C   0  0  0  0  0  3  0  0  0  0  0  0
   34.5910   29.1520   35.5930 C   0  0  0  0  0  0  0  0  0  0  0  0
   33.3450   29.4100   35.0780 C   0  0  0  0  0  3  0  0  0  0  0  0
   32.2440   29.4060   35.9010 C   0  0  0  0  0  3  0  0  0  0  0  0
   32.4520   29.1350   37.2410 C   0  0  0  0  0  3  0  0  0  0  0  0
   33.7250   28.8830   37.6980 C   0  0  0  0  0  3  0  0  0  0  0  0
   34.8490   28.8770   36.9120 C   0  0  0  0  0  0  0  0  0  0  0  0
   37.0800   26.8150   42.7240 C   0  0  0  0  0  0  0  0  0  0  0  0
   36.8170   27.5960   43.4390 H   0  0  0  0  0  0  0  0  0  0  0  0
   36.4060   25.9550   42.9550 H   0  0  0  0  0  0  0  0  0  0  0  0
   38.4770   26.3810   42.8160 N   0  0  0  0  0  0  0  0  0  0  0  0
   39.4410   27.2800   43.0060 C   0  0  0  0  0  0  0  0  0  0  0  0
   40.7520   26.8020   43.0850 C   0  0  0  0  0  0  0  0  0  0  0  0
   41.0310   25.4520   42.9700 C   0  0  0  0  0  0  0  0  0  0  0  0
   42.2240   25.0640   43.0460 O   0  0  0  0  0  0  0  0  0  0  0  0
   40.0120   24.5740   42.7760 N   0  0  0  0  0  0  0  0  0  0  0  0
   38.7280   25.0340   42.7000 C   0  0  0  0  0  0  0  0  0  0  0  0
   37.8430   24.1700   42.5200 O   0  0  0  0  0  0  0  0  0  0  0  0
   39.1910   28.3190   43.0910 H   0  0  0  0  0  0  0  0  0  0  0  0
   41.5010   27.5670   43.2400 H   0  0  0  0  0  0  0  0  0  0  0  0
   40.2100   23.5640   42.6890 H   0  0  0  0  0  0  0  0  0  0  0  0
  1  2  1  0  0  0  0
  1  7  1  0  0  0  0
  2 20  1  0  0  0  0
  3  8  1  0  0  0  0
  3  2  2  0  0  0  0
  4  3  1  0  0  0  0
  5  4  2  0  0  0  0
  5  6  1  0  0  0  0
  6  1  2  0  0  0  0
  9  5  1  0  0  0  0
 10 11  1  0  0  0  0
 10  9  2  0  0  0  0
 12 10  1  0  0  0  0
 13 12  2  0  0  0  0
 13 14  1  0  0  0  0
 14 19  1  0  0  0  0
 15 14  2  0  0  0  0
 15 16  1  0  0  0  0
 16 17  2  0  0  0  0
 17 18  1  0  0  0  0
 19  9  1  0  0  0  0
 19 18  2  0  0  0  0
 20 23  1  0  0  0  0
 20 22  1  0  0  0  0
 20 21  1  0  0  0  0
 23 24  1  0  0  0  0
 24 25  2  0  0  0  0
 24 31  1  0  0  0  0
 25 32  1  0  0  0  0
 26 27  2  0  0  0  0
 26 25  1  0  0  0  0
 28 26  1  0  0  0  0
 29 28  1  0  0  0  0
 29 23  1  0  0  0  0
 30 29  2  0  0  0  0
 33 28  1  0  0  0  0
M  END
>  <minimizedAffinity>
-5.66533995

$$$$
