
 OpenBabel03252501273D

 37 41  0  0  0  0  0  0  0  0999 V2000
   39.5470   29.8270   40.5750 F   0  0  0  0  0  0  0  0  0  0  0  0
   38.4850   29.9280   39.7490 C   0  0  0  0  0  0  0  0  0  0  0  0
   38.5990   30.6600   38.5790 C   0  0  0  0  0  0  0  0  0  0  0  0
   37.5200   30.7750   37.7190 C   0  0  0  0  0  0  0  0  0  0  0  0
   36.3140   30.1810   37.9830 C   0  0  0  0  0  0  0  0  0  0  0  0
   36.2130   29.4630   39.1380 C   0  0  0  0  0  0  0  0  0  0  0  0
   37.2590   29.3230   40.0200 C   0  0  0  0  0  0  0  0  0  0  0  0
   37.5900   31.3470   36.7920 H   0  0  0  0  0  0  0  0  0  0  0  0
   35.4730   30.2650   37.3240 H   0  0  0  0  0  0  0  0  0  0  0  0
   35.2910   28.9640   39.4170 H   0  0  0  0  0  0  0  0  0  0  0  0
   37.2280   28.5690   41.2800 C   0  0  0  0  0  0  0  0  0  0  0  0
   37.3130   29.1940   42.5080 C   0  0  0  0  0  0  0  0  0  0  0  0
   37.4050   30.2690   42.5760 H   0  0  0  0  0  0  0  0  0  0  0  0
   37.2690   28.3540   43.6010 C   0  0  0  0  0  3  0  0  0  0  0  0
   37.1510   26.9820   43.5150 C   0  0  0  0  0  3  0  0  0  0  0  0
   37.0680   26.3870   42.2580 C   0  0  0  0  0  0  0  0  0  0  0  0
   36.9510   25.0170   42.1750 C   0  0  0  0  0  3  0  0  0  0  0  0
   36.8660   24.3990   40.9350 C   0  0  0  0  0  3  0  0  0  0  0  0
   36.9080   25.2210   39.8170 C   0  0  0  0  0  3  0  0  0  0  0  0
   37.0270   26.5930   39.9120 C   0  0  0  0  0  3  0  0  0  0  0  0
   37.1090   27.2000   41.1500 C   0  0  0  0  0  0  0  0  0  0  0  0
   41.7800   31.4930   37.3170 C   0  0  0  0  0  0  0  0  0  0  0  0
   41.3420   32.7350   37.7620 C   0  0  0  0  0  0  0  0  0  0  0  0
   40.0990   32.6040   38.2950 C   0  0  0  0  0  0  0  0  0  0  0  0
   39.7710   31.3180   38.1850 N   0  0  0  0  0  0  0  0  0  0  0  0
   40.7830   30.6590   37.5980 N   0  0  0  0  0  0  0  0  0  0  0  0
   41.8630   33.6860   37.7190 H   0  0  0  0  0  0  0  0  0  0  0  0
   39.4590   33.3620   38.7340 H   0  0  0  0  0  0  0  0  0  0  0  0
   44.3540   30.0930   35.1210 C   0  0  0  0  0  0  0  0  0  0  0  0
   45.5060   30.7720   35.5360 C   0  0  0  0  0  0  0  0  0  0  0  0
   45.3870   31.7060   36.5670 C   0  0  0  0  0  0  0  0  0  0  0  0
   44.1580   31.8800   37.0860 N   0  0  0  0  0  0  0  0  0  0  0  0
   43.0550   31.2350   36.6930 C   0  0  0  0  0  0  0  0  0  0  0  0
   43.1330   30.3180   35.6930 N   0  0  0  0  0  0  0  0  0  0  0  0
   44.2970   29.3430   34.3330 H   0  0  0  0  0  0  0  0  0  0  0  0
   46.4120   30.5240   35.0250 H   0  0  0  0  0  0  0  0  0  0  0  0
   46.2620   32.2200   36.8810 H   0  0  0  0  0  0  0  0  0  0  0  0
  2  7  1  0  0  0  0
  2  1  1  0  0  0  0
  3  2  2  0  0  0  0
  4  5  2  0  0  0  0
  4  3  1  0  0  0  0
  5  6  1  0  0  0  0
  6 10  1  0  0  0  0
  6  7  2  0  0  0  0
  7 11  1  0  0  0  0
  8  4  1  0  0  0  0
  9  5  1  0  0  0  0
 11 12  1  0  0  0  0
 12 13  1  0  0  0  0
 12 14  2  0  0  0  0
 15 14  1  0  0  0  0
 16 15  2  0  0  0  0
 17 16  1  0  0  0  0
 18 17  2  0  0  0  0
 19 20  2  0  0  0  0
 19 18  1  0  0  0  0
 20 21  1  0  0  0  0
 21 11  2  0  0  0  0
 21 16  1  0  0  0  0
 22 26  2  0  0  0  0
 22 23  1  0  0  0  0
 23 24  2  0  0  0  0
 24 28  1  0  0  0  0
 25 24  1  0  0  0  0
 25  3  1  0  0  0  0
 26 25  1  0  0  0  0
 27 23  1  0  0  0  0
 29 30  2  0  0  0  0
 29 34  1  0  0  0  0
 30 31  1  0  0  0  0
 31 37  1  0  0  0  0
 31 32  2  0  0  0  0
 33 32  1  0  0  0  0
 33 22  1  0  0  0  0
 34 33  2  0  0  0  0
 35 29  1  0  0  0  0
 36 30  1  0  0  0  0
M  END
>  <minimizedAffinity>
-7.08910322

$$$$

 OpenBabel03252501273D

 37 41  0  0  0  0  0  0  0  0999 V2000
   40.0900   29.8400   40.8820 F   0  0  0  0  0  0  0  0  0  0  0  0
   39.0590   30.6410   40.5420 C   0  0  0  0  0  0  0  0  0  0  0  0
   39.2960   31.7560   39.7540 C   0  0  0  0  0  0  0  0  0  0  0  0
   38.2510   32.5910   39.3940 C   0  0  0  0  0  0  0  0  0  0  0  0
   36.9620   32.3560   39.7940 C   0  0  0  0  0  0  0  0  0  0  0  0
   36.7410   31.2560   40.5690 C   0  0  0  0  0  0  0  0  0  0  0  0
   37.7490   30.4000   40.9500 C   0  0  0  0  0  0  0  0  0  0  0  0
   38.4170   33.4740   38.7740 H   0  0  0  0  0  0  0  0  0  0  0  0
   36.1480   32.9970   39.5210 H   0  0  0  0  0  0  0  0  0  0  0  0
   35.7490   31.0030   40.9250 H   0  0  0  0  0  0  0  0  0  0  0  0
   37.5910   29.2000   41.7800 C   0  0  0  0  0  0  0  0  0  0  0  0
   37.7010   29.2430   43.1560 C   0  0  0  0  0  0  0  0  0  0  0  0
   37.9090   30.1750   43.6650 H   0  0  0  0  0  0  0  0  0  0  0  0
   37.5270   28.0360   43.8000 C   0  0  0  0  0  3  0  0  0  0  0  0
   37.2620   26.8470   43.1510 C   0  0  0  0  0  3  0  0  0  0  0  0
   37.1580   26.8430   41.7620 C   0  0  0  0  0  0  0  0  0  0  0  0
   36.8930   25.6540   41.1170 C   0  0  0  0  0  3  0  0  0  0  0  0
   36.7840   25.6230   39.7340 C   0  0  0  0  0  3  0  0  0  0  0  0
   36.9550   26.8250   39.0600 C   0  0  0  0  0  3  0  0  0  0  0  0
   37.2210   28.0090   39.7170 C   0  0  0  0  0  3  0  0  0  0  0  0
   37.3270   28.0320   41.0940 C   0  0  0  0  0  0  0  0  0  0  0  0
   42.3660   31.9340   38.0370 C   0  0  0  0  0  0  0  0  0  0  0  0
   42.4650   33.0450   38.8650 C   0  0  0  0  0  0  0  0  0  0  0  0
   41.3400   33.1390   39.6230 C   0  0  0  0  0  0  0  0  0  0  0  0
   40.5620   32.1150   39.2750 N   0  0  0  0  0  0  0  0  0  0  0  0
   41.1830   31.3980   38.3260 N   0  0  0  0  0  0  0  0  0  0  0  0
   43.2820   33.7570   38.9400 H   0  0  0  0  0  0  0  0  0  0  0  0
   41.0790   33.8780   40.3710 H   0  0  0  0  0  0  0  0  0  0  0  0
   45.5480   31.6170   36.2540 C   0  0  0  0  0  0  0  0  0  0  0  0
   45.2470   30.6720   35.2660 C   0  0  0  0  0  0  0  0  0  0  0  0
   43.9530   30.1510   35.2220 C   0  0  0  0  0  0  0  0  0  0  0  0
   43.0860   30.6070   36.1460 N   0  0  0  0  0  0  0  0  0  0  0  0
   43.3680   31.5090   37.0910 C   0  0  0  0  0  0  0  0  0  0  0  0
   44.6190   32.0370   37.1630 N   0  0  0  0  0  0  0  0  0  0  0  0
   46.5100   32.1050   36.4070 H   0  0  0  0  0  0  0  0  0  0  0  0
   46.0440   30.4100   34.6030 H   0  0  0  0  0  0  0  0  0  0  0  0
   43.7260   29.4340   34.4720 H   0  0  0  0  0  0  0  0  0  0  0  0
  2  1  1  0  0  0  0
  2  7  1  0  0  0  0
  3  2  2  0  0  0  0
  4  3  1  0  0  0  0
  4  5  2  0  0  0  0
  5  6  1  0  0  0  0
  6 10  1  0  0  0  0
  6  7  2  0  0  0  0
  7 11  1  0  0  0  0
  8  4  1  0  0  0  0
  9  5  1  0  0  0  0
 11 12  1  0  0  0  0
 12 13  1  0  0  0  0
 12 14  2  0  0  0  0
 15 14  1  0  0  0  0
 16 15  2  0  0  0  0
 17 16  1  0  0  0  0
 18 17  2  0  0  0  0
 19 20  2  0  0  0  0
 19 18  1  0  0  0  0
 20 21  1  0  0  0  0
 21 16  1  0  0  0  0
 21 11  2  0  0  0  0
 22 26  2  0  0  0  0
 22 23  1  0  0  0  0
 23 27  1  0  0  0  0
 23 24  2  0  0  0  0
 24 28  1  0  0  0  0
 25 24  1  0  0  0  0
 25  3  1  0  0  0  0
 26 25  1  0  0  0  0
 29 35  1  0  0  0  0
 29 34  1  0  0  0  0
 30 29  2  0  0  0  0
 31 30  1  0  0  0  0
 31 32  2  0  0  0  0
 32 33  1  0  0  0  0
 33 34  2  0  0  0  0
 33 22  1  0  0  0  0
 36 30  1  0  0  0  0
 37 31  1  0  0  0  0
M  END
>  <minimizedAffinity>
-6.79267406

$$$$

 OpenBabel03252501273D

 37 41  0  0  0  0  0  0  0  0999 V2000
   38.9560   28.0070   39.3080 F   0  0  0  0  0  0  0  0  0  0  0  0
   37.8290   28.5680   39.7930 C   0  0  0  0  0  0  0  0  0  0  0  0
   37.5680   29.9030   39.5340 C   0  0  0  0  0  0  0  0  0  0  0  0
   36.4160   30.4970   40.0230 C   0  0  0  0  0  0  0  0  0  0  0  0
   35.5020   29.8030   40.7710 C   0  0  0  0  0  0  0  0  0  0  0  0
   35.7700   28.4890   41.0200 C   0  0  0  0  0  0  0  0  0  0  0  0
   36.9020   27.8600   40.5540 C   0  0  0  0  0  0  0  0  0  0  0  0
   36.1920   31.5480   39.8290 H   0  0  0  0  0  0  0  0  0  0  0  0
   34.6090   30.2540   41.1540 H   0  0  0  0  0  0  0  0  0  0  0  0
   35.0960   27.8740   41.6050 H   0  0  0  0  0  0  0  0  0  0  0  0
   37.2590   26.4540   40.7800 C   0  0  0  0  0  0  0  0  0  0  0  0
   36.7170   25.4320   40.0260 C   0  0  0  0  0  0  0  0  0  0  0  0
   36.0060   25.6430   39.2390 H   0  0  0  0  0  0  0  0  0  0  0  0
   37.1500   24.1640   40.3540 C   0  0  0  0  0  3  0  0  0  0  0  0
   38.0570   23.8950   41.3580 C   0  0  0  0  0  3  0  0  0  0  0  0
   38.5830   24.9510   42.0970 C   0  0  0  0  0  0  0  0  0  0  0  0
   39.4880   24.6790   43.0990 C   0  0  0  0  0  3  0  0  0  0  0  0
   40.0270   25.7150   43.8500 C   0  0  0  0  0  3  0  0  0  0  0  0
   39.6090   27.0020   43.5410 C   0  0  0  0  0  3  0  0  0  0  0  0
   38.7010   27.2630   42.5360 C   0  0  0  0  0  3  0  0  0  0  0  0
   38.1700   26.2270   41.7920 C   0  0  0  0  0  0  0  0  0  0  0  0
   40.1940   31.9520   38.3890 C   0  0  0  0  0  0  0  0  0  0  0  0
   39.3620   31.9470   37.2760 C   0  0  0  0  0  0  0  0  0  0  0  0
   38.2670   31.1860   37.5400 C   0  0  0  0  0  0  0  0  0  0  0  0
   38.4130   30.7300   38.7830 N   0  0  0  0  0  0  0  0  0  0  0  0
   39.5690   31.1940   39.2850 N   0  0  0  0  0  0  0  0  0  0  0  0
   39.5100   32.4490   36.3250 H   0  0  0  0  0  0  0  0  0  0  0  0
   37.4190   30.9630   36.9030 H   0  0  0  0  0  0  0  0  0  0  0  0
   43.4210   33.1420   39.6440 C   0  0  0  0  0  0  0  0  0  0  0  0
   43.8370   34.0130   38.6290 C   0  0  0  0  0  0  0  0  0  0  0  0
   43.0030   34.1830   37.5220 C   0  0  0  0  0  0  0  0  0  0  0  0
   41.8520   33.4860   37.5200 N   0  0  0  0  0  0  0  0  0  0  0  0
   41.4510   32.6540   38.4860 C   0  0  0  0  0  0  0  0  0  0  0  0
   42.2370   32.4640   39.5780 N   0  0  0  0  0  0  0  0  0  0  0  0
   43.9660   32.9130   40.5590 H   0  0  0  0  0  0  0  0  0  0  0  0
   44.7800   34.4950   38.7750 H   0  0  0  0  0  0  0  0  0  0  0  0
   43.3190   34.8430   36.7530 H   0  0  0  0  0  0  0  0  0  0  0  0
  1  2  1  0  0  0  0
  2  7  1  0  0  0  0
  3  2  2  0  0  0  0
  3  4  1  0  0  0  0
  4  5  2  0  0  0  0
  5  6  1  0  0  0  0
  5  9  1  0  0  0  0
  6 10  1  0  0  0  0
  7 11  1  0  0  0  0
  7  6  2  0  0  0  0
  8  4  1  0  0  0  0
 11 21  1  0  0  0  0
 12 14  1  0  0  0  0
 12 11  2  0  0  0  0
 13 12  1  0  0  0  0
 14 15  2  0  0  0  0
 15 16  1  0  0  0  0
 16 17  1  0  0  0  0
 17 18  2  0  0  0  0
 19 18  1  0  0  0  0
 20 19  2  0  0  0  0
 21 16  2  0  0  0  0
 21 20  1  0  0  0  0
 22 33  1  0  0  0  0
 22 26  2  0  0  0  0
 23 24  2  0  0  0  0
 23 22  1  0  0  0  0
 24 25  1  0  0  0  0
 25 26  1  0  0  0  0
 25  3  1  0  0  0  0
 27 23  1  0  0  0  0
 28 24  1  0  0  0  0
 29 35  1  0  0  0  0
 30 36  1  0  0  0  0
 30 29  2  0  0  0  0
 31 30  1  0  0  0  0
 32 31  2  0  0  0  0
 32 33  1  0  0  0  0
 33 34  2  0  0  0  0
 34 29  1  0  0  0  0
 37 31  1  0  0  0  0
M  END
>  <minimizedAffinity>
-6.67373657

$$$$

 OpenBabel03252501273D

 37 41  0  0  0  0  0  0  0  0999 V2000
   38.5900   28.7680   38.4140 F   0  0  0  0  0  0  0  0  0  0  0  0
   37.7450   29.4280   39.2330 C   0  0  0  0  0  0  0  0  0  0  0  0
   38.0340   30.7320   39.6000 C   0  0  0  0  0  0  0  0  0  0  0  0
   37.1800   31.4270   40.4400 C   0  0  0  0  0  0  0  0  0  0  0  0
   36.0330   30.8640   40.9370 C   0  0  0  0  0  0  0  0  0  0  0  0
   35.7590   29.5810   40.5690 C   0  0  0  0  0  0  0  0  0  0  0  0
   36.5800   28.8540   39.7370 C   0  0  0  0  0  0  0  0  0  0  0  0
   37.3890   32.4560   40.7400 H   0  0  0  0  0  0  0  0  0  0  0  0
   35.3660   31.3940   41.5870 H   0  0  0  0  0  0  0  0  0  0  0  0
   34.8710   29.0670   40.9210 H   0  0  0  0  0  0  0  0  0  0  0  0
   36.3550   27.4710   39.2980 C   0  0  0  0  0  0  0  0  0  0  0  0
   35.8600   27.1740   38.0440 C   0  0  0  0  0  0  0  0  0  0  0  0
   35.6230   27.9630   37.3420 H   0  0  0  0  0  0  0  0  0  0  0  0
   35.7020   25.8310   37.7750 C   0  0  0  0  0  3  0  0  0  0  0  0
   36.0050   24.8250   38.6700 C   0  0  0  0  0  3  0  0  0  0  0  0
   36.5020   25.1630   39.9260 C   0  0  0  0  0  0  0  0  0  0  0  0
   36.8030   24.1560   40.8170 C   0  0  0  0  0  3  0  0  0  0  0  0
   37.3000   24.4660   42.0750 C   0  0  0  0  0  3  0  0  0  0  0  0
   37.4690   25.8120   42.3730 C   0  0  0  0  0  3  0  0  0  0  0  0
   37.1630   26.8120   41.4720 C   0  0  0  0  0  3  0  0  0  0  0  0
   36.6700   26.4950   40.2220 C   0  0  0  0  0  0  0  0  0  0  0  0
   41.0730   32.5000   39.3860 C   0  0  0  0  0  0  0  0  0  0  0  0
   40.7150   32.4320   38.0450 C   0  0  0  0  0  0  0  0  0  0  0  0
   39.5350   31.7660   37.9310 C   0  0  0  0  0  0  0  0  0  0  0  0
   39.1690   31.4290   39.1670 N   0  0  0  0  0  0  0  0  0  0  0  0
   40.0940   31.8730   40.0320 N   0  0  0  0  0  0  0  0  0  0  0  0
   41.2490   32.8270   37.1860 H   0  0  0  0  0  0  0  0  0  0  0  0
   38.9670   31.5300   37.0390 H   0  0  0  0  0  0  0  0  0  0  0  0
   44.5290   33.6700   39.6930 C   0  0  0  0  0  0  0  0  0  0  0  0
   44.5090   34.3520   40.9160 C   0  0  0  0  0  0  0  0  0  0  0  0
   43.3070   34.4040   41.6230 C   0  0  0  0  0  0  0  0  0  0  0  0
   42.2490   33.7860   41.0650 N   0  0  0  0  0  0  0  0  0  0  0  0
   42.2630   33.1330   39.8990 C   0  0  0  0  0  0  0  0  0  0  0  0
   43.4160   33.0620   39.1830 N   0  0  0  0  0  0  0  0  0  0  0  0
   45.3900   33.5490   39.0370 H   0  0  0  0  0  0  0  0  0  0  0  0
   45.4320   34.7930   41.2270 H   0  0  0  0  0  0  0  0  0  0  0  0
   43.2920   34.9220   42.5500 H   0  0  0  0  0  0  0  0  0  0  0  0
  1  2  1  0  0  0  0
  2  3  2  0  0  0  0
  2  7  1  0  0  0  0
  3  4  1  0  0  0  0
  4  8  1  0  0  0  0
  4  5  2  0  0  0  0
  5  9  1  0  0  0  0
  6 10  1  0  0  0  0
  6  5  1  0  0  0  0
  7  6  2  0  0  0  0
 11  7  1  0  0  0  0
 11 21  1  0  0  0  0
 12 11  2  0  0  0  0
 13 12  1  0  0  0  0
 14 12  1  0  0  0  0
 14 15  2  0  0  0  0
 15 16  1  0  0  0  0
 16 21  2  0  0  0  0
 16 17  1  0  0  0  0
 17 18  2  0  0  0  0
 18 19  1  0  0  0  0
 20 19  2  0  0  0  0
 21 20  1  0  0  0  0
 22 33  1  0  0  0  0
 22 26  2  0  0  0  0
 23 22  1  0  0  0  0
 24 23  2  0  0  0  0
 24 25  1  0  0  0  0
 25  3  1  0  0  0  0
 25 26  1  0  0  0  0
 27 23  1  0  0  0  0
 28 24  1  0  0  0  0
 29 30  1  0  0  0  0
 30 36  1  0  0  0  0
 30 31  2  0  0  0  0
 31 37  1  0  0  0  0
 32 31  1  0  0  0  0
 33 32  2  0  0  0  0
 34 29  2  0  0  0  0
 34 33  1  0  0  0  0
 35 29  1  0  0  0  0
M  END
>  <minimizedAffinity>
-6.60202646

$$$$

 OpenBabel03252501273D

 37 41  0  0  0  0  0  0  0  0999 V2000
   39.5150   27.0810   40.7450 F   0  0  0  0  0  0  0  0  0  0  0  0
   38.6750   27.4020   41.7510 C   0  0  0  0  0  0  0  0  0  0  0  0
   38.8850   28.5720   42.4640 C   0  0  0  0  0  0  0  0  0  0  0  0
   38.0340   28.9190   43.5000 C   0  0  0  0  0  0  0  0  0  0  0  0
   36.9690   28.1360   43.8590 C   0  0  0  0  0  0  0  0  0  0  0  0
   36.7730   26.9870   43.1510 C   0  0  0  0  0  0  0  0  0  0  0  0
   37.5930   26.6040   42.1150 C   0  0  0  0  0  0  0  0  0  0  0  0
   38.1820   29.8360   44.0730 H   0  0  0  0  0  0  0  0  0  0  0  0
   36.3060   28.3970   44.6600 H   0  0  0  0  0  0  0  0  0  0  0  0
   35.9520   26.3150   43.3750 H   0  0  0  0  0  0  0  0  0  0  0  0
   37.4480   25.3860   41.3070 C   0  0  0  0  0  0  0  0  0  0  0  0
   37.9080   24.1600   41.7450 C   0  0  0  0  0  0  0  0  0  0  0  0
   38.3930   24.0630   42.7070 H   0  0  0  0  0  0  0  0  0  0  0  0
   37.6980   23.1080   40.8780 C   0  0  0  0  0  3  0  0  0  0  0  0
   37.0800   23.2320   39.6510 C   0  0  0  0  0  3  0  0  0  0  0  0
   36.6290   24.4850   39.2430 C   0  0  0  0  0  0  0  0  0  0  0  0
   36.0120   24.6060   38.0170 C   0  0  0  0  0  3  0  0  0  0  0  0
   35.5540   25.8430   37.5870 C   0  0  0  0  0  3  0  0  0  0  0  0
   35.7510   26.9200   38.4410 C   0  0  0  0  0  3  0  0  0  0  0  0
   36.3720   26.7880   39.6660 C   0  0  0  0  0  3  0  0  0  0  0  0
   36.8240   25.5520   40.0880 C   0  0  0  0  0  0  0  0  0  0  0  0
   40.9240   31.1700   41.2420 C   0  0  0  0  0  0  0  0  0  0  0  0
   41.7880   30.5630   42.1460 C   0  0  0  0  0  0  0  0  0  0  0  0
   41.1550   29.5100   42.7290 C   0  0  0  0  0  0  0  0  0  0  0  0
   39.9320   29.4640   42.2040 N   0  0  0  0  0  0  0  0  0  0  0  0
   39.8020   30.4610   41.3140 N   0  0  0  0  0  0  0  0  0  0  0  0
   42.8100   30.8390   42.3870 H   0  0  0  0  0  0  0  0  0  0  0  0
   41.5260   28.8180   43.4760 H   0  0  0  0  0  0  0  0  0  0  0  0
   42.6130   33.3880   38.8680 C   0  0  0  0  0  0  0  0  0  0  0  0
   41.8110   34.5360   38.9050 C   0  0  0  0  0  0  0  0  0  0  0  0
   40.6960   34.5360   39.7450 C   0  0  0  0  0  0  0  0  0  0  0  0
   40.4790   33.4180   40.4630 N   0  0  0  0  0  0  0  0  0  0  0  0
   41.2410   32.3200   40.4310 C   0  0  0  0  0  0  0  0  0  0  0  0
   42.3350   32.2850   39.6250 N   0  0  0  0  0  0  0  0  0  0  0  0
   43.5070   33.2470   38.2630 H   0  0  0  0  0  0  0  0  0  0  0  0
   42.1130   35.3450   38.2750 H   0  0  0  0  0  0  0  0  0  0  0  0
   40.0880   35.4070   39.7720 H   0  0  0  0  0  0  0  0  0  0  0  0
  1  2  1  0  0  0  0
  2  7  2  0  0  0  0
  2  3  1  0  0  0  0
  3  4  2  0  0  0  0
  4  5  1  0  0  0  0
  4  8  1  0  0  0  0
  5  9  1  0  0  0  0
  6 10  1  0  0  0  0
  6  5  2  0  0  0  0
  7  6  1  0  0  0  0
 11 12  1  0  0  0  0
 11  7  1  0  0  0  0
 12 13  1  0  0  0  0
 14 12  2  0  0  0  0
 15 14  1  0  0  0  0
 16 15  2  0  0  0  0
 16 21  1  0  0  0  0
 17 16  1  0  0  0  0
 18 17  2  0  0  0  0
 18 19  1  0  0  0  0
 19 20  2  0  0  0  0
 20 21  1  0  0  0  0
 21 11  2  0  0  0  0
 22 26  2  0  0  0  0
 22 23  1  0  0  0  0
 23 27  1  0  0  0  0
 23 24  2  0  0  0  0
 24 28  1  0  0  0  0
 25  3  1  0  0  0  0
 25 24  1  0  0  0  0
 26 25  1  0  0  0  0
 29 30  2  0  0  0  0
 29 34  1  0  0  0  0
 30 31  1  0  0  0  0
 31 37  1  0  0  0  0
 31 32  2  0  0  0  0
 33 32  1  0  0  0  0
 33 22  1  0  0  0  0
 34 33  2  0  0  0  0
 35 29  1  0  0  0  0
 36 30  1  0  0  0  0
M  END
>  <minimizedAffinity>
-6.56589746

$$$$

 OpenBabel03252501273D

 37 41  0  0  0  0  0  0  0  0999 V2000
   34.2260   29.6530   37.1460 F   0  0  0  0  0  0  0  0  0  0  0  0
   33.6440   28.4870   36.7980 C   0  0  0  0  0  0  0  0  0  0  0  0
   34.2250   27.2930   37.1910 C   0  0  0  0  0  0  0  0  0  0  0  0
   33.6430   26.0850   36.8430 C   0  0  0  0  0  0  0  0  0  0  0  0
   32.4880   26.0200   36.1080 C   0  0  0  0  0  0  0  0  0  0  0  0
   31.9260   27.2020   35.7270 C   0  0  0  0  0  0  0  0  0  0  0  0
   32.4710   28.4230   36.0500 C   0  0  0  0  0  0  0  0  0  0  0  0
   34.0850   25.1330   37.1440 H   0  0  0  0  0  0  0  0  0  0  0  0
   32.0310   25.0900   35.8350 H   0  0  0  0  0  0  0  0  0  0  0  0
   31.0120   27.2330   35.1430 H   0  0  0  0  0  0  0  0  0  0  0  0
   31.9260   29.7350   35.6770 C   0  0  0  0  0  0  0  0  0  0  0  0
   32.2580   30.3530   34.4880 C   0  0  0  0  0  0  0  0  0  0  0  0
   32.9380   29.8810   33.7910 H   0  0  0  0  0  0  0  0  0  0  0  0
   31.6660   31.5810   34.2760 C   0  0  0  0  0  3  0  0  0  0  0  0
   30.8000   32.1820   35.1650 C   0  0  0  0  0  3  0  0  0  0  0  0
   30.4880   31.5290   36.3540 C   0  0  0  0  0  0  0  0  0  0  0  0
   29.6220   32.1320   37.2400 C   0  0  0  0  0  3  0  0  0  0  0  0
   29.2940   31.5010   38.4320 C   0  0  0  0  0  3  0  0  0  0  0  0
   29.8760   30.2630   38.6710 C   0  0  0  0  0  3  0  0  0  0  0  0
   30.7420   29.6690   37.7770 C   0  0  0  0  0  3  0  0  0  0  0  0
   31.0620   30.3030   36.5920 C   0  0  0  0  0  0  0  0  0  0  0  0
   36.6840   27.4980   39.7040 C   0  0  0  0  0  0  0  0  0  0  0  0
   37.3960   26.8630   38.6940 C   0  0  0  0  0  0  0  0  0  0  0  0
   36.5860   26.6960   37.6150 C   0  0  0  0  0  0  0  0  0  0  0  0
   35.4030   27.2120   37.9450 N   0  0  0  0  0  0  0  0  0  0  0  0
   35.4700   27.6910   39.1970 N   0  0  0  0  0  0  0  0  0  0  0  0
   38.4300   26.5320   38.7060 H   0  0  0  0  0  0  0  0  0  0  0  0
   36.8080   26.2400   36.6570 H   0  0  0  0  0  0  0  0  0  0  0  0
   37.8740   29.4580   42.5590 C   0  0  0  0  0  0  0  0  0  0  0  0
   38.2230   28.4640   43.4820 C   0  0  0  0  0  0  0  0  0  0  0  0
   38.0450   27.1300   43.1150 C   0  0  0  0  0  0  0  0  0  0  0  0
   37.5460   26.9020   41.8850 N   0  0  0  0  0  0  0  0  0  0  0  0
   37.2120   27.8470   41.0010 C   0  0  0  0  0  0  0  0  0  0  0  0
   37.3710   29.1570   41.3250 N   0  0  0  0  0  0  0  0  0  0  0  0
   37.9570   30.5340   42.7090 H   0  0  0  0  0  0  0  0  0  0  0  0
   38.6070   28.8040   44.4210 H   0  0  0  0  0  0  0  0  0  0  0  0
   38.3100   26.3770   43.8160 H   0  0  0  0  0  0  0  0  0  0  0  0
  2  1  1  0  0  0  0
  2  3  1  0  0  0  0
  3 25  1  0  0  0  0
  4  8  1  0  0  0  0
  4  3  2  0  0  0  0
  5  4  1  0  0  0  0
  6  7  1  0  0  0  0
  6  5  2  0  0  0  0
  7  2  2  0  0  0  0
  9  5  1  0  0  0  0
 10  6  1  0  0  0  0
 11  7  1  0  0  0  0
 11 21  1  0  0  0  0
 12 11  2  0  0  0  0
 13 12  1  0  0  0  0
 14 12  1  0  0  0  0
 14 15  2  0  0  0  0
 15 16  1  0  0  0  0
 16 21  2  0  0  0  0
 16 17  1  0  0  0  0
 17 18  2  0  0  0  0
 18 19  1  0  0  0  0
 20 19  2  0  0  0  0
 21 20  1  0  0  0  0
 22 33  1  0  0  0  0
 23 27  1  0  0  0  0
 23 22  1  0  0  0  0
 24 25  1  0  0  0  0
 24 23  2  0  0  0  0
 25 26  1  0  0  0  0
 26 22  2  0  0  0  0
 28 24  1  0  0  0  0
 29 35  1  0  0  0  0
 29 30  1  0  0  0  0
 30 36  1  0  0  0  0
 31 30  2  0  0  0  0
 31 37  1  0  0  0  0
 32 31  1  0  0  0  0
 33 34  1  0  0  0  0
 33 32  2  0  0  0  0
 34 29  2  0  0  0  0
M  END
>  <minimizedAffinity>
-6.53956795

$$$$

 OpenBabel03252501273D

 37 41  0  0  0  0  0  0  0  0999 V2000
   40.3260   28.7720   40.6030 F   0  0  0  0  0  0  0  0  0  0  0  0
   39.1210   29.3260   40.8510 C   0  0  0  0  0  0  0  0  0  0  0  0
   38.7780   30.5150   40.2290 C   0  0  0  0  0  0  0  0  0  0  0  0
   37.5460   31.0990   40.4710 C   0  0  0  0  0  0  0  0  0  0  0  0
   36.6300   30.5380   41.3210 C   0  0  0  0  0  0  0  0  0  0  0  0
   36.9780   29.3680   41.9270 C   0  0  0  0  0  0  0  0  0  0  0  0
   38.1910   28.7530   41.7160 C   0  0  0  0  0  0  0  0  0  0  0  0
   37.2570   32.0360   39.9900 H   0  0  0  0  0  0  0  0  0  0  0  0
   35.6740   30.9840   41.5140 H   0  0  0  0  0  0  0  0  0  0  0  0
   36.3070   28.8620   42.6130 H   0  0  0  0  0  0  0  0  0  0  0  0
   38.6380   27.4970   42.3300 C   0  0  0  0  0  0  0  0  0  0  0  0
   39.5240   27.4750   43.3890 C   0  0  0  0  0  0  0  0  0  0  0  0
   39.9170   28.3950   43.7990 H   0  0  0  0  0  0  0  0  0  0  0  0
   39.8490   26.2200   43.8600 C   0  0  0  0  0  3  0  0  0  0  0  0
   39.3470   25.0460   43.3370 C   0  0  0  0  0  3  0  0  0  0  0  0
   38.4560   25.1070   42.2690 C   0  0  0  0  0  0  0  0  0  0  0  0
   37.9560   23.9330   41.7480 C   0  0  0  0  0  3  0  0  0  0  0  0
   37.0660   23.9670   40.6850 C   0  0  0  0  0  3  0  0  0  0  0  0
   36.7210   25.2180   40.1900 C   0  0  0  0  0  3  0  0  0  0  0  0
   37.2280   26.3870   40.7190 C   0  0  0  0  0  3  0  0  0  0  0  0
   38.1130   26.3450   41.7790 C   0  0  0  0  0  0  0  0  0  0  0  0
   41.4420   32.2290   38.6900 C   0  0  0  0  0  0  0  0  0  0  0  0
   40.5230   32.1860   37.6490 C   0  0  0  0  0  0  0  0  0  0  0  0
   39.4020   31.5440   38.0700 C   0  0  0  0  0  0  0  0  0  0  0  0
   39.6160   31.1970   39.3380 N   0  0  0  0  0  0  0  0  0  0  0  0
   40.8400   31.6110   39.7020 N   0  0  0  0  0  0  0  0  0  0  0  0
   40.6280   32.5830   36.6440 H   0  0  0  0  0  0  0  0  0  0  0  0
   38.4900   31.3300   37.5240 H   0  0  0  0  0  0  0  0  0  0  0  0
   44.6960   33.3360   37.4270 C   0  0  0  0  0  0  0  0  0  0  0  0
   45.2410   33.9960   38.5350 C   0  0  0  0  0  0  0  0  0  0  0  0
   44.4840   34.0550   39.7060 C   0  0  0  0  0  0  0  0  0  0  0  0
   43.2750   33.4640   39.6760 N   0  0  0  0  0  0  0  0  0  0  0  0
   42.7510   32.8330   38.6210 C   0  0  0  0  0  0  0  0  0  0  0  0
   43.4590   32.7560   37.4640 N   0  0  0  0  0  0  0  0  0  0  0  0
   45.1700   33.2130   36.4530 H   0  0  0  0  0  0  0  0  0  0  0  0
   46.2150   34.4170   38.4040 H   0  0  0  0  0  0  0  0  0  0  0  0
   44.8980   34.5570   40.5460 H   0  0  0  0  0  0  0  0  0  0  0  0
  1  2  1  0  0  0  0
  2  7  1  0  0  0  0
  3  4  1  0  0  0  0
  3  2  2  0  0  0  0
  4  5  2  0  0  0  0
  5  9  1  0  0  0  0
  5  6  1  0  0  0  0
  6 10  1  0  0  0  0
  7  6  2  0  0  0  0
  7 11  1  0  0  0  0
  8  4  1  0  0  0  0
 11 12  1  0  0  0  0
 12 13  1  0  0  0  0
 12 14  2  0  0  0  0
 15 14  1  0  0  0  0
 16 15  2  0  0  0  0
 17 16  1  0  0  0  0
 18 17  2  0  0  0  0
 19 18  1  0  0  0  0
 19 20  2  0  0  0  0
 20 21  1  0  0  0  0
 21 16  1  0  0  0  0
 21 11  2  0  0  0  0
 22 26  2  0  0  0  0
 23 24  2  0  0  0  0
 23 22  1  0  0  0  0
 24 25  1  0  0  0  0
 25 26  1  0  0  0  0
 25  3  1  0  0  0  0
 27 23  1  0  0  0  0
 28 24  1  0  0  0  0
 29 34  2  0  0  0  0
 29 30  1  0  0  0  0
 30 31  2  0  0  0  0
 31 37  1  0  0  0  0
 32 31  1  0  0  0  0
 33 22  1  0  0  0  0
 33 32  2  0  0  0  0
 34 33  1  0  0  0  0
 35 29  1  0  0  0  0
 36 30  1  0  0  0  0
M  END
>  <minimizedAffinity>
-6.53805256

$$$$

 OpenBabel03252501273D

 37 41  0  0  0  0  0  0  0  0999 V2000
   39.2160   27.7000   40.3410 F   0  0  0  0  0  0  0  0  0  0  0  0
   38.4820   27.7250   41.4730 C   0  0  0  0  0  0  0  0  0  0  0  0
   38.9650   28.4010   42.5810 C   0  0  0  0  0  0  0  0  0  0  0  0
   38.2270   28.4380   43.7530 C   0  0  0  0  0  0  0  0  0  0  0  0
   37.0110   27.8170   43.8650 C   0  0  0  0  0  0  0  0  0  0  0  0
   36.5460   27.1540   42.7680 C   0  0  0  0  0  0  0  0  0  0  0  0
   37.2460   27.0920   41.5850 C   0  0  0  0  0  0  0  0  0  0  0  0
   38.5890   28.9670   44.6370 H   0  0  0  0  0  0  0  0  0  0  0  0
   36.4330   27.8400   44.7680 H   0  0  0  0  0  0  0  0  0  0  0  0
   35.5920   26.6380   42.7790 H   0  0  0  0  0  0  0  0  0  0  0  0
   36.8140   26.4000   40.3650 C   0  0  0  0  0  0  0  0  0  0  0  0
   37.1130   25.0720   40.1330 C   0  0  0  0  0  0  0  0  0  0  0  0
   37.6810   24.4990   40.8540 H   0  0  0  0  0  0  0  0  0  0  0  0
   36.6390   24.5600   38.9430 C   0  0  0  0  0  3  0  0  0  0  0  0
   35.9150   25.2900   38.0240 C   0  0  0  0  0  3  0  0  0  0  0  0
   35.6320   26.6270   38.2920 C   0  0  0  0  0  0  0  0  0  0  0  0
   34.9090   27.3540   37.3720 C   0  0  0  0  0  3  0  0  0  0  0  0
   34.6130   28.6880   37.6160 C   0  0  0  0  0  3  0  0  0  0  0  0
   35.0790   29.2300   38.8060 C   0  0  0  0  0  3  0  0  0  0  0  0
   35.8030   28.4920   39.7200 C   0  0  0  0  0  3  0  0  0  0  0  0
   36.0920   27.1640   39.4710 C   0  0  0  0  0  0  0  0  0  0  0  0
   41.5510   30.7770   42.3170 C   0  0  0  0  0  0  0  0  0  0  0  0
   42.2480   29.6890   42.8270 C   0  0  0  0  0  0  0  0  0  0  0  0
   41.3880   28.6490   42.9990 C   0  0  0  0  0  0  0  0  0  0  0  0
   40.1900   29.0790   42.6060 N   0  0  0  0  0  0  0  0  0  0  0  0
   40.2960   30.3540   42.1990 N   0  0  0  0  0  0  0  0  0  0  0  0
   43.3040   29.6200   43.0690 H   0  0  0  0  0  0  0  0  0  0  0  0
   41.5860   27.6530   43.3750 H   0  0  0  0  0  0  0  0  0  0  0  0
   42.1110   34.0530   40.7790 C   0  0  0  0  0  0  0  0  0  0  0  0
   43.2650   34.5000   41.4350 C   0  0  0  0  0  0  0  0  0  0  0  0
   43.8390   33.6720   42.4000 C   0  0  0  0  0  0  0  0  0  0  0  0
   43.2290   32.4930   42.6260 N   0  0  0  0  0  0  0  0  0  0  0  0
   42.1280   32.0610   42.0030 C   0  0  0  0  0  0  0  0  0  0  0  0
   41.5420   32.8420   41.0570 N   0  0  0  0  0  0  0  0  0  0  0  0
   41.5590   34.5900   40.0090 H   0  0  0  0  0  0  0  0  0  0  0  0
   43.6310   35.4620   41.1450 H   0  0  0  0  0  0  0  0  0  0  0  0
   44.7140   34.0120   42.8970 H   0  0  0  0  0  0  0  0  0  0  0  0
  1  2  1  0  0  0  0
  2  7  2  0  0  0  0
  2  3  1  0  0  0  0
  3 25  1  0  0  0  0
  3  4  2  0  0  0  0
  4  5  1  0  0  0  0
  4  8  1  0  0  0  0
  5  9  1  0  0  0  0
  6 10  1  0  0  0  0
  6  5  2  0  0  0  0
  7  6  1  0  0  0  0
 11  7  1  0  0  0  0
 12 11  1  0  0  0  0
 12 13  1  0  0  0  0
 14 12  2  0  0  0  0
 15 16  2  0  0  0  0
 15 14  1  0  0  0  0
 16 21  1  0  0  0  0
 17 18  2  0  0  0  0
 17 16  1  0  0  0  0
 18 19  1  0  0  0  0
 19 20  2  0  0  0  0
 21 20  1  0  0  0  0
 21 11  2  0  0  0  0
 22 23  1  0  0  0  0
 23 24  2  0  0  0  0
 23 27  1  0  0  0  0
 24 28  1  0  0  0  0
 25 24  1  0  0  0  0
 26 22  2  0  0  0  0
 26 25  1  0  0  0  0
 29 34  2  0  0  0  0
 29 30  1  0  0  0  0
 30 31  2  0  0  0  0
 31 32  1  0  0  0  0
 31 37  1  0  0  0  0
 33 22  1  0  0  0  0
 33 32  2  0  0  0  0
 34 33  1  0  0  0  0
 35 29  1  0  0  0  0
 36 30  1  0  0  0  0
M  END
>  <minimizedAffinity>
-6.43615723

$$$$

 OpenBabel03252501273D

 37 41  0  0  0  0  0  0  0  0999 V2000
   39.1570   28.0000   40.3070 F   0  0  0  0  0  0  0  0  0  0  0  0
   38.4410   27.9620   41.4500 C   0  0  0  0  0  0  0  0  0  0  0  0
   38.9520   28.5570   42.5920 C   0  0  0  0  0  0  0  0  0  0  0  0
   38.2330   28.5280   43.7750 C   0  0  0  0  0  0  0  0  0  0  0  0
   37.0080   27.9200   43.8670 C   0  0  0  0  0  0  0  0  0  0  0  0
   36.5160   27.3380   42.7370 C   0  0  0  0  0  0  0  0  0  0  0  0
   37.1970   27.3430   41.5410 C   0  0  0  0  0  0  0  0  0  0  0  0
   38.6180   28.9920   44.6860 H   0  0  0  0  0  0  0  0  0  0  0  0
   36.4450   27.8930   44.7790 H   0  0  0  0  0  0  0  0  0  0  0  0
   35.5540   26.8370   42.7300 H   0  0  0  0  0  0  0  0  0  0  0  0
   36.7340   26.7390   40.2850 C   0  0  0  0  0  0  0  0  0  0  0  0
   36.1380   27.4870   39.2900 C   0  0  0  0  0  0  0  0  0  0  0  0
   35.9940   28.5530   39.4110 H   0  0  0  0  0  0  0  0  0  0  0  0
   35.7570   26.7810   38.1680 C   0  0  0  0  0  3  0  0  0  0  0  0
   35.9410   25.4220   38.0140 C   0  0  0  0  0  3  0  0  0  0  0  0
   36.5460   24.7000   39.0390 C   0  0  0  0  0  0  0  0  0  0  0  0
   36.7280   23.3430   38.8820 C   0  0  0  0  0  3  0  0  0  0  0  0
   37.3290   22.6010   39.8890 C   0  0  0  0  0  3  0  0  0  0  0  0
   37.7230   23.2870   41.0300 C   0  0  0  0  0  3  0  0  0  0  0  0
   37.5350   24.6460   41.1770 C   0  0  0  0  0  3  0  0  0  0  0  0
   36.9370   25.3780   40.1700 C   0  0  0  0  0  0  0  0  0  0  0  0
   41.5920   30.8750   42.3490 C   0  0  0  0  0  0  0  0  0  0  0  0
   42.2490   29.7910   42.9190 C   0  0  0  0  0  0  0  0  0  0  0  0
   41.3630   28.7730   43.0900 C   0  0  0  0  0  0  0  0  0  0  0  0
   40.1880   29.2130   42.6410 N   0  0  0  0  0  0  0  0  0  0  0  0
   40.3340   30.4720   42.1990 N   0  0  0  0  0  0  0  0  0  0  0  0
   43.2940   29.7100   43.2000 H   0  0  0  0  0  0  0  0  0  0  0  0
   41.5280   27.7850   43.5050 H   0  0  0  0  0  0  0  0  0  0  0  0
   42.2430   34.1120   40.7670 C   0  0  0  0  0  0  0  0  0  0  0  0
   43.4110   34.5350   41.4140 C   0  0  0  0  0  0  0  0  0  0  0  0
   43.9630   33.7040   42.3900 C   0  0  0  0  0  0  0  0  0  0  0  0
   43.3200   32.5460   42.6320 N   0  0  0  0  0  0  0  0  0  0  0  0
   42.2060   32.1380   42.0170 C   0  0  0  0  0  0  0  0  0  0  0  0
   41.6400   32.9220   41.0610 N   0  0  0  0  0  0  0  0  0  0  0  0
   41.7050   34.6550   39.9900 H   0  0  0  0  0  0  0  0  0  0  0  0
   43.8030   35.4820   41.1110 H   0  0  0  0  0  0  0  0  0  0  0  0
   44.8480   34.0250   42.8810 H   0  0  0  0  0  0  0  0  0  0  0  0
  1  2  1  0  0  0  0
  2  7  2  0  0  0  0
  2  3  1  0  0  0  0
  3 25  1  0  0  0  0
  3  4  2  0  0  0  0
  4  5  1  0  0  0  0
  4  8  1  0  0  0  0
  5  9  1  0  0  0  0
  6  5  2  0  0  0  0
  7  6  1  0  0  0  0
 10  6  1  0  0  0  0
 11  7  1  0  0  0  0
 12 13  1  0  0  0  0
 12 11  2  0  0  0  0
 14 12  1  0  0  0  0
 15 14  2  0  0  0  0
 15 16  1  0  0  0  0
 16 21  1  0  0  0  0
 17 16  2  0  0  0  0
 17 18  1  0  0  0  0
 18 19  2  0  0  0  0
 19 20  1  0  0  0  0
 21 11  1  0  0  0  0
 21 20  2  0  0  0  0
 22 23  1  0  0  0  0
 23 24  2  0  0  0  0
 23 27  1  0  0  0  0
 24 28  1  0  0  0  0
 25 24  1  0  0  0  0
 26 22  2  0  0  0  0
 26 25  1  0  0  0  0
 29 34  2  0  0  0  0
 29 30  1  0  0  0  0
 30 31  2  0  0  0  0
 31 32  1  0  0  0  0
 31 37  1  0  0  0  0
 33 22  1  0  0  0  0
 33 32  2  0  0  0  0
 34 33  1  0  0  0  0
 35 29  1  0  0  0  0
 36 30  1  0  0  0  0
M  END
>  <minimizedAffinity>
-6.4343648

$$$$
