
 OpenBabel03242523073D

 47 52  0  0  1  0  0  0  0  0999 V2000
   46.5220   32.1210   45.6090 C   0  0  0  0  0  0  0  0  0  0  0  0
   46.7180   32.7860   44.3790 C   0  0  0  0  0  0  0  0  0  0  0  0
   47.6190   32.0810   43.6010 C   0  0  0  0  0  0  0  0  0  0  0  0
   48.2500   30.9250   43.9230 C   0  0  0  0  0  0  0  0  0  0  0  0
   48.0020   30.3510   45.1540 C   0  0  0  0  0  0  0  0  0  0  0  0
   47.1300   30.9440   46.0090 C   0  0  0  0  0  0  0  0  0  0  0  0
   48.7880   29.2210   45.1850 O   0  0  0  0  0  0  0  0  0  0  0  0
   49.4210   29.0200   43.9190 C   0  0  2  0  0  0  0  0  0  0  0  0
   49.1430   30.1900   43.1810 O   0  0  0  0  0  0  0  0  0  0  0  0
   45.8620   32.3920   46.4620 H   0  0  0  0  0  0  0  0  0  0  0  0
   47.7770   32.5680   42.6920 H   0  0  0  0  0  0  0  0  0  0  0  0
   47.0030   30.4260   46.9220 H   0  0  0  0  0  0  0  0  0  0  0  0
   50.5310   29.0080   44.0330 H   0  0  0  0  0  0  0  0  0  0  0  0
   48.8890   27.7650   43.3920 C   0  0  0  0  0  0  0  0  0  0  0  0
   49.5640   26.6190   43.8560 C   0  0  0  0  0  0  0  0  0  0  0  0
   50.4200   26.6780   44.5360 H   0  0  0  0  0  0  0  0  0  0  0  0
   49.2370   25.3360   43.5200 C   0  0  0  0  0  0  0  0  0  0  0  0
   48.1830   25.0860   42.6710 C   0  0  0  0  0  0  0  0  0  0  0  0
   47.4870   26.1710   42.1870 C   0  0  0  0  0  0  0  0  0  0  0  0
   46.4240   26.0420   41.3260 C   0  0  0  0  0  0  0  0  0  0  0  0
   45.6970   27.1100   40.8040 C   0  0  0  0  0  0  0  0  0  0  0  0
   46.1180   28.3820   41.2110 C   0  0  0  0  0  0  0  0  0  0  0  0
   47.1820   28.5140   42.0730 C   0  0  0  0  0  0  0  0  0  0  0  0
   47.8650   27.4340   42.5620 C   0  0  0  0  0  0  0  0  0  0  0  0
   45.1150   36.0400   43.5050 C   0  0  0  0  0  0  0  0  0  0  0  0
   45.9070   34.9210   43.2740 C   0  0  0  0  0  0  0  0  0  0  0  0
   46.0170   34.0020   44.2800 C   0  0  0  0  0  0  0  0  0  0  0  0
   45.3540   34.2150   45.4580 N   0  0  0  0  0  0  0  0  0  0  0  0
   44.5940   35.3080   45.6530 C   0  0  0  0  0  0  0  0  0  0  0  0
   44.4800   36.2070   44.6820 N   0  0  0  0  0  0  0  0  0  0  0  0
   45.0110   36.7750   42.7290 H   0  0  0  0  0  0  0  0  0  0  0  0
   44.0390   35.5530   46.5490 H   0  0  0  0  0  0  0  0  0  0  0  0
   46.5550   34.8100   42.0430 N   0  0  0  0  0  0  0  0  0  0  0  0
   47.8760   35.2600   41.8270 C   0  0  0  0  0  0  0  0  0  0  0  0
   48.4580   34.9140   40.4820 C   0  0  0  0  0  0  0  0  0  0  0  0
   48.1340   33.6350   39.9910 N   0  0  0  0  0  0  0  0  0  0  0  0
   46.8280   33.1900   40.2070 C   0  0  0  0  0  0  0  0  0  0  0  0
   45.9660   34.2450   40.8720 C   0  0  0  0  0  0  0  0  0  0  0  0
   47.8560   36.3730   41.8930 H   0  0  0  0  0  0  0  0  0  0  0  0
   48.6220   34.9400   42.5870 H   0  0  0  0  0  0  0  0  0  0  0  0
   49.5680   35.0560   40.5320 H   0  0  0  0  0  0  0  0  0  0  0  0
   48.1020   35.6750   39.7390 H   0  0  0  0  0  0  0  0  0  0  0  0
   48.8160   32.9400   40.3880 H   0  0  0  0  0  0  0  0  0  0  0  0
   46.6960   32.2230   40.7280 H   0  0  0  0  0  0  0  0  0  0  0  0
   46.3490   33.0170   39.1980 H   0  0  0  0  0  0  0  0  0  0  0  0
   45.8760   35.0630   40.1170 H   0  0  0  0  0  0  0  0  0  0  0  0
   44.9420   33.8550   41.0410 H   0  0  0  0  0  0  0  0  0  0  0  0
  1  6  1  0  0  0  0
  1 10  1  0  0  0  0
  2  1  2  0  0  0  0
  3  4  2  0  0  0  0
  3  2  1  0  0  0  0
  4  5  1  0  0  0  0
  5  7  1  0  0  0  0
  5  6  2  0  0  0  0
  6 12  1  0  0  0  0
  8 13  1  1  0  0  0
  8  7  1  0  0  0  0
  9  8  1  0  0  0  0
  9  4  1  0  0  0  0
 11  3  1  0  0  0  0
 14 15  1  0  0  0  0
 14  8  1  0  0  0  0
 15 16  1  0  0  0  0
 17 15  2  0  0  0  0
 18 17  1  0  0  0  0
 19 24  1  0  0  0  0
 19 18  2  0  0  0  0
 20 19  1  0  0  0  0
 21 22  1  0  0  0  0
 21 20  2  0  0  0  0
 22 23  2  0  0  0  0
 23 24  1  0  0  0  0
 24 14  2  0  0  0  0
 25 30  1  0  0  0  0
 26 25  2  0  0  0  0
 26 27  1  0  0  0  0
 27  2  1  0  0  0  0
 27 28  2  0  0  0  0
 28 29  1  0  0  0  0
 29 32  1  0  0  0  0
 30 29  2  0  0  0  0
 31 25  1  0  0  0  0
 33 26  1  0  0  0  0
 34 39  1  0  0  0  0
 34 33  1  0  0  0  0
 34 40  1  0  0  0  0
 35 41  1  0  0  0  0
 35 34  1  0  0  0  0
 36 37  1  0  0  0  0
 36 43  1  0  0  0  0
 36 35  1  0  0  0  0
 37 44  1  0  0  0  0
 37 38  1  0  0  0  0
 38 47  1  0  0  0  0
 38 33  1  0  0  0  0
 42 35  1  0  0  0  0
 45 37  1  0  0  0  0
 46 38  1  0  0  0  0
M  END
>  <minimizedAffinity>
-4.91619873

>  <minimizedRMSD>
0.741462886

$$$$
