
 OpenBabel03242511053D

 27 30  0  0  1  0  0  0  0  0999 V2000
   38.4830   29.3060   42.7310 C   0  0  1  0  0  0  0  0  0  0  0  0
   37.4430   28.8370   43.6800 C   0  0  0  0  0  0  0  0  0  0  0  0
   37.8330   28.0030   42.4550 C   0  0  2  0  0  0  0  0  0  0  0  0
   39.4820   29.3760   43.2060 H   0  0  0  0  0  0  0  0  0  0  0  0
   36.4960   29.4170   43.6540 H   0  0  0  0  0  0  0  0  0  0  0  0
   37.6980   28.4520   44.6640 H   0  0  0  0  0  0  0  0  0  0  0  0
   37.0520   28.0210   41.6700 H   0  0  0  0  0  0  0  0  0  0  0  0
   38.5310   26.7290   42.6240 C   0  0  0  0  0  0  0  0  0  0  0  0
   39.5830   26.4910   43.4620 C   0  0  0  0  0  0  0  0  0  0  0  0
   39.9460   27.3230   44.0690 H   0  0  0  0  0  0  0  0  0  0  0  0
   40.2400   25.2890   43.6190 C   0  0  0  0  0  3  0  0  0  0  0  0
   39.7750   24.2230   42.8420 C   0  0  0  0  0  3  0  0  0  0  0  0
   38.7100   24.4310   41.9820 C   0  0  0  0  0  0  0  0  0  0  0  0
   38.2810   23.3390   41.2290 C   0  0  0  0  0  3  0  0  0  0  0  0
   37.2120   23.4890   40.3440 C   0  0  0  0  0  3  0  0  0  0  0  0
   36.5760   24.7040   40.2100 C   0  0  0  0  0  3  0  0  0  0  0  0
   37.0320   25.7600   40.9750 C   0  0  0  0  0  3  0  0  0  0  0  0
   38.0880   25.6570   41.8640 C   0  0  0  0  0  0  0  0  0  0  0  0
   36.7840   31.6050   40.3650 C   0  0  0  0  0  0  0  0  0  0  0  0
   37.7840   32.5990   40.1440 C   0  0  0  0  0  0  0  0  0  0  0  0
   39.0180   32.4440   40.8280 C   0  0  0  0  0  0  0  0  0  0  0  0
   39.1980   31.3900   41.6450 N   0  0  0  0  0  0  0  0  0  0  0  0
   38.2090   30.4600   41.8270 C   0  0  0  0  0  0  0  0  0  0  0  0
   37.0250   30.5740   41.1950 N   0  0  0  0  0  0  0  0  0  0  0  0
   35.8600   31.7400   39.8390 H   0  0  0  0  0  0  0  0  0  0  0  0
   37.6510   33.4440   39.4950 H   0  0  0  0  0  0  0  0  0  0  0  0
   39.8150   33.1620   40.7050 H   0  0  0  0  0  0  0  0  0  0  0  0
  1  4  1  1  0  0  0
  1  2  1  0  0  0  0
  2  6  1  0  0  0  0
  3  7  1  6  0  0  0
  3  8  1  0  0  0  0
  3  1  1  0  0  0  0
  3  2  1  0  0  0  0
  5  2  1  0  0  0  0
  8  9  1  0  0  0  0
  9 11  2  0  0  0  0
  9 10  1  0  0  0  0
 12 11  1  0  0  0  0
 13 12  2  0  0  0  0
 14 13  1  0  0  0  0
 15 14  2  0  0  0  0
 16 15  1  0  0  0  0
 16 17  2  0  0  0  0
 17 18  1  0  0  0  0
 18 13  1  0  0  0  0
 18  8  2  0  0  0  0
 19 24  1  0  0  0  0
 20 19  2  0  0  0  0
 20 21  1  0  0  0  0
 21 22  2  0  0  0  0
 22 23  1  0  0  0  0
 23  1  1  0  0  0  0
 24 23  2  0  0  0  0
 25 19  1  0  0  0  0
 26 20  1  0  0  0  0
 27 21  1  0  0  0  0
M  END
>  <minimizedAffinity>
-5.88093424

$$$$

 OpenBabel03242511053D

 27 30  0  0  1  0  0  0  0  0999 V2000
   38.2340   29.4450   41.6230 C   0  0  1  0  0  0  0  0  0  0  0  0
   37.7070   29.1990   42.9880 C   0  0  0  0  0  0  0  0  0  0  0  0
   36.9890   28.6530   41.7490 C   0  0  2  0  0  0  0  0  0  0  0  0
   39.2220   28.9670   41.4630 H   0  0  0  0  0  0  0  0  0  0  0  0
   37.2940   30.0960   43.4950 H   0  0  0  0  0  0  0  0  0  0  0  0
   38.1770   28.4870   43.6620 H   0  0  0  0  0  0  0  0  0  0  0  0
   36.0530   29.2040   41.5310 H   0  0  0  0  0  0  0  0  0  0  0  0
   36.9480   27.2130   41.4960 C   0  0  0  0  0  0  0  0  0  0  0  0
   37.2300   26.2280   42.3980 C   0  0  0  0  0  0  0  0  0  0  0  0
   37.5130   26.5310   43.4080 H   0  0  0  0  0  0  0  0  0  0  0  0
   37.1910   24.8700   42.1570 C   0  0  0  0  0  3  0  0  0  0  0  0
   36.8270   24.4820   40.8640 C   0  0  0  0  0  3  0  0  0  0  0  0
   36.5350   25.4570   39.9250 C   0  0  0  0  0  0  0  0  0  0  0  0
   36.1770   25.0210   38.6500 C   0  0  0  0  0  3  0  0  0  0  0  0
   35.8710   25.9580   37.6610 C   0  0  0  0  0  3  0  0  0  0  0  0
   35.9190   27.3080   37.9340 C   0  0  0  0  0  3  0  0  0  0  0  0
   36.2790   27.6970   39.2100 C   0  0  0  0  0  3  0  0  0  0  0  0
   36.5890   26.8030   40.2210 C   0  0  0  0  0  0  0  0  0  0  0  0
   38.9740   33.0050   40.8760 C   0  0  0  0  0  0  0  0  0  0  0  0
   37.9660   33.3250   39.9170 C   0  0  0  0  0  0  0  0  0  0  0  0
   37.0630   32.2920   39.5540 C   0  0  0  0  0  0  0  0  0  0  0  0
   37.1850   31.0730   40.1120 N   0  0  0  0  0  0  0  0  0  0  0  0
   38.1690   30.8120   41.0290 C   0  0  0  0  0  0  0  0  0  0  0  0
   39.0450   31.7670   41.3980 N   0  0  0  0  0  0  0  0  0  0  0  0
   39.6460   33.7980   41.1380 H   0  0  0  0  0  0  0  0  0  0  0  0
   37.8600   34.2920   39.4660 H   0  0  0  0  0  0  0  0  0  0  0  0
   36.2780   32.4690   38.8330 H   0  0  0  0  0  0  0  0  0  0  0  0
  1  4  1  6  0  0  0
  1  3  1  0  0  0  0
  1  2  1  0  0  0  0
  2  5  1  0  0  0  0
  2  6  1  0  0  0  0
  3  7  1  6  0  0  0
  3  2  1  0  0  0  0
  8  3  1  0  0  0  0
  8  9  1  0  0  0  0
  9 10  1  0  0  0  0
 11  9  2  0  0  0  0
 12 11  1  0  0  0  0
 13 18  1  0  0  0  0
 13 12  2  0  0  0  0
 14 13  1  0  0  0  0
 15 16  1  0  0  0  0
 15 14  2  0  0  0  0
 16 17  2  0  0  0  0
 17 18  1  0  0  0  0
 18  8  2  0  0  0  0
 19 25  1  0  0  0  0
 19 24  1  0  0  0  0
 20 19  2  0  0  0  0
 21 20  1  0  0  0  0
 21 22  2  0  0  0  0
 22 23  1  0  0  0  0
 23 24  2  0  0  0  0
 23  1  1  0  0  0  0
 26 20  1  0  0  0  0
 27 21  1  0  0  0  0
M  END
>  <minimizedAffinity>
-5.54752588

$$$$

 OpenBabel03242511053D

 27 30  0  0  1  0  0  0  0  0999 V2000
   35.9520   29.5160   39.3260 C   0  0  1  0  0  0  0  0  0  0  0  0
   34.7840   29.3050   40.2170 C   0  0  0  0  0  0  0  0  0  0  0  0
   35.9030   28.2630   40.1160 C   0  0  2  0  0  0  0  0  0  0  0  0
   36.5650   30.3850   39.6380 H   0  0  0  0  0  0  0  0  0  0  0  0
   33.8260   29.1150   39.6900 H   0  0  0  0  0  0  0  0  0  0  0  0
   34.6730   29.8480   41.1530 H   0  0  0  0  0  0  0  0  0  0  0  0
   35.5870   27.3610   39.5560 H   0  0  0  0  0  0  0  0  0  0  0  0
   36.7890   28.0210   41.2540 C   0  0  0  0  0  0  0  0  0  0  0  0
   37.1940   28.9480   42.1720 C   0  0  0  0  0  0  0  0  0  0  0  0
   36.8270   29.9700   42.0560 H   0  0  0  0  0  0  0  0  0  0  0  0
   38.0300   28.7180   43.2450 C   0  0  0  0  0  3  0  0  0  0  0  0
   38.4990   27.4090   43.3940 C   0  0  0  0  0  3  0  0  0  0  0  0
   38.1080   26.4450   42.4800 C   0  0  0  0  0  0  0  0  0  0  0  0
   38.6010   25.1550   42.6700 C   0  0  0  0  0  3  0  0  0  0  0  0
   38.2410   24.1410   41.7800 C   0  0  0  0  0  3  0  0  0  0  0  0
   37.4030   24.4040   40.7180 C   0  0  0  0  0  3  0  0  0  0  0  0
   36.9370   25.6950   40.5660 C   0  0  0  0  0  3  0  0  0  0  0  0
   37.2670   26.7310   41.4230 C   0  0  0  0  0  0  0  0  0  0  0  0
   36.6210   29.8030   35.6870 C   0  0  0  0  0  0  0  0  0  0  0  0
   35.4010   29.3250   35.1200 C   0  0  0  0  0  0  0  0  0  0  0  0
   34.3840   28.9110   36.0200 C   0  0  0  0  0  0  0  0  0  0  0  0
   34.5990   28.9810   37.3460 N   0  0  0  0  0  0  0  0  0  0  0  0
   35.7870   29.4470   37.8450 C   0  0  0  0  0  0  0  0  0  0  0  0
   36.7760   29.8480   37.0220 N   0  0  0  0  0  0  0  0  0  0  0  0
   37.3760   30.1100   34.9910 H   0  0  0  0  0  0  0  0  0  0  0  0
   35.2180   29.2640   34.0640 H   0  0  0  0  0  0  0  0  0  0  0  0
   33.4380   28.5390   35.6550 H   0  0  0  0  0  0  0  0  0  0  0  0
  1  4  1  1  0  0  0
  1  3  1  0  0  0  0
  1  2  1  0  0  0  0
  2  6  1  0  0  0  0
  3  7  1  6  0  0  0
  3  2  1  0  0  0  0
  3  8  1  0  0  0  0
  5  2  1  0  0  0  0
  8 18  2  0  0  0  0
  8  9  1  0  0  0  0
  9 11  2  0  0  0  0
 10  9  1  0  0  0  0
 11 12  1  0  0  0  0
 13 14  1  0  0  0  0
 13 12  2  0  0  0  0
 15 14  2  0  0  0  0
 16 15  1  0  0  0  0
 17 16  2  0  0  0  0
 17 18  1  0  0  0  0
 18 13  1  0  0  0  0
 19 24  1  0  0  0  0
 20 19  2  0  0  0  0
 20 21  1  0  0  0  0
 21 22  2  0  0  0  0
 22 23  1  0  0  0  0
 23  1  1  0  0  0  0
 24 23  2  0  0  0  0
 25 19  1  0  0  0  0
 26 20  1  0  0  0  0
 27 21  1  0  0  0  0
M  END
>  <minimizedAffinity>
-5.48544455

$$$$

 OpenBabel03242511053D

 27 30  0  0  1  0  0  0  0  0999 V2000
   39.9500   30.4260   41.3820 C   0  0  1  0  0  0  0  0  0  0  0  0
   40.5970   30.8180   42.6580 C   0  0  0  0  0  0  0  0  0  0  0  0
   39.5330   29.7170   42.6150 C   0  0  2  0  0  0  0  0  0  0  0  0
   40.6710   29.9850   40.6650 H   0  0  0  0  0  0  0  0  0  0  0  0
   40.3130   31.8230   43.0340 H   0  0  0  0  0  0  0  0  0  0  0  0
   41.6210   30.5330   42.8920 H   0  0  0  0  0  0  0  0  0  0  0  0
   38.5690   30.0480   43.0490 H   0  0  0  0  0  0  0  0  0  0  0  0
   39.9010   28.3260   42.8790 C   0  0  0  0  0  0  0  0  0  0  0  0
   41.0740   27.8930   43.4290 C   0  0  0  0  0  0  0  0  0  0  0  0
   41.8150   28.6480   43.7020 H   0  0  0  0  0  0  0  0  0  0  0  0
   41.4190   26.5810   43.6780 C   0  0  0  0  0  3  0  0  0  0  0  0
   40.4700   25.6160   43.3300 C   0  0  0  0  0  3  0  0  0  0  0  0
   39.2700   26.0210   42.7700 C   0  0  0  0  0  0  0  0  0  0  0  0
   38.3550   25.0220   42.4400 C   0  0  0  0  0  3  0  0  0  0  0  0
   37.1280   25.3710   41.8720 C   0  0  0  0  0  3  0  0  0  0  0  0
   36.8140   26.6910   41.6360 C   0  0  0  0  0  3  0  0  0  0  0  0
   37.7480   27.6500   41.9780 C   0  0  0  0  0  3  0  0  0  0  0  0
   38.9760   27.3500   42.5430 C   0  0  0  0  0  0  0  0  0  0  0  0
   37.1300   31.7000   39.3330 C   0  0  0  0  0  0  0  0  0  0  0  0
   37.2660   33.1130   39.4830 C   0  0  0  0  0  0  0  0  0  0  0  0
   38.3310   33.5810   40.2970 C   0  0  0  0  0  0  0  0  0  0  0  0
   39.1560   32.6970   40.8870 N   0  0  0  0  0  0  0  0  0  0  0  0
   38.9870   31.3490   40.7150 C   0  0  0  0  0  0  0  0  0  0  0  0
   37.9880   30.8670   39.9500 N   0  0  0  0  0  0  0  0  0  0  0  0
   36.3210   31.3670   38.7150 H   0  0  0  0  0  0  0  0  0  0  0  0
   36.6140   33.8270   39.0180 H   0  0  0  0  0  0  0  0  0  0  0  0
   38.4870   34.6390   40.4520 H   0  0  0  0  0  0  0  0  0  0  0  0
  1  4  1  6  0  0  0
  1  3  1  0  0  0  0
  1  2  1  0  0  0  0
  2  6  1  0  0  0  0
  2  5  1  0  0  0  0
  3  2  1  0  0  0  0
  3  8  1  0  0  0  0
  3  7  1  1  0  0  0
  8  9  1  0  0  0  0
  9 11  2  0  0  0  0
  9 10  1  0  0  0  0
 12 11  1  0  0  0  0
 13 12  2  0  0  0  0
 14 13  1  0  0  0  0
 15 14  2  0  0  0  0
 16 15  1  0  0  0  0
 16 17  2  0  0  0  0
 17 18  1  0  0  0  0
 18 13  1  0  0  0  0
 18  8  2  0  0  0  0
 19 20  2  0  0  0  0
 19 24  1  0  0  0  0
 20 21  1  0  0  0  0
 21 27  1  0  0  0  0
 21 22  2  0  0  0  0
 23 22  1  0  0  0  0
 23  1  1  0  0  0  0
 24 23  2  0  0  0  0
 25 19  1  0  0  0  0
 26 20  1  0  0  0  0
M  END
>  <minimizedAffinity>
-5.43820047

$$$$

 OpenBabel03242511053D

 27 30  0  0  1  0  0  0  0  0999 V2000
   37.2570   30.3940   38.1640 C   0  0  1  0  0  0  0  0  0  0  0  0
   37.2960   31.8660   38.3500 C   0  0  0  0  0  0  0  0  0  0  0  0
   36.9450   30.9280   39.5100 C   0  0  2  0  0  0  0  0  0  0  0  0
   38.2530   29.9770   37.9130 H   0  0  0  0  0  0  0  0  0  0  0  0
   36.4780   32.4190   37.8430 H   0  0  0  0  0  0  0  0  0  0  0  0
   38.2350   32.4110   38.3990 H   0  0  0  0  0  0  0  0  0  0  0  0
   35.8680   30.9650   39.7670 H   0  0  0  0  0  0  0  0  0  0  0  0
   37.8600   30.7820   40.6420 C   0  0  0  0  0  0  0  0  0  0  0  0
   38.9340   31.5790   40.9180 C   0  0  0  0  0  0  0  0  0  0  0  0
   39.1380   32.4090   40.2370 H   0  0  0  0  0  0  0  0  0  0  0  0
   39.7960   31.4390   41.9860 C   0  0  0  0  0  3  0  0  0  0  0  0
   39.5340   30.3790   42.8580 C   0  0  0  0  0  3  0  0  0  0  0  0
   38.4530   29.5510   42.6060 C   0  0  0  0  0  0  0  0  0  0  0  0
   38.2310   28.5070   43.5030 C   0  0  0  0  0  3  0  0  0  0  0  0
   37.1560   27.6400   43.3010 C   0  0  0  0  0  3  0  0  0  0  0  0
   36.3130   27.8070   42.2240 C   0  0  0  0  0  3  0  0  0  0  0  0
   36.5670   28.8540   41.3590 C   0  0  0  0  0  3  0  0  0  0  0  0
   37.6210   29.7370   41.5210 C   0  0  0  0  0  0  0  0  0  0  0  0
   35.2830   29.1100   35.2950 C   0  0  0  0  0  0  0  0  0  0  0  0
   34.1010   28.6330   35.9360 C   0  0  0  0  0  0  0  0  0  0  0  0
   34.0270   28.7660   37.3470 C   0  0  0  0  0  0  0  0  0  0  0  0
   35.0510   29.3230   38.0190 N   0  0  0  0  0  0  0  0  0  0  0  0
   36.1680   29.7680   37.3610 C   0  0  0  0  0  0  0  0  0  0  0  0
   36.2740   29.6580   36.0220 N   0  0  0  0  0  0  0  0  0  0  0  0
   35.3200   29.0010   34.2300 H   0  0  0  0  0  0  0  0  0  0  0  0
   33.2780   28.1860   35.4110 H   0  0  0  0  0  0  0  0  0  0  0  0
   33.1590   28.4230   37.8920 H   0  0  0  0  0  0  0  0  0  0  0  0
  1  4  1  6  0  0  0
  1  2  1  0  0  0  0
  1  3  1  0  0  0  0
  2  6  1  0  0  0  0
  2  3  1  0  0  0  0
  3  7  1  1  0  0  0
  3  8  1  0  0  0  0
  5  2  1  0  0  0  0
  8  9  2  0  0  0  0
  8 18  1  0  0  0  0
  9 11  1  0  0  0  0
 10  9  1  0  0  0  0
 11 12  2  0  0  0  0
 13 12  1  0  0  0  0
 13 14  1  0  0  0  0
 15 14  2  0  0  0  0
 16 15  1  0  0  0  0
 17 18  1  0  0  0  0
 17 16  2  0  0  0  0
 18 13  2  0  0  0  0
 19 20  2  0  0  0  0
 19 24  1  0  0  0  0
 20 21  1  0  0  0  0
 21 27  1  0  0  0  0
 21 22  2  0  0  0  0
 23 22  1  0  0  0  0
 23  1  1  0  0  0  0
 24 23  2  0  0  0  0
 25 19  1  0  0  0  0
 26 20  1  0  0  0  0
M  END
>  <minimizedAffinity>
-5.35954475

$$$$

 OpenBabel03242511053D

 27 30  0  0  1  0  0  0  0  0999 V2000
   40.7550   30.8860   41.3980 C   0  0  1  0  0  0  0  0  0  0  0  0
   40.8450   30.9710   42.8760 C   0  0  0  0  0  0  0  0  0  0  0  0
   39.4900   30.9920   42.1620 C   0  0  2  0  0  0  0  0  0  0  0  0
   41.1280   29.9170   41.0110 H   0  0  0  0  0  0  0  0  0  0  0  0
   41.2630   31.9250   43.2620 H   0  0  0  0  0  0  0  0  0  0  0  0
   41.0900   30.1040   43.4850 H   0  0  0  0  0  0  0  0  0  0  0  0
   39.0270   31.9990   42.1730 H   0  0  0  0  0  0  0  0  0  0  0  0
   38.5650   29.8690   42.3050 C   0  0  0  0  0  0  0  0  0  0  0  0
   38.5940   28.9200   43.2860 C   0  0  0  0  0  0  0  0  0  0  0  0
   39.3780   28.9970   44.0420 H   0  0  0  0  0  0  0  0  0  0  0  0
   37.7200   27.8610   43.4180 C   0  0  0  0  0  3  0  0  0  0  0  0
   36.7160   27.7630   42.4500 C   0  0  0  0  0  3  0  0  0  0  0  0
   36.6580   28.7090   41.4410 C   0  0  0  0  0  0  0  0  0  0  0  0
   35.6390   28.5700   40.4990 C   0  0  0  0  0  3  0  0  0  0  0  0
   35.5310   29.4940   39.4590 C   0  0  0  0  0  3  0  0  0  0  0  0
   36.4200   30.5420   39.3550 C   0  0  0  0  0  3  0  0  0  0  0  0
   37.4150   30.6430   40.3090 C   0  0  0  0  0  3  0  0  0  0  0  0
   37.5600   29.7500   41.3570 C   0  0  0  0  0  0  0  0  0  0  0  0
   42.5430   33.9160   40.2170 C   0  0  0  0  0  0  0  0  0  0  0  0
   41.9220   34.1560   38.9540 C   0  0  0  0  0  0  0  0  0  0  0  0
   40.9050   33.2540   38.5470 C   0  0  0  0  0  0  0  0  0  0  0  0
   40.5680   32.2250   39.3480 N   0  0  0  0  0  0  0  0  0  0  0  0
   41.1910   32.0340   40.5520 C   0  0  0  0  0  0  0  0  0  0  0  0
   42.1620   32.8690   40.9720 N   0  0  0  0  0  0  0  0  0  0  0  0
   43.3080   34.6080   40.5060 H   0  0  0  0  0  0  0  0  0  0  0  0
   42.1830   34.9730   38.3080 H   0  0  0  0  0  0  0  0  0  0  0  0
   40.3970   33.3790   37.6020 H   0  0  0  0  0  0  0  0  0  0  0  0
  1  4  1  6  0  0  0
  1  3  1  0  0  0  0
  1  2  1  0  0  0  0
  2  5  1  0  0  0  0
  2  6  1  0  0  0  0
  3  7  1  6  0  0  0
  3  8  1  0  0  0  0
  3  2  1  0  0  0  0
  8  9  1  0  0  0  0
  9 11  2  0  0  0  0
  9 10  1  0  0  0  0
 12 11  1  0  0  0  0
 13 12  2  0  0  0  0
 14 13  1  0  0  0  0
 15 14  2  0  0  0  0
 16 15  1  0  0  0  0
 16 17  2  0  0  0  0
 17 18  1  0  0  0  0
 18 13  1  0  0  0  0
 18  8  2  0  0  0  0
 19 25  1  0  0  0  0
 19 24  1  0  0  0  0
 20 19  2  0  0  0  0
 21 20  1  0  0  0  0
 21 22  2  0  0  0  0
 22 23  1  0  0  0  0
 23 24  2  0  0  0  0
 23  1  1  0  0  0  0
 26 20  1  0  0  0  0
 27 21  1  0  0  0  0
M  END
>  <minimizedAffinity>
-5.26500607

$$$$

 OpenBabel03242511053D

 27 30  0  0  1  0  0  0  0  0999 V2000
   39.0640   31.9630   39.6460 C   0  0  1  0  0  0  0  0  0  0  0  0
   38.0770   32.9000   40.2370 C   0  0  0  0  0  0  0  0  0  0  0  0
   37.7100   32.0110   39.0450 C   0  0  2  0  0  0  0  0  0  0  0  0
   39.3640   31.1680   40.3570 H   0  0  0  0  0  0  0  0  0  0  0  0
   38.2920   33.9750   40.0580 H   0  0  0  0  0  0  0  0  0  0  0  0
   37.5990   32.6990   41.1930 H   0  0  0  0  0  0  0  0  0  0  0  0
   37.6310   32.5860   38.1020 H   0  0  0  0  0  0  0  0  0  0  0  0
   36.7440   30.9250   39.2060 C   0  0  0  0  0  0  0  0  0  0  0  0
   36.1280   30.5600   40.3690 C   0  0  0  0  0  0  0  0  0  0  0  0
   36.3710   31.1260   41.2710 H   0  0  0  0  0  0  0  0  0  0  0  0
   35.2170   29.5350   40.5190 C   0  0  0  0  0  3  0  0  0  0  0  0
   34.9050   28.8110   39.3640 C   0  0  0  0  0  3  0  0  0  0  0  0
   35.5130   29.1560   38.1680 C   0  0  0  0  0  0  0  0  0  0  0  0
   35.1700   28.4050   37.0440 C   0  0  0  0  0  3  0  0  0  0  0  0
   35.7510   28.7060   35.8110 C   0  0  0  0  0  3  0  0  0  0  0  0
   36.6570   29.7360   35.6950 C   0  0  0  0  0  3  0  0  0  0  0  0
   36.9700   30.4550   36.8330 C   0  0  0  0  0  3  0  0  0  0  0  0
   36.4190   30.1920   38.0750 C   0  0  0  0  0  0  0  0  0  0  0  0
   41.8120   34.1570   38.4600 C   0  0  0  0  0  0  0  0  0  0  0  0
   42.3390   33.4100   37.3640 C   0  0  0  0  0  0  0  0  0  0  0  0
   41.7270   32.1630   37.0720 C   0  0  0  0  0  0  0  0  0  0  0  0
   40.6950   31.7360   37.8240 N   0  0  0  0  0  0  0  0  0  0  0  0
   40.2230   32.4870   38.8670 C   0  0  0  0  0  0  0  0  0  0  0  0
   40.7790   33.6760   39.1740 N   0  0  0  0  0  0  0  0  0  0  0  0
   42.2880   35.0960   38.6640 H   0  0  0  0  0  0  0  0  0  0  0  0
   43.1610   33.7410   36.7580 H   0  0  0  0  0  0  0  0  0  0  0  0
   42.0790   31.5490   36.2560 H   0  0  0  0  0  0  0  0  0  0  0  0
  1  2  1  0  0  0  0
  1  4  1  1  0  0  0
  2  6  1  0  0  0  0
  3  7  1  6  0  0  0
  3  8  1  0  0  0  0
  3  1  1  0  0  0  0
  3  2  1  0  0  0  0
  5  2  1  0  0  0  0
  8  9  1  0  0  0  0
  9 11  2  0  0  0  0
  9 10  1  0  0  0  0
 12 11  1  0  0  0  0
 13 12  2  0  0  0  0
 14 13  1  0  0  0  0
 15 14  2  0  0  0  0
 16 15  1  0  0  0  0
 16 17  2  0  0  0  0
 17 18  1  0  0  0  0
 18 13  1  0  0  0  0
 18  8  2  0  0  0  0
 19 25  1  0  0  0  0
 19 24  1  0  0  0  0
 20 19  2  0  0  0  0
 21 20  1  0  0  0  0
 21 22  2  0  0  0  0
 22 23  1  0  0  0  0
 23 24  2  0  0  0  0
 23  1  1  0  0  0  0
 26 20  1  0  0  0  0
 27 21  1  0  0  0  0
M  END
>  <minimizedAffinity>
-5.25690699

$$$$

 OpenBabel03242511053D

 27 30  0  0  1  0  0  0  0  0999 V2000
   38.2790   31.0900   40.1380 C   0  0  1  0  0  0  0  0  0  0  0  0
   37.0610   30.5530   39.4830 C   0  0  0  0  0  0  0  0  0  0  0  0
   38.1140   29.6180   40.0860 C   0  0  2  0  0  0  0  0  0  0  0  0
   38.0410   31.6770   41.0480 H   0  0  0  0  0  0  0  0  0  0  0  0
   37.0290   30.6850   38.3810 H   0  0  0  0  0  0  0  0  0  0  0  0
   36.0850   30.6020   39.9620 H   0  0  0  0  0  0  0  0  0  0  0  0
   38.7110   29.1020   39.3080 H   0  0  0  0  0  0  0  0  0  0  0  0
   37.8010   28.8230   41.2730 C   0  0  0  0  0  0  0  0  0  0  0  0
   37.7760   29.2740   42.5610 C   0  0  0  0  0  0  0  0  0  0  0  0
   38.0100   30.3270   42.7340 H   0  0  0  0  0  0  0  0  0  0  0  0
   37.4810   28.5230   43.6790 C   0  0  0  0  0  3  0  0  0  0  0  0
   37.1810   27.1760   43.4570 C   0  0  0  0  0  3  0  0  0  0  0  0
   37.1970   26.6860   42.1620 C   0  0  0  0  0  0  0  0  0  0  0  0
   36.8900   25.3370   41.9910 C   0  0  0  0  0  3  0  0  0  0  0  0
   36.8910   24.7870   40.7080 C   0  0  0  0  0  3  0  0  0  0  0  0
   37.1910   25.5650   39.6110 C   0  0  0  0  0  3  0  0  0  0  0  0
   37.4890   26.8970   39.8240 C   0  0  0  0  0  3  0  0  0  0  0  0
   37.5000   27.4840   41.0780 C   0  0  0  0  0  0  0  0  0  0  0  0
   41.0260   33.3450   39.0690 C   0  0  0  0  0  0  0  0  0  0  0  0
   41.2880   32.8890   37.7420 C   0  0  0  0  0  0  0  0  0  0  0  0
   40.5060   31.8070   37.2600 C   0  0  0  0  0  0  0  0  0  0  0  0
   39.5660   31.2590   38.0530 N   0  0  0  0  0  0  0  0  0  0  0  0
   39.3500   31.7300   39.3200 C   0  0  0  0  0  0  0  0  0  0  0  0
   40.0720   32.7560   39.8130 N   0  0  0  0  0  0  0  0  0  0  0  0
   41.6260   34.1630   39.4140 H   0  0  0  0  0  0  0  0  0  0  0  0
   42.0350   33.3180   37.1010 H   0  0  0  0  0  0  0  0  0  0  0  0
   40.6560   31.4140   36.2650 H   0  0  0  0  0  0  0  0  0  0  0  0
  1  4  1  1  0  0  0
  2  6  1  0  0  0  0
  2  3  1  0  0  0  0
  2  1  1  0  0  0  0
  3  7  1  6  0  0  0
  3  1  1  0  0  0  0
  3  8  1  0  0  0  0
  5  2  1  0  0  0  0
  8  9  1  0  0  0  0
  9 10  1  0  0  0  0
  9 11  2  0  0  0  0
 12 11  1  0  0  0  0
 13 12  2  0  0  0  0
 14 13  1  0  0  0  0
 15 14  2  0  0  0  0
 16 17  2  0  0  0  0
 16 15  1  0  0  0  0
 17 18  1  0  0  0  0
 18  8  2  0  0  0  0
 18 13  1  0  0  0  0
 19 25  1  0  0  0  0
 19 24  1  0  0  0  0
 20 19  2  0  0  0  0
 21 20  1  0  0  0  0
 21 22  2  0  0  0  0
 22 23  1  0  0  0  0
 23 24  2  0  0  0  0
 23  1  1  0  0  0  0
 26 20  1  0  0  0  0
 27 21  1  0  0  0  0
M  END
>  <minimizedAffinity>
-5.22154808

$$$$

 OpenBabel03242511053D

 27 30  0  0  1  0  0  0  0  0999 V2000
   37.7040   27.6680   41.4420 C   0  0  1  0  0  0  0  0  0  0  0  0
   36.4100   28.1130   42.0170 C   0  0  0  0  0  0  0  0  0  0  0  0
   37.6810   28.9520   42.1810 C   0  0  2  0  0  0  0  0  0  0  0  0
   37.6770   27.6260   40.3350 H   0  0  0  0  0  0  0  0  0  0  0  0
   36.0520   27.5090   42.8770 H   0  0  0  0  0  0  0  0  0  0  0  0
   35.6120   28.5080   41.3920 H   0  0  0  0  0  0  0  0  0  0  0  0
   38.0800   28.9110   43.2140 H   0  0  0  0  0  0  0  0  0  0  0  0
   37.8020   30.2450   41.5070 C   0  0  0  0  0  0  0  0  0  0  0  0
   36.8000   30.9200   40.8720 C   0  0  0  0  0  0  0  0  0  0  0  0
   35.8080   30.4610   40.8590 H   0  0  0  0  0  0  0  0  0  0  0  0
   36.9160   32.1380   40.2370 C   0  0  0  0  0  3  0  0  0  0  0  0
   38.1850   32.7260   40.2540 C   0  0  0  0  0  3  0  0  0  0  0  0
   39.2240   32.0670   40.8900 C   0  0  0  0  0  0  0  0  0  0  0  0
   40.4700   32.6920   40.8810 C   0  0  0  0  0  3  0  0  0  0  0  0
   41.5550   32.0760   41.5060 C   0  0  0  0  0  3  0  0  0  0  0  0
   41.4060   30.8570   42.1320 C   0  0  0  0  0  3  0  0  0  0  0  0
   40.1540   30.2720   42.1180 C   0  0  0  0  0  3  0  0  0  0  0  0
   39.0510   30.8470   41.5110 C   0  0  0  0  0  0  0  0  0  0  0  0
   38.8670   24.2050   42.0990 C   0  0  0  0  0  0  0  0  0  0  0  0
   39.7660   24.3940   43.1920 C   0  0  0  0  0  0  0  0  0  0  0  0
   39.9450   25.7210   43.6650 C   0  0  0  0  0  0  0  0  0  0  0  0
   39.2780   26.7330   43.0790 N   0  0  0  0  0  0  0  0  0  0  0  0
   38.4260   26.5030   42.0310 C   0  0  0  0  0  0  0  0  0  0  0  0
   38.2300   25.2580   41.5550 N   0  0  0  0  0  0  0  0  0  0  0  0
   38.7450   23.1970   41.7570 H   0  0  0  0  0  0  0  0  0  0  0  0
   40.3030   23.5950   43.6660 H   0  0  0  0  0  0  0  0  0  0  0  0
   40.6120   25.9310   44.4880 H   0  0  0  0  0  0  0  0  0  0  0  0
  1  4  1  6  0  0  0
  1  2  1  0  0  0  0
  1 23  1  0  0  0  0
  1  3  1  0  0  0  0
  2  3  1  0  0  0  0
  2  5  1  0  0  0  0
  3  7  1  1  0  0  0
  6  2  1  0  0  0  0
  8 18  1  0  0  0  0
  8  3  1  0  0  0  0
  9  8  2  0  0  0  0
 10  9  1  0  0  0  0
 11 12  2  0  0  0  0
 11  9  1  0  0  0  0
 12 13  1  0  0  0  0
 13 18  1  0  0  0  0
 14 13  2  0  0  0  0
 14 15  1  0  0  0  0
 15 16  2  0  0  0  0
 17 16  1  0  0  0  0
 18 17  2  0  0  0  0
 19 20  1  0  0  0  0
 20 21  2  0  0  0  0
 20 26  1  0  0  0  0
 21 27  1  0  0  0  0
 22 21  1  0  0  0  0
 23 22  2  0  0  0  0
 24 23  1  0  0  0  0
 24 19  2  0  0  0  0
 25 19  1  0  0  0  0
M  END
>  <minimizedAffinity>
-5.20045376

$$$$
