
 OpenBabel03252506383D

 46 50  0  0  1  0  0  0  0  0999 V2000
   44.4690   35.7290   45.0190 C   0  0  0  0  0  0  0  0  0  0  0  0
   45.1050   35.7140   43.7700 C   0  0  0  0  0  0  0  0  0  0  0  0
   45.9970   34.7350   43.4930 C   0  0  0  0  0  0  0  0  0  0  0  0
   46.2230   33.8120   44.4620 N   0  0  0  0  0  0  0  0  0  0  0  0
   45.6190   33.8300   45.6400 C   0  0  0  0  0  0  0  0  0  0  0  0
   44.7360   34.7820   45.9400 N   0  0  0  0  0  0  0  0  0  0  0  0
   45.9380   32.8020   46.5950 N   0  0  0  0  0  0  0  0  0  0  0  0
   45.2080   32.5610   47.7880 C   0  0  0  0  0  0  0  0  0  0  0  0
   46.2910   32.1810   48.7830 C   0  0  0  0  0  0  0  0  0  0  0  0
   47.5570   32.0540   47.9950 C   0  0  0  0  0  0  0  0  0  0  0  0
   47.0360   31.8650   46.5710 C   0  0  1  0  0  0  0  0  0  0  0  0
   43.7430   36.4860   45.3040 H   0  0  0  0  0  0  0  0  0  0  0  0
   46.4890   34.7090   42.5520 H   0  0  0  0  0  0  0  0  0  0  0  0
   44.8820   33.5870   48.1610 H   0  0  0  0  0  0  0  0  0  0  0  0
   44.3590   31.9600   47.8710 H   0  0  0  0  0  0  0  0  0  0  0  0
   46.3440   32.8080   49.6690 H   0  0  0  0  0  0  0  0  0  0  0  0
   46.0300   31.1520   49.1510 H   0  0  0  0  0  0  0  0  0  0  0  0
   48.1800   31.1930   48.3110 H   0  0  0  0  0  0  0  0  0  0  0  0
   48.1080   33.0170   48.0290 H   0  0  0  0  0  0  0  0  0  0  0  0
   47.8380   32.1390   45.8630 H   0  0  0  0  0  0  0  0  0  0  0  0
   44.7540   36.7660   42.8550 N   0  0  0  0  0  0  0  0  0  0  0  0
   43.9380   36.3770   42.3390 H   0  0  0  0  0  0  0  0  0  0  0  0
   45.2670   37.6780   42.7970 H   0  0  0  0  0  0  0  0  0  0  0  0
   46.4800   30.1860   46.3800 S   0  0  0  0  0  0  0  0  0  0  0  0
   46.1040   30.8960   43.1410 O   0  0  0  0  0  0  0  0  0  0  0  0
   45.3280   30.2590   43.8710 C   0  0  0  0  0  0  0  0  0  0  0  0
   45.1370   29.9140   45.3010 C   0  0  1  0  0  0  0  0  0  0  0  0
   44.6530   28.4870   45.2150 C   0  0  0  0  0  0  0  0  0  0  0  0
   43.5110   28.7170   44.2170 C   0  0  0  0  0  0  0  0  0  0  0  0
   44.2040   29.5850   43.2730 N   0  0  0  0  0  0  0  0  0  0  0  0
   44.1720   30.4570   45.5000 H   0  0  0  0  0  0  0  0  0  0  0  0
   44.2160   28.1620   46.1740 H   0  0  0  0  0  0  0  0  0  0  0  0
   45.3850   27.7980   44.7910 H   0  0  0  0  0  0  0  0  0  0  0  0
   42.6460   29.1840   44.6980 H   0  0  0  0  0  0  0  0  0  0  0  0
   43.2850   27.7280   43.7640 H   0  0  0  0  0  0  0  0  0  0  0  0
   43.6870   29.6430   41.9300 C   0  0  0  0  0  0  0  0  0  0  0  0
   44.4460   28.9150   41.0200 C   0  0  0  0  0  0  0  0  0  0  0  0
   45.3360   28.3550   41.2630 H   0  0  0  0  0  0  0  0  0  0  0  0
   44.1000   28.8510   39.6690 C   0  0  0  0  0  3  0  0  0  0  0  0
   42.9650   29.5490   39.2820 C   0  0  0  0  0  3  0  0  0  0  0  0
   42.2180   30.2650   40.1820 C   0  0  0  0  0  0  0  0  0  0  0  0
   41.0800   30.9720   39.8270 C   0  0  0  0  0  3  0  0  0  0  0  0
   40.3710   31.6690   40.7600 C   0  0  0  0  0  3  0  0  0  0  0  0
   40.7420   31.7140   42.1050 C   0  0  0  0  0  3  0  0  0  0  0  0
   41.8830   31.0120   42.4930 C   0  0  0  0  0  3  0  0  0  0  0  0
   42.5650   30.3280   41.5340 C   0  0  0  0  0  0  0  0  0  0  0  0
  1 12  1  0  0  0  0
  1  6  1  0  0  0  0
  2  1  2  0  0  0  0
  3  2  1  0  0  0  0
  3  4  2  0  0  0  0
  4  5  1  0  0  0  0
  5  6  2  0  0  0  0
  5  7  1  0  0  0  0
  7  8  1  0  0  0  0
  8 15  1  0  0  0  0
  8 14  1  0  0  0  0
  8  9  1  0  0  0  0
  9 17  1  0  0  0  0
  9 16  1  0  0  0  0
 10 19  1  0  0  0  0
 10 18  1  0  0  0  0
 10  9  1  0  0  0  0
 11 20  1  6  0  0  0
 11  7  1  0  0  0  0
 11 10  1  0  0  0  0
 13  3  1  0  0  0  0
 21  2  1  0  0  0  0
 22 21  1  0  0  0  0
 23 21  1  0  0  0  0
 24 11  1  0  0  0  0
 25 26  2  0  0  0  0
 26 27  1  0  0  0  0
 27 31  1  1  0  0  0
 27 24  1  0  0  0  0
 28 27  1  0  0  0  0
 28 32  1  0  0  0  0
 29 34  1  0  0  0  0
 29 28  1  0  0  0  0
 30 26  1  0  0  0  0
 30 29  1  0  0  0  0
 33 28  1  0  0  0  0
 35 29  1  0  0  0  0
 36 30  1  0  0  0  0
 37 38  1  0  0  0  0
 37 36  2  0  0  0  0
 39 37  1  0  0  0  0
 40 39  2  0  0  0  0
 40 41  1  0  0  0  0
 41 46  1  0  0  0  0
 42 41  2  0  0  0  0
 42 43  1  0  0  0  0
 43 44  2  0  0  0  0
 44 45  1  0  0  0  0
 46 36  1  0  0  0  0
 46 45  2  0  0  0  0
M  END
>  <minimizedAffinity>
-5.68234587

>  <minimizedRMSD>
1.65572071

$$$$
