
 OpenBabel03242518093D

 26 28  0  0  0  0  0  0  0  0999 V2000
   46.8080   32.5240   44.8130 C   0  0  0  0  0  0  0  0  0  0  0  0
   46.0830   33.2550   44.4110 H   0  0  0  0  0  0  0  0  0  0  0  0
   47.4030   33.0140   45.6010 H   0  0  0  0  0  0  0  0  0  0  0  0
   46.1250   31.3560   45.4040 C   0  0  0  0  0  0  0  0  0  0  0  0
   45.7020   30.2660   44.6920 C   0  0  0  0  0  0  0  0  0  0  0  0
   45.8760   30.2330   43.6170 H   0  0  0  0  0  0  0  0  0  0  0  0
   45.0560   29.1950   45.2850 C   0  0  0  0  0  0  0  0  0  0  0  0
   44.8010   29.1580   46.6180 C   0  0  0  0  0  0  0  0  0  0  0  0
   45.2260   30.2570   47.3490 C   0  0  0  0  0  0  0  0  0  0  0  0
   44.9740   30.2300   48.7230 C   0  0  0  0  0  0  0  0  0  0  0  0
   45.3600   31.2700   49.5420 C   0  0  0  0  0  0  0  0  0  0  0  0
   46.0070   32.3530   48.9780 C   0  0  0  0  0  0  0  0  0  0  0  0
   46.2310   32.3290   47.6170 C   0  0  0  0  0  0  0  0  0  0  0  0
   45.8670   31.3170   46.7580 C   0  0  0  0  0  0  0  0  0  0  0  0
   47.7340   32.1320   43.6740 C   0  0  0  0  0  0  0  0  0  0  0  0
   47.3480   31.3790   43.0070 H   0  0  0  0  0  0  0  0  0  0  0  0
   48.6170   31.6420   44.1910 H   0  0  0  0  0  0  0  0  0  0  0  0
   48.1930   33.3560   43.0050 C   0  0  0  0  0  0  0  0  0  0  0  0
   47.3070   34.2790   42.4720 C   0  0  0  0  0  0  0  0  0  0  0  0
   47.8500   35.4260   41.8470 C   0  0  0  0  0  0  0  0  0  0  0  0
   49.1960   35.5410   41.8140 N   0  0  0  0  0  0  0  0  0  0  0  0
   50.0150   34.6210   42.3450 C   0  0  0  0  0  0  0  0  0  0  0  0
   49.5200   33.5380   42.9360 N   0  0  0  0  0  0  0  0  0  0  0  0
   46.2390   34.1400   42.5240 H   0  0  0  0  0  0  0  0  0  0  0  0
   47.2150   36.1860   41.4090 H   0  0  0  0  0  0  0  0  0  0  0  0
   51.1110   34.7320   42.3070 H   0  0  0  0  0  0  0  0  0  0  0  0
  1  4  1  0  0  0  0
  1  3  1  0  0  0  0
  2  1  1  0  0  0  0
  4 14  1  0  0  0  0
  5  7  1  0  0  0  0
  5  4  2  0  0  0  0
  6  5  1  0  0  0  0
  7  8  2  0  0  0  0
  8  9  1  0  0  0  0
  9 10  1  0  0  0  0
 10 11  2  0  0  0  0
 12 11  1  0  0  0  0
 13 12  2  0  0  0  0
 14  9  2  0  0  0  0
 14 13  1  0  0  0  0
 15 17  1  0  0  0  0
 15  1  1  0  0  0  0
 16 15  1  0  0  0  0
 18 15  1  0  0  0  0
 19 24  1  0  0  0  0
 19 18  2  0  0  0  0
 20 19  1  0  0  0  0
 21 20  2  0  0  0  0
 21 22  1  0  0  0  0
 22 23  2  0  0  0  0
 23 18  1  0  0  0  0
 25 20  1  0  0  0  0
 26 22  1  0  0  0  0
M  END
>  <minimizedAffinity>
-4.95872736

>  <minimizedRMSD>
7.16527224

$$$$
