
 OpenBabel03242517593D

 26 28  0  0  0  0  0  0  0  0999 V2000
   36.5450   29.6090   40.0780 C   0  0  0  0  0  0  0  0  0  0  0  0
   36.0030   28.9770   39.3300 H   0  0  0  0  0  0  0  0  0  0  0  0
   35.8890   30.4310   40.3680 H   0  0  0  0  0  0  0  0  0  0  0  0
   36.8940   28.7520   41.2680 C   0  0  0  0  0  0  0  0  0  0  0  0
   37.2190   29.3170   42.4990 C   0  0  0  0  0  0  0  0  0  0  0  0
   37.2340   30.3850   42.5770 H   0  0  0  0  0  0  0  0  0  0  0  0
   37.5130   28.5190   43.5810 C   0  0  0  0  0  3  0  0  0  0  0  0
   37.4950   27.1450   43.4840 C   0  0  0  0  0  3  0  0  0  0  0  0
   37.1740   26.5990   42.2660 C   0  0  0  0  0  0  0  0  0  0  0  0
   37.1670   25.2130   42.1850 C   0  0  0  0  0  3  0  0  0  0  0  0
   36.8570   24.5940   40.9780 C   0  0  0  0  0  3  0  0  0  0  0  0
   36.5560   25.3630   39.8680 C   0  0  0  0  0  3  0  0  0  0  0  0
   36.5750   26.7480   39.9950 C   0  0  0  0  0  3  0  0  0  0  0  0
   36.8770   27.3850   41.1700 C   0  0  0  0  0  0  0  0  0  0  0  0
   37.8220   30.0950   39.4020 C   0  0  0  0  0  0  0  0  0  0  0  0
   38.7040   29.5320   39.6770 H   0  0  0  0  0  0  0  0  0  0  0  0
   37.5960   30.0150   38.2910 H   0  0  0  0  0  0  0  0  0  0  0  0
   39.0570   31.9260   40.4900 C   0  0  0  0  0  0  0  0  0  0  0  0
   37.9870   31.5090   39.6970 C   0  0  0  0  0  0  0  0  0  0  0  0
   37.1340   32.5110   39.2350 C   0  0  0  0  0  0  0  0  0  0  0  0
   37.3890   33.7960   39.5750 N   0  0  0  0  0  0  0  0  0  0  0  0
   38.4270   34.1510   40.3380 C   0  0  0  0  0  0  0  0  0  0  0  0
   39.2630   33.2060   40.7960 N   0  0  0  0  0  0  0  0  0  0  0  0
   39.7370   31.1470   40.8610 H   0  0  0  0  0  0  0  0  0  0  0  0
   36.2880   32.2450   38.6160 H   0  0  0  0  0  0  0  0  0  0  0  0
   38.5860   35.1930   40.5790 H   0  0  0  0  0  0  0  0  0  0  0  0
  1  3  1  0  0  0  0
  1  4  1  0  0  0  0
  2  1  1  0  0  0  0
  4  5  1  0  0  0  0
  5  6  1  0  0  0  0
  5  7  2  0  0  0  0
  8  7  1  0  0  0  0
  9  8  2  0  0  0  0
 10  9  1  0  0  0  0
 11 10  2  0  0  0  0
 12 13  2  0  0  0  0
 12 11  1  0  0  0  0
 13 14  1  0  0  0  0
 14  4  2  0  0  0  0
 14  9  1  0  0  0  0
 15 16  1  0  0  0  0
 15 19  1  0  0  0  0
 15  1  1  0  0  0  0
 17 15  1  0  0  0  0
 18 23  1  0  0  0  0
 18 24  1  0  0  0  0
 19 18  2  0  0  0  0
 20 21  2  0  0  0  0
 20 19  1  0  0  0  0
 21 22  1  0  0  0  0
 22 26  1  0  0  0  0
 22 23  2  0  0  0  0
 25 20  1  0  0  0  0
M  END
>  <minimizedAffinity>
-5.42840099

$$$$

 OpenBabel03242517593D

 26 28  0  0  0  0  0  0  0  0999 V2000
   35.8680   30.2050   40.1450 C   0  0  0  0  0  0  0  0  0  0  0  0
   34.7890   30.2830   39.8590 H   0  0  0  0  0  0  0  0  0  0  0  0
   36.0030   30.7070   41.1050 H   0  0  0  0  0  0  0  0  0  0  0  0
   36.2350   28.7460   40.2450 C   0  0  0  0  0  0  0  0  0  0  0  0
   35.9950   27.8640   39.1950 C   0  0  0  0  0  0  0  0  0  0  0  0
   35.5240   28.2450   38.3130 H   0  0  0  0  0  0  0  0  0  0  0  0
   36.3580   26.5400   39.2950 C   0  0  0  0  0  3  0  0  0  0  0  0
   36.9640   26.0460   40.4280 C   0  0  0  0  0  3  0  0  0  0  0  0
   37.1950   26.9250   41.4590 C   0  0  0  0  0  0  0  0  0  0  0  0
   37.8010   26.4090   42.5960 C   0  0  0  0  0  3  0  0  0  0  0  0
   38.0580   27.2430   43.6790 C   0  0  0  0  0  3  0  0  0  0  0  0
   37.7090   28.5810   43.6160 C   0  0  0  0  0  3  0  0  0  0  0  0
   37.1030   29.0540   42.4570 C   0  0  0  0  0  3  0  0  0  0  0  0
   36.8380   28.2560   41.3750 C   0  0  0  0  0  0  0  0  0  0  0  0
   36.6700   30.8620   39.0270 C   0  0  0  0  0  0  0  0  0  0  0  0
   37.2180   30.1600   38.4130 H   0  0  0  0  0  0  0  0  0  0  0  0
   35.8920   31.4340   38.4280 H   0  0  0  0  0  0  0  0  0  0  0  0
   37.2940   33.2070   39.4370 C   0  0  0  0  0  0  0  0  0  0  0  0
   37.5570   31.8490   39.6190 C   0  0  0  0  0  0  0  0  0  0  0  0
   38.6840   31.5360   40.3780 C   0  0  0  0  0  0  0  0  0  0  0  0
   39.4370   32.5420   40.8800 N   0  0  0  0  0  0  0  0  0  0  0  0
   39.1460   33.8320   40.6800 C   0  0  0  0  0  0  0  0  0  0  0  0
   38.0680   34.1610   39.9540 N   0  0  0  0  0  0  0  0  0  0  0  0
   36.4090   33.4700   38.8400 H   0  0  0  0  0  0  0  0  0  0  0  0
   38.9370   30.4990   40.5510 H   0  0  0  0  0  0  0  0  0  0  0  0
   39.7810   34.5980   41.1050 H   0  0  0  0  0  0  0  0  0  0  0  0
  1  4  1  0  0  0  0
  1  3  1  0  0  0  0
  2  1  1  0  0  0  0
  4 14  1  0  0  0  0
  5  7  1  0  0  0  0
  5  4  2  0  0  0  0
  6  5  1  0  0  0  0
  7  8  2  0  0  0  0
  8  9  1  0  0  0  0
  9 10  1  0  0  0  0
 10 11  2  0  0  0  0
 12 11  1  0  0  0  0
 13 12  2  0  0  0  0
 14  9  2  0  0  0  0
 14 13  1  0  0  0  0
 15 19  1  0  0  0  0
 15  1  1  0  0  0  0
 16 15  1  0  0  0  0
 17 15  1  0  0  0  0
 18 19  2  0  0  0  0
 18 23  1  0  0  0  0
 19 20  1  0  0  0  0
 20 25  1  0  0  0  0
 20 21  2  0  0  0  0
 22 21  1  0  0  0  0
 22 26  1  0  0  0  0
 23 22  2  0  0  0  0
 24 18  1  0  0  0  0
M  END
>  <minimizedAffinity>
-5.39245319

$$$$

 OpenBabel03242517593D

 26 28  0  0  0  0  0  0  0  0999 V2000
   35.8070   28.5220   40.5830 C   0  0  0  0  0  0  0  0  0  0  0  0
   36.1670   28.2510   39.5580 H   0  0  0  0  0  0  0  0  0  0  0  0
   34.8340   28.0530   40.7360 H   0  0  0  0  0  0  0  0  0  0  0  0
   36.8100   28.0220   41.5920 C   0  0  0  0  0  0  0  0  0  0  0  0
   37.3220   28.8570   42.5810 C   0  0  0  0  0  0  0  0  0  0  0  0
   36.9980   29.8780   42.5980 H   0  0  0  0  0  0  0  0  0  0  0  0
   38.2190   28.3780   43.5080 C   0  0  0  0  0  3  0  0  0  0  0  0
   38.6380   27.0670   43.4890 C   0  0  0  0  0  3  0  0  0  0  0  0
   38.1270   26.2520   42.5080 C   0  0  0  0  0  0  0  0  0  0  0  0
   38.5650   24.9340   42.5000 C   0  0  0  0  0  3  0  0  0  0  0  0
   38.0920   24.0570   41.5300 C   0  0  0  0  0  3  0  0  0  0  0  0
   37.1890   24.5010   40.5810 C   0  0  0  0  0  3  0  0  0  0  0  0
   36.7780   25.8300   40.6270 C   0  0  0  0  0  3  0  0  0  0  0  0
   37.2270   26.7170   41.5710 C   0  0  0  0  0  0  0  0  0  0  0  0
   35.7360   30.0440   40.6380 C   0  0  0  0  0  0  0  0  0  0  0  0
   34.7280   30.4310   40.7110 H   0  0  0  0  0  0  0  0  0  0  0  0
   36.3640   30.3180   41.5440 H   0  0  0  0  0  0  0  0  0  0  0  0
   36.4870   29.8160   38.3050 C   0  0  0  0  0  0  0  0  0  0  0  0
   36.4220   30.5770   39.4730 C   0  0  0  0  0  0  0  0  0  0  0  0
   37.0390   31.8270   39.4300 C   0  0  0  0  0  0  0  0  0  0  0  0
   37.6480   32.2180   38.2870 N   0  0  0  0  0  0  0  0  0  0  0  0
   37.6860   31.4550   37.1890 C   0  0  0  0  0  0  0  0  0  0  0  0
   37.1000   30.2490   37.2030 N   0  0  0  0  0  0  0  0  0  0  0  0
   36.0060   28.8290   38.3240 H   0  0  0  0  0  0  0  0  0  0  0  0
   37.0200   32.4590   40.3070 H   0  0  0  0  0  0  0  0  0  0  0  0
   38.1860   31.8160   36.3010 H   0  0  0  0  0  0  0  0  0  0  0  0
  1 15  1  0  0  0  0
  1  3  1  0  0  0  0
  1  4  1  0  0  0  0
  2  1  1  0  0  0  0
  4  5  1  0  0  0  0
  5  6  1  0  0  0  0
  5  7  2  0  0  0  0
  8  7  1  0  0  0  0
  9  8  2  0  0  0  0
 10  9  1  0  0  0  0
 11 10  2  0  0  0  0
 12 13  2  0  0  0  0
 12 11  1  0  0  0  0
 13 14  1  0  0  0  0
 14  4  2  0  0  0  0
 14  9  1  0  0  0  0
 15 16  1  0  0  0  0
 15 17  1  0  0  0  0
 18 24  1  0  0  0  0
 18 19  1  0  0  0  0
 19 15  1  0  0  0  0
 20 19  2  0  0  0  0
 20 25  1  0  0  0  0
 21 20  1  0  0  0  0
 22 23  1  0  0  0  0
 22 21  2  0  0  0  0
 23 18  2  0  0  0  0
 26 22  1  0  0  0  0
M  END
>  <minimizedAffinity>
-5.39105749

$$$$

 OpenBabel03242517593D

 26 28  0  0  0  0  0  0  0  0999 V2000
   36.5840   29.6400   40.0960 C   0  0  0  0  0  0  0  0  0  0  0  0
   37.4030   29.5340   39.3410 H   0  0  0  0  0  0  0  0  0  0  0  0
   35.6490   29.3250   39.6300 H   0  0  0  0  0  0  0  0  0  0  0  0
   36.9120   28.7740   41.2860 C   0  0  0  0  0  0  0  0  0  0  0  0
   37.2290   29.3290   42.5230 C   0  0  0  0  0  0  0  0  0  0  0  0
   37.2520   30.3970   42.6070 H   0  0  0  0  0  0  0  0  0  0  0  0
   37.5030   28.5230   43.6040 C   0  0  0  0  0  3  0  0  0  0  0  0
   37.4740   27.1510   43.5000 C   0  0  0  0  0  3  0  0  0  0  0  0
   37.1610   26.6130   42.2750 C   0  0  0  0  0  0  0  0  0  0  0  0
   37.1420   25.2280   42.1870 C   0  0  0  0  0  3  0  0  0  0  0  0
   36.8390   24.6180   40.9740 C   0  0  0  0  0  3  0  0  0  0  0  0
   36.5580   25.3950   39.8640 C   0  0  0  0  0  3  0  0  0  0  0  0
   36.5890   26.7800   39.9990 C   0  0  0  0  0  3  0  0  0  0  0  0
   36.8840   27.4080   41.1810 C   0  0  0  0  0  0  0  0  0  0  0  0
   36.5600   31.1050   40.5170 C   0  0  0  0  0  0  0  0  0  0  0  0
   35.6740   31.6370   40.1960 H   0  0  0  0  0  0  0  0  0  0  0  0
   36.6470   31.0700   41.6490 H   0  0  0  0  0  0  0  0  0  0  0  0
   38.2910   31.3590   38.7870 C   0  0  0  0  0  0  0  0  0  0  0  0
   37.7670   31.7450   40.0210 C   0  0  0  0  0  0  0  0  0  0  0  0
   38.4610   32.7450   40.7020 C   0  0  0  0  0  0  0  0  0  0  0  0
   39.5750   33.2680   40.1390 N   0  0  0  0  0  0  0  0  0  0  0  0
   40.0430   32.8670   38.9520 C   0  0  0  0  0  0  0  0  0  0  0  0
   39.3940   31.9070   38.2760 N   0  0  0  0  0  0  0  0  0  0  0  0
   37.7550   30.5720   38.2390 H   0  0  0  0  0  0  0  0  0  0  0  0
   38.0990   33.0820   41.6630 H   0  0  0  0  0  0  0  0  0  0  0  0
   40.9380   33.3190   38.5470 H   0  0  0  0  0  0  0  0  0  0  0  0
  1 15  1  0  0  0  0
  1  4  1  0  0  0  0
  2  1  1  0  0  0  0
  3  1  1  0  0  0  0
  4  5  1  0  0  0  0
  5  6  1  0  0  0  0
  5  7  2  0  0  0  0
  8  7  1  0  0  0  0
  9  8  2  0  0  0  0
 10  9  1  0  0  0  0
 11 10  2  0  0  0  0
 12 13  2  0  0  0  0
 12 11  1  0  0  0  0
 13 14  1  0  0  0  0
 14  4  2  0  0  0  0
 14  9  1  0  0  0  0
 15 17  1  0  0  0  0
 16 15  1  0  0  0  0
 18 19  1  0  0  0  0
 19 15  1  0  0  0  0
 19 20  2  0  0  0  0
 20 25  1  0  0  0  0
 21 20  1  0  0  0  0
 22 21  2  0  0  0  0
 23 18  2  0  0  0  0
 23 22  1  0  0  0  0
 24 18  1  0  0  0  0
 26 22  1  0  0  0  0
M  END
>  <minimizedAffinity>
-5.36689949

$$$$

 OpenBabel03242517593D

 26 28  0  0  0  0  0  0  0  0999 V2000
   37.7230   28.1980   43.2810 C   0  0  0  0  0  0  0  0  0  0  0  0
   36.8980   28.1040   42.5300 H   0  0  0  0  0  0  0  0  0  0  0  0
   37.2780   28.2010   44.2770 H   0  0  0  0  0  0  0  0  0  0  0  0
   38.6600   27.0280   43.1140 C   0  0  0  0  0  0  0  0  0  0  0  0
   39.9320   27.0310   43.6790 C   0  0  0  0  0  0  0  0  0  0  0  0
   40.2410   27.8980   44.2260 H   0  0  0  0  0  0  0  0  0  0  0  0
   40.7650   25.9440   43.5360 C   0  0  0  0  0  3  0  0  0  0  0  0
   40.3720   24.8280   42.8340 C   0  0  0  0  0  3  0  0  0  0  0  0
   39.1160   24.8360   42.2790 C   0  0  0  0  0  0  0  0  0  0  0  0
   38.7380   23.7040   41.5700 C   0  0  0  0  0  3  0  0  0  0  0  0
   37.4810   23.6490   40.9770 C   0  0  0  0  0  3  0  0  0  0  0  0
   36.6150   24.7210   41.0990 C   0  0  0  0  0  3  0  0  0  0  0  0
   37.0350   25.8350   41.8190 C   0  0  0  0  0  3  0  0  0  0  0  0
   38.2680   25.9170   42.4130 C   0  0  0  0  0  0  0  0  0  0  0  0
   38.4590   29.4950   42.9670 C   0  0  0  0  0  0  0  0  0  0  0  0
   38.4310   30.2180   43.7710 H   0  0  0  0  0  0  0  0  0  0  0  0
   39.5200   29.1630   42.7320 H   0  0  0  0  0  0  0  0  0  0  0  0
   38.7690   30.5820   40.7810 C   0  0  0  0  0  0  0  0  0  0  0  0
   37.9090   30.0490   41.7410 C   0  0  0  0  0  0  0  0  0  0  0  0
   36.5480   30.0890   41.4400 C   0  0  0  0  0  0  0  0  0  0  0  0
   36.1520   30.6290   40.2640 N   0  0  0  0  0  0  0  0  0  0  0  0
   37.0130   31.1290   39.3710 C   0  0  0  0  0  0  0  0  0  0  0  0
   38.3280   31.1030   39.6360 N   0  0  0  0  0  0  0  0  0  0  0  0
   39.8450   30.5580   41.0040 H   0  0  0  0  0  0  0  0  0  0  0  0
   35.8350   29.6890   42.1480 H   0  0  0  0  0  0  0  0  0  0  0  0
   36.6440   31.5490   38.4450 H   0  0  0  0  0  0  0  0  0  0  0  0
  1  3  1  0  0  0  0
  2  1  1  0  0  0  0
  4  1  1  0  0  0  0
  4  5  1  0  0  0  0
  5  6  1  0  0  0  0
  7  5  2  0  0  0  0
  8  7  1  0  0  0  0
  9 14  1  0  0  0  0
  9  8  2  0  0  0  0
 10  9  1  0  0  0  0
 11 12  1  0  0  0  0
 11 10  2  0  0  0  0
 12 13  2  0  0  0  0
 13 14  1  0  0  0  0
 14  4  2  0  0  0  0
 15  1  1  0  0  0  0
 15 16  1  0  0  0  0
 17 15  1  0  0  0  0
 18 24  1  0  0  0  0
 18 19  1  0  0  0  0
 19 15  1  0  0  0  0
 20 19  2  0  0  0  0
 20 25  1  0  0  0  0
 21 20  1  0  0  0  0
 22 23  1  0  0  0  0
 22 21  2  0  0  0  0
 23 18  2  0  0  0  0
 26 22  1  0  0  0  0
M  END
>  <minimizedAffinity>
-5.33743238

$$$$

 OpenBabel03242517593D

 26 28  0  0  0  0  0  0  0  0999 V2000
   36.3830   27.8990   40.8830 C   0  0  0  0  0  0  0  0  0  0  0  0
   35.3000   27.8120   41.1520 H   0  0  0  0  0  0  0  0  0  0  0  0
   36.8580   28.5750   41.5950 H   0  0  0  0  0  0  0  0  0  0  0  0
   37.0050   26.5270   40.9460 C   0  0  0  0  0  0  0  0  0  0  0  0
   36.6030   25.5080   40.0870 C   0  0  0  0  0  0  0  0  0  0  0  0
   35.8210   25.7160   39.3860 H   0  0  0  0  0  0  0  0  0  0  0  0
   37.1980   24.2670   40.1440 C   0  0  0  0  0  3  0  0  0  0  0  0
   38.2030   23.9950   41.0440 C   0  0  0  0  0  3  0  0  0  0  0  0
   38.5910   25.0080   41.8870 C   0  0  0  0  0  0  0  0  0  0  0  0
   39.6020   24.7140   42.7930 C   0  0  0  0  0  3  0  0  0  0  0  0
   40.0390   25.6920   43.6800 C   0  0  0  0  0  3  0  0  0  0  0  0
   39.4650   26.9520   43.6530 C   0  0  0  0  0  3  0  0  0  0  0  0
   38.4550   27.2010   42.7290 C   0  0  0  0  0  3  0  0  0  0  0  0
   38.0050   26.2570   41.8440 C   0  0  0  0  0  0  0  0  0  0  0  0
   36.4420   28.4250   39.4530 C   0  0  0  0  0  0  0  0  0  0  0  0
   37.1630   27.9140   38.8290 H   0  0  0  0  0  0  0  0  0  0  0  0
   35.3800   28.2990   39.0680 H   0  0  0  0  0  0  0  0  0  0  0  0
   37.0090   30.5370   38.3240 C   0  0  0  0  0  0  0  0  0  0  0  0
   36.7050   29.8540   39.5020 C   0  0  0  0  0  0  0  0  0  0  0  0
   36.6760   30.6180   40.6690 C   0  0  0  0  0  0  0  0  0  0  0  0
   36.9370   31.9430   40.5910 N   0  0  0  0  0  0  0  0  0  0  0  0
   37.2250   32.5580   39.4390 C   0  0  0  0  0  0  0  0  0  0  0  0
   37.2590   31.8460   38.3020 N   0  0  0  0  0  0  0  0  0  0  0  0
   37.0360   29.9490   37.3970 H   0  0  0  0  0  0  0  0  0  0  0  0
   36.4460   30.1390   41.6110 H   0  0  0  0  0  0  0  0  0  0  0  0
   37.4250   33.6200   39.4320 H   0  0  0  0  0  0  0  0  0  0  0  0
  1  4  1  0  0  0  0
  1  2  1  0  0  0  0
  1  3  1  0  0  0  0
  4 14  1  0  0  0  0
  5  7  1  0  0  0  0
  5  4  2  0  0  0  0
  6  5  1  0  0  0  0
  7  8  2  0  0  0  0
  8  9  1  0  0  0  0
  9 10  1  0  0  0  0
 10 11  2  0  0  0  0
 12 11  1  0  0  0  0
 13 12  2  0  0  0  0
 14  9  2  0  0  0  0
 14 13  1  0  0  0  0
 15 19  1  0  0  0  0
 15  1  1  0  0  0  0
 16 15  1  0  0  0  0
 17 15  1  0  0  0  0
 18 19  1  0  0  0  0
 19 20  2  0  0  0  0
 20 25  1  0  0  0  0
 21 20  1  0  0  0  0
 22 21  2  0  0  0  0
 23 18  2  0  0  0  0
 23 22  1  0  0  0  0
 24 18  1  0  0  0  0
 26 22  1  0  0  0  0
M  END
>  <minimizedAffinity>
-5.08647442

$$$$

 OpenBabel03242517593D

 26 28  0  0  0  0  0  0  0  0999 V2000
   36.4480   28.2910   41.9550 C   0  0  0  0  0  0  0  0  0  0  0  0
   35.5020   28.4800   42.5220 H   0  0  0  0  0  0  0  0  0  0  0  0
   36.3860   27.2950   41.5140 H   0  0  0  0  0  0  0  0  0  0  0  0
   36.5860   29.3450   40.8860 C   0  0  0  0  0  0  0  0  0  0  0  0
   37.0350   30.6280   41.1850 C   0  0  0  0  0  0  0  0  0  0  0  0
   37.2650   30.8580   42.2060 H   0  0  0  0  0  0  0  0  0  0  0  0
   37.1780   31.5710   40.1930 C   0  0  0  0  0  3  0  0  0  0  0  0
   36.8820   31.2800   38.8800 C   0  0  0  0  0  3  0  0  0  0  0  0
   36.4400   30.0110   38.5960 C   0  0  0  0  0  0  0  0  0  0  0  0
   36.1420   29.7360   37.2680 C   0  0  0  0  0  3  0  0  0  0  0  0
   35.6820   28.4730   36.9110 C   0  0  0  0  0  3  0  0  0  0  0  0
   35.5260   27.4980   37.8810 C   0  0  0  0  0  3  0  0  0  0  0  0
   35.8370   27.8180   39.1990 C   0  0  0  0  0  3  0  0  0  0  0  0
   36.2920   29.0540   39.5790 C   0  0  0  0  0  0  0  0  0  0  0  0
   37.5940   28.4160   42.9530 C   0  0  0  0  0  0  0  0  0  0  0  0
   38.2650   29.2390   42.7450 H   0  0  0  0  0  0  0  0  0  0  0  0
   37.0750   28.5340   43.9570 H   0  0  0  0  0  0  0  0  0  0  0  0
   37.7500   26.0280   42.3790 C   0  0  0  0  0  0  0  0  0  0  0  0
   38.3070   27.1500   42.9920 C   0  0  0  0  0  0  0  0  0  0  0  0
   39.5420   26.9650   43.6140 C   0  0  0  0  0  0  0  0  0  0  0  0
   40.1120   25.7380   43.5850 N   0  0  0  0  0  0  0  0  0  0  0  0
   39.5410   24.6890   42.9850 C   0  0  0  0  0  0  0  0  0  0  0  0
   38.3540   24.8400   42.3790 N   0  0  0  0  0  0  0  0  0  0  0  0
   36.7770   26.1580   41.8850 H   0  0  0  0  0  0  0  0  0  0  0  0
   40.0190   27.8010   44.1060 H   0  0  0  0  0  0  0  0  0  0  0  0
   40.0410   23.7290   42.9900 H   0  0  0  0  0  0  0  0  0  0  0  0
  1  2  1  0  0  0  0
  1 15  1  0  0  0  0
  3  1  1  0  0  0  0
  4  5  1  0  0  0  0
  4  1  1  0  0  0  0
  5  6  1  0  0  0  0
  7  5  2  0  0  0  0
  8  7  1  0  0  0  0
  9  8  2  0  0  0  0
  9 14  1  0  0  0  0
 10  9  1  0  0  0  0
 11 10  2  0  0  0  0
 11 12  1  0  0  0  0
 12 13  2  0  0  0  0
 13 14  1  0  0  0  0
 14  4  2  0  0  0  0
 15 19  1  0  0  0  0
 15 17  1  0  0  0  0
 16 15  1  0  0  0  0
 18 19  1  0  0  0  0
 19 20  2  0  0  0  0
 20 25  1  0  0  0  0
 21 20  1  0  0  0  0
 22 26  1  0  0  0  0
 22 21  2  0  0  0  0
 23 18  2  0  0  0  0
 23 22  1  0  0  0  0
 24 18  1  0  0  0  0
M  END
>  <minimizedAffinity>
-5.05735922

$$$$

 OpenBabel03242517593D

 26 28  0  0  0  0  0  0  0  0999 V2000
   36.5200   30.3710   41.5380 C   0  0  0  0  0  0  0  0  0  0  0  0
   35.7430   30.6860   42.2800 H   0  0  0  0  0  0  0  0  0  0  0  0
   37.2350   31.1870   41.4270 H   0  0  0  0  0  0  0  0  0  0  0  0
   37.1980   29.1260   42.0510 C   0  0  0  0  0  0  0  0  0  0  0  0
   36.5010   27.9310   42.2060 C   0  0  0  0  0  0  0  0  0  0  0  0
   35.4580   27.9200   41.9680 H   0  0  0  0  0  0  0  0  0  0  0  0
   37.1430   26.7980   42.6540 C   0  0  0  0  0  3  0  0  0  0  0  0
   38.4840   26.8090   42.9630 C   0  0  0  0  0  3  0  0  0  0  0  0
   39.1620   27.9940   42.8070 C   0  0  0  0  0  0  0  0  0  0  0  0
   40.5130   27.9880   43.1270 C   0  0  0  0  0  3  0  0  0  0  0  0
   41.2570   29.1550   42.9980 C   0  0  0  0  0  3  0  0  0  0  0  0
   40.6480   30.3140   42.5510 C   0  0  0  0  0  3  0  0  0  0  0  0
   39.2920   30.2740   42.2410 C   0  0  0  0  0  3  0  0  0  0  0  0
   38.5340   29.1380   42.3580 C   0  0  0  0  0  0  0  0  0  0  0  0
   35.7870   30.0590   40.2380 C   0  0  0  0  0  0  0  0  0  0  0  0
   35.6110   29.0030   40.0790 H   0  0  0  0  0  0  0  0  0  0  0  0
   34.8160   30.6440   40.3200 H   0  0  0  0  0  0  0  0  0  0  0  0
   36.5670   29.9870   37.9050 C   0  0  0  0  0  0  0  0  0  0  0  0
   36.5380   30.6400   39.1380 C   0  0  0  0  0  0  0  0  0  0  0  0
   37.2530   31.8340   39.2210 C   0  0  0  0  0  0  0  0  0  0  0  0
   37.9160   32.2790   38.1280 N   0  0  0  0  0  0  0  0  0  0  0  0
   37.9160   31.6200   36.9640 C   0  0  0  0  0  0  0  0  0  0  0  0
   37.2370   30.4680   36.8580 N   0  0  0  0  0  0  0  0  0  0  0  0
   36.0090   29.0450   37.8240 H   0  0  0  0  0  0  0  0  0  0  0  0
   37.2660   32.3820   40.1530 H   0  0  0  0  0  0  0  0  0  0  0  0
   38.4620   32.0200   36.1210 H   0  0  0  0  0  0  0  0  0  0  0  0
  1  4  1  0  0  0  0
  1  2  1  0  0  0  0
  3  1  1  0  0  0  0
  4  5  2  0  0  0  0
  4 14  1  0  0  0  0
  5  7  1  0  0  0  0
  6  5  1  0  0  0  0
  7  8  2  0  0  0  0
  9  8  1  0  0  0  0
  9 10  1  0  0  0  0
 11 10  2  0  0  0  0
 12 11  1  0  0  0  0
 13 14  1  0  0  0  0
 13 12  2  0  0  0  0
 14  9  2  0  0  0  0
 15 17  1  0  0  0  0
 15  1  1  0  0  0  0
 16 15  1  0  0  0  0
 18 19  1  0  0  0  0
 19 20  2  0  0  0  0
 19 15  1  0  0  0  0
 20 25  1  0  0  0  0
 21 20  1  0  0  0  0
 22 21  2  0  0  0  0
 23 22  1  0  0  0  0
 23 18  2  0  0  0  0
 24 18  1  0  0  0  0
 26 22  1  0  0  0  0
M  END
>  <minimizedAffinity>
-5.0450716

$$$$

 OpenBabel03242517593D

 26 28  0  0  0  0  0  0  0  0999 V2000
   37.6020   28.5930   42.8080 C   0  0  0  0  0  0  0  0  0  0  0  0
   38.6350   28.2900   42.5050 H   0  0  0  0  0  0  0  0  0  0  0  0
   37.6850   29.3180   43.6200 H   0  0  0  0  0  0  0  0  0  0  0  0
   36.9090   29.1990   41.6140 C   0  0  0  0  0  0  0  0  0  0  0  0
   35.7690   28.6180   41.0650 C   0  0  0  0  0  0  0  0  0  0  0  0
   35.4030   27.7120   41.5020 H   0  0  0  0  0  0  0  0  0  0  0  0
   35.1360   29.1970   39.9880 C   0  0  0  0  0  3  0  0  0  0  0  0
   35.6050   30.3620   39.4230 C   0  0  0  0  0  3  0  0  0  0  0  0
   36.7300   30.9260   39.9730 C   0  0  0  0  0  0  0  0  0  0  0  0
   37.1920   32.0970   39.3870 C   0  0  0  0  0  3  0  0  0  0  0  0
   38.3300   32.7170   39.8900 C   0  0  0  0  0  3  0  0  0  0  0  0
   38.9950   32.1650   40.9710 C   0  0  0  0  0  3  0  0  0  0  0  0
   38.4960   30.9910   41.5260 C   0  0  0  0  0  3  0  0  0  0  0  0
   37.3770   30.3580   41.0520 C   0  0  0  0  0  0  0  0  0  0  0  0
   36.8760   27.3220   43.2350 C   0  0  0  0  0  0  0  0  0  0  0  0
   36.7490   27.2310   44.3050 H   0  0  0  0  0  0  0  0  0  0  0  0
   35.8800   27.3760   42.6910 H   0  0  0  0  0  0  0  0  0  0  0  0
   38.9880   26.1860   42.6790 C   0  0  0  0  0  0  0  0  0  0  0  0
   37.5930   26.1810   42.6900 C   0  0  0  0  0  0  0  0  0  0  0  0
   36.9760   25.0470   42.1620 C   0  0  0  0  0  0  0  0  0  0  0  0
   37.7480   24.0440   41.6830 N   0  0  0  0  0  0  0  0  0  0  0  0
   39.0840   24.0920   41.6920 C   0  0  0  0  0  0  0  0  0  0  0  0
   39.7030   25.1710   42.1950 N   0  0  0  0  0  0  0  0  0  0  0  0
   39.4880   27.0730   43.0910 H   0  0  0  0  0  0  0  0  0  0  0  0
   35.8960   24.9890   42.1450 H   0  0  0  0  0  0  0  0  0  0  0  0
   39.6540   23.2620   41.2970 H   0  0  0  0  0  0  0  0  0  0  0  0
  1 15  1  0  0  0  0
  1  3  1  0  0  0  0
  2  1  1  0  0  0  0
  4  1  1  0  0  0  0
  5  6  1  0  0  0  0
  5  4  1  0  0  0  0
  7  5  2  0  0  0  0
  8  9  2  0  0  0  0
  8  7  1  0  0  0  0
  9 14  1  0  0  0  0
 10 11  2  0  0  0  0
 10  9  1  0  0  0  0
 11 12  1  0  0  0  0
 12 13  2  0  0  0  0
 14 13  1  0  0  0  0
 14  4  2  0  0  0  0
 15 16  1  0  0  0  0
 17 15  1  0  0  0  0
 18 19  1  0  0  0  0
 18 24  1  0  0  0  0
 19 15  1  0  0  0  0
 20 19  2  0  0  0  0
 21 22  2  0  0  0  0
 21 20  1  0  0  0  0
 22 23  1  0  0  0  0
 23 18  2  0  0  0  0
 25 20  1  0  0  0  0
 26 22  1  0  0  0  0
M  END
>  <minimizedAffinity>
-5.0121088

$$$$
