
 OpenBabel03242515513D

 22 24  0  0  0  0  0  0  0  0999 V2000
   46.5860   34.3200   43.4190 C   0  0  0  0  0  0  0  0  0  0  0  0
   45.7540   33.7870   42.4420 C   0  0  0  0  0  0  0  0  0  0  0  0
   45.0350   32.6490   42.7390 C   0  0  0  0  0  0  0  0  0  0  0  0
   45.1780   32.1110   43.9640 N   0  0  0  0  0  0  0  0  0  0  0  0
   45.9690   32.6120   44.8990 C   0  0  0  0  0  0  0  0  0  0  0  0
   46.6590   33.7150   44.6000 N   0  0  0  0  0  0  0  0  0  0  0  0
   47.1630   35.2280   43.1880 H   0  0  0  0  0  0  0  0  0  0  0  0
   44.3830   32.2080   42.0110 H   0  0  0  0  0  0  0  0  0  0  0  0
   46.2320   32.1560   46.2610 C   0  0  0  0  0  0  0  0  0  0  0  0
   45.6190   32.7040   47.3890 C   0  0  0  0  0  0  0  0  0  0  0  0
   44.9080   33.5130   47.2480 H   0  0  0  0  0  0  0  0  0  0  0  0
   45.8490   32.2950   48.6750 C   0  0  0  0  0  3  0  0  0  0  0  0
   46.7230   31.2900   48.9280 C   0  0  0  0  0  3  0  0  0  0  0  0
   47.3680   30.6990   47.8690 C   0  0  0  0  0  0  0  0  0  0  0  0
   48.2480   29.6830   48.1630 C   0  0  0  0  0  3  0  0  0  0  0  0
   48.9350   29.0370   47.1560 C   0  0  0  0  0  3  0  0  0  0  0  0
   48.6890   29.4670   45.8660 C   0  0  0  0  0  3  0  0  0  0  0  0
   47.7990   30.4850   45.6320 C   0  0  0  0  0  3  0  0  0  0  0  0
   47.1050   31.1440   46.5930 C   0  0  0  0  0  0  0  0  0  0  0  0
   45.7050   34.4640   41.1940 N   0  0  0  0  0  0  0  0  0  0  0  0
   45.9390   33.8980   40.3430 H   0  0  0  0  0  0  0  0  0  0  0  0
   45.4320   35.4750   41.3080 H   0  0  0  0  0  0  0  0  0  0  0  0
  1  6  1  0  0  0  0
  2  3  1  0  0  0  0
  2  1  2  0  0  0  0
  3  4  2  0  0  0  0
  4  5  1  0  0  0  0
  5  9  1  0  0  0  0
  6  5  2  0  0  0  0
  7  1  1  0  0  0  0
  8  3  1  0  0  0  0
  9 19  2  0  0  0  0
  9 10  1  0  0  0  0
 10 12  2  0  0  0  0
 11 10  1  0  0  0  0
 12 13  1  0  0  0  0
 14 15  1  0  0  0  0
 14 13  2  0  0  0  0
 16 15  2  0  0  0  0
 17 16  1  0  0  0  0
 18 17  2  0  0  0  0
 18 19  1  0  0  0  0
 19 14  1  0  0  0  0
 20 22  1  0  0  0  0
 20  2  1  0  0  0  0
 21 20  1  0  0  0  0
M  END
>  <minimizedAffinity>
-4.35969591

>  <minimizedRMSD>
3.2000308

$$$$
