
 OpenBabel03242517593D

 26 28  0  0  0  0  0  0  0  0999 V2000
   47.6890   35.0250   41.7810 C   0  0  0  0  0  0  0  0  0  0  0  0
   47.9720   35.1950   42.8500 H   0  0  0  0  0  0  0  0  0  0  0  0
   48.0050   35.8940   41.2030 H   0  0  0  0  0  0  0  0  0  0  0  0
   48.3790   33.7760   41.2950 C   0  0  0  0  0  0  0  0  0  0  0  0
   48.8150   32.7950   42.1820 C   0  0  0  0  0  0  0  0  0  0  0  0
   48.6630   32.9570   43.2300 H   0  0  0  0  0  0  0  0  0  0  0  0
   49.4230   31.6500   41.7190 C   0  0  0  0  0  3  0  0  0  0  0  0
   49.6200   31.4370   40.3730 C   0  0  0  0  0  3  0  0  0  0  0  0
   49.1870   32.4120   39.5070 C   0  0  0  0  0  0  0  0  0  0  0  0
   49.3990   32.1830   38.1540 C   0  0  0  0  0  3  0  0  0  0  0  0
   48.9910   33.1320   37.2220 C   0  0  0  0  0  3  0  0  0  0  0  0
   48.3760   34.2960   37.6490 C   0  0  0  0  0  3  0  0  0  0  0  0
   48.1850   34.4830   39.0150 C   0  0  0  0  0  3  0  0  0  0  0  0
   48.5760   33.5650   39.9550 C   0  0  0  0  0  0  0  0  0  0  0  0
   46.1790   34.8230   41.7510 C   0  0  0  0  0  0  0  0  0  0  0  0
   45.6600   35.5070   41.0920 H   0  0  0  0  0  0  0  0  0  0  0  0
   46.0500   33.7410   41.4290 H   0  0  0  0  0  0  0  0  0  0  0  0
   45.0000   36.0720   43.5140 C   0  0  0  0  0  0  0  0  0  0  0  0
   45.6770   34.9200   43.1120 C   0  0  0  0  0  0  0  0  0  0  0  0
   45.8220   33.9210   44.0740 C   0  0  0  0  0  0  0  0  0  0  0  0
   45.3100   34.1240   45.3100 N   0  0  0  0  0  0  0  0  0  0  0  0
   44.6690   35.2450   45.6540 C   0  0  0  0  0  0  0  0  0  0  0  0
   44.5150   36.2220   44.7470 N   0  0  0  0  0  0  0  0  0  0  0  0
   44.8790   36.8680   42.7670 H   0  0  0  0  0  0  0  0  0  0  0  0
   46.3380   33.0060   43.8170 H   0  0  0  0  0  0  0  0  0  0  0  0
   44.2780   35.3560   46.6560 H   0  0  0  0  0  0  0  0  0  0  0  0
  1  2  1  0  0  0  0
  3  1  1  0  0  0  0
  4  1  1  0  0  0  0
  4  5  1  0  0  0  0
  5  6  1  0  0  0  0
  7  5  2  0  0  0  0
  8  7  1  0  0  0  0
  9 14  1  0  0  0  0
  9  8  2  0  0  0  0
 10  9  1  0  0  0  0
 11 12  1  0  0  0  0
 11 10  2  0  0  0  0
 12 13  2  0  0  0  0
 13 14  1  0  0  0  0
 14  4  2  0  0  0  0
 15  1  1  0  0  0  0
 15 19  1  0  0  0  0
 16 15  1  0  0  0  0
 17 15  1  0  0  0  0
 18 23  1  0  0  0  0
 19 18  2  0  0  0  0
 19 20  1  0  0  0  0
 20 21  2  0  0  0  0
 21 22  1  0  0  0  0
 22 26  1  0  0  0  0
 23 22  2  0  0  0  0
 24 18  1  0  0  0  0
 25 20  1  0  0  0  0
M  END
>  <minimizedAffinity>
-5.00923872

>  <minimizedRMSD>
3.78332329

$$$$
