
 OpenBabel03242523043D

 34 37  0  0  0  0  0  0  0  0999 V2000
   38.3320   29.5800   42.7080 C   0  0  0  0  0  0  0  0  0  0  0  0
   37.6820   29.6780   41.5000 C   0  0  0  0  0  0  0  0  0  0  0  0
   36.6760   28.7870   41.2980 C   0  0  0  0  0  0  0  0  0  0  0  0
   36.3450   27.8670   42.2410 N   0  0  0  0  0  0  0  0  0  0  0  0
   37.0030   27.8010   43.4140 C   0  0  0  0  0  0  0  0  0  0  0  0
   37.9880   28.6580   43.6310 N   0  0  0  0  0  0  0  0  0  0  0  0
   39.1540   30.1710   43.0730 H   0  0  0  0  0  0  0  0  0  0  0  0
   36.7710   27.0730   44.2100 H   0  0  0  0  0  0  0  0  0  0  0  0
   38.0640   30.6940   40.6160 N   0  0  0  0  0  0  0  0  0  0  0  0
   39.1230   30.4790   39.7080 C   0  0  0  0  0  0  0  0  0  0  0  0
   39.3610   31.5530   38.7410 C   0  0  0  0  0  0  0  0  0  0  0  0
   38.3140   32.3900   38.3730 N   0  0  0  0  0  0  0  0  0  0  0  0
   37.1720   32.4430   39.1600 C   0  0  0  0  0  0  0  0  0  0  0  0
   37.4580   31.9920   40.5630 C   0  0  0  0  0  0  0  0  0  0  0  0
   40.0370   30.4140   40.3360 H   0  0  0  0  0  0  0  0  0  0  0  0
   39.0760   29.5290   39.1430 H   0  0  0  0  0  0  0  0  0  0  0  0
   40.2140   32.2240   39.0650 H   0  0  0  0  0  0  0  0  0  0  0  0
   39.7720   31.1180   37.7850 H   0  0  0  0  0  0  0  0  0  0  0  0
   38.0580   32.3730   37.3590 H   0  0  0  0  0  0  0  0  0  0  0  0
   36.3080   31.8210   38.7830 H   0  0  0  0  0  0  0  0  0  0  0  0
   36.7720   33.4680   39.2340 H   0  0  0  0  0  0  0  0  0  0  0  0
   38.0870   32.7550   41.0910 H   0  0  0  0  0  0  0  0  0  0  0  0
   36.4820   32.0150   41.0920 H   0  0  0  0  0  0  0  0  0  0  0  0
   35.7810   28.5780   40.2030 C   0  0  0  0  0  0  0  0  0  0  0  0
   34.6020   29.2030   39.7450 C   0  0  0  0  0  0  0  0  0  0  0  0
   34.3090   29.9870   40.4500 H   0  0  0  0  0  0  0  0  0  0  0  0
   33.9050   28.9330   38.6020 C   0  0  0  0  0  3  0  0  0  0  0  0
   34.3990   27.9370   37.7950 C   0  0  0  0  0  3  0  0  0  0  0  0
   35.5420   27.2380   38.1120 C   0  0  0  0  0  0  0  0  0  0  0  0
   35.9530   26.2710   37.2510 C   0  0  0  0  0  3  0  0  0  0  0  0
   37.0890   25.5670   37.5560 C   0  0  0  0  0  3  0  0  0  0  0  0
   37.8040   25.8290   38.7060 C   0  0  0  0  0  3  0  0  0  0  0  0
   37.3280   26.8250   39.5330 C   0  0  0  0  0  3  0  0  0  0  0  0
   36.1850   27.5820   39.2930 C   0  0  0  0  0  0  0  0  0  0  0  0
  1  7  1  0  0  0  0
  1  6  1  0  0  0  0
  2  1  2  0  0  0  0
  3  2  1  0  0  0  0
  3  4  2  0  0  0  0
  4  5  1  0  0  0  0
  5  6  2  0  0  0  0
  5  8  1  0  0  0  0
  9  2  1  0  0  0  0
 10 15  1  0  0  0  0
 10  9  1  0  0  0  0
 11 17  1  0  0  0  0
 11 10  1  0  0  0  0
 12 11  1  0  0  0  0
 12 13  1  0  0  0  0
 13 21  1  0  0  0  0
 13 14  1  0  0  0  0
 14  9  1  0  0  0  0
 14 22  1  0  0  0  0
 14 23  1  0  0  0  0
 16 10  1  0  0  0  0
 18 11  1  0  0  0  0
 19 12  1  0  0  0  0
 20 13  1  0  0  0  0
 24  3  1  0  0  0  0
 25 24  1  0  0  0  0
 25 26  1  0  0  0  0
 27 25  2  0  0  0  0
 28 29  2  0  0  0  0
 28 27  1  0  0  0  0
 29 34  1  0  0  0  0
 30 31  2  0  0  0  0
 30 29  1  0  0  0  0
 31 32  1  0  0  0  0
 32 33  2  0  0  0  0
 34 33  1  0  0  0  0
 34 24  2  0  0  0  0
M  END
>  <minimizedAffinity>
-5.73877525

$$$$

 OpenBabel03242523043D

 34 37  0  0  0  0  0  0  0  0999 V2000
   38.3030   29.9790   37.7230 C   0  0  0  0  0  0  0  0  0  0  0  0
   38.0870   29.9760   39.0810 C   0  0  0  0  0  0  0  0  0  0  0  0
   37.9650   28.7500   39.6560 C   0  0  0  0  0  0  0  0  0  0  0  0
   38.0590   27.6110   38.9220 N   0  0  0  0  0  0  0  0  0  0  0  0
   38.2720   27.6530   37.5920 C   0  0  0  0  0  0  0  0  0  0  0  0
   38.3910   28.8360   37.0120 N   0  0  0  0  0  0  0  0  0  0  0  0
   38.4210   30.8260   37.0700 H   0  0  0  0  0  0  0  0  0  0  0  0
   38.3550   26.7570   36.9540 H   0  0  0  0  0  0  0  0  0  0  0  0
   38.0590   31.2010   39.7580 N   0  0  0  0  0  0  0  0  0  0  0  0
   39.1980   31.6460   40.4610 C   0  0  0  0  0  0  0  0  0  0  0  0
   39.1110   32.9940   41.0280 C   0  0  0  0  0  0  0  0  0  0  0  0
   38.2700   33.9320   40.4400 N   0  0  0  0  0  0  0  0  0  0  0  0
   37.2740   33.5090   39.5720 C   0  0  0  0  0  0  0  0  0  0  0  0
   36.9190   32.0700   39.8130 C   0  0  0  0  0  0  0  0  0  0  0  0
   39.2990   30.9500   41.3220 H   0  0  0  0  0  0  0  0  0  0  0  0
   40.1520   31.5800   39.9060 H   0  0  0  0  0  0  0  0  0  0  0  0
   38.8500   32.9670   42.1290 H   0  0  0  0  0  0  0  0  0  0  0  0
   40.1380   33.4600   41.0550 H   0  0  0  0  0  0  0  0  0  0  0  0
   38.7410   34.7880   40.0660 H   0  0  0  0  0  0  0  0  0  0  0  0
   37.5270   33.6060   38.4760 H   0  0  0  0  0  0  0  0  0  0  0  0
   36.3440   34.0880   39.7010 H   0  0  0  0  0  0  0  0  0  0  0  0
   36.3770   31.9660   40.7890 H   0  0  0  0  0  0  0  0  0  0  0  0
   36.1640   31.8110   39.0410 H   0  0  0  0  0  0  0  0  0  0  0  0
   37.7480   28.3370   41.0080 C   0  0  0  0  0  0  0  0  0  0  0  0
   36.6100   28.0790   41.8010 C   0  0  0  0  0  0  0  0  0  0  0  0
   35.7070   28.3170   41.2310 H   0  0  0  0  0  0  0  0  0  0  0  0
   36.5760   27.5900   43.0760 C   0  0  0  0  0  3  0  0  0  0  0  0
   37.7860   27.3120   43.6660 C   0  0  0  0  0  3  0  0  0  0  0  0
   38.9810   27.5130   43.0130 C   0  0  0  0  0  0  0  0  0  0  0  0
   40.1260   27.2090   43.6800 C   0  0  0  0  0  3  0  0  0  0  0  0
   41.3220   27.4060   43.0410 C   0  0  0  0  0  3  0  0  0  0  0  0
   41.3730   27.8990   41.7540 C   0  0  0  0  0  3  0  0  0  0  0  0
   40.1710   28.1850   41.1390 C   0  0  0  0  0  3  0  0  0  0  0  0
   38.9180   28.0130   41.7200 C   0  0  0  0  0  0  0  0  0  0  0  0
  1  2  1  0  0  0  0
  2  3  2  0  0  0  0
  2  9  1  0  0  0  0
  3 24  1  0  0  0  0
  4  3  1  0  0  0  0
  5  4  2  0  0  0  0
  6  5  1  0  0  0  0
  6  1  2  0  0  0  0
  7  1  1  0  0  0  0
  8  5  1  0  0  0  0
  9 14  1  0  0  0  0
  9 10  1  0  0  0  0
 10 11  1  0  0  0  0
 10 15  1  0  0  0  0
 11 18  1  0  0  0  0
 11 17  1  0  0  0  0
 12 11  1  0  0  0  0
 13 21  1  0  0  0  0
 13 14  1  0  0  0  0
 13 12  1  0  0  0  0
 14 22  1  0  0  0  0
 16 10  1  0  0  0  0
 19 12  1  0  0  0  0
 20 13  1  0  0  0  0
 23 14  1  0  0  0  0
 24 34  2  0  0  0  0
 24 25  1  0  0  0  0
 25 27  2  0  0  0  0
 26 25  1  0  0  0  0
 27 28  1  0  0  0  0
 29 28  2  0  0  0  0
 29 30  1  0  0  0  0
 31 30  2  0  0  0  0
 32 31  1  0  0  0  0
 33 34  1  0  0  0  0
 33 32  2  0  0  0  0
 34 29  1  0  0  0  0
M  END
>  <minimizedAffinity>
-5.68043423

$$$$

 OpenBabel03242523043D

 34 37  0  0  0  0  0  0  0  0999 V2000
   36.0840   29.5330   37.2730 C   0  0  0  0  0  0  0  0  0  0  0  0
   36.8960   29.2640   38.3500 C   0  0  0  0  0  0  0  0  0  0  0  0
   36.2640   28.8260   39.4700 C   0  0  0  0  0  0  0  0  0  0  0  0
   34.9150   28.6650   39.5050 N   0  0  0  0  0  0  0  0  0  0  0  0
   34.1510   28.9370   38.4300 C   0  0  0  0  0  0  0  0  0  0  0  0
   34.7460   29.3670   37.3290 N   0  0  0  0  0  0  0  0  0  0  0  0
   36.3660   29.8930   36.2990 H   0  0  0  0  0  0  0  0  0  0  0  0
   33.0540   28.8220   38.4100 H   0  0  0  0  0  0  0  0  0  0  0  0
   38.2790   29.4110   38.1970 N   0  0  0  0  0  0  0  0  0  0  0  0
   39.0160   28.4520   37.4720 C   0  0  0  0  0  0  0  0  0  0  0  0
   40.4330   28.7610   37.2610 C   0  0  0  0  0  0  0  0  0  0  0  0
   40.8500   30.0870   37.2480 N   0  0  0  0  0  0  0  0  0  0  0  0
   40.0250   31.0700   37.7750 C   0  0  0  0  0  0  0  0  0  0  0  0
   39.0450   30.4890   38.7530 C   0  0  0  0  0  0  0  0  0  0  0  0
   38.9860   27.5300   38.0910 H   0  0  0  0  0  0  0  0  0  0  0  0
   38.5890   28.1710   36.4910 H   0  0  0  0  0  0  0  0  0  0  0  0
   41.0920   28.2200   38.0060 H   0  0  0  0  0  0  0  0  0  0  0  0
   40.7790   28.3080   36.2880 H   0  0  0  0  0  0  0  0  0  0  0  0
   41.2820   30.4140   36.3530 H   0  0  0  0  0  0  0  0  0  0  0  0
   39.4260   31.6450   37.0110 H   0  0  0  0  0  0  0  0  0  0  0  0
   40.5980   31.8370   38.3220 H   0  0  0  0  0  0  0  0  0  0  0  0
   39.5780   30.1680   39.6860 H   0  0  0  0  0  0  0  0  0  0  0  0
   38.4000   31.3330   39.0720 H   0  0  0  0  0  0  0  0  0  0  0  0
   36.7460   28.4430   40.7610 C   0  0  0  0  0  0  0  0  0  0  0  0
   37.0520   29.1280   41.9550 C   0  0  0  0  0  0  0  0  0  0  0  0
   36.9350   30.2050   41.7970 H   0  0  0  0  0  0  0  0  0  0  0  0
   37.4210   28.5900   43.1550 C   0  0  0  0  0  3  0  0  0  0  0  0
   37.5070   27.2190   43.2190 C   0  0  0  0  0  3  0  0  0  0  0  0
   37.2370   26.4180   42.1320 C   0  0  0  0  0  0  0  0  0  0  0  0
   37.3490   25.0730   42.2940 C   0  0  0  0  0  3  0  0  0  0  0  0
   37.0840   24.2650   41.2190 C   0  0  0  0  0  3  0  0  0  0  0  0
   36.7100   24.7940   40.0020 C   0  0  0  0  0  3  0  0  0  0  0  0
   36.6160   26.1670   39.9120 C   0  0  0  0  0  3  0  0  0  0  0  0
   36.8690   27.0540   40.9550 C   0  0  0  0  0  0  0  0  0  0  0  0
  1  6  2  0  0  0  0
  1  2  1  0  0  0  0
  2  3  2  0  0  0  0
  3  4  1  0  0  0  0
  3 24  1  0  0  0  0
  5  4  2  0  0  0  0
  6  5  1  0  0  0  0
  7  1  1  0  0  0  0
  8  5  1  0  0  0  0
  9  2  1  0  0  0  0
  9 14  1  0  0  0  0
 10 15  1  0  0  0  0
 10  9  1  0  0  0  0
 11 10  1  0  0  0  0
 11 17  1  0  0  0  0
 12 11  1  0  0  0  0
 12 13  1  0  0  0  0
 13 21  1  0  0  0  0
 13 14  1  0  0  0  0
 14 23  1  0  0  0  0
 14 22  1  0  0  0  0
 16 10  1  0  0  0  0
 18 11  1  0  0  0  0
 19 12  1  0  0  0  0
 20 13  1  0  0  0  0
 24 34  2  0  0  0  0
 24 25  1  0  0  0  0
 25 27  2  0  0  0  0
 26 25  1  0  0  0  0
 27 28  1  0  0  0  0
 29 30  1  0  0  0  0
 29 28  2  0  0  0  0
 31 30  2  0  0  0  0
 32 31  1  0  0  0  0
 33 32  2  0  0  0  0
 33 34  1  0  0  0  0
 34 29  1  0  0  0  0
M  END
>  <minimizedAffinity>
-5.63956404

$$$$

 OpenBabel03242523043D

 34 37  0  0  0  0  0  0  0  0999 V2000
   37.5920   30.9030   37.5740 C   0  0  0  0  0  0  0  0  0  0  0  0
   38.3520   30.8470   38.7180 C   0  0  0  0  0  0  0  0  0  0  0  0
   38.6280   29.6000   39.1820 C   0  0  0  0  0  0  0  0  0  0  0  0
   38.1780   28.4900   38.5410 N   0  0  0  0  0  0  0  0  0  0  0  0
   37.4350   28.5830   37.4210 C   0  0  0  0  0  0  0  0  0  0  0  0
   37.1520   29.7880   36.9540 N   0  0  0  0  0  0  0  0  0  0  0  0
   37.2510   31.7740   37.0420 H   0  0  0  0  0  0  0  0  0  0  0  0
   37.0470   27.7120   36.8660 H   0  0  0  0  0  0  0  0  0  0  0  0
   38.8130   32.0460   39.2750 N   0  0  0  0  0  0  0  0  0  0  0  0
   37.9140   32.9070   39.9390 C   0  0  0  0  0  0  0  0  0  0  0  0
   38.5140   34.0710   40.5960 C   0  0  0  0  0  0  0  0  0  0  0  0
   39.8360   34.0120   41.0230 N   0  0  0  0  0  0  0  0  0  0  0  0
   40.6720   33.0230   40.5250 C   0  0  0  0  0  0  0  0  0  0  0  0
   40.1710   32.5000   39.2090 C   0  0  0  0  0  0  0  0  0  0  0  0
   37.2480   33.3050   39.1440 H   0  0  0  0  0  0  0  0  0  0  0  0
   37.2480   32.4190   40.6750 H   0  0  0  0  0  0  0  0  0  0  0  0
   38.4200   35.0030   39.9600 H   0  0  0  0  0  0  0  0  0  0  0  0
   37.9000   34.3550   41.4990 H   0  0  0  0  0  0  0  0  0  0  0  0
   39.9830   34.1300   42.0510 H   0  0  0  0  0  0  0  0  0  0  0  0
   40.8090   32.1310   41.2040 H   0  0  0  0  0  0  0  0  0  0  0  0
   41.6930   33.4010   40.3440 H   0  0  0  0  0  0  0  0  0  0  0  0
   40.3010   33.2770   38.4120 H   0  0  0  0  0  0  0  0  0  0  0  0
   40.8670   31.6840   38.9240 H   0  0  0  0  0  0  0  0  0  0  0  0
   39.3760   29.1350   40.3090 C   0  0  0  0  0  0  0  0  0  0  0  0
   40.7390   29.1420   40.6730 C   0  0  0  0  0  0  0  0  0  0  0  0
   41.3330   29.5540   39.8520 H   0  0  0  0  0  0  0  0  0  0  0  0
   41.2890   28.7320   41.8550 C   0  0  0  0  0  3  0  0  0  0  0  0
   40.4220   28.2550   42.8090 C   0  0  0  0  0  3  0  0  0  0  0  0
   39.0630   28.1900   42.5960 C   0  0  0  0  0  0  0  0  0  0  0  0
   38.2870   27.7030   43.6000 C   0  0  0  0  0  3  0  0  0  0  0  0
   36.9340   27.6320   43.3990 C   0  0  0  0  0  3  0  0  0  0  0  0
   36.3640   28.0420   42.2120 C   0  0  0  0  0  3  0  0  0  0  0  0
   37.2130   28.5250   41.2380 C   0  0  0  0  0  3  0  0  0  0  0  0
   38.5960   28.6290   41.3650 C   0  0  0  0  0  0  0  0  0  0  0  0
  1  2  1  0  0  0  0
  2  3  2  0  0  0  0
  2  9  1  0  0  0  0
  3 24  1  0  0  0  0
  4  3  1  0  0  0  0
  5  4  2  0  0  0  0
  6  5  1  0  0  0  0
  6  1  2  0  0  0  0
  7  1  1  0  0  0  0
  8  5  1  0  0  0  0
  9 10  1  0  0  0  0
 10 11  1  0  0  0  0
 10 16  1  0  0  0  0
 11 12  1  0  0  0  0
 11 18  1  0  0  0  0
 12 19  1  0  0  0  0
 13 12  1  0  0  0  0
 13 20  1  0  0  0  0
 14  9  1  0  0  0  0
 14 13  1  0  0  0  0
 15 10  1  0  0  0  0
 17 11  1  0  0  0  0
 21 13  1  0  0  0  0
 22 14  1  0  0  0  0
 23 14  1  0  0  0  0
 24 25  2  0  0  0  0
 24 34  1  0  0  0  0
 25 27  1  0  0  0  0
 26 25  1  0  0  0  0
 27 28  2  0  0  0  0
 29 28  1  0  0  0  0
 29 30  1  0  0  0  0
 31 30  2  0  0  0  0
 32 31  1  0  0  0  0
 33 34  1  0  0  0  0
 33 32  2  0  0  0  0
 34 29  2  0  0  0  0
M  END
>  <minimizedAffinity>
-5.60015154

$$$$

 OpenBabel03242523043D

 34 37  0  0  0  0  0  0  0  0999 V2000
   40.6130   32.6500   39.8100 C   0  0  0  0  0  0  0  0  0  0  0  0
   39.8450   31.5200   39.6530 C   0  0  0  0  0  0  0  0  0  0  0  0
   38.5440   31.6340   40.0290 C   0  0  0  0  0  0  0  0  0  0  0  0
   38.0490   32.7990   40.5220 N   0  0  0  0  0  0  0  0  0  0  0  0
   38.8300   33.8860   40.6610 C   0  0  0  0  0  0  0  0  0  0  0  0
   40.1010   33.7970   40.3040 N   0  0  0  0  0  0  0  0  0  0  0  0
   41.6570   32.7830   39.5880 H   0  0  0  0  0  0  0  0  0  0  0  0
   38.4740   34.8530   41.0560 H   0  0  0  0  0  0  0  0  0  0  0  0
   40.4360   30.3840   39.0870 N   0  0  0  0  0  0  0  0  0  0  0  0
   40.3070   30.1360   37.7040 C   0  0  0  0  0  0  0  0  0  0  0  0
   41.0650   28.9940   37.1880 C   0  0  0  0  0  0  0  0  0  0  0  0
   42.2200   28.5840   37.8450 N   0  0  0  0  0  0  0  0  0  0  0  0
   42.4540   29.0060   39.1460 C   0  0  0  0  0  0  0  0  0  0  0  0
   41.1750   29.4020   39.8260 C   0  0  0  0  0  0  0  0  0  0  0  0
   39.2340   29.8960   37.5490 H   0  0  0  0  0  0  0  0  0  0  0  0
   40.5210   31.0000   37.0470 H   0  0  0  0  0  0  0  0  0  0  0  0
   40.4110   28.0760   37.0770 H   0  0  0  0  0  0  0  0  0  0  0  0
   41.3590   29.1880   36.1160 H   0  0  0  0  0  0  0  0  0  0  0  0
   43.1000   28.6330   37.2820 H   0  0  0  0  0  0  0  0  0  0  0  0
   43.1620   29.8790   39.2410 H   0  0  0  0  0  0  0  0  0  0  0  0
   42.9030   28.2080   39.7610 H   0  0  0  0  0  0  0  0  0  0  0  0
   40.5510   28.4940   40.0290 H   0  0  0  0  0  0  0  0  0  0  0  0
   41.4690   29.7740   40.8290 H   0  0  0  0  0  0  0  0  0  0  0  0
   37.4530   30.7100   40.0120 C   0  0  0  0  0  0  0  0  0  0  0  0
   36.4280   30.3920   39.0960 C   0  0  0  0  0  0  0  0  0  0  0  0
   36.4830   31.0710   38.2400 H   0  0  0  0  0  0  0  0  0  0  0  0
   35.5000   29.3950   39.1960 C   0  0  0  0  0  3  0  0  0  0  0  0
   35.5610   28.6010   40.3160 C   0  0  0  0  0  3  0  0  0  0  0  0
   36.5080   28.7920   41.2970 C   0  0  0  0  0  0  0  0  0  0  0  0
   36.4880   27.9550   42.3680 C   0  0  0  0  0  3  0  0  0  0  0  0
   37.4250   28.1350   43.3510 C   0  0  0  0  0  3  0  0  0  0  0  0
   38.3690   29.1370   43.2650 C   0  0  0  0  0  3  0  0  0  0  0  0
   38.3290   29.9480   42.1490 C   0  0  0  0  0  3  0  0  0  0  0  0
   37.4110   29.8290   41.1100 C   0  0  0  0  0  0  0  0  0  0  0  0
  1  6  1  0  0  0  0
  2  1  2  0  0  0  0
  2  3  1  0  0  0  0
  3  4  2  0  0  0  0
  4  5  1  0  0  0  0
  5  8  1  0  0  0  0
  6  5  2  0  0  0  0
  7  1  1  0  0  0  0
  9  2  1  0  0  0  0
  9 14  1  0  0  0  0
 10  9  1  0  0  0  0
 11 10  1  0  0  0  0
 11 12  1  0  0  0  0
 12 13  1  0  0  0  0
 13 20  1  0  0  0  0
 13 21  1  0  0  0  0
 13 14  1  0  0  0  0
 14 22  1  0  0  0  0
 14 23  1  0  0  0  0
 15 10  1  0  0  0  0
 16 10  1  0  0  0  0
 17 11  1  0  0  0  0
 18 11  1  0  0  0  0
 19 12  1  0  0  0  0
 24  3  1  0  0  0  0
 24 34  1  0  0  0  0
 25 27  1  0  0  0  0
 25 24  2  0  0  0  0
 26 25  1  0  0  0  0
 27 28  2  0  0  0  0
 28 29  1  0  0  0  0
 29 30  1  0  0  0  0
 30 31  2  0  0  0  0
 32 31  1  0  0  0  0
 33 32  2  0  0  0  0
 34 29  2  0  0  0  0
 34 33  1  0  0  0  0
M  END
>  <minimizedAffinity>
-5.55188417

$$$$

 OpenBabel03242523043D

 34 37  0  0  0  0  0  0  0  0999 V2000
   40.6480   33.0300   39.1090 C   0  0  0  0  0  0  0  0  0  0  0  0
   40.3220   31.7920   39.6110 C   0  0  0  0  0  0  0  0  0  0  0  0
   39.3950   31.7840   40.6040 C   0  0  0  0  0  0  0  0  0  0  0  0
   38.8330   32.9340   41.0590 N   0  0  0  0  0  0  0  0  0  0  0  0
   39.1770   34.1300   40.5430 C   0  0  0  0  0  0  0  0  0  0  0  0
   40.0790   34.1610   39.5750 N   0  0  0  0  0  0  0  0  0  0  0  0
   41.3540   33.2700   38.3340 H   0  0  0  0  0  0  0  0  0  0  0  0
   38.7490   35.0900   40.8780 H   0  0  0  0  0  0  0  0  0  0  0  0
   40.9170   30.6610   39.0400 N   0  0  0  0  0  0  0  0  0  0  0  0
   40.4110   30.1280   37.8350 C   0  0  0  0  0  0  0  0  0  0  0  0
   41.1790   29.0240   37.2530 C   0  0  0  0  0  0  0  0  0  0  0  0
   42.5390   28.9200   37.5210 N   0  0  0  0  0  0  0  0  0  0  0  0
   43.0820   29.6200   38.5890 C   0  0  0  0  0  0  0  0  0  0  0  0
   42.0320   29.9590   39.6070 C   0  0  0  0  0  0  0  0  0  0  0  0
   39.4140   29.7130   38.0960 H   0  0  0  0  0  0  0  0  0  0  0  0
   40.2300   30.8660   37.0310 H   0  0  0  0  0  0  0  0  0  0  0  0
   40.7200   28.0200   37.5050 H   0  0  0  0  0  0  0  0  0  0  0  0
   41.0750   29.0410   36.1310 H   0  0  0  0  0  0  0  0  0  0  0  0
   43.1680   28.9800   36.6880 H   0  0  0  0  0  0  0  0  0  0  0  0
   43.5960   30.5860   38.3110 H   0  0  0  0  0  0  0  0  0  0  0  0
   43.8520   29.0310   39.1160 H   0  0  0  0  0  0  0  0  0  0  0  0
   41.6980   29.0300   40.1380 H   0  0  0  0  0  0  0  0  0  0  0  0
   42.5470   30.5600   40.3840 H   0  0  0  0  0  0  0  0  0  0  0  0
   38.8010   30.7240   41.3590 C   0  0  0  0  0  0  0  0  0  0  0  0
   39.0640   30.1200   42.6070 C   0  0  0  0  0  0  0  0  0  0  0  0
   39.9730   30.5510   43.0360 H   0  0  0  0  0  0  0  0  0  0  0  0
   38.3270   29.1590   43.2400 C   0  0  0  0  0  3  0  0  0  0  0  0
   37.1940   28.7220   42.5960 C   0  0  0  0  0  3  0  0  0  0  0  0
   36.8100   29.2220   41.3710 C   0  0  0  0  0  0  0  0  0  0  0  0
   35.6740   28.7270   40.8130 C   0  0  0  0  0  3  0  0  0  0  0  0
   35.2820   29.2150   39.5940 C   0  0  0  0  0  3  0  0  0  0  0  0
   36.0160   30.1850   38.9430 C   0  0  0  0  0  3  0  0  0  0  0  0
   37.1570   30.6400   39.5700 C   0  0  0  0  0  3  0  0  0  0  0  0
   37.6200   30.1950   40.8050 C   0  0  0  0  0  0  0  0  0  0  0  0
  1  6  2  0  0  0  0
  1  2  1  0  0  0  0
  2  3  2  0  0  0  0
  3  4  1  0  0  0  0
  3 24  1  0  0  0  0
  5  8  1  0  0  0  0
  5  4  2  0  0  0  0
  6  5  1  0  0  0  0
  7  1  1  0  0  0  0
  9 14  1  0  0  0  0
  9  2  1  0  0  0  0
 10 15  1  0  0  0  0
 10  9  1  0  0  0  0
 11 17  1  0  0  0  0
 11 12  1  0  0  0  0
 11 10  1  0  0  0  0
 12 13  1  0  0  0  0
 13 21  1  0  0  0  0
 13 14  1  0  0  0  0
 14 22  1  0  0  0  0
 14 23  1  0  0  0  0
 16 10  1  0  0  0  0
 18 11  1  0  0  0  0
 19 12  1  0  0  0  0
 20 13  1  0  0  0  0
 24 25  1  0  0  0  0
 25 26  1  0  0  0  0
 25 27  2  0  0  0  0
 28 27  1  0  0  0  0
 29 28  2  0  0  0  0
 30 29  1  0  0  0  0
 31 30  2  0  0  0  0
 32 33  2  0  0  0  0
 32 31  1  0  0  0  0
 33 34  1  0  0  0  0
 34 24  2  0  0  0  0
 34 29  1  0  0  0  0
M  END
>  <minimizedAffinity>
-5.37207937

$$$$

 OpenBabel03242523043D

 34 37  0  0  0  0  0  0  0  0999 V2000
   38.9360   29.1200   37.4810 C   0  0  0  0  0  0  0  0  0  0  0  0
   38.5710   28.8660   38.7820 C   0  0  0  0  0  0  0  0  0  0  0  0
   39.3520   27.9780   39.4520 C   0  0  0  0  0  0  0  0  0  0  0  0
   40.4250   27.3910   38.8600 N   0  0  0  0  0  0  0  0  0  0  0  0
   40.7540   27.6650   37.5830 C   0  0  0  0  0  0  0  0  0  0  0  0
   40.0050   28.5250   36.9110 N   0  0  0  0  0  0  0  0  0  0  0  0
   38.4620   29.7740   36.7710 H   0  0  0  0  0  0  0  0  0  0  0  0
   41.6140   27.2140   37.0590 H   0  0  0  0  0  0  0  0  0  0  0  0
   37.4800   29.5600   39.3180 N   0  0  0  0  0  0  0  0  0  0  0  0
   36.2200   28.9330   39.4110 C   0  0  0  0  0  0  0  0  0  0  0  0
   35.1760   29.6960   40.1010 C   0  0  0  0  0  0  0  0  0  0  0  0
   35.5360   30.6380   41.0590 N   0  0  0  0  0  0  0  0  0  0  0  0
   36.8430   31.1030   41.1050 C   0  0  0  0  0  0  0  0  0  0  0  0
   37.5320   30.9150   39.7840 C   0  0  0  0  0  0  0  0  0  0  0  0
   35.8760   28.8110   38.3620 H   0  0  0  0  0  0  0  0  0  0  0  0
   36.2290   27.9160   39.8460 H   0  0  0  0  0  0  0  0  0  0  0  0
   34.4920   30.2220   39.3690 H   0  0  0  0  0  0  0  0  0  0  0  0
   34.4590   28.9870   40.6050 H   0  0  0  0  0  0  0  0  0  0  0  0
   35.1790   30.4570   42.0250 H   0  0  0  0  0  0  0  0  0  0  0  0
   37.4920   30.6140   41.8880 H   0  0  0  0  0  0  0  0  0  0  0  0
   36.8870   32.1810   41.3320 H   0  0  0  0  0  0  0  0  0  0  0  0
   37.1060   31.6210   39.0250 H   0  0  0  0  0  0  0  0  0  0  0  0
   38.5760   31.2600   39.9370 H   0  0  0  0  0  0  0  0  0  0  0  0
   39.3060   27.4700   40.7880 C   0  0  0  0  0  0  0  0  0  0  0  0
   39.8490   27.8710   42.0270 C   0  0  0  0  0  0  0  0  0  0  0  0
   40.4950   28.7410   41.8760 H   0  0  0  0  0  0  0  0  0  0  0  0
   39.6260   27.3150   43.2540 C   0  0  0  0  0  3  0  0  0  0  0  0
   38.7740   26.2380   43.3020 C   0  0  0  0  0  3  0  0  0  0  0  0
   38.1670   25.7360   42.1720 C   0  0  0  0  0  0  0  0  0  0  0  0
   37.3400   24.6680   42.3200 C   0  0  0  0  0  3  0  0  0  0  0  0
   36.7310   24.1580   41.2030 C   0  0  0  0  0  3  0  0  0  0  0  0
   36.9460   24.7080   39.9570 C   0  0  0  0  0  3  0  0  0  0  0  0
   37.7980   25.7910   39.8840 C   0  0  0  0  0  3  0  0  0  0  0  0
   38.4520   26.3650   40.9690 C   0  0  0  0  0  0  0  0  0  0  0  0
  1  2  1  0  0  0  0
  2  9  1  0  0  0  0
  2  3  2  0  0  0  0
  3 24  1  0  0  0  0
  4  3  1  0  0  0  0
  5  4  2  0  0  0  0
  6  1  2  0  0  0  0
  6  5  1  0  0  0  0
  7  1  1  0  0  0  0
  8  5  1  0  0  0  0
  9 10  1  0  0  0  0
  9 14  1  0  0  0  0
 10 16  1  0  0  0  0
 10 11  1  0  0  0  0
 11 18  1  0  0  0  0
 11 12  1  0  0  0  0
 12 13  1  0  0  0  0
 12 19  1  0  0  0  0
 13 21  1  0  0  0  0
 13 20  1  0  0  0  0
 14 23  1  0  0  0  0
 14 13  1  0  0  0  0
 15 10  1  0  0  0  0
 17 11  1  0  0  0  0
 22 14  1  0  0  0  0
 24 34  2  0  0  0  0
 24 25  1  0  0  0  0
 25 27  2  0  0  0  0
 26 25  1  0  0  0  0
 27 28  1  0  0  0  0
 29 30  1  0  0  0  0
 29 28  2  0  0  0  0
 31 30  2  0  0  0  0
 32 31  1  0  0  0  0
 33 32  2  0  0  0  0
 33 34  1  0  0  0  0
 34 29  1  0  0  0  0
M  END
>  <minimizedAffinity>
-5.35208273

$$$$

 OpenBabel03242523043D

 34 37  0  0  0  0  0  0  0  0999 V2000
   37.4370   31.1550   38.1760 C   0  0  0  0  0  0  0  0  0  0  0  0
   37.5210   29.9910   38.9040 C   0  0  0  0  0  0  0  0  0  0  0  0
   37.3770   30.1250   40.2490 C   0  0  0  0  0  0  0  0  0  0  0  0
   37.1590   31.3370   40.8210 N   0  0  0  0  0  0  0  0  0  0  0  0
   37.0810   32.4570   40.0760 C   0  0  0  0  0  0  0  0  0  0  0  0
   37.2210   32.3500   38.7640 N   0  0  0  0  0  0  0  0  0  0  0  0
   37.5280   31.2830   37.1120 H   0  0  0  0  0  0  0  0  0  0  0  0
   36.9060   33.4630   40.4940 H   0  0  0  0  0  0  0  0  0  0  0  0
   37.6960   28.7840   38.2170 N   0  0  0  0  0  0  0  0  0  0  0  0
   36.5760   27.9930   37.8850 C   0  0  0  0  0  0  0  0  0  0  0  0
   36.8500   26.8150   37.0580 C   0  0  0  0  0  0  0  0  0  0  0  0
   37.9560   26.8120   36.2150 N   0  0  0  0  0  0  0  0  0  0  0  0
   38.9690   27.7380   36.4120 C   0  0  0  0  0  0  0  0  0  0  0  0
   38.9680   28.2530   37.8230 C   0  0  0  0  0  0  0  0  0  0  0  0
   36.1890   27.6110   38.8540 H   0  0  0  0  0  0  0  0  0  0  0  0
   35.7340   28.5370   37.4180 H   0  0  0  0  0  0  0  0  0  0  0  0
   36.9150   25.8730   37.6830 H   0  0  0  0  0  0  0  0  0  0  0  0
   35.9550   26.5900   36.4100 H   0  0  0  0  0  0  0  0  0  0  0  0
   37.7450   26.7130   35.1950 H   0  0  0  0  0  0  0  0  0  0  0  0
   38.9270   28.6390   35.7330 H   0  0  0  0  0  0  0  0  0  0  0  0
   39.9670   27.2990   36.2390 H   0  0  0  0  0  0  0  0  0  0  0  0
   39.3070   27.4480   38.5250 H   0  0  0  0  0  0  0  0  0  0  0  0
   39.7680   29.0210   37.8650 H   0  0  0  0  0  0  0  0  0  0  0  0
   37.3920   29.1750   41.3190 C   0  0  0  0  0  0  0  0  0  0  0  0
   36.4290   28.3460   41.9300 C   0  0  0  0  0  0  0  0  0  0  0  0
   35.4460   28.5490   41.4950 H   0  0  0  0  0  0  0  0  0  0  0  0
   36.6330   27.4060   42.9000 C   0  0  0  0  0  3  0  0  0  0  0  0
   37.9240   27.2400   43.3400 C   0  0  0  0  0  3  0  0  0  0  0  0
   38.9700   27.9780   42.8340 C   0  0  0  0  0  0  0  0  0  0  0  0
   40.2120   27.7420   43.3330 C   0  0  0  0  0  3  0  0  0  0  0  0
   41.2620   28.4710   42.8380 C   0  0  0  0  0  3  0  0  0  0  0  0
   41.0720   29.4230   41.8580 C   0  0  0  0  0  3  0  0  0  0  0  0
   39.7840   29.6090   41.4000 C   0  0  0  0  0  3  0  0  0  0  0  0
   38.6680   28.9090   41.8510 C   0  0  0  0  0  0  0  0  0  0  0  0
  1  6  2  0  0  0  0
  1  2  1  0  0  0  0
  2  3  2  0  0  0  0
  3  4  1  0  0  0  0
  3 24  1  0  0  0  0
  5  8  1  0  0  0  0
  5  4  2  0  0  0  0
  6  5  1  0  0  0  0
  7  1  1  0  0  0  0
  9  2  1  0  0  0  0
 10  9  1  0  0  0  0
 10 15  1  0  0  0  0
 11 17  1  0  0  0  0
 11 10  1  0  0  0  0
 12 13  1  0  0  0  0
 12 11  1  0  0  0  0
 13 14  1  0  0  0  0
 14 23  1  0  0  0  0
 14  9  1  0  0  0  0
 14 22  1  0  0  0  0
 16 10  1  0  0  0  0
 18 11  1  0  0  0  0
 19 12  1  0  0  0  0
 20 13  1  0  0  0  0
 21 13  1  0  0  0  0
 24 34  2  0  0  0  0
 24 25  1  0  0  0  0
 25 27  2  0  0  0  0
 26 25  1  0  0  0  0
 27 28  1  0  0  0  0
 29 30  1  0  0  0  0
 29 28  2  0  0  0  0
 31 30  2  0  0  0  0
 32 31  1  0  0  0  0
 33 34  1  0  0  0  0
 33 32  2  0  0  0  0
 34 29  1  0  0  0  0
M  END
>  <minimizedAffinity>
-5.27689266

$$$$

 OpenBabel03242523043D

 34 37  0  0  0  0  0  0  0  0999 V2000
   36.2210   29.2610   37.0550 C   0  0  0  0  0  0  0  0  0  0  0  0
   36.9870   29.0000   38.1670 C   0  0  0  0  0  0  0  0  0  0  0  0
   36.3010   28.6850   39.2960 C   0  0  0  0  0  0  0  0  0  0  0  0
   34.9430   28.6310   39.3080 N   0  0  0  0  0  0  0  0  0  0  0  0
   34.2250   28.8910   38.1990 C   0  0  0  0  0  0  0  0  0  0  0  0
   34.8730   29.2030   37.0880 N   0  0  0  0  0  0  0  0  0  0  0  0
   36.5500   29.5340   36.0680 H   0  0  0  0  0  0  0  0  0  0  0  0
   33.1220   28.8600   38.1590 H   0  0  0  0  0  0  0  0  0  0  0  0
   38.3810   29.0310   38.0400 N   0  0  0  0  0  0  0  0  0  0  0  0
   39.0640   30.2660   38.0410 C   0  0  0  0  0  0  0  0  0  0  0  0
   40.5270   30.1860   38.0320 C   0  0  0  0  0  0  0  0  0  0  0  0
   41.1550   29.0640   38.5610 N   0  0  0  0  0  0  0  0  0  0  0  0
   40.4260   27.9010   38.7610 C   0  0  0  0  0  0  0  0  0  0  0  0
   39.2060   27.8680   37.8860 C   0  0  0  0  0  0  0  0  0  0  0  0
   38.7710   30.7620   37.0910 H   0  0  0  0  0  0  0  0  0  0  0  0
   38.7750   30.9650   38.8480 H   0  0  0  0  0  0  0  0  0  0  0  0
   40.9450   30.3320   36.9890 H   0  0  0  0  0  0  0  0  0  0  0  0
   40.9580   31.0770   38.5710 H   0  0  0  0  0  0  0  0  0  0  0  0
   41.7870   29.2440   39.3750 H   0  0  0  0  0  0  0  0  0  0  0  0
   40.0750   27.7390   39.8220 H   0  0  0  0  0  0  0  0  0  0  0  0
   41.0140   27.0010   38.5150 H   0  0  0  0  0  0  0  0  0  0  0  0
   39.5050   27.7230   36.8150 H   0  0  0  0  0  0  0  0  0  0  0  0
   38.6650   26.9380   38.1570 H   0  0  0  0  0  0  0  0  0  0  0  0
   36.7260   28.3500   40.6200 C   0  0  0  0  0  0  0  0  0  0  0  0
   37.0010   29.0820   41.7940 C   0  0  0  0  0  0  0  0  0  0  0  0
   36.9140   30.1520   41.5850 H   0  0  0  0  0  0  0  0  0  0  0  0
   37.3130   28.5900   43.0300 C   0  0  0  0  0  3  0  0  0  0  0  0
   37.3670   27.2220   43.1570 C   0  0  0  0  0  3  0  0  0  0  0  0
   37.1200   26.3790   42.0970 C   0  0  0  0  0  0  0  0  0  0  0  0
   37.1970   25.0410   42.3210 C   0  0  0  0  0  3  0  0  0  0  0  0
   36.9550   24.1910   41.2730 C   0  0  0  0  0  3  0  0  0  0  0  0
   36.6390   24.6730   40.0200 C   0  0  0  0  0  3  0  0  0  0  0  0
   36.5780   26.0430   39.8670 C   0  0  0  0  0  3  0  0  0  0  0  0
   36.8110   26.9690   40.8800 C   0  0  0  0  0  0  0  0  0  0  0  0
  1  6  2  0  0  0  0
  1  2  1  0  0  0  0
  2  3  2  0  0  0  0
  3  4  1  0  0  0  0
  3 24  1  0  0  0  0
  5  4  2  0  0  0  0
  6  5  1  0  0  0  0
  7  1  1  0  0  0  0
  8  5  1  0  0  0  0
  9 10  1  0  0  0  0
  9  2  1  0  0  0  0
 10 16  1  0  0  0  0
 11 10  1  0  0  0  0
 11 12  1  0  0  0  0
 11 18  1  0  0  0  0
 12 13  1  0  0  0  0
 12 19  1  0  0  0  0
 13 20  1  0  0  0  0
 14  9  1  0  0  0  0
 14 23  1  0  0  0  0
 14 13  1  0  0  0  0
 15 10  1  0  0  0  0
 17 11  1  0  0  0  0
 21 13  1  0  0  0  0
 22 14  1  0  0  0  0
 24 34  2  0  0  0  0
 24 25  1  0  0  0  0
 25 27  2  0  0  0  0
 26 25  1  0  0  0  0
 27 28  1  0  0  0  0
 29 30  1  0  0  0  0
 29 28  2  0  0  0  0
 31 30  2  0  0  0  0
 32 31  1  0  0  0  0
 33 32  2  0  0  0  0
 33 34  1  0  0  0  0
 34 29  1  0  0  0  0
M  END
>  <minimizedAffinity>
-5.26479864

$$$$
