
 OpenBabel03252507263D

 29 32  0  0  0  0  0  0  0  0999 V2000
   45.6710   33.3520   44.8780 C   0  0  0  0  0  0  0  0  0  0  0  0
   44.9560   34.4510   45.3600 C   0  0  0  0  0  0  0  0  0  0  0  0
   44.9550   35.6200   44.6000 C   0  0  0  0  0  0  0  0  0  0  0  0
   45.6520   35.6340   43.4190 N   0  0  0  0  0  0  0  0  0  0  0  0
   46.3220   34.5700   42.9840 C   0  0  0  0  0  0  0  0  0  0  0  0
   46.3170   33.4660   43.7120 N   0  0  0  0  0  0  0  0  0  0  0  0
   44.3750   34.4610   46.2400 H   0  0  0  0  0  0  0  0  0  0  0  0
   44.4160   36.4830   44.9460 H   0  0  0  0  0  0  0  0  0  0  0  0
   45.7390   32.0330   45.4710 C   0  0  0  0  0  0  0  0  0  0  0  0
   45.8950   30.9390   44.6090 C   0  0  0  0  0  0  0  0  0  0  0  0
   45.9490   31.0960   43.5300 H   0  0  0  0  0  0  0  0  0  0  0  0
   45.9930   29.6270   45.0060 C   0  0  0  0  0  3  0  0  0  0  0  0
   45.9370   29.3200   46.3450 C   0  0  0  0  0  3  0  0  0  0  0  0
   45.7890   30.3390   47.2430 C   0  0  0  0  0  0  0  0  0  0  0  0
   45.7670   30.0830   48.5960 C   0  0  0  0  0  3  0  0  0  0  0  0
   45.6580   31.0840   49.5660 C   0  0  0  0  0  3  0  0  0  0  0  0
   45.5730   32.3860   49.0570 C   0  0  0  0  0  3  0  0  0  0  0  0
   45.5960   32.6130   47.7210 C   0  0  0  0  0  3  0  0  0  0  0  0
   45.6990   31.6250   46.7760 C   0  0  0  0  0  0  0  0  0  0  0  0
   47.0510   34.6230   41.7170 C   0  0  0  0  0  0  0  0  0  0  0  0
   48.1660   35.4110   41.6040 C   0  0  0  0  0  0  0  0  0  0  0  0
   48.9230   35.5330   40.4510 C   0  0  0  0  0  0  0  0  0  0  0  0
   48.4570   34.7770   39.3840 C   0  0  0  0  0  0  0  0  0  0  0  0
   47.3290   33.9750   39.4850 C   0  0  0  0  0  0  0  0  0  0  0  0
   46.6430   33.9140   40.6610 N   0  0  0  0  0  0  0  0  0  0  0  0
   48.4790   35.9820   42.4850 H   0  0  0  0  0  0  0  0  0  0  0  0
   49.7990   36.1470   40.3460 H   0  0  0  0  0  0  0  0  0  0  0  0
   48.9890   34.8090   38.4320 H   0  0  0  0  0  0  0  0  0  0  0  0
   47.0300   33.4130   38.6040 H   0  0  0  0  0  0  0  0  0  0  0  0
  1  2  1  0  0  0  0
  1  9  1  0  0  0  0
  2  7  1  0  0  0  0
  3  8  1  0  0  0  0
  3  2  2  0  0  0  0
  4  3  1  0  0  0  0
  5  4  2  0  0  0  0
  5  6  1  0  0  0  0
  6  1  2  0  0  0  0
  9 19  1  0  0  0  0
 10 12  1  0  0  0  0
 10  9  2  0  0  0  0
 11 10  1  0  0  0  0
 12 13  2  0  0  0  0
 13 14  1  0  0  0  0
 14 15  1  0  0  0  0
 15 16  2  0  0  0  0
 17 16  1  0  0  0  0
 18 17  2  0  0  0  0
 19 14  2  0  0  0  0
 19 18  1  0  0  0  0
 20  5  1  0  0  0  0
 21 20  1  0  0  0  0
 21 26  1  0  0  0  0
 22 21  2  0  0  0  0
 23 24  2  0  0  0  0
 23 22  1  0  0  0  0
 24 25  1  0  0  0  0
 25 20  2  0  0  0  0
 27 22  1  0  0  0  0
 28 23  1  0  0  0  0
 29 24  1  0  0  0  0
M  END
>  <minimizedAffinity>
-5.8962779

>  <minimizedRMSD>
1.22204006

$$$$
