
 OpenBabel03242512103D

 35 38  0  0  1  0  0  0  0  0999 V2000
   38.4600   31.8510   39.7370 C   0  0  1  0  0  0  0  0  0  0  0  0
   37.3150   32.8240   39.2490 C   0  0  0  0  0  0  0  0  0  0  0  0
   37.0990   31.3910   39.4820 C   0  0  2  0  0  0  0  0  0  0  0  0
   38.7650   32.0610   40.7770 H   0  0  0  0  0  0  0  0  0  0  0  0
   37.3860   33.1670   38.1970 H   0  0  0  0  0  0  0  0  0  0  0  0
   36.9850   33.5750   39.9960 H   0  0  0  0  0  0  0  0  0  0  0  0
   37.0830   30.6000   38.7170 H   0  0  0  0  0  0  0  0  0  0  0  0
   39.5200   31.6870   38.7040 C   0  0  0  0  0  0  0  0  0  0  0  0
   39.4040   30.7510   37.9190 O   0  0  0  0  0  0  0  0  0  0  0  0
   41.1440   33.3030   39.5740 C   0  0  0  0  0  0  0  0  0  0  0  0
   40.6540   32.5420   38.5670 C   0  0  0  0  0  0  0  0  0  0  0  0
   41.3250   32.6130   37.3150 C   0  0  0  0  0  0  0  0  0  0  0  0
   42.4060   33.4140   37.1580 N   0  0  0  0  0  0  0  0  0  0  0  0
   42.8580   34.1610   38.2090 C   0  0  0  0  0  0  0  0  0  0  0  0
   42.2370   34.0980   39.3760 N   0  0  0  0  0  0  0  0  0  0  0  0
   40.6040   33.2200   40.5150 H   0  0  0  0  0  0  0  0  0  0  0  0
   41.0460   32.0720   36.4540 H   0  0  0  0  0  0  0  0  0  0  0  0
   43.7060   34.8310   38.1990 H   0  0  0  0  0  0  0  0  0  0  0  0
   36.2360   31.1210   40.5400 O   0  0  0  0  0  0  0  0  0  0  0  0
   36.6550   28.8950   39.3010 O   0  0  0  0  0  0  0  0  0  0  0  0
   35.7670   29.4960   40.3750 P   0  0  2  0  0  0  0  0  0  0  0  0
   34.1520   29.2990   40.0320 O   0  0  0  0  0  0  0  0  0  0  0  0
   34.0610   29.2690   39.0450 H   0  0  0  0  0  0  0  0  0  0  0  0
   36.2110   28.6660   41.8240 O   0  0  0  0  0  0  0  0  0  0  0  0
   37.5080   28.4290   42.1900 C   0  0  0  0  0  0  0  0  0  0  0  0
   38.5010   29.3210   42.4860 C   0  0  0  0  0  0  0  0  0  0  0  0
   38.2030   30.3690   42.4160 H   0  0  0  0  0  0  0  0  0  0  0  0
   39.7760   28.9380   42.8430 C   0  0  0  0  0  3  0  0  0  0  0  0
   40.0980   27.5980   42.9160 C   0  0  0  0  0  3  0  0  0  0  0  0
   39.1030   26.6760   42.6180 C   0  0  0  0  0  0  0  0  0  0  0  0
   39.4690   25.3400   42.7030 C   0  0  0  0  0  3  0  0  0  0  0  0
   38.5260   24.3700   42.4210 C   0  0  0  0  0  3  0  0  0  0  0  0
   37.2470   24.7330   42.0610 C   0  0  0  0  0  3  0  0  0  0  0  0
   36.9540   26.0690   41.9980 C   0  0  0  0  0  3  0  0  0  0  0  0
   37.8340   27.0850   42.2630 C   0  0  0  0  0  0  0  0  0  0  0  0
  1  4  1  1  0  0  0
  2  3  1  0  0  0  0
  2  1  1  0  0  0  0
  2  6  1  0  0  0  0
  3  7  1  6  0  0  0
  3  1  1  0  0  0  0
  3 19  1  0  0  0  0
  5  2  1  0  0  0  0
  8  1  1  0  0  0  0
  9  8  2  0  0  0  0
 10 16  1  0  0  0  0
 11  8  1  0  0  0  0
 11 10  2  0  0  0  0
 12 11  1  0  0  0  0
 13 12  2  0  0  0  0
 13 14  1  0  0  0  0
 14 15  2  0  0  0  0
 15 10  1  0  0  0  0
 17 12  1  0  0  0  0
 18 14  1  0  0  0  0
 21 20  2  6  0  0  0
 21 19  1  0  0  0  0
 21 24  1  0  0  0  0
 22 21  1  0  0  0  0
 23 22  1  0  0  0  0
 24 25  1  0  0  0  0
 25 35  2  0  0  0  0
 25 26  1  0  0  0  0
 26 28  2  0  0  0  0
 27 26  1  0  0  0  0
 28 29  1  0  0  0  0
 30 31  1  0  0  0  0
 30 29  2  0  0  0  0
 32 31  2  0  0  0  0
 33 32  1  0  0  0  0
 34 33  2  0  0  0  0
 34 35  1  0  0  0  0
 35 30  1  0  0  0  0
M  END
>  <minimizedAffinity>
-6.18342447

$$$$

 OpenBabel03242512103D

 35 38  0  0  1  0  0  0  0  0999 V2000
   38.4080   32.8170   40.6900 C   0  0  1  0  0  0  0  0  0  0  0  0
   37.3000   33.1140   39.6040 C   0  0  0  0  0  0  0  0  0  0  0  0
   37.4750   31.7960   40.2270 C   0  0  2  0  0  0  0  0  0  0  0  0
   38.2010   33.3340   41.6420 H   0  0  0  0  0  0  0  0  0  0  0  0
   37.6610   33.2410   38.5630 H   0  0  0  0  0  0  0  0  0  0  0  0
   36.4860   33.7920   39.9350 H   0  0  0  0  0  0  0  0  0  0  0  0
   38.0070   30.9350   39.7950 H   0  0  0  0  0  0  0  0  0  0  0  0
   39.7790   32.9050   40.1150 C   0  0  0  0  0  0  0  0  0  0  0  0
   40.3890   33.9580   40.2690 O   0  0  0  0  0  0  0  0  0  0  0  0
   40.9610   30.7620   40.0020 C   0  0  0  0  0  0  0  0  0  0  0  0
   40.4250   31.8510   39.4020 C   0  0  0  0  0  0  0  0  0  0  0  0
   40.5210   31.9240   37.9860 C   0  0  0  0  0  0  0  0  0  0  0  0
   41.1270   30.9360   37.2840 N   0  0  0  0  0  0  0  0  0  0  0  0
   41.6500   29.8590   37.9400 C   0  0  0  0  0  0  0  0  0  0  0  0
   41.5640   29.7860   39.2590 N   0  0  0  0  0  0  0  0  0  0  0  0
   40.8680   30.7420   41.0850 H   0  0  0  0  0  0  0  0  0  0  0  0
   40.1430   32.7160   37.4000 H   0  0  0  0  0  0  0  0  0  0  0  0
   42.1530   29.0160   37.4870 H   0  0  0  0  0  0  0  0  0  0  0  0
   36.4020   31.4070   41.0240 O   0  0  0  0  0  0  0  0  0  0  0  0
   37.1490   29.3540   39.6480 O   0  0  0  0  0  0  0  0  0  0  0  0
   36.1250   29.7640   40.6910 P   0  0  2  0  0  0  0  0  0  0  0  0
   34.5700   29.4360   40.2010 O   0  0  0  0  0  0  0  0  0  0  0  0
   34.5550   29.4850   39.2110 H   0  0  0  0  0  0  0  0  0  0  0  0
   36.5490   28.8580   42.0990 O   0  0  0  0  0  0  0  0  0  0  0  0
   37.8250   28.4530   42.3780 C   0  0  0  0  0  0  0  0  0  0  0  0
   38.9320   29.2060   42.6540 C   0  0  0  0  0  0  0  0  0  0  0  0
   38.7590   30.2840   42.6470 H   0  0  0  0  0  0  0  0  0  0  0  0
   40.1690   28.6580   42.9200 C   0  0  0  0  0  3  0  0  0  0  0  0
   40.3310   27.2880   42.9170 C   0  0  0  0  0  3  0  0  0  0  0  0
   39.2180   26.5050   42.6380 C   0  0  0  0  0  0  0  0  0  0  0  0
   39.4260   25.1330   42.6440 C   0  0  0  0  0  3  0  0  0  0  0  0
   38.3600   24.2960   42.3750 C   0  0  0  0  0  3  0  0  0  0  0  0
   37.1160   24.8240   42.1060 C   0  0  0  0  0  3  0  0  0  0  0  0
   36.9830   26.1870   42.1170 C   0  0  0  0  0  3  0  0  0  0  0  0
   37.9910   27.0780   42.3740 C   0  0  0  0  0  0  0  0  0  0  0  0
  1  4  1  1  0  0  0
  2  6  1  0  0  0  0
  2  3  1  0  0  0  0
  2  1  1  0  0  0  0
  3  7  1  6  0  0  0
  3  1  1  0  0  0  0
  3 19  1  0  0  0  0
  5  2  1  0  0  0  0
  8  9  2  0  0  0  0
  8  1  1  0  0  0  0
 10 16  1  0  0  0  0
 11 10  1  0  0  0  0
 11  8  1  0  0  0  0
 12 11  2  0  0  0  0
 13 14  2  0  0  0  0
 13 12  1  0  0  0  0
 14 15  1  0  0  0  0
 15 10  2  0  0  0  0
 17 12  1  0  0  0  0
 18 14  1  0  0  0  0
 21 20  2  6  0  0  0
 21 19  1  0  0  0  0
 21 24  1  0  0  0  0
 22 21  1  0  0  0  0
 23 22  1  0  0  0  0
 24 25  1  0  0  0  0
 25 26  1  0  0  0  0
 26 28  2  0  0  0  0
 27 26  1  0  0  0  0
 29 28  1  0  0  0  0
 30 31  1  0  0  0  0
 30 29  2  0  0  0  0
 32 31  2  0  0  0  0
 33 34  2  0  0  0  0
 33 32  1  0  0  0  0
 34 35  1  0  0  0  0
 35 25  2  0  0  0  0
 35 30  1  0  0  0  0
M  END
>  <minimizedAffinity>
-5.98225451

$$$$

 OpenBabel03242512103D

 35 38  0  0  1  0  0  0  0  0999 V2000
   36.7230   29.3780   37.0220 C   0  0  1  0  0  0  0  0  0  0  0  0
   37.3150   30.7950   37.3900 C   0  0  0  0  0  0  0  0  0  0  0  0
   36.4340   30.0400   38.2900 C   0  0  2  0  0  0  0  0  0  0  0  0
   37.5040   28.5990   36.9940 H   0  0  0  0  0  0  0  0  0  0  0  0
   36.8770   31.6590   36.8500 H   0  0  0  0  0  0  0  0  0  0  0  0
   38.4120   30.8180   37.5590 H   0  0  0  0  0  0  0  0  0  0  0  0
   35.3530   30.1920   38.4240 H   0  0  0  0  0  0  0  0  0  0  0  0
   35.7600   29.4610   35.8900 C   0  0  0  0  0  0  0  0  0  0  0  0
   34.5860   29.1930   36.1250 O   0  0  0  0  0  0  0  0  0  0  0  0
   36.3460   28.9370   33.5680 C   0  0  0  0  0  0  0  0  0  0  0  0
   36.1100   29.8320   34.5570 C   0  0  0  0  0  0  0  0  0  0  0  0
   36.2180   31.2100   34.2230 C   0  0  0  0  0  0  0  0  0  0  0  0
   36.5460   31.5900   32.9650 N   0  0  0  0  0  0  0  0  0  0  0  0
   36.7740   30.6450   32.0060 C   0  0  0  0  0  0  0  0  0  0  0  0
   36.6740   29.3610   32.3110 N   0  0  0  0  0  0  0  0  0  0  0  0
   36.2530   27.8940   33.8630 H   0  0  0  0  0  0  0  0  0  0  0  0
   36.0580   32.0050   34.8980 H   0  0  0  0  0  0  0  0  0  0  0  0
   37.0400   30.8300   30.9750 H   0  0  0  0  0  0  0  0  0  0  0  0
   37.0590   29.6220   39.4610 O   0  0  0  0  0  0  0  0  0  0  0  0
   34.5890   29.0970   39.9990 O   0  0  0  0  0  0  0  0  0  0  0  0
   35.8580   29.5970   40.6640 P   0  0  2  0  0  0  0  0  0  0  0  0
   35.6330   31.0650   41.4130 O   0  0  0  0  0  0  0  0  0  0  0  0
   34.9180   31.5430   40.9200 H   0  0  0  0  0  0  0  0  0  0  0  0
   36.2710   28.3640   41.8000 O   0  0  0  0  0  0  0  0  0  0  0  0
   37.5470   28.1370   42.2370 C   0  0  0  0  0  0  0  0  0  0  0  0
   38.5070   29.0360   42.6080 C   0  0  0  0  0  0  0  0  0  0  0  0
   38.1990   30.0820   42.5410 H   0  0  0  0  0  0  0  0  0  0  0  0
   39.7650   28.6630   43.0320 C   0  0  0  0  0  3  0  0  0  0  0  0
   40.1020   27.3270   43.0990 C   0  0  0  0  0  3  0  0  0  0  0  0
   39.1390   26.3970   42.7250 C   0  0  0  0  0  0  0  0  0  0  0  0
   39.5190   25.0650   42.8060 C   0  0  0  0  0  3  0  0  0  0  0  0
   38.6090   24.0890   42.4500 C   0  0  0  0  0  3  0  0  0  0  0  0
   37.3480   24.4410   42.0230 C   0  0  0  0  0  3  0  0  0  0  0  0
   37.0400   25.7740   41.9680 C   0  0  0  0  0  3  0  0  0  0  0  0
   37.8870   26.7970   42.3030 C   0  0  0  0  0  0  0  0  0  0  0  0
  1  4  1  1  0  0  0
  1  2  1  0  0  0  0
  1  3  1  0  0  0  0
  2  6  1  0  0  0  0
  2  3  1  0  0  0  0
  3  7  1  1  0  0  0
  3 19  1  0  0  0  0
  5  2  1  0  0  0  0
  8  9  2  0  0  0  0
  8  1  1  0  0  0  0
 10 16  1  0  0  0  0
 10 11  1  0  0  0  0
 11  8  1  0  0  0  0
 12 11  2  0  0  0  0
 12 17  1  0  0  0  0
 13 12  1  0  0  0  0
 14 15  1  0  0  0  0
 14 13  2  0  0  0  0
 15 10  2  0  0  0  0
 18 14  1  0  0  0  0
 19 21  1  0  0  0  0
 21 20  2  6  0  0  0
 21 22  1  0  0  0  0
 21 24  1  0  0  0  0
 23 22  1  0  0  0  0
 24 25  1  0  0  0  0
 25 35  2  0  0  0  0
 25 26  1  0  0  0  0
 26 28  2  0  0  0  0
 27 26  1  0  0  0  0
 28 29  1  0  0  0  0
 30 31  1  0  0  0  0
 30 29  2  0  0  0  0
 32 31  2  0  0  0  0
 33 32  1  0  0  0  0
 34 33  2  0  0  0  0
 34 35  1  0  0  0  0
 35 30  1  0  0  0  0
M  END
>  <minimizedAffinity>
-5.97742844

$$$$

 OpenBabel03242512103D

 35 38  0  0  1  0  0  0  0  0999 V2000
   37.1590   29.1120   37.0320 C   0  0  1  0  0  0  0  0  0  0  0  0
   37.2180   30.6730   37.2690 C   0  0  0  0  0  0  0  0  0  0  0  0
   36.5280   29.7530   38.1810 C   0  0  2  0  0  0  0  0  0  0  0  0
   38.1460   28.6370   37.1620 H   0  0  0  0  0  0  0  0  0  0  0  0
   36.5920   31.2910   36.5940 H   0  0  0  0  0  0  0  0  0  0  0  0
   38.2220   31.0720   37.5210 H   0  0  0  0  0  0  0  0  0  0  0  0
   35.4480   29.5480   38.2090 H   0  0  0  0  0  0  0  0  0  0  0  0
   36.3580   28.7700   35.8240 C   0  0  0  0  0  0  0  0  0  0  0  0
   36.9310   28.7960   34.7400 O   0  0  0  0  0  0  0  0  0  0  0  0
   34.4930   27.3290   36.4990 C   0  0  0  0  0  0  0  0  0  0  0  0
   34.9760   28.4130   35.8450 C   0  0  0  0  0  0  0  0  0  0  0  0
   34.0360   29.2250   35.1540 C   0  0  0  0  0  0  0  0  0  0  0  0
   32.7180   28.9110   35.1600 N   0  0  0  0  0  0  0  0  0  0  0  0
   32.2860   27.8060   35.8360 C   0  0  0  0  0  0  0  0  0  0  0  0
   33.1560   27.0470   36.4820 N   0  0  0  0  0  0  0  0  0  0  0  0
   35.2420   26.7340   37.0160 H   0  0  0  0  0  0  0  0  0  0  0  0
   34.2820   30.0940   34.6090 H   0  0  0  0  0  0  0  0  0  0  0  0
   31.2640   27.4610   35.9100 H   0  0  0  0  0  0  0  0  0  0  0  0
   37.1140   29.6720   39.4420 O   0  0  0  0  0  0  0  0  0  0  0  0
   34.6020   29.1900   39.7940 O   0  0  0  0  0  0  0  0  0  0  0  0
   35.8370   29.6220   40.5630 P   0  0  2  0  0  0  0  0  0  0  0  0
   35.6000   31.0570   41.3680 O   0  0  0  0  0  0  0  0  0  0  0  0
   34.9300   31.5780   40.8550 H   0  0  0  0  0  0  0  0  0  0  0  0
   36.1450   28.3240   41.6600 O   0  0  0  0  0  0  0  0  0  0  0  0
   37.3870   28.0330   42.1550 C   0  0  0  0  0  0  0  0  0  0  0  0
   38.3400   28.8770   42.6510 C   0  0  0  0  0  0  0  0  0  0  0  0
   38.0590   29.9320   42.6460 H   0  0  0  0  0  0  0  0  0  0  0  0
   39.5610   28.4410   43.1210 C   0  0  0  0  0  3  0  0  0  0  0  0
   39.8660   27.0960   43.1040 C   0  0  0  0  0  3  0  0  0  0  0  0
   38.9100   26.2220   42.6020 C   0  0  0  0  0  0  0  0  0  0  0  0
   39.2570   24.8780   42.6030 C   0  0  0  0  0  3  0  0  0  0  0  0
   38.3510   23.9550   42.1180 C   0  0  0  0  0  3  0  0  0  0  0  0
   37.1260   24.3700   41.6440 C   0  0  0  0  0  3  0  0  0  0  0  0
   36.8490   25.7110   41.6730 C   0  0  0  0  0  3  0  0  0  0  0  0
   37.6950   26.6830   42.1380 C   0  0  0  0  0  0  0  0  0  0  0  0
  1  4  1  1  0  0  0
  1  2  1  0  0  0  0
  1  3  1  0  0  0  0
  2  6  1  0  0  0  0
  2  3  1  0  0  0  0
  3  7  1  6  0  0  0
  3 19  1  0  0  0  0
  5  2  1  0  0  0  0
  8 11  1  0  0  0  0
  8  1  1  0  0  0  0
  9  8  2  0  0  0  0
 10 16  1  0  0  0  0
 11 10  2  0  0  0  0
 12 13  2  0  0  0  0
 12 11  1  0  0  0  0
 13 14  1  0  0  0  0
 14 18  1  0  0  0  0
 14 15  2  0  0  0  0
 15 10  1  0  0  0  0
 17 12  1  0  0  0  0
 19 21  1  0  0  0  0
 21 20  2  6  0  0  0
 21 22  1  0  0  0  0
 21 24  1  0  0  0  0
 23 22  1  0  0  0  0
 24 25  1  0  0  0  0
 25 26  1  0  0  0  0
 26 28  2  0  0  0  0
 27 26  1  0  0  0  0
 29 28  1  0  0  0  0
 30 31  1  0  0  0  0
 30 29  2  0  0  0  0
 32 31  2  0  0  0  0
 33 34  2  0  0  0  0
 33 32  1  0  0  0  0
 34 35  1  0  0  0  0
 35 25  2  0  0  0  0
 35 30  1  0  0  0  0
M  END
>  <minimizedAffinity>
-5.92418671

$$$$

 OpenBabel03242512103D

 35 38  0  0  1  0  0  0  0  0999 V2000
   37.2930   27.3300   42.6570 C   0  0  1  0  0  0  0  0  0  0  0  0
   38.5390   27.2060   43.6190 C   0  0  0  0  0  0  0  0  0  0  0  0
   38.4190   28.2550   42.5990 C   0  0  2  0  0  0  0  0  0  0  0  0
   36.3810   27.6330   43.1990 H   0  0  0  0  0  0  0  0  0  0  0  0
   39.2320   26.3650   43.4110 H   0  0  0  0  0  0  0  0  0  0  0  0
   38.3330   27.4290   44.6870 H   0  0  0  0  0  0  0  0  0  0  0  0
   38.8860   28.2540   41.6030 H   0  0  0  0  0  0  0  0  0  0  0  0
   37.2100   26.1800   41.7130 C   0  0  0  0  0  0  0  0  0  0  0  0
   37.0420   25.0650   42.1950 O   0  0  0  0  0  0  0  0  0  0  0  0
   38.2710   27.0120   39.6660 C   0  0  0  0  0  0  0  0  0  0  0  0
   37.3120   26.2900   40.2940 C   0  0  0  0  0  0  0  0  0  0  0  0
   36.3690   25.6120   39.4740 C   0  0  0  0  0  0  0  0  0  0  0  0
   36.4440   25.6970   38.1240 N   0  0  0  0  0  0  0  0  0  0  0  0
   37.4320   26.4390   37.5430 C   0  0  0  0  0  0  0  0  0  0  0  0
   38.3120   27.0720   38.3020 N   0  0  0  0  0  0  0  0  0  0  0  0
   38.9720   27.5150   40.3270 H   0  0  0  0  0  0  0  0  0  0  0  0
   35.5770   25.0170   39.8370 H   0  0  0  0  0  0  0  0  0  0  0  0
   37.5890   26.5770   36.4820 H   0  0  0  0  0  0  0  0  0  0  0  0
   38.3050   29.5380   43.1280 O   0  0  0  0  0  0  0  0  0  0  0  0
   39.9110   29.6640   41.1100 O   0  0  0  0  0  0  0  0  0  0  0  0
   39.1940   30.5610   42.1030 P   0  0  2  0  0  0  0  0  0  0  0  0
   40.2470   31.5630   42.9110 O   0  0  0  0  0  0  0  0  0  0  0  0
   41.1220   31.0980   42.9580 H   0  0  0  0  0  0  0  0  0  0  0  0
   38.0720   31.4610   41.1480 O   0  0  0  0  0  0  0  0  0  0  0  0
   37.8930   31.2610   39.8060 C   0  0  0  0  0  0  0  0  0  0  0  0
   38.6340   31.7250   38.7550 C   0  0  0  0  0  0  0  0  0  0  0  0
   39.4880   32.3420   39.0410 H   0  0  0  0  0  0  0  0  0  0  0  0
   38.3340   31.4420   37.4400 C   0  0  0  0  0  3  0  0  0  0  0  0
   37.2420   30.6550   37.1350 C   0  0  0  0  0  3  0  0  0  0  0  0
   36.4760   30.1750   38.1900 C   0  0  0  0  0  0  0  0  0  0  0  0
   35.3870   29.3890   37.8390 C   0  0  0  0  0  3  0  0  0  0  0  0
   34.5830   28.8780   38.8400 C   0  0  0  0  0  3  0  0  0  0  0  0
   34.8650   29.1500   40.1610 C   0  0  0  0  0  3  0  0  0  0  0  0
   35.9550   29.9320   40.4350 C   0  0  0  0  0  3  0  0  0  0  0  0
   36.7960   30.4730   39.4990 C   0  0  0  0  0  0  0  0  0  0  0  0
  1  4  1  1  0  0  0
  1  2  1  0  0  0  0
  2  6  1  0  0  0  0
  3  7  1  6  0  0  0
  3  1  1  0  0  0  0
  3 19  1  0  0  0  0
  3  2  1  0  0  0  0
  5  2  1  0  0  0  0
  8  9  2  0  0  0  0
  8  1  1  0  0  0  0
 10 11  1  0  0  0  0
 10 16  1  0  0  0  0
 11  8  1  0  0  0  0
 12 17  1  0  0  0  0
 12 11  2  0  0  0  0
 13 12  1  0  0  0  0
 14 13  2  0  0  0  0
 14 15  1  0  0  0  0
 15 10  2  0  0  0  0
 18 14  1  0  0  0  0
 21 20  2  6  0  0  0
 21 22  1  0  0  0  0
 21 19  1  0  0  0  0
 22 23  1  0  0  0  0
 24 21  1  0  0  0  0
 25 24  1  0  0  0  0
 26 27  1  0  0  0  0
 26 25  2  0  0  0  0
 28 26  1  0  0  0  0
 29 28  2  0  0  0  0
 29 30  1  0  0  0  0
 30 35  1  0  0  0  0
 31 30  2  0  0  0  0
 31 32  1  0  0  0  0
 32 33  2  0  0  0  0
 33 34  1  0  0  0  0
 35 25  1  0  0  0  0
 35 34  2  0  0  0  0
M  END
>  <minimizedAffinity>
-5.80054092

$$$$

 OpenBabel03242512103D

 35 38  0  0  1  0  0  0  0  0999 V2000
   40.2560   30.5330   39.9640 C   0  0  1  0  0  0  0  0  0  0  0  0
   39.9910   32.0140   40.4420 C   0  0  0  0  0  0  0  0  0  0  0  0
   38.9300   31.0030   40.3500 C   0  0  2  0  0  0  0  0  0  0  0  0
   40.8530   29.9630   40.6960 H   0  0  0  0  0  0  0  0  0  0  0  0
   40.0270   32.7930   39.6540 H   0  0  0  0  0  0  0  0  0  0  0  0
   40.4360   32.2780   41.4240 H   0  0  0  0  0  0  0  0  0  0  0  0
   38.2100   30.8860   39.5270 H   0  0  0  0  0  0  0  0  0  0  0  0
   40.6510   30.4810   38.5290 C   0  0  0  0  0  0  0  0  0  0  0  0
   39.7610   30.3000   37.7040 O   0  0  0  0  0  0  0  0  0  0  0  0
   42.2970   30.9460   36.7730 C   0  0  0  0  0  0  0  0  0  0  0  0
   41.9890   30.6290   38.0530 C   0  0  0  0  0  0  0  0  0  0  0  0
   43.0730   30.4430   38.9540 C   0  0  0  0  0  0  0  0  0  0  0  0
   44.3520   30.5810   38.5300 N   0  0  0  0  0  0  0  0  0  0  0  0
   44.6060   30.9020   37.2270 C   0  0  0  0  0  0  0  0  0  0  0  0
   43.6000   31.0760   36.3850 N   0  0  0  0  0  0  0  0  0  0  0  0
   41.4410   31.0800   36.1150 H   0  0  0  0  0  0  0  0  0  0  0  0
   42.9680   30.1970   39.9750 H   0  0  0  0  0  0  0  0  0  0  0  0
   45.5800   31.0370   36.7800 H   0  0  0  0  0  0  0  0  0  0  0  0
   38.3880   30.6480   41.5820 O   0  0  0  0  0  0  0  0  0  0  0  0
   37.0160   29.3260   39.8390 O   0  0  0  0  0  0  0  0  0  0  0  0
   36.9120   29.8720   41.2520 P   0  0  2  0  0  0  0  0  0  0  0  0
   35.5840   30.8530   41.4450 O   0  0  0  0  0  0  0  0  0  0  0  0
   35.3910   31.2670   40.5650 H   0  0  0  0  0  0  0  0  0  0  0  0
   36.8140   28.4690   42.2550 O   0  0  0  0  0  0  0  0  0  0  0  0
   37.9040   27.7290   42.6250 C   0  0  0  0  0  0  0  0  0  0  0  0
   38.9970   28.1030   43.3560 C   0  0  0  0  0  0  0  0  0  0  0  0
   38.9880   29.1450   43.6840 H   0  0  0  0  0  0  0  0  0  0  0  0
   40.0320   27.2440   43.6560 C   0  0  0  0  0  3  0  0  0  0  0  0
   39.9930   25.9370   43.2160 C   0  0  0  0  0  3  0  0  0  0  0  0
   38.8890   25.5370   42.4720 C   0  0  0  0  0  0  0  0  0  0  0  0
   38.8900   24.2160   42.0480 C   0  0  0  0  0  3  0  0  0  0  0  0
   37.8220   23.7530   41.3040 C   0  0  0  0  0  3  0  0  0  0  0  0
   36.7790   24.5960   40.9920 C   0  0  0  0  0  3  0  0  0  0  0  0
   36.8430   25.8880   41.4430 C   0  0  0  0  0  3  0  0  0  0  0  0
   37.8660   26.4170   42.1830 C   0  0  0  0  0  0  0  0  0  0  0  0
  1  3  1  0  0  0  0
  1  2  1  0  0  0  0
  1  4  1  1  0  0  0
  2  6  1  0  0  0  0
  3  7  1  6  0  0  0
  3  2  1  0  0  0  0
  3 19  1  0  0  0  0
  5  2  1  0  0  0  0
  8  1  1  0  0  0  0
  9  8  2  0  0  0  0
 10 11  1  0  0  0  0
 11  8  1  0  0  0  0
 11 12  2  0  0  0  0
 12 17  1  0  0  0  0
 13 12  1  0  0  0  0
 14 13  2  0  0  0  0
 15 10  2  0  0  0  0
 15 14  1  0  0  0  0
 16 10  1  0  0  0  0
 18 14  1  0  0  0  0
 21 20  2  6  0  0  0
 21 22  1  0  0  0  0
 21 19  1  0  0  0  0
 21 24  1  0  0  0  0
 23 22  1  0  0  0  0
 24 25  1  0  0  0  0
 25 26  1  0  0  0  0
 26 28  2  0  0  0  0
 26 27  1  0  0  0  0
 29 28  1  0  0  0  0
 30 29  2  0  0  0  0
 31 30  1  0  0  0  0
 32 31  2  0  0  0  0
 33 32  1  0  0  0  0
 33 34  2  0  0  0  0
 34 35  1  0  0  0  0
 35 30  1  0  0  0  0
 35 25  2  0  0  0  0
M  END
>  <minimizedAffinity>
-5.72419834

$$$$

 OpenBabel03242512103D

 35 38  0  0  1  0  0  0  0  0999 V2000
   38.0980   32.3080   38.9370 C   0  0  1  0  0  0  0  0  0  0  0  0
   38.0830   31.9080   37.4090 C   0  0  0  0  0  0  0  0  0  0  0  0
   37.5770   31.0270   38.4690 C   0  0  2  0  0  0  0  0  0  0  0  0
   37.3880   33.1230   39.1570 H   0  0  0  0  0  0  0  0  0  0  0  0
   39.0660   31.6590   36.9620 H   0  0  0  0  0  0  0  0  0  0  0  0
   37.3820   32.4910   36.7760 H   0  0  0  0  0  0  0  0  0  0  0  0
   38.1150   30.1860   38.9310 H   0  0  0  0  0  0  0  0  0  0  0  0
   39.4870   32.4120   39.4640 C   0  0  0  0  0  0  0  0  0  0  0  0
   40.1430   33.3950   39.1370 O   0  0  0  0  0  0  0  0  0  0  0  0
   40.9130   30.4610   39.8770 C   0  0  0  0  0  0  0  0  0  0  0  0
   40.1000   31.4490   40.3210 C   0  0  0  0  0  0  0  0  0  0  0  0
   39.8630   31.5130   41.7220 C   0  0  0  0  0  0  0  0  0  0  0  0
   40.4350   30.6150   42.5590 N   0  0  0  0  0  0  0  0  0  0  0  0
   41.2470   29.6380   42.0560 C   0  0  0  0  0  0  0  0  0  0  0  0
   41.4710   29.5740   40.7540 N   0  0  0  0  0  0  0  0  0  0  0  0
   41.0700   30.4460   38.8010 H   0  0  0  0  0  0  0  0  0  0  0  0
   39.2530   32.2330   42.1940 H   0  0  0  0  0  0  0  0  0  0  0  0
   41.7540   28.8720   42.6260 H   0  0  0  0  0  0  0  0  0  0  0  0
   36.2040   30.8060   38.4050 O   0  0  0  0  0  0  0  0  0  0  0  0
   34.6390   29.0040   39.3900 O   0  0  0  0  0  0  0  0  0  0  0  0
   35.7980   29.9020   39.7850 P   0  0  2  0  0  0  0  0  0  0  0  0
   35.4380   30.8360   41.1130 O   0  0  0  0  0  0  0  0  0  0  0  0
   34.4590   30.9900   41.1110 H   0  0  0  0  0  0  0  0  0  0  0  0
   37.1010   28.8150   40.1100 O   0  0  0  0  0  0  0  0  0  0  0  0
   37.2550   28.1570   41.3000 C   0  0  0  0  0  0  0  0  0  0  0  0
   37.5520   28.6600   42.5360 C   0  0  0  0  0  0  0  0  0  0  0  0
   37.6830   29.7440   42.5640 H   0  0  0  0  0  0  0  0  0  0  0  0
   37.6790   27.8720   43.6590 C   0  0  0  0  0  3  0  0  0  0  0  0
   37.5030   26.5060   43.5660 C   0  0  0  0  0  3  0  0  0  0  0  0
   37.2020   25.9760   42.3190 C   0  0  0  0  0  0  0  0  0  0  0  0
   37.0340   24.5990   42.2700 C   0  0  0  0  0  3  0  0  0  0  0  0
   36.7310   24.0060   41.0590 C   0  0  0  0  0  3  0  0  0  0  0  0
   36.6010   24.7760   39.9250 C   0  0  0  0  0  3  0  0  0  0  0  0
   36.7790   26.1290   40.0450 C   0  0  0  0  0  3  0  0  0  0  0  0
   37.0800   26.7860   41.2090 C   0  0  0  0  0  0  0  0  0  0  0  0
  1  4  1  1  0  0  0
  1  8  1  0  0  0  0
  2  3  1  0  0  0  0
  2  1  1  0  0  0  0
  3  7  1  1  0  0  0
  3  1  1  0  0  0  0
  5  2  1  0  0  0  0
  6  2  1  0  0  0  0
  8 11  1  0  0  0  0
  9  8  2  0  0  0  0
 10 11  2  0  0  0  0
 10 15  1  0  0  0  0
 11 12  1  0  0  0  0
 12 17  1  0  0  0  0
 12 13  2  0  0  0  0
 14 13  1  0  0  0  0
 14 18  1  0  0  0  0
 15 14  2  0  0  0  0
 16 10  1  0  0  0  0
 19  3  1  0  0  0  0
 19 21  1  0  0  0  0
 21 20  2  6  0  0  0
 21 24  1  0  0  0  0
 21 22  1  0  0  0  0
 23 22  1  0  0  0  0
 24 25  1  0  0  0  0
 25 26  1  0  0  0  0
 26 27  1  0  0  0  0
 26 28  2  0  0  0  0
 29 28  1  0  0  0  0
 30 29  2  0  0  0  0
 31 30  1  0  0  0  0
 32 31  2  0  0  0  0
 33 34  2  0  0  0  0
 33 32  1  0  0  0  0
 34 35  1  0  0  0  0
 35 25  2  0  0  0  0
 35 30  1  0  0  0  0
M  END
>  <minimizedAffinity>
-5.66357183

$$$$

 OpenBabel03242512103D

 35 38  0  0  1  0  0  0  0  0999 V2000
   33.2550   28.7070   37.7530 C   0  0  1  0  0  0  0  0  0  0  0  0
   34.5100   27.7520   37.6710 C   0  0  0  0  0  0  0  0  0  0  0  0
   34.6210   29.1960   37.9060 C   0  0  2  0  0  0  0  0  0  0  0  0
   32.6520   28.5190   38.6570 H   0  0  0  0  0  0  0  0  0  0  0  0
   34.7690   27.3750   36.6600 H   0  0  0  0  0  0  0  0  0  0  0  0
   34.6100   27.0330   38.5100 H   0  0  0  0  0  0  0  0  0  0  0  0
   34.8560   29.9640   37.1550 H   0  0  0  0  0  0  0  0  0  0  0  0
   32.5570   28.8120   36.4410 C   0  0  0  0  0  0  0  0  0  0  0  0
   32.5710   27.8250   35.7130 O   0  0  0  0  0  0  0  0  0  0  0  0
   31.0730   30.7360   36.7650 C   0  0  0  0  0  0  0  0  0  0  0  0
   31.8760   29.9780   35.9800 C   0  0  0  0  0  0  0  0  0  0  0  0
   32.0350   30.3890   34.6280 C   0  0  0  0  0  0  0  0  0  0  0  0
   31.4020   31.4930   34.1640 N   0  0  0  0  0  0  0  0  0  0  0  0
   30.6040   32.2210   35.0000 C   0  0  0  0  0  0  0  0  0  0  0  0
   30.4530   31.8430   36.2590 N   0  0  0  0  0  0  0  0  0  0  0  0
   30.9770   30.3900   37.7910 H   0  0  0  0  0  0  0  0  0  0  0  0
   32.6320   29.8880   33.9160 H   0  0  0  0  0  0  0  0  0  0  0  0
   30.0540   33.1140   34.7420 H   0  0  0  0  0  0  0  0  0  0  0  0
   35.1160   29.5210   39.1660 O   0  0  0  0  0  0  0  0  0  0  0  0
   36.7040   31.4850   39.7000 O   0  0  0  0  0  0  0  0  0  0  0  0
   36.6610   30.1840   38.9200 P   0  0  2  0  0  0  0  0  0  0  0  0
   37.0450   30.4040   37.3170 O   0  0  0  0  0  0  0  0  0  0  0  0
   36.7750   31.3260   37.0720 H   0  0  0  0  0  0  0  0  0  0  0  0
   37.8080   29.1630   39.7110 O   0  0  0  0  0  0  0  0  0  0  0  0
   37.6350   28.6720   40.9760 C   0  0  0  0  0  0  0  0  0  0  0  0
   37.7000   29.3270   42.1740 C   0  0  0  0  0  0  0  0  0  0  0  0
   37.9220   30.3920   42.0970 H   0  0  0  0  0  0  0  0  0  0  0  0
   37.5020   28.6990   43.3860 C   0  0  0  0  0  3  0  0  0  0  0  0
   37.2230   27.3490   43.4260 C   0  0  0  0  0  3  0  0  0  0  0  0
   37.1540   26.6660   42.2180 C   0  0  0  0  0  0  0  0  0  0  0  0
   36.8720   25.3100   42.3040 C   0  0  0  0  0  3  0  0  0  0  0  0
   36.7880   24.5710   41.1390 C   0  0  0  0  0  3  0  0  0  0  0  0
   36.9830   25.1790   39.9190 C   0  0  0  0  0  3  0  0  0  0  0  0
   37.2570   26.5210   39.9080 C   0  0  0  0  0  3  0  0  0  0  0  0
   37.3560   27.3170   41.0180 C   0  0  0  0  0  0  0  0  0  0  0  0
  1  3  1  0  0  0  0
  1  4  1  1  0  0  0
  2  1  1  0  0  0  0
  2  3  1  0  0  0  0
  2  6  1  0  0  0  0
  3  7  1  6  0  0  0
  3 19  1  0  0  0  0
  5  2  1  0  0  0  0
  8  1  1  0  0  0  0
  9  8  2  0  0  0  0
 10 16  1  0  0  0  0
 11  8  1  0  0  0  0
 11 10  2  0  0  0  0
 12 11  1  0  0  0  0
 13 12  2  0  0  0  0
 13 14  1  0  0  0  0
 14 15  2  0  0  0  0
 15 10  1  0  0  0  0
 17 12  1  0  0  0  0
 18 14  1  0  0  0  0
 21 19  1  0  0  0  0
 21 20  2  1  0  0  0
 21 24  1  0  0  0  0
 22 21  1  0  0  0  0
 23 22  1  0  0  0  0
 24 25  1  0  0  0  0
 25 35  2  0  0  0  0
 25 26  1  0  0  0  0
 26 28  2  0  0  0  0
 27 26  1  0  0  0  0
 28 29  1  0  0  0  0
 30 31  1  0  0  0  0
 30 29  2  0  0  0  0
 32 31  2  0  0  0  0
 33 32  1  0  0  0  0
 34 33  2  0  0  0  0
 34 35  1  0  0  0  0
 35 30  1  0  0  0  0
M  END
>  <minimizedAffinity>
-5.64227057

$$$$

 OpenBabel03242512103D

 35 38  0  0  1  0  0  0  0  0999 V2000
   37.5730   29.3670   37.0030 C   0  0  1  0  0  0  0  0  0  0  0  0
   37.4920   30.9380   37.1440 C   0  0  0  0  0  0  0  0  0  0  0  0
   36.9900   30.0180   38.1720 C   0  0  2  0  0  0  0  0  0  0  0  0
   38.6120   29.0010   37.0610 H   0  0  0  0  0  0  0  0  0  0  0  0
   36.7440   31.4450   36.5010 H   0  0  0  0  0  0  0  0  0  0  0  0
   38.4680   31.4510   37.2720 H   0  0  0  0  0  0  0  0  0  0  0  0
   35.9440   29.7100   38.3190 H   0  0  0  0  0  0  0  0  0  0  0  0
   36.7020   28.8680   35.9030 C   0  0  0  0  0  0  0  0  0  0  0  0
   37.1830   28.8280   34.7750 O   0  0  0  0  0  0  0  0  0  0  0  0
   35.0100   27.3100   36.7490 C   0  0  0  0  0  0  0  0  0  0  0  0
   35.3540   28.4330   36.0740 C   0  0  0  0  0  0  0  0  0  0  0  0
   34.2970   29.2050   35.5190 C   0  0  0  0  0  0  0  0  0  0  0  0
   33.0080   28.8160   35.6690 N   0  0  0  0  0  0  0  0  0  0  0  0
   32.7170   27.6750   36.3600 C   0  0  0  0  0  0  0  0  0  0  0  0
   33.6970   26.9520   36.8790 N   0  0  0  0  0  0  0  0  0  0  0  0
   35.8450   26.7470   37.1590 H   0  0  0  0  0  0  0  0  0  0  0  0
   34.4300   30.0980   34.9740 H   0  0  0  0  0  0  0  0  0  0  0  0
   31.7320   27.2700   36.5420 H   0  0  0  0  0  0  0  0  0  0  0  0
   37.6970   30.0790   39.3700 O   0  0  0  0  0  0  0  0  0  0  0  0
   35.2780   30.0860   40.2750 O   0  0  0  0  0  0  0  0  0  0  0  0
   36.6310   30.7280   40.5240 P   0  0  2  0  0  0  0  0  0  0  0  0
   36.5480   32.3880   40.4960 O   0  0  0  0  0  0  0  0  0  0  0  0
   35.8040   32.6380   39.8900 H   0  0  0  0  0  0  0  0  0  0  0  0
   37.1120   30.1440   42.0770 O   0  0  0  0  0  0  0  0  0  0  0  0
   37.4780   28.8480   42.3160 C   0  0  0  0  0  0  0  0  0  0  0  0
   36.7030   27.7230   42.3550 C   0  0  0  0  0  0  0  0  0  0  0  0
   35.6410   27.8970   42.1680 H   0  0  0  0  0  0  0  0  0  0  0  0
   37.2110   26.4670   42.6100 C   0  0  0  0  0  3  0  0  0  0  0  0
   38.5610   26.3030   42.8390 C   0  0  0  0  0  3  0  0  0  0  0  0
   39.3660   27.4350   42.8040 C   0  0  0  0  0  0  0  0  0  0  0  0
   40.7170   27.2260   43.0410 C   0  0  0  0  0  3  0  0  0  0  0  0
   41.5740   28.3100   43.0190 C   0  0  0  0  0  3  0  0  0  0  0  0
   41.0860   29.5720   42.7670 C   0  0  0  0  0  3  0  0  0  0  0  0
   39.7420   29.7070   42.5420 C   0  0  0  0  0  3  0  0  0  0  0  0
   38.8330   28.6820   42.5470 C   0  0  0  0  0  0  0  0  0  0  0  0
  1  4  1  1  0  0  0
  1  2  1  0  0  0  0
  1  3  1  0  0  0  0
  2  6  1  0  0  0  0
  2  3  1  0  0  0  0
  3  7  1  1  0  0  0
  3 19  1  0  0  0  0
  5  2  1  0  0  0  0
  8 11  1  0  0  0  0
  8  1  1  0  0  0  0
  9  8  2  0  0  0  0
 10 15  1  0  0  0  0
 10 16  1  0  0  0  0
 11 10  2  0  0  0  0
 12 13  2  0  0  0  0
 12 11  1  0  0  0  0
 13 14  1  0  0  0  0
 14 18  1  0  0  0  0
 14 15  2  0  0  0  0
 17 12  1  0  0  0  0
 19 21  1  0  0  0  0
 21 20  2  6  0  0  0
 21 24  1  0  0  0  0
 22 21  1  0  0  0  0
 23 22  1  0  0  0  0
 24 25  1  0  0  0  0
 25 26  2  0  0  0  0
 25 35  1  0  0  0  0
 26 28  1  0  0  0  0
 27 26  1  0  0  0  0
 28 29  2  0  0  0  0
 30 29  1  0  0  0  0
 30 31  1  0  0  0  0
 32 31  2  0  0  0  0
 33 32  1  0  0  0  0
 34 35  1  0  0  0  0
 34 33  2  0  0  0  0
 35 30  2  0  0  0  0
M  END
>  <minimizedAffinity>
-5.63580942

$$$$
