
 OpenBabel03252509243D

 29 32  0  0  1  0  0  0  0  0999 V2000
   45.2310   32.7290   42.8780 C   0  0  1  0  0  0  0  0  0  0  0  0
   44.5690   31.3310   43.0040 C   0  0  0  0  0  0  0  0  0  0  0  0
   45.9320   31.6320   42.3150 C   0  0  2  0  0  0  0  0  0  0  0  0
   45.4200   33.2020   43.8600 H   0  0  0  0  0  0  0  0  0  0  0  0
   43.7870   31.0410   42.3090 H   0  0  0  0  0  0  0  0  0  0  0  0
   44.6350   30.8330   44.0040 H   0  0  0  0  0  0  0  0  0  0  0  0
   45.9460   31.5490   41.1900 H   0  0  0  0  0  0  0  0  0  0  0  0
   47.1460   31.0060   42.8940 C   0  0  0  0  0  0  0  0  0  0  0  0
   46.9400   30.0060   43.8230 C   0  0  0  0  0  0  0  0  0  0  0  0
   45.9330   29.7010   44.1080 H   0  0  0  0  0  0  0  0  0  0  0  0
   48.0750   29.4220   44.3640 C   0  0  0  0  0  3  0  0  0  0  0  0
   49.3270   29.8030   44.0080 C   0  0  0  0  0  3  0  0  0  0  0  0
   49.5200   30.8080   43.0750 C   0  0  0  0  0  0  0  0  0  0  0  0
   50.7890   31.2270   42.6840 C   0  0  0  0  0  3  0  0  0  0  0  0
   50.8850   32.2380   41.7440 C   0  0  0  0  0  3  0  0  0  0  0  0
   49.8160   32.8570   41.1730 C   0  0  0  0  0  3  0  0  0  0  0  0
   48.5540   32.4310   41.5700 C   0  0  0  0  0  3  0  0  0  0  0  0
   48.4210   31.4230   42.5060 C   0  0  0  0  0  0  0  0  0  0  0  0
   43.2520   35.6180   41.5000 C   0  0  0  0  0  0  0  0  0  0  0  0
   43.9680   34.8090   42.4360 C   0  0  0  0  0  0  0  0  0  0  0  0
   44.4090   33.6050   41.9570 C   0  0  0  0  0  0  0  0  0  0  0  0
   44.1650   33.2160   40.6500 N   0  0  0  0  0  0  0  0  0  0  0  0
   43.4900   34.0030   39.8030 C   0  0  0  0  0  0  0  0  0  0  0  0
   43.0310   35.2070   40.2240 N   0  0  0  0  0  0  0  0  0  0  0  0
   42.9190   36.5650   41.9140 H   0  0  0  0  0  0  0  0  0  0  0  0
   43.2900   33.7170   38.7820 H   0  0  0  0  0  0  0  0  0  0  0  0
   44.1850   35.2230   43.7820 N   0  0  0  0  0  0  0  0  0  0  0  0
   44.6070   36.1340   44.1310 H   0  0  0  0  0  0  0  0  0  0  0  0
   43.8900   34.5370   44.5340 H   0  0  0  0  0  0  0  0  0  0  0  0
  1  2  1  0  0  0  0
  1  4  1  1  0  0  0
  2  6  1  0  0  0  0
  3  7  1  6  0  0  0
  3  1  1  0  0  0  0
  3  8  1  0  0  0  0
  3  2  1  0  0  0  0
  5  2  1  0  0  0  0
  8  9  1  0  0  0  0
  9 10  1  0  0  0  0
  9 11  2  0  0  0  0
 12 11  1  0  0  0  0
 13 12  2  0  0  0  0
 14 13  1  0  0  0  0
 15 14  2  0  0  0  0
 16 17  2  0  0  0  0
 16 15  1  0  0  0  0
 17 18  1  0  0  0  0
 18  8  2  0  0  0  0
 18 13  1  0  0  0  0
 19 25  1  0  0  0  0
 19 20  1  0  0  0  0
 20 27  1  0  0  0  0
 21 20  2  0  0  0  0
 21  1  1  0  0  0  0
 22 21  1  0  0  0  0
 23 24  1  0  0  0  0
 23 22  2  0  0  0  0
 24 19  2  0  0  0  0
 26 23  1  0  0  0  0
 27 28  1  0  0  0  0
 27 29  1  0  0  0  0
M  END
>  <minimizedAffinity>
-3.81662536

>  <minimizedRMSD>
5.04725838

$$$$
