
 OpenBabel03252505203D

 36 40  0  0  0  0  0  0  0  0999 V2000
   38.1040   31.0750   38.9310 C   0  0  0  0  0  0  0  0  0  0  0  0
   37.3050   31.0290   37.8210 C   0  0  0  0  0  0  0  0  0  0  0  0
   36.3670   30.0320   37.6660 C   0  0  0  0  0  0  0  0  0  0  0  0
   36.2740   29.0960   38.6690 C   0  0  0  0  0  0  0  0  0  0  0  0
   37.0950   29.1540   39.7920 C   0  0  0  0  0  0  0  0  0  0  0  0
   38.0160   30.1670   39.9060 N   0  0  0  0  0  0  0  0  0  0  0  0
   37.4380   31.8000   37.0770 H   0  0  0  0  0  0  0  0  0  0  0  0
   35.7510   30.0090   36.7960 H   0  0  0  0  0  0  0  0  0  0  0  0
   35.5020   28.3740   38.5270 H   0  0  0  0  0  0  0  0  0  0  0  0
   37.0580   28.2840   40.9510 C   0  0  0  0  0  0  0  0  0  0  0  0
   37.1130   28.8830   42.2230 C   0  0  0  0  0  0  0  0  0  0  0  0
   37.1670   29.9660   42.2970 H   0  0  0  0  0  0  0  0  0  0  0  0
   37.1040   28.2290   43.4130 C   0  0  0  0  0  3  0  0  0  0  0  0
   37.0380   26.8560   43.4210 C   0  0  0  0  0  3  0  0  0  0  0  0
   36.9840   26.2010   42.2130 C   0  0  0  0  0  0  0  0  0  0  0  0
   36.9540   24.8280   42.2080 C   0  0  0  0  0  3  0  0  0  0  0  0
   36.9380   24.0910   41.0240 C   0  0  0  0  0  3  0  0  0  0  0  0
   36.9570   24.8440   39.8450 C   0  0  0  0  0  3  0  0  0  0  0  0
   36.9860   26.2170   39.8960 C   0  0  0  0  0  3  0  0  0  0  0  0
   36.9980   26.9210   41.0470 C   0  0  0  0  0  0  0  0  0  0  0  0
   39.9120   34.0480   40.1310 C   0  0  0  0  0  0  0  0  0  0  0  0
   40.9950   34.1600   39.2520 C   0  0  0  0  0  0  0  0  0  0  0  0
   41.0780   33.2030   38.2680 C   0  0  0  0  0  0  0  0  0  0  0  0
   40.1290   32.2120   38.1920 N   0  0  0  0  0  0  0  0  0  0  0  0
   39.0900   32.1400   39.0670 C   0  0  0  0  0  0  0  0  0  0  0  0
   38.9910   33.0610   40.0330 N   0  0  0  0  0  0  0  0  0  0  0  0
   39.7960   34.7760   40.9300 H   0  0  0  0  0  0  0  0  0  0  0  0
   41.7210   34.9460   39.3370 H   0  0  0  0  0  0  0  0  0  0  0  0
   42.1790   33.2390   37.2470 C   0  0  0  0  0  0  0  0  0  0  0  0
   43.3960   34.0380   37.7230 C   0  0  0  0  0  0  0  0  0  0  0  0
   43.3850   32.4910   37.4800 C   0  0  0  0  0  0  0  0  0  0  0  0
   41.8880   33.5390   36.2050 H   0  0  0  0  0  0  0  0  0  0  0  0
   43.4370   34.3620   38.7710 H   0  0  0  0  0  0  0  0  0  0  0  0
   43.9790   34.6220   37.0090 H   0  0  0  0  0  0  0  0  0  0  0  0
   43.4270   31.8550   38.4010 H   0  0  0  0  0  0  0  0  0  0  0  0
   44.0280   32.1460   36.6440 H   0  0  0  0  0  0  0  0  0  0  0  0
  1 25  1  0  0  0  0
  1  6  1  0  0  0  0
  2  1  2  0  0  0  0
  3  2  1  0  0  0  0
  3  4  2  0  0  0  0
  4  5  1  0  0  0  0
  5  6  2  0  0  0  0
  5 10  1  0  0  0  0
  7  2  1  0  0  0  0
  8  3  1  0  0  0  0
  9  4  1  0  0  0  0
 10 20  2  0  0  0  0
 10 11  1  0  0  0  0
 11 12  1  0  0  0  0
 11 13  2  0  0  0  0
 13 14  1  0  0  0  0
 15 14  2  0  0  0  0
 16 15  1  0  0  0  0
 17 16  2  0  0  0  0
 18 19  2  0  0  0  0
 18 17  1  0  0  0  0
 19 20  1  0  0  0  0
 20 15  1  0  0  0  0
 21 27  1  0  0  0  0
 22 28  1  0  0  0  0
 22 21  2  0  0  0  0
 23 22  1  0  0  0  0
 24 23  2  0  0  0  0
 24 25  1  0  0  0  0
 25 26  2  0  0  0  0
 26 21  1  0  0  0  0
 29 31  1  0  0  0  0
 29 30  1  0  0  0  0
 29 23  1  0  0  0  0
 30 33  1  0  0  0  0
 31 30  1  0  0  0  0
 31 35  1  0  0  0  0
 32 29  1  0  0  0  0
 34 30  1  0  0  0  0
 36 31  1  0  0  0  0
M  END
>  <minimizedAffinity>
-6.71914101

$$$$

 OpenBabel03252505203D

 36 40  0  0  0  0  0  0  0  0999 V2000
   37.5950   30.7220   40.8150 C   0  0  0  0  0  0  0  0  0  0  0  0
   36.2660   30.7890   40.4970 C   0  0  0  0  0  0  0  0  0  0  0  0
   35.4480   29.6900   40.6460 C   0  0  0  0  0  0  0  0  0  0  0  0
   36.0250   28.5370   41.1230 C   0  0  0  0  0  0  0  0  0  0  0  0
   37.3800   28.4840   41.4410 C   0  0  0  0  0  0  0  0  0  0  0  0
   38.1580   29.6040   41.2790 N   0  0  0  0  0  0  0  0  0  0  0  0
   35.8870   31.7290   40.1270 H   0  0  0  0  0  0  0  0  0  0  0  0
   34.4140   29.7560   40.3940 H   0  0  0  0  0  0  0  0  0  0  0  0
   35.3430   27.7300   41.2670 H   0  0  0  0  0  0  0  0  0  0  0  0
   38.1020   27.3670   42.0180 C   0  0  0  0  0  0  0  0  0  0  0  0
   39.0310   27.6420   43.0370 C   0  0  0  0  0  0  0  0  0  0  0  0
   39.1690   28.6690   43.3660 H   0  0  0  0  0  0  0  0  0  0  0  0
   39.8040   26.7280   43.6800 C   0  0  0  0  0  3  0  0  0  0  0  0
   39.7020   25.4030   43.3310 C   0  0  0  0  0  3  0  0  0  0  0  0
   38.8140   25.0590   42.3390 C   0  0  0  0  0  0  0  0  0  0  0  0
   38.7280   23.7410   41.9580 C   0  0  0  0  0  3  0  0  0  0  0  0
   37.8800   23.3200   40.9340 C   0  0  0  0  0  3  0  0  0  0  0  0
   37.1270   24.3260   40.3210 C   0  0  0  0  0  3  0  0  0  0  0  0
   37.2420   25.6320   40.7350 C   0  0  0  0  0  3  0  0  0  0  0  0
   38.0630   26.0300   41.7300 C   0  0  0  0  0  0  0  0  0  0  0  0
   38.7220   34.1600   40.1380 C   0  0  0  0  0  0  0  0  0  0  0  0
   40.1080   34.1010   40.3150 C   0  0  0  0  0  0  0  0  0  0  0  0
   40.6220   32.8750   40.6680 C   0  0  0  0  0  0  0  0  0  0  0  0
   39.7820   31.7990   40.8280 N   0  0  0  0  0  0  0  0  0  0  0  0
   38.4380   31.9000   40.6450 C   0  0  0  0  0  0  0  0  0  0  0  0
   37.9170   33.0840   40.3020 N   0  0  0  0  0  0  0  0  0  0  0  0
   38.2600   35.1040   39.8590 H   0  0  0  0  0  0  0  0  0  0  0  0
   40.7400   34.9580   40.1830 H   0  0  0  0  0  0  0  0  0  0  0  0
   42.0990   32.6810   40.8550 C   0  0  0  0  0  0  0  0  0  0  0  0
   42.9310   33.5680   39.9240 C   0  0  0  0  0  0  0  0  0  0  0  0
   42.8760   33.7160   41.4820 C   0  0  0  0  0  0  0  0  0  0  0  0
   42.4740   31.6230   40.8350 H   0  0  0  0  0  0  0  0  0  0  0  0
   42.4210   34.3500   39.3470 H   0  0  0  0  0  0  0  0  0  0  0  0
   43.8750   33.2020   39.5200 H   0  0  0  0  0  0  0  0  0  0  0  0
   42.3240   34.6130   41.8660 H   0  0  0  0  0  0  0  0  0  0  0  0
   43.8290   33.4940   42.0050 H   0  0  0  0  0  0  0  0  0  0  0  0
  1  6  1  0  0  0  0
  2  3  1  0  0  0  0
  2  1  2  0  0  0  0
  3  4  2  0  0  0  0
  4  9  1  0  0  0  0
  4  5  1  0  0  0  0
  5 10  1  0  0  0  0
  6  5  2  0  0  0  0
  7  2  1  0  0  0  0
  8  3  1  0  0  0  0
 10 11  1  0  0  0  0
 11 12  1  0  0  0  0
 11 13  2  0  0  0  0
 14 13  1  0  0  0  0
 15 14  2  0  0  0  0
 16 15  1  0  0  0  0
 17 16  2  0  0  0  0
 18 19  2  0  0  0  0
 18 17  1  0  0  0  0
 19 20  1  0  0  0  0
 20 10  2  0  0  0  0
 20 15  1  0  0  0  0
 21 26  2  0  0  0  0
 21 22  1  0  0  0  0
 22 23  2  0  0  0  0
 23 24  1  0  0  0  0
 23 29  1  0  0  0  0
 25  1  1  0  0  0  0
 25 24  2  0  0  0  0
 26 25  1  0  0  0  0
 27 21  1  0  0  0  0
 28 22  1  0  0  0  0
 29 31  1  0  0  0  0
 30 29  1  0  0  0  0
 30 31  1  0  0  0  0
 31 35  1  0  0  0  0
 31 36  1  0  0  0  0
 32 29  1  0  0  0  0
 33 30  1  0  0  0  0
 34 30  1  0  0  0  0
M  END
>  <minimizedAffinity>
-6.70298767

$$$$

 OpenBabel03252505203D

 36 40  0  0  0  0  0  0  0  0999 V2000
   34.7980   28.2420   38.1870 C   0  0  0  0  0  0  0  0  0  0  0  0
   34.8620   26.9290   37.8070 C   0  0  0  0  0  0  0  0  0  0  0  0
   33.9920   26.4220   36.8670 C   0  0  0  0  0  0  0  0  0  0  0  0
   33.0680   27.2890   36.3340 C   0  0  0  0  0  0  0  0  0  0  0  0
   33.0140   28.6220   36.7310 C   0  0  0  0  0  0  0  0  0  0  0  0
   33.9020   29.0860   37.6710 N   0  0  0  0  0  0  0  0  0  0  0  0
   35.6150   26.3100   38.2720 H   0  0  0  0  0  0  0  0  0  0  0  0
   34.0530   25.3970   36.5810 H   0  0  0  0  0  0  0  0  0  0  0  0
   32.4500   26.8630   35.5760 H   0  0  0  0  0  0  0  0  0  0  0  0
   32.1460   29.6590   36.2060 C   0  0  0  0  0  0  0  0  0  0  0  0
   32.4220   30.1550   34.9190 C   0  0  0  0  0  0  0  0  0  0  0  0
   33.2570   29.7430   34.3590 H   0  0  0  0  0  0  0  0  0  0  0  0
   31.7290   31.1300   34.2750 C   0  0  0  0  0  3  0  0  0  0  0  0
   30.6550   31.7140   34.9030 C   0  0  0  0  0  3  0  0  0  0  0  0
   30.3280   31.2800   36.1670 C   0  0  0  0  0  0  0  0  0  0  0  0
   29.2780   31.8800   36.8200 C   0  0  0  0  0  3  0  0  0  0  0  0
   28.9100   31.5240   38.1160 C   0  0  0  0  0  3  0  0  0  0  0  0
   29.6810   30.5170   38.7070 C   0  0  0  0  0  3  0  0  0  0  0  0
   30.7220   29.9420   38.0180 C   0  0  0  0  0  3  0  0  0  0  0  0
   31.0690   30.2920   36.7610 C   0  0  0  0  0  0  0  0  0  0  0  0
   37.1500   30.4110   40.0070 C   0  0  0  0  0  0  0  0  0  0  0  0
   37.5190   29.6480   41.1190 C   0  0  0  0  0  0  0  0  0  0  0  0
   36.9430   28.4030   41.2180 C   0  0  0  0  0  0  0  0  0  0  0  0
   36.0600   27.9770   40.2540 N   0  0  0  0  0  0  0  0  0  0  0  0
   35.7300   28.7510   39.1860 C   0  0  0  0  0  0  0  0  0  0  0  0
   36.2780   29.9660   39.0710 N   0  0  0  0  0  0  0  0  0  0  0  0
   37.5740   31.4040   39.8760 H   0  0  0  0  0  0  0  0  0  0  0  0
   38.2110   30.0080   41.8560 H   0  0  0  0  0  0  0  0  0  0  0  0
   37.2860   27.4810   42.3520 C   0  0  0  0  0  0  0  0  0  0  0  0
   37.6890   28.2360   43.6220 C   0  0  0  0  0  0  0  0  0  0  0  0
   36.3910   27.3740   43.4740 C   0  0  0  0  0  0  0  0  0  0  0  0
   38.0170   26.6600   42.1290 H   0  0  0  0  0  0  0  0  0  0  0  0
   37.5450   29.3230   43.6570 H   0  0  0  0  0  0  0  0  0  0  0  0
   38.4540   27.8250   44.2830 H   0  0  0  0  0  0  0  0  0  0  0  0
   35.4300   27.9470   43.4220 H   0  0  0  0  0  0  0  0  0  0  0  0
   36.3600   26.4650   44.1100 H   0  0  0  0  0  0  0  0  0  0  0  0
  1 25  1  0  0  0  0
  2  1  1  0  0  0  0
  2  7  1  0  0  0  0
  3  2  2  0  0  0  0
  4  5  2  0  0  0  0
  4  3  1  0  0  0  0
  5  6  1  0  0  0  0
  6  1  2  0  0  0  0
  8  3  1  0  0  0  0
  9  4  1  0  0  0  0
 10  5  1  0  0  0  0
 10 20  1  0  0  0  0
 11 10  2  0  0  0  0
 12 11  1  0  0  0  0
 13 14  2  0  0  0  0
 13 11  1  0  0  0  0
 14 15  1  0  0  0  0
 15 20  2  0  0  0  0
 15 16  1  0  0  0  0
 16 17  2  0  0  0  0
 17 18  1  0  0  0  0
 19 18  2  0  0  0  0
 20 19  1  0  0  0  0
 21 22  1  0  0  0  0
 22 23  2  0  0  0  0
 22 28  1  0  0  0  0
 23 29  1  0  0  0  0
 24 23  1  0  0  0  0
 25 24  2  0  0  0  0
 26 25  1  0  0  0  0
 26 21  2  0  0  0  0
 27 21  1  0  0  0  0
 29 31  1  0  0  0  0
 29 30  1  0  0  0  0
 30 33  1  0  0  0  0
 30 34  1  0  0  0  0
 31 30  1  0  0  0  0
 31 36  1  0  0  0  0
 32 29  1  0  0  0  0
 35 31  1  0  0  0  0
M  END
>  <minimizedAffinity>
-6.59250164

$$$$

 OpenBabel03252505203D

 36 40  0  0  0  0  0  0  0  0999 V2000
   38.5900   30.5700   38.2320 C   0  0  0  0  0  0  0  0  0  0  0  0
   37.5510   30.7700   37.3650 C   0  0  0  0  0  0  0  0  0  0  0  0
   36.3210   30.1920   37.5910 C   0  0  0  0  0  0  0  0  0  0  0  0
   36.1900   29.4130   38.7160 C   0  0  0  0  0  0  0  0  0  0  0  0
   37.2580   29.2170   39.5890 C   0  0  0  0  0  0  0  0  0  0  0  0
   38.4670   29.8150   39.3250 N   0  0  0  0  0  0  0  0  0  0  0  0
   37.7310   31.3940   36.5030 H   0  0  0  0  0  0  0  0  0  0  0  0
   35.5200   30.3560   36.9070 H   0  0  0  0  0  0  0  0  0  0  0  0
   35.2090   29.0270   38.8740 H   0  0  0  0  0  0  0  0  0  0  0  0
   37.2450   28.4860   40.8410 C   0  0  0  0  0  0  0  0  0  0  0  0
   37.4590   29.2120   42.0260 C   0  0  0  0  0  0  0  0  0  0  0  0
   37.6130   30.2870   41.9700 H   0  0  0  0  0  0  0  0  0  0  0  0
   37.4940   28.6960   43.2820 C   0  0  0  0  0  3  0  0  0  0  0  0
   37.3100   27.3450   43.4550 C   0  0  0  0  0  3  0  0  0  0  0  0
   37.0980   26.5700   42.3390 C   0  0  0  0  0  0  0  0  0  0  0  0
   36.9470   25.2140   42.4960 C   0  0  0  0  0  3  0  0  0  0  0  0
   36.7670   24.3570   41.4100 C   0  0  0  0  0  3  0  0  0  0  0  0
   36.7510   24.9710   40.1530 C   0  0  0  0  0  3  0  0  0  0  0  0
   36.9030   26.3330   40.0420 C   0  0  0  0  0  3  0  0  0  0  0  0
   37.0740   27.1540   41.0990 C   0  0  0  0  0  0  0  0  0  0  0  0
   41.2750   33.0640   37.8770 C   0  0  0  0  0  0  0  0  0  0  0  0
   42.3660   32.3200   37.4150 C   0  0  0  0  0  0  0  0  0  0  0  0
   42.1500   30.9720   37.2420 C   0  0  0  0  0  0  0  0  0  0  0  0
   40.9170   30.4330   37.5200 N   0  0  0  0  0  0  0  0  0  0  0  0
   39.8820   31.1940   37.9660 C   0  0  0  0  0  0  0  0  0  0  0  0
   40.0700   32.5070   38.1420 N   0  0  0  0  0  0  0  0  0  0  0  0
   41.3870   34.1340   38.0330 H   0  0  0  0  0  0  0  0  0  0  0  0
   43.3180   32.7690   37.2070 H   0  0  0  0  0  0  0  0  0  0  0  0
   43.2380   30.0770   36.7220 C   0  0  0  0  0  0  0  0  0  0  0  0
   42.6950   28.7690   36.1400 C   0  0  0  0  0  0  0  0  0  0  0  0
   43.3890   29.8960   35.3030 C   0  0  0  0  0  0  0  0  0  0  0  0
   44.0990   29.8770   37.4150 H   0  0  0  0  0  0  0  0  0  0  0  0
   41.6110   28.6630   36.0030 H   0  0  0  0  0  0  0  0  0  0  0  0
   43.2650   27.8450   36.2470 H   0  0  0  0  0  0  0  0  0  0  0  0
   42.7140   30.4890   34.6340 H   0  0  0  0  0  0  0  0  0  0  0  0
   44.3610   29.6090   34.8520 H   0  0  0  0  0  0  0  0  0  0  0  0
  1  6  1  0  0  0  0
  2  3  1  0  0  0  0
  2  1  2  0  0  0  0
  3  4  2  0  0  0  0
  4  9  1  0  0  0  0
  4  5  1  0  0  0  0
  5 10  1  0  0  0  0
  6  5  2  0  0  0  0
  7  2  1  0  0  0  0
  8  3  1  0  0  0  0
 10 20  2  0  0  0  0
 10 11  1  0  0  0  0
 11 13  2  0  0  0  0
 12 11  1  0  0  0  0
 13 14  1  0  0  0  0
 15 16  1  0  0  0  0
 15 14  2  0  0  0  0
 17 16  2  0  0  0  0
 18 17  1  0  0  0  0
 19 18  2  0  0  0  0
 19 20  1  0  0  0  0
 20 15  1  0  0  0  0
 21 27  1  0  0  0  0
 21 26  1  0  0  0  0
 22 21  2  0  0  0  0
 23 22  1  0  0  0  0
 23 24  2  0  0  0  0
 24 25  1  0  0  0  0
 25 26  2  0  0  0  0
 25  1  1  0  0  0  0
 28 22  1  0  0  0  0
 29 23  1  0  0  0  0
 29 32  1  0  0  0  0
 30 34  1  0  0  0  0
 30 29  1  0  0  0  0
 31 30  1  0  0  0  0
 31 29  1  0  0  0  0
 33 30  1  0  0  0  0
 35 31  1  0  0  0  0
 36 31  1  0  0  0  0
M  END
>  <minimizedAffinity>
-6.55623865

$$$$

 OpenBabel03252505203D

 36 40  0  0  0  0  0  0  0  0999 V2000
   38.6580   31.1540   38.6460 C   0  0  0  0  0  0  0  0  0  0  0  0
   37.6980   31.2080   37.6720 C   0  0  0  0  0  0  0  0  0  0  0  0
   36.5760   30.4130   37.7410 C   0  0  0  0  0  0  0  0  0  0  0  0
   36.4670   29.5720   38.8240 C   0  0  0  0  0  0  0  0  0  0  0  0
   37.4530   29.5270   39.8060 C   0  0  0  0  0  0  0  0  0  0  0  0
   38.5560   30.3390   39.6970 N   0  0  0  0  0  0  0  0  0  0  0  0
   37.8550   31.8940   36.8530 H   0  0  0  0  0  0  0  0  0  0  0  0
   35.8360   30.4660   36.9760 H   0  0  0  0  0  0  0  0  0  0  0  0
   35.5600   29.0130   38.8580 H   0  0  0  0  0  0  0  0  0  0  0  0
   37.4370   28.7480   41.0290 C   0  0  0  0  0  0  0  0  0  0  0  0
   37.6520   29.4260   42.2420 C   0  0  0  0  0  0  0  0  0  0  0  0
   37.8100   30.5010   42.2270 H   0  0  0  0  0  0  0  0  0  0  0  0
   37.6860   28.8610   43.4760 C   0  0  0  0  0  3  0  0  0  0  0  0
   37.4990   27.5050   43.5960 C   0  0  0  0  0  3  0  0  0  0  0  0
   37.2840   26.7750   42.4500 C   0  0  0  0  0  0  0  0  0  0  0  0
   37.1310   25.4130   42.5550 C   0  0  0  0  0  3  0  0  0  0  0  0
   36.9490   24.6010   41.4360 C   0  0  0  0  0  3  0  0  0  0  0  0
   36.9350   25.2630   40.2040 C   0  0  0  0  0  3  0  0  0  0  0  0
   37.0910   26.6280   40.1460 C   0  0  0  0  0  3  0  0  0  0  0  0
   37.2630   27.4070   41.2340 C   0  0  0  0  0  0  0  0  0  0  0  0
   41.5460   33.0020   37.3050 C   0  0  0  0  0  0  0  0  0  0  0  0
   42.0990   33.6230   38.4300 C   0  0  0  0  0  0  0  0  0  0  0  0
   41.4590   33.3920   39.6250 C   0  0  0  0  0  0  0  0  0  0  0  0
   40.3430   32.5920   39.6630 N   0  0  0  0  0  0  0  0  0  0  0  0
   39.8380   32.0060   38.5450 C   0  0  0  0  0  0  0  0  0  0  0  0
   40.4450   32.2170   37.3710 N   0  0  0  0  0  0  0  0  0  0  0  0
   42.0090   33.1480   36.3320 H   0  0  0  0  0  0  0  0  0  0  0  0
   42.9720   34.2440   38.3690 H   0  0  0  0  0  0  0  0  0  0  0  0
   41.9790   33.9810   40.9050 C   0  0  0  0  0  0  0  0  0  0  0  0
   42.6960   32.9470   41.7780 C   0  0  0  0  0  0  0  0  0  0  0  0
   43.3960   34.1610   41.0780 C   0  0  0  0  0  0  0  0  0  0  0  0
   41.2510   34.5800   41.5150 H   0  0  0  0  0  0  0  0  0  0  0  0
   42.9100   31.9580   41.3550 H   0  0  0  0  0  0  0  0  0  0  0  0
   42.6270   33.0080   42.8650 H   0  0  0  0  0  0  0  0  0  0  0  0
   44.0570   33.9060   40.2100 H   0  0  0  0  0  0  0  0  0  0  0  0
   43.8060   34.9250   41.7700 H   0  0  0  0  0  0  0  0  0  0  0  0
  1  6  1  0  0  0  0
  2  3  1  0  0  0  0
  2  1  2  0  0  0  0
  3  4  2  0  0  0  0
  4  9  1  0  0  0  0
  4  5  1  0  0  0  0
  5 10  1  0  0  0  0
  6  5  2  0  0  0  0
  7  2  1  0  0  0  0
  8  3  1  0  0  0  0
 10 20  2  0  0  0  0
 10 11  1  0  0  0  0
 11 13  2  0  0  0  0
 12 11  1  0  0  0  0
 13 14  1  0  0  0  0
 15 16  1  0  0  0  0
 15 14  2  0  0  0  0
 17 16  2  0  0  0  0
 18 17  1  0  0  0  0
 19 18  2  0  0  0  0
 19 20  1  0  0  0  0
 20 15  1  0  0  0  0
 21 26  2  0  0  0  0
 21 22  1  0  0  0  0
 22 23  2  0  0  0  0
 23 24  1  0  0  0  0
 23 29  1  0  0  0  0
 25  1  1  0  0  0  0
 25 24  2  0  0  0  0
 26 25  1  0  0  0  0
 27 21  1  0  0  0  0
 28 22  1  0  0  0  0
 29 31  1  0  0  0  0
 29 32  1  0  0  0  0
 29 30  1  0  0  0  0
 30 34  1  0  0  0  0
 31 36  1  0  0  0  0
 31 30  1  0  0  0  0
 33 30  1  0  0  0  0
 35 31  1  0  0  0  0
M  END
>  <minimizedAffinity>
-6.50206041

$$$$

 OpenBabel03252505203D

 36 40  0  0  0  0  0  0  0  0999 V2000
   34.6250   28.4930   38.1920 C   0  0  0  0  0  0  0  0  0  0  0  0
   34.7870   27.3920   37.3960 C   0  0  0  0  0  0  0  0  0  0  0  0
   33.8230   27.0360   36.4780 C   0  0  0  0  0  0  0  0  0  0  0  0
   32.7040   27.8320   36.4010 C   0  0  0  0  0  0  0  0  0  0  0  0
   32.5530   28.9480   37.2190 C   0  0  0  0  0  0  0  0  0  0  0  0
   33.5410   29.2670   38.1200 N   0  0  0  0  0  0  0  0  0  0  0  0
   35.6920   26.8160   37.5150 H   0  0  0  0  0  0  0  0  0  0  0  0
   33.9610   26.1750   35.8640 H   0  0  0  0  0  0  0  0  0  0  0  0
   32.0100   27.5450   35.6440 H   0  0  0  0  0  0  0  0  0  0  0  0
   31.4690   29.9110   37.1980 C   0  0  0  0  0  0  0  0  0  0  0  0
   30.6560   30.0080   38.3410 C   0  0  0  0  0  0  0  0  0  0  0  0
   30.8690   29.3760   39.1990 H   0  0  0  0  0  0  0  0  0  0  0  0
   29.5920   30.8390   38.4940 C   0  0  0  0  0  3  0  0  0  0  0  0
   29.2440   31.6770   37.4620 C   0  0  0  0  0  3  0  0  0  0  0  0
   29.9940   31.6350   36.3100 C   0  0  0  0  0  0  0  0  0  0  0  0
   29.6340   32.4430   35.2580 C   0  0  0  0  0  3  0  0  0  0  0  0
   30.3210   32.4290   34.0450 C   0  0  0  0  0  3  0  0  0  0  0  0
   31.3980   31.5390   33.9700 C   0  0  0  0  0  3  0  0  0  0  0  0
   31.7240   30.7500   35.0480 C   0  0  0  0  0  3  0  0  0  0  0  0
   31.0560   30.7720   36.2200 C   0  0  0  0  0  0  0  0  0  0  0  0
   37.5620   30.0480   39.7760 C   0  0  0  0  0  0  0  0  0  0  0  0
   37.6210   29.4460   41.0370 C   0  0  0  0  0  0  0  0  0  0  0  0
   36.6420   28.5210   41.3140 C   0  0  0  0  0  0  0  0  0  0  0  0
   35.6810   28.2360   40.3740 N   0  0  0  0  0  0  0  0  0  0  0  0
   35.6610   28.8430   39.1570 C   0  0  0  0  0  0  0  0  0  0  0  0
   36.6040   29.7480   38.8670 N   0  0  0  0  0  0  0  0  0  0  0  0
   38.3100   30.7870   39.5010 H   0  0  0  0  0  0  0  0  0  0  0  0
   38.3840   29.6890   41.7520 H   0  0  0  0  0  0  0  0  0  0  0  0
   36.6210   27.7880   42.6240 C   0  0  0  0  0  0  0  0  0  0  0  0
   37.1530   26.3570   42.5060 C   0  0  0  0  0  0  0  0  0  0  0  0
   37.8600   27.5070   43.3000 C   0  0  0  0  0  0  0  0  0  0  0  0
   35.6540   27.8070   43.1950 H   0  0  0  0  0  0  0  0  0  0  0  0
   37.6350   26.0500   41.5690 H   0  0  0  0  0  0  0  0  0  0  0  0
   36.7220   25.5610   43.1160 H   0  0  0  0  0  0  0  0  0  0  0  0
   38.7990   27.9090   42.8400 H   0  0  0  0  0  0  0  0  0  0  0  0
   37.9040   27.3560   44.3980 H   0  0  0  0  0  0  0  0  0  0  0  0
  1 25  1  0  0  0  0
  2  7  1  0  0  0  0
  2  1  2  0  0  0  0
  3  2  1  0  0  0  0
  4  3  2  0  0  0  0
  4  5  1  0  0  0  0
  5  6  2  0  0  0  0
  6  1  1  0  0  0  0
  8  3  1  0  0  0  0
  9  4  1  0  0  0  0
 10  5  1  0  0  0  0
 10 11  1  0  0  0  0
 11 13  2  0  0  0  0
 11 12  1  0  0  0  0
 14 13  1  0  0  0  0
 15 14  2  0  0  0  0
 16 15  1  0  0  0  0
 17 16  2  0  0  0  0
 18 17  1  0  0  0  0
 18 19  2  0  0  0  0
 19 20  1  0  0  0  0
 20 15  1  0  0  0  0
 20 10  2  0  0  0  0
 21 22  1  0  0  0  0
 22 23  2  0  0  0  0
 22 28  1  0  0  0  0
 23 29  1  0  0  0  0
 24 23  1  0  0  0  0
 25 24  2  0  0  0  0
 26 25  1  0  0  0  0
 26 21  2  0  0  0  0
 27 21  1  0  0  0  0
 29 32  1  0  0  0  0
 29 31  1  0  0  0  0
 30 29  1  0  0  0  0
 30 34  1  0  0  0  0
 30 31  1  0  0  0  0
 31 36  1  0  0  0  0
 33 30  1  0  0  0  0
 35 31  1  0  0  0  0
M  END
>  <minimizedAffinity>
-6.46174765

$$$$

 OpenBabel03252505203D

 36 40  0  0  0  0  0  0  0  0999 V2000
   35.9590   28.5410   38.4660 C   0  0  0  0  0  0  0  0  0  0  0  0
   35.5490   29.6520   39.1500 C   0  0  0  0  0  0  0  0  0  0  0  0
   35.6430   29.7110   40.5230 C   0  0  0  0  0  0  0  0  0  0  0  0
   36.1620   28.6110   41.1650 C   0  0  0  0  0  0  0  0  0  0  0  0
   36.5730   27.4860   40.4550 C   0  0  0  0  0  0  0  0  0  0  0  0
   36.4620   27.4720   39.0860 N   0  0  0  0  0  0  0  0  0  0  0  0
   35.1520   30.4760   38.5760 H   0  0  0  0  0  0  0  0  0  0  0  0
   35.3200   30.5830   41.0440 H   0  0  0  0  0  0  0  0  0  0  0  0
   36.2590   28.7220   42.2210 H   0  0  0  0  0  0  0  0  0  0  0  0
   37.2000   26.2930   40.9890 C   0  0  0  0  0  0  0  0  0  0  0  0
   36.6630   25.0470   40.6160 C   0  0  0  0  0  0  0  0  0  0  0  0
   35.8140   25.0170   39.9390 H   0  0  0  0  0  0  0  0  0  0  0  0
   37.1100   23.8320   41.0280 C   0  0  0  0  0  3  0  0  0  0  0  0
   38.1800   23.7680   41.8870 C   0  0  0  0  0  3  0  0  0  0  0  0
   38.7550   24.9490   42.2970 C   0  0  0  0  0  0  0  0  0  0  0  0
   39.8030   24.8990   43.1840 C   0  0  0  0  0  3  0  0  0  0  0  0
   40.4130   26.0530   43.6750 C   0  0  0  0  0  3  0  0  0  0  0  0
   39.8870   27.2610   43.2070 C   0  0  0  0  0  3  0  0  0  0  0  0
   38.8380   27.2640   42.3180 C   0  0  0  0  0  3  0  0  0  0  0  0
   38.2560   26.1430   41.8450 C   0  0  0  0  0  0  0  0  0  0  0  0
   35.3280   27.3990   35.0230 C   0  0  0  0  0  0  0  0  0  0  0  0
   35.6770   28.5010   34.2350 C   0  0  0  0  0  0  0  0  0  0  0  0
   36.1170   29.6150   34.9110 C   0  0  0  0  0  0  0  0  0  0  0  0
   36.1930   29.6000   36.2830 N   0  0  0  0  0  0  0  0  0  0  0  0
   35.8450   28.5060   37.0120 C   0  0  0  0  0  0  0  0  0  0  0  0
   35.4130   27.4110   36.3740 N   0  0  0  0  0  0  0  0  0  0  0  0
   34.9730   26.4910   34.5430 H   0  0  0  0  0  0  0  0  0  0  0  0
   35.6070   28.4840   33.1640 H   0  0  0  0  0  0  0  0  0  0  0  0
   36.5490   30.8480   34.1700 C   0  0  0  0  0  0  0  0  0  0  0  0
   36.6410   30.6230   32.6580 C   0  0  0  0  0  0  0  0  0  0  0  0
   35.5960   31.5560   33.3580 C   0  0  0  0  0  0  0  0  0  0  0  0
   37.4680   31.3670   34.5520 H   0  0  0  0  0  0  0  0  0  0  0  0
   36.2480   29.6870   32.2400 H   0  0  0  0  0  0  0  0  0  0  0  0
   37.4100   31.1320   32.0760 H   0  0  0  0  0  0  0  0  0  0  0  0
   34.5390   31.1850   33.3620 H   0  0  0  0  0  0  0  0  0  0  0  0
   35.7120   32.6370   33.1320 H   0  0  0  0  0  0  0  0  0  0  0  0
  1  6  2  0  0  0  0
  1  2  1  0  0  0  0
  2  3  2  0  0  0  0
  3  8  1  0  0  0  0
  3  4  1  0  0  0  0
  4  9  1  0  0  0  0
  5 10  1  0  0  0  0
  5  4  2  0  0  0  0
  6  5  1  0  0  0  0
  7  2  1  0  0  0  0
 10 20  1  0  0  0  0
 11 10  2  0  0  0  0
 11 13  1  0  0  0  0
 12 11  1  0  0  0  0
 13 14  2  0  0  0  0
 14 15  1  0  0  0  0
 15 16  1  0  0  0  0
 16 17  2  0  0  0  0
 18 17  1  0  0  0  0
 19 18  2  0  0  0  0
 20 15  2  0  0  0  0
 20 19  1  0  0  0  0
 21 26  1  0  0  0  0
 22 23  1  0  0  0  0
 22 21  2  0  0  0  0
 23 24  2  0  0  0  0
 24 25  1  0  0  0  0
 25  1  1  0  0  0  0
 26 25  2  0  0  0  0
 27 21  1  0  0  0  0
 28 22  1  0  0  0  0
 29 32  1  0  0  0  0
 29 23  1  0  0  0  0
 30 31  1  0  0  0  0
 30 29  1  0  0  0  0
 31 35  1  0  0  0  0
 31 29  1  0  0  0  0
 33 30  1  0  0  0  0
 34 30  1  0  0  0  0
 36 31  1  0  0  0  0
M  END
>  <minimizedAffinity>
-6.2462039

$$$$

 OpenBabel03252505203D

 36 40  0  0  0  0  0  0  0  0999 V2000
   34.6720   28.0800   38.0670 C   0  0  0  0  0  0  0  0  0  0  0  0
   34.7160   26.7930   37.6050 C   0  0  0  0  0  0  0  0  0  0  0  0
   33.8480   26.3640   36.6250 C   0  0  0  0  0  0  0  0  0  0  0  0
   32.9460   27.2810   36.1390 C   0  0  0  0  0  0  0  0  0  0  0  0
   32.9130   28.5870   36.6200 C   0  0  0  0  0  0  0  0  0  0  0  0
   33.7980   28.9720   37.5970 N   0  0  0  0  0  0  0  0  0  0  0  0
   35.4520   26.1310   38.0360 H   0  0  0  0  0  0  0  0  0  0  0  0
   33.8930   25.3580   36.2750 H   0  0  0  0  0  0  0  0  0  0  0  0
   32.3300   26.9170   35.3490 H   0  0  0  0  0  0  0  0  0  0  0  0
   32.0710   29.6720   36.1530 C   0  0  0  0  0  0  0  0  0  0  0  0
   32.3410   30.2110   34.8830 C   0  0  0  0  0  0  0  0  0  0  0  0
   33.1530   29.7950   34.2920 H   0  0  0  0  0  0  0  0  0  0  0  0
   31.6700   31.2340   34.2920 C   0  0  0  0  0  3  0  0  0  0  0  0
   30.6270   31.8250   34.9630 C   0  0  0  0  0  3  0  0  0  0  0  0
   30.3070   31.3510   36.2140 C   0  0  0  0  0  0  0  0  0  0  0  0
   29.2880   31.9570   36.9090 C   0  0  0  0  0  3  0  0  0  0  0  0
   28.9310   31.5590   38.1970 C   0  0  0  0  0  3  0  0  0  0  0  0
   29.6780   30.5050   38.7320 C   0  0  0  0  0  3  0  0  0  0  0  0
   30.6880   29.9260   38.0010 C   0  0  0  0  0  3  0  0  0  0  0  0
   31.0250   30.3150   36.7540 C   0  0  0  0  0  0  0  0  0  0  0  0
   37.0610   28.0380   40.8680 C   0  0  0  0  0  0  0  0  0  0  0  0
   37.3440   29.3900   41.0880 C   0  0  0  0  0  0  0  0  0  0  0  0
   36.7080   30.2850   40.2600 C   0  0  0  0  0  0  0  0  0  0  0  0
   35.8510   29.8300   39.2870 N   0  0  0  0  0  0  0  0  0  0  0  0
   35.6020   28.5050   39.1070 C   0  0  0  0  0  0  0  0  0  0  0  0
   36.2110   27.6170   39.9010 N   0  0  0  0  0  0  0  0  0  0  0  0
   37.5360   27.2850   41.4920 H   0  0  0  0  0  0  0  0  0  0  0  0
   38.0190   29.7160   41.8560 H   0  0  0  0  0  0  0  0  0  0  0  0
   36.9100   31.7640   40.4210 C   0  0  0  0  0  0  0  0  0  0  0  0
   38.3650   32.1860   40.2010 C   0  0  0  0  0  0  0  0  0  0  0  0
   37.1740   32.5740   39.2620 C   0  0  0  0  0  0  0  0  0  0  0  0
   36.4980   32.2290   41.3570 H   0  0  0  0  0  0  0  0  0  0  0  0
   39.0730   31.4490   39.8030 H   0  0  0  0  0  0  0  0  0  0  0  0
   38.7900   33.0050   40.7830 H   0  0  0  0  0  0  0  0  0  0  0  0
   37.1560   32.0650   38.2640 H   0  0  0  0  0  0  0  0  0  0  0  0
   36.9310   33.6570   39.2400 H   0  0  0  0  0  0  0  0  0  0  0  0
  1 25  1  0  0  0  0
  2  7  1  0  0  0  0
  2  1  1  0  0  0  0
  3  2  2  0  0  0  0
  4  5  2  0  0  0  0
  4  3  1  0  0  0  0
  5  6  1  0  0  0  0
  6  1  2  0  0  0  0
  8  3  1  0  0  0  0
  9  4  1  0  0  0  0
 10  5  1  0  0  0  0
 10 20  1  0  0  0  0
 11 10  2  0  0  0  0
 12 11  1  0  0  0  0
 13 11  1  0  0  0  0
 13 14  2  0  0  0  0
 14 15  1  0  0  0  0
 15 20  2  0  0  0  0
 15 16  1  0  0  0  0
 16 17  2  0  0  0  0
 17 18  1  0  0  0  0
 19 18  2  0  0  0  0
 20 19  1  0  0  0  0
 21 22  1  0  0  0  0
 21 27  1  0  0  0  0
 22 28  1  0  0  0  0
 23 29  1  0  0  0  0
 23 22  2  0  0  0  0
 24 23  1  0  0  0  0
 25 24  2  0  0  0  0
 25 26  1  0  0  0  0
 26 21  2  0  0  0  0
 29 32  1  0  0  0  0
 30 29  1  0  0  0  0
 30 34  1  0  0  0  0
 31 30  1  0  0  0  0
 31 29  1  0  0  0  0
 33 30  1  0  0  0  0
 35 31  1  0  0  0  0
 36 31  1  0  0  0  0
M  END
>  <minimizedAffinity>
-6.22324944

$$$$

 OpenBabel03252505203D

 36 40  0  0  0  0  0  0  0  0999 V2000
   35.0970   28.6520   37.0330 C   0  0  0  0  0  0  0  0  0  0  0  0
   36.0920   29.0220   36.1700 C   0  0  0  0  0  0  0  0  0  0  0  0
   37.4140   28.7700   36.4670 C   0  0  0  0  0  0  0  0  0  0  0  0
   37.6810   28.1350   37.6570 C   0  0  0  0  0  0  0  0  0  0  0  0
   36.6570   27.7660   38.5260 C   0  0  0  0  0  0  0  0  0  0  0  0
   35.3530   28.0360   38.1890 N   0  0  0  0  0  0  0  0  0  0  0  0
   35.8030   29.5160   35.2550 H   0  0  0  0  0  0  0  0  0  0  0  0
   38.1790   29.0630   35.7850 H   0  0  0  0  0  0  0  0  0  0  0  0
   38.7120   27.9190   37.8190 H   0  0  0  0  0  0  0  0  0  0  0  0
   36.7850   27.0340   39.7700 C   0  0  0  0  0  0  0  0  0  0  0  0
   36.6160   25.6380   39.7300 C   0  0  0  0  0  0  0  0  0  0  0  0
   36.4100   25.1560   38.7780 H   0  0  0  0  0  0  0  0  0  0  0  0
   36.6850   24.7950   40.7930 C   0  0  0  0  0  3  0  0  0  0  0  0
   36.9400   25.3120   42.0400 C   0  0  0  0  0  3  0  0  0  0  0  0
   37.1150   26.6720   42.1570 C   0  0  0  0  0  0  0  0  0  0  0  0
   37.3350   27.2050   43.4040 C   0  0  0  0  0  3  0  0  0  0  0  0
   37.4830   28.5760   43.6090 C   0  0  0  0  0  3  0  0  0  0  0  0
   37.3890   29.3710   42.4620 C   0  0  0  0  0  3  0  0  0  0  0  0
   37.1690   28.7960   41.2320 C   0  0  0  0  0  3  0  0  0  0  0  0
   37.0310   27.4670   41.0440 C   0  0  0  0  0  0  0  0  0  0  0  0
   31.9720   29.1170   35.1440 C   0  0  0  0  0  0  0  0  0  0  0  0
   31.0470   29.5120   36.1160 C   0  0  0  0  0  0  0  0  0  0  0  0
   31.5230   29.6040   37.4030 C   0  0  0  0  0  0  0  0  0  0  0  0
   32.8390   29.3140   37.6710 N   0  0  0  0  0  0  0  0  0  0  0  0
   33.7060   28.9340   36.6940 C   0  0  0  0  0  0  0  0  0  0  0  0
   33.2640   28.8380   35.4350 N   0  0  0  0  0  0  0  0  0  0  0  0
   31.6520   29.0270   34.1090 H   0  0  0  0  0  0  0  0  0  0  0  0
   30.0240   29.7320   35.8780 H   0  0  0  0  0  0  0  0  0  0  0  0
   30.6310   30.0480   38.5270 C   0  0  0  0  0  0  0  0  0  0  0  0
   29.7460   31.2360   38.1410 C   0  0  0  0  0  0  0  0  0  0  0  0
   29.2170   29.7960   38.4510 C   0  0  0  0  0  0  0  0  0  0  0  0
   31.1240   30.2250   39.5200 H   0  0  0  0  0  0  0  0  0  0  0  0
   29.7110   31.5470   37.0890 H   0  0  0  0  0  0  0  0  0  0  0  0
   29.4990   31.9980   38.8820 H   0  0  0  0  0  0  0  0  0  0  0  0
   28.8440   29.2140   37.5690 H   0  0  0  0  0  0  0  0  0  0  0  0
   28.5890   29.7160   39.3630 H   0  0  0  0  0  0  0  0  0  0  0  0
  1  6  1  0  0  0  0
  2  3  1  0  0  0  0
  2  1  2  0  0  0  0
  3  4  2  0  0  0  0
  4  9  1  0  0  0  0
  4  5  1  0  0  0  0
  5 10  1  0  0  0  0
  6  5  2  0  0  0  0
  7  2  1  0  0  0  0
  8  3  1  0  0  0  0
 10 20  1  0  0  0  0
 11 10  2  0  0  0  0
 11 13  1  0  0  0  0
 12 11  1  0  0  0  0
 13 14  2  0  0  0  0
 14 15  1  0  0  0  0
 15 16  1  0  0  0  0
 16 17  2  0  0  0  0
 18 17  1  0  0  0  0
 19 18  2  0  0  0  0
 20 19  1  0  0  0  0
 20 15  2  0  0  0  0
 21 26  2  0  0  0  0
 21 22  1  0  0  0  0
 22 23  2  0  0  0  0
 23 24  1  0  0  0  0
 23 29  1  0  0  0  0
 25  1  1  0  0  0  0
 25 24  2  0  0  0  0
 26 25  1  0  0  0  0
 27 21  1  0  0  0  0
 28 22  1  0  0  0  0
 29 32  1  0  0  0  0
 30 31  1  0  0  0  0
 30 29  1  0  0  0  0
 30 34  1  0  0  0  0
 31 29  1  0  0  0  0
 31 36  1  0  0  0  0
 33 30  1  0  0  0  0
 35 31  1  0  0  0  0
M  END
>  <minimizedAffinity>
-6.20994616

$$$$
