
 OpenBabel03252505193D

 36 40  0  0  0  0  0  0  0  0999 V2000
   46.0120   32.6910   47.1020 C   0  0  0  0  0  0  0  0  0  0  0  0
   44.9250   32.3740   47.8690 C   0  0  0  0  0  0  0  0  0  0  0  0
   45.0510   31.5540   48.9680 C   0  0  0  0  0  0  0  0  0  0  0  0
   46.3080   31.0740   49.2540 C   0  0  0  0  0  0  0  0  0  0  0  0
   47.4050   31.4040   48.4620 C   0  0  0  0  0  0  0  0  0  0  0  0
   47.2330   32.2270   47.3760 N   0  0  0  0  0  0  0  0  0  0  0  0
   43.9710   32.7890   47.5810 H   0  0  0  0  0  0  0  0  0  0  0  0
   44.1950   31.3140   49.5580 H   0  0  0  0  0  0  0  0  0  0  0  0
   46.3630   30.4840   50.1400 H   0  0  0  0  0  0  0  0  0  0  0  0
   48.7890   31.0330   48.6830 C   0  0  0  0  0  0  0  0  0  0  0  0
   49.5780   31.8900   49.4720 C   0  0  0  0  0  0  0  0  0  0  0  0
   49.1300   32.7840   49.8970 H   0  0  0  0  0  0  0  0  0  0  0  0
   50.8920   31.7110   49.7730 C   0  0  0  0  0  3  0  0  0  0  0  0
   51.5470   30.6090   49.2790 C   0  0  0  0  0  3  0  0  0  0  0  0
   50.8370   29.7280   48.4960 C   0  0  0  0  0  0  0  0  0  0  0  0
   51.4910   28.6400   47.9690 C   0  0  0  0  0  3  0  0  0  0  0  0
   50.8500   27.7240   47.1350 C   0  0  0  0  0  3  0  0  0  0  0  0
   49.5020   27.9870   46.8720 C   0  0  0  0  0  3  0  0  0  0  0  0
   48.8870   29.0870   47.4220 C   0  0  0  0  0  3  0  0  0  0  0  0
   49.5140   29.9660   48.2310 C   0  0  0  0  0  0  0  0  0  0  0  0
   44.7770   35.3080   44.8260 C   0  0  0  0  0  0  0  0  0  0  0  0
   45.5750   35.1660   43.6860 C   0  0  0  0  0  0  0  0  0  0  0  0
   46.5250   34.1720   43.7320 C   0  0  0  0  0  0  0  0  0  0  0  0
   46.6470   33.3890   44.8540 N   0  0  0  0  0  0  0  0  0  0  0  0
   45.8480   33.5600   45.9420 C   0  0  0  0  0  0  0  0  0  0  0  0
   44.9180   34.5220   45.9190 N   0  0  0  0  0  0  0  0  0  0  0  0
   44.0090   36.0770   44.8470 H   0  0  0  0  0  0  0  0  0  0  0  0
   45.4570   35.7930   42.8230 H   0  0  0  0  0  0  0  0  0  0  0  0
   47.4200   33.9050   42.5550 C   0  0  0  0  0  0  0  0  0  0  0  0
   48.7770   34.6030   42.6790 C   0  0  0  0  0  0  0  0  0  0  0  0
   48.5670   33.0520   42.7170 C   0  0  0  0  0  0  0  0  0  0  0  0
   46.9760   34.0740   41.5380 H   0  0  0  0  0  0  0  0  0  0  0  0
   49.0410   35.0780   43.6320 H   0  0  0  0  0  0  0  0  0  0  0  0
   49.2770   34.9880   41.7880 H   0  0  0  0  0  0  0  0  0  0  0  0
   48.7110   32.5660   43.7160 H   0  0  0  0  0  0  0  0  0  0  0  0
   49.0080   32.5000   41.8610 H   0  0  0  0  0  0  0  0  0  0  0  0
  1  6  2  0  0  0  0
  1  2  1  0  0  0  0
  2  3  2  0  0  0  0
  3  4  1  0  0  0  0
  3  8  1  0  0  0  0
  4  9  1  0  0  0  0
  5 10  1  0  0  0  0
  5  4  2  0  0  0  0
  6  5  1  0  0  0  0
  7  2  1  0  0  0  0
 10 11  1  0  0  0  0
 11 13  2  0  0  0  0
 11 12  1  0  0  0  0
 14 13  1  0  0  0  0
 15 14  2  0  0  0  0
 16 15  1  0  0  0  0
 17 16  2  0  0  0  0
 18 17  1  0  0  0  0
 18 19  2  0  0  0  0
 19 20  1  0  0  0  0
 20 15  1  0  0  0  0
 20 10  2  0  0  0  0
 21 27  1  0  0  0  0
 21 26  1  0  0  0  0
 22 23  1  0  0  0  0
 22 21  2  0  0  0  0
 23 24  2  0  0  0  0
 24 25  1  0  0  0  0
 25  1  1  0  0  0  0
 26 25  2  0  0  0  0
 28 22  1  0  0  0  0
 29 30  1  0  0  0  0
 29 31  1  0  0  0  0
 29 23  1  0  0  0  0
 30 31  1  0  0  0  0
 30 33  1  0  0  0  0
 31 35  1  0  0  0  0
 32 29  1  0  0  0  0
 34 30  1  0  0  0  0
 36 31  1  0  0  0  0
M  END
>  <minimizedAffinity>
-6.6155324

>  <minimizedRMSD>
1.82492995

$$$$
