
 OpenBabel03252502173D

 26 28  0  0  0  0  0  0  0  0999 V2000
   46.2490   35.2400   42.7520 C   0  0  0  0  0  0  0  0  0  0  0  0
   46.8250   34.0220   43.1600 C   0  0  0  0  0  0  0  0  0  0  0  0
   46.3740   33.4780   44.3620 C   0  0  0  0  0  0  0  0  0  0  0  0
   45.4200   34.1160   45.0870 N   0  0  0  0  0  0  0  0  0  0  0  0
   44.8930   35.2880   44.6540 C   0  0  0  0  0  0  0  0  0  0  0  0
   45.3140   35.8310   43.4940 N   0  0  0  0  0  0  0  0  0  0  0  0
   46.5900   35.6740   41.8170 H   0  0  0  0  0  0  0  0  0  0  0  0
   44.1480   35.9090   45.1110 H   0  0  0  0  0  0  0  0  0  0  0  0
   46.9180   32.2520   44.8920 C   0  0  0  0  0  0  0  0  0  0  0  0
   47.6680   31.3100   44.2240 C   0  0  0  0  0  0  0  0  0  0  0  0
   47.9010   31.5240   43.1960 H   0  0  0  0  0  0  0  0  0  0  0  0
   48.1210   30.1440   44.7940 C   0  0  0  0  0  0  0  0  0  0  0  0
   47.8360   29.8510   46.1120 C   0  0  0  0  0  0  0  0  0  0  0  0
   47.0740   30.8020   46.8100 C   0  0  0  0  0  0  0  0  0  0  0  0
   46.7980   30.5240   48.1290 C   0  0  0  0  0  0  0  0  0  0  0  0
   46.0660   31.4040   48.8990 C   0  0  0  0  0  0  0  0  0  0  0  0
   45.6030   32.5850   48.3330 C   0  0  0  0  0  0  0  0  0  0  0  0
   45.8830   32.8680   46.9890 C   0  0  0  0  0  0  0  0  0  0  0  0
   46.6310   31.9570   46.2270 C   0  0  0  0  0  0  0  0  0  0  0  0
   47.7850   33.4530   42.3610 O   0  0  0  0  0  0  0  0  0  0  0  0
   50.3120   33.2930   41.6100 O   0  0  0  0  0  0  0  0  0  0  0  0
   49.2630   34.2650   42.0230 P   0  0  0  0  0  0  0  0  0  0  0  0
   49.0790   35.3750   40.7510 O   0  0  0  0  0  0  0  0  0  0  0  0
   49.3480   34.9620   39.8840 H   0  0  0  0  0  0  0  0  0  0  0  0
   49.7790   35.1090   43.3890 O   0  0  0  0  0  0  0  0  0  0  0  0
   49.0890   35.7290   43.7510 H   0  0  0  0  0  0  0  0  0  0  0  0
  1  2  2  0  0  0  0
  1  6  1  0  0  0  0
  2  3  1  0  0  0  0
  3  9  1  0  0  0  0
  3  4  2  0  0  0  0
  5  4  1  0  0  0  0
  5  8  1  0  0  0  0
  6  5  2  0  0  0  0
  7  1  1  0  0  0  0
  9 19  1  0  0  0  0
 10 12  1  0  0  0  0
 10  9  2  0  0  0  0
 11 10  1  0  0  0  0
 12 13  2  0  0  0  0
 13 14  1  0  0  0  0
 14 15  1  0  0  0  0
 15 16  2  0  0  0  0
 17 16  1  0  0  0  0
 18 17  2  0  0  0  0
 19 14  2  0  0  0  0
 19 18  1  0  0  0  0
 20  2  1  0  0  0  0
 21 22  2  0  0  0  0
 22 20  1  0  0  0  0
 22 25  1  0  0  0  0
 23 22  1  0  0  0  0
 24 23  1  0  0  0  0
 25 26  1  0  0  0  0
M  END
>  <minimizedAffinity>
-6.2126646

>  <minimizedRMSD>
0.742842197

$$$$
