
 OpenBabel03252506383D

 46 50  0  0  1  0  0  0  0  0999 V2000
   44.5610   35.4500   45.2030 C   0  0  0  0  0  0  0  0  0  0  0  0
   45.1740   35.4500   43.9430 C   0  0  0  0  0  0  0  0  0  0  0  0
   46.0630   34.4770   43.6390 C   0  0  0  0  0  0  0  0  0  0  0  0
   46.3100   33.5440   44.5930 N   0  0  0  0  0  0  0  0  0  0  0  0
   45.7280   33.5480   45.7830 C   0  0  0  0  0  0  0  0  0  0  0  0
   44.8490   34.4940   46.1100 N   0  0  0  0  0  0  0  0  0  0  0  0
   46.0680   32.5110   46.7210 N   0  0  0  0  0  0  0  0  0  0  0  0
   45.3610   32.2560   47.9250 C   0  0  0  0  0  0  0  0  0  0  0  0
   46.4640   31.8690   48.8950 C   0  0  0  0  0  0  0  0  0  0  0  0
   47.7150   31.7530   48.0810 C   0  0  0  0  0  0  0  0  0  0  0  0
   47.1670   31.5770   46.6660 C   0  0  1  0  0  0  0  0  0  0  0  0
   43.8390   36.2020   45.5110 H   0  0  0  0  0  0  0  0  0  0  0  0
   46.5370   34.4610   42.6880 H   0  0  0  0  0  0  0  0  0  0  0  0
   45.0400   33.2770   48.3140 H   0  0  0  0  0  0  0  0  0  0  0  0
   44.5150   31.6520   48.0180 H   0  0  0  0  0  0  0  0  0  0  0  0
   46.5320   32.4860   49.7860 H   0  0  0  0  0  0  0  0  0  0  0  0
   46.2130   30.8350   49.2570 H   0  0  0  0  0  0  0  0  0  0  0  0
   48.3460   30.8900   48.3770 H   0  0  0  0  0  0  0  0  0  0  0  0
   48.2640   32.7170   48.1150 H   0  0  0  0  0  0  0  0  0  0  0  0
   47.9550   31.8600   45.9460 H   0  0  0  0  0  0  0  0  0  0  0  0
   44.8030   36.5100   43.0450 N   0  0  0  0  0  0  0  0  0  0  0  0
   43.9780   36.1250   42.5410 H   0  0  0  0  0  0  0  0  0  0  0  0
   45.3120   37.4250   42.9870 H   0  0  0  0  0  0  0  0  0  0  0  0
   46.6120   29.8990   46.4680 S   0  0  0  0  0  0  0  0  0  0  0  0
   45.4020   30.1270   43.3670 O   0  0  0  0  0  0  0  0  0  0  0  0
   44.8060   29.7430   44.3850 C   0  0  0  0  0  0  0  0  0  0  0  0
   44.9970   29.6660   45.8540 C   0  0  1  0  0  0  0  0  0  0  0  0
   44.3640   28.3350   46.1810 C   0  0  0  0  0  0  0  0  0  0  0  0
   43.0150   28.5740   45.4920 C   0  0  0  0  0  0  0  0  0  0  0  0
   43.4960   29.1620   44.2470 N   0  0  0  0  0  0  0  0  0  0  0  0
   44.1890   30.3750   46.1870 H   0  0  0  0  0  0  0  0  0  0  0  0
   44.1880   28.2400   47.2660 H   0  0  0  0  0  0  0  0  0  0  0  0
   44.8690   27.4820   45.7260 H   0  0  0  0  0  0  0  0  0  0  0  0
   42.3760   29.2390   46.0800 H   0  0  0  0  0  0  0  0  0  0  0  0
   42.5690   27.5710   45.3180 H   0  0  0  0  0  0  0  0  0  0  0  0
   42.6250   29.0800   43.1020 C   0  0  0  0  0  0  0  0  0  0  0  0
   41.8180   30.2020   42.9480 C   0  0  0  0  0  0  0  0  0  0  0  0
   41.8200   31.0610   43.6020 H   0  0  0  0  0  0  0  0  0  0  0  0
   40.9080   30.3060   41.8950 C   0  0  0  0  0  3  0  0  0  0  0  0
   40.8490   29.2370   41.0120 C   0  0  0  0  0  3  0  0  0  0  0  0
   41.6480   28.1320   41.1680 C   0  0  0  0  0  0  0  0  0  0  0  0
   41.6130   27.0490   40.3040 C   0  0  0  0  0  3  0  0  0  0  0  0
   42.4270   25.9730   40.5000 C   0  0  0  0  0  3  0  0  0  0  0  0
   43.3280   25.8970   41.5630 C   0  0  0  0  0  3  0  0  0  0  0  0
   43.3850   26.9720   42.4490 C   0  0  0  0  0  3  0  0  0  0  0  0
   42.5570   28.0300   42.2220 C   0  0  0  0  0  0  0  0  0  0  0  0
  1 12  1  0  0  0  0
  1  6  1  0  0  0  0
  2  1  2  0  0  0  0
  3  2  1  0  0  0  0
  3  4  2  0  0  0  0
  4  5  1  0  0  0  0
  5  6  2  0  0  0  0
  5  7  1  0  0  0  0
  7  8  1  0  0  0  0
  8 15  1  0  0  0  0
  8 14  1  0  0  0  0
  8  9  1  0  0  0  0
  9 17  1  0  0  0  0
  9 16  1  0  0  0  0
 10 19  1  0  0  0  0
 10 18  1  0  0  0  0
 10  9  1  0  0  0  0
 11 20  1  6  0  0  0
 11  7  1  0  0  0  0
 11 10  1  0  0  0  0
 13  3  1  0  0  0  0
 21  2  1  0  0  0  0
 22 21  1  0  0  0  0
 23 21  1  0  0  0  0
 24 11  1  0  0  0  0
 25 26  2  0  0  0  0
 26 27  1  0  0  0  0
 27 28  1  0  0  0  0
 27 31  1  1  0  0  0
 27 24  1  0  0  0  0
 28 32  1  0  0  0  0
 29 34  1  0  0  0  0
 29 28  1  0  0  0  0
 30 26  1  0  0  0  0
 30 29  1  0  0  0  0
 33 28  1  0  0  0  0
 35 29  1  0  0  0  0
 36 30  1  0  0  0  0
 37 36  1  0  0  0  0
 37 38  1  0  0  0  0
 39 37  2  0  0  0  0
 40 41  2  0  0  0  0
 40 39  1  0  0  0  0
 41 46  1  0  0  0  0
 42 43  2  0  0  0  0
 42 41  1  0  0  0  0
 43 44  1  0  0  0  0
 44 45  2  0  0  0  0
 46 45  1  0  0  0  0
 46 36  2  0  0  0  0
M  END
>  <minimizedAffinity>
-5.42816162

>  <minimizedRMSD>
1.40259278

$$$$
