
 OpenBabel03252509243D

 29 32  0  0  1  0  0  0  0  0999 V2000
   46.5550   34.7540   42.0360 C   0  0  1  0  0  0  0  0  0  0  0  0
   47.9880   35.3510   42.0500 C   0  0  0  0  0  0  0  0  0  0  0  0
   47.6240   33.8690   41.7420 C   0  0  2  0  0  0  0  0  0  0  0  0
   45.8910   35.2550   41.3070 H   0  0  0  0  0  0  0  0  0  0  0  0
   48.5070   35.4820   42.9940 H   0  0  0  0  0  0  0  0  0  0  0  0
   48.2820   35.9670   41.1640 H   0  0  0  0  0  0  0  0  0  0  0  0
   47.9060   33.1160   42.5350 H   0  0  0  0  0  0  0  0  0  0  0  0
   47.9540   33.3480   40.3930 C   0  0  0  0  0  0  0  0  0  0  0  0
   47.0320   33.5880   39.3950 C   0  0  0  0  0  0  0  0  0  0  0  0
   46.1120   34.1360   39.6000 H   0  0  0  0  0  0  0  0  0  0  0  0
   47.3430   33.1000   38.1370 C   0  0  0  0  0  3  0  0  0  0  0  0
   48.4890   32.4200   37.8840 C   0  0  0  0  0  3  0  0  0  0  0  0
   49.4060   32.1840   38.8940 C   0  0  0  0  0  0  0  0  0  0  0  0
   50.5920   31.4890   38.6750 C   0  0  0  0  0  3  0  0  0  0  0  0
   51.4500   31.3010   39.7450 C   0  0  0  0  0  3  0  0  0  0  0  0
   51.2100   31.7520   41.0060 C   0  0  0  0  0  3  0  0  0  0  0  0
   50.0220   32.4430   41.2140 C   0  0  0  0  0  3  0  0  0  0  0  0
   49.1430   32.6510   40.1680 C   0  0  0  0  0  0  0  0  0  0  0  0
   44.5150   35.6170   45.0780 C   0  0  0  0  0  0  0  0  0  0  0  0
   45.0610   35.7090   43.7610 C   0  0  0  0  0  0  0  0  0  0  0  0
   45.9860   34.7520   43.4390 C   0  0  0  0  0  0  0  0  0  0  0  0
   46.3540   33.7710   44.3450 N   0  0  0  0  0  0  0  0  0  0  0  0
   45.8180   33.7190   45.5710 C   0  0  0  0  0  0  0  0  0  0  0  0
   44.8970   34.6410   45.9420 N   0  0  0  0  0  0  0  0  0  0  0  0
   43.7850   36.3900   45.2970 H   0  0  0  0  0  0  0  0  0  0  0  0
   46.0930   32.9630   46.2900 H   0  0  0  0  0  0  0  0  0  0  0  0
   44.6820   36.7420   42.8550 N   0  0  0  0  0  0  0  0  0  0  0  0
   43.7050   37.0260   42.5510 H   0  0  0  0  0  0  0  0  0  0  0  0
   45.4760   37.3020   42.4280 H   0  0  0  0  0  0  0  0  0  0  0  0
  1  4  1  6  0  0  0
  1  2  1  0  0  0  0
  1 21  1  0  0  0  0
  2  5  1  0  0  0  0
  3  1  1  0  0  0  0
  3  2  1  0  0  0  0
  3  7  1  1  0  0  0
  6  2  1  0  0  0  0
  8  3  1  0  0  0  0
  9 10  1  0  0  0  0
  9  8  2  0  0  0  0
 11  9  1  0  0  0  0
 12 11  2  0  0  0  0
 12 13  1  0  0  0  0
 13 18  1  0  0  0  0
 14 13  2  0  0  0  0
 14 15  1  0  0  0  0
 15 16  2  0  0  0  0
 16 17  1  0  0  0  0
 18  8  1  0  0  0  0
 18 17  2  0  0  0  0
 19 25  1  0  0  0  0
 19 24  1  0  0  0  0
 20 19  2  0  0  0  0
 21 20  1  0  0  0  0
 21 22  2  0  0  0  0
 22 23  1  0  0  0  0
 23 24  2  0  0  0  0
 23 26  1  0  0  0  0
 27 20  1  0  0  0  0
 28 27  1  0  0  0  0
 29 27  1  0  0  0  0
M  END
>  <minimizedAffinity>
-5.60152435

>  <minimizedRMSD>
0.755083084

$$$$
