
 OpenBabel03252508333D

 34 37  0  0  1  0  0  0  0  0999 V2000
   45.1110   34.4600   42.1930 N   0  0  0  0  0  0  0  0  0  0  0  0
   46.1230   33.8700   41.4500 C   0  0  1  0  0  0  0  0  0  0  0  0
   45.9730   33.9280   39.9650 C   0  0  0  0  0  0  0  0  0  0  0  0
   44.6800   33.7560   39.4620 N   0  0  0  0  0  0  0  0  0  0  0  0
   43.6080   34.1880   40.2650 C   0  0  0  0  0  0  0  0  0  0  0  0
   44.0900   35.0990   41.3890 C   0  0  0  0  0  0  0  0  0  0  0  0
   45.9640   32.7450   41.6520 H   0  0  0  0  0  0  0  0  0  0  0  0
   46.4100   34.8390   39.5080 H   0  0  0  0  0  0  0  0  0  0  0  0
   46.6170   33.0980   39.5440 H   0  0  0  0  0  0  0  0  0  0  0  0
   44.4870   32.9160   38.8990 H   0  0  0  0  0  0  0  0  0  0  0  0
   42.7810   34.6940   39.7760 H   0  0  0  0  0  0  0  0  0  0  0  0
   43.1840   33.2970   40.7890 H   0  0  0  0  0  0  0  0  0  0  0  0
   43.2030   35.4230   41.9170 H   0  0  0  0  0  0  0  0  0  0  0  0
   44.5180   35.9820   40.8630 H   0  0  0  0  0  0  0  0  0  0  0  0
   47.5540   34.0650   41.7310 C   0  0  0  0  0  0  0  0  0  0  0  0
   48.0690   35.3830   41.7620 C   0  0  0  0  0  0  0  0  0  0  0  0
   47.3870   36.2220   41.5480 H   0  0  0  0  0  0  0  0  0  0  0  0
   49.3440   35.7570   42.0300 C   0  0  0  0  0  3  0  0  0  0  0  0
   50.2610   34.7750   42.3080 C   0  0  0  0  0  3  0  0  0  0  0  0
   49.8810   33.4540   42.3090 C   0  0  0  0  0  0  0  0  0  0  0  0
   50.7560   32.4250   42.5790 C   0  0  0  0  0  3  0  0  0  0  0  0
   50.3790   31.0780   42.5810 C   0  0  0  0  0  3  0  0  0  0  0  0
   49.0390   30.7960   42.2910 C   0  0  0  0  0  3  0  0  0  0  0  0
   48.2050   31.8550   42.0290 C   0  0  0  0  0  3  0  0  0  0  0  0
   48.5690   33.1790   42.0240 C   0  0  0  0  0  0  0  0  0  0  0  0
   44.5900   35.4650   44.3020 C   0  0  0  0  0  0  0  0  0  0  0  0
   45.0990   34.3880   43.5940 C   0  0  0  0  0  0  0  0  0  0  0  0
   45.5470   33.3130   44.3180 C   0  0  0  0  0  0  0  0  0  0  0  0
   45.4980   33.3020   45.6600 N   0  0  0  0  0  0  0  0  0  0  0  0
   44.9910   34.3790   46.3290 C   0  0  0  0  0  0  0  0  0  0  0  0
   44.5490   35.4330   45.6600 N   0  0  0  0  0  0  0  0  0  0  0  0
   44.1890   36.3960   43.9370 H   0  0  0  0  0  0  0  0  0  0  0  0
   45.9460   32.4150   43.9310 H   0  0  0  0  0  0  0  0  0  0  0  0
   44.9570   34.3530   47.4300 H   0  0  0  0  0  0  0  0  0  0  0  0
  1 27  1  0  0  0  0
  2  7  1  1  0  0  0
  2 15  1  0  0  0  0
  2  1  1  0  0  0  0
  3  2  1  0  0  0  0
  4  3  1  0  0  0  0
  4  5  1  0  0  0  0
  5 12  1  0  0  0  0
  5  6  1  0  0  0  0
  6 13  1  0  0  0  0
  6  1  1  0  0  0  0
  8  3  1  0  0  0  0
  9  3  1  0  0  0  0
 10  4  1  0  0  0  0
 11  5  1  0  0  0  0
 14  6  1  0  0  0  0
 15 16  2  0  0  0  0
 15 25  1  0  0  0  0
 16 18  1  0  0  0  0
 17 16  1  0  0  0  0
 18 19  2  0  0  0  0
 19 20  1  0  0  0  0
 20 21  1  0  0  0  0
 21 22  2  0  0  0  0
 23 22  1  0  0  0  0
 24 23  2  0  0  0  0
 25 24  1  0  0  0  0
 25 20  2  0  0  0  0
 26 31  1  0  0  0  0
 27 26  2  0  0  0  0
 27 28  1  0  0  0  0
 28 29  2  0  0  0  0
 29 30  1  0  0  0  0
 30 34  1  0  0  0  0
 31 30  2  0  0  0  0
 32 26  1  0  0  0  0
 33 28  1  0  0  0  0
M  END
>  <minimizedAffinity>
-5.92056751

>  <minimizedRMSD>
2.91162467

$$$$
