
 OpenBabel03252506383D

 46 50  0  0  1  0  0  0  0  0999 V2000
   44.5000   35.6290   45.0660 C   0  0  0  0  0  0  0  0  0  0  0  0
   45.0890   35.5650   43.7950 C   0  0  0  0  0  0  0  0  0  0  0  0
   45.9410   34.5530   43.5110 C   0  0  0  0  0  0  0  0  0  0  0  0
   46.1770   33.6480   44.4940 N   0  0  0  0  0  0  0  0  0  0  0  0
   45.6180   33.7130   45.6930 C   0  0  0  0  0  0  0  0  0  0  0  0
   44.7740   34.6980   46.0010 N   0  0  0  0  0  0  0  0  0  0  0  0
   45.9420   32.7000   46.6620 N   0  0  0  0  0  0  0  0  0  0  0  0
   45.2510   32.5100   47.8870 C   0  0  0  0  0  0  0  0  0  0  0  0
   46.3580   32.1230   48.8500 C   0  0  0  0  0  0  0  0  0  0  0  0
   47.5900   31.9380   48.0200 C   0  0  0  0  0  0  0  0  0  0  0  0
   47.0110   31.7300   46.6220 C   0  0  1  0  0  0  0  0  0  0  0  0
   43.8070   36.4140   45.3580 H   0  0  0  0  0  0  0  0  0  0  0  0
   46.3960   34.4890   42.5540 H   0  0  0  0  0  0  0  0  0  0  0  0
   44.9690   33.5540   48.2440 H   0  0  0  0  0  0  0  0  0  0  0  0
   44.3880   31.9370   48.0160 H   0  0  0  0  0  0  0  0  0  0  0  0
   46.4620   32.7690   49.7170 H   0  0  0  0  0  0  0  0  0  0  0  0
   46.0830   31.1110   49.2540 H   0  0  0  0  0  0  0  0  0  0  0  0
   48.2000   31.0670   48.3350 H   0  0  0  0  0  0  0  0  0  0  0  0
   48.1690   32.8850   48.0090 H   0  0  0  0  0  0  0  0  0  0  0  0
   47.7940   31.9620   45.8780 H   0  0  0  0  0  0  0  0  0  0  0  0
   44.7340   36.6040   42.8670 N   0  0  0  0  0  0  0  0  0  0  0  0
   43.8880   36.2270   42.3910 H   0  0  0  0  0  0  0  0  0  0  0  0
   45.2710   37.4990   42.7670 H   0  0  0  0  0  0  0  0  0  0  0  0
   46.4000   30.0640   46.4940 S   0  0  0  0  0  0  0  0  0  0  0  0
   46.0500   30.4470   43.1980 O   0  0  0  0  0  0  0  0  0  0  0  0
   45.2280   29.9690   43.9960 C   0  0  0  0  0  0  0  0  0  0  0  0
   45.0240   29.8020   45.4550 C   0  0  1  0  0  0  0  0  0  0  0  0
   44.4090   28.4260   45.5290 C   0  0  0  0  0  0  0  0  0  0  0  0
   43.2810   28.6510   44.5150 C   0  0  0  0  0  0  0  0  0  0  0  0
   44.0390   29.3410   43.4790 N   0  0  0  0  0  0  0  0  0  0  0  0
   44.1160   30.4510   45.5960 H   0  0  0  0  0  0  0  0  0  0  0  0
   43.9560   28.2510   46.5190 H   0  0  0  0  0  0  0  0  0  0  0  0
   45.0680   27.6290   45.1820 H   0  0  0  0  0  0  0  0  0  0  0  0
   42.4690   29.2460   44.9430 H   0  0  0  0  0  0  0  0  0  0  0  0
   42.9580   27.6430   44.1740 H   0  0  0  0  0  0  0  0  0  0  0  0
   43.5110   29.2990   42.1390 C   0  0  0  0  0  0  0  0  0  0  0  0
   44.1340   28.3480   41.3370 C   0  0  0  0  0  0  0  0  0  0  0  0
   44.9310   27.6950   41.6550 H   0  0  0  0  0  0  0  0  0  0  0  0
   43.7570   28.1600   40.0060 C   0  0  0  0  0  3  0  0  0  0  0  0
   42.7350   28.9650   39.5260 C   0  0  0  0  0  3  0  0  0  0  0  0
   42.1240   29.9020   40.3200 C   0  0  0  0  0  0  0  0  0  0  0  0
   41.1000   30.7220   39.8710 C   0  0  0  0  0  3  0  0  0  0  0  0
   40.5240   31.6390   40.7000 C   0  0  0  0  0  3  0  0  0  0  0  0
   40.9220   31.8040   42.0270 C   0  0  0  0  0  3  0  0  0  0  0  0
   41.9500   30.9930   42.5090 C   0  0  0  0  0  3  0  0  0  0  0  0
   42.5010   30.0900   41.6520 C   0  0  0  0  0  0  0  0  0  0  0  0
  1 12  1  0  0  0  0
  1  6  1  0  0  0  0
  2  1  2  0  0  0  0
  3  2  1  0  0  0  0
  3  4  2  0  0  0  0
  4  5  1  0  0  0  0
  5  6  2  0  0  0  0
  5  7  1  0  0  0  0
  7  8  1  0  0  0  0
  8 15  1  0  0  0  0
  8 14  1  0  0  0  0
  8  9  1  0  0  0  0
  9 17  1  0  0  0  0
  9 16  1  0  0  0  0
 10 18  1  0  0  0  0
 10  9  1  0  0  0  0
 11 20  1  6  0  0  0
 11  7  1  0  0  0  0
 11 10  1  0  0  0  0
 13  3  1  0  0  0  0
 19 10  1  0  0  0  0
 21  2  1  0  0  0  0
 22 21  1  0  0  0  0
 23 21  1  0  0  0  0
 24 11  1  0  0  0  0
 25 26  2  0  0  0  0
 26 27  1  0  0  0  0
 27 28  1  0  0  0  0
 27 31  1  1  0  0  0
 27 24  1  0  0  0  0
 28 32  1  0  0  0  0
 29 34  1  0  0  0  0
 29 28  1  0  0  0  0
 30 26  1  0  0  0  0
 30 29  1  0  0  0  0
 33 28  1  0  0  0  0
 35 29  1  0  0  0  0
 36 30  1  0  0  0  0
 37 38  1  0  0  0  0
 37 36  2  0  0  0  0
 39 37  1  0  0  0  0
 40 39  2  0  0  0  0
 40 41  1  0  0  0  0
 41 46  1  0  0  0  0
 42 41  2  0  0  0  0
 42 43  1  0  0  0  0
 43 44  2  0  0  0  0
 44 45  1  0  0  0  0
 46 36  1  0  0  0  0
 46 45  2  0  0  0  0
M  END
>  <minimizedAffinity>
-5.61075735

>  <minimizedRMSD>
1.04319179

$$$$
