
 OpenBabel03252503583D

 22 24  0  0  0  0  0  0  0  0999 V2000
   40.1030   32.5040   38.7440 C   0  0  0  0  0  0  0  0  0  0  0  0
   40.3570   33.6850   39.4180 C   0  0  0  0  0  0  0  0  0  0  0  0
   39.5210   33.9320   40.5320 C   0  0  0  0  0  0  0  0  0  0  0  0
   38.5650   33.0340   40.8580 N   0  0  0  0  0  0  0  0  0  0  0  0
   38.3560   31.9050   40.1800 C   0  0  0  0  0  0  0  0  0  0  0  0
   39.1470   31.6930   39.1420 N   0  0  0  0  0  0  0  0  0  0  0  0
   41.0740   34.4550   39.2500 H   0  0  0  0  0  0  0  0  0  0  0  0
   39.5840   34.8030   41.1650 H   0  0  0  0  0  0  0  0  0  0  0  0
   37.3880   30.8290   40.3790 C   0  0  0  0  0  0  0  0  0  0  0  0
   36.2530   30.6550   39.5960 C   0  0  0  0  0  0  0  0  0  0  0  0
   36.0840   31.3790   38.7820 H   0  0  0  0  0  0  0  0  0  0  0  0
   35.3340   29.6590   39.7590 C   0  0  0  0  0  3  0  0  0  0  0  0
   35.5070   28.7360   40.7630 C   0  0  0  0  0  3  0  0  0  0  0  0
   36.6020   28.8450   41.5710 C   0  0  0  0  0  0  0  0  0  0  0  0
   36.7240   27.8970   42.5570 C   0  0  0  0  0  3  0  0  0  0  0  0
   37.7980   27.9330   43.4160 C   0  0  0  0  0  3  0  0  0  0  0  0
   38.7270   28.9600   43.2330 C   0  0  0  0  0  3  0  0  0  0  0  0
   38.5430   29.8770   42.2270 C   0  0  0  0  0  3  0  0  0  0  0  0
   37.4920   29.8690   41.3580 C   0  0  0  0  0  0  0  0  0  0  0  0
   40.9440   32.2800   37.6180 C   0  0  0  0  0  0  0  0  0  0  0  0
   41.8190   33.0360   37.1420 O   0  0  0  0  0  0  0  0  0  0  0  0
   40.7330   31.3130   37.1810 H   0  0  0  0  0  0  0  0  0  0  0  0
  1  6  2  0  0  0  0
  1  2  1  0  0  0  0
  2  3  2  0  0  0  0
  3  4  1  0  0  0  0
  3  8  1  0  0  0  0
  5  9  1  0  0  0  0
  5  4  2  0  0  0  0
  6  5  1  0  0  0  0
  7  2  1  0  0  0  0
  9 19  1  0  0  0  0
 10 12  1  0  0  0  0
 10  9  2  0  0  0  0
 11 10  1  0  0  0  0
 12 13  2  0  0  0  0
 13 14  1  0  0  0  0
 14 15  1  0  0  0  0
 15 16  2  0  0  0  0
 17 16  1  0  0  0  0
 18 17  2  0  0  0  0
 19 14  2  0  0  0  0
 19 18  1  0  0  0  0
 20  1  1  0  0  0  0
 21 20  2  0  0  0  0
 22 20  1  0  0  0  0
M  END
>  <minimizedAffinity>
-5.40178871

$$$$

 OpenBabel03252503583D

 22 24  0  0  0  0  0  0  0  0999 V2000
   38.0720   30.4570   39.5080 C   0  0  0  0  0  0  0  0  0  0  0  0
   36.9440   31.2040   39.7920 C   0  0  0  0  0  0  0  0  0  0  0  0
   36.2680   30.8440   40.9810 C   0  0  0  0  0  0  0  0  0  0  0  0
   36.7480   29.8320   41.7370 N   0  0  0  0  0  0  0  0  0  0  0  0
   37.8420   29.1370   41.4260 C   0  0  0  0  0  0  0  0  0  0  0  0
   38.4590   29.4900   40.3110 N   0  0  0  0  0  0  0  0  0  0  0  0
   36.4810   32.0120   39.2720 H   0  0  0  0  0  0  0  0  0  0  0  0
   35.3740   31.3230   41.3480 H   0  0  0  0  0  0  0  0  0  0  0  0
   38.5050   28.0300   42.1100 C   0  0  0  0  0  0  0  0  0  0  0  0
   39.5380   28.1930   43.0240 C   0  0  0  0  0  0  0  0  0  0  0  0
   39.8680   29.2220   43.2360 H   0  0  0  0  0  0  0  0  0  0  0  0
   40.1740   27.1760   43.6780 C   0  0  0  0  0  3  0  0  0  0  0  0
   39.7940   25.8770   43.4410 C   0  0  0  0  0  3  0  0  0  0  0  0
   38.7820   25.6420   42.5530 C   0  0  0  0  0  0  0  0  0  0  0  0
   38.4440   24.3260   42.3550 C   0  0  0  0  0  3  0  0  0  0  0  0
   37.4360   23.9990   41.4780 C   0  0  0  0  0  3  0  0  0  0  0  0
   36.7980   25.0530   40.8190 C   0  0  0  0  0  3  0  0  0  0  0  0
   37.1880   26.3480   41.0640 C   0  0  0  0  0  3  0  0  0  0  0  0
   38.1820   26.7060   41.9270 C   0  0  0  0  0  0  0  0  0  0  0  0
   38.7310   30.8240   38.3010 C   0  0  0  0  0  0  0  0  0  0  0  0
   38.2600   31.4410   37.3190 O   0  0  0  0  0  0  0  0  0  0  0  0
   39.7600   30.4910   38.3200 H   0  0  0  0  0  0  0  0  0  0  0  0
  1  2  2  0  0  0  0
  1  6  1  0  0  0  0
  2  3  1  0  0  0  0
  3  8  1  0  0  0  0
  3  4  2  0  0  0  0
  5  4  1  0  0  0  0
  5  9  1  0  0  0  0
  6  5  2  0  0  0  0
  7  2  1  0  0  0  0
  9 10  1  0  0  0  0
 10 11  1  0  0  0  0
 10 12  2  0  0  0  0
 13 12  1  0  0  0  0
 14 13  2  0  0  0  0
 15 14  1  0  0  0  0
 16 15  2  0  0  0  0
 17 18  2  0  0  0  0
 17 16  1  0  0  0  0
 18 19  1  0  0  0  0
 19  9  2  0  0  0  0
 19 14  1  0  0  0  0
 20 22  1  0  0  0  0
 20  1  1  0  0  0  0
 21 20  2  0  0  0  0
M  END
>  <minimizedAffinity>
-5.27820587

$$$$

 OpenBabel03252503583D

 22 24  0  0  0  0  0  0  0  0999 V2000
   38.8180   30.6430   38.4690 C   0  0  0  0  0  0  0  0  0  0  0  0
   37.8350   30.9740   37.5550 C   0  0  0  0  0  0  0  0  0  0  0  0
   36.5420   30.4890   37.8620 C   0  0  0  0  0  0  0  0  0  0  0  0
   36.3540   29.7610   38.9850 N   0  0  0  0  0  0  0  0  0  0  0  0
   37.3330   29.4660   39.8410 C   0  0  0  0  0  0  0  0  0  0  0  0
   38.5340   29.9290   39.5370 N   0  0  0  0  0  0  0  0  0  0  0  0
   37.8710   31.5330   36.6490 H   0  0  0  0  0  0  0  0  0  0  0  0
   35.6650   30.6550   37.2560 H   0  0  0  0  0  0  0  0  0  0  0  0
   37.3220   28.7070   41.0890 C   0  0  0  0  0  0  0  0  0  0  0  0
   37.4800   29.2810   42.3450 C   0  0  0  0  0  0  0  0  0  0  0  0
   37.6220   30.3730   42.3880 H   0  0  0  0  0  0  0  0  0  0  0  0
   37.4740   28.5960   43.5260 C   0  0  0  0  0  3  0  0  0  0  0  0
   37.3020   27.2330   43.5170 C   0  0  0  0  0  3  0  0  0  0  0  0
   37.1390   26.6010   42.3170 C   0  0  0  0  0  0  0  0  0  0  0  0
   36.9720   25.2400   42.3670 C   0  0  0  0  0  3  0  0  0  0  0  0
   36.8010   24.5240   41.2040 C   0  0  0  0  0  3  0  0  0  0  0  0
   36.8110   25.2430   40.0060 C   0  0  0  0  0  3  0  0  0  0  0  0
   36.9850   26.6050   40.0280 C   0  0  0  0  0  3  0  0  0  0  0  0
   37.1550   27.3440   41.1620 C   0  0  0  0  0  0  0  0  0  0  0  0
   40.1150   31.1280   38.1380 C   0  0  0  0  0  0  0  0  0  0  0  0
   40.4220   32.0100   37.3050 O   0  0  0  0  0  0  0  0  0  0  0  0
   40.8670   30.6160   38.7240 H   0  0  0  0  0  0  0  0  0  0  0  0
  1  6  1  0  0  0  0
  2  3  1  0  0  0  0
  2  1  2  0  0  0  0
  3  4  2  0  0  0  0
  4  5  1  0  0  0  0
  5  9  1  0  0  0  0
  6  5  2  0  0  0  0
  7  2  1  0  0  0  0
  8  3  1  0  0  0  0
  9 19  2  0  0  0  0
  9 10  1  0  0  0  0
 10 11  1  0  0  0  0
 10 12  2  0  0  0  0
 13 12  1  0  0  0  0
 14 15  1  0  0  0  0
 14 13  2  0  0  0  0
 16 15  2  0  0  0  0
 17 18  2  0  0  0  0
 17 16  1  0  0  0  0
 18 19  1  0  0  0  0
 19 14  1  0  0  0  0
 20  1  1  0  0  0  0
 20 22  1  0  0  0  0
 21 20  2  0  0  0  0
M  END
>  <minimizedAffinity>
-5.19846344

$$$$

 OpenBabel03252503583D

 22 24  0  0  0  0  0  0  0  0999 V2000
   40.0570   31.9100   38.8340 C   0  0  0  0  0  0  0  0  0  0  0  0
   40.2400   33.1820   39.3450 C   0  0  0  0  0  0  0  0  0  0  0  0
   39.5850   33.4370   40.5720 C   0  0  0  0  0  0  0  0  0  0  0  0
   38.8490   32.4600   41.1480 N   0  0  0  0  0  0  0  0  0  0  0  0
   38.7000   31.2450   40.6200 C   0  0  0  0  0  0  0  0  0  0  0  0
   39.3210   31.0270   39.4730 N   0  0  0  0  0  0  0  0  0  0  0  0
   40.7910   34.0180   38.9790 H   0  0  0  0  0  0  0  0  0  0  0  0
   39.6230   34.3740   41.1050 H   0  0  0  0  0  0  0  0  0  0  0  0
   37.9580   30.0780   41.0890 C   0  0  0  0  0  0  0  0  0  0  0  0
   36.6280   29.8280   40.7730 C   0  0  0  0  0  0  0  0  0  0  0  0
   36.1140   30.5620   40.1320 H   0  0  0  0  0  0  0  0  0  0  0  0
   35.9110   28.7450   41.1960 C   0  0  0  0  0  3  0  0  0  0  0  0
   36.5150   27.8060   41.9990 C   0  0  0  0  0  3  0  0  0  0  0  0
   37.8220   27.9870   42.3490 C   0  0  0  0  0  0  0  0  0  0  0  0
   38.3730   27.0190   43.1510 C   0  0  0  0  0  3  0  0  0  0  0  0
   39.6860   27.1220   43.5520 C   0  0  0  0  0  3  0  0  0  0  0  0
   40.4020   28.2370   43.1080 C   0  0  0  0  0  3  0  0  0  0  0  0
   39.7880   29.1690   42.3070 C   0  0  0  0  0  3  0  0  0  0  0  0
   38.4900   29.0960   41.8920 C   0  0  0  0  0  0  0  0  0  0  0  0
   40.7120   31.6760   37.5920 C   0  0  0  0  0  0  0  0  0  0  0  0
   41.5060   32.4270   36.9820 O   0  0  0  0  0  0  0  0  0  0  0  0
   40.4330   30.7070   37.1990 H   0  0  0  0  0  0  0  0  0  0  0  0
  1  2  2  0  0  0  0
  1  6  1  0  0  0  0
  2  3  1  0  0  0  0
  3  8  1  0  0  0  0
  3  4  2  0  0  0  0
  5  9  1  0  0  0  0
  5  4  1  0  0  0  0
  6  5  2  0  0  0  0
  7  2  1  0  0  0  0
  9 19  1  0  0  0  0
 10  9  2  0  0  0  0
 10 12  1  0  0  0  0
 11 10  1  0  0  0  0
 12 13  2  0  0  0  0
 13 14  1  0  0  0  0
 14 15  1  0  0  0  0
 15 16  2  0  0  0  0
 17 16  1  0  0  0  0
 18 17  2  0  0  0  0
 19 18  1  0  0  0  0
 19 14  2  0  0  0  0
 20  1  1  0  0  0  0
 21 20  2  0  0  0  0
 22 20  1  0  0  0  0
M  END
>  <minimizedAffinity>
-4.99815035

$$$$

 OpenBabel03252503583D

 22 24  0  0  0  0  0  0  0  0999 V2000
   36.8500   29.5810   39.0120 C   0  0  0  0  0  0  0  0  0  0  0  0
   36.5350   30.7750   39.6340 C   0  0  0  0  0  0  0  0  0  0  0  0
   36.5950   30.7520   41.0470 C   0  0  0  0  0  0  0  0  0  0  0  0
   36.9440   29.6090   41.6780 N   0  0  0  0  0  0  0  0  0  0  0  0
   37.2430   28.4780   41.0380 C   0  0  0  0  0  0  0  0  0  0  0  0
   37.1810   28.5210   39.7180 N   0  0  0  0  0  0  0  0  0  0  0  0
   36.2480   31.7230   39.2400 H   0  0  0  0  0  0  0  0  0  0  0  0
   36.3790   31.5950   41.6840 H   0  0  0  0  0  0  0  0  0  0  0  0
   37.6380   27.1650   41.5400 C   0  0  0  0  0  0  0  0  0  0  0  0
   36.8850   26.0100   41.3630 C   0  0  0  0  0  0  0  0  0  0  0  0
   35.9360   26.1050   40.8120 H   0  0  0  0  0  0  0  0  0  0  0  0
   37.2320   24.7710   41.8200 C   0  0  0  0  0  3  0  0  0  0  0  0
   38.4070   24.6090   42.5140 C   0  0  0  0  0  3  0  0  0  0  0  0
   39.1990   25.7030   42.7240 C   0  0  0  0  0  0  0  0  0  0  0  0
   40.3600   25.4830   43.4230 C   0  0  0  0  0  3  0  0  0  0  0  0
   41.2170   26.5290   43.6800 C   0  0  0  0  0  3  0  0  0  0  0  0
   40.8450   27.7890   43.2040 C   0  0  0  0  0  3  0  0  0  0  0  0
   39.6670   27.9380   42.5120 C   0  0  0  0  0  3  0  0  0  0  0  0
   38.7970   26.9230   42.2400 C   0  0  0  0  0  0  0  0  0  0  0  0
   36.7710   29.6190   37.5920 C   0  0  0  0  0  0  0  0  0  0  0  0
   37.0730   30.5610   36.8250 O   0  0  0  0  0  0  0  0  0  0  0  0
   36.3930   28.6790   37.2130 H   0  0  0  0  0  0  0  0  0  0  0  0
  1  2  2  0  0  0  0
  1  6  1  0  0  0  0
  2  3  1  0  0  0  0
  3  4  2  0  0  0  0
  3  8  1  0  0  0  0
  5  9  1  0  0  0  0
  5  4  1  0  0  0  0
  6  5  2  0  0  0  0
  7  2  1  0  0  0  0
  9 19  1  0  0  0  0
 10  9  2  0  0  0  0
 10 12  1  0  0  0  0
 11 10  1  0  0  0  0
 12 13  2  0  0  0  0
 13 14  1  0  0  0  0
 14 15  1  0  0  0  0
 15 16  2  0  0  0  0
 17 16  1  0  0  0  0
 18 17  2  0  0  0  0
 19 18  1  0  0  0  0
 19 14  2  0  0  0  0
 20  1  1  0  0  0  0
 21 20  2  0  0  0  0
 22 20  1  0  0  0  0
M  END
>  <minimizedAffinity>
-4.95655203

$$$$

 OpenBabel03252503583D

 22 24  0  0  0  0  0  0  0  0999 V2000
   34.7740   28.4350   37.2810 C   0  0  0  0  0  0  0  0  0  0  0  0
   35.6390   29.1140   36.4440 C   0  0  0  0  0  0  0  0  0  0  0  0
   37.0060   29.0330   36.7980 C   0  0  0  0  0  0  0  0  0  0  0  0
   37.3680   28.3250   37.8900 N   0  0  0  0  0  0  0  0  0  0  0  0
   36.4990   27.6830   38.6710 C   0  0  0  0  0  0  0  0  0  0  0  0
   35.2260   27.7700   38.3220 N   0  0  0  0  0  0  0  0  0  0  0  0
   35.4640   29.6970   35.5690 H   0  0  0  0  0  0  0  0  0  0  0  0
   37.8100   29.5040   36.2540 H   0  0  0  0  0  0  0  0  0  0  0  0
   36.6990   26.8760   39.8720 C   0  0  0  0  0  0  0  0  0  0  0  0
   36.6300   25.4880   39.8920 C   0  0  0  0  0  0  0  0  0  0  0  0
   36.4100   24.9790   38.9400 H   0  0  0  0  0  0  0  0  0  0  0  0
   36.8130   24.7100   40.9990 C   0  0  0  0  0  3  0  0  0  0  0  0
   37.0880   25.3060   42.2070 C   0  0  0  0  0  3  0  0  0  0  0  0
   37.1710   26.6680   42.2610 C   0  0  0  0  0  0  0  0  0  0  0  0
   37.4480   27.2090   43.4930 C   0  0  0  0  0  3  0  0  0  0  0  0
   37.5500   28.5730   43.6380 C   0  0  0  0  0  3  0  0  0  0  0  0
   37.3590   29.3520   42.4930 C   0  0  0  0  0  3  0  0  0  0  0  0
   37.0840   28.7450   41.2920 C   0  0  0  0  0  3  0  0  0  0  0  0
   36.9770   27.3960   41.1140 C   0  0  0  0  0  0  0  0  0  0  0  0
   33.4020   28.5390   36.9170 C   0  0  0  0  0  0  0  0  0  0  0  0
   32.5260   29.2890   37.4020 O   0  0  0  0  0  0  0  0  0  0  0  0
   33.1750   27.8490   36.1150 H   0  0  0  0  0  0  0  0  0  0  0  0
  1  6  1  0  0  0  0
  2  3  1  0  0  0  0
  2  1  2  0  0  0  0
  3  4  2  0  0  0  0
  4  5  1  0  0  0  0
  5  9  1  0  0  0  0
  6  5  2  0  0  0  0
  7  2  1  0  0  0  0
  8  3  1  0  0  0  0
  9 10  2  0  0  0  0
  9 19  1  0  0  0  0
 10 12  1  0  0  0  0
 11 10  1  0  0  0  0
 12 13  2  0  0  0  0
 13 14  1  0  0  0  0
 14 15  1  0  0  0  0
 15 16  2  0  0  0  0
 17 16  1  0  0  0  0
 18 17  2  0  0  0  0
 19 18  1  0  0  0  0
 19 14  2  0  0  0  0
 20  1  1  0  0  0  0
 20 21  2  0  0  0  0
 22 20  1  0  0  0  0
M  END
>  <minimizedAffinity>
-4.9446125

$$$$

 OpenBabel03252503583D

 22 24  0  0  0  0  0  0  0  0999 V2000
   39.1790   31.5500   39.4450 C   0  0  0  0  0  0  0  0  0  0  0  0
   38.2680   32.5310   39.0980 C   0  0  0  0  0  0  0  0  0  0  0  0
   36.9650   32.3520   39.6200 C   0  0  0  0  0  0  0  0  0  0  0  0
   36.7020   31.2770   40.3950 N   0  0  0  0  0  0  0  0  0  0  0  0
   37.6130   30.3550   40.7060 C   0  0  0  0  0  0  0  0  0  0  0  0
   38.8240   30.5400   40.2090 N   0  0  0  0  0  0  0  0  0  0  0  0
   38.3660   33.4080   38.5010 H   0  0  0  0  0  0  0  0  0  0  0  0
   36.1380   33.0220   39.4460 H   0  0  0  0  0  0  0  0  0  0  0  0
   37.5180   29.1450   41.5190 C   0  0  0  0  0  0  0  0  0  0  0  0
   37.7060   29.1210   42.8960 C   0  0  0  0  0  0  0  0  0  0  0  0
   37.9410   30.0770   43.3910 H   0  0  0  0  0  0  0  0  0  0  0  0
   37.6220   28.0060   43.6790 C   0  0  0  0  0  3  0  0  0  0  0  0
   37.3320   26.7930   43.1010 C   0  0  0  0  0  3  0  0  0  0  0  0
   37.1340   26.7420   41.7510 C   0  0  0  0  0  0  0  0  0  0  0  0
   36.8480   25.5050   41.2280 C   0  0  0  0  0  3  0  0  0  0  0  0
   36.6340   25.3630   39.8760 C   0  0  0  0  0  3  0  0  0  0  0  0
   36.7240   26.5150   39.0910 C   0  0  0  0  0  3  0  0  0  0  0  0
   37.0150   27.7220   39.6810 C   0  0  0  0  0  3  0  0  0  0  0  0
   37.2310   27.8980   41.0160 C   0  0  0  0  0  0  0  0  0  0  0  0
   40.4800   31.7400   38.9000 C   0  0  0  0  0  0  0  0  0  0  0  0
   40.7910   32.0770   37.7360 O   0  0  0  0  0  0  0  0  0  0  0  0
   41.2330   31.5470   39.6540 H   0  0  0  0  0  0  0  0  0  0  0  0
  1  6  1  0  0  0  0
  2  1  2  0  0  0  0
  2  3  1  0  0  0  0
  3  4  2  0  0  0  0
  4  5  1  0  0  0  0
  5  9  1  0  0  0  0
  6  5  2  0  0  0  0
  7  2  1  0  0  0  0
  8  3  1  0  0  0  0
  9 10  1  0  0  0  0
 10 11  1  0  0  0  0
 10 12  2  0  0  0  0
 13 12  1  0  0  0  0
 14 13  2  0  0  0  0
 15 14  1  0  0  0  0
 16 15  2  0  0  0  0
 17 18  2  0  0  0  0
 17 16  1  0  0  0  0
 18 19  1  0  0  0  0
 19  9  2  0  0  0  0
 19 14  1  0  0  0  0
 20  1  1  0  0  0  0
 20 22  1  0  0  0  0
 21 20  2  0  0  0  0
M  END
>  <minimizedAffinity>
-4.92572308

$$$$

 OpenBabel03252503583D

 22 24  0  0  0  0  0  0  0  0999 V2000
   38.1050   30.6210   39.4810 C   0  0  0  0  0  0  0  0  0  0  0  0
   37.2690   31.5410   40.0860 C   0  0  0  0  0  0  0  0  0  0  0  0
   36.3770   31.0050   41.0430 C   0  0  0  0  0  0  0  0  0  0  0  0
   36.3960   29.6780   41.2990 N   0  0  0  0  0  0  0  0  0  0  0  0
   37.2220   28.8250   40.6920 C   0  0  0  0  0  0  0  0  0  0  0  0
   38.0480   29.3470   39.8010 N   0  0  0  0  0  0  0  0  0  0  0  0
   37.1690   32.5950   39.9610 H   0  0  0  0  0  0  0  0  0  0  0  0
   35.6590   31.5820   41.6050 H   0  0  0  0  0  0  0  0  0  0  0  0
   37.3890   27.3810   40.8360 C   0  0  0  0  0  0  0  0  0  0  0  0
   36.7180   26.4440   40.0590 C   0  0  0  0  0  0  0  0  0  0  0  0
   36.0220   26.8250   39.2950 H   0  0  0  0  0  0  0  0  0  0  0  0
   36.8560   25.0900   40.1710 C   0  0  0  0  0  3  0  0  0  0  0  0
   37.7130   24.5720   41.1120 C   0  0  0  0  0  3  0  0  0  0  0  0
   38.4070   25.4360   41.9110 C   0  0  0  0  0  0  0  0  0  0  0  0
   39.2480   24.8650   42.8330 C   0  0  0  0  0  3  0  0  0  0  0  0
   39.9850   25.6610   43.6790 C   0  0  0  0  0  3  0  0  0  0  0  0
   39.8310   27.0440   43.5490 C   0  0  0  0  0  3  0  0  0  0  0  0
   38.9700   27.5490   42.6040 C   0  0  0  0  0  3  0  0  0  0  0  0
   38.2260   26.7880   41.7510 C   0  0  0  0  0  0  0  0  0  0  0  0
   38.9860   31.1770   38.5110 C   0  0  0  0  0  0  0  0  0  0  0  0
   39.9810   30.6430   37.9720 O   0  0  0  0  0  0  0  0  0  0  0  0
   38.6840   32.1870   38.2680 H   0  0  0  0  0  0  0  0  0  0  0  0
  1  6  2  0  0  0  0
  1  2  1  0  0  0  0
  2  3  2  0  0  0  0
  3  4  1  0  0  0  0
  3  8  1  0  0  0  0
  5  9  1  0  0  0  0
  5  4  2  0  0  0  0
  6  5  1  0  0  0  0
  7  2  1  0  0  0  0
  9 19  1  0  0  0  0
 10 12  1  0  0  0  0
 10  9  2  0  0  0  0
 11 10  1  0  0  0  0
 12 13  2  0  0  0  0
 13 14  1  0  0  0  0
 14 15  1  0  0  0  0
 15 16  2  0  0  0  0
 17 16  1  0  0  0  0
 18 17  2  0  0  0  0
 19 14  2  0  0  0  0
 19 18  1  0  0  0  0
 20  1  1  0  0  0  0
 21 20  2  0  0  0  0
 22 20  1  0  0  0  0
M  END
>  <minimizedAffinity>
-4.91231728

$$$$

 OpenBabel03252503583D

 22 24  0  0  0  0  0  0  0  0999 V2000
   41.0410   32.3350   39.1040 C   0  0  0  0  0  0  0  0  0  0  0  0
   40.8920   33.7080   39.1720 C   0  0  0  0  0  0  0  0  0  0  0  0
   39.8970   34.1610   40.0690 C   0  0  0  0  0  0  0  0  0  0  0  0
   39.1820   33.2590   40.7780 N   0  0  0  0  0  0  0  0  0  0  0  0
   39.3600   31.9420   40.6830 C   0  0  0  0  0  0  0  0  0  0  0  0
   40.2960   31.5390   39.8380 N   0  0  0  0  0  0  0  0  0  0  0  0
   41.3930   34.5000   38.6640 H   0  0  0  0  0  0  0  0  0  0  0  0
   39.6520   35.1970   40.2420 H   0  0  0  0  0  0  0  0  0  0  0  0
   38.6970   30.8300   41.3590 C   0  0  0  0  0  0  0  0  0  0  0  0
   39.1620   30.2510   42.5340 C   0  0  0  0  0  0  0  0  0  0  0  0
   40.0850   30.6630   42.9700 H   0  0  0  0  0  0  0  0  0  0  0  0
   38.5610   29.2130   43.1870 C   0  0  0  0  0  3  0  0  0  0  0  0
   37.4080   28.6680   42.6760 C   0  0  0  0  0  3  0  0  0  0  0  0
   36.8930   29.1880   41.5220 C   0  0  0  0  0  0  0  0  0  0  0  0
   35.7400   28.6060   41.0570 C   0  0  0  0  0  3  0  0  0  0  0  0
   35.1530   29.0680   39.9020 C   0  0  0  0  0  3  0  0  0  0  0  0
   35.7830   30.1310   39.2480 C   0  0  0  0  0  3  0  0  0  0  0  0
   36.9360   30.6660   39.7690 C   0  0  0  0  0  3  0  0  0  0  0  0
   37.5420   30.2330   40.9120 C   0  0  0  0  0  0  0  0  0  0  0  0
   42.0370   31.8980   38.1850 C   0  0  0  0  0  0  0  0  0  0  0  0
   41.8960   31.5790   36.9840 O   0  0  0  0  0  0  0  0  0  0  0  0
   43.0040   31.8680   38.6690 H   0  0  0  0  0  0  0  0  0  0  0  0
  1  2  2  0  0  0  0
  1  6  1  0  0  0  0
  2  3  1  0  0  0  0
  3  8  1  0  0  0  0
  3  4  2  0  0  0  0
  5  4  1  0  0  0  0
  5  9  1  0  0  0  0
  6  5  2  0  0  0  0
  7  2  1  0  0  0  0
  9 10  1  0  0  0  0
 10 11  1  0  0  0  0
 10 12  2  0  0  0  0
 13 12  1  0  0  0  0
 14 13  2  0  0  0  0
 15 14  1  0  0  0  0
 16 15  2  0  0  0  0
 17 18  2  0  0  0  0
 17 16  1  0  0  0  0
 18 19  1  0  0  0  0
 19  9  2  0  0  0  0
 19 14  1  0  0  0  0
 20 22  1  0  0  0  0
 20  1  1  0  0  0  0
 21 20  2  0  0  0  0
M  END
>  <minimizedAffinity>
-4.8630023

$$$$
