
 OpenBabel03252505373D

 35 38  0  0  0  0  0  0  0  0999 V2000
   45.4380   34.2320   44.8390 C   0  0  0  0  0  0  0  0  0  0  0  0
   46.0590   33.1610   44.1450 C   0  0  0  0  0  0  0  0  0  0  0  0
   46.4040   32.0490   44.8830 C   0  0  0  0  0  0  0  0  0  0  0  0
   46.1370   32.0350   46.2220 N   0  0  0  0  0  0  0  0  0  0  0  0
   45.5440   33.0800   46.8450 C   0  0  0  0  0  0  0  0  0  0  0  0
   45.1940   34.1810   46.1480 N   0  0  0  0  0  0  0  0  0  0  0  0
   45.2860   33.0570   48.2410 N   0  0  0  0  0  0  0  0  0  0  0  0
   45.1300   35.1520   44.3630 H   0  0  0  0  0  0  0  0  0  0  0  0
   46.2400   33.2430   48.6270 H   0  0  0  0  0  0  0  0  0  0  0  0
   44.3590   32.8910   48.7070 H   0  0  0  0  0  0  0  0  0  0  0  0
   46.2670   33.4320   42.7360 C   0  0  0  0  0  0  0  0  0  0  0  0
   47.5000   33.8670   42.2650 C   0  0  0  0  0  0  0  0  0  0  0  0
   48.3480   34.0070   42.8970 H   0  0  0  0  0  0  0  0  0  0  0  0
   47.7580   34.1650   40.9490 C   0  0  0  0  0  3  0  0  0  0  0  0
   46.7650   34.0410   40.0020 C   0  0  0  0  0  3  0  0  0  0  0  0
   45.5180   33.6140   40.4050 C   0  0  0  0  0  0  0  0  0  0  0  0
   44.5130   33.4890   39.4730 C   0  0  0  0  0  3  0  0  0  0  0  0
   43.2600   33.0730   39.8310 C   0  0  0  0  0  3  0  0  0  0  0  0
   43.0270   32.7800   41.1620 C   0  0  0  0  0  3  0  0  0  0  0  0
   44.0570   32.9170   42.0660 C   0  0  0  0  0  3  0  0  0  0  0  0
   45.3200   33.3310   41.7370 C   0  0  0  0  0  0  0  0  0  0  0  0
   47.0380   30.8970   44.3210 C   0  0  0  0  0  0  0  0  0  0  0  0
   48.4050   30.9840   44.0280 C   0  0  0  0  0  0  0  0  0  0  0  0
   49.1270   29.9150   43.4860 C   0  0  0  0  0  0  0  0  0  0  0  0
   48.4860   28.7350   43.2270 C   0  0  0  0  0  0  0  0  0  0  0  0
   47.1500   28.6480   43.5130 C   0  0  0  0  0  0  0  0  0  0  0  0
   46.4280   29.7060   44.0510 C   0  0  0  0  0  0  0  0  0  0  0  0
   48.9340   31.9070   44.2240 H   0  0  0  0  0  0  0  0  0  0  0  0
   50.1920   30.0540   43.2840 H   0  0  0  0  0  0  0  0  0  0  0  0
   49.0030   27.8860   42.8100 H   0  0  0  0  0  0  0  0  0  0  0  0
   46.6100   27.7140   43.3160 H   0  0  0  0  0  0  0  0  0  0  0  0
   44.9910   29.5890   44.3600 C   0  0  0  0  0  0  0  0  0  0  0  0
   44.5580   28.3390   43.9270 F   0  0  0  0  0  0  0  0  0  0  0  0
   44.3100   30.5850   43.6910 F   0  0  0  0  0  0  0  0  0  0  0  0
   44.6740   29.7300   45.6880 F   0  0  0  0  0  0  0  0  0  0  0  0
  1  6  1  0  0  0  0
  2  1  2  0  0  0  0
  2  3  1  0  0  0  0
  3  4  2  0  0  0  0
  4  5  1  0  0  0  0
  5  7  1  0  0  0  0
  6  5  2  0  0  0  0
  7  9  1  0  0  0  0
  7 10  1  0  0  0  0
  8  1  1  0  0  0  0
 11  2  1  0  0  0  0
 12 11  1  0  0  0  0
 12 13  1  0  0  0  0
 14 12  2  0  0  0  0
 15 16  2  0  0  0  0
 15 14  1  0  0  0  0
 16 21  1  0  0  0  0
 17 18  2  0  0  0  0
 17 16  1  0  0  0  0
 18 19  1  0  0  0  0
 19 20  2  0  0  0  0
 21 20  1  0  0  0  0
 21 11  2  0  0  0  0
 22  3  1  0  0  0  0
 23 28  1  0  0  0  0
 23 22  2  0  0  0  0
 24 23  1  0  0  0  0
 25 24  2  0  0  0  0
 25 26  1  0  0  0  0
 26 27  2  0  0  0  0
 27 22  1  0  0  0  0
 27 32  1  0  0  0  0
 29 24  1  0  0  0  0
 30 25  1  0  0  0  0
 31 26  1  0  0  0  0
 32 35  1  0  0  0  0
 33 32  1  0  0  0  0
 34 32  1  0  0  0  0
M  END
>  <minimizedAffinity>
-4.81902313

>  <minimizedRMSD>
4.83777809

$$$$
