
 OpenBabel03242522123D

 22 24  0  0  0  0  0  0  0  0999 V2000
   44.4850   35.7240   44.9910 C   0  0  0  0  0  0  0  0  0  0  0  0
   45.2010   35.6300   43.7890 C   0  0  0  0  0  0  0  0  0  0  0  0
   46.1170   34.5930   43.6290 C   0  0  0  0  0  0  0  0  0  0  0  0
   46.2580   33.7310   44.6620 N   0  0  0  0  0  0  0  0  0  0  0  0
   45.5660   33.8350   45.8040 C   0  0  0  0  0  0  0  0  0  0  0  0
   44.6760   34.8330   45.9740 N   0  0  0  0  0  0  0  0  0  0  0  0
   43.7720   36.5200   45.1300 H   0  0  0  0  0  0  0  0  0  0  0  0
   45.7470   33.0900   46.5850 H   0  0  0  0  0  0  0  0  0  0  0  0
   46.7830   34.6070   42.3590 C   0  0  0  0  0  0  0  0  0  0  0  0
   47.9540   35.2970   42.1290 C   0  0  0  0  0  0  0  0  0  0  0  0
   48.3640   35.8500   42.9840 H   0  0  0  0  0  0  0  0  0  0  0  0
   48.6260   35.3380   40.9280 C   0  0  0  0  0  0  0  0  0  0  0  0
   48.1060   34.6480   39.8710 C   0  0  0  0  0  0  0  0  0  0  0  0
   46.9350   33.9360   40.0360 C   0  0  0  0  0  0  0  0  0  0  0  0
   46.4160   33.2390   38.9600 C   0  0  0  0  0  0  0  0  0  0  0  0
   45.2460   32.5100   39.0670 C   0  0  0  0  0  0  0  0  0  0  0  0
   44.5980   32.4910   40.2890 C   0  0  0  0  0  0  0  0  0  0  0  0
   45.1430   33.1940   41.3340 C   0  0  0  0  0  0  0  0  0  0  0  0
   46.2980   33.9240   41.2590 C   0  0  0  0  0  0  0  0  0  0  0  0
   44.9090   36.6440   42.8100 N   0  0  0  0  0  0  0  0  0  0  0  0
   44.4730   36.5690   41.8600 H   0  0  0  0  0  0  0  0  0  0  0  0
   45.1410   37.6480   43.0040 H   0  0  0  0  0  0  0  0  0  0  0  0
  1  7  1  0  0  0  0
  1  6  1  0  0  0  0
  2  1  2  0  0  0  0
  3  2  1  0  0  0  0
  3  4  2  0  0  0  0
  4  5  1  0  0  0  0
  5  6  2  0  0  0  0
  5  8  1  0  0  0  0
  9  3  1  0  0  0  0
 10  9  1  0  0  0  0
 10 11  1  0  0  0  0
 12 10  2  0  0  0  0
 13 14  2  0  0  0  0
 13 12  1  0  0  0  0
 14 19  1  0  0  0  0
 15 16  2  0  0  0  0
 15 14  1  0  0  0  0
 16 17  1  0  0  0  0
 17 18  2  0  0  0  0
 19 18  1  0  0  0  0
 19  9  2  0  0  0  0
 20 22  1  0  0  0  0
 20  2  1  0  0  0  0
 21 20  1  0  0  0  0
M  END
>  <minimizedAffinity>
-5.80862427

>  <minimizedRMSD>
2.595505

$$$$
