
 OpenBabel03242518243D

 34 37  0  0  0  0  0  0  0  0999 V2000
   40.9300   31.5760   39.2510 C   0  0  0  0  0  0  0  0  0  0  0  0
   41.1420   32.8420   39.7840 C   0  0  0  0  0  0  0  0  0  0  0  0
   40.1570   33.3710   40.5960 C   0  0  0  0  0  0  0  0  0  0  0  0
   39.0430   32.6500   40.8380 N   0  0  0  0  0  0  0  0  0  0  0  0
   38.8400   31.4380   40.3280 C   0  0  0  0  0  0  0  0  0  0  0  0
   39.7790   30.9310   39.5520 N   0  0  0  0  0  0  0  0  0  0  0  0
   41.6120   31.0180   38.5880 H   0  0  0  0  0  0  0  0  0  0  0  0
   40.2970   34.3330   41.0130 H   0  0  0  0  0  0  0  0  0  0  0  0
   42.3640   33.4870   39.4490 N   0  0  0  0  0  0  0  0  0  0  0  0
   43.4180   33.5040   40.4230 C   0  0  0  0  0  0  0  0  0  0  0  0
   44.6670   34.1610   39.9540 C   0  0  0  0  0  0  0  0  0  0  0  0
   45.0510   33.8680   38.6150 N   0  0  0  0  0  0  0  0  0  0  0  0
   44.0240   33.6870   37.6710 C   0  0  0  0  0  0  0  0  0  0  0  0
   42.6750   34.1410   38.2150 C   0  0  0  0  0  0  0  0  0  0  0  0
   43.0400   34.0250   41.3260 H   0  0  0  0  0  0  0  0  0  0  0  0
   43.6090   32.4390   40.7490 H   0  0  0  0  0  0  0  0  0  0  0  0
   44.5140   35.2650   40.0610 H   0  0  0  0  0  0  0  0  0  0  0  0
   45.4900   33.9100   40.6490 H   0  0  0  0  0  0  0  0  0  0  0  0
   45.8780   33.2600   38.5080 H   0  0  0  0  0  0  0  0  0  0  0  0
   43.8920   32.5950   37.4530 H   0  0  0  0  0  0  0  0  0  0  0  0
   44.1770   34.2260   36.7130 H   0  0  0  0  0  0  0  0  0  0  0  0
   41.9740   34.0340   37.3970 H   0  0  0  0  0  0  0  0  0  0  0  0
   42.8390   35.2250   38.4780 H   0  0  0  0  0  0  0  0  0  0  0  0
   37.6950   30.5350   40.4950 C   0  0  0  0  0  0  0  0  0  0  0  0
   36.5790   30.5810   39.6700 C   0  0  0  0  0  0  0  0  0  0  0  0
   36.5440   31.3160   38.8610 H   0  0  0  0  0  0  0  0  0  0  0  0
   35.4890   29.7590   39.7870 C   0  0  0  0  0  3  0  0  0  0  0  0
   35.4590   28.8170   40.7720 C   0  0  0  0  0  3  0  0  0  0  0  0
   36.5370   28.7260   41.6190 C   0  0  0  0  0  0  0  0  0  0  0  0
   36.4600   27.7590   42.5970 C   0  0  0  0  0  3  0  0  0  0  0  0
   37.4890   27.5850   43.4970 C   0  0  0  0  0  3  0  0  0  0  0  0
   38.5710   28.4280   43.3510 C   0  0  0  0  0  3  0  0  0  0  0  0
   38.5980   29.3770   42.3580 C   0  0  0  0  0  3  0  0  0  0  0  0
   37.5870   29.5710   41.4480 C   0  0  0  0  0  0  0  0  0  0  0  0
  1  6  2  0  0  0  0
  1  2  1  0  0  0  0
  2  3  2  0  0  0  0
  3  4  1  0  0  0  0
  3  8  1  0  0  0  0
  5 24  1  0  0  0  0
  5  4  2  0  0  0  0
  6  5  1  0  0  0  0
  7  1  1  0  0  0  0
  9  2  1  0  0  0  0
  9 10  1  0  0  0  0
 10 16  1  0  0  0  0
 10 15  1  0  0  0  0
 11 17  1  0  0  0  0
 11 10  1  0  0  0  0
 11 18  1  0  0  0  0
 12 11  1  0  0  0  0
 13 14  1  0  0  0  0
 13 12  1  0  0  0  0
 14 23  1  0  0  0  0
 14  9  1  0  0  0  0
 19 12  1  0  0  0  0
 20 13  1  0  0  0  0
 21 13  1  0  0  0  0
 22 14  1  0  0  0  0
 24 34  1  0  0  0  0
 25 27  1  0  0  0  0
 25 24  2  0  0  0  0
 26 25  1  0  0  0  0
 27 28  2  0  0  0  0
 28 29  1  0  0  0  0
 29 30  1  0  0  0  0
 30 31  2  0  0  0  0
 32 31  1  0  0  0  0
 33 32  2  0  0  0  0
 34 29  2  0  0  0  0
 34 33  1  0  0  0  0
M  END
>  <minimizedAffinity>
-5.85129499

$$$$

 OpenBabel03242518243D

 34 37  0  0  0  0  0  0  0  0999 V2000
   41.1240   31.3180   39.7110 C   0  0  0  0  0  0  0  0  0  0  0  0
   41.9750   32.2450   40.3020 C   0  0  0  0  0  0  0  0  0  0  0  0
   42.0990   32.2180   41.6780 C   0  0  0  0  0  0  0  0  0  0  0  0
   41.4010   31.3060   42.3860 N   0  0  0  0  0  0  0  0  0  0  0  0
   40.5860   30.4200   41.8210 C   0  0  0  0  0  0  0  0  0  0  0  0
   40.4650   30.4440   40.5060 N   0  0  0  0  0  0  0  0  0  0  0  0
   40.9140   31.2110   38.6330 H   0  0  0  0  0  0  0  0  0  0  0  0
   42.7410   32.9130   42.1500 H   0  0  0  0  0  0  0  0  0  0  0  0
   42.6520   33.1450   39.4340 N   0  0  0  0  0  0  0  0  0  0  0  0
   44.0880   33.1510   39.4410 C   0  0  0  0  0  0  0  0  0  0  0  0
   44.6950   34.0930   38.4640 C   0  0  0  0  0  0  0  0  0  0  0  0
   44.0690   34.1420   37.1850 N   0  0  0  0  0  0  0  0  0  0  0  0
   42.6740   33.9760   37.1390 C   0  0  0  0  0  0  0  0  0  0  0  0
   42.0510   34.0730   38.5260 C   0  0  0  0  0  0  0  0  0  0  0  0
   44.4230   33.4100   40.4660 H   0  0  0  0  0  0  0  0  0  0  0  0
   44.4420   32.0930   39.2680 H   0  0  0  0  0  0  0  0  0  0  0  0
   44.6610   35.1110   38.9290 H   0  0  0  0  0  0  0  0  0  0  0  0
   45.7690   33.8570   38.3520 H   0  0  0  0  0  0  0  0  0  0  0  0
   44.6020   33.7190   36.4090 H   0  0  0  0  0  0  0  0  0  0  0  0
   42.4220   32.9420   36.7840 H   0  0  0  0  0  0  0  0  0  0  0  0
   42.1410   34.7120   36.5010 H   0  0  0  0  0  0  0  0  0  0  0  0
   40.9810   34.0100   38.3770 H   0  0  0  0  0  0  0  0  0  0  0  0
   42.3560   35.0950   38.8900 H   0  0  0  0  0  0  0  0  0  0  0  0
   39.7650   29.3750   42.4440 C   0  0  0  0  0  0  0  0  0  0  0  0
   38.4280   29.5660   42.7670 C   0  0  0  0  0  0  0  0  0  0  0  0
   37.9610   30.5300   42.5510 H   0  0  0  0  0  0  0  0  0  0  0  0
   37.6240   28.6210   43.3490 C   0  0  0  0  0  3  0  0  0  0  0  0
   38.1370   27.3930   43.6490 C   0  0  0  0  0  3  0  0  0  0  0  0
   39.4550   27.1480   43.3520 C   0  0  0  0  0  0  0  0  0  0  0  0
   39.9260   25.8950   43.6730 C   0  0  0  0  0  3  0  0  0  0  0  0
   41.2340   25.5470   43.4160 C   0  0  0  0  0  3  0  0  0  0  0  0
   42.0160   26.5200   42.8300 C   0  0  0  0  0  3  0  0  0  0  0  0
   41.4980   27.7550   42.5290 C   0  0  0  0  0  3  0  0  0  0  0  0
   40.1980   28.1280   42.7740 C   0  0  0  0  0  0  0  0  0  0  0  0
  1  2  2  0  0  0  0
  1  6  1  0  0  0  0
  2  3  1  0  0  0  0
  3  8  1  0  0  0  0
  3  4  2  0  0  0  0
  5  4  1  0  0  0  0
  5 24  1  0  0  0  0
  6  5  2  0  0  0  0
  7  1  1  0  0  0  0
  9 10  1  0  0  0  0
  9  2  1  0  0  0  0
 10 15  1  0  0  0  0
 11 17  1  0  0  0  0
 11 10  1  0  0  0  0
 12 11  1  0  0  0  0
 13 12  1  0  0  0  0
 13 14  1  0  0  0  0
 14 23  1  0  0  0  0
 14  9  1  0  0  0  0
 16 10  1  0  0  0  0
 18 11  1  0  0  0  0
 19 12  1  0  0  0  0
 20 13  1  0  0  0  0
 21 13  1  0  0  0  0
 22 14  1  0  0  0  0
 24 25  2  0  0  0  0
 24 34  1  0  0  0  0
 25 27  1  0  0  0  0
 26 25  1  0  0  0  0
 27 28  2  0  0  0  0
 29 28  1  0  0  0  0
 29 30  1  0  0  0  0
 31 30  2  0  0  0  0
 32 31  1  0  0  0  0
 33 34  1  0  0  0  0
 33 32  2  0  0  0  0
 34 29  2  0  0  0  0
M  END
>  <minimizedAffinity>
-5.79589224

$$$$

 OpenBabel03242518243D

 34 37  0  0  0  0  0  0  0  0999 V2000
   41.0330   30.3760   39.8500 C   0  0  0  0  0  0  0  0  0  0  0  0
   40.4850   31.0610   38.7710 C   0  0  0  0  0  0  0  0  0  0  0  0
   39.1210   30.9640   38.5720 C   0  0  0  0  0  0  0  0  0  0  0  0
   38.3820   30.2190   39.4200 N   0  0  0  0  0  0  0  0  0  0  0  0
   38.9050   29.5630   40.4530 C   0  0  0  0  0  0  0  0  0  0  0  0
   40.2080   29.6540   40.6440 N   0  0  0  0  0  0  0  0  0  0  0  0
   42.0960   30.3500   40.1420 H   0  0  0  0  0  0  0  0  0  0  0  0
   38.6820   31.4770   37.7580 H   0  0  0  0  0  0  0  0  0  0  0  0
   41.3810   31.8110   37.9610 N   0  0  0  0  0  0  0  0  0  0  0  0
   41.4800   33.2270   38.1810 C   0  0  0  0  0  0  0  0  0  0  0  0
   42.4790   33.9060   37.3140 C   0  0  0  0  0  0  0  0  0  0  0  0
   43.7070   33.2100   37.1260 N   0  0  0  0  0  0  0  0  0  0  0  0
   43.6530   31.8060   37.0680 C   0  0  0  0  0  0  0  0  0  0  0  0
   42.2220   31.3040   36.9200 C   0  0  0  0  0  0  0  0  0  0  0  0
   40.4780   33.6700   38.0110 H   0  0  0  0  0  0  0  0  0  0  0  0
   41.7020   33.3940   39.2760 H   0  0  0  0  0  0  0  0  0  0  0  0
   41.9910   34.0680   36.3200 H   0  0  0  0  0  0  0  0  0  0  0  0
   42.6750   34.9190   37.7140 H   0  0  0  0  0  0  0  0  0  0  0  0
   44.5290   33.6130   37.6010 H   0  0  0  0  0  0  0  0  0  0  0  0
   44.0100   31.3680   38.0370 H   0  0  0  0  0  0  0  0  0  0  0  0
   44.2340   31.3540   36.2370 H   0  0  0  0  0  0  0  0  0  0  0  0
   42.2930   30.2300   36.8080 H   0  0  0  0  0  0  0  0  0  0  0  0
   41.8600   31.7940   35.9710 H   0  0  0  0  0  0  0  0  0  0  0  0
   38.2440   28.7200   41.4560 C   0  0  0  0  0  0  0  0  0  0  0  0
   37.8870   29.1930   42.7120 C   0  0  0  0  0  0  0  0  0  0  0  0
   38.1030   30.2330   42.9720 H   0  0  0  0  0  0  0  0  0  0  0  0
   37.2700   28.4440   43.6800 C   0  0  0  0  0  3  0  0  0  0  0  0
   36.9690   27.1370   43.4290 C   0  0  0  0  0  3  0  0  0  0  0  0
   37.3000   26.6160   42.2030 C   0  0  0  0  0  0  0  0  0  0  0  0
   36.9750   25.2940   41.9980 C   0  0  0  0  0  3  0  0  0  0  0  0
   37.2630   24.6750   40.8010 C   0  0  0  0  0  3  0  0  0  0  0  0
   37.8840   25.4560   39.8490 C   0  0  0  0  0  3  0  0  0  0  0  0
   38.1870   26.7720   40.1040 C   0  0  0  0  0  3  0  0  0  0  0  0
   37.9100   27.4130   41.2870 C   0  0  0  0  0  0  0  0  0  0  0  0
  1  7  1  0  0  0  0
  1  6  1  0  0  0  0
  2  1  2  0  0  0  0
  3  2  1  0  0  0  0
  3  4  2  0  0  0  0
  4  5  1  0  0  0  0
  5  6  2  0  0  0  0
  5 24  1  0  0  0  0
  8  3  1  0  0  0  0
  9 10  1  0  0  0  0
  9  2  1  0  0  0  0
 10 16  1  0  0  0  0
 11 18  1  0  0  0  0
 11 10  1  0  0  0  0
 12 11  1  0  0  0  0
 12 19  1  0  0  0  0
 13 12  1  0  0  0  0
 13 20  1  0  0  0  0
 14 13  1  0  0  0  0
 14  9  1  0  0  0  0
 15 10  1  0  0  0  0
 17 11  1  0  0  0  0
 21 13  1  0  0  0  0
 22 14  1  0  0  0  0
 23 14  1  0  0  0  0
 24 25  1  0  0  0  0
 25 26  1  0  0  0  0
 25 27  2  0  0  0  0
 28 27  1  0  0  0  0
 29 28  2  0  0  0  0
 30 29  1  0  0  0  0
 31 30  2  0  0  0  0
 32 33  2  0  0  0  0
 32 31  1  0  0  0  0
 33 34  1  0  0  0  0
 34 24  2  0  0  0  0
 34 29  1  0  0  0  0
M  END
>  <minimizedAffinity>
-5.72353315

$$$$

 OpenBabel03242518243D

 34 37  0  0  0  0  0  0  0  0999 V2000
   41.1820   30.5340   38.6150 C   0  0  0  0  0  0  0  0  0  0  0  0
   41.6840   31.7400   39.0890 C   0  0  0  0  0  0  0  0  0  0  0  0
   40.9240   32.4380   40.0070 C   0  0  0  0  0  0  0  0  0  0  0  0
   39.7390   31.9300   40.4040 N   0  0  0  0  0  0  0  0  0  0  0  0
   39.2570   30.7760   39.9510 C   0  0  0  0  0  0  0  0  0  0  0  0
   39.9820   30.1070   39.0740 N   0  0  0  0  0  0  0  0  0  0  0  0
   41.6620   29.8620   37.8840 H   0  0  0  0  0  0  0  0  0  0  0  0
   41.2860   33.3580   40.3810 H   0  0  0  0  0  0  0  0  0  0  0  0
   42.9490   32.1540   38.5870 N   0  0  0  0  0  0  0  0  0  0  0  0
   43.4080   31.5960   37.3460 C   0  0  0  0  0  0  0  0  0  0  0  0
   44.7180   32.1300   36.8890 C   0  0  0  0  0  0  0  0  0  0  0  0
   44.9040   33.5320   37.0570 N   0  0  0  0  0  0  0  0  0  0  0  0
   44.3220   34.1320   38.1880 C   0  0  0  0  0  0  0  0  0  0  0  0
   43.8450   33.0910   39.1930 C   0  0  0  0  0  0  0  0  0  0  0  0
   43.4790   30.4960   37.4720 H   0  0  0  0  0  0  0  0  0  0  0  0
   42.6030   31.7590   36.5720 H   0  0  0  0  0  0  0  0  0  0  0  0
   45.5100   31.5830   37.4590 H   0  0  0  0  0  0  0  0  0  0  0  0
   44.8720   31.8520   35.8300 H   0  0  0  0  0  0  0  0  0  0  0  0
   44.8940   34.0930   36.1910 H   0  0  0  0  0  0  0  0  0  0  0  0
   43.3960   34.6900   37.8930 H   0  0  0  0  0  0  0  0  0  0  0  0
   44.9930   34.8220   38.7420 H   0  0  0  0  0  0  0  0  0  0  0  0
   43.4880   33.6460   40.0510 H   0  0  0  0  0  0  0  0  0  0  0  0
   44.7760   32.5050   39.4400 H   0  0  0  0  0  0  0  0  0  0  0  0
   38.0000   30.0940   40.2810 C   0  0  0  0  0  0  0  0  0  0  0  0
   36.8440   30.2510   39.5280 C   0  0  0  0  0  0  0  0  0  0  0  0
   36.8620   30.9060   38.6530 H   0  0  0  0  0  0  0  0  0  0  0  0
   35.6490   29.6360   39.7970 C   0  0  0  0  0  3  0  0  0  0  0  0
   35.5480   28.8040   40.8730 C   0  0  0  0  0  3  0  0  0  0  0  0
   36.6600   28.6120   41.6550 C   0  0  0  0  0  0  0  0  0  0  0  0
   36.5080   27.7640   42.7290 C   0  0  0  0  0  3  0  0  0  0  0  0
   37.5640   27.5030   43.5750 C   0  0  0  0  0  3  0  0  0  0  0  0
   38.7520   28.1360   43.2760 C   0  0  0  0  0  3  0  0  0  0  0  0
   38.8510   28.9740   42.1920 C   0  0  0  0  0  3  0  0  0  0  0  0
   37.8150   29.2510   41.3320 C   0  0  0  0  0  0  0  0  0  0  0  0
  1  6  2  0  0  0  0
  1  2  1  0  0  0  0
  2  3  2  0  0  0  0
  3  8  1  0  0  0  0
  3  4  1  0  0  0  0
  5 24  1  0  0  0  0
  5  4  2  0  0  0  0
  6  5  1  0  0  0  0
  7  1  1  0  0  0  0
  9  2  1  0  0  0  0
  9 14  1  0  0  0  0
 10 15  1  0  0  0  0
 10  9  1  0  0  0  0
 11 12  1  0  0  0  0
 11 10  1  0  0  0  0
 11 17  1  0  0  0  0
 12 13  1  0  0  0  0
 13 21  1  0  0  0  0
 13 14  1  0  0  0  0
 14 23  1  0  0  0  0
 14 22  1  0  0  0  0
 16 10  1  0  0  0  0
 18 11  1  0  0  0  0
 19 12  1  0  0  0  0
 20 13  1  0  0  0  0
 24 34  1  0  0  0  0
 25 27  1  0  0  0  0
 25 24  2  0  0  0  0
 26 25  1  0  0  0  0
 27 28  2  0  0  0  0
 28 29  1  0  0  0  0
 29 30  1  0  0  0  0
 30 31  2  0  0  0  0
 32 31  1  0  0  0  0
 33 32  2  0  0  0  0
 34 29  2  0  0  0  0
 34 33  1  0  0  0  0
M  END
>  <minimizedAffinity>
-5.62494326

$$$$

 OpenBabel03242518243D

 34 37  0  0  0  0  0  0  0  0999 V2000
   39.3110   29.3440   39.9710 C   0  0  0  0  0  0  0  0  0  0  0  0
   38.6120   30.4400   40.4630 C   0  0  0  0  0  0  0  0  0  0  0  0
   37.3950   30.2050   41.0730 C   0  0  0  0  0  0  0  0  0  0  0  0
   36.9380   28.9390   41.1680 N   0  0  0  0  0  0  0  0  0  0  0  0
   37.6060   27.8900   40.6970 C   0  0  0  0  0  0  0  0  0  0  0  0
   38.7690   28.1120   40.1130 N   0  0  0  0  0  0  0  0  0  0  0  0
   40.2880   29.3630   39.4590 H   0  0  0  0  0  0  0  0  0  0  0  0
   36.8450   31.0240   41.4560 H   0  0  0  0  0  0  0  0  0  0  0  0
   39.2140   31.7180   40.2980 N   0  0  0  0  0  0  0  0  0  0  0  0
   38.4660   32.8810   40.6820 C   0  0  0  0  0  0  0  0  0  0  0  0
   39.2050   34.1600   40.5130 C   0  0  0  0  0  0  0  0  0  0  0  0
   40.5750   34.1350   40.9000 N   0  0  0  0  0  0  0  0  0  0  0  0
   41.2890   32.9440   40.6800 C   0  0  0  0  0  0  0  0  0  0  0  0
   40.5200   31.9870   39.7790 C   0  0  0  0  0  0  0  0  0  0  0  0
   37.5370   32.9050   40.0750 H   0  0  0  0  0  0  0  0  0  0  0  0
   38.1240   32.7400   41.7490 H   0  0  0  0  0  0  0  0  0  0  0  0
   39.1330   34.4370   39.4310 H   0  0  0  0  0  0  0  0  0  0  0  0
   38.6710   34.9610   41.0570 H   0  0  0  0  0  0  0  0  0  0  0  0
   40.8060   34.6500   41.7640 H   0  0  0  0  0  0  0  0  0  0  0  0
   41.4160   32.3890   41.6460 H   0  0  0  0  0  0  0  0  0  0  0  0
   42.2880   33.0830   40.2160 H   0  0  0  0  0  0  0  0  0  0  0  0
   41.1780   31.1440   39.6090 H   0  0  0  0  0  0  0  0  0  0  0  0
   40.3550   32.5770   38.8330 H   0  0  0  0  0  0  0  0  0  0  0  0
   37.2490   26.4670   40.7220 C   0  0  0  0  0  0  0  0  0  0  0  0
   37.5950   25.6270   41.7720 C   0  0  0  0  0  0  0  0  0  0  0  0
   38.1550   26.0340   42.6180 H   0  0  0  0  0  0  0  0  0  0  0  0
   37.2840   24.2940   41.8390 C   0  0  0  0  0  3  0  0  0  0  0  0
   36.5860   23.7140   40.8200 C   0  0  0  0  0  3  0  0  0  0  0  0
   36.2190   24.4980   39.7540 C   0  0  0  0  0  0  0  0  0  0  0  0
   35.5160   23.8670   38.7520 C   0  0  0  0  0  3  0  0  0  0  0  0
   35.0990   24.5640   37.6380 C   0  0  0  0  0  3  0  0  0  0  0  0
   35.4280   25.9020   37.6020 C   0  0  0  0  0  3  0  0  0  0  0  0
   36.1300   26.4840   38.6300 C   0  0  0  0  0  3  0  0  0  0  0  0
   36.5570   25.8130   39.7500 C   0  0  0  0  0  0  0  0  0  0  0  0
  1  6  2  0  0  0  0
  1  2  1  0  0  0  0
  2  3  2  0  0  0  0
  3  4  1  0  0  0  0
  3  8  1  0  0  0  0
  5 24  1  0  0  0  0
  5  4  2  0  0  0  0
  6  5  1  0  0  0  0
  7  1  1  0  0  0  0
  9  2  1  0  0  0  0
  9 10  1  0  0  0  0
 10 16  1  0  0  0  0
 11 10  1  0  0  0  0
 11 12  1  0  0  0  0
 11 18  1  0  0  0  0
 12 19  1  0  0  0  0
 13 12  1  0  0  0  0
 13 20  1  0  0  0  0
 14  9  1  0  0  0  0
 14 13  1  0  0  0  0
 15 10  1  0  0  0  0
 17 11  1  0  0  0  0
 21 13  1  0  0  0  0
 22 14  1  0  0  0  0
 23 14  1  0  0  0  0
 24 25  1  0  0  0  0
 25 27  2  0  0  0  0
 25 26  1  0  0  0  0
 28 27  1  0  0  0  0
 29 28  2  0  0  0  0
 30 29  1  0  0  0  0
 31 30  2  0  0  0  0
 32 31  1  0  0  0  0
 32 33  2  0  0  0  0
 33 34  1  0  0  0  0
 34 29  1  0  0  0  0
 34 24  2  0  0  0  0
M  END
>  <minimizedAffinity>
-5.49758863

$$$$

 OpenBabel03242518243D

 34 37  0  0  0  0  0  0  0  0999 V2000
   38.1460   27.8850   40.3010 C   0  0  0  0  0  0  0  0  0  0  0  0
   37.9520   27.3740   41.5790 C   0  0  0  0  0  0  0  0  0  0  0  0
   37.8980   28.2710   42.6290 C   0  0  0  0  0  0  0  0  0  0  0  0
   38.0310   29.5890   42.3780 N   0  0  0  0  0  0  0  0  0  0  0  0
   38.2160   30.0790   41.1550 C   0  0  0  0  0  0  0  0  0  0  0  0
   38.2690   29.2240   40.1500 N   0  0  0  0  0  0  0  0  0  0  0  0
   38.2140   27.3060   39.3640 H   0  0  0  0  0  0  0  0  0  0  0  0
   37.7510   27.9050   43.6100 H   0  0  0  0  0  0  0  0  0  0  0  0
   37.8230   25.9630   41.6980 N   0  0  0  0  0  0  0  0  0  0  0  0
   36.9380   25.2790   40.7980 C   0  0  0  0  0  0  0  0  0  0  0  0
   36.9130   23.8040   40.9760 C   0  0  0  0  0  0  0  0  0  0  0  0
   38.1780   23.1900   41.2030 N   0  0  0  0  0  0  0  0  0  0  0  0
   39.1250   23.9130   41.9500 C   0  0  0  0  0  0  0  0  0  0  0  0
   38.4950   25.1180   42.6370 C   0  0  0  0  0  0  0  0  0  0  0  0
   35.9180   25.6890   40.9470 H   0  0  0  0  0  0  0  0  0  0  0  0
   37.2250   25.5630   39.7430 H   0  0  0  0  0  0  0  0  0  0  0  0
   36.2390   23.5910   41.8440 H   0  0  0  0  0  0  0  0  0  0  0  0
   36.4190   23.3420   40.1010 H   0  0  0  0  0  0  0  0  0  0  0  0
   38.5500   22.6270   40.4230 H   0  0  0  0  0  0  0  0  0  0  0  0
   39.9010   24.3460   41.2670 H   0  0  0  0  0  0  0  0  0  0  0  0
   39.6340   23.3270   42.7430 H   0  0  0  0  0  0  0  0  0  0  0  0
   39.2780   25.5590   43.2410 H   0  0  0  0  0  0  0  0  0  0  0  0
   37.6830   24.6720   43.2790 H   0  0  0  0  0  0  0  0  0  0  0  0
   38.3770   31.4720   40.7200 C   0  0  0  0  0  0  0  0  0  0  0  0
   37.3290   32.2190   40.1990 C   0  0  0  0  0  0  0  0  0  0  0  0
   36.3410   31.7580   40.1050 H   0  0  0  0  0  0  0  0  0  0  0  0
   37.4310   33.5200   39.7810 C   0  0  0  0  0  3  0  0  0  0  0  0
   38.6320   34.1610   39.8660 C   0  0  0  0  0  3  0  0  0  0  0  0
   39.7040   33.4700   40.3740 C   0  0  0  0  0  0  0  0  0  0  0  0
   40.8940   34.1610   40.4410 C   0  0  0  0  0  3  0  0  0  0  0  0
   42.0300   33.5590   40.9360 C   0  0  0  0  0  3  0  0  0  0  0  0
   41.8930   32.2500   41.3480 C   0  0  0  0  0  3  0  0  0  0  0  0
   40.6830   31.6060   41.2600 C   0  0  0  0  0  3  0  0  0  0  0  0
   39.5350   32.1820   40.7720 C   0  0  0  0  0  0  0  0  0  0  0  0
  1  2  1  0  0  0  0
  2  9  1  0  0  0  0
  2  3  2  0  0  0  0
  3  8  1  0  0  0  0
  4  3  1  0  0  0  0
  5  4  2  0  0  0  0
  6  1  2  0  0  0  0
  6  5  1  0  0  0  0
  7  1  1  0  0  0  0
  9 14  1  0  0  0  0
 10 15  1  0  0  0  0
 10 11  1  0  0  0  0
 10  9  1  0  0  0  0
 11 12  1  0  0  0  0
 11 17  1  0  0  0  0
 12 13  1  0  0  0  0
 13 14  1  0  0  0  0
 13 21  1  0  0  0  0
 14 22  1  0  0  0  0
 14 23  1  0  0  0  0
 16 10  1  0  0  0  0
 18 11  1  0  0  0  0
 19 12  1  0  0  0  0
 20 13  1  0  0  0  0
 24 34  1  0  0  0  0
 24  5  1  0  0  0  0
 25 24  2  0  0  0  0
 26 25  1  0  0  0  0
 27 28  2  0  0  0  0
 27 25  1  0  0  0  0
 28 29  1  0  0  0  0
 29 30  2  0  0  0  0
 29 34  1  0  0  0  0
 30 31  1  0  0  0  0
 31 32  2  0  0  0  0
 33 32  1  0  0  0  0
 34 33  2  0  0  0  0
M  END
>  <minimizedAffinity>
-5.46603441

$$$$

 OpenBabel03242518243D

 34 37  0  0  0  0  0  0  0  0999 V2000
   39.7410   30.8110   39.6960 C   0  0  0  0  0  0  0  0  0  0  0  0
   41.1290   30.7300   39.7440 C   0  0  0  0  0  0  0  0  0  0  0  0
   41.6900   29.7650   40.5580 C   0  0  0  0  0  0  0  0  0  0  0  0
   40.8820   28.9480   41.2650 N   0  0  0  0  0  0  0  0  0  0  0  0
   39.5550   29.0240   41.2200 C   0  0  0  0  0  0  0  0  0  0  0  0
   39.0170   29.9460   40.4440 N   0  0  0  0  0  0  0  0  0  0  0  0
   39.1430   31.5220   39.1030 H   0  0  0  0  0  0  0  0  0  0  0  0
   42.7430   29.6860   40.6100 H   0  0  0  0  0  0  0  0  0  0  0  0
   41.8560   31.6530   38.9430 N   0  0  0  0  0  0  0  0  0  0  0  0
   42.3700   31.2050   37.6800 C   0  0  0  0  0  0  0  0  0  0  0  0
   43.0720   32.2600   36.9020 C   0  0  0  0  0  0  0  0  0  0  0  0
   42.4590   33.5450   36.9140 N   0  0  0  0  0  0  0  0  0  0  0  0
   41.8060   33.9410   38.0950 C   0  0  0  0  0  0  0  0  0  0  0  0
   42.1440   33.0190   39.2590 C   0  0  0  0  0  0  0  0  0  0  0  0
   43.0630   30.3610   37.8730 H   0  0  0  0  0  0  0  0  0  0  0  0
   41.5130   30.7610   37.0930 H   0  0  0  0  0  0  0  0  0  0  0  0
   44.1060   32.3410   37.3240 H   0  0  0  0  0  0  0  0  0  0  0  0
   43.2070   31.9130   35.8610 H   0  0  0  0  0  0  0  0  0  0  0  0
   42.0140   33.8380   36.0300 H   0  0  0  0  0  0  0  0  0  0  0  0
   40.6960   33.8490   37.9690 H   0  0  0  0  0  0  0  0  0  0  0  0
   42.0430   34.9730   38.4290 H   0  0  0  0  0  0  0  0  0  0  0  0
   41.6620   33.4470   40.1280 H   0  0  0  0  0  0  0  0  0  0  0  0
   43.2670   33.0820   39.3390 H   0  0  0  0  0  0  0  0  0  0  0  0
   38.5490   28.2170   41.9200 C   0  0  0  0  0  0  0  0  0  0  0  0
   37.8170   28.7020   42.9960 C   0  0  0  0  0  0  0  0  0  0  0  0
   37.9910   29.7250   43.3410 H   0  0  0  0  0  0  0  0  0  0  0  0
   36.8690   27.9870   43.6800 C   0  0  0  0  0  3  0  0  0  0  0  0
   36.5960   26.7030   43.3070 C   0  0  0  0  0  3  0  0  0  0  0  0
   37.2910   26.1710   42.2490 C   0  0  0  0  0  0  0  0  0  0  0  0
   36.9800   24.8720   41.9120 C   0  0  0  0  0  3  0  0  0  0  0  0
   37.6190   24.2450   40.8640 C   0  0  0  0  0  3  0  0  0  0  0  0
   38.5670   24.9920   40.1970 C   0  0  0  0  0  3  0  0  0  0  0  0
   38.8400   26.2850   40.5740 C   0  0  0  0  0  3  0  0  0  0  0  0
   38.2180   26.9340   41.6130 C   0  0  0  0  0  0  0  0  0  0  0  0
  1  2  2  0  0  0  0
  1  6  1  0  0  0  0
  2  3  1  0  0  0  0
  3  8  1  0  0  0  0
  3  4  2  0  0  0  0
  5  4  1  0  0  0  0
  5 24  1  0  0  0  0
  6  5  2  0  0  0  0
  7  1  1  0  0  0  0
  9 14  1  0  0  0  0
  9  2  1  0  0  0  0
 10 15  1  0  0  0  0
 10  9  1  0  0  0  0
 11 12  1  0  0  0  0
 11 17  1  0  0  0  0
 11 10  1  0  0  0  0
 12 13  1  0  0  0  0
 13 21  1  0  0  0  0
 13 14  1  0  0  0  0
 14 23  1  0  0  0  0
 14 22  1  0  0  0  0
 16 10  1  0  0  0  0
 18 11  1  0  0  0  0
 19 12  1  0  0  0  0
 20 13  1  0  0  0  0
 24 25  1  0  0  0  0
 25 26  1  0  0  0  0
 25 27  2  0  0  0  0
 28 27  1  0  0  0  0
 29 28  2  0  0  0  0
 30 29  1  0  0  0  0
 31 30  2  0  0  0  0
 32 33  2  0  0  0  0
 32 31  1  0  0  0  0
 33 34  1  0  0  0  0
 34 24  2  0  0  0  0
 34 29  1  0  0  0  0
M  END
>  <minimizedAffinity>
-5.45677471

$$$$

 OpenBabel03242518243D

 34 37  0  0  0  0  0  0  0  0999 V2000
   40.6240   29.5680   37.9670 C   0  0  0  0  0  0  0  0  0  0  0  0
   41.0780   30.8420   37.6470 C   0  0  0  0  0  0  0  0  0  0  0  0
   40.1530   31.8690   37.6270 C   0  0  0  0  0  0  0  0  0  0  0  0
   38.8640   31.6000   37.9160 N   0  0  0  0  0  0  0  0  0  0  0  0
   38.4280   30.3810   38.2230 C   0  0  0  0  0  0  0  0  0  0  0  0
   39.3100   29.3990   38.2410 N   0  0  0  0  0  0  0  0  0  0  0  0
   41.2300   28.6480   38.0230 H   0  0  0  0  0  0  0  0  0  0  0  0
   40.4760   32.8470   37.3870 H   0  0  0  0  0  0  0  0  0  0  0  0
   42.4660   30.9820   37.3680 N   0  0  0  0  0  0  0  0  0  0  0  0
   42.9720   30.4500   36.1350 C   0  0  0  0  0  0  0  0  0  0  0  0
   44.4230   30.6910   35.9210 C   0  0  0  0  0  0  0  0  0  0  0  0
   44.8940   31.9830   36.2910 N   0  0  0  0  0  0  0  0  0  0  0  0
   44.2960   32.5960   37.4070 C   0  0  0  0  0  0  0  0  0  0  0  0
   43.4460   31.6110   38.1990 C   0  0  0  0  0  0  0  0  0  0  0  0
   42.7710   29.3590   36.1250 H   0  0  0  0  0  0  0  0  0  0  0  0
   42.3540   30.8770   35.2910 H   0  0  0  0  0  0  0  0  0  0  0  0
   44.9730   29.9150   36.5120 H   0  0  0  0  0  0  0  0  0  0  0  0
   44.6720   30.4850   34.8630 H   0  0  0  0  0  0  0  0  0  0  0  0
   45.1460   32.6100   35.5100 H   0  0  0  0  0  0  0  0  0  0  0  0
   43.5780   33.3880   37.0700 H   0  0  0  0  0  0  0  0  0  0  0  0
   45.0120   33.0460   38.1260 H   0  0  0  0  0  0  0  0  0  0  0  0
   43.0970   32.1520   39.0690 H   0  0  0  0  0  0  0  0  0  0  0  0
   44.1700   30.7960   38.4850 H   0  0  0  0  0  0  0  0  0  0  0  0
   37.0720   29.9300   38.5580 C   0  0  0  0  0  0  0  0  0  0  0  0
   36.6250   29.8140   39.8670 C   0  0  0  0  0  0  0  0  0  0  0  0
   37.3030   30.0680   40.6870 H   0  0  0  0  0  0  0  0  0  0  0  0
   35.3700   29.3980   40.2280 C   0  0  0  0  0  3  0  0  0  0  0  0
   34.4680   29.0640   39.2610 C   0  0  0  0  0  3  0  0  0  0  0  0
   34.8570   29.1590   37.9470 C   0  0  0  0  0  0  0  0  0  0  0  0
   33.9110   28.8110   37.0090 C   0  0  0  0  0  3  0  0  0  0  0  0
   34.2000   28.8720   35.6630 C   0  0  0  0  0  3  0  0  0  0  0  0
   35.4710   29.2950   35.3330 C   0  0  0  0  0  3  0  0  0  0  0  0
   36.3770   29.6300   36.3090 C   0  0  0  0  0  3  0  0  0  0  0  0
   36.1150   29.5790   37.6570 C   0  0  0  0  0  0  0  0  0  0  0  0
  1  7  1  0  0  0  0
  1  6  1  0  0  0  0
  2  1  2  0  0  0  0
  3  2  1  0  0  0  0
  3  4  2  0  0  0  0
  4  5  1  0  0  0  0
  5  6  2  0  0  0  0
  5 24  1  0  0  0  0
  8  3  1  0  0  0  0
  9  2  1  0  0  0  0
  9 14  1  0  0  0  0
 10  9  1  0  0  0  0
 11 10  1  0  0  0  0
 11 12  1  0  0  0  0
 11 17  1  0  0  0  0
 12 13  1  0  0  0  0
 13 21  1  0  0  0  0
 13 14  1  0  0  0  0
 14 23  1  0  0  0  0
 14 22  1  0  0  0  0
 15 10  1  0  0  0  0
 16 10  1  0  0  0  0
 18 11  1  0  0  0  0
 19 12  1  0  0  0  0
 20 13  1  0  0  0  0
 24 25  1  0  0  0  0
 25 27  2  0  0  0  0
 25 26  1  0  0  0  0
 28 27  1  0  0  0  0
 29 28  2  0  0  0  0
 30 29  1  0  0  0  0
 31 30  2  0  0  0  0
 32 31  1  0  0  0  0
 32 33  2  0  0  0  0
 33 34  1  0  0  0  0
 34 29  1  0  0  0  0
 34 24  2  0  0  0  0
M  END
>  <minimizedAffinity>
-5.37265635

$$$$

 OpenBabel03242518243D

 34 37  0  0  0  0  0  0  0  0999 V2000
   37.1490   26.4270   40.2050 C   0  0  0  0  0  0  0  0  0  0  0  0
   37.4050   27.1440   41.3680 C   0  0  0  0  0  0  0  0  0  0  0  0
   36.8280   28.3930   41.4940 C   0  0  0  0  0  0  0  0  0  0  0  0
   36.0480   28.8630   40.4990 N   0  0  0  0  0  0  0  0  0  0  0  0
   35.8030   28.1780   39.3850 C   0  0  0  0  0  0  0  0  0  0  0  0
   36.3530   26.9840   39.2620 N   0  0  0  0  0  0  0  0  0  0  0  0
   37.5330   25.4250   39.9520 H   0  0  0  0  0  0  0  0  0  0  0  0
   37.0090   28.9570   42.3700 H   0  0  0  0  0  0  0  0  0  0  0  0
   38.2420   26.5250   42.3370 N   0  0  0  0  0  0  0  0  0  0  0  0
   38.6380   25.1610   42.1260 C   0  0  0  0  0  0  0  0  0  0  0  0
   39.5500   24.6270   43.1720 C   0  0  0  0  0  0  0  0  0  0  0  0
   40.5690   25.5180   43.6150 N   0  0  0  0  0  0  0  0  0  0  0  0
   40.2510   26.8870   43.6750 C   0  0  0  0  0  0  0  0  0  0  0  0
   38.7530   27.1220   43.5330 C   0  0  0  0  0  0  0  0  0  0  0  0
   37.7190   24.5420   42.0820 H   0  0  0  0  0  0  0  0  0  0  0  0
   39.1000   25.0870   41.0980 H   0  0  0  0  0  0  0  0  0  0  0  0
   38.9110   24.3350   44.0430 H   0  0  0  0  0  0  0  0  0  0  0  0
   40.0010   23.6840   42.8100 H   0  0  0  0  0  0  0  0  0  0  0  0
   41.5280   25.2880   43.3140 H   0  0  0  0  0  0  0  0  0  0  0  0
   40.7100   27.4250   42.8050 H   0  0  0  0  0  0  0  0  0  0  0  0
   40.5640   27.3930   44.6120 H   0  0  0  0  0  0  0  0  0  0  0  0
   38.6050   28.1860   43.6680 H   0  0  0  0  0  0  0  0  0  0  0  0
   38.3030   26.5330   44.3820 H   0  0  0  0  0  0  0  0  0  0  0  0
   34.9850   28.5450   38.2230 C   0  0  0  0  0  0  0  0  0  0  0  0
   33.6190   28.7740   38.3110 C   0  0  0  0  0  0  0  0  0  0  0  0
   33.1240   28.6790   39.2820 H   0  0  0  0  0  0  0  0  0  0  0  0
   32.8160   29.1190   37.2550 C   0  0  0  0  0  3  0  0  0  0  0  0
   33.3610   29.2550   36.0130 C   0  0  0  0  0  3  0  0  0  0  0  0
   34.7090   29.0400   35.8660 C   0  0  0  0  0  0  0  0  0  0  0  0
   35.2120   29.1900   34.5930 C   0  0  0  0  0  3  0  0  0  0  0  0
   36.5530   28.9980   34.3380 C   0  0  0  0  0  3  0  0  0  0  0  0
   37.3320   28.6530   35.4220 C   0  0  0  0  0  3  0  0  0  0  0  0
   36.7810   28.5150   36.6720 C   0  0  0  0  0  3  0  0  0  0  0  0
   35.4490   28.7020   36.9540 C   0  0  0  0  0  0  0  0  0  0  0  0
  1  2  1  0  0  0  0
  2  3  2  0  0  0  0
  2  9  1  0  0  0  0
  3  8  1  0  0  0  0
  4  3  1  0  0  0  0
  5  4  2  0  0  0  0
  6  5  1  0  0  0  0
  6  1  2  0  0  0  0
  7  1  1  0  0  0  0
  9 14  1  0  0  0  0
 10  9  1  0  0  0  0
 10 11  1  0  0  0  0
 11 12  1  0  0  0  0
 11 17  1  0  0  0  0
 12 13  1  0  0  0  0
 13 21  1  0  0  0  0
 14 22  1  0  0  0  0
 14 13  1  0  0  0  0
 14 23  1  0  0  0  0
 15 10  1  0  0  0  0
 16 10  1  0  0  0  0
 18 11  1  0  0  0  0
 19 12  1  0  0  0  0
 20 13  1  0  0  0  0
 24 25  1  0  0  0  0
 24  5  1  0  0  0  0
 25 26  1  0  0  0  0
 27 25  2  0  0  0  0
 28 27  1  0  0  0  0
 29 28  2  0  0  0  0
 29 34  1  0  0  0  0
 30 29  1  0  0  0  0
 31 30  2  0  0  0  0
 31 32  1  0  0  0  0
 32 33  2  0  0  0  0
 33 34  1  0  0  0  0
 34 24  2  0  0  0  0
M  END
>  <minimizedAffinity>
-5.33617735

$$$$
