
 OpenBabel03242522123D

 22 24  0  0  0  0  0  0  0  0999 V2000
   37.3350   32.5500   40.1310 C   0  0  0  0  0  0  0  0  0  0  0  0
   37.1130   31.3290   40.7840 C   0  0  0  0  0  0  0  0  0  0  0  0
   38.1730   30.4370   40.9230 C   0  0  0  0  0  0  0  0  0  0  0  0
   39.3670   30.8130   40.4100 N   0  0  0  0  0  0  0  0  0  0  0  0
   39.5620   31.9840   39.7890 C   0  0  0  0  0  0  0  0  0  0  0  0
   38.5460   32.8590   39.6470 N   0  0  0  0  0  0  0  0  0  0  0  0
   36.5250   33.2520   40.0160 H   0  0  0  0  0  0  0  0  0  0  0  0
   40.5630   32.2030   39.4060 H   0  0  0  0  0  0  0  0  0  0  0  0
   37.8180   29.2270   41.6070 C   0  0  0  0  0  0  0  0  0  0  0  0
   37.7980   29.1160   42.9810 C   0  0  0  0  0  0  0  0  0  0  0  0
   38.0730   30.0180   43.5420 H   0  0  0  0  0  0  0  0  0  0  0  0
   37.4640   27.9760   43.6780 C   0  0  0  0  0  3  0  0  0  0  0  0
   37.1240   26.8600   42.9700 C   0  0  0  0  0  3  0  0  0  0  0  0
   37.1250   26.9050   41.5910 C   0  0  0  0  0  0  0  0  0  0  0  0
   36.7780   25.7690   40.8810 C   0  0  0  0  0  3  0  0  0  0  0  0
   36.7630   25.7580   39.4990 C   0  0  0  0  0  3  0  0  0  0  0  0
   37.1030   26.9200   38.8320 C   0  0  0  0  0  3  0  0  0  0  0  0
   37.4410   28.0280   39.5690 C   0  0  0  0  0  3  0  0  0  0  0  0
   37.4660   28.0700   40.9370 C   0  0  0  0  0  0  0  0  0  0  0  0
   35.7720   31.1130   41.2600 N   0  0  0  0  0  0  0  0  0  0  0  0
   35.4020   31.0160   42.2360 H   0  0  0  0  0  0  0  0  0  0  0  0
   34.9770   31.0260   40.5810 H   0  0  0  0  0  0  0  0  0  0  0  0
  1  2  1  0  0  0  0
  2  3  2  0  0  0  0
  2 20  1  0  0  0  0
  3  9  1  0  0  0  0
  4  3  1  0  0  0  0
  5  4  2  0  0  0  0
  6  5  1  0  0  0  0
  6  1  2  0  0  0  0
  7  1  1  0  0  0  0
  8  5  1  0  0  0  0
  9 10  1  0  0  0  0
 10 11  1  0  0  0  0
 10 12  2  0  0  0  0
 13 12  1  0  0  0  0
 14 13  2  0  0  0  0
 15 14  1  0  0  0  0
 16 15  2  0  0  0  0
 17 16  1  0  0  0  0
 17 18  2  0  0  0  0
 18 19  1  0  0  0  0
 19 14  1  0  0  0  0
 19  9  2  0  0  0  0
 20 21  1  0  0  0  0
 22 20  1  0  0  0  0
M  END
>  <minimizedAffinity>
-5.76466846

$$$$

 OpenBabel03242522123D

 22 24  0  0  0  0  0  0  0  0999 V2000
   39.2150   33.8020   40.0010 C   0  0  0  0  0  0  0  0  0  0  0  0
   38.3050   32.7370   40.0480 C   0  0  0  0  0  0  0  0  0  0  0  0
   38.7720   31.4420   39.8420 C   0  0  0  0  0  0  0  0  0  0  0  0
   40.0950   31.2940   39.6050 N   0  0  0  0  0  0  0  0  0  0  0  0
   40.9520   32.3230   39.5630 C   0  0  0  0  0  0  0  0  0  0  0  0
   40.5150   33.5830   39.7610 N   0  0  0  0  0  0  0  0  0  0  0  0
   38.8690   34.8110   40.1580 H   0  0  0  0  0  0  0  0  0  0  0  0
   42.0060   32.1080   39.3650 H   0  0  0  0  0  0  0  0  0  0  0  0
   37.7450   30.4430   39.9160 C   0  0  0  0  0  0  0  0  0  0  0  0
   36.8650   30.1890   38.8860 C   0  0  0  0  0  0  0  0  0  0  0  0
   36.9880   30.8020   37.9830 H   0  0  0  0  0  0  0  0  0  0  0  0
   35.8650   29.2420   38.9140 C   0  0  0  0  0  3  0  0  0  0  0  0
   35.7200   28.4870   40.0410 C   0  0  0  0  0  3  0  0  0  0  0  0
   36.5700   28.6920   41.1090 C   0  0  0  0  0  0  0  0  0  0  0  0
   36.4160   27.9210   42.2480 C   0  0  0  0  0  3  0  0  0  0  0  0
   37.2390   28.0840   43.3470 C   0  0  0  0  0  3  0  0  0  0  0  0
   38.2320   29.0440   43.2840 C   0  0  0  0  0  3  0  0  0  0  0  0
   38.3550   29.7890   42.1380 C   0  0  0  0  0  3  0  0  0  0  0  0
   37.5570   29.6520   41.0340 C   0  0  0  0  0  0  0  0  0  0  0  0
   36.9370   33.0990   40.3140 N   0  0  0  0  0  0  0  0  0  0  0  0
   36.3190   32.8770   41.1310 H   0  0  0  0  0  0  0  0  0  0  0  0
   36.4000   33.6780   39.6240 H   0  0  0  0  0  0  0  0  0  0  0  0
  1  2  1  0  0  0  0
  1  7  1  0  0  0  0
  2 20  1  0  0  0  0
  3  9  1  0  0  0  0
  3  2  2  0  0  0  0
  4  3  1  0  0  0  0
  5  4  2  0  0  0  0
  5  6  1  0  0  0  0
  6  1  2  0  0  0  0
  8  5  1  0  0  0  0
  9 19  1  0  0  0  0
 10 12  1  0  0  0  0
 10  9  2  0  0  0  0
 11 10  1  0  0  0  0
 12 13  2  0  0  0  0
 13 14  1  0  0  0  0
 14 15  1  0  0  0  0
 15 16  2  0  0  0  0
 17 16  1  0  0  0  0
 18 17  2  0  0  0  0
 19 14  2  0  0  0  0
 19 18  1  0  0  0  0
 20 21  1  0  0  0  0
 22 20  1  0  0  0  0
M  END
>  <minimizedAffinity>
-5.62868786

$$$$

 OpenBabel03242522123D

 22 24  0  0  0  0  0  0  0  0999 V2000
   36.5890   30.7030   38.4340 C   0  0  0  0  0  0  0  0  0  0  0  0
   36.5530   29.9530   39.6170 C   0  0  0  0  0  0  0  0  0  0  0  0
   37.6950   29.2590   40.0110 C   0  0  0  0  0  0  0  0  0  0  0  0
   38.7810   29.3570   39.2110 N   0  0  0  0  0  0  0  0  0  0  0  0
   38.7980   30.0800   38.0830 C   0  0  0  0  0  0  0  0  0  0  0  0
   37.7020   30.7560   37.6890 N   0  0  0  0  0  0  0  0  0  0  0  0
   35.7130   31.2460   38.1160 H   0  0  0  0  0  0  0  0  0  0  0  0
   39.7240   30.1010   37.4990 H   0  0  0  0  0  0  0  0  0  0  0  0
   37.5310   28.5310   41.2360 C   0  0  0  0  0  0  0  0  0  0  0  0
   37.6250   29.1190   42.4800 C   0  0  0  0  0  0  0  0  0  0  0  0
   37.8370   30.1950   42.4910 H   0  0  0  0  0  0  0  0  0  0  0  0
   37.4740   28.4590   43.6800 C   0  0  0  0  0  3  0  0  0  0  0  0
   37.2120   27.1200   43.6540 C   0  0  0  0  0  3  0  0  0  0  0  0
   37.1050   26.4730   42.4400 C   0  0  0  0  0  0  0  0  0  0  0  0
   36.8380   25.1150   42.4230 C   0  0  0  0  0  3  0  0  0  0  0  0
   36.7220   24.4160   41.2360 C   0  0  0  0  0  3  0  0  0  0  0  0
   36.8790   25.1100   40.0510 C   0  0  0  0  0  3  0  0  0  0  0  0
   37.1420   26.4560   40.1060 C   0  0  0  0  0  3  0  0  0  0  0  0
   37.2630   27.1760   41.2640 C   0  0  0  0  0  0  0  0  0  0  0  0
   35.3030   29.9740   40.3300 N   0  0  0  0  0  0  0  0  0  0  0  0
   35.0630   30.3590   41.2750 H   0  0  0  0  0  0  0  0  0  0  0  0
   34.4430   29.5530   39.9020 H   0  0  0  0  0  0  0  0  0  0  0  0
  1  2  1  0  0  0  0
  2  3  2  0  0  0  0
  2 20  1  0  0  0  0
  3  9  1  0  0  0  0
  4  3  1  0  0  0  0
  5  4  2  0  0  0  0
  6  5  1  0  0  0  0
  6  1  2  0  0  0  0
  7  1  1  0  0  0  0
  8  5  1  0  0  0  0
  9 19  2  0  0  0  0
  9 10  1  0  0  0  0
 10 11  1  0  0  0  0
 10 12  2  0  0  0  0
 13 12  1  0  0  0  0
 14 13  2  0  0  0  0
 15 14  1  0  0  0  0
 16 15  2  0  0  0  0
 17 18  2  0  0  0  0
 17 16  1  0  0  0  0
 18 19  1  0  0  0  0
 19 14  1  0  0  0  0
 20 21  1  0  0  0  0
 22 20  1  0  0  0  0
M  END
>  <minimizedAffinity>
-5.42280293

$$$$

 OpenBabel03242522123D

 22 24  0  0  0  0  0  0  0  0999 V2000
   39.2860   33.8940   39.9730 C   0  0  0  0  0  0  0  0  0  0  0  0
   38.2300   32.9760   39.8860 C   0  0  0  0  0  0  0  0  0  0  0  0
   38.5220   31.6140   39.8540 C   0  0  0  0  0  0  0  0  0  0  0  0
   39.8260   31.2620   39.9100 N   0  0  0  0  0  0  0  0  0  0  0  0
   40.8230   32.1530   39.9920 C   0  0  0  0  0  0  0  0  0  0  0  0
   40.5580   33.4740   40.0250 N   0  0  0  0  0  0  0  0  0  0  0  0
   39.0770   34.9510   39.9990 H   0  0  0  0  0  0  0  0  0  0  0  0
   41.8490   31.7750   40.0330 H   0  0  0  0  0  0  0  0  0  0  0  0
   37.3580   30.7810   39.7650 C   0  0  0  0  0  0  0  0  0  0  0  0
   36.6450   30.3600   40.8680 C   0  0  0  0  0  0  0  0  0  0  0  0
   37.0190   30.6990   41.8420 H   0  0  0  0  0  0  0  0  0  0  0  0
   35.5250   29.5600   40.8280 C   0  0  0  0  0  3  0  0  0  0  0  0
   35.0700   29.1430   39.6110 C   0  0  0  0  0  3  0  0  0  0  0  0
   35.7380   29.5300   38.4680 C   0  0  0  0  0  0  0  0  0  0  0  0
   35.2700   29.1030   37.2380 C   0  0  0  0  0  3  0  0  0  0  0  0
   35.9000   29.4590   36.0600 C   0  0  0  0  0  3  0  0  0  0  0  0
   37.0230   30.2630   36.1380 C   0  0  0  0  0  3  0  0  0  0  0  0
   37.4580   30.6680   37.3750 C   0  0  0  0  0  3  0  0  0  0  0  0
   36.8560   30.3320   38.5570 C   0  0  0  0  0  0  0  0  0  0  0  0
   36.9100   33.5480   39.8370 N   0  0  0  0  0  0  0  0  0  0  0  0
   36.1150   33.4860   40.5170 H   0  0  0  0  0  0  0  0  0  0  0  0
   36.6190   34.1360   39.0190 H   0  0  0  0  0  0  0  0  0  0  0  0
  1  7  1  0  0  0  0
  1  6  1  0  0  0  0
  2  1  2  0  0  0  0
  3  2  1  0  0  0  0
  3  4  2  0  0  0  0
  4  5  1  0  0  0  0
  5  6  2  0  0  0  0
  5  8  1  0  0  0  0
  9  3  1  0  0  0  0
  9 10  1  0  0  0  0
 10 11  1  0  0  0  0
 12 10  2  0  0  0  0
 13 12  1  0  0  0  0
 14 19  1  0  0  0  0
 14 13  2  0  0  0  0
 15 14  1  0  0  0  0
 16 17  1  0  0  0  0
 16 15  2  0  0  0  0
 17 18  2  0  0  0  0
 18 19  1  0  0  0  0
 19  9  2  0  0  0  0
 20  2  1  0  0  0  0
 20 21  1  0  0  0  0
 22 20  1  0  0  0  0
M  END
>  <minimizedAffinity>
-5.28336239

$$$$

 OpenBabel03242522123D

 22 24  0  0  0  0  0  0  0  0999 V2000
   40.3370   32.4600   38.9460 C   0  0  0  0  0  0  0  0  0  0  0  0
   39.3470   31.4960   39.1780 C   0  0  0  0  0  0  0  0  0  0  0  0
   38.2990   31.8000   40.0440 C   0  0  0  0  0  0  0  0  0  0  0  0
   38.3060   33.0270   40.6130 N   0  0  0  0  0  0  0  0  0  0  0  0
   39.2600   33.9370   40.3800 C   0  0  0  0  0  0  0  0  0  0  0  0
   40.2810   33.6590   39.5450 N   0  0  0  0  0  0  0  0  0  0  0  0
   41.1540   32.2410   38.2790 H   0  0  0  0  0  0  0  0  0  0  0  0
   39.1830   34.9050   40.8850 H   0  0  0  0  0  0  0  0  0  0  0  0
   37.3530   30.7320   40.1970 C   0  0  0  0  0  0  0  0  0  0  0  0
   36.3190   30.5080   39.3130 C   0  0  0  0  0  0  0  0  0  0  0  0
   36.2500   31.2020   38.4650 H   0  0  0  0  0  0  0  0  0  0  0  0
   35.3900   29.4970   39.4210 C   0  0  0  0  0  3  0  0  0  0  0  0
   35.4860   28.6410   40.4800 C   0  0  0  0  0  3  0  0  0  0  0  0
   36.4990   28.8110   41.4010 C   0  0  0  0  0  0  0  0  0  0  0  0
   36.5890   27.9380   42.4700 C   0  0  0  0  0  3  0  0  0  0  0  0
   37.5830   28.0610   43.4230 C   0  0  0  0  0  3  0  0  0  0  0  0
   38.4990   29.0880   43.2820 C   0  0  0  0  0  3  0  0  0  0  0  0
   38.3790   29.9340   42.2080 C   0  0  0  0  0  3  0  0  0  0  0  0
   37.4070   29.8380   41.2500 C   0  0  0  0  0  0  0  0  0  0  0  0
   39.5160   30.2490   38.4780 N   0  0  0  0  0  0  0  0  0  0  0  0
   38.9320   29.8010   37.7330 H   0  0  0  0  0  0  0  0  0  0  0  0
   40.3340   29.6290   38.6940 H   0  0  0  0  0  0  0  0  0  0  0  0
  1  2  2  0  0  0  0
  1  6  1  0  0  0  0
  2  3  1  0  0  0  0
  3  9  1  0  0  0  0
  3  4  2  0  0  0  0
  5  4  1  0  0  0  0
  5  8  1  0  0  0  0
  6  5  2  0  0  0  0
  7  1  1  0  0  0  0
  9 19  1  0  0  0  0
 10 12  1  0  0  0  0
 10  9  2  0  0  0  0
 11 10  1  0  0  0  0
 12 13  2  0  0  0  0
 13 14  1  0  0  0  0
 14 15  1  0  0  0  0
 15 16  2  0  0  0  0
 17 16  1  0  0  0  0
 18 17  2  0  0  0  0
 19 14  2  0  0  0  0
 19 18  1  0  0  0  0
 20 22  1  0  0  0  0
 20  2  1  0  0  0  0
 21 20  1  0  0  0  0
M  END
>  <minimizedAffinity>
-5.24527597

$$$$

 OpenBabel03242522123D

 22 24  0  0  0  0  0  0  0  0999 V2000
   40.3450   33.9450   39.5300 C   0  0  0  0  0  0  0  0  0  0  0  0
   39.6270   33.0210   40.3010 C   0  0  0  0  0  0  0  0  0  0  0  0
   39.7790   31.6610   40.0390 C   0  0  0  0  0  0  0  0  0  0  0  0
   40.6220   31.3170   39.0400 N   0  0  0  0  0  0  0  0  0  0  0  0
   41.3010   32.2130   38.3110 C   0  0  0  0  0  0  0  0  0  0  0  0
   41.1660   33.5330   38.5530 N   0  0  0  0  0  0  0  0  0  0  0  0
   40.2390   35.0000   39.7200 H   0  0  0  0  0  0  0  0  0  0  0  0
   41.9620   31.8420   37.5230 H   0  0  0  0  0  0  0  0  0  0  0  0
   38.9930   30.8210   40.8950 C   0  0  0  0  0  0  0  0  0  0  0  0
   39.3880   30.4590   42.1660 C   0  0  0  0  0  0  0  0  0  0  0  0
   40.3560   30.8520   42.5010 H   0  0  0  0  0  0  0  0  0  0  0  0
   38.6660   29.6550   43.0200 C   0  0  0  0  0  3  0  0  0  0  0  0
   37.4640   29.1710   42.5930 C   0  0  0  0  0  3  0  0  0  0  0  0
   37.0110   29.4970   41.3310 C   0  0  0  0  0  0  0  0  0  0  0  0
   35.7900   29.0020   40.9060 C   0  0  0  0  0  3  0  0  0  0  0  0
   35.2880   29.2960   39.6520 C   0  0  0  0  0  3  0  0  0  0  0  0
   36.0400   30.1060   38.8210 C   0  0  0  0  0  3  0  0  0  0  0  0
   37.2450   30.5780   39.2760 C   0  0  0  0  0  3  0  0  0  0  0  0
   37.7690   30.3060   40.5110 C   0  0  0  0  0  0  0  0  0  0  0  0
   38.7800   33.5850   41.3190 N   0  0  0  0  0  0  0  0  0  0  0  0
   38.8280   33.5130   42.3630 H   0  0  0  0  0  0  0  0  0  0  0  0
   37.9560   34.1760   41.0530 H   0  0  0  0  0  0  0  0  0  0  0  0
  1  7  1  0  0  0  0
  1  2  1  0  0  0  0
  2 20  1  0  0  0  0
  3  2  2  0  0  0  0
  3  9  1  0  0  0  0
  4  3  1  0  0  0  0
  5  6  1  0  0  0  0
  5  4  2  0  0  0  0
  6  1  2  0  0  0  0
  8  5  1  0  0  0  0
  9 10  1  0  0  0  0
 10 11  1  0  0  0  0
 10 12  2  0  0  0  0
 13 12  1  0  0  0  0
 14 13  2  0  0  0  0
 15 14  1  0  0  0  0
 16 15  2  0  0  0  0
 17 18  2  0  0  0  0
 17 16  1  0  0  0  0
 18 19  1  0  0  0  0
 19  9  2  0  0  0  0
 19 14  1  0  0  0  0
 20 21  1  0  0  0  0
 22 20  1  0  0  0  0
M  END
>  <minimizedAffinity>
-5.14940214

$$$$

 OpenBabel03242522123D

 22 24  0  0  0  0  0  0  0  0999 V2000
   36.2820   31.1170   40.8300 C   0  0  0  0  0  0  0  0  0  0  0  0
   36.0330   29.8080   40.3930 C   0  0  0  0  0  0  0  0  0  0  0  0
   37.0710   29.0810   39.8150 C   0  0  0  0  0  0  0  0  0  0  0  0
   38.2710   29.6960   39.7120 N   0  0  0  0  0  0  0  0  0  0  0  0
   38.4920   30.9480   40.1350 C   0  0  0  0  0  0  0  0  0  0  0  0
   37.4980   31.6650   40.6970 N   0  0  0  0  0  0  0  0  0  0  0  0
   35.4900   31.6930   41.2790 H   0  0  0  0  0  0  0  0  0  0  0  0
   39.4970   31.3630   40.0110 H   0  0  0  0  0  0  0  0  0  0  0  0
   36.6890   27.7590   39.4100 C   0  0  0  0  0  0  0  0  0  0  0  0
   36.1630   27.4740   38.1670 C   0  0  0  0  0  0  0  0  0  0  0  0
   36.0460   28.3260   37.4850 H   0  0  0  0  0  0  0  0  0  0  0  0
   35.7830   26.2220   37.7380 C   0  0  0  0  0  3  0  0  0  0  0  0
   35.9320   25.1700   38.5950 C   0  0  0  0  0  3  0  0  0  0  0  0
   36.4530   25.3890   39.8540 C   0  0  0  0  0  0  0  0  0  0  0  0
   36.6000   24.3170   40.7160 C   0  0  0  0  0  3  0  0  0  0  0  0
   37.1160   24.4790   41.9880 C   0  0  0  0  0  3  0  0  0  0  0  0
   37.4870   25.7500   42.3860 C   0  0  0  0  0  3  0  0  0  0  0  0
   37.3270   26.7890   41.5040 C   0  0  0  0  0  3  0  0  0  0  0  0
   36.8200   26.6610   40.2390 C   0  0  0  0  0  0  0  0  0  0  0  0
   34.6890   29.3320   40.5900 N   0  0  0  0  0  0  0  0  0  0  0  0
   34.3220   28.5600   41.1960 H   0  0  0  0  0  0  0  0  0  0  0  0
   33.8890   29.7780   40.0790 H   0  0  0  0  0  0  0  0  0  0  0  0
  1  7  1  0  0  0  0
  2 20  1  0  0  0  0
  2  1  2  0  0  0  0
  3  2  1  0  0  0  0
  4  3  2  0  0  0  0
  4  5  1  0  0  0  0
  5  6  2  0  0  0  0
  6  1  1  0  0  0  0
  8  5  1  0  0  0  0
  9  3  1  0  0  0  0
  9 19  1  0  0  0  0
 10  9  2  0  0  0  0
 11 10  1  0  0  0  0
 12 10  1  0  0  0  0
 12 13  2  0  0  0  0
 13 14  1  0  0  0  0
 14 19  2  0  0  0  0
 14 15  1  0  0  0  0
 15 16  2  0  0  0  0
 16 17  1  0  0  0  0
 18 17  2  0  0  0  0
 19 18  1  0  0  0  0
 20 21  1  0  0  0  0
 22 20  1  0  0  0  0
M  END
>  <minimizedAffinity>
-5.11702204

$$$$

 OpenBabel03242522123D

 22 24  0  0  0  0  0  0  0  0999 V2000
   38.8850   30.2580   38.3560 C   0  0  0  0  0  0  0  0  0  0  0  0
   38.6930   29.5420   39.5450 C   0  0  0  0  0  0  0  0  0  0  0  0
   37.3930   29.3130   39.9920 C   0  0  0  0  0  0  0  0  0  0  0  0
   36.3860   29.8050   39.2350 N   0  0  0  0  0  0  0  0  0  0  0  0
   36.5880   30.4880   38.1000 C   0  0  0  0  0  0  0  0  0  0  0  0
   37.8390   30.7180   37.6550 N   0  0  0  0  0  0  0  0  0  0  0  0
   39.8840   30.4430   37.9970 H   0  0  0  0  0  0  0  0  0  0  0  0
   35.7110   30.8480   37.5530 H   0  0  0  0  0  0  0  0  0  0  0  0
   37.3300   28.5710   41.2180 C   0  0  0  0  0  0  0  0  0  0  0  0
   37.4540   29.1560   42.4600 C   0  0  0  0  0  0  0  0  0  0  0  0
   37.6070   30.2420   42.4690 H   0  0  0  0  0  0  0  0  0  0  0  0
   37.4000   28.4820   43.6600 C   0  0  0  0  0  3  0  0  0  0  0  0
   37.2100   27.1310   43.6370 C   0  0  0  0  0  3  0  0  0  0  0  0
   37.0790   26.4850   42.4250 C   0  0  0  0  0  0  0  0  0  0  0  0
   36.8860   25.1150   42.4110 C   0  0  0  0  0  3  0  0  0  0  0  0
   36.7490   24.4170   41.2260 C   0  0  0  0  0  3  0  0  0  0  0  0
   36.8080   25.1250   40.0390 C   0  0  0  0  0  3  0  0  0  0  0  0
   37.0000   26.4830   40.0920 C   0  0  0  0  0  3  0  0  0  0  0  0
   37.1390   27.2020   41.2480 C   0  0  0  0  0  0  0  0  0  0  0  0
   39.8920   29.1010   40.2070 N   0  0  0  0  0  0  0  0  0  0  0  0
   40.2550   28.1340   40.3880 H   0  0  0  0  0  0  0  0  0  0  0  0
   40.5660   29.8010   40.6020 H   0  0  0  0  0  0  0  0  0  0  0  0
  1  2  1  0  0  0  0
  2  3  2  0  0  0  0
  2 20  1  0  0  0  0
  3  9  1  0  0  0  0
  4  3  1  0  0  0  0
  5  4  2  0  0  0  0
  6  5  1  0  0  0  0
  6  1  2  0  0  0  0
  7  1  1  0  0  0  0
  8  5  1  0  0  0  0
  9 19  2  0  0  0  0
  9 10  1  0  0  0  0
 10 11  1  0  0  0  0
 10 12  2  0  0  0  0
 13 12  1  0  0  0  0
 14 13  2  0  0  0  0
 15 14  1  0  0  0  0
 16 15  2  0  0  0  0
 17 18  2  0  0  0  0
 17 16  1  0  0  0  0
 18 19  1  0  0  0  0
 19 14  1  0  0  0  0
 20 21  1  0  0  0  0
 20 22  1  0  0  0  0
M  END
>  <minimizedAffinity>
-5.11604166

$$$$

 OpenBabel03242522123D

 22 24  0  0  0  0  0  0  0  0999 V2000
   38.3310   30.6200   39.7040 C   0  0  0  0  0  0  0  0  0  0  0  0
   38.8030   29.5070   40.4130 C   0  0  0  0  0  0  0  0  0  0  0  0
   38.0560   29.0260   41.4860 C   0  0  0  0  0  0  0  0  0  0  0  0
   36.9070   29.6760   41.7780 N   0  0  0  0  0  0  0  0  0  0  0  0
   36.4700   30.7390   41.0880 C   0  0  0  0  0  0  0  0  0  0  0  0
   37.1810   31.2160   40.0470 N   0  0  0  0  0  0  0  0  0  0  0  0
   38.8970   31.0040   38.8700 H   0  0  0  0  0  0  0  0  0  0  0  0
   35.5270   31.2010   41.3960 H   0  0  0  0  0  0  0  0  0  0  0  0
   38.6440   27.8860   42.1290 C   0  0  0  0  0  0  0  0  0  0  0  0
   39.6770   27.9830   43.0370 C   0  0  0  0  0  0  0  0  0  0  0  0
   40.0390   28.9960   43.2510 H   0  0  0  0  0  0  0  0  0  0  0  0
   40.2710   26.9160   43.6760 C   0  0  0  0  0  3  0  0  0  0  0  0
   39.8130   25.6610   43.4020 C   0  0  0  0  0  3  0  0  0  0  0  0
   38.7800   25.4960   42.5020 C   0  0  0  0  0  0  0  0  0  0  0  0
   38.3210   24.2190   42.2300 C   0  0  0  0  0  3  0  0  0  0  0  0
   37.2900   23.9960   41.3370 C   0  0  0  0  0  3  0  0  0  0  0  0
   36.7180   25.0900   40.7140 C   0  0  0  0  0  3  0  0  0  0  0  0
   37.1980   26.3420   41.0080 C   0  0  0  0  0  3  0  0  0  0  0  0
   38.2160   26.5940   41.8870 C   0  0  0  0  0  0  0  0  0  0  0  0
   40.0480   28.9550   39.9490 N   0  0  0  0  0  0  0  0  0  0  0  0
   40.2640   28.0220   39.5230 H   0  0  0  0  0  0  0  0  0  0  0  0
   40.9320   29.5150   40.0150 H   0  0  0  0  0  0  0  0  0  0  0  0
  1  6  2  0  0  0  0
  1  2  1  0  0  0  0
  2  3  2  0  0  0  0
  3  4  1  0  0  0  0
  3  9  1  0  0  0  0
  5  8  1  0  0  0  0
  5  4  2  0  0  0  0
  6  5  1  0  0  0  0
  7  1  1  0  0  0  0
  9 10  1  0  0  0  0
 10 11  1  0  0  0  0
 10 12  2  0  0  0  0
 13 12  1  0  0  0  0
 14 13  2  0  0  0  0
 15 14  1  0  0  0  0
 16 15  2  0  0  0  0
 17 18  2  0  0  0  0
 17 16  1  0  0  0  0
 18 19  1  0  0  0  0
 19  9  2  0  0  0  0
 19 14  1  0  0  0  0
 20 22  1  0  0  0  0
 20  2  1  0  0  0  0
 21 20  1  0  0  0  0
M  END
>  <minimizedAffinity>
-5.09568357

$$$$
