
 OpenBabel03242514413D

 34 37  0  0  1  0  0  0  0  0999 V2000
   47.2650   31.4960   39.6430 N   0  0  0  0  0  0  0  0  0  0  0  0
   46.4260   30.5320   38.9340 C   0  0  0  0  0  0  0  0  0  0  0  0
   46.0890   30.9960   37.5390 C   0  0  0  0  0  0  0  0  0  0  0  0
   45.5360   32.3030   37.4960 N   0  0  0  0  0  0  0  0  0  0  0  0
   46.0500   33.2360   38.4140 C   0  0  0  0  0  0  0  0  0  0  0  0
   47.2810   32.8580   39.1780 C   0  0  1  0  0  0  0  0  0  0  0  0
   47.0360   29.6090   38.8210 H   0  0  0  0  0  0  0  0  0  0  0  0
   45.5130   30.3050   39.5270 H   0  0  0  0  0  0  0  0  0  0  0  0
   45.4320   30.2470   37.0930 H   0  0  0  0  0  0  0  0  0  0  0  0
   47.0400   30.9980   36.9560 H   0  0  0  0  0  0  0  0  0  0  0  0
   45.5400   32.6750   36.5380 H   0  0  0  0  0  0  0  0  0  0  0  0
   46.2480   34.2230   37.9330 H   0  0  0  0  0  0  0  0  0  0  0  0
   45.2560   33.4550   39.1770 H   0  0  0  0  0  0  0  0  0  0  0  0
   48.0570   32.8810   38.3850 H   0  0  0  0  0  0  0  0  0  0  0  0
   47.4180   33.8790   40.2320 C   0  0  0  0  0  0  0  0  0  0  0  0
   48.6050   34.5560   40.3230 C   0  0  0  0  0  0  0  0  0  0  0  0
   49.4750   34.4300   39.6990 H   0  0  0  0  0  0  0  0  0  0  0  0
   48.8500   35.5170   41.2800 C   0  0  0  0  0  0  0  0  0  0  0  0
   47.8760   35.8490   42.2190 C   0  0  0  0  0  0  0  0  0  0  0  0
   46.6690   35.1880   42.1600 C   0  0  0  0  0  0  0  0  0  0  0  0
   45.6650   35.4680   43.0600 C   0  0  0  0  0  0  0  0  0  0  0  0
   44.4420   34.8270   43.0350 C   0  0  0  0  0  0  0  0  0  0  0  0
   44.2630   33.8640   42.0360 C   0  0  0  0  0  0  0  0  0  0  0  0
   45.2760   33.6030   41.1530 C   0  0  0  0  0  0  0  0  0  0  0  0
   46.4930   34.2390   41.1770 C   0  0  0  0  0  0  0  0  0  0  0  0
   48.4090   30.3740   43.0180 C   0  0  0  0  0  0  0  0  0  0  0  0
   47.5360   30.7650   41.9950 C   0  0  0  0  0  0  0  0  0  0  0  0
   48.0430   31.0850   40.7430 C   0  0  0  0  0  0  0  0  0  0  0  0
   49.3870   30.9910   40.5970 N   0  0  0  0  0  0  0  0  0  0  0  0
   50.2330   30.6120   41.5850 C   0  0  0  0  0  0  0  0  0  0  0  0
   49.7330   30.3040   42.8010 N   0  0  0  0  0  0  0  0  0  0  0  0
   48.0040   30.1270   43.9950 H   0  0  0  0  0  0  0  0  0  0  0  0
   46.5010   30.8040   42.1910 H   0  0  0  0  0  0  0  0  0  0  0  0
   51.2720   30.5960   41.2850 H   0  0  0  0  0  0  0  0  0  0  0  0
  1 28  1  0  0  0  0
  2  8  1  0  0  0  0
  2  1  1  0  0  0  0
  3  2  1  0  0  0  0
  4  3  1  0  0  0  0
  4  5  1  0  0  0  0
  5 13  1  0  0  0  0
  5  6  1  0  0  0  0
  6 14  1  6  0  0  0
  6  1  1  0  0  0  0
  6 15  1  0  0  0  0
  7  2  1  0  0  0  0
  9  3  1  0  0  0  0
 10  3  1  0  0  0  0
 11  4  1  0  0  0  0
 12  5  1  0  0  0  0
 15 16  2  0  0  0  0
 15 25  1  0  0  0  0
 16 18  1  0  0  0  0
 17 16  1  0  0  0  0
 18 19  2  0  0  0  0
 20 19  1  0  0  0  0
 20 21  1  0  0  0  0
 22 21  2  0  0  0  0
 23 22  1  0  0  0  0
 24 25  1  0  0  0  0
 24 23  2  0  0  0  0
 25 20  2  0  0  0  0
 26 32  1  0  0  0  0
 27 33  1  0  0  0  0
 27 26  2  0  0  0  0
 28 27  1  0  0  0  0
 29 28  2  0  0  0  0
 29 30  1  0  0  0  0
 30 31  2  0  0  0  0
 31 26  1  0  0  0  0
 34 30  1  0  0  0  0
M  END
>  <minimizedAffinity>
-4.25177813

>  <minimizedRMSD>
4.95273066

$$$$
