
 OpenBabel03242520513D

 24 26  0  0  0  0  0  0  0  0999 V2000
   44.7440   35.0140   43.6550 C   0  0  0  0  0  0  0  0  0  0  0  0
   45.6950   35.6400   42.8490 C   0  0  0  0  0  0  0  0  0  0  0  0
   46.9650   35.1100   42.7800 C   0  0  0  0  0  0  0  0  0  0  0  0
   47.1690   34.0120   43.5130 N   0  0  0  0  0  0  0  0  0  0  0  0
   46.2780   33.3920   44.2910 C   0  0  0  0  0  0  0  0  0  0  0  0
   45.0510   33.9160   44.3510 N   0  0  0  0  0  0  0  0  0  0  0  0
   43.7450   35.4220   43.7160 H   0  0  0  0  0  0  0  0  0  0  0  0
   45.4940   36.5300   42.2680 H   0  0  0  0  0  0  0  0  0  0  0  0
   46.8250   32.2080   44.9620 C   0  0  0  0  0  0  0  0  0  0  0  0
   47.6030   31.3020   44.2750 C   0  0  0  0  0  0  0  0  0  0  0  0
   47.8400   31.4330   43.2060 H   0  0  0  0  0  0  0  0  0  0  0  0
   48.1450   30.1720   44.8450 C   0  0  0  0  0  0  0  0  0  0  0  0
   47.9280   29.8870   46.1730 C   0  0  0  0  0  0  0  0  0  0  0  0
   47.1560   30.7640   46.8980 C   0  0  0  0  0  0  0  0  0  0  0  0
   46.9410   30.4770   48.2220 C   0  0  0  0  0  0  0  0  0  0  0  0
   46.1790   31.3030   49.0230 C   0  0  0  0  0  0  0  0  0  0  0  0
   45.6510   32.4380   48.3940 C   0  0  0  0  0  0  0  0  0  0  0  0
   45.8890   32.6920   47.0640 C   0  0  0  0  0  0  0  0  0  0  0  0
   46.6400   31.8760   46.2790 C   0  0  0  0  0  0  0  0  0  0  0  0
   48.0170   35.6070   42.0380 O   0  0  0  0  0  0  0  0  0  0  0  0
   48.2990   34.9490   40.8070 C   0  0  0  0  0  0  0  0  0  0  0  0
   47.0970   34.5600   40.2200 F   0  0  0  0  0  0  0  0  0  0  0  0
   48.9100   35.8790   39.9660 F   0  0  0  0  0  0  0  0  0  0  0  0
   49.1790   33.8940   40.9860 F   0  0  0  0  0  0  0  0  0  0  0  0
  1  7  1  0  0  0  0
  1  6  1  0  0  0  0
  2  1  2  0  0  0  0
  3  2  1  0  0  0  0
  3  4  2  0  0  0  0
  4  5  1  0  0  0  0
  5  6  2  0  0  0  0
  5  9  1  0  0  0  0
  8  2  1  0  0  0  0
  9 19  1  0  0  0  0
 10 12  1  0  0  0  0
 10  9  2  0  0  0  0
 11 10  1  0  0  0  0
 12 13  2  0  0  0  0
 13 14  1  0  0  0  0
 14 15  1  0  0  0  0
 15 16  2  0  0  0  0
 17 16  1  0  0  0  0
 18 17  2  0  0  0  0
 19 14  2  0  0  0  0
 19 18  1  0  0  0  0
 20  3  1  0  0  0  0
 21 24  1  0  0  0  0
 21 20  1  0  0  0  0
 22 21  1  0  0  0  0
 23 21  1  0  0  0  0
M  END
>  <minimizedAffinity>
-6.00477934

>  <minimizedRMSD>
1.52138925

$$$$
