
 OpenBabel03242523013D

 33 36  0  0  0  0  0  0  0  0999 V2000
   33.9280   26.8730   36.5290 C   0  0  0  0  0  0  0  0  0  0  0  0
   34.9380   27.1930   37.4380 C   0  0  0  0  0  0  0  0  0  0  0  0
   34.8420   28.2960   38.2380 C   0  0  0  0  0  0  0  0  0  0  0  0
   33.7150   29.0110   38.0650 N   0  0  0  0  0  0  0  0  0  0  0  0
   32.7300   28.7400   37.2140 C   0  0  0  0  0  0  0  0  0  0  0  0
   32.8590   27.6550   36.4470 N   0  0  0  0  0  0  0  0  0  0  0  0
   33.9920   26.0120   35.8980 H   0  0  0  0  0  0  0  0  0  0  0  0
   35.8120   26.5650   37.5130 H   0  0  0  0  0  0  0  0  0  0  0  0
   31.6630   29.7310   37.2950 C   0  0  0  0  0  0  0  0  0  0  0  0
   30.8900   29.9000   38.4190 C   0  0  0  0  0  0  0  0  0  0  0  0
   31.0570   29.2780   39.3120 H   0  0  0  0  0  0  0  0  0  0  0  0
   29.8770   30.8210   38.5320 C   0  0  0  0  0  3  0  0  0  0  0  0
   29.5720   31.6500   37.4970 C   0  0  0  0  0  3  0  0  0  0  0  0
   30.3090   31.5340   36.3400 C   0  0  0  0  0  0  0  0  0  0  0  0
   30.0000   32.3700   35.2990 C   0  0  0  0  0  3  0  0  0  0  0  0
   30.6920   32.3110   34.1110 C   0  0  0  0  0  3  0  0  0  0  0  0
   31.7010   31.3720   34.0410 C   0  0  0  0  0  3  0  0  0  0  0  0
   31.9820   30.5580   35.0920 C   0  0  0  0  0  3  0  0  0  0  0  0
   31.3090   30.5930   36.2880 C   0  0  0  0  0  0  0  0  0  0  0  0
   36.7480   30.4020   37.2860 Cl  0  0  0  0  0  0  0  0  0  0  0  0
   36.7640   29.6560   38.8600 C   0  0  0  0  0  0  0  0  0  0  0  0
   35.8580   28.6980   39.2200 C   0  0  0  0  0  0  0  0  0  0  0  0
   35.9810   28.1950   40.4830 C   0  0  0  0  0  0  0  0  0  0  0  0
   36.9330   28.5960   41.3550 C   0  0  0  0  0  0  0  0  0  0  0  0
   37.8380   29.5520   40.9950 C   0  0  0  0  0  0  0  0  0  0  0  0
   37.7460   30.0840   39.7300 C   0  0  0  0  0  0  0  0  0  0  0  0
   35.2660   27.4270   40.7910 H   0  0  0  0  0  0  0  0  0  0  0  0
   38.6190   29.9110   41.6480 H   0  0  0  0  0  0  0  0  0  0  0  0
   38.4690   30.8480   39.4430 H   0  0  0  0  0  0  0  0  0  0  0  0
   37.0510   28.0330   42.7310 C   0  0  0  0  0  0  0  0  0  0  0  0
   37.9980   27.0520   42.7140 F   0  0  0  0  0  0  0  0  0  0  0  0
   35.8150   27.5600   43.1830 F   0  0  0  0  0  0  0  0  0  0  0  0
   37.4430   29.0660   43.5800 F   0  0  0  0  0  0  0  0  0  0  0  0
  1  2  1  0  0  0  0
  2  8  1  0  0  0  0
  2  3  2  0  0  0  0
  3 22  1  0  0  0  0
  4  3  1  0  0  0  0
  5  9  1  0  0  0  0
  5  4  2  0  0  0  0
  6  1  2  0  0  0  0
  6  5  1  0  0  0  0
  7  1  1  0  0  0  0
  9 10  1  0  0  0  0
 10 12  2  0  0  0  0
 10 11  1  0  0  0  0
 13 12  1  0  0  0  0
 14 13  2  0  0  0  0
 15 14  1  0  0  0  0
 16 15  2  0  0  0  0
 17 16  1  0  0  0  0
 17 18  2  0  0  0  0
 18 19  1  0  0  0  0
 19 14  1  0  0  0  0
 19  9  2  0  0  0  0
 20 21  1  0  0  0  0
 21 22  2  0  0  0  0
 21 26  1  0  0  0  0
 22 23  1  0  0  0  0
 23 27  1  0  0  0  0
 23 24  2  0  0  0  0
 24 30  1  0  0  0  0
 25 24  1  0  0  0  0
 25 28  1  0  0  0  0
 26 25  2  0  0  0  0
 29 26  1  0  0  0  0
 30 32  1  0  0  0  0
 30 33  1  0  0  0  0
 31 30  1  0  0  0  0
M  END
>  <minimizedAffinity>
-7.03572273

$$$$

 OpenBabel03242523013D

 33 36  0  0  0  0  0  0  0  0999 V2000
   33.3430   26.9450   36.5370 C   0  0  0  0  0  0  0  0  0  0  0  0
   32.3780   27.8820   36.1610 C   0  0  0  0  0  0  0  0  0  0  0  0
   32.3840   29.1440   36.6820 C   0  0  0  0  0  0  0  0  0  0  0  0
   33.3770   29.3800   37.5590 N   0  0  0  0  0  0  0  0  0  0  0  0
   34.3140   28.5170   37.9420 C   0  0  0  0  0  0  0  0  0  0  0  0
   34.2770   27.2920   37.4120 N   0  0  0  0  0  0  0  0  0  0  0  0
   33.3490   25.9530   36.1350 H   0  0  0  0  0  0  0  0  0  0  0  0
   31.6140   27.6100   35.4500 H   0  0  0  0  0  0  0  0  0  0  0  0
   35.2300   29.1140   38.9070 C   0  0  0  0  0  0  0  0  0  0  0  0
   35.1110   28.9190   40.2630 C   0  0  0  0  0  0  0  0  0  0  0  0
   34.3020   28.2920   40.6700 H   0  0  0  0  0  0  0  0  0  0  0  0
   35.9530   29.4640   41.2010 C   0  0  0  0  0  3  0  0  0  0  0  0
   36.9930   30.2580   40.8250 C   0  0  0  0  0  3  0  0  0  0  0  0
   37.1700   30.4930   39.4790 C   0  0  0  0  0  0  0  0  0  0  0  0
   38.2180   31.2930   39.1040 C   0  0  0  0  0  3  0  0  0  0  0  0
   38.4560   31.5740   37.7780 C   0  0  0  0  0  3  0  0  0  0  0  0
   37.5860   31.0050   36.8690 C   0  0  0  0  0  3  0  0  0  0  0  0
   36.5570   30.2170   37.2760 C   0  0  0  0  0  3  0  0  0  0  0  0
   36.2940   29.9210   38.5900 C   0  0  0  0  0  0  0  0  0  0  0  0
   30.5420   29.9350   38.9090 Cl  0  0  0  0  0  0  0  0  0  0  0  0
   30.5340   30.6020   37.3000 C   0  0  0  0  0  0  0  0  0  0  0  0
   31.4080   30.1870   36.3360 C   0  0  0  0  0  0  0  0  0  0  0  0
   31.2940   30.7910   35.1170 C   0  0  0  0  0  0  0  0  0  0  0  0
   30.3790   31.7480   34.8430 C   0  0  0  0  0  0  0  0  0  0  0  0
   29.5060   32.1620   35.8060 C   0  0  0  0  0  0  0  0  0  0  0  0
   29.5900   31.5770   37.0480 C   0  0  0  0  0  0  0  0  0  0  0  0
   31.9840   30.4730   34.3310 H   0  0  0  0  0  0  0  0  0  0  0  0
   28.7560   32.9220   35.6450 H   0  0  0  0  0  0  0  0  0  0  0  0
   28.8920   31.9090   37.8180 H   0  0  0  0  0  0  0  0  0  0  0  0
   30.2710   32.3960   33.5040 C   0  0  0  0  0  0  0  0  0  0  0  0
   30.1880   31.4160   32.5580 F   0  0  0  0  0  0  0  0  0  0  0  0
   31.3530   33.2530   33.2760 F   0  0  0  0  0  0  0  0  0  0  0  0
   29.1120   33.1690   33.4990 F   0  0  0  0  0  0  0  0  0  0  0  0
  1  6  1  0  0  0  0
  2  1  2  0  0  0  0
  2  3  1  0  0  0  0
  3  4  2  0  0  0  0
  4  5  1  0  0  0  0
  5  9  1  0  0  0  0
  6  5  2  0  0  0  0
  7  1  1  0  0  0  0
  8  2  1  0  0  0  0
  9 10  1  0  0  0  0
 10 11  1  0  0  0  0
 10 12  2  0  0  0  0
 13 12  1  0  0  0  0
 14 13  2  0  0  0  0
 15 14  1  0  0  0  0
 16 15  2  0  0  0  0
 17 18  2  0  0  0  0
 17 16  1  0  0  0  0
 18 19  1  0  0  0  0
 19  9  2  0  0  0  0
 19 14  1  0  0  0  0
 21 20  1  0  0  0  0
 22  3  1  0  0  0  0
 22 21  2  0  0  0  0
 23 22  1  0  0  0  0
 24 23  2  0  0  0  0
 24 25  1  0  0  0  0
 25 26  2  0  0  0  0
 26 21  1  0  0  0  0
 26 29  1  0  0  0  0
 27 23  1  0  0  0  0
 28 25  1  0  0  0  0
 30 24  1  0  0  0  0
 31 30  1  0  0  0  0
 32 30  1  0  0  0  0
 33 30  1  0  0  0  0
M  END
>  <minimizedAffinity>
-6.90597486

$$$$

 OpenBabel03242523013D

 33 36  0  0  0  0  0  0  0  0999 V2000
   33.5570   26.3760   36.5270 C   0  0  0  0  0  0  0  0  0  0  0  0
   34.5870   26.7740   37.3810 C   0  0  0  0  0  0  0  0  0  0  0  0
   34.7590   28.0870   37.7120 C   0  0  0  0  0  0  0  0  0  0  0  0
   33.8650   28.9230   37.1510 N   0  0  0  0  0  0  0  0  0  0  0  0
   32.8710   28.5850   36.3350 C   0  0  0  0  0  0  0  0  0  0  0  0
   32.7340   27.2910   36.0330 N   0  0  0  0  0  0  0  0  0  0  0  0
   33.4130   25.3490   36.2610 H   0  0  0  0  0  0  0  0  0  0  0  0
   35.2620   26.0370   37.7880 H   0  0  0  0  0  0  0  0  0  0  0  0
   32.1000   29.7500   35.9180 C   0  0  0  0  0  0  0  0  0  0  0  0
   32.2900   30.3710   34.7060 C   0  0  0  0  0  0  0  0  0  0  0  0
   33.0470   30.0000   33.9990 H   0  0  0  0  0  0  0  0  0  0  0  0
   31.5840   31.4700   34.2800 C   0  0  0  0  0  3  0  0  0  0  0  0
   30.6200   32.0250   35.0630 C   0  0  0  0  0  3  0  0  0  0  0  0
   30.3770   31.4500   36.2910 C   0  0  0  0  0  0  0  0  0  0  0  0
   29.4060   32.0110   37.0780 C   0  0  0  0  0  3  0  0  0  0  0  0
   29.1090   31.4920   38.3170 C   0  0  0  0  0  3  0  0  0  0  0  0
   29.8420   30.3890   38.7060 C   0  0  0  0  0  3  0  0  0  0  0  0
   30.7990   29.8570   37.9010 C   0  0  0  0  0  3  0  0  0  0  0  0
   31.1170   30.3540   36.6620 C   0  0  0  0  0  0  0  0  0  0  0  0
   36.7230   29.9480   36.4240 Cl  0  0  0  0  0  0  0  0  0  0  0  0
   36.7480   29.4410   38.0900 C   0  0  0  0  0  0  0  0  0  0  0  0
   35.8140   28.5860   38.6040 C   0  0  0  0  0  0  0  0  0  0  0  0
   35.9490   28.2680   39.9250 C   0  0  0  0  0  0  0  0  0  0  0  0
   36.9380   28.7520   40.7100 C   0  0  0  0  0  0  0  0  0  0  0  0
   37.8700   29.6050   40.1960 C   0  0  0  0  0  0  0  0  0  0  0  0
   37.7680   29.9500   38.8680 C   0  0  0  0  0  0  0  0  0  0  0  0
   35.2120   27.5850   40.3570 H   0  0  0  0  0  0  0  0  0  0  0  0
   38.6800   30.0220   40.7750 H   0  0  0  0  0  0  0  0  0  0  0  0
   38.5130   30.6320   38.4580 H   0  0  0  0  0  0  0  0  0  0  0  0
   37.0670   28.3920   42.1520 C   0  0  0  0  0  0  0  0  0  0  0  0
   35.8890   27.8390   42.5640 F   0  0  0  0  0  0  0  0  0  0  0  0
   37.4160   29.5100   42.9150 F   0  0  0  0  0  0  0  0  0  0  0  0
   38.1000   27.4640   42.2660 F   0  0  0  0  0  0  0  0  0  0  0  0
  1  2  1  0  0  0  0
  2  3  2  0  0  0  0
  2  8  1  0  0  0  0
  3 22  1  0  0  0  0
  4  3  1  0  0  0  0
  5  4  2  0  0  0  0
  6  5  1  0  0  0  0
  6  1  2  0  0  0  0
  7  1  1  0  0  0  0
  9  5  1  0  0  0  0
  9 19  1  0  0  0  0
 10  9  2  0  0  0  0
 11 10  1  0  0  0  0
 12 10  1  0  0  0  0
 12 13  2  0  0  0  0
 13 14  1  0  0  0  0
 14 19  2  0  0  0  0
 14 15  1  0  0  0  0
 15 16  2  0  0  0  0
 16 17  1  0  0  0  0
 18 17  2  0  0  0  0
 19 18  1  0  0  0  0
 20 21  1  0  0  0  0
 21 22  2  0  0  0  0
 21 26  1  0  0  0  0
 22 23  1  0  0  0  0
 23 27  1  0  0  0  0
 23 24  2  0  0  0  0
 24 30  1  0  0  0  0
 25 24  1  0  0  0  0
 25 28  1  0  0  0  0
 26 25  2  0  0  0  0
 29 26  1  0  0  0  0
 30 33  1  0  0  0  0
 30 31  1  0  0  0  0
 30 32  1  0  0  0  0
M  END
>  <minimizedAffinity>
-6.8745966

$$$$

 OpenBabel03242523013D

 33 36  0  0  0  0  0  0  0  0999 V2000
   36.5310   30.2710   37.7410 C   0  0  0  0  0  0  0  0  0  0  0  0
   37.6140   31.1520   37.7080 C   0  0  0  0  0  0  0  0  0  0  0  0
   38.5090   31.2060   38.7380 C   0  0  0  0  0  0  0  0  0  0  0  0
   38.2470   30.3540   39.7470 N   0  0  0  0  0  0  0  0  0  0  0  0
   37.2300   29.5000   39.8170 C   0  0  0  0  0  0  0  0  0  0  0  0
   36.3750   29.4760   38.7910 N   0  0  0  0  0  0  0  0  0  0  0  0
   35.8240   30.2200   36.9400 H   0  0  0  0  0  0  0  0  0  0  0  0
   37.7510   31.8040   36.8600 H   0  0  0  0  0  0  0  0  0  0  0  0
   37.2580   28.7320   41.0550 C   0  0  0  0  0  0  0  0  0  0  0  0
   37.4130   29.3190   42.2900 C   0  0  0  0  0  0  0  0  0  0  0  0
   37.5240   30.4100   42.3810 H   0  0  0  0  0  0  0  0  0  0  0  0
   37.4450   28.6280   43.4770 C   0  0  0  0  0  3  0  0  0  0  0  0
   37.3190   27.2730   43.4980 C   0  0  0  0  0  3  0  0  0  0  0  0
   37.1590   26.6230   42.2950 C   0  0  0  0  0  0  0  0  0  0  0  0
   37.0330   25.2580   42.3190 C   0  0  0  0  0  3  0  0  0  0  0  0
   36.8710   24.5400   41.1560 C   0  0  0  0  0  3  0  0  0  0  0  0
   36.8450   25.2730   39.9870 C   0  0  0  0  0  3  0  0  0  0  0  0
   36.9730   26.6260   39.9980 C   0  0  0  0  0  3  0  0  0  0  0  0
   37.1360   27.3680   41.1410 C   0  0  0  0  0  0  0  0  0  0  0  0
   38.1080   33.7280   40.3050 Cl  0  0  0  0  0  0  0  0  0  0  0  0
   39.5690   33.2710   39.4740 C   0  0  0  0  0  0  0  0  0  0  0  0
   39.6740   32.1010   38.7780 C   0  0  0  0  0  0  0  0  0  0  0  0
   40.8740   31.8640   38.1720 C   0  0  0  0  0  0  0  0  0  0  0  0
   41.9210   32.7170   38.2360 C   0  0  0  0  0  0  0  0  0  0  0  0
   41.8150   33.8860   38.9310 C   0  0  0  0  0  0  0  0  0  0  0  0
   40.6210   34.1610   39.5560 C   0  0  0  0  0  0  0  0  0  0  0  0
   40.9800   30.9330   37.6090 H   0  0  0  0  0  0  0  0  0  0  0  0
   42.6170   34.6040   39.0160 H   0  0  0  0  0  0  0  0  0  0  0  0
   40.5370   35.0950   40.1110 H   0  0  0  0  0  0  0  0  0  0  0  0
   43.2250   32.4390   37.5660 C   0  0  0  0  0  0  0  0  0  0  0  0
   42.9860   31.6800   36.4590 F   0  0  0  0  0  0  0  0  0  0  0  0
   44.1140   31.8160   38.4470 F   0  0  0  0  0  0  0  0  0  0  0  0
   43.7820   33.6620   37.2000 F   0  0  0  0  0  0  0  0  0  0  0  0
  1  6  1  0  0  0  0
  2  1  2  0  0  0  0
  2  3  1  0  0  0  0
  3 22  1  0  0  0  0
  3  4  2  0  0  0  0
  4  5  1  0  0  0  0
  5  9  1  0  0  0  0
  6  5  2  0  0  0  0
  7  1  1  0  0  0  0
  8  2  1  0  0  0  0
  9 19  2  0  0  0  0
  9 10  1  0  0  0  0
 10 11  1  0  0  0  0
 10 12  2  0  0  0  0
 12 13  1  0  0  0  0
 14 15  1  0  0  0  0
 14 13  2  0  0  0  0
 16 15  2  0  0  0  0
 17 18  2  0  0  0  0
 17 16  1  0  0  0  0
 18 19  1  0  0  0  0
 19 14  1  0  0  0  0
 21 26  1  0  0  0  0
 21 20  1  0  0  0  0
 22 21  2  0  0  0  0
 23 24  2  0  0  0  0
 23 22  1  0  0  0  0
 24 25  1  0  0  0  0
 25 28  1  0  0  0  0
 25 26  2  0  0  0  0
 26 29  1  0  0  0  0
 27 23  1  0  0  0  0
 30 24  1  0  0  0  0
 30 32  1  0  0  0  0
 31 30  1  0  0  0  0
 33 30  1  0  0  0  0
M  END
>  <minimizedAffinity>
-6.82903862

$$$$

 OpenBabel03242523013D

 33 36  0  0  0  0  0  0  0  0999 V2000
   36.3100   29.6800   36.6630 C   0  0  0  0  0  0  0  0  0  0  0  0
   37.2320   30.6920   36.9360 C   0  0  0  0  0  0  0  0  0  0  0  0
   38.0510   30.6220   38.0260 C   0  0  0  0  0  0  0  0  0  0  0  0
   37.8820   29.5180   38.7790 N   0  0  0  0  0  0  0  0  0  0  0  0
   37.0180   28.5330   38.5530 C   0  0  0  0  0  0  0  0  0  0  0  0
   36.2330   28.6360   37.4780 N   0  0  0  0  0  0  0  0  0  0  0  0
   35.6630   29.7240   35.8110 H   0  0  0  0  0  0  0  0  0  0  0  0
   37.3030   31.5450   36.2800 H   0  0  0  0  0  0  0  0  0  0  0  0
   37.1080   27.4960   39.5740 C   0  0  0  0  0  0  0  0  0  0  0  0
   37.0780   26.1550   39.2750 C   0  0  0  0  0  0  0  0  0  0  0  0
   36.9820   25.8150   38.2320 H   0  0  0  0  0  0  0  0  0  0  0  0
   37.1590   25.1510   40.2090 C   0  0  0  0  0  3  0  0  0  0  0  0
   37.2810   25.4400   41.5330 C   0  0  0  0  0  3  0  0  0  0  0  0
   37.3190   26.7660   41.9020 C   0  0  0  0  0  0  0  0  0  0  0  0
   37.4400   27.0550   43.2360 C   0  0  0  0  0  3  0  0  0  0  0  0
   37.4840   28.3570   43.6800 C   0  0  0  0  0  3  0  0  0  0  0  0
   37.3980   29.3340   42.7080 C   0  0  0  0  0  3  0  0  0  0  0  0
   37.2780   29.0130   41.3930 C   0  0  0  0  0  3  0  0  0  0  0  0
   37.2320   27.7250   40.9220 C   0  0  0  0  0  0  0  0  0  0  0  0
   37.2490   32.4450   40.2640 Cl  0  0  0  0  0  0  0  0  0  0  0  0
   38.7560   32.5100   39.3930 C   0  0  0  0  0  0  0  0  0  0  0  0
   39.0490   31.6410   38.3800 C   0  0  0  0  0  0  0  0  0  0  0  0
   40.2640   31.8020   37.7790 C   0  0  0  0  0  0  0  0  0  0  0  0
   41.1520   32.7550   38.1390 C   0  0  0  0  0  0  0  0  0  0  0  0
   40.8590   33.6230   39.1500 C   0  0  0  0  0  0  0  0  0  0  0  0
   39.6440   33.4930   39.7810 C   0  0  0  0  0  0  0  0  0  0  0  0
   40.5180   31.1160   36.9660 H   0  0  0  0  0  0  0  0  0  0  0  0
   41.5290   34.4030   39.4800 H   0  0  0  0  0  0  0  0  0  0  0  0
   39.4100   34.1870   40.5890 H   0  0  0  0  0  0  0  0  0  0  0  0
   42.4760   32.9130   37.4690 C   0  0  0  0  0  0  0  0  0  0  0  0
   42.5150   34.1440   36.8810 F   0  0  0  0  0  0  0  0  0  0  0  0
   42.6930   31.8850   36.5470 F   0  0  0  0  0  0  0  0  0  0  0  0
   43.4610   32.8170   38.4490 F   0  0  0  0  0  0  0  0  0  0  0  0
  1  2  2  0  0  0  0
  1  6  1  0  0  0  0
  2  3  1  0  0  0  0
  3 22  1  0  0  0  0
  3  4  2  0  0  0  0
  5  4  1  0  0  0  0
  5  9  1  0  0  0  0
  6  5  2  0  0  0  0
  7  1  1  0  0  0  0
  8  2  1  0  0  0  0
  9 19  1  0  0  0  0
 10  9  2  0  0  0  0
 10 12  1  0  0  0  0
 11 10  1  0  0  0  0
 12 13  2  0  0  0  0
 13 14  1  0  0  0  0
 14 15  1  0  0  0  0
 15 16  2  0  0  0  0
 17 16  1  0  0  0  0
 18 17  2  0  0  0  0
 19 18  1  0  0  0  0
 19 14  2  0  0  0  0
 21 26  1  0  0  0  0
 21 20  1  0  0  0  0
 22 21  2  0  0  0  0
 23 24  2  0  0  0  0
 23 22  1  0  0  0  0
 24 25  1  0  0  0  0
 25 28  1  0  0  0  0
 25 26  2  0  0  0  0
 26 29  1  0  0  0  0
 27 23  1  0  0  0  0
 30 24  1  0  0  0  0
 30 33  1  0  0  0  0
 31 30  1  0  0  0  0
 32 30  1  0  0  0  0
M  END
>  <minimizedAffinity>
-6.73271704

$$$$

 OpenBabel03242523013D

 33 36  0  0  0  0  0  0  0  0999 V2000
   34.1520   27.2600   36.1380 C   0  0  0  0  0  0  0  0  0  0  0  0
   35.1960   27.7100   36.9490 C   0  0  0  0  0  0  0  0  0  0  0  0
   35.0360   28.7910   37.7680 C   0  0  0  0  0  0  0  0  0  0  0  0
   33.8150   29.3530   37.7130 N   0  0  0  0  0  0  0  0  0  0  0  0
   32.7950   28.9560   36.9570 C   0  0  0  0  0  0  0  0  0  0  0  0
   32.9880   27.8960   36.1690 N   0  0  0  0  0  0  0  0  0  0  0  0
   34.2660   26.4140   35.4930 H   0  0  0  0  0  0  0  0  0  0  0  0
   36.1470   27.2000   36.9320 H   0  0  0  0  0  0  0  0  0  0  0  0
   31.6220   29.8000   37.1530 C   0  0  0  0  0  0  0  0  0  0  0  0
   30.8840   29.7890   38.3130 C   0  0  0  0  0  0  0  0  0  0  0  0
   31.1620   29.1270   39.1470 H   0  0  0  0  0  0  0  0  0  0  0  0
   29.7740   30.5680   38.5320 C   0  0  0  0  0  3  0  0  0  0  0  0
   29.3270   31.4280   37.5770 C   0  0  0  0  0  3  0  0  0  0  0  0
   30.0230   31.4900   36.3900 C   0  0  0  0  0  0  0  0  0  0  0  0
   29.5710   32.3570   35.4300 C   0  0  0  0  0  3  0  0  0  0  0  0
   30.2130   32.4730   34.2180 C   0  0  0  0  0  3  0  0  0  0  0  0
   31.3240   31.6720   34.0400 C   0  0  0  0  0  3  0  0  0  0  0  0
   31.7450   30.8220   35.0130 C   0  0  0  0  0  3  0  0  0  0  0  0
   31.1240   30.6850   36.2300 C   0  0  0  0  0  0  0  0  0  0  0  0
   36.2860   26.7740   39.5980 Cl  0  0  0  0  0  0  0  0  0  0  0  0
   36.7010   28.4630   39.5150 C   0  0  0  0  0  0  0  0  0  0  0  0
   36.0820   29.3230   38.6520 C   0  0  0  0  0  0  0  0  0  0  0  0
   36.5020   30.6210   38.6890 C   0  0  0  0  0  0  0  0  0  0  0  0
   37.4700   31.0680   39.5200 C   0  0  0  0  0  0  0  0  0  0  0  0
   38.0870   30.2090   40.3820 C   0  0  0  0  0  0  0  0  0  0  0  0
   37.6920   28.8920   40.3740 C   0  0  0  0  0  0  0  0  0  0  0  0
   36.0200   31.3260   38.0060 H   0  0  0  0  0  0  0  0  0  0  0  0
   38.8660   30.5090   41.0670 H   0  0  0  0  0  0  0  0  0  0  0  0
   38.1860   28.2060   41.0640 H   0  0  0  0  0  0  0  0  0  0  0  0
   37.9140   32.4920   39.5440 C   0  0  0  0  0  0  0  0  0  0  0  0
   36.9140   33.2620   39.0260 F   0  0  0  0  0  0  0  0  0  0  0  0
   39.1140   32.6520   38.8450 F   0  0  0  0  0  0  0  0  0  0  0  0
   38.1490   32.8390   40.8730 F   0  0  0  0  0  0  0  0  0  0  0  0
  1  6  2  0  0  0  0
  1  2  1  0  0  0  0
  2  3  2  0  0  0  0
  3 22  1  0  0  0  0
  4  3  1  0  0  0  0
  5  9  1  0  0  0  0
  5  4  2  0  0  0  0
  6  5  1  0  0  0  0
  7  1  1  0  0  0  0
  8  2  1  0  0  0  0
  9 10  1  0  0  0  0
 10 12  2  0  0  0  0
 10 11  1  0  0  0  0
 13 12  1  0  0  0  0
 14 13  2  0  0  0  0
 15 14  1  0  0  0  0
 16 15  2  0  0  0  0
 17 16  1  0  0  0  0
 17 18  2  0  0  0  0
 18 19  1  0  0  0  0
 19 14  1  0  0  0  0
 19  9  2  0  0  0  0
 21 20  1  0  0  0  0
 21 26  1  0  0  0  0
 22 23  1  0  0  0  0
 22 21  2  0  0  0  0
 23 24  2  0  0  0  0
 24 30  1  0  0  0  0
 24 25  1  0  0  0  0
 25 28  1  0  0  0  0
 26 25  2  0  0  0  0
 26 29  1  0  0  0  0
 27 23  1  0  0  0  0
 30 33  1  0  0  0  0
 31 30  1  0  0  0  0
 32 30  1  0  0  0  0
M  END
>  <minimizedAffinity>
-6.5027113

$$$$

 OpenBabel03242523013D

 33 36  0  0  0  0  0  0  0  0999 V2000
   37.2530   29.0210   36.8490 C   0  0  0  0  0  0  0  0  0  0  0  0
   35.9140   29.0880   36.4590 C   0  0  0  0  0  0  0  0  0  0  0  0
   34.9410   28.4480   37.1700 C   0  0  0  0  0  0  0  0  0  0  0  0
   35.3910   27.7720   38.2440 N   0  0  0  0  0  0  0  0  0  0  0  0
   36.6540   27.6840   38.6500 C   0  0  0  0  0  0  0  0  0  0  0  0
   37.5790   28.3230   37.9290 N   0  0  0  0  0  0  0  0  0  0  0  0
   38.0240   29.5200   36.2990 H   0  0  0  0  0  0  0  0  0  0  0  0
   35.6380   29.6530   35.5820 H   0  0  0  0  0  0  0  0  0  0  0  0
   36.7760   26.8690   39.8530 C   0  0  0  0  0  0  0  0  0  0  0  0
   36.6720   25.4980   39.8350 C   0  0  0  0  0  0  0  0  0  0  0  0
   36.4890   24.9630   38.8900 H   0  0  0  0  0  0  0  0  0  0  0  0
   36.7800   24.6980   40.9460 C   0  0  0  0  0  3  0  0  0  0  0  0
   37.0060   25.2400   42.1740 C   0  0  0  0  0  3  0  0  0  0  0  0
   37.1220   26.6090   42.2630 C   0  0  0  0  0  0  0  0  0  0  0  0
   37.3490   27.1520   43.5010 C   0  0  0  0  0  3  0  0  0  0  0  0
   37.4740   28.5120   43.6670 C   0  0  0  0  0  3  0  0  0  0  0  0
   37.3590   29.2780   42.5250 C   0  0  0  0  0  3  0  0  0  0  0  0
   37.1330   28.7070   41.3120 C   0  0  0  0  0  3  0  0  0  0  0  0
   37.0030   27.3550   41.1160 C   0  0  0  0  0  0  0  0  0  0  0  0
   33.9550   26.0280   35.7040 Cl  0  0  0  0  0  0  0  0  0  0  0  0
   32.9880   27.4030   36.1590 C   0  0  0  0  0  0  0  0  0  0  0  0
   33.5120   28.4720   36.8280 C   0  0  0  0  0  0  0  0  0  0  0  0
   32.6450   29.4840   37.1240 C   0  0  0  0  0  0  0  0  0  0  0  0
   31.3350   29.4640   36.7900 C   0  0  0  0  0  0  0  0  0  0  0  0
   30.8120   28.3960   36.1210 C   0  0  0  0  0  0  0  0  0  0  0  0
   31.6540   27.3560   35.8050 C   0  0  0  0  0  0  0  0  0  0  0  0
   33.0450   30.3500   37.6590 H   0  0  0  0  0  0  0  0  0  0  0  0
   29.7750   28.3250   35.8280 H   0  0  0  0  0  0  0  0  0  0  0  0
   31.2350   26.5020   35.2710 H   0  0  0  0  0  0  0  0  0  0  0  0
   30.4040   30.5810   37.1230 C   0  0  0  0  0  0  0  0  0  0  0  0
   30.9020   31.7300   36.5830 F   0  0  0  0  0  0  0  0  0  0  0  0
   30.2270   30.6850   38.5060 F   0  0  0  0  0  0  0  0  0  0  0  0
   29.1650   30.2820   36.5600 F   0  0  0  0  0  0  0  0  0  0  0  0
  1  6  1  0  0  0  0
  2  1  2  0  0  0  0
  2  3  1  0  0  0  0
  3  4  2  0  0  0  0
  4  5  1  0  0  0  0
  5  9  1  0  0  0  0
  6  5  2  0  0  0  0
  7  1  1  0  0  0  0
  8  2  1  0  0  0  0
  9 19  1  0  0  0  0
 10  9  2  0  0  0  0
 10 12  1  0  0  0  0
 11 10  1  0  0  0  0
 12 13  2  0  0  0  0
 13 14  1  0  0  0  0
 14 15  1  0  0  0  0
 15 16  2  0  0  0  0
 17 16  1  0  0  0  0
 18 17  2  0  0  0  0
 19 18  1  0  0  0  0
 19 14  2  0  0  0  0
 20 21  1  0  0  0  0
 21 22  1  0  0  0  0
 22 23  2  0  0  0  0
 22  3  1  0  0  0  0
 23 27  1  0  0  0  0
 24 30  1  0  0  0  0
 24 23  1  0  0  0  0
 25 24  2  0  0  0  0
 26 25  1  0  0  0  0
 26 21  2  0  0  0  0
 28 25  1  0  0  0  0
 29 26  1  0  0  0  0
 30 32  1  0  0  0  0
 31 30  1  0  0  0  0
 33 30  1  0  0  0  0
M  END
>  <minimizedAffinity>
-6.49522257

$$$$

 OpenBabel03242523013D

 33 36  0  0  0  0  0  0  0  0999 V2000
   34.6660   27.9940   34.8950 C   0  0  0  0  0  0  0  0  0  0  0  0
   35.4230   27.5810   35.9940 C   0  0  0  0  0  0  0  0  0  0  0  0
   35.0340   27.8810   37.2680 C   0  0  0  0  0  0  0  0  0  0  0  0
   33.8920   28.5880   37.3490 N   0  0  0  0  0  0  0  0  0  0  0  0
   33.1430   28.9990   36.3310 C   0  0  0  0  0  0  0  0  0  0  0  0
   33.5530   28.6880   35.0990 N   0  0  0  0  0  0  0  0  0  0  0  0
   34.9600   27.7650   33.8920 H   0  0  0  0  0  0  0  0  0  0  0  0
   36.3290   27.0170   35.8400 H   0  0  0  0  0  0  0  0  0  0  0  0
   31.9740   29.7400   36.7890 C   0  0  0  0  0  0  0  0  0  0  0  0
   31.4570   29.6030   38.0560 C   0  0  0  0  0  0  0  0  0  0  0  0
   31.9200   28.9130   38.7780 H   0  0  0  0  0  0  0  0  0  0  0  0
   30.3580   30.2830   38.5220 C   0  0  0  0  0  3  0  0  0  0  0  0
   29.6960   31.1660   37.7250 C   0  0  0  0  0  3  0  0  0  0  0  0
   30.1630   31.3520   36.4430 C   0  0  0  0  0  0  0  0  0  0  0  0
   29.4950   32.2410   35.6430 C   0  0  0  0  0  3  0  0  0  0  0  0
   29.9020   32.4780   34.3500 C   0  0  0  0  0  3  0  0  0  0  0  0
   31.0100   31.7740   33.9230 C   0  0  0  0  0  3  0  0  0  0  0  0
   31.6500   30.8990   34.7420 C   0  0  0  0  0  3  0  0  0  0  0  0
   31.2650   30.6420   36.0350 C   0  0  0  0  0  0  0  0  0  0  0  0
   36.2860   30.1400   38.7870 Cl  0  0  0  0  0  0  0  0  0  0  0  0
   36.3700   28.4560   39.2220 C   0  0  0  0  0  0  0  0  0  0  0  0
   35.7720   27.4810   38.4740 C   0  0  0  0  0  0  0  0  0  0  0  0
   35.9150   26.2000   38.9260 C   0  0  0  0  0  0  0  0  0  0  0  0
   36.6040   25.8780   40.0440 C   0  0  0  0  0  0  0  0  0  0  0  0
   37.2010   26.8510   40.7890 C   0  0  0  0  0  0  0  0  0  0  0  0
   37.0790   28.1550   40.3670 C   0  0  0  0  0  0  0  0  0  0  0  0
   35.4440   25.4050   38.3420 H   0  0  0  0  0  0  0  0  0  0  0  0
   37.7630   26.6530   41.6900 H   0  0  0  0  0  0  0  0  0  0  0  0
   37.5570   28.9330   40.9640 H   0  0  0  0  0  0  0  0  0  0  0  0
   36.7480   24.4710   40.5200 C   0  0  0  0  0  0  0  0  0  0  0  0
   35.9610   23.6720   39.7430 F   0  0  0  0  0  0  0  0  0  0  0  0
   36.4230   24.3690   41.8760 F   0  0  0  0  0  0  0  0  0  0  0  0
   38.0870   24.1120   40.3780 F   0  0  0  0  0  0  0  0  0  0  0  0
  1  6  2  0  0  0  0
  1  2  1  0  0  0  0
  2  3  2  0  0  0  0
  3  4  1  0  0  0  0
  3 22  1  0  0  0  0
  5  9  1  0  0  0  0
  5  4  2  0  0  0  0
  6  5  1  0  0  0  0
  7  1  1  0  0  0  0
  8  2  1  0  0  0  0
  9 10  1  0  0  0  0
 10 12  2  0  0  0  0
 10 11  1  0  0  0  0
 13 12  1  0  0  0  0
 14 13  2  0  0  0  0
 15 14  1  0  0  0  0
 16 15  2  0  0  0  0
 17 16  1  0  0  0  0
 17 18  2  0  0  0  0
 18 19  1  0  0  0  0
 19 14  1  0  0  0  0
 19  9  2  0  0  0  0
 20 21  1  0  0  0  0
 21 26  1  0  0  0  0
 22 23  1  0  0  0  0
 22 21  2  0  0  0  0
 23 24  2  0  0  0  0
 24 30  1  0  0  0  0
 24 25  1  0  0  0  0
 25 28  1  0  0  0  0
 26 25  2  0  0  0  0
 26 29  1  0  0  0  0
 27 23  1  0  0  0  0
 30 32  1  0  0  0  0
 31 30  1  0  0  0  0
 33 30  1  0  0  0  0
M  END
>  <minimizedAffinity>
-6.29743576

$$$$

 OpenBabel03242523013D

 33 36  0  0  0  0  0  0  0  0999 V2000
   36.1060   27.9640   34.9700 C   0  0  0  0  0  0  0  0  0  0  0  0
   34.8230   28.3210   34.5480 C   0  0  0  0  0  0  0  0  0  0  0  0
   33.9530   28.9460   35.3940 C   0  0  0  0  0  0  0  0  0  0  0  0
   34.4410   29.1720   36.6280 N   0  0  0  0  0  0  0  0  0  0  0  0
   35.6540   28.8490   37.0690 C   0  0  0  0  0  0  0  0  0  0  0  0
   36.4780   28.2390   36.2140 N   0  0  0  0  0  0  0  0  0  0  0  0
   36.7960   27.4750   34.3160 H   0  0  0  0  0  0  0  0  0  0  0  0
   34.5100   28.1030   33.5400 H   0  0  0  0  0  0  0  0  0  0  0  0
   35.8420   29.2440   38.4590 C   0  0  0  0  0  0  0  0  0  0  0  0
   35.4010   28.4810   39.5150 C   0  0  0  0  0  0  0  0  0  0  0  0
   34.8810   27.5270   39.3370 H   0  0  0  0  0  0  0  0  0  0  0  0
   35.5590   28.8210   40.8360 C   0  0  0  0  0  3  0  0  0  0  0  0
   36.1860   29.9760   41.1870 C   0  0  0  0  0  3  0  0  0  0  0  0
   36.6540   30.7880   40.1780 C   0  0  0  0  0  0  0  0  0  0  0  0
   37.2850   31.9510   40.5340 C   0  0  0  0  0  3  0  0  0  0  0  0
   37.7770   32.8120   39.5810 C   0  0  0  0  0  3  0  0  0  0  0  0
   37.5970   32.4320   38.2660 C   0  0  0  0  0  3  0  0  0  0  0  0
   36.9660   31.2710   37.9470 C   0  0  0  0  0  3  0  0  0  0  0  0
   36.4650   30.3940   38.8760 C   0  0  0  0  0  0  0  0  0  0  0  0
   31.8810   26.7940   35.6300 Cl  0  0  0  0  0  0  0  0  0  0  0  0
   31.5900   28.4310   35.1090 C   0  0  0  0  0  0  0  0  0  0  0  0
   32.5910   29.3570   35.0260 C   0  0  0  0  0  0  0  0  0  0  0  0
   32.2270   30.6030   34.6030 C   0  0  0  0  0  0  0  0  0  0  0  0
   30.9590   30.9370   34.2740 C   0  0  0  0  0  0  0  0  0  0  0  0
   29.9600   30.0120   34.3570 C   0  0  0  0  0  0  0  0  0  0  0  0
   30.2860   28.7440   34.7800 C   0  0  0  0  0  0  0  0  0  0  0  0
   33.0130   31.3590   34.5290 H   0  0  0  0  0  0  0  0  0  0  0  0
   28.9300   30.2210   34.1080 H   0  0  0  0  0  0  0  0  0  0  0  0
   29.4870   28.0050   34.8460 H   0  0  0  0  0  0  0  0  0  0  0  0
   30.5830   32.3050   33.8140 C   0  0  0  0  0  0  0  0  0  0  0  0
   31.6930   33.0960   33.8670 F   0  0  0  0  0  0  0  0  0  0  0  0
   29.5350   32.8190   34.5840 F   0  0  0  0  0  0  0  0  0  0  0  0
   30.1290   32.2000   32.5000 F   0  0  0  0  0  0  0  0  0  0  0  0
  1  6  1  0  0  0  0
  2  1  2  0  0  0  0
  2  3  1  0  0  0  0
  3  4  2  0  0  0  0
  4  5  1  0  0  0  0
  5  9  1  0  0  0  0
  6  5  2  0  0  0  0
  7  1  1  0  0  0  0
  8  2  1  0  0  0  0
  9 19  2  0  0  0  0
  9 10  1  0  0  0  0
 10 12  2  0  0  0  0
 11 10  1  0  0  0  0
 12 13  1  0  0  0  0
 14 15  1  0  0  0  0
 14 13  2  0  0  0  0
 16 15  2  0  0  0  0
 17 16  1  0  0  0  0
 18 17  2  0  0  0  0
 18 19  1  0  0  0  0
 19 14  1  0  0  0  0
 21 20  1  0  0  0  0
 22 21  1  0  0  0  0
 22  3  1  0  0  0  0
 23 22  2  0  0  0  0
 24 25  2  0  0  0  0
 24 23  1  0  0  0  0
 25 26  1  0  0  0  0
 26 29  1  0  0  0  0
 26 21  2  0  0  0  0
 27 23  1  0  0  0  0
 28 25  1  0  0  0  0
 30 31  1  0  0  0  0
 30 24  1  0  0  0  0
 30 32  1  0  0  0  0
 33 30  1  0  0  0  0
M  END
>  <minimizedAffinity>
-6.23016739

$$$$
