
 OpenBabel03252506443D

 42 46  0  0  1  0  0  0  0  0999 V2000
   36.9830   29.7520   40.6850 N   0  0  1  0  0  0  0  0  0  0  0  0
   37.1930   31.1210   40.9980 C   0  0  0  0  0  0  0  0  0  0  0  0
   36.9500   32.0980   39.9120 C   0  0  0  0  0  0  0  0  0  0  0  0
   37.8830   31.8350   38.7670 C   0  0  0  0  0  0  0  0  0  0  0  0
   38.1000   30.3610   38.6050 C   0  0  0  0  0  0  0  0  0  0  0  0
   37.0840   29.5270   39.2580 C   0  0  2  0  0  0  0  0  0  0  0  0
   38.2600   31.2700   41.3260 H   0  0  0  0  0  0  0  0  0  0  0  0
   36.5950   31.3740   41.9140 H   0  0  0  0  0  0  0  0  0  0  0  0
   37.3100   33.0980   40.3400 H   0  0  0  0  0  0  0  0  0  0  0  0
   35.9300   32.3170   39.6240 H   0  0  0  0  0  0  0  0  0  0  0  0
   38.8790   32.2630   39.0250 H   0  0  0  0  0  0  0  0  0  0  0  0
   37.5830   32.3650   37.8390 H   0  0  0  0  0  0  0  0  0  0  0  0
   38.1550   30.2170   37.5140 H   0  0  0  0  0  0  0  0  0  0  0  0
   39.1180   30.0340   38.9740 H   0  0  0  0  0  0  0  0  0  0  0  0
   37.5490   28.4780   39.3000 H   0  0  0  0  0  0  0  0  0  0  0  0
   35.7970   29.2990   38.5890 C   0  0  0  0  0  0  0  0  0  0  0  0
   34.5350   29.2660   39.1510 C   0  0  0  0  0  0  0  0  0  0  0  0
   34.4610   29.4240   40.2170 H   0  0  0  0  0  0  0  0  0  0  0  0
   33.3620   29.0380   38.5130 C   0  0  0  0  0  3  0  0  0  0  0  0
   33.3730   28.8090   37.1710 C   0  0  0  0  0  3  0  0  0  0  0  0
   34.5830   28.8190   36.5100 C   0  0  0  0  0  0  0  0  0  0  0  0
   34.5310   28.5790   35.1550 C   0  0  0  0  0  3  0  0  0  0  0  0
   35.7000   28.5710   34.4290 C   0  0  0  0  0  3  0  0  0  0  0  0
   36.8980   28.8020   35.0690 C   0  0  0  0  0  3  0  0  0  0  0  0
   36.8770   29.0360   36.4270 C   0  0  0  0  0  3  0  0  0  0  0  0
   35.7460   29.0580   37.2130 C   0  0  0  0  0  0  0  0  0  0  0  0
   37.3970   27.9940   42.5290 C   0  0  1  0  0  0  0  0  0  0  0  0
   37.8690   29.2930   42.9550 C   0  0  0  0  0  0  0  0  0  0  0  0
   37.8970   28.9860   41.4890 C   0  0  2  0  0  0  0  0  0  0  0  0
   36.3260   27.7720   42.4030 H   0  0  0  0  0  0  0  0  0  0  0  0
   37.0940   30.0110   43.3340 H   0  0  0  0  0  0  0  0  0  0  0  0
   38.8270   29.4030   43.5130 H   0  0  0  0  0  0  0  0  0  0  0  0
   38.9110   28.8400   41.0740 H   0  0  0  0  0  0  0  0  0  0  0  0
   37.8220   25.5420   42.1250 C   0  0  0  0  0  0  0  0  0  0  0  0
   38.2020   26.7540   42.7430 C   0  0  0  0  0  0  0  0  0  0  0  0
   39.3290   26.7440   43.5430 C   0  0  0  0  0  0  0  0  0  0  0  0
   39.9970   25.5640   43.6790 N   0  0  0  0  0  0  0  0  0  0  0  0
   39.6160   24.4230   43.0780 C   0  0  0  0  0  0  0  0  0  0  0  0
   38.5230   24.3960   42.2930 N   0  0  0  0  0  0  0  0  0  0  0  0
   36.9340   25.5590   41.4970 H   0  0  0  0  0  0  0  0  0  0  0  0
   39.6630   27.6310   44.0360 H   0  0  0  0  0  0  0  0  0  0  0  0
   40.1780   23.5070   43.2140 H   0  0  0  0  0  0  0  0  0  0  0  0
  1  2  1  6  0  0  0
  1 29  1  0  0  0  0
  2  7  1  0  0  0  0
  2  8  1  0  0  0  0
  3  9  1  0  0  0  0
  3  2  1  0  0  0  0
  4 11  1  0  0  0  0
  4  3  1  0  0  0  0
  5  4  1  0  0  0  0
  5 14  1  0  0  0  0
  5  6  1  0  0  0  0
  6 15  1  6  0  0  0
  6  1  1  0  0  0  0
 10  3  1  0  0  0  0
 12  4  1  0  0  0  0
 13  5  1  0  0  0  0
 16 17  1  0  0  0  0
 16  6  1  0  0  0  0
 17 18  1  0  0  0  0
 19 17  2  0  0  0  0
 20 19  1  0  0  0  0
 21 20  2  0  0  0  0
 21 26  1  0  0  0  0
 22 21  1  0  0  0  0
 23 24  1  0  0  0  0
 23 22  2  0  0  0  0
 24 25  2  0  0  0  0
 25 26  1  0  0  0  0
 26 16  2  0  0  0  0
 27 30  1  1  0  0  0
 27 35  1  0  0  0  0
 27 28  1  0  0  0  0
 28 31  1  0  0  0  0
 28 32  1  0  0  0  0
 29 33  1  6  0  0  0
 29 27  1  0  0  0  0
 29 28  1  0  0  0  0
 34 39  2  0  0  0  0
 34 35  1  0  0  0  0
 35 36  2  0  0  0  0
 36 37  1  0  0  0  0
 36 41  1  0  0  0  0
 38 42  1  0  0  0  0
 38 37  2  0  0  0  0
 39 38  1  0  0  0  0
 40 34  1  0  0  0  0
M  END
>  <minimizedAffinity>
-6.41465664

$$$$

 OpenBabel03252506443D

 42 46  0  0  1  0  0  0  0  0999 V2000
   36.7070   28.9700   38.7240 N   0  0  1  0  0  0  0  0  0  0  0  0
   35.3910   29.3370   38.3340 C   0  0  0  0  0  0  0  0  0  0  0  0
   34.3740   28.2610   38.3240 C   0  0  0  0  0  0  0  0  0  0  0  0
   34.7650   27.1960   37.3430 C   0  0  0  0  0  0  0  0  0  0  0  0
   36.2520   27.0130   37.3420 C   0  0  0  0  0  0  0  0  0  0  0  0
   36.9260   27.5510   38.5300 C   0  0  2  0  0  0  0  0  0  0  0  0
   35.4160   29.7620   37.2910 H   0  0  0  0  0  0  0  0  0  0  0  0
   35.0610   30.2040   38.9660 H   0  0  0  0  0  0  0  0  0  0  0  0
   33.4490   28.7470   37.8540 H   0  0  0  0  0  0  0  0  0  0  0  0
   33.9950   27.8910   39.2670 H   0  0  0  0  0  0  0  0  0  0  0  0
   34.5010   27.5510   36.3200 H   0  0  0  0  0  0  0  0  0  0  0  0
   34.1820   26.2600   37.4710 H   0  0  0  0  0  0  0  0  0  0  0  0
   36.3880   25.9270   37.2110 H   0  0  0  0  0  0  0  0  0  0  0  0
   36.7390   27.4610   36.4250 H   0  0  0  0  0  0  0  0  0  0  0  0
   38.0340   27.6050   38.2390 H   0  0  0  0  0  0  0  0  0  0  0  0
   36.9410   26.7660   39.7700 C   0  0  0  0  0  0  0  0  0  0  0  0
   36.7510   25.4060   39.9240 C   0  0  0  0  0  0  0  0  0  0  0  0
   36.5640   24.8260   39.0320 H   0  0  0  0  0  0  0  0  0  0  0  0
   36.7550   24.7060   41.0840 C   0  0  0  0  0  3  0  0  0  0  0  0
   36.9620   25.3690   42.2550 C   0  0  0  0  0  3  0  0  0  0  0  0
   37.1620   26.7320   42.2150 C   0  0  0  0  0  0  0  0  0  0  0  0
   37.3640   27.3470   43.4310 C   0  0  0  0  0  3  0  0  0  0  0  0
   37.5690   28.7070   43.4700 C   0  0  0  0  0  3  0  0  0  0  0  0
   37.5670   29.4280   42.2950 C   0  0  0  0  0  3  0  0  0  0  0  0
   37.3590   28.7480   41.1150 C   0  0  0  0  0  3  0  0  0  0  0  0
   37.1480   27.3910   41.0030 C   0  0  0  0  0  0  0  0  0  0  0  0
   38.6900   30.6220   38.7490 C   0  0  1  0  0  0  0  0  0  0  0  0
   37.4820   31.2900   38.3190 C   0  0  0  0  0  0  0  0  0  0  0  0
   37.6170   29.8290   38.0160 C   0  0  2  0  0  0  0  0  0  0  0  0
   38.8280   30.2680   39.7810 H   0  0  0  0  0  0  0  0  0  0  0  0
   36.7650   31.6030   39.1230 H   0  0  0  0  0  0  0  0  0  0  0  0
   37.4970   32.0290   37.4850 H   0  0  0  0  0  0  0  0  0  0  0  0
   37.7770   29.5990   36.9470 H   0  0  0  0  0  0  0  0  0  0  0  0
   40.8900   29.7470   37.8840 C   0  0  0  0  0  0  0  0  0  0  0  0
   39.9950   30.8260   38.0500 C   0  0  0  0  0  0  0  0  0  0  0  0
   40.3700   32.0590   37.5510 C   0  0  0  0  0  0  0  0  0  0  0  0
   41.5800   32.1480   36.9300 N   0  0  0  0  0  0  0  0  0  0  0  0
   42.4160   31.1040   36.7830 C   0  0  0  0  0  0  0  0  0  0  0  0
   42.0820   29.8900   37.2580 N   0  0  0  0  0  0  0  0  0  0  0  0
   40.5870   28.7810   38.2800 H   0  0  0  0  0  0  0  0  0  0  0  0
   39.7330   32.9110   37.6480 H   0  0  0  0  0  0  0  0  0  0  0  0
   43.3700   31.2200   36.2820 H   0  0  0  0  0  0  0  0  0  0  0  0
  1  2  1  6  0  0  0
  2  8  1  0  0  0  0
  3  2  1  0  0  0  0
  3 10  1  0  0  0  0
  4 12  1  0  0  0  0
  4  3  1  0  0  0  0
  5  4  1  0  0  0  0
  5  6  1  0  0  0  0
  6 15  1  6  0  0  0
  6  1  1  0  0  0  0
  6 16  1  0  0  0  0
  7  2  1  0  0  0  0
  9  3  1  0  0  0  0
 11  4  1  0  0  0  0
 13  5  1  0  0  0  0
 14  5  1  0  0  0  0
 16 17  2  0  0  0  0
 16 26  1  0  0  0  0
 17 19  1  0  0  0  0
 18 17  1  0  0  0  0
 19 20  2  0  0  0  0
 21 20  1  0  0  0  0
 21 22  1  0  0  0  0
 22 23  2  0  0  0  0
 24 23  1  0  0  0  0
 25 24  2  0  0  0  0
 26 25  1  0  0  0  0
 26 21  2  0  0  0  0
 27 30  1  1  0  0  0
 28 27  1  0  0  0  0
 28 31  1  0  0  0  0
 29 33  1  6  0  0  0
 29 28  1  0  0  0  0
 29  1  1  0  0  0  0
 29 27  1  0  0  0  0
 32 28  1  0  0  0  0
 34 35  1  0  0  0  0
 34 40  1  0  0  0  0
 35 27  1  0  0  0  0
 36 41  1  0  0  0  0
 36 35  2  0  0  0  0
 37 36  1  0  0  0  0
 38 37  2  0  0  0  0
 38 39  1  0  0  0  0
 39 34  2  0  0  0  0
 42 38  1  0  0  0  0
M  END
>  <minimizedAffinity>
-6.16220093

$$$$

 OpenBabel03252506443D

 42 46  0  0  1  0  0  0  0  0999 V2000
   37.7460   28.2800   38.1310 N   0  0  1  0  0  0  0  0  0  0  0  0
   37.7390   27.8650   36.7720 C   0  0  0  0  0  0  0  0  0  0  0  0
   38.2490   26.5040   36.4880 C   0  0  0  0  0  0  0  0  0  0  0  0
   39.6890   26.4000   36.8980 C   0  0  0  0  0  0  0  0  0  0  0  0
   39.9320   27.1980   38.1420 C   0  0  0  0  0  0  0  0  0  0  0  0
   38.7150   27.5230   38.8970 C   0  0  2  0  0  0  0  0  0  0  0  0
   38.3670   28.5730   36.1630 H   0  0  0  0  0  0  0  0  0  0  0  0
   36.7040   28.0060   36.3620 H   0  0  0  0  0  0  0  0  0  0  0  0
   38.2800   26.4430   35.3440 H   0  0  0  0  0  0  0  0  0  0  0  0
   37.6400   25.6500   36.7550 H   0  0  0  0  0  0  0  0  0  0  0  0
   40.3110   26.8750   36.1040 H   0  0  0  0  0  0  0  0  0  0  0  0
   40.0470   25.3510   36.9420 H   0  0  0  0  0  0  0  0  0  0  0  0
   40.6560   26.5940   38.7110 H   0  0  0  0  0  0  0  0  0  0  0  0
   40.4860   28.1610   37.9330 H   0  0  0  0  0  0  0  0  0  0  0  0
   39.0300   28.3610   39.6150 H   0  0  0  0  0  0  0  0  0  0  0  0
   38.1280   26.5160   39.7900 C   0  0  0  0  0  0  0  0  0  0  0  0
   37.9050   25.1750   39.5370 C   0  0  0  0  0  0  0  0  0  0  0  0
   38.1890   24.7980   38.5660 H   0  0  0  0  0  0  0  0  0  0  0  0
   37.3470   24.2690   40.3750 C   0  0  0  0  0  3  0  0  0  0  0  0
   36.9430   24.6710   41.6110 C   0  0  0  0  0  3  0  0  0  0  0  0
   37.1190   25.9920   41.9650 C   0  0  0  0  0  0  0  0  0  0  0  0
   36.6880   26.3390   43.2270 C   0  0  0  0  0  3  0  0  0  0  0  0
   36.8300   27.6410   43.6490 C   0  0  0  0  0  3  0  0  0  0  0  0
   37.3960   28.5710   42.8040 C   0  0  0  0  0  3  0  0  0  0  0  0
   37.8050   28.1540   41.5560 C   0  0  0  0  0  3  0  0  0  0  0  0
   37.6940   26.8700   41.0700 C   0  0  0  0  0  0  0  0  0  0  0  0
   37.0250   30.6220   38.9410 C   0  0  1  0  0  0  0  0  0  0  0  0
   36.8380   30.5020   37.5120 C   0  0  0  0  0  0  0  0  0  0  0  0
   37.9390   29.7040   38.1410 C   0  0  2  0  0  0  0  0  0  0  0  0
   36.4100   30.0610   39.6610 H   0  0  0  0  0  0  0  0  0  0  0  0
   35.9180   29.9600   37.1670 H   0  0  0  0  0  0  0  0  0  0  0  0
   37.0900   31.3420   36.8250 H   0  0  0  0  0  0  0  0  0  0  0  0
   38.9560   30.0620   37.9000 H   0  0  0  0  0  0  0  0  0  0  0  0
   38.6500   31.7100   40.5310 C   0  0  0  0  0  0  0  0  0  0  0  0
   37.6360   31.8380   39.5560 C   0  0  0  0  0  0  0  0  0  0  0  0
   37.2360   33.1130   39.2040 C   0  0  0  0  0  0  0  0  0  0  0  0
   37.8510   34.1610   39.8220 N   0  0  0  0  0  0  0  0  0  0  0  0
   38.8170   34.0140   40.7470 C   0  0  0  0  0  0  0  0  0  0  0  0
   39.2290   32.7860   41.1140 N   0  0  0  0  0  0  0  0  0  0  0  0
   38.9580   30.7030   40.8020 H   0  0  0  0  0  0  0  0  0  0  0  0
   36.4740   33.2710   38.4730 H   0  0  0  0  0  0  0  0  0  0  0  0
   39.2790   34.8760   41.2120 H   0  0  0  0  0  0  0  0  0  0  0  0
  1  2  1  6  0  0  0
  1 29  1  0  0  0  0
  1  6  1  0  0  0  0
  3 10  1  0  0  0  0
  3  2  1  0  0  0  0
  3  4  1  0  0  0  0
  4 12  1  0  0  0  0
  4  5  1  0  0  0  0
  5 13  1  0  0  0  0
  5  6  1  0  0  0  0
  6 15  1  1  0  0  0
  6 16  1  0  0  0  0
  7  2  1  0  0  0  0
  8  2  1  0  0  0  0
  9  3  1  0  0  0  0
 11  4  1  0  0  0  0
 14  5  1  0  0  0  0
 16 26  1  0  0  0  0
 17 16  2  0  0  0  0
 17 19  1  0  0  0  0
 18 17  1  0  0  0  0
 19 20  2  0  0  0  0
 20 21  1  0  0  0  0
 21 22  1  0  0  0  0
 22 23  2  0  0  0  0
 24 23  1  0  0  0  0
 25 24  2  0  0  0  0
 26 25  1  0  0  0  0
 26 21  2  0  0  0  0
 27 35  1  0  0  0  0
 27 30  1  1  0  0  0
 28 29  1  0  0  0  0
 28 27  1  0  0  0  0
 29 33  1  6  0  0  0
 29 27  1  0  0  0  0
 31 28  1  0  0  0  0
 32 28  1  0  0  0  0
 34 40  1  0  0  0  0
 34 39  1  0  0  0  0
 35 34  2  0  0  0  0
 36 35  1  0  0  0  0
 36 37  2  0  0  0  0
 37 38  1  0  0  0  0
 38 39  2  0  0  0  0
 38 42  1  0  0  0  0
 41 36  1  0  0  0  0
M  END
>  <minimizedAffinity>
-5.93821859

$$$$

 OpenBabel03252506443D

 42 46  0  0  1  0  0  0  0  0999 V2000
   36.5410   28.7200   39.8070 N   0  0  1  0  0  0  0  0  0  0  0  0
   35.4890   28.5860   38.8620 C   0  0  0  0  0  0  0  0  0  0  0  0
   35.3960   27.2940   38.1460 C   0  0  0  0  0  0  0  0  0  0  0  0
   36.6420   27.0600   37.3450 C   0  0  0  0  0  0  0  0  0  0  0  0
   37.8370   27.5830   38.0820 C   0  0  0  0  0  0  0  0  0  0  0  0
   37.6150   27.7920   39.5190 C   0  0  2  0  0  0  0  0  0  0  0  0
   35.5950   29.3810   38.0710 H   0  0  0  0  0  0  0  0  0  0  0  0
   34.5200   28.8430   39.3680 H   0  0  0  0  0  0  0  0  0  0  0  0
   34.5840   27.4620   37.3550 H   0  0  0  0  0  0  0  0  0  0  0  0
   35.0310   26.4250   38.6800 H   0  0  0  0  0  0  0  0  0  0  0  0
   36.5730   27.6620   36.4100 H   0  0  0  0  0  0  0  0  0  0  0  0
   36.7360   26.0110   36.9940 H   0  0  0  0  0  0  0  0  0  0  0  0
   38.6310   26.8520   37.8600 H   0  0  0  0  0  0  0  0  0  0  0  0
   38.2250   28.5490   37.6400 H   0  0  0  0  0  0  0  0  0  0  0  0
   38.4870   28.4570   39.8560 H   0  0  0  0  0  0  0  0  0  0  0  0
   37.6890   26.6480   40.4350 C   0  0  0  0  0  0  0  0  0  0  0  0
   36.9500   25.4800   40.4070 C   0  0  0  0  0  0  0  0  0  0  0  0
   36.2170   25.3750   39.6210 H   0  0  0  0  0  0  0  0  0  0  0  0
   37.0270   24.4440   41.2760 C   0  0  0  0  0  3  0  0  0  0  0  0
   37.9120   24.5100   42.3070 C   0  0  0  0  0  3  0  0  0  0  0  0
   38.7010   25.6340   42.4290 C   0  0  0  0  0  0  0  0  0  0  0  0
   39.5750   25.6440   43.4940 C   0  0  0  0  0  3  0  0  0  0  0  0
   40.3930   26.7350   43.6800 C   0  0  0  0  0  3  0  0  0  0  0  0
   40.3220   27.7950   42.8020 C   0  0  0  0  0  3  0  0  0  0  0  0
   39.4250   27.7170   41.7590 C   0  0  0  0  0  3  0  0  0  0  0  0
   38.5780   26.6590   41.5140 C   0  0  0  0  0  0  0  0  0  0  0  0
   37.6120   30.7200   41.0380 C   0  0  1  0  0  0  0  0  0  0  0  0
   36.1990   30.9510   40.8320 C   0  0  0  0  0  0  0  0  0  0  0  0
   36.9210   30.1060   39.8280 C   0  0  2  0  0  0  0  0  0  0  0  0
   37.9850   29.9500   41.7310 H   0  0  0  0  0  0  0  0  0  0  0  0
   35.4960   30.4460   41.5460 H   0  0  0  0  0  0  0  0  0  0  0  0
   35.8170   31.9550   40.5350 H   0  0  0  0  0  0  0  0  0  0  0  0
   37.0650   30.5900   38.8450 H   0  0  0  0  0  0  0  0  0  0  0  0
   38.2250   33.0740   40.3770 C   0  0  0  0  0  0  0  0  0  0  0  0
   38.6300   31.7840   40.7850 C   0  0  0  0  0  0  0  0  0  0  0  0
   39.9830   31.5490   40.9340 C   0  0  0  0  0  0  0  0  0  0  0  0
   40.8350   32.5820   40.6790 N   0  0  0  0  0  0  0  0  0  0  0  0
   40.4250   33.8040   40.2930 C   0  0  0  0  0  0  0  0  0  0  0  0
   39.1140   34.0660   40.1370 N   0  0  0  0  0  0  0  0  0  0  0  0
   37.1580   33.2490   40.2620 H   0  0  0  0  0  0  0  0  0  0  0  0
   40.3470   30.5930   41.2390 H   0  0  0  0  0  0  0  0  0  0  0  0
   41.1380   34.5960   40.1010 H   0  0  0  0  0  0  0  0  0  0  0  0
  1  2  1  6  0  0  0
  1 29  1  0  0  0  0
  2  8  1  0  0  0  0
  3 10  1  0  0  0  0
  3  2  1  0  0  0  0
  4  5  1  0  0  0  0
  4  3  1  0  0  0  0
  5  6  1  0  0  0  0
  6  1  1  0  0  0  0
  6 15  1  1  0  0  0
  6 16  1  0  0  0  0
  7  2  1  0  0  0  0
  9  3  1  0  0  0  0
 11  4  1  0  0  0  0
 12  4  1  0  0  0  0
 13  5  1  0  0  0  0
 14  5  1  0  0  0  0
 16 26  1  0  0  0  0
 17 16  2  0  0  0  0
 17 19  1  0  0  0  0
 18 17  1  0  0  0  0
 19 20  2  0  0  0  0
 20 21  1  0  0  0  0
 21 22  1  0  0  0  0
 22 23  2  0  0  0  0
 24 23  1  0  0  0  0
 25 24  2  0  0  0  0
 26 25  1  0  0  0  0
 26 21  2  0  0  0  0
 27 30  1  1  0  0  0
 28 27  1  0  0  0  0
 28 31  1  0  0  0  0
 29 33  1  6  0  0  0
 29 28  1  0  0  0  0
 29 27  1  0  0  0  0
 32 28  1  0  0  0  0
 34 35  1  0  0  0  0
 35 36  2  0  0  0  0
 35 27  1  0  0  0  0
 36 41  1  0  0  0  0
 37 36  1  0  0  0  0
 38 37  2  0  0  0  0
 39 38  1  0  0  0  0
 39 34  2  0  0  0  0
 40 34  1  0  0  0  0
 42 38  1  0  0  0  0
M  END
>  <minimizedAffinity>
-5.92295933

$$$$

 OpenBabel03252506443D

 42 46  0  0  1  0  0  0  0  0999 V2000
   38.4420   30.7620   38.6740 N   0  0  1  0  0  0  0  0  0  0  0  0
   39.0540   31.9680   38.2390 C   0  0  0  0  0  0  0  0  0  0  0  0
   39.5400   32.8870   39.2930 C   0  0  0  0  0  0  0  0  0  0  0  0
   38.3930   33.3430   40.1460 C   0  0  0  0  0  0  0  0  0  0  0  0
   37.4070   32.2300   40.3240 C   0  0  0  0  0  0  0  0  0  0  0  0
   37.9430   30.8960   40.0270 C   0  0  2  0  0  0  0  0  0  0  0  0
   38.3200   32.5560   37.6190 H   0  0  0  0  0  0  0  0  0  0  0  0
   39.8700   31.7130   37.5130 H   0  0  0  0  0  0  0  0  0  0  0  0
   39.8580   33.8310   38.7260 H   0  0  0  0  0  0  0  0  0  0  0  0
   40.4370   32.6270   39.8410 H   0  0  0  0  0  0  0  0  0  0  0  0
   37.8500   34.1470   39.5980 H   0  0  0  0  0  0  0  0  0  0  0  0
   38.7250   33.8240   41.0900 H   0  0  0  0  0  0  0  0  0  0  0  0
   37.0580   32.3440   41.3630 H   0  0  0  0  0  0  0  0  0  0  0  0
   36.4720   32.3810   39.7060 H   0  0  0  0  0  0  0  0  0  0  0  0
   37.0180   30.2260   39.9160 H   0  0  0  0  0  0  0  0  0  0  0  0
   38.7460   30.1980   41.0400 C   0  0  0  0  0  0  0  0  0  0  0  0
   40.0710   30.4070   41.3740 C   0  0  0  0  0  0  0  0  0  0  0  0
   40.6050   31.1740   40.8340 H   0  0  0  0  0  0  0  0  0  0  0  0
   40.7940   29.7370   42.3030 C   0  0  0  0  0  3  0  0  0  0  0  0
   40.1980   28.7400   43.0120 C   0  0  0  0  0  3  0  0  0  0  0  0
   38.8750   28.4490   42.7570 C   0  0  0  0  0  0  0  0  0  0  0  0
   38.3280   27.4280   43.5040 C   0  0  0  0  0  3  0  0  0  0  0  0
   37.0120   27.0800   43.3020 C   0  0  0  0  0  3  0  0  0  0  0  0
   36.2680   27.7550   42.3590 C   0  0  0  0  0  3  0  0  0  0  0  0
   36.8790   28.7650   41.6480 C   0  0  0  0  0  3  0  0  0  0  0  0
   38.1890   29.1640   41.7980 C   0  0  0  0  0  0  0  0  0  0  0  0
   36.7340   29.0670   37.7420 C   0  0  1  0  0  0  0  0  0  0  0  0
   37.8200   29.2560   36.8060 C   0  0  0  0  0  0  0  0  0  0  0  0
   37.4540   30.4070   37.6920 C   0  0  2  0  0  0  0  0  0  0  0  0
   36.8750   28.5610   38.7090 H   0  0  0  0  0  0  0  0  0  0  0  0
   38.7720   28.7020   37.0190 H   0  0  0  0  0  0  0  0  0  0  0  0
   37.6310   29.3230   35.7100 H   0  0  0  0  0  0  0  0  0  0  0  0
   36.9600   31.2460   37.1690 H   0  0  0  0  0  0  0  0  0  0  0  0
   34.9890   29.0570   35.9230 C   0  0  0  0  0  0  0  0  0  0  0  0
   35.3080   29.0330   37.2980 C   0  0  0  0  0  0  0  0  0  0  0  0
   34.2630   28.9830   38.2010 C   0  0  0  0  0  0  0  0  0  0  0  0
   32.9960   28.9570   37.7010 N   0  0  0  0  0  0  0  0  0  0  0  0
   32.7180   28.9780   36.3840 C   0  0  0  0  0  0  0  0  0  0  0  0
   33.7110   29.0290   35.4780 N   0  0  0  0  0  0  0  0  0  0  0  0
   35.8180   29.0970   35.2190 H   0  0  0  0  0  0  0  0  0  0  0  0
   34.4440   28.9640   39.2540 H   0  0  0  0  0  0  0  0  0  0  0  0
   31.6940   28.9560   36.0300 H   0  0  0  0  0  0  0  0  0  0  0  0
  1  2  1  6  0  0  0
  1  6  1  0  0  0  0
  2  3  1  0  0  0  0
  3 10  1  0  0  0  0
  3  4  1  0  0  0  0
  4  5  1  0  0  0  0
  4 12  1  0  0  0  0
  5 13  1  0  0  0  0
  6 15  1  6  0  0  0
  6  5  1  0  0  0  0
  6 16  1  0  0  0  0
  7  2  1  0  0  0  0
  8  2  1  0  0  0  0
  9  3  1  0  0  0  0
 11  4  1  0  0  0  0
 14  5  1  0  0  0  0
 16 17  2  0  0  0  0
 16 26  1  0  0  0  0
 17 19  1  0  0  0  0
 18 17  1  0  0  0  0
 19 20  2  0  0  0  0
 21 20  1  0  0  0  0
 21 22  1  0  0  0  0
 23 22  2  0  0  0  0
 24 23  1  0  0  0  0
 25 26  1  0  0  0  0
 25 24  2  0  0  0  0
 26 21  2  0  0  0  0
 27 30  1  1  0  0  0
 28 31  1  0  0  0  0
 28 29  1  0  0  0  0
 28 27  1  0  0  0  0
 29 33  1  6  0  0  0
 29 27  1  0  0  0  0
 29  1  1  0  0  0  0
 32 28  1  0  0  0  0
 34 35  1  0  0  0  0
 35 27  1  0  0  0  0
 35 36  2  0  0  0  0
 36 41  1  0  0  0  0
 37 36  1  0  0  0  0
 38 37  2  0  0  0  0
 39 34  2  0  0  0  0
 39 38  1  0  0  0  0
 40 34  1  0  0  0  0
 42 38  1  0  0  0  0
M  END
>  <minimizedAffinity>
-5.92076874

$$$$

 OpenBabel03252506443D

 42 46  0  0  1  0  0  0  0  0999 V2000
   38.5120   30.1970   40.1030 N   0  0  1  0  0  0  0  0  0  0  0  0
   37.6190   31.2760   40.3400 C   0  0  0  0  0  0  0  0  0  0  0  0
   36.3060   30.9370   40.9350 C   0  0  0  0  0  0  0  0  0  0  0  0
   35.5470   30.0270   40.0160 C   0  0  0  0  0  0  0  0  0  0  0  0
   36.4850   29.0780   39.3350 C   0  0  0  0  0  0  0  0  0  0  0  0
   37.7910   28.9460   39.9940 C   0  0  2  0  0  0  0  0  0  0  0  0
   37.4020   31.8020   39.3680 H   0  0  0  0  0  0  0  0  0  0  0  0
   38.1530   32.0540   40.9490 H   0  0  0  0  0  0  0  0  0  0  0  0
   35.7160   31.9190   40.9050 H   0  0  0  0  0  0  0  0  0  0  0  0
   36.2600   30.6650   41.9820 H   0  0  0  0  0  0  0  0  0  0  0  0
   35.0980   30.6470   39.2050 H   0  0  0  0  0  0  0  0  0  0  0  0
   34.6780   29.5450   40.5110 H   0  0  0  0  0  0  0  0  0  0  0  0
   35.9200   28.1340   39.2810 H   0  0  0  0  0  0  0  0  0  0  0  0
   36.6610   29.3520   38.2520 H   0  0  0  0  0  0  0  0  0  0  0  0
   38.4650   28.4480   39.2100 H   0  0  0  0  0  0  0  0  0  0  0  0
   37.9250   28.0660   41.1620 C   0  0  0  0  0  0  0  0  0  0  0  0
   38.4700   28.3620   42.3970 C   0  0  0  0  0  0  0  0  0  0  0  0
   38.8560   29.3590   42.5440 H   0  0  0  0  0  0  0  0  0  0  0  0
   38.5960   27.5250   43.4550 C   0  0  0  0  0  3  0  0  0  0  0  0
   38.1540   26.2430   43.3410 C   0  0  0  0  0  3  0  0  0  0  0  0
   37.5910   25.8430   42.1480 C   0  0  0  0  0  0  0  0  0  0  0  0
   37.1640   24.5340   42.0930 C   0  0  0  0  0  3  0  0  0  0  0  0
   36.5940   24.0630   40.9320 C   0  0  0  0  0  3  0  0  0  0  0  0
   36.4620   24.9060   39.8500 C   0  0  0  0  0  3  0  0  0  0  0  0
   36.9100   26.2030   39.9750 C   0  0  0  0  0  3  0  0  0  0  0  0
   37.4890   26.7390   41.1040 C   0  0  0  0  0  0  0  0  0  0  0  0
   40.8240   30.6230   39.0380 C   0  0  1  0  0  0  0  0  0  0  0  0
   40.0470   31.8420   39.0630 C   0  0  0  0  0  0  0  0  0  0  0  0
   39.3060   30.5450   38.9560 C   0  0  2  0  0  0  0  0  0  0  0  0
   41.2090   30.1550   39.9560 H   0  0  0  0  0  0  0  0  0  0  0  0
   40.0110   32.3970   40.0380 H   0  0  0  0  0  0  0  0  0  0  0  0
   40.0520   32.5470   38.1990 H   0  0  0  0  0  0  0  0  0  0  0  0
   38.8450   30.3640   37.9680 H   0  0  0  0  0  0  0  0  0  0  0  0
   41.6860   28.8460   37.4720 C   0  0  0  0  0  0  0  0  0  0  0  0
   41.6020   30.2090   37.8310 C   0  0  0  0  0  0  0  0  0  0  0  0
   42.2600   31.1270   37.0370 C   0  0  0  0  0  0  0  0  0  0  0  0
   42.9450   30.6540   35.9580 N   0  0  0  0  0  0  0  0  0  0  0  0
   43.0090   29.3490   35.6350 C   0  0  0  0  0  0  0  0  0  0  0  0
   42.3810   28.4280   36.3880 N   0  0  0  0  0  0  0  0  0  0  0  0
   41.1640   28.1290   38.1030 H   0  0  0  0  0  0  0  0  0  0  0  0
   42.2320   32.1710   37.2610 H   0  0  0  0  0  0  0  0  0  0  0  0
   43.5660   29.0170   34.7670 H   0  0  0  0  0  0  0  0  0  0  0  0
  1  2  1  6  0  0  0
  2  3  1  0  0  0  0
  2  8  1  0  0  0  0
  3 10  1  0  0  0  0
  4 12  1  0  0  0  0
  4  3  1  0  0  0  0
  5  6  1  0  0  0  0
  5  4  1  0  0  0  0
  6 15  1  6  0  0  0
  6  1  1  0  0  0  0
  6 16  1  0  0  0  0
  7  2  1  0  0  0  0
  9  3  1  0  0  0  0
 11  4  1  0  0  0  0
 13  5  1  0  0  0  0
 14  5  1  0  0  0  0
 16 17  1  0  0  0  0
 17 18  1  0  0  0  0
 17 19  2  0  0  0  0
 20 19  1  0  0  0  0
 21 20  2  0  0  0  0
 22 21  1  0  0  0  0
 23 22  2  0  0  0  0
 24 25  2  0  0  0  0
 24 23  1  0  0  0  0
 25 26  1  0  0  0  0
 26 16  2  0  0  0  0
 26 21  1  0  0  0  0
 27 28  1  0  0  0  0
 27 30  1  1  0  0  0
 28 31  1  0  0  0  0
 29 33  1  6  0  0  0
 29 27  1  0  0  0  0
 29 28  1  0  0  0  0
 29  1  1  0  0  0  0
 32 28  1  0  0  0  0
 34 35  1  0  0  0  0
 34 40  1  0  0  0  0
 35 27  1  0  0  0  0
 36 41  1  0  0  0  0
 36 35  2  0  0  0  0
 37 36  1  0  0  0  0
 38 37  2  0  0  0  0
 38 39  1  0  0  0  0
 39 34  2  0  0  0  0
 42 38  1  0  0  0  0
M  END
>  <minimizedAffinity>
-5.91451216

$$$$

 OpenBabel03252506443D

 42 46  0  0  1  0  0  0  0  0999 V2000
   37.2650   29.6780   38.9690 N   0  0  1  0  0  0  0  0  0  0  0  0
   38.2200   30.6930   38.6940 C   0  0  0  0  0  0  0  0  0  0  0  0
   38.7660   31.4280   39.8580 C   0  0  0  0  0  0  0  0  0  0  0  0
   37.6620   32.1460   40.5760 C   0  0  0  0  0  0  0  0  0  0  0  0
   36.4100   31.3250   40.5520 C   0  0  0  0  0  0  0  0  0  0  0  0
   36.6260   29.9040   40.2490 C   0  0  2  0  0  0  0  0  0  0  0  0
   37.7580   31.4670   38.0180 H   0  0  0  0  0  0  0  0  0  0  0  0
   39.0410   30.2510   38.0690 H   0  0  0  0  0  0  0  0  0  0  0  0
   39.3920   32.2700   39.3970 H   0  0  0  0  0  0  0  0  0  0  0  0
   39.4780   30.9300   40.5040 H   0  0  0  0  0  0  0  0  0  0  0  0
   37.4270   33.0770   40.0100 H   0  0  0  0  0  0  0  0  0  0  0  0
   37.9650   32.5020   41.5830 H   0  0  0  0  0  0  0  0  0  0  0  0
   35.9550   31.5010   41.5400 H   0  0  0  0  0  0  0  0  0  0  0  0
   35.6450   31.7290   39.8240 H   0  0  0  0  0  0  0  0  0  0  0  0
   35.5870   29.5010   39.9750 H   0  0  0  0  0  0  0  0  0  0  0  0
   37.0690   28.9970   41.3150 C   0  0  0  0  0  0  0  0  0  0  0  0
   37.5900   29.3230   42.5530 C   0  0  0  0  0  0  0  0  0  0  0  0
   37.6970   30.3720   42.7880 H   0  0  0  0  0  0  0  0  0  0  0  0
   38.0070   28.4650   43.5160 C   0  0  0  0  0  3  0  0  0  0  0  0
   37.9250   27.1260   43.2880 C   0  0  0  0  0  3  0  0  0  0  0  0
   37.4190   26.6920   42.0810 C   0  0  0  0  0  0  0  0  0  0  0  0
   37.3640   25.3260   41.9080 C   0  0  0  0  0  3  0  0  0  0  0  0
   36.8720   24.8190   40.7270 C   0  0  0  0  0  3  0  0  0  0  0  0
   36.4460   25.6830   39.7420 C   0  0  0  0  0  3  0  0  0  0  0  0
   36.5290   27.0370   39.9830 C   0  0  0  0  0  3  0  0  0  0  0  0
   37.0100   27.6120   41.1390 C   0  0  0  0  0  0  0  0  0  0  0  0
   36.3730   28.4250   36.8970 C   0  0  1  0  0  0  0  0  0  0  0  0
   37.0340   29.6490   36.5010 C   0  0  0  0  0  0  0  0  0  0  0  0
   36.3720   29.6160   37.8440 C   0  0  2  0  0  0  0  0  0  0  0  0
   36.9260   27.5700   37.3140 H   0  0  0  0  0  0  0  0  0  0  0  0
   38.1560   29.6260   36.4600 H   0  0  0  0  0  0  0  0  0  0  0  0
   36.6160   30.2960   35.6960 H   0  0  0  0  0  0  0  0  0  0  0  0
   35.4540   30.2270   37.9140 H   0  0  0  0  0  0  0  0  0  0  0  0
   34.2790   27.0230   36.9420 C   0  0  0  0  0  0  0  0  0  0  0  0
   35.0640   28.0110   36.3080 C   0  0  0  0  0  0  0  0  0  0  0  0
   34.5820   28.5660   35.1380 C   0  0  0  0  0  0  0  0  0  0  0  0
   33.3780   28.1220   34.6780 N   0  0  0  0  0  0  0  0  0  0  0  0
   32.6470   27.1810   35.3020 C   0  0  0  0  0  0  0  0  0  0  0  0
   33.0880   26.6180   36.4420 N   0  0  0  0  0  0  0  0  0  0  0  0
   34.6670   26.5920   37.8620 H   0  0  0  0  0  0  0  0  0  0  0  0
   35.1330   29.3170   34.6150 H   0  0  0  0  0  0  0  0  0  0  0  0
   31.6950   26.8580   34.9000 H   0  0  0  0  0  0  0  0  0  0  0  0
  1  2  1  6  0  0  0
  1  6  1  0  0  0  0
  2  3  1  0  0  0  0
  3 10  1  0  0  0  0
  3  4  1  0  0  0  0
  4 12  1  0  0  0  0
  5  4  1  0  0  0  0
  5 13  1  0  0  0  0
  6 15  1  6  0  0  0
  6  5  1  0  0  0  0
  6 16  1  0  0  0  0
  7  2  1  0  0  0  0
  8  2  1  0  0  0  0
  9  3  1  0  0  0  0
 11  4  1  0  0  0  0
 14  5  1  0  0  0  0
 16 17  1  0  0  0  0
 17 18  1  0  0  0  0
 17 19  2  0  0  0  0
 20 19  1  0  0  0  0
 21 20  2  0  0  0  0
 22 21  1  0  0  0  0
 23 22  2  0  0  0  0
 24 25  2  0  0  0  0
 24 23  1  0  0  0  0
 25 26  1  0  0  0  0
 26 16  2  0  0  0  0
 26 21  1  0  0  0  0
 27 30  1  1  0  0  0
 27 29  1  0  0  0  0
 28 27  1  0  0  0  0
 28 29  1  0  0  0  0
 29 33  1  1  0  0  0
 29  1  1  0  0  0  0
 31 28  1  0  0  0  0
 32 28  1  0  0  0  0
 34 40  1  0  0  0  0
 35 27  1  0  0  0  0
 35 34  2  0  0  0  0
 36 35  1  0  0  0  0
 37 36  2  0  0  0  0
 37 38  1  0  0  0  0
 38 39  2  0  0  0  0
 39 34  1  0  0  0  0
 41 36  1  0  0  0  0
 42 38  1  0  0  0  0
M  END
>  <minimizedAffinity>
-5.9099803

$$$$

 OpenBabel03252506443D

 42 46  0  0  1  0  0  0  0  0999 V2000
   36.9000   29.4650   38.9160 N   0  0  1  0  0  0  0  0  0  0  0  0
   35.6330   29.8440   38.3990 C   0  0  0  0  0  0  0  0  0  0  0  0
   34.5350   28.8600   38.5380 C   0  0  0  0  0  0  0  0  0  0  0  0
   34.8750   27.6020   37.7960 C   0  0  0  0  0  0  0  0  0  0  0  0
   36.3420   27.3180   37.9050 C   0  0  0  0  0  0  0  0  0  0  0  0
   37.0130   28.0240   39.0030 C   0  0  2  0  0  0  0  0  0  0  0  0
   35.7290   30.0580   37.2970 H   0  0  0  0  0  0  0  0  0  0  0  0
   35.3490   30.8360   38.8400 H   0  0  0  0  0  0  0  0  0  0  0  0
   33.6680   29.3120   37.9390 H   0  0  0  0  0  0  0  0  0  0  0  0
   34.0930   28.7040   39.5140 H   0  0  0  0  0  0  0  0  0  0  0  0
   34.6780   27.7740   36.7120 H   0  0  0  0  0  0  0  0  0  0  0  0
   34.2160   26.7520   38.0670 H   0  0  0  0  0  0  0  0  0  0  0  0
   36.3970   26.2200   37.9870 H   0  0  0  0  0  0  0  0  0  0  0  0
   36.8960   27.5470   36.9460 H   0  0  0  0  0  0  0  0  0  0  0  0
   38.1320   27.9430   38.7640 H   0  0  0  0  0  0  0  0  0  0  0  0
   36.9200   27.4910   40.3680 C   0  0  0  0  0  0  0  0  0  0  0  0
   36.5610   28.1580   41.5240 C   0  0  0  0  0  0  0  0  0  0  0  0
   36.3160   29.2050   41.4380 H   0  0  0  0  0  0  0  0  0  0  0  0
   36.4990   27.6450   42.7770 C   0  0  0  0  0  3  0  0  0  0  0  0
   36.8140   26.3360   42.9720 C   0  0  0  0  0  3  0  0  0  0  0  0
   37.1870   25.5780   41.8830 C   0  0  0  0  0  0  0  0  0  0  0  0
   37.4970   24.2610   42.1440 C   0  0  0  0  0  3  0  0  0  0  0  0
   37.8800   23.4430   41.1050 C   0  0  0  0  0  3  0  0  0  0  0  0
   37.9470   23.9550   39.8280 C   0  0  0  0  0  3  0  0  0  0  0  0
   37.6230   25.2810   39.6390 C   0  0  0  0  0  3  0  0  0  0  0  0
   37.2330   26.1540   40.6310 C   0  0  0  0  0  0  0  0  0  0  0  0
   38.8390   31.1540   38.6900 C   0  0  1  0  0  0  0  0  0  0  0  0
   37.7050   31.5770   37.8980 C   0  0  0  0  0  0  0  0  0  0  0  0
   37.9010   30.1070   38.1080 C   0  0  2  0  0  0  0  0  0  0  0  0
   38.8170   31.1570   39.7910 H   0  0  0  0  0  0  0  0  0  0  0  0
   36.8680   32.0860   38.4460 H   0  0  0  0  0  0  0  0  0  0  0  0
   37.8430   32.0120   36.8810 H   0  0  0  0  0  0  0  0  0  0  0  0
   38.2280   29.5580   37.2060 H   0  0  0  0  0  0  0  0  0  0  0  0
   41.1580   30.1880   38.4890 C   0  0  0  0  0  0  0  0  0  0  0  0
   40.2340   31.2030   38.1590 C   0  0  0  0  0  0  0  0  0  0  0  0
   40.6680   32.2290   37.3410 C   0  0  0  0  0  0  0  0  0  0  0  0
   41.9590   32.1880   36.9070 N   0  0  0  0  0  0  0  0  0  0  0  0
   42.8200   31.2070   37.2340 C   0  0  0  0  0  0  0  0  0  0  0  0
   42.4310   30.1940   38.0300 N   0  0  0  0  0  0  0  0  0  0  0  0
   40.8080   29.3850   39.1340 H   0  0  0  0  0  0  0  0  0  0  0  0
   40.0130   33.0240   37.0580 H   0  0  0  0  0  0  0  0  0  0  0  0
   43.8390   31.2150   36.8660 H   0  0  0  0  0  0  0  0  0  0  0  0
  1  2  1  6  0  0  0
  1  6  1  0  0  0  0
  2  3  1  0  0  0  0
  2  8  1  0  0  0  0
  3 10  1  0  0  0  0
  4  5  1  0  0  0  0
  4 12  1  0  0  0  0
  4  3  1  0  0  0  0
  5 13  1  0  0  0  0
  5  6  1  0  0  0  0
  6 15  1  6  0  0  0
  6 16  1  0  0  0  0
  7  2  1  0  0  0  0
  9  3  1  0  0  0  0
 11  4  1  0  0  0  0
 14  5  1  0  0  0  0
 16 26  2  0  0  0  0
 16 17  1  0  0  0  0
 17 19  2  0  0  0  0
 18 17  1  0  0  0  0
 19 20  1  0  0  0  0
 21 22  1  0  0  0  0
 21 20  2  0  0  0  0
 23 22  2  0  0  0  0
 24 23  1  0  0  0  0
 25 24  2  0  0  0  0
 25 26  1  0  0  0  0
 26 21  1  0  0  0  0
 27 30  1  1  0  0  0
 28 29  1  0  0  0  0
 28 31  1  0  0  0  0
 28 27  1  0  0  0  0
 29 33  1  6  0  0  0
 29 27  1  0  0  0  0
 29  1  1  0  0  0  0
 32 28  1  0  0  0  0
 34 40  1  0  0  0  0
 35 34  1  0  0  0  0
 35 27  1  0  0  0  0
 36 35  2  0  0  0  0
 37 38  2  0  0  0  0
 37 36  1  0  0  0  0
 38 39  1  0  0  0  0
 39 34  2  0  0  0  0
 41 36  1  0  0  0  0
 42 38  1  0  0  0  0
M  END
>  <minimizedAffinity>
-5.90078211

$$$$

 OpenBabel03252506443D

 42 46  0  0  1  0  0  0  0  0999 V2000
   34.6050   28.8200   35.9240 N   0  0  1  0  0  0  0  0  0  0  0  0
   34.9330   27.8740   34.9170 C   0  0  0  0  0  0  0  0  0  0  0  0
   33.8080   27.3290   34.1220 C   0  0  0  0  0  0  0  0  0  0  0  0
   32.8540   26.5960   35.0180 C   0  0  0  0  0  0  0  0  0  0  0  0
   32.7530   27.2890   36.3430 C   0  0  0  0  0  0  0  0  0  0  0  0
   33.2220   28.6800   36.3330 C   0  0  2  0  0  0  0  0  0  0  0  0
   35.4460   26.9890   35.3880 H   0  0  0  0  0  0  0  0  0  0  0  0
   35.7220   28.3180   34.2540 H   0  0  0  0  0  0  0  0  0  0  0  0
   34.2820   26.5030   33.4840 H   0  0  0  0  0  0  0  0  0  0  0  0
   33.3370   27.9610   33.3800 H   0  0  0  0  0  0  0  0  0  0  0  0
   33.2820   25.5890   35.2330 H   0  0  0  0  0  0  0  0  0  0  0  0
   31.8800   26.3860   34.5290 H   0  0  0  0  0  0  0  0  0  0  0  0
   31.6920   27.1830   36.6200 H   0  0  0  0  0  0  0  0  0  0  0  0
   33.3040   26.7350   37.1600 H   0  0  0  0  0  0  0  0  0  0  0  0
   33.3610   28.9510   37.4390 H   0  0  0  0  0  0  0  0  0  0  0  0
   32.3340   29.7390   35.8360 C   0  0  0  0  0  0  0  0  0  0  0  0
   32.3630   30.3720   34.6070 C   0  0  0  0  0  0  0  0  0  0  0  0
   33.1280   30.0680   33.9090 H   0  0  0  0  0  0  0  0  0  0  0  0
   31.5400   31.3590   34.1780 C   0  0  0  0  0  3  0  0  0  0  0  0
   30.5620   31.8130   35.0090 C   0  0  0  0  0  3  0  0  0  0  0  0
   30.4460   31.2480   36.2610 C   0  0  0  0  0  0  0  0  0  0  0  0
   29.4400   31.7510   37.0570 C   0  0  0  0  0  3  0  0  0  0  0  0
   29.2650   31.2360   38.3220 C   0  0  0  0  0  3  0  0  0  0  0  0
   30.0970   30.2330   38.7680 C   0  0  0  0  0  3  0  0  0  0  0  0
   31.0820   29.7770   37.9180 C   0  0  0  0  0  3  0  0  0  0  0  0
   31.3130   30.2460   36.6440 C   0  0  0  0  0  0  0  0  0  0  0  0
   35.8190   29.7830   37.9880 C   0  0  1  0  0  0  0  0  0  0  0  0
   36.7510   29.5890   36.8980 C   0  0  0  0  0  0  0  0  0  0  0  0
   35.5700   28.6710   36.9790 C   0  0  2  0  0  0  0  0  0  0  0  0
   35.0310   30.5510   37.9550 H   0  0  0  0  0  0  0  0  0  0  0  0
   36.7600   30.3750   36.0970 H   0  0  0  0  0  0  0  0  0  0  0  0
   37.7740   29.1880   37.0800 H   0  0  0  0  0  0  0  0  0  0  0  0
   35.8180   27.6350   37.2730 H   0  0  0  0  0  0  0  0  0  0  0  0
   36.5480   30.3560   40.3320 C   0  0  0  0  0  0  0  0  0  0  0  0
   36.1510   29.3830   39.3880 C   0  0  0  0  0  0  0  0  0  0  0  0
   36.0870   28.0680   39.8060 C   0  0  0  0  0  0  0  0  0  0  0  0
   36.4100   27.8000   41.1030 N   0  0  0  0  0  0  0  0  0  0  0  0
   36.7830   28.7460   41.9840 C   0  0  0  0  0  0  0  0  0  0  0  0
   36.8580   30.0370   41.6100 N   0  0  0  0  0  0  0  0  0  0  0  0
   36.5960   31.3890   39.9940 H   0  0  0  0  0  0  0  0  0  0  0  0
   35.7930   27.2890   39.1360 H   0  0  0  0  0  0  0  0  0  0  0  0
   37.0310   28.4880   43.0070 H   0  0  0  0  0  0  0  0  0  0  0  0
  1  2  1  6  0  0  0
  1  6  1  0  0  0  0
  1 29  1  0  0  0  0
  2  7  1  0  0  0  0
  3  2  1  0  0  0  0
  3  4  1  0  0  0  0
  4 11  1  0  0  0  0
  4  5  1  0  0  0  0
  5 13  1  0  0  0  0
  5 14  1  0  0  0  0
  6  5  1  0  0  0  0
  6 15  1  1  0  0  0
  8  2  1  0  0  0  0
  9  3  1  0  0  0  0
 10  3  1  0  0  0  0
 12  4  1  0  0  0  0
 16  6  1  0  0  0  0
 16 26  1  0  0  0  0
 17 16  2  0  0  0  0
 18 17  1  0  0  0  0
 19 17  1  0  0  0  0
 19 20  2  0  0  0  0
 20 21  1  0  0  0  0
 21 26  2  0  0  0  0
 21 22  1  0  0  0  0
 22 23  2  0  0  0  0
 23 24  1  0  0  0  0
 25 24  2  0  0  0  0
 26 25  1  0  0  0  0
 27 30  1  6  0  0  0
 27 35  1  0  0  0  0
 28 29  1  0  0  0  0
 28 32  1  0  0  0  0
 28 27  1  0  0  0  0
 29 33  1  1  0  0  0
 29 27  1  0  0  0  0
 31 28  1  0  0  0  0
 34 39  1  0  0  0  0
 35 36  1  0  0  0  0
 35 34  2  0  0  0  0
 36 37  2  0  0  0  0
 37 38  1  0  0  0  0
 38 42  1  0  0  0  0
 39 38  2  0  0  0  0
 40 34  1  0  0  0  0
 41 36  1  0  0  0  0
M  END
>  <minimizedAffinity>
-5.81438589

$$$$
