
 OpenBabel03242514423D

 34 37  0  0  1  0  0  0  0  0999 V2000
   39.3580   31.8780   40.6820 N   0  0  0  0  0  0  0  0  0  0  0  0
   39.6410   33.2390   40.2290 C   0  0  0  0  0  0  0  0  0  0  0  0
   38.4670   34.1610   40.4420 C   0  0  0  0  0  0  0  0  0  0  0  0
   37.2540   33.6690   39.8920 N   0  0  0  0  0  0  0  0  0  0  0  0
   37.0470   32.2800   39.9670 C   0  0  0  0  0  0  0  0  0  0  0  0
   37.9820   31.4790   40.8180 C   0  0  1  0  0  0  0  0  0  0  0  0
   40.4630   33.6190   40.8750 H   0  0  0  0  0  0  0  0  0  0  0  0
   39.9740   33.2300   39.1680 H   0  0  0  0  0  0  0  0  0  0  0  0
   38.7410   35.1400   40.0440 H   0  0  0  0  0  0  0  0  0  0  0  0
   38.3340   34.2720   41.5440 H   0  0  0  0  0  0  0  0  0  0  0  0
   36.4460   34.1910   40.2530 H   0  0  0  0  0  0  0  0  0  0  0  0
   36.0080   32.0340   40.2940 H   0  0  0  0  0  0  0  0  0  0  0  0
   37.1170   31.8560   38.9300 H   0  0  0  0  0  0  0  0  0  0  0  0
   37.6900   31.7980   41.8400 H   0  0  0  0  0  0  0  0  0  0  0  0
   37.7030   30.0690   40.4890 C   0  0  0  0  0  0  0  0  0  0  0  0
   37.6330   29.7160   39.1680 C   0  0  0  0  0  0  0  0  0  0  0  0
   37.7620   30.3630   38.3150 H   0  0  0  0  0  0  0  0  0  0  0  0
   37.3610   28.4330   38.7460 C   0  0  0  0  0  3  0  0  0  0  0  0
   37.1400   27.4140   39.6690 C   0  0  0  0  0  3  0  0  0  0  0  0
   37.2010   27.7300   41.0090 C   0  0  0  0  0  0  0  0  0  0  0  0
   36.9900   26.7690   41.9720 C   0  0  0  0  0  3  0  0  0  0  0  0
   37.0410   27.0460   43.3240 C   0  0  0  0  0  3  0  0  0  0  0  0
   37.3230   28.3690   43.6790 C   0  0  0  0  0  3  0  0  0  0  0  0
   37.5290   29.3070   42.7030 C   0  0  0  0  0  3  0  0  0  0  0  0
   37.4770   29.0330   41.3590 C   0  0  0  0  0  0  0  0  0  0  0  0
   41.8950   29.7860   42.4530 C   0  0  0  0  0  0  0  0  0  0  0  0
   40.8250   30.6710   42.2720 C   0  0  0  0  0  0  0  0  0  0  0  0
   40.4130   30.9980   40.9870 C   0  0  0  0  0  0  0  0  0  0  0  0
   41.0970   30.4170   39.9710 N   0  0  0  0  0  0  0  0  0  0  0  0
   42.1320   29.5600   40.1450 C   0  0  0  0  0  0  0  0  0  0  0  0
   42.5280   29.2470   41.3970 N   0  0  0  0  0  0  0  0  0  0  0  0
   42.2110   29.5370   43.4620 H   0  0  0  0  0  0  0  0  0  0  0  0
   40.3420   31.0720   43.1180 H   0  0  0  0  0  0  0  0  0  0  0  0
   42.5550   29.1970   39.2180 H   0  0  0  0  0  0  0  0  0  0  0  0
  1  6  1  0  0  0  0
  1 28  1  0  0  0  0
  2  3  1  0  0  0  0
  2  1  1  0  0  0  0
  2  7  1  0  0  0  0
  3 10  1  0  0  0  0
  4  5  1  0  0  0  0
  4 11  1  0  0  0  0
  4  3  1  0  0  0  0
  5 12  1  0  0  0  0
  5  6  1  0  0  0  0
  6 14  1  1  0  0  0
  8  2  1  0  0  0  0
  9  3  1  0  0  0  0
 13  5  1  0  0  0  0
 15  6  1  0  0  0  0
 15 25  1  0  0  0  0
 16 15  2  0  0  0  0
 17 16  1  0  0  0  0
 18 16  1  0  0  0  0
 18 19  2  0  0  0  0
 19 20  1  0  0  0  0
 20 25  2  0  0  0  0
 20 21  1  0  0  0  0
 21 22  2  0  0  0  0
 22 23  1  0  0  0  0
 24 23  2  0  0  0  0
 25 24  1  0  0  0  0
 26 32  1  0  0  0  0
 27 26  1  0  0  0  0
 27 33  1  0  0  0  0
 28 27  2  0  0  0  0
 29 30  2  0  0  0  0
 29 28  1  0  0  0  0
 30 31  1  0  0  0  0
 31 26  2  0  0  0  0
 34 30  1  0  0  0  0
M  END
>  <minimizedAffinity>
-5.74440479

$$$$

 OpenBabel03242514423D

 34 37  0  0  1  0  0  0  0  0999 V2000
   39.0470   30.9030   41.0010 N   0  0  0  0  0  0  0  0  0  0  0  0
   39.1080   31.9990   40.0360 C   0  0  0  0  0  0  0  0  0  0  0  0
   37.9940   32.9940   40.2410 C   0  0  0  0  0  0  0  0  0  0  0  0
   36.7050   32.4010   40.2790 N   0  0  0  0  0  0  0  0  0  0  0  0
   36.6090   31.1400   40.8950 C   0  0  0  0  0  0  0  0  0  0  0  0
   37.7960   30.6470   41.6630 C   0  0  1  0  0  0  0  0  0  0  0  0
   40.0580   32.5420   40.2370 H   0  0  0  0  0  0  0  0  0  0  0  0
   39.1200   31.5990   38.9980 H   0  0  0  0  0  0  0  0  0  0  0  0
   38.0830   33.7550   39.4630 H   0  0  0  0  0  0  0  0  0  0  0  0
   38.1790   33.4950   41.2210 H   0  0  0  0  0  0  0  0  0  0  0  0
   36.0060   33.0570   40.6510 H   0  0  0  0  0  0  0  0  0  0  0  0
   35.7250   31.0790   41.5750 H   0  0  0  0  0  0  0  0  0  0  0  0
   36.4010   30.3740   40.1020 H   0  0  0  0  0  0  0  0  0  0  0  0
   37.7940   31.3210   42.5440 H   0  0  0  0  0  0  0  0  0  0  0  0
   37.5170   29.2280   41.9480 C   0  0  0  0  0  0  0  0  0  0  0  0
   37.5200   28.8200   43.2550 C   0  0  0  0  0  0  0  0  0  0  0  0
   37.7070   29.4280   44.1260 H   0  0  0  0  0  0  0  0  0  0  0  0
   37.2910   27.5150   43.6370 C   0  0  0  0  0  3  0  0  0  0  0  0
   37.0380   26.5310   42.6830 C   0  0  0  0  0  3  0  0  0  0  0  0
   37.0270   26.9030   41.3570 C   0  0  0  0  0  0  0  0  0  0  0  0
   36.7860   25.9780   40.3650 C   0  0  0  0  0  3  0  0  0  0  0  0
   36.7670   26.3110   39.0260 C   0  0  0  0  0  3  0  0  0  0  0  0
   37.0080   27.6530   38.7130 C   0  0  0  0  0  3  0  0  0  0  0  0
   37.2460   28.5540   39.7150 C   0  0  0  0  0  3  0  0  0  0  0  0
   37.2650   28.2250   41.0480 C   0  0  0  0  0  0  0  0  0  0  0  0
   42.0160   29.3370   42.6400 C   0  0  0  0  0  0  0  0  0  0  0  0
   40.8790   30.1380   42.4850 C   0  0  0  0  0  0  0  0  0  0  0  0
   40.1960   30.1360   41.2760 C   0  0  0  0  0  0  0  0  0  0  0  0
   40.6950   29.3310   40.3060 N   0  0  0  0  0  0  0  0  0  0  0  0
   41.7950   28.5550   40.4550 C   0  0  0  0  0  0  0  0  0  0  0  0
   42.4550   28.5630   41.6330 N   0  0  0  0  0  0  0  0  0  0  0  0
   42.5450   29.3450   43.5890 H   0  0  0  0  0  0  0  0  0  0  0  0
   40.5520   30.7290   43.2940 H   0  0  0  0  0  0  0  0  0  0  0  0
   42.0440   27.9800   39.5730 H   0  0  0  0  0  0  0  0  0  0  0  0
  1 28  1  0  0  0  0
  1  6  1  0  0  0  0
  2  7  1  0  0  0  0
  2  3  1  0  0  0  0
  2  1  1  0  0  0  0
  3  4  1  0  0  0  0
  3 10  1  0  0  0  0
  4 11  1  0  0  0  0
  4  5  1  0  0  0  0
  5 12  1  0  0  0  0
  5  6  1  0  0  0  0
  6 15  1  0  0  0  0
  6 14  1  1  0  0  0
  8  2  1  0  0  0  0
  9  3  1  0  0  0  0
 13  5  1  0  0  0  0
 15 16  1  0  0  0  0
 16 18  2  0  0  0  0
 16 17  1  0  0  0  0
 19 18  1  0  0  0  0
 20 19  2  0  0  0  0
 21 20  1  0  0  0  0
 22 21  2  0  0  0  0
 23 22  1  0  0  0  0
 23 24  2  0  0  0  0
 24 25  1  0  0  0  0
 25 20  1  0  0  0  0
 25 15  2  0  0  0  0
 26 32  1  0  0  0  0
 27 26  1  0  0  0  0
 27 33  1  0  0  0  0
 28 27  2  0  0  0  0
 29 30  2  0  0  0  0
 29 28  1  0  0  0  0
 30 31  1  0  0  0  0
 31 26  2  0  0  0  0
 34 30  1  0  0  0  0
M  END
>  <minimizedAffinity>
-5.74405003

$$$$

 OpenBabel03242514423D

 34 37  0  0  1  0  0  0  0  0999 V2000
   37.9990   29.6580   39.7710 N   0  0  0  0  0  0  0  0  0  0  0  0
   37.3310   30.8690   39.2980 C   0  0  0  0  0  0  0  0  0  0  0  0
   36.6550   31.6160   40.4190 C   0  0  0  0  0  0  0  0  0  0  0  0
   35.7840   30.8060   41.1950 N   0  0  0  0  0  0  0  0  0  0  0  0
   36.1860   29.4760   41.4120 C   0  0  0  0  0  0  0  0  0  0  0  0
   37.5830   29.0980   41.0300 C   0  0  1  0  0  0  0  0  0  0  0  0
   38.1300   31.5370   38.9090 H   0  0  0  0  0  0  0  0  0  0  0  0
   36.6200   30.6220   38.4780 H   0  0  0  0  0  0  0  0  0  0  0  0
   36.1480   32.4790   39.9830 H   0  0  0  0  0  0  0  0  0  0  0  0
   37.4610   32.0030   41.0870 H   0  0  0  0  0  0  0  0  0  0  0  0
   35.5300   31.2730   42.0750 H   0  0  0  0  0  0  0  0  0  0  0  0
   36.0390   29.1690   42.4760 H   0  0  0  0  0  0  0  0  0  0  0  0
   35.5030   28.8010   40.8320 H   0  0  0  0  0  0  0  0  0  0  0  0
   38.1820   29.6360   41.7940 H   0  0  0  0  0  0  0  0  0  0  0  0
   37.6280   27.6270   41.1070 C   0  0  0  0  0  0  0  0  0  0  0  0
   36.7810   26.9130   40.3030 C   0  0  0  0  0  0  0  0  0  0  0  0
   36.0660   27.3080   39.5990 H   0  0  0  0  0  0  0  0  0  0  0  0
   36.7240   25.5360   40.3050 C   0  0  0  0  0  3  0  0  0  0  0  0
   37.5470   24.7930   41.1480 C   0  0  0  0  0  3  0  0  0  0  0  0
   38.4130   25.4770   41.9740 C   0  0  0  0  0  0  0  0  0  0  0  0
   39.2520   24.8010   42.8330 C   0  0  0  0  0  3  0  0  0  0  0  0
   40.1320   25.4490   43.6760 C   0  0  0  0  0  3  0  0  0  0  0  0
   40.1360   26.8470   43.6190 C   0  0  0  0  0  3  0  0  0  0  0  0
   39.2920   27.4960   42.7580 C   0  0  0  0  0  3  0  0  0  0  0  0
   38.4160   26.8530   41.9190 C   0  0  0  0  0  0  0  0  0  0  0  0
   41.2880   28.3450   38.5840 C   0  0  0  0  0  0  0  0  0  0  0  0
   40.3460   28.9390   39.4320 C   0  0  0  0  0  0  0  0  0  0  0  0
   39.0300   29.0740   39.0100 C   0  0  0  0  0  0  0  0  0  0  0  0
   38.7460   28.6040   37.7710 N   0  0  0  0  0  0  0  0  0  0  0  0
   39.6560   28.0300   36.9490 C   0  0  0  0  0  0  0  0  0  0  0  0
   40.9350   27.9030   37.3660 N   0  0  0  0  0  0  0  0  0  0  0  0
   42.3160   28.2450   38.9220 H   0  0  0  0  0  0  0  0  0  0  0  0
   40.6490   29.2700   40.3860 H   0  0  0  0  0  0  0  0  0  0  0  0
   39.2470   27.7160   35.9980 H   0  0  0  0  0  0  0  0  0  0  0  0
  1  6  1  0  0  0  0
  2  1  1  0  0  0  0
  2  3  1  0  0  0  0
  3 10  1  0  0  0  0
  3  4  1  0  0  0  0
  4  5  1  0  0  0  0
  4 11  1  0  0  0  0
  5 12  1  0  0  0  0
  6 15  1  0  0  0  0
  6  5  1  0  0  0  0
  6 14  1  1  0  0  0
  7  2  1  0  0  0  0
  8  2  1  0  0  0  0
  9  3  1  0  0  0  0
 13  5  1  0  0  0  0
 15 25  1  0  0  0  0
 16 18  1  0  0  0  0
 16 15  2  0  0  0  0
 17 16  1  0  0  0  0
 18 19  2  0  0  0  0
 19 20  1  0  0  0  0
 20 21  1  0  0  0  0
 21 22  2  0  0  0  0
 23 22  1  0  0  0  0
 24 23  2  0  0  0  0
 25 20  2  0  0  0  0
 25 24  1  0  0  0  0
 26 32  1  0  0  0  0
 26 27  1  0  0  0  0
 27 33  1  0  0  0  0
 28 27  2  0  0  0  0
 28  1  1  0  0  0  0
 29 28  1  0  0  0  0
 30 31  1  0  0  0  0
 30 29  2  0  0  0  0
 31 26  2  0  0  0  0
 34 30  1  0  0  0  0
M  END
>  <minimizedAffinity>
-5.6944685

$$$$

 OpenBabel03242514423D

 34 37  0  0  1  0  0  0  0  0999 V2000
   39.6760   31.4890   39.3480 N   0  0  0  0  0  0  0  0  0  0  0  0
   40.2460   32.6530   38.6710 C   0  0  0  0  0  0  0  0  0  0  0  0
   40.1270   33.9040   39.5030 C   0  0  0  0  0  0  0  0  0  0  0  0
   38.8060   34.1590   39.9580 N   0  0  0  0  0  0  0  0  0  0  0  0
   38.0330   33.0370   40.3070 C   0  0  0  0  0  0  0  0  0  0  0  0
   38.7270   31.7140   40.4070 C   0  0  1  0  0  0  0  0  0  0  0  0
   41.3340   32.4490   38.5600 H   0  0  0  0  0  0  0  0  0  0  0  0
   39.7860   32.7790   37.6660 H   0  0  0  0  0  0  0  0  0  0  0  0
   40.5350   34.7300   38.9170 H   0  0  0  0  0  0  0  0  0  0  0  0
   40.7850   33.7680   40.3940 H   0  0  0  0  0  0  0  0  0  0  0  0
   38.8010   34.8670   40.7020 H   0  0  0  0  0  0  0  0  0  0  0  0
   37.4840   33.1960   41.2660 H   0  0  0  0  0  0  0  0  0  0  0  0
   37.2220   32.9150   39.5420 H   0  0  0  0  0  0  0  0  0  0  0  0
   39.3440   31.8480   41.3200 H   0  0  0  0  0  0  0  0  0  0  0  0
   37.6510   30.7120   40.5070 C   0  0  0  0  0  0  0  0  0  0  0  0
   36.6240   30.7760   39.6050 C   0  0  0  0  0  0  0  0  0  0  0  0
   36.5040   31.4900   38.8050 H   0  0  0  0  0  0  0  0  0  0  0  0
   35.5570   29.9030   39.6160 C   0  0  0  0  0  3  0  0  0  0  0  0
   35.4780   28.8920   40.5720 C   0  0  0  0  0  3  0  0  0  0  0  0
   36.4930   28.7970   41.4990 C   0  0  0  0  0  0  0  0  0  0  0  0
   36.4730   27.8210   42.4710 C   0  0  0  0  0  3  0  0  0  0  0  0
   37.4690   27.6930   43.4170 C   0  0  0  0  0  3  0  0  0  0  0  0
   38.5210   28.6140   43.3440 C   0  0  0  0  0  3  0  0  0  0  0  0
   38.5180   29.5740   42.3690 C   0  0  0  0  0  3  0  0  0  0  0  0
   37.5280   29.7030   41.4280 C   0  0  0  0  0  0  0  0  0  0  0  0
   41.2560   28.1070   39.2160 C   0  0  0  0  0  0  0  0  0  0  0  0
   40.9360   29.3840   39.6930 C   0  0  0  0  0  0  0  0  0  0  0  0
   40.0640   30.1890   38.9720 C   0  0  0  0  0  0  0  0  0  0  0  0
   39.5710   29.6620   37.8250 N   0  0  0  0  0  0  0  0  0  0  0  0
   39.8780   28.4270   37.3620 C   0  0  0  0  0  0  0  0  0  0  0  0
   40.7280   27.6500   38.0680 N   0  0  0  0  0  0  0  0  0  0  0  0
   41.9390   27.4850   39.7860 H   0  0  0  0  0  0  0  0  0  0  0  0
   41.3590   29.7140   40.6000 H   0  0  0  0  0  0  0  0  0  0  0  0
   39.3890   28.1780   36.4300 H   0  0  0  0  0  0  0  0  0  0  0  0
  1  6  1  0  0  0  0
  2  1  1  0  0  0  0
  2  3  1  0  0  0  0
  3  4  1  0  0  0  0
  3 10  1  0  0  0  0
  4  5  1  0  0  0  0
  4 11  1  0  0  0  0
  5  6  1  0  0  0  0
  5 12  1  0  0  0  0
  6 15  1  0  0  0  0
  6 14  1  1  0  0  0
  7  2  1  0  0  0  0
  8  2  1  0  0  0  0
  9  3  1  0  0  0  0
 13  5  1  0  0  0  0
 15 25  1  0  0  0  0
 16 18  1  0  0  0  0
 16 15  2  0  0  0  0
 17 16  1  0  0  0  0
 18 19  2  0  0  0  0
 19 20  1  0  0  0  0
 20 21  1  0  0  0  0
 21 22  2  0  0  0  0
 23 22  1  0  0  0  0
 24 23  2  0  0  0  0
 25 20  2  0  0  0  0
 25 24  1  0  0  0  0
 26 27  1  0  0  0  0
 26 32  1  0  0  0  0
 27 33  1  0  0  0  0
 28  1  1  0  0  0  0
 28 27  2  0  0  0  0
 29 28  1  0  0  0  0
 30 29  2  0  0  0  0
 30 31  1  0  0  0  0
 31 26  2  0  0  0  0
 34 30  1  0  0  0  0
M  END
>  <minimizedAffinity>
-5.69393778

$$$$

 OpenBabel03242514423D

 34 37  0  0  1  0  0  0  0  0999 V2000
   38.4080   29.3940   40.2430 N   0  0  0  0  0  0  0  0  0  0  0  0
   37.3640   30.0550   39.4610 C   0  0  0  0  0  0  0  0  0  0  0  0
   36.4670   30.9060   40.3230 C   0  0  0  0  0  0  0  0  0  0  0  0
   35.9260   30.2110   41.4370 N   0  0  0  0  0  0  0  0  0  0  0  0
   36.7620   29.2650   42.0560 C   0  0  0  0  0  0  0  0  0  0  0  0
   38.2060   29.2440   41.6600 C   0  0  1  0  0  0  0  0  0  0  0  0
   37.8850   30.7490   38.7650 H   0  0  0  0  0  0  0  0  0  0  0  0
   36.7870   29.3050   38.8770 H   0  0  0  0  0  0  0  0  0  0  0  0
   35.6950   31.3300   39.6780 H   0  0  0  0  0  0  0  0  0  0  0  0
   37.0860   31.7520   40.7050 H   0  0  0  0  0  0  0  0  0  0  0  0
   35.5220   30.8640   42.1200 H   0  0  0  0  0  0  0  0  0  0  0  0
   36.7250   29.3480   43.1690 H   0  0  0  0  0  0  0  0  0  0  0  0
   36.3580   28.2410   41.8410 H   0  0  0  0  0  0  0  0  0  0  0  0
   38.5780   30.1910   42.1040 H   0  0  0  0  0  0  0  0  0  0  0  0
   38.7560   28.0080   42.2440 C   0  0  0  0  0  0  0  0  0  0  0  0
   39.8270   28.1150   43.0900 C   0  0  0  0  0  0  0  0  0  0  0  0
   40.3310   29.0210   43.3900 H   0  0  0  0  0  0  0  0  0  0  0  0
   40.4330   27.0260   43.6780 C   0  0  0  0  0  3  0  0  0  0  0  0
   39.9680   25.7360   43.4300 C   0  0  0  0  0  3  0  0  0  0  0  0
   38.8920   25.5870   42.5830 C   0  0  0  0  0  0  0  0  0  0  0  0
   38.3860   24.3390   42.2950 C   0  0  0  0  0  3  0  0  0  0  0  0
   37.3110   24.1480   41.4510 C   0  0  0  0  0  3  0  0  0  0  0  0
   36.7460   25.2990   40.8900 C   0  0  0  0  0  3  0  0  0  0  0  0
   37.2670   26.5290   41.1910 C   0  0  0  0  0  3  0  0  0  0  0  0
   38.3360   26.7200   42.0300 C   0  0  0  0  0  0  0  0  0  0  0  0
   40.8690   27.4820   38.1840 C   0  0  0  0  0  0  0  0  0  0  0  0
   39.6420   27.8520   38.7460 C   0  0  0  0  0  0  0  0  0  0  0  0
   39.5810   28.9340   39.6140 C   0  0  0  0  0  0  0  0  0  0  0  0
   40.7510   29.5730   39.8590 N   0  0  0  0  0  0  0  0  0  0  0  0
   41.9390   29.2170   39.3160 C   0  0  0  0  0  0  0  0  0  0  0  0
   41.9910   28.1630   38.4740 N   0  0  0  0  0  0  0  0  0  0  0  0
   40.9070   26.6330   37.5070 H   0  0  0  0  0  0  0  0  0  0  0  0
   38.7760   27.3050   38.4950 H   0  0  0  0  0  0  0  0  0  0  0  0
   42.7650   29.8420   39.6280 H   0  0  0  0  0  0  0  0  0  0  0  0
  1  6  1  0  0  0  0
  2  1  1  0  0  0  0
  2  3  1  0  0  0  0
  3 10  1  0  0  0  0
  3  4  1  0  0  0  0
  4  5  1  0  0  0  0
  4 11  1  0  0  0  0
  5 12  1  0  0  0  0
  6  5  1  0  0  0  0
  6 14  1  1  0  0  0
  6 15  1  0  0  0  0
  7  2  1  0  0  0  0
  8  2  1  0  0  0  0
  9  3  1  0  0  0  0
 13  5  1  0  0  0  0
 15 16  1  0  0  0  0
 16 17  1  0  0  0  0
 16 18  2  0  0  0  0
 19 18  1  0  0  0  0
 20 19  2  0  0  0  0
 21 20  1  0  0  0  0
 22 21  2  0  0  0  0
 23 24  2  0  0  0  0
 23 22  1  0  0  0  0
 24 25  1  0  0  0  0
 25 15  2  0  0  0  0
 25 20  1  0  0  0  0
 26 31  2  0  0  0  0
 26 27  1  0  0  0  0
 27 28  2  0  0  0  0
 28 29  1  0  0  0  0
 28  1  1  0  0  0  0
 30 34  1  0  0  0  0
 30 29  2  0  0  0  0
 31 30  1  0  0  0  0
 32 26  1  0  0  0  0
 33 27  1  0  0  0  0
M  END
>  <minimizedAffinity>
-5.57453442

$$$$

 OpenBabel03242514423D

 34 37  0  0  1  0  0  0  0  0999 V2000
   38.0750   29.1880   40.6860 N   0  0  0  0  0  0  0  0  0  0  0  0
   37.8670   30.5400   40.1690 C   0  0  0  0  0  0  0  0  0  0  0  0
   36.7320   31.2430   40.8680 C   0  0  0  0  0  0  0  0  0  0  0  0
   35.5240   30.4950   40.8800 N   0  0  0  0  0  0  0  0  0  0  0  0
   35.6480   29.1020   41.0220 C   0  0  0  0  0  0  0  0  0  0  0  0
   36.9920   28.5530   41.3890 C   0  0  1  0  0  0  0  0  0  0  0  0
   38.7900   31.1130   40.4100 H   0  0  0  0  0  0  0  0  0  0  0  0
   37.7210   30.5130   39.0670 H   0  0  0  0  0  0  0  0  0  0  0  0
   36.6140   32.2230   40.4020 H   0  0  0  0  0  0  0  0  0  0  0  0
   37.0510   31.4110   41.9240 H   0  0  0  0  0  0  0  0  0  0  0  0
   34.8540   30.8860   41.5550 H   0  0  0  0  0  0  0  0  0  0  0  0
   34.9120   28.6950   41.7560 H   0  0  0  0  0  0  0  0  0  0  0  0
   35.3620   28.6210   40.0490 H   0  0  0  0  0  0  0  0  0  0  0  0
   37.0960   28.8900   42.4410 H   0  0  0  0  0  0  0  0  0  0  0  0
   36.8880   27.0960   41.1950 C   0  0  0  0  0  0  0  0  0  0  0  0
   37.1670   26.2820   42.2600 C   0  0  0  0  0  0  0  0  0  0  0  0
   37.4610   26.5870   43.2520 H   0  0  0  0  0  0  0  0  0  0  0  0
   37.1190   24.9060   42.1880 C   0  0  0  0  0  3  0  0  0  0  0  0
   36.7770   24.2700   40.9980 C   0  0  0  0  0  3  0  0  0  0  0  0
   36.4900   25.0550   39.9030 C   0  0  0  0  0  0  0  0  0  0  0  0
   36.1460   24.4870   38.6960 C   0  0  0  0  0  3  0  0  0  0  0  0
   35.8530   25.2400   37.5760 C   0  0  0  0  0  3  0  0  0  0  0  0
   35.9210   26.6290   37.7230 C   0  0  0  0  0  3  0  0  0  0  0  0
   36.2650   27.1700   38.9320 C   0  0  0  0  0  3  0  0  0  0  0  0
   36.5570   26.4240   40.0470 C   0  0  0  0  0  0  0  0  0  0  0  0
   41.0440   27.4470   39.2330 C   0  0  0  0  0  0  0  0  0  0  0  0
   39.7970   28.0810   39.2890 C   0  0  0  0  0  0  0  0  0  0  0  0
   39.3140   28.5430   40.5060 C   0  0  0  0  0  0  0  0  0  0  0  0
   40.1110   28.3410   41.5840 N   0  0  0  0  0  0  0  0  0  0  0  0
   41.3180   27.7280   41.5310 C   0  0  0  0  0  0  0  0  0  0  0  0
   41.7810   27.2810   40.3440 N   0  0  0  0  0  0  0  0  0  0  0  0
   41.4130   27.0880   38.2770 H   0  0  0  0  0  0  0  0  0  0  0  0
   39.2430   28.2060   38.4000 H   0  0  0  0  0  0  0  0  0  0  0  0
   41.8110   27.6560   42.4910 H   0  0  0  0  0  0  0  0  0  0  0  0
  1  6  1  0  0  0  0
  2  7  1  0  0  0  0
  2  1  1  0  0  0  0
  2  3  1  0  0  0  0
  3  4  1  0  0  0  0
  3 10  1  0  0  0  0
  4  5  1  0  0  0  0
  4 11  1  0  0  0  0
  5  6  1  0  0  0  0
  5 12  1  0  0  0  0
  6 14  1  1  0  0  0
  8  2  1  0  0  0  0
  9  3  1  0  0  0  0
 13  5  1  0  0  0  0
 15  6  1  0  0  0  0
 15 16  1  0  0  0  0
 16 17  1  0  0  0  0
 18 16  2  0  0  0  0
 19 18  1  0  0  0  0
 20 25  1  0  0  0  0
 20 19  2  0  0  0  0
 21 20  1  0  0  0  0
 22 23  1  0  0  0  0
 22 21  2  0  0  0  0
 23 24  2  0  0  0  0
 24 25  1  0  0  0  0
 25 15  2  0  0  0  0
 26 27  2  0  0  0  0
 26 31  1  0  0  0  0
 27 28  1  0  0  0  0
 28  1  1  0  0  0  0
 28 29  2  0  0  0  0
 30 29  1  0  0  0  0
 30 34  1  0  0  0  0
 31 30  2  0  0  0  0
 32 26  1  0  0  0  0
 33 27  1  0  0  0  0
M  END
>  <minimizedAffinity>
-5.54453087

$$$$

 OpenBabel03242514423D

 34 37  0  0  1  0  0  0  0  0999 V2000
   38.2180   30.1570   39.2890 N   0  0  0  0  0  0  0  0  0  0  0  0
   37.5910   31.1260   38.3930 C   0  0  0  0  0  0  0  0  0  0  0  0
   37.3100   32.4360   39.0850 C   0  0  0  0  0  0  0  0  0  0  0  0
   36.5790   32.2910   40.2950 N   0  0  0  0  0  0  0  0  0  0  0  0
   36.8740   31.1600   41.0770 C   0  0  0  0  0  0  0  0  0  0  0  0
   38.0770   30.3500   40.7080 C   0  0  1  0  0  0  0  0  0  0  0  0
   38.3350   31.3440   37.5960 H   0  0  0  0  0  0  0  0  0  0  0  0
   36.6730   30.6940   37.9380 H   0  0  0  0  0  0  0  0  0  0  0  0
   36.8080   33.0880   38.3670 H   0  0  0  0  0  0  0  0  0  0  0  0
   38.2970   32.8980   39.3250 H   0  0  0  0  0  0  0  0  0  0  0  0
   36.6110   33.1550   40.8520 H   0  0  0  0  0  0  0  0  0  0  0  0
   36.9680   31.4200   42.1590 H   0  0  0  0  0  0  0  0  0  0  0  0
   35.9950   30.4640   41.0350 H   0  0  0  0  0  0  0  0  0  0  0  0
   38.9060   31.0320   40.9880 H   0  0  0  0  0  0  0  0  0  0  0  0
   37.9760   29.1120   41.5010 C   0  0  0  0  0  0  0  0  0  0  0  0
   36.7640   28.4770   41.5550 C   0  0  0  0  0  0  0  0  0  0  0  0
   35.8480   28.7810   41.0720 H   0  0  0  0  0  0  0  0  0  0  0  0
   36.5500   27.3240   42.2800 C   0  0  0  0  0  3  0  0  0  0  0  0
   37.5850   26.7420   43.0080 C   0  0  0  0  0  3  0  0  0  0  0  0
   38.8190   27.3530   42.9800 C   0  0  0  0  0  0  0  0  0  0  0  0
   39.8830   26.8280   43.6800 C   0  0  0  0  0  3  0  0  0  0  0  0
   41.1350   27.4100   43.6780 C   0  0  0  0  0  3  0  0  0  0  0  0
   41.2790   28.5770   42.9200 C   0  0  0  0  0  3  0  0  0  0  0  0
   40.2070   29.0800   42.2330 C   0  0  0  0  0  3  0  0  0  0  0  0
   38.9610   28.5020   42.2340 C   0  0  0  0  0  0  0  0  0  0  0  0
   39.2230   26.8850   37.7910 C   0  0  0  0  0  0  0  0  0  0  0  0
   38.3910   27.8970   38.2870 C   0  0  0  0  0  0  0  0  0  0  0  0
   38.9510   29.0760   38.7620 C   0  0  0  0  0  0  0  0  0  0  0  0
   40.3020   29.1630   38.7080 N   0  0  0  0  0  0  0  0  0  0  0  0
   41.1080   28.1850   38.2290 C   0  0  0  0  0  0  0  0  0  0  0  0
   40.5570   27.0420   37.7690 N   0  0  0  0  0  0  0  0  0  0  0  0
   38.7760   25.9660   37.4220 H   0  0  0  0  0  0  0  0  0  0  0  0
   37.3470   27.7510   38.2850 H   0  0  0  0  0  0  0  0  0  0  0  0
   42.1600   28.4330   38.2650 H   0  0  0  0  0  0  0  0  0  0  0  0
  1  6  1  0  0  0  0
  2  3  1  0  0  0  0
  2  1  1  0  0  0  0
  3 10  1  0  0  0  0
  3  4  1  0  0  0  0
  4 11  1  0  0  0  0
  4  5  1  0  0  0  0
  5 12  1  0  0  0  0
  6 14  1  1  0  0  0
  6  5  1  0  0  0  0
  6 15  1  0  0  0  0
  7  2  1  0  0  0  0
  8  2  1  0  0  0  0
  9  3  1  0  0  0  0
 13  5  1  0  0  0  0
 15 16  2  0  0  0  0
 15 25  1  0  0  0  0
 16 18  1  0  0  0  0
 17 16  1  0  0  0  0
 18 19  2  0  0  0  0
 20 19  1  0  0  0  0
 20 21  1  0  0  0  0
 22 21  2  0  0  0  0
 23 22  1  0  0  0  0
 24 25  1  0  0  0  0
 24 23  2  0  0  0  0
 25 20  2  0  0  0  0
 26 27  1  0  0  0  0
 27 28  2  0  0  0  0
 28  1  1  0  0  0  0
 29 28  1  0  0  0  0
 30 34  1  0  0  0  0
 30 29  2  0  0  0  0
 31 26  2  0  0  0  0
 31 30  1  0  0  0  0
 32 26  1  0  0  0  0
 33 27  1  0  0  0  0
M  END
>  <minimizedAffinity>
-5.52455997

$$$$

 OpenBabel03242514423D

 34 37  0  0  1  0  0  0  0  0999 V2000
   37.6740   31.1380   40.2040 N   0  0  0  0  0  0  0  0  0  0  0  0
   37.5390   32.5930   40.1520 C   0  0  0  0  0  0  0  0  0  0  0  0
   38.8650   33.2900   40.3290 C   0  0  0  0  0  0  0  0  0  0  0  0
   39.5740   32.8710   41.4850 N   0  0  0  0  0  0  0  0  0  0  0  0
   39.4730   31.5110   41.8290 C   0  0  0  0  0  0  0  0  0  0  0  0
   38.8440   30.5850   40.8350 C   0  0  1  0  0  0  0  0  0  0  0  0
   37.1880   32.8390   39.1260 H   0  0  0  0  0  0  0  0  0  0  0  0
   36.7880   32.9370   40.8960 H   0  0  0  0  0  0  0  0  0  0  0  0
   38.6760   34.3650   40.3190 H   0  0  0  0  0  0  0  0  0  0  0  0
   39.4830   33.0500   39.4320 H   0  0  0  0  0  0  0  0  0  0  0  0
   40.5540   33.1790   41.4500 H   0  0  0  0  0  0  0  0  0  0  0  0
   40.4650   31.0790   42.1020 H   0  0  0  0  0  0  0  0  0  0  0  0
   38.8670   31.4280   42.7690 H   0  0  0  0  0  0  0  0  0  0  0  0
   39.6120   30.5520   40.0350 H   0  0  0  0  0  0  0  0  0  0  0  0
   38.6250   29.3200   41.5590 C   0  0  0  0  0  0  0  0  0  0  0  0
   38.0520   29.3780   42.8010 C   0  0  0  0  0  0  0  0  0  0  0  0
   37.7310   30.2630   43.3280 H   0  0  0  0  0  0  0  0  0  0  0  0
   37.8180   28.2620   43.5750 C   0  0  0  0  0  3  0  0  0  0  0  0
   38.1640   26.9940   43.1130 C   0  0  0  0  0  3  0  0  0  0  0  0
   38.7440   26.8950   41.8680 C   0  0  0  0  0  0  0  0  0  0  0  0
   39.1110   25.6700   41.3550 C   0  0  0  0  0  3  0  0  0  0  0  0
   39.6950   25.5290   40.1120 C   0  0  0  0  0  3  0  0  0  0  0  0
   39.9020   26.7050   39.3830 C   0  0  0  0  0  3  0  0  0  0  0  0
   39.5290   27.9100   39.9140 C   0  0  0  0  0  3  0  0  0  0  0  0
   38.9480   28.0520   41.1490 C   0  0  0  0  0  0  0  0  0  0  0  0
   35.6840   28.9910   37.8840 C   0  0  0  0  0  0  0  0  0  0  0  0
   36.7320   29.7970   38.3460 C   0  0  0  0  0  0  0  0  0  0  0  0
   36.6860   30.3140   39.6340 C   0  0  0  0  0  0  0  0  0  0  0  0
   35.5960   29.9890   40.3720 N   0  0  0  0  0  0  0  0  0  0  0  0
   34.5820   29.2100   39.9280 C   0  0  0  0  0  0  0  0  0  0  0  0
   34.6330   28.7110   38.6740 N   0  0  0  0  0  0  0  0  0  0  0  0
   35.7280   28.5910   36.8750 H   0  0  0  0  0  0  0  0  0  0  0  0
   37.5480   29.9930   37.7080 H   0  0  0  0  0  0  0  0  0  0  0  0
   33.7970   29.0590   40.6570 H   0  0  0  0  0  0  0  0  0  0  0  0
  1  6  1  0  0  0  0
  2  1  1  0  0  0  0
  2  3  1  0  0  0  0
  2  8  1  0  0  0  0
  3  4  1  0  0  0  0
  4  5  1  0  0  0  0
  5 12  1  0  0  0  0
  5 13  1  0  0  0  0
  6 14  1  6  0  0  0
  6 15  1  0  0  0  0
  6  5  1  0  0  0  0
  7  2  1  0  0  0  0
  9  3  1  0  0  0  0
 10  3  1  0  0  0  0
 11  4  1  0  0  0  0
 15 16  1  0  0  0  0
 16 17  1  0  0  0  0
 16 18  2  0  0  0  0
 19 18  1  0  0  0  0
 20 19  2  0  0  0  0
 21 20  1  0  0  0  0
 22 21  2  0  0  0  0
 23 24  2  0  0  0  0
 23 22  1  0  0  0  0
 24 25  1  0  0  0  0
 25 15  2  0  0  0  0
 25 20  1  0  0  0  0
 26 27  2  0  0  0  0
 26 31  1  0  0  0  0
 27 28  1  0  0  0  0
 28  1  1  0  0  0  0
 28 29  2  0  0  0  0
 30 29  1  0  0  0  0
 30 34  1  0  0  0  0
 31 30  2  0  0  0  0
 32 26  1  0  0  0  0
 33 27  1  0  0  0  0
M  END
>  <minimizedAffinity>
-5.5240345

$$$$

 OpenBabel03242514423D

 34 37  0  0  1  0  0  0  0  0999 V2000
   38.1450   30.4890   40.5050 N   0  0  0  0  0  0  0  0  0  0  0  0
   38.3940   31.9290   40.4830 C   0  0  0  0  0  0  0  0  0  0  0  0
   39.7590   32.2750   41.0220 C   0  0  0  0  0  0  0  0  0  0  0  0
   40.0190   31.7180   42.3020 N   0  0  0  0  0  0  0  0  0  0  0  0
   39.4980   30.4350   42.5490 C   0  0  0  0  0  0  0  0  0  0  0  0
   38.9360   29.6750   41.3890 C   0  0  1  0  0  0  0  0  0  0  0  0
   38.3910   32.2320   39.4130 H   0  0  0  0  0  0  0  0  0  0  0  0
   37.5860   32.4690   41.0250 H   0  0  0  0  0  0  0  0  0  0  0  0
   39.8530   33.3620   41.0110 H   0  0  0  0  0  0  0  0  0  0  0  0
   40.5070   31.8660   40.3020 H   0  0  0  0  0  0  0  0  0  0  0  0
   41.0200   31.7690   42.5310 H   0  0  0  0  0  0  0  0  0  0  0  0
   40.2460   29.7740   43.0480 H   0  0  0  0  0  0  0  0  0  0  0  0
   38.6690   30.5300   43.3000 H   0  0  0  0  0  0  0  0  0  0  0  0
   39.8510   29.4310   40.8110 H   0  0  0  0  0  0  0  0  0  0  0  0
   38.2310   28.5230   41.9780 C   0  0  0  0  0  0  0  0  0  0  0  0
   37.3970   28.7510   43.0400 C   0  0  0  0  0  0  0  0  0  0  0  0
   37.1870   29.6990   43.5100 H   0  0  0  0  0  0  0  0  0  0  0  0
   36.7010   27.7470   43.6800 C   0  0  0  0  0  3  0  0  0  0  0  0
   36.8210   26.4240   43.2620 C   0  0  0  0  0  3  0  0  0  0  0  0
   37.6530   26.1540   42.1970 C   0  0  0  0  0  0  0  0  0  0  0  0
   37.8160   24.8660   41.7370 C   0  0  0  0  0  3  0  0  0  0  0  0
   38.6400   24.5540   40.6740 C   0  0  0  0  0  3  0  0  0  0  0  0
   39.3140   25.6230   40.0730 C   0  0  0  0  0  3  0  0  0  0  0  0
   39.1350   26.8940   40.5480 C   0  0  0  0  0  3  0  0  0  0  0  0
   38.3160   27.2060   41.6050 C   0  0  0  0  0  0  0  0  0  0  0  0
   34.9260   29.2600   39.0620 C   0  0  0  0  0  0  0  0  0  0  0  0
   35.8110   29.8490   39.9730 C   0  0  0  0  0  0  0  0  0  0  0  0
   37.1630   29.9270   39.6670 C   0  0  0  0  0  0  0  0  0  0  0  0
   37.5380   29.4120   38.4700 N   0  0  0  0  0  0  0  0  0  0  0  0
   36.6830   28.8420   37.5870 C   0  0  0  0  0  0  0  0  0  0  0  0
   35.3700   28.7690   37.8920 N   0  0  0  0  0  0  0  0  0  0  0  0
   33.8700   29.2030   39.3100 H   0  0  0  0  0  0  0  0  0  0  0  0
   35.4340   30.2330   40.8800 H   0  0  0  0  0  0  0  0  0  0  0  0
   37.1630   28.4870   36.6850 H   0  0  0  0  0  0  0  0  0  0  0  0
  1  6  1  0  0  0  0
  2  1  1  0  0  0  0
  2  3  1  0  0  0  0
  2  8  1  0  0  0  0
  3  4  1  0  0  0  0
  4 11  1  0  0  0  0
  4  5  1  0  0  0  0
  5 12  1  0  0  0  0
  5 13  1  0  0  0  0
  6 14  1  6  0  0  0
  6 15  1  0  0  0  0
  6  5  1  0  0  0  0
  7  2  1  0  0  0  0
  9  3  1  0  0  0  0
 10  3  1  0  0  0  0
 15 16  1  0  0  0  0
 16 17  1  0  0  0  0
 16 18  2  0  0  0  0
 19 18  1  0  0  0  0
 20 19  2  0  0  0  0
 21 20  1  0  0  0  0
 22 21  2  0  0  0  0
 23 24  2  0  0  0  0
 23 22  1  0  0  0  0
 24 25  1  0  0  0  0
 25 15  2  0  0  0  0
 25 20  1  0  0  0  0
 26 32  1  0  0  0  0
 26 27  1  0  0  0  0
 27 33  1  0  0  0  0
 28 27  2  0  0  0  0
 28  1  1  0  0  0  0
 29 28  1  0  0  0  0
 30 31  1  0  0  0  0
 30 29  2  0  0  0  0
 31 26  2  0  0  0  0
 34 30  1  0  0  0  0
M  END
>  <minimizedAffinity>
-5.50737715

$$$$
