
 OpenBabel03252506383D

 46 50  0  0  1  0  0  0  0  0999 V2000
   44.5000   35.5670   45.0970 C   0  0  0  0  0  0  0  0  0  0  0  0
   45.1340   35.5390   43.8470 C   0  0  0  0  0  0  0  0  0  0  0  0
   46.0330   34.5630   43.5820 C   0  0  0  0  0  0  0  0  0  0  0  0
   46.2690   33.6560   44.5630 N   0  0  0  0  0  0  0  0  0  0  0  0
   45.6680   33.6860   45.7420 C   0  0  0  0  0  0  0  0  0  0  0  0
   44.7780   34.6350   46.0310 N   0  0  0  0  0  0  0  0  0  0  0  0
   45.9960   32.6740   46.7100 N   0  0  0  0  0  0  0  0  0  0  0  0
   45.2710   32.4450   47.9090 C   0  0  0  0  0  0  0  0  0  0  0  0
   46.3600   32.0870   48.9060 C   0  0  0  0  0  0  0  0  0  0  0  0
   47.6250   31.9580   48.1160 C   0  0  0  0  0  0  0  0  0  0  0  0
   47.1010   31.7450   46.6970 C   0  0  1  0  0  0  0  0  0  0  0  0
   43.7690   36.3220   45.3730 H   0  0  0  0  0  0  0  0  0  0  0  0
   46.5220   34.5270   42.6390 H   0  0  0  0  0  0  0  0  0  0  0  0
   44.9390   33.4730   48.2680 H   0  0  0  0  0  0  0  0  0  0  0  0
   44.4270   31.8390   48.0030 H   0  0  0  0  0  0  0  0  0  0  0  0
   46.4100   32.7270   49.7830 H   0  0  0  0  0  0  0  0  0  0  0  0
   46.1080   31.0620   49.2900 H   0  0  0  0  0  0  0  0  0  0  0  0
   48.2550   31.1070   48.4430 H   0  0  0  0  0  0  0  0  0  0  0  0
   48.1680   32.9270   48.1350 H   0  0  0  0  0  0  0  0  0  0  0  0
   47.9000   32.0150   45.9830 H   0  0  0  0  0  0  0  0  0  0  0  0
   44.7730   36.5750   42.9170 N   0  0  0  0  0  0  0  0  0  0  0  0
   43.9580   36.1720   42.4090 H   0  0  0  0  0  0  0  0  0  0  0  0
   45.2780   37.4900   42.8450 H   0  0  0  0  0  0  0  0  0  0  0  0
   46.5580   30.0600   46.5310 S   0  0  0  0  0  0  0  0  0  0  0  0
   45.9080   29.8830   43.2640 O   0  0  0  0  0  0  0  0  0  0  0  0
   45.1270   29.6640   44.2030 C   0  0  0  0  0  0  0  0  0  0  0  0
   45.0610   29.7900   45.6790 C   0  0  1  0  0  0  0  0  0  0  0  0
   44.3110   28.5380   46.0650 C   0  0  0  0  0  0  0  0  0  0  0  0
   43.1140   28.7170   45.1240 C   0  0  0  0  0  0  0  0  0  0  0  0
   43.8300   29.1080   43.9160 N   0  0  0  0  0  0  0  0  0  0  0  0
   44.2480   30.5630   45.7680 H   0  0  0  0  0  0  0  0  0  0  0  0
   43.9490   28.6020   47.1050 H   0  0  0  0  0  0  0  0  0  0  0  0
   44.8410   27.6150   45.8250 H   0  0  0  0  0  0  0  0  0  0  0  0
   42.4210   29.4770   45.4960 H   0  0  0  0  0  0  0  0  0  0  0  0
   42.6510   27.7130   45.0100 H   0  0  0  0  0  0  0  0  0  0  0  0
   43.1640   28.8920   42.6570 C   0  0  0  0  0  0  0  0  0  0  0  0
   43.2040   27.5650   42.2400 C   0  0  0  0  0  0  0  0  0  0  0  0
   43.6770   26.7590   42.7810 H   0  0  0  0  0  0  0  0  0  0  0  0
   42.6120   27.1590   41.0430 C   0  0  0  0  0  3  0  0  0  0  0  0
   41.9830   28.1430   40.2930 C   0  0  0  0  0  3  0  0  0  0  0  0
   41.9460   29.4500   40.7070 C   0  0  0  0  0  0  0  0  0  0  0  0
   41.3270   30.4560   39.9820 C   0  0  0  0  0  3  0  0  0  0  0  0
   41.3160   31.7410   40.4360 C   0  0  0  0  0  3  0  0  0  0  0  0
   41.9180   32.1170   41.6390 C   0  0  0  0  0  3  0  0  0  0  0  0
   42.5490   31.1270   42.3910 C   0  0  0  0  0  3  0  0  0  0  0  0
   42.5390   29.8540   41.9050 C   0  0  0  0  0  0  0  0  0  0  0  0
  1 12  1  0  0  0  0
  1  6  1  0  0  0  0
  2  1  2  0  0  0  0
  3  2  1  0  0  0  0
  3  4  2  0  0  0  0
  4  5  1  0  0  0  0
  5  6  2  0  0  0  0
  5  7  1  0  0  0  0
  7  8  1  0  0  0  0
  8 15  1  0  0  0  0
  8 14  1  0  0  0  0
  8  9  1  0  0  0  0
  9 17  1  0  0  0  0
  9 16  1  0  0  0  0
 10 19  1  0  0  0  0
 10 18  1  0  0  0  0
 10  9  1  0  0  0  0
 11 20  1  6  0  0  0
 11  7  1  0  0  0  0
 11 10  1  0  0  0  0
 13  3  1  0  0  0  0
 21  2  1  0  0  0  0
 22 21  1  0  0  0  0
 23 21  1  0  0  0  0
 24 11  1  0  0  0  0
 25 26  2  0  0  0  0
 26 27  1  0  0  0  0
 27 31  1  1  0  0  0
 27 28  1  0  0  0  0
 27 24  1  0  0  0  0
 28 32  1  0  0  0  0
 29 34  1  0  0  0  0
 29 28  1  0  0  0  0
 30 26  1  0  0  0  0
 30 29  1  0  0  0  0
 33 28  1  0  0  0  0
 35 29  1  0  0  0  0
 36 30  1  0  0  0  0
 37 36  1  0  0  0  0
 37 38  1  0  0  0  0
 39 37  2  0  0  0  0
 40 41  2  0  0  0  0
 40 39  1  0  0  0  0
 41 46  1  0  0  0  0
 42 43  2  0  0  0  0
 42 41  1  0  0  0  0
 43 44  1  0  0  0  0
 44 45  2  0  0  0  0
 46 45  1  0  0  0  0
 46 36  2  0  0  0  0
M  END
>  <minimizedAffinity>
-5.68848658

>  <minimizedRMSD>
1.13221157

$$$$
