
 OpenBabel03252509213D

 27 30  0  0  0  0  0  0  0  0999 V2000
   44.6120   36.0140   45.5440 C   0  0  0  0  0  0  0  0  0  0  0  0
   45.1650   36.4550   44.3400 C   0  0  0  0  0  0  0  0  0  0  0  0
   45.7190   35.3650   43.6680 C   0  0  0  0  0  0  0  0  0  0  0  0
   45.6840   34.0700   44.1830 N   0  0  0  0  0  0  0  0  0  0  0  0
   45.1200   33.7730   45.3530 C   0  0  0  0  0  0  0  0  0  0  0  0
   44.5710   34.7820   46.0470 N   0  0  0  0  0  0  0  0  0  0  0  0
   44.1370   36.7780   46.1850 H   0  0  0  0  0  0  0  0  0  0  0  0
   45.2130   32.7200   45.5390 H   0  0  0  0  0  0  0  0  0  0  0  0
   45.1710   37.7870   43.8620 C   0  0  0  0  0  0  0  0  0  0  0  0
   45.3040   38.1390   42.5330 C   0  0  0  0  0  0  0  0  0  0  0  0
   45.4130   37.3200   41.8090 H   0  0  0  0  0  0  0  0  0  0  0  0
   45.3150   39.4230   42.0330 C   0  0  0  0  0  3  0  0  0  0  0  0
   45.1740   40.4190   42.9990 C   0  0  0  0  0  3  0  0  0  0  0  0
   45.0330   40.1580   44.3630 C   0  0  0  0  0  0  0  0  0  0  0  0
   44.8990   41.2080   45.2480 C   0  0  0  0  0  3  0  0  0  0  0  0
   44.7590   40.9380   46.6100 C   0  0  0  0  0  3  0  0  0  0  0  0
   44.7630   39.6140   46.9910 C   0  0  0  0  0  3  0  0  0  0  0  0
   44.8950   38.5520   46.1280 C   0  0  0  0  0  3  0  0  0  0  0  0
   45.0330   38.8390   44.7800 C   0  0  0  0  0  0  0  0  0  0  0  0
   46.2920   35.5920   42.3020 C   0  0  0  0  0  0  0  0  0  0  0  0
   47.7010   35.0610   42.1660 C   0  0  0  0  0  0  0  0  0  0  0  0
   46.4820   34.4650   41.4430 C   0  0  0  0  0  0  0  0  0  0  0  0
   46.1830   36.6100   41.9350 H   0  0  0  0  0  0  0  0  0  0  0  0
   48.4190   35.6680   41.5830 H   0  0  0  0  0  0  0  0  0  0  0  0
   48.1060   34.5900   43.0490 H   0  0  0  0  0  0  0  0  0  0  0  0
   46.6180   34.4970   40.3400 H   0  0  0  0  0  0  0  0  0  0  0  0
   46.2090   33.4100   41.7600 H   0  0  0  0  0  0  0  0  0  0  0  0
  1  6  1  0  0  0  0
  1  7  1  0  0  0  0
  2  1  2  0  0  0  0
  3  4  2  0  0  0  0
  3  2  1  0  0  0  0
  4  5  1  0  0  0  0
  5  8  1  0  0  0  0
  5  6  2  0  0  0  0
  9  2  1  0  0  0  0
  9 19  1  0  0  0  0
 10  9  2  0  0  0  0
 11 10  1  0  0  0  0
 12 10  1  0  0  0  0
 12 13  2  0  0  0  0
 13 14  1  0  0  0  0
 14 19  2  0  0  0  0
 14 15  1  0  0  0  0
 15 16  2  0  0  0  0
 16 17  1  0  0  0  0
 18 17  2  0  0  0  0
 19 18  1  0  0  0  0
 20  3  1  0  0  0  0
 21 20  1  0  0  0  0
 21 25  1  0  0  0  0
 22 27  1  0  0  0  0
 22 21  1  0  0  0  0
 22 20  1  0  0  0  0
 23 20  1  0  0  0  0
 24 21  1  0  0  0  0
 26 22  1  0  0  0  0
M  END
>  <minimizedAffinity>
3.99250317

>  <minimizedRMSD>
2.31837702

$$$$
