
 OpenBabel03252507263D

 29 32  0  0  0  0  0  0  0  0999 V2000
   45.5930   33.9610   45.5510 C   0  0  0  0  0  0  0  0  0  0  0  0
   44.6840   34.9940   45.7850 C   0  0  0  0  0  0  0  0  0  0  0  0
   44.4750   35.9300   44.7730 C   0  0  0  0  0  0  0  0  0  0  0  0
   45.1710   35.7890   43.5980 N   0  0  0  0  0  0  0  0  0  0  0  0
   46.0300   34.7920   43.4030 C   0  0  0  0  0  0  0  0  0  0  0  0
   46.2200   33.9100   44.3710 N   0  0  0  0  0  0  0  0  0  0  0  0
   44.1020   35.1070   46.6570 H   0  0  0  0  0  0  0  0  0  0  0  0
   43.7840   36.7380   44.9240 H   0  0  0  0  0  0  0  0  0  0  0  0
   45.8970   32.8540   46.4350 C   0  0  0  0  0  0  0  0  0  0  0  0
   45.3370   32.8750   47.7190 C   0  0  0  0  0  0  0  0  0  0  0  0
   44.7060   33.7110   48.0300 H   0  0  0  0  0  0  0  0  0  0  0  0
   45.5100   31.9010   48.6740 C   0  0  0  0  0  0  0  0  0  0  0  0
   46.2870   30.8030   48.3850 C   0  0  0  0  0  0  0  0  0  0  0  0
   46.8610   30.7160   47.1480 C   0  0  0  0  0  0  0  0  0  0  0  0
   47.6150   29.6160   46.8040 C   0  0  0  0  0  0  0  0  0  0  0  0
   48.1950   29.4500   45.5420 C   0  0  0  0  0  0  0  0  0  0  0  0
   47.9510   30.4940   44.6410 C   0  0  0  0  0  0  0  0  0  0  0  0
   47.2070   31.5660   45.0060 C   0  0  0  0  0  0  0  0  0  0  0  0
   46.6450   31.7240   46.2470 C   0  0  0  0  0  0  0  0  0  0  0  0
   46.7500   34.6750   42.1360 C   0  0  0  0  0  0  0  0  0  0  0  0
   47.9440   35.3230   41.9670 C   0  0  0  0  0  0  0  0  0  0  0  0
   48.7010   35.2800   40.8080 C   0  0  0  0  0  0  0  0  0  0  0  0
   48.1450   34.5070   39.7970 C   0  0  0  0  0  0  0  0  0  0  0  0
   46.9350   33.8450   39.9550 C   0  0  0  0  0  0  0  0  0  0  0  0
   46.2570   33.9430   41.1330 N   0  0  0  0  0  0  0  0  0  0  0  0
   48.3260   35.9160   42.8060 H   0  0  0  0  0  0  0  0  0  0  0  0
   49.6390   35.7830   40.6600 H   0  0  0  0  0  0  0  0  0  0  0  0
   48.6690   34.4130   38.8460 H   0  0  0  0  0  0  0  0  0  0  0  0
   46.5680   33.2600   39.1160 H   0  0  0  0  0  0  0  0  0  0  0  0
  1  2  1  0  0  0  0
  1  9  1  0  0  0  0
  2  7  1  0  0  0  0
  3  8  1  0  0  0  0
  3  2  2  0  0  0  0
  4  3  1  0  0  0  0
  5  4  2  0  0  0  0
  5  6  1  0  0  0  0
  6  1  2  0  0  0  0
  9 10  1  0  0  0  0
 10 11  1  0  0  0  0
 10 12  2  0  0  0  0
 13 12  1  0  0  0  0
 14 13  2  0  0  0  0
 15 14  1  0  0  0  0
 16 15  2  0  0  0  0
 17 18  2  0  0  0  0
 17 16  1  0  0  0  0
 18 19  1  0  0  0  0
 19  9  2  0  0  0  0
 19 14  1  0  0  0  0
 20  5  1  0  0  0  0
 21 20  1  0  0  0  0
 21 26  1  0  0  0  0
 22 21  2  0  0  0  0
 23 24  2  0  0  0  0
 23 22  1  0  0  0  0
 24 25  1  0  0  0  0
 25 20  2  0  0  0  0
 27 22  1  0  0  0  0
 28 23  1  0  0  0  0
 29 24  1  0  0  0  0
M  END
>  <minimizedAffinity>
-6.94477606

>  <minimizedRMSD>
0.70186305

$$$$
