
 OpenBabel03242519073D

 45 49  0  0  1  0  0  0  0  0999 V2000
   48.2460   33.0490   38.8750 N   0  0  0  0  0  0  0  0  0  0  0  0
   49.2470   33.2330   38.6280 H   0  0  0  0  0  0  0  0  0  0  0  0
   47.4120   34.3300   42.0900 N   0  0  0  0  0  0  0  0  0  0  0  0
   47.2850   34.4540   40.6450 C   0  0  0  0  0  0  0  0  0  0  0  0
   47.8730   33.1250   40.2530 C   0  0  2  0  0  0  0  0  0  0  0  0
   49.1520   33.1100   41.0680 C   0  0  0  0  0  0  0  0  0  0  0  0
   48.7320   33.7900   42.3460 C   0  0  0  0  0  0  0  0  0  0  0  0
   46.2370   34.5720   40.3210 H   0  0  0  0  0  0  0  0  0  0  0  0
   47.9420   35.2850   40.3190 H   0  0  0  0  0  0  0  0  0  0  0  0
   47.1710   32.3380   40.5560 H   0  0  0  0  0  0  0  0  0  0  0  0
   49.9170   33.7020   40.5110 H   0  0  0  0  0  0  0  0  0  0  0  0
   49.5450   32.0890   41.2170 H   0  0  0  0  0  0  0  0  0  0  0  0
   48.6330   33.0480   43.1560 H   0  0  0  0  0  0  0  0  0  0  0  0
   49.4570   34.6060   42.6060 H   0  0  0  0  0  0  0  0  0  0  0  0
   44.7450   35.9110   44.1560 C   0  0  0  0  0  0  0  0  0  0  0  0
   45.6060   35.7020   43.0790 C   0  0  0  0  0  0  0  0  0  0  0  0
   46.4980   34.6400   43.1100 C   0  0  0  0  0  0  0  0  0  0  0  0
   46.4760   33.8470   44.2180 N   0  0  0  0  0  0  0  0  0  0  0  0
   45.6510   34.0410   45.2540 C   0  0  0  0  0  0  0  0  0  0  0  0
   44.7830   35.0700   45.2310 N   0  0  0  0  0  0  0  0  0  0  0  0
   44.0350   36.7410   44.1510 H   0  0  0  0  0  0  0  0  0  0  0  0
   45.6030   36.3400   42.2210 H   0  0  0  0  0  0  0  0  0  0  0  0
   45.6510   33.3980   46.1250 H   0  0  0  0  0  0  0  0  0  0  0  0
   48.0360   32.0840   36.5970 C   0  0  0  0  0  0  0  0  0  0  0  0
   47.5090   32.7610   37.7080 C   0  0  0  0  0  0  0  0  0  0  0  0
   46.1980   33.1210   37.5580 C   0  0  0  0  0  0  0  0  0  0  0  0
   45.4050   32.8820   36.4600 C   0  0  0  0  0  0  0  0  0  0  0  0
   45.9550   32.2220   35.3990 C   0  0  0  0  0  0  0  0  0  0  0  0
   47.2780   31.8220   35.4750 C   0  0  0  0  0  0  0  0  0  0  0  0
   45.7270   33.6480   38.3810 H   0  0  0  0  0  0  0  0  0  0  0  0
   44.3760   33.1860   36.3880 H   0  0  0  0  0  0  0  0  0  0  0  0
   45.3680   32.0130   34.5180 H   0  0  0  0  0  0  0  0  0  0  0  0
   47.8340   31.1180   34.3220 C   0  0  0  0  0  0  0  0  0  0  0  0
   47.6730   29.7370   34.4290 C   0  0  0  0  0  0  0  0  0  0  0  0
   47.1990   29.2240   35.2530 H   0  0  0  0  0  0  0  0  0  0  0  0
   48.1400   28.9000   33.4230 C   0  0  0  0  0  0  0  0  0  0  0  0
   48.7610   29.4970   32.3310 C   0  0  0  0  0  0  0  0  0  0  0  0
   48.9210   30.8610   32.2240 C   0  0  0  0  0  0  0  0  0  0  0  0
   49.5290   31.4830   31.1620 C   0  0  0  0  0  0  0  0  0  0  0  0
   49.6720   32.8600   31.0890 C   0  0  0  0  0  0  0  0  0  0  0  0
   49.1800   33.6230   32.1310 C   0  0  0  0  0  0  0  0  0  0  0  0
   48.5530   33.0530   33.2380 C   0  0  0  0  0  0  0  0  0  0  0  0
   48.4550   31.6730   33.2230 C   0  0  0  0  0  0  0  0  0  0  0  0
   50.5270   31.3280   36.7320 N   0  0  0  0  0  0  0  0  0  0  0  0
   49.4180   31.6630   36.6650 C   0  0  0  0  0  0  0  0  0  0  0  0
  1  5  1  0  0  0  0
  2  1  1  0  0  0  0
  3  7  1  0  0  0  0
  3 17  1  0  0  0  0
  4  3  1  0  0  0  0
  5 10  1  1  0  0  0
  5  4  1  0  0  0  0
  5  6  1  0  0  0  0
  6 12  1  0  0  0  0
  6  7  1  0  0  0  0
  7 14  1  0  0  0  0
  7 13  1  0  0  0  0
  8  4  1  0  0  0  0
  9  4  1  0  0  0  0
 11  6  1  0  0  0  0
 15 20  1  0  0  0  0
 16 17  1  0  0  0  0
 16 15  2  0  0  0  0
 17 18  2  0  0  0  0
 18 19  1  0  0  0  0
 19 23  1  0  0  0  0
 20 19  2  0  0  0  0
 21 15  1  0  0  0  0
 22 16  1  0  0  0  0
 24 45  1  0  0  0  0
 24 25  1  0  0  0  0
 25  1  1  0  0  0  0
 26 25  2  0  0  0  0
 26 30  1  0  0  0  0
 27 26  1  0  0  0  0
 28 29  1  0  0  0  0
 28 27  2  0  0  0  0
 29 24  2  0  0  0  0
 31 27  1  0  0  0  0
 32 28  1  0  0  0  0
 33 34  1  0  0  0  0
 33 29  1  0  0  0  0
 34 35  1  0  0  0  0
 36 34  2  0  0  0  0
 37 36  1  0  0  0  0
 38 37  2  0  0  0  0
 38 43  1  0  0  0  0
 39 38  1  0  0  0  0
 40 39  2  0  0  0  0
 40 41  1  0  0  0  0
 41 42  2  0  0  0  0
 43 42  1  0  0  0  0
 43 33  2  0  0  0  0
 45 44  3  0  0  0  0
M  END
>  <minimizedAffinity>
-6.27461624

>  <minimizedRMSD>
2.2312696

$$$$
