
 OpenBabel03252501183D

 23 25  0  0  0  0  0  0  0  0999 V2000
   45.8890   34.0170   45.0280 C   0  0  0  0  0  0  0  0  0  0  0  0
   46.0020   33.8460   43.6330 C   0  0  0  0  0  0  0  0  0  0  0  0
   45.1970   34.6430   42.8230 C   0  0  0  0  0  0  0  0  0  0  0  0
   44.3600   35.5300   43.4150 N   0  0  0  0  0  0  0  0  0  0  0  0
   44.2750   35.6710   44.7560 C   0  0  0  0  0  0  0  0  0  0  0  0
   45.0350   34.9190   45.5520 N   0  0  0  0  0  0  0  0  0  0  0  0
   46.4620   33.4540   45.7450 H   0  0  0  0  0  0  0  0  0  0  0  0
   43.5440   36.4350   44.9840 H   0  0  0  0  0  0  0  0  0  0  0  0
   46.9590   32.8340   43.2600 C   0  0  0  0  0  0  0  0  0  0  0  0
   46.4050   31.5640   43.2790 C   0  0  0  0  0  0  0  0  0  0  0  0
   45.3840   31.3110   43.5300 H   0  0  0  0  0  0  0  0  0  0  0  0
   47.1750   30.4410   42.9540 C   0  0  0  0  0  0  0  0  0  0  0  0
   48.5050   30.6040   42.6100 C   0  0  0  0  0  0  0  0  0  0  0  0
   49.0550   31.8700   42.5920 C   0  0  0  0  0  0  0  0  0  0  0  0
   50.3800   32.1350   42.2570 C   0  0  0  0  0  0  0  0  0  0  0  0
   50.8760   33.4290   42.2530 C   0  0  0  0  0  0  0  0  0  0  0  0
   50.0660   34.4970   42.5820 C   0  0  0  0  0  0  0  0  0  0  0  0
   48.7500   34.2720   42.9200 C   0  0  0  0  0  0  0  0  0  0  0  0
   48.2880   32.9700   42.9130 C   0  0  0  0  0  0  0  0  0  0  0  0
   45.3580   34.4180   41.3900 C   0  0  0  0  0  0  0  0  0  0  0  0
   44.3950   35.1740   40.7120 F   0  0  0  0  0  0  0  0  0  0  0  0
   45.0040   33.1120   41.1420 F   0  0  0  0  0  0  0  0  0  0  0  0
   46.5670   34.7610   40.8910 F   0  0  0  0  0  0  0  0  0  0  0  0
  1  6  1  0  0  0  0
  1  7  1  0  0  0  0
  2  1  2  0  0  0  0
  3  4  2  0  0  0  0
  3  2  1  0  0  0  0
  4  5  1  0  0  0  0
  5  8  1  0  0  0  0
  5  6  2  0  0  0  0
  9 10  1  0  0  0  0
  9  2  1  0  0  0  0
 10 11  1  0  0  0  0
 12 10  2  0  0  0  0
 13 12  1  0  0  0  0
 14 13  2  0  0  0  0
 14 19  1  0  0  0  0
 15 14  1  0  0  0  0
 16 15  2  0  0  0  0
 16 17  1  0  0  0  0
 17 18  2  0  0  0  0
 19 18  1  0  0  0  0
 19  9  2  0  0  0  0
 20  3  1  0  0  0  0
 21 20  1  0  0  0  0
 22 20  1  0  0  0  0
 23 20  1  0  0  0  0
M  END
>  <minimizedAffinity>
-5.32390738

>  <minimizedRMSD>
5.76773977

$$$$
