
 OpenBabel03252506123D

 39 41  0  0  0  0  0  0  0  0999 V2000
   45.1100   33.5320   41.1450 F   0  0  0  0  0  0  0  0  0  0  0  0
   46.3080   34.1050   41.0340 C   0  0  0  0  0  0  0  0  0  0  0  0
   46.8290   34.8100   42.1160 C   0  0  0  0  0  0  0  0  0  0  0  0
   48.0700   35.4360   42.0860 C   0  0  0  0  0  0  0  0  0  0  0  0
   48.8420   35.3650   40.9260 C   0  0  0  0  0  0  0  0  0  0  0  0
   48.2900   34.6560   39.8710 C   0  0  0  0  0  0  0  0  0  0  0  0
   47.0780   34.0380   39.8850 C   0  0  0  0  0  0  0  0  0  0  0  0
   48.4110   35.9710   42.9790 H   0  0  0  0  0  0  0  0  0  0  0  0
   49.7780   35.8630   40.9690 H   0  0  0  0  0  0  0  0  0  0  0  0
   48.9940   34.6760   39.0460 H   0  0  0  0  0  0  0  0  0  0  0  0
   45.4570   34.0140   45.4260 C   0  0  0  0  0  0  0  0  0  0  0  0
   44.6130   35.1130   45.6640 C   0  0  0  0  0  0  0  0  0  0  0  0
   44.5170   36.1260   44.6830 C   0  0  0  0  0  0  0  0  0  0  0  0
   45.2670   35.9660   43.5490 N   0  0  0  0  0  0  0  0  0  0  0  0
   46.0570   34.9100   43.3570 C   0  0  0  0  0  0  0  0  0  0  0  0
   46.1480   33.9450   44.2890 N   0  0  0  0  0  0  0  0  0  0  0  0
   44.0230   35.2360   46.5580 H   0  0  0  0  0  0  0  0  0  0  0  0
   43.8830   36.9900   44.8200 H   0  0  0  0  0  0  0  0  0  0  0  0
   45.5440   33.0030   46.4150 N   0  0  0  0  0  0  0  0  0  0  0  0
   44.8310   32.2730   46.7100 H   0  0  0  0  0  0  0  0  0  0  0  0
   46.4260   32.9220   46.9630 H   0  0  0  0  0  0  0  0  0  0  0  0
   46.6360   33.3660   38.7790 O   0  0  0  0  0  0  0  0  0  0  0  0
   48.1010   34.6460   36.9830 O   0  0  0  0  0  0  0  0  0  0  0  0
   47.3300   33.3710   37.2510 P   0  0  2  0  0  0  0  0  0  0  0  0
   46.0810   33.1920   36.0940 O   0  0  0  0  0  0  0  0  0  0  0  0
   46.2100   33.8330   35.3540 H   0  0  0  0  0  0  0  0  0  0  0  0
   48.3650   32.0640   36.9750 O   0  0  0  0  0  0  0  0  0  0  0  0
   49.1500   30.3860   38.3620 C   0  0  0  0  0  0  0  0  0  0  0  0
   48.2050   30.7770   37.4080 C   0  0  0  0  0  0  0  0  0  0  0  0
   47.2670   29.8380   37.0450 C   0  0  0  0  0  0  0  0  0  0  0  0
   46.5610   30.1880   36.3080 H   0  0  0  0  0  0  0  0  0  0  0  0
   47.2470   28.5740   37.5850 C   0  0  0  0  0  0  0  0  0  0  0  0
   46.4970   27.8640   37.2770 H   0  0  0  0  0  0  0  0  0  0  0  0
   48.1740   28.1690   38.5300 C   0  0  0  0  0  3  0  0  0  0  0  0
   49.1140   29.1140   38.8910 C   0  0  0  0  0  3  0  0  0  0  0  0
   50.3810   32.5970   38.1850 H   0  0  0  0  0  0  0  0  0  0  0  0
   50.4230   31.4710   38.9370 S   0  0  0  0  0  0  0  0  0  0  0  0
   50.1610   31.7770   40.4060 O   0  0  0  0  0  0  0  0  0  0  0  0
   51.7320   30.7570   38.8900 O   0  0  0  0  0  0  0  0  0  0  0  0
  2  1  1  0  0  0  0
  2  3  1  0  0  0  0
  3 15  1  0  0  0  0
  4  3  2  0  0  0  0
  4  8  1  0  0  0  0
  5  9  1  0  0  0  0
  5  4  1  0  0  0  0
  6  7  1  0  0  0  0
  6  5  2  0  0  0  0
  7  2  2  0  0  0  0
 10  6  1  0  0  0  0
 11 12  1  0  0  0  0
 11 19  1  0  0  0  0
 12 17  1  0  0  0  0
 13 18  1  0  0  0  0
 13 12  2  0  0  0  0
 14 13  1  0  0  0  0
 15 14  2  0  0  0  0
 15 16  1  0  0  0  0
 16 11  2  0  0  0  0
 19 20  1  0  0  0  0
 19 21  1  0  0  0  0
 22  7  1  0  0  0  0
 24 23  2  6  0  0  0
 24 22  1  0  0  0  0
 25 24  1  0  0  0  0
 26 25  1  0  0  0  0
 27 24  1  0  0  0  0
 27 29  1  0  0  0  0
 28 35  1  0  0  0  0
 28 37  1  0  0  0  0
 29 28  2  0  0  0  0
 30 29  1  0  0  0  0
 30 32  2  0  0  0  0
 31 30  1  0  0  0  0
 32 34  1  0  0  0  0
 33 32  1  0  0  0  0
 34 35  2  0  0  0  0
 36 37  1  0  0  0  0
 37 38  2  0  0  0  0
 39 37  2  0  0  0  0
M  END
>  <minimizedAffinity>
-5.85116863

>  <minimizedRMSD>
1.24216259

$$$$
