
 OpenBabel03252506343D

 36 38  0  0  1  0  0  0  0  0999 V2000
   44.4810   35.6890   45.0280 C   0  0  0  0  0  0  0  0  0  0  0  0
   45.1680   35.6260   43.8050 C   0  0  0  0  0  0  0  0  0  0  0  0
   46.0680   34.6240   43.6140 C   0  0  0  0  0  0  0  0  0  0  0  0
   46.2370   33.7520   44.6290 N   0  0  0  0  0  0  0  0  0  0  0  0
   45.5880   33.8110   45.7880 C   0  0  0  0  0  0  0  0  0  0  0  0
   44.6900   34.7810   46.0230 N   0  0  0  0  0  0  0  0  0  0  0  0
   45.8630   32.8290   46.7750 N   0  0  0  0  0  0  0  0  0  0  0  0
   45.0300   32.5700   47.9460 C   0  0  0  0  0  0  0  0  0  0  0  0
   46.0930   32.2860   49.0010 C   0  0  0  0  0  0  0  0  0  0  0  0
   47.4030   32.1090   48.2800 C   0  0  0  0  0  0  0  0  0  0  0  0
   46.9750   31.9060   46.8450 C   0  0  1  0  0  0  0  0  0  0  0  0
   43.7430   36.4630   45.2580 H   0  0  0  0  0  0  0  0  0  0  0  0
   46.5650   34.6080   42.6800 H   0  0  0  0  0  0  0  0  0  0  0  0
   44.3470   31.7200   47.7950 H   0  0  0  0  0  0  0  0  0  0  0  0
   44.4890   33.4680   48.2800 H   0  0  0  0  0  0  0  0  0  0  0  0
   45.8130   31.3330   49.4900 H   0  0  0  0  0  0  0  0  0  0  0  0
   46.1110   33.0500   49.7920 H   0  0  0  0  0  0  0  0  0  0  0  0
   47.9800   31.2320   48.6680 H   0  0  0  0  0  0  0  0  0  0  0  0
   47.9660   33.0570   48.3830 H   0  0  0  0  0  0  0  0  0  0  0  0
   47.8200   32.2020   46.2130 H   0  0  0  0  0  0  0  0  0  0  0  0
   44.8150   36.6700   42.8920 N   0  0  0  0  0  0  0  0  0  0  0  0
   43.8850   36.9080   42.5170 H   0  0  0  0  0  0  0  0  0  0  0  0
   45.7500   37.1230   42.7110 H   0  0  0  0  0  0  0  0  0  0  0  0
   46.4480   30.1940   46.6520 S   0  0  0  0  0  0  0  0  0  0  0  0
   47.0410   28.1050   44.8270 C   0  0  0  0  0  0  0  0  0  0  0  0
   47.2010   29.4080   45.2410 C   0  0  0  0  0  0  0  0  0  0  0  0
   48.0350   30.2620   44.5140 C   0  0  0  0  0  0  0  0  0  0  0  0
   48.2200   31.3060   44.7660 H   0  0  0  0  0  0  0  0  0  0  0  0
   48.6850   29.7840   43.3900 C   0  0  0  0  0  0  0  0  0  0  0  0
   49.3330   30.4310   42.8170 H   0  0  0  0  0  0  0  0  0  0  0  0
   48.5340   28.4850   42.9670 C   0  0  0  0  0  3  0  0  0  0  0  0
   47.7060   27.6600   43.7010 C   0  0  0  0  0  3  0  0  0  0  0  0
   44.8800   27.8620   46.1750 H   0  0  0  0  0  0  0  0  0  0  0  0
   45.9770   27.1340   45.8140 S   0  0  0  0  0  0  0  0  0  0  0  0
   45.4660   25.9680   44.9800 O   0  0  0  0  0  0  0  0  0  0  0  0
   46.6690   26.5140   46.9850 O   0  0  0  0  0  0  0  0  0  0  0  0
  1 12  1  0  0  0  0
  1  6  1  0  0  0  0
  2  1  2  0  0  0  0
  3  2  1  0  0  0  0
  3  4  2  0  0  0  0
  4  5  1  0  0  0  0
  5  6  2  0  0  0  0
  5  7  1  0  0  0  0
  7 11  1  0  0  0  0
  7  8  1  0  0  0  0
  8 15  1  0  0  0  0
  8  9  1  0  0  0  0
  9 16  1  0  0  0  0
  9 17  1  0  0  0  0
 10 19  1  0  0  0  0
 10 18  1  0  0  0  0
 10  9  1  0  0  0  0
 11 20  1  6  0  0  0
 11 10  1  0  0  0  0
 13  3  1  0  0  0  0
 14  8  1  0  0  0  0
 21  2  1  0  0  0  0
 22 21  1  0  0  0  0
 23 21  1  0  0  0  0
 24 11  1  0  0  0  0
 25 26  1  0  0  0  0
 25 34  1  0  0  0  0
 26 24  1  0  0  0  0
 27 28  1  0  0  0  0
 27 26  2  0  0  0  0
 29 27  1  0  0  0  0
 30 29  1  0  0  0  0
 31 29  2  0  0  0  0
 31 32  1  0  0  0  0
 32 25  2  0  0  0  0
 34 33  1  0  0  0  0
 34 36  2  0  0  0  0
 35 34  2  0  0  0  0
M  END
>  <minimizedAffinity>
-4.8640523

>  <minimizedRMSD>
1.66135132

$$$$
