
 OpenBabel03242519543D

 43 45  0  0  1  0  0  0  0  0999 V2000
   47.3370   34.0780   42.5040 C   0  0  2  0  0  0  0  0  0  0  0  0
   48.6870   34.6630   42.6620 C   0  0  0  0  0  0  0  0  0  0  0  0
   48.9700   35.7330   41.6630 C   0  0  0  0  0  0  0  0  0  0  0  0
   48.7680   35.2920   40.2340 C   0  0  0  0  0  0  0  0  0  0  0  0
   47.6220   34.3500   40.0430 C   0  0  2  0  0  0  0  0  0  0  0  0
   46.6630   34.3950   41.2130 C   0  0  0  0  0  0  0  0  0  0  0  0
   47.4850   32.9540   42.5510 H   0  0  0  0  0  0  0  0  0  0  0  0
   49.4940   33.9040   42.6500 H   0  0  0  0  0  0  0  0  0  0  0  0
   48.7350   35.1370   43.6690 H   0  0  0  0  0  0  0  0  0  0  0  0
   48.4190   36.6750   41.8930 H   0  0  0  0  0  0  0  0  0  0  0  0
   50.0470   36.0030   41.7660 H   0  0  0  0  0  0  0  0  0  0  0  0
   49.7200   34.8930   39.7970 H   0  0  0  0  0  0  0  0  0  0  0  0
   48.5600   36.2160   39.6400 H   0  0  0  0  0  0  0  0  0  0  0  0
   46.9980   34.6540   39.1530 H   0  0  0  0  0  0  0  0  0  0  0  0
   45.9250   33.5530   41.0360 H   0  0  0  0  0  0  0  0  0  0  0  0
   46.0850   35.2980   41.1280 H   0  0  0  0  0  0  0  0  0  0  0  0
   46.4250   34.3830   43.6180 C   0  0  0  0  0  0  0  0  0  0  0  0
   45.5910   35.4730   43.3820 C   0  0  0  0  0  0  0  0  0  0  0  0
   44.6600   35.8620   44.3490 C   0  0  0  0  0  0  0  0  0  0  0  0
   44.6420   35.1100   45.5110 N   0  0  0  0  0  0  0  0  0  0  0  0
   45.4670   34.0630   45.7010 C   0  0  0  0  0  0  0  0  0  0  0  0
   46.3440   33.7140   44.7570 N   0  0  0  0  0  0  0  0  0  0  0  0
   45.4360   36.1930   42.5920 H   0  0  0  0  0  0  0  0  0  0  0  0
   43.9390   36.6420   44.3850 H   0  0  0  0  0  0  0  0  0  0  0  0
   45.3970   33.5150   46.6450 H   0  0  0  0  0  0  0  0  0  0  0  0
   48.1480   32.9940   39.7450 C   0  0  0  0  0  0  0  0  0  0  0  0
   48.7140   33.1120   38.7680 H   0  0  0  0  0  0  0  0  0  0  0  0
   48.9250   32.7660   40.4730 H   0  0  0  0  0  0  0  0  0  0  0  0
   47.1270   31.9560   39.4790 C   0  0  0  0  0  0  0  0  0  0  0  0
   46.4610   31.7050   40.3490 H   0  0  0  0  0  0  0  0  0  0  0  0
   46.4100   32.3810   38.7440 H   0  0  0  0  0  0  0  0  0  0  0  0
   47.2660   29.4450   38.9710 C   0  0  0  0  0  0  0  0  0  0  0  0
   47.7320   30.7310   38.9040 C   0  0  0  0  0  0  0  0  0  0  0  0
   48.9490   30.8790   38.2210 C   0  0  0  0  0  0  0  0  0  0  0  0
   49.3730   31.8920   38.1340 H   0  0  0  0  0  0  0  0  0  0  0  0
   49.6930   29.8840   37.6330 C   0  0  0  0  0  0  0  0  0  0  0  0
   50.6210   30.1140   37.1300 H   0  0  0  0  0  0  0  0  0  0  0  0
   49.1940   28.6020   37.7220 C   0  0  0  0  0  3  0  0  0  0  0  0
   48.0000   28.4060   38.3820 C   0  0  0  0  0  3  0  0  0  0  0  0
   45.5320   27.7830   39.6340 H   0  0  0  0  0  0  0  0  0  0  0  0
   45.7700   29.1570   39.7610 S   0  0  0  0  0  0  0  0  0  0  0  0
   44.5880   29.7780   39.0880 O   0  0  0  0  0  0  0  0  0  0  0  0
   45.7900   29.3600   41.2480 O   0  0  0  0  0  0  0  0  0  0  0  0
  1  7  1  1  0  0  0
  1  2  1  0  0  0  0
  1 17  1  0  0  0  0
  2  9  1  0  0  0  0
  3 11  1  0  0  0  0
  3 10  1  0  0  0  0
  3  2  1  0  0  0  0
  4  3  1  0  0  0  0
  5 14  1  6  0  0  0
  5  4  1  0  0  0  0
  5  6  1  0  0  0  0
  6  1  1  0  0  0  0
  8  2  1  0  0  0  0
 12  4  1  0  0  0  0
 13  4  1  0  0  0  0
 15  6  1  0  0  0  0
 16  6  1  0  0  0  0
 17 22  1  0  0  0  0
 18 17  2  0  0  0  0
 18 19  1  0  0  0  0
 19 24  1  0  0  0  0
 19 20  2  0  0  0  0
 20 21  1  0  0  0  0
 21 25  1  0  0  0  0
 22 21  2  0  0  0  0
 23 18  1  0  0  0  0
 26  5  1  0  0  0  0
 26 28  1  0  0  0  0
 27 26  1  0  0  0  0
 29 26  1  0  0  0  0
 29 30  1  0  0  0  0
 31 29  1  0  0  0  0
 32 41  1  0  0  0  0
 33 32  1  0  0  0  0
 33 29  1  0  0  0  0
 34 33  2  0  0  0  0
 35 34  1  0  0  0  0
 36 38  2  0  0  0  0
 36 34  1  0  0  0  0
 37 36  1  0  0  0  0
 38 39  1  0  0  0  0
 39 32  2  0  0  0  0
 40 41  1  0  0  0  0
 41 43  2  0  0  0  0
 42 41  2  0  0  0  0
M  END
>  <minimizedAffinity>
-4.60980129

>  <minimizedRMSD>
0.371101767

$$$$
