
 OpenBabel03252505113D

 47 50  0  0  1  0  0  0  0  0999 V2000
   44.6060   35.5400   44.5800 C   0  0  0  0  0  0  0  0  0  0  0  0
   45.2760   35.5250   43.3370 C   0  0  0  0  0  0  0  0  0  0  0  0
   46.3650   34.6070   43.1810 C   0  0  0  0  0  0  0  0  0  0  0  0
   46.6950   33.8110   44.2170 N   0  0  0  0  0  0  0  0  0  0  0  0
   46.0310   33.8560   45.3850 C   0  0  0  0  0  0  0  0  0  0  0  0
   44.9830   34.7210   45.5760 N   0  0  0  0  0  0  0  0  0  0  0  0
   43.7770   36.2320   44.7130 H   0  0  0  0  0  0  0  0  0  0  0  0
   45.0090   36.1600   42.5200 H   0  0  0  0  0  0  0  0  0  0  0  0
   46.4340   32.9620   46.4930 C   0  0  2  0  0  0  0  0  0  0  0  0
   46.9700   31.7160   45.8200 C   0  0  0  0  0  0  0  0  0  0  0  0
   46.0830   30.5330   45.8540 C   0  0  0  0  0  0  0  0  0  0  0  0
   45.8090   30.2950   47.3340 C   0  0  0  0  0  0  0  0  0  0  0  0
   45.0060   31.3790   47.9240 C   0  0  0  0  0  0  0  0  0  0  0  0
   45.3810   32.7360   47.4440 C   0  0  0  0  0  0  0  0  0  0  0  0
   47.2960   33.4800   46.9890 H   0  0  0  0  0  0  0  0  0  0  0  0
   47.2640   31.8860   44.7620 H   0  0  0  0  0  0  0  0  0  0  0  0
   47.9150   31.4260   46.3250 H   0  0  0  0  0  0  0  0  0  0  0  0
   45.1580   30.5800   45.2800 H   0  0  0  0  0  0  0  0  0  0  0  0
   46.6820   29.6650   45.5280 H   0  0  0  0  0  0  0  0  0  0  0  0
   46.7250   30.0430   47.8680 H   0  0  0  0  0  0  0  0  0  0  0  0
   45.1440   29.4060   47.3510 H   0  0  0  0  0  0  0  0  0  0  0  0
   44.2060   31.3880   48.6260 H   0  0  0  0  0  0  0  0  0  0  0  0
   44.6810   33.8730   47.9270 N   0  0  0  0  0  0  0  0  0  0  0  0
   43.6820   34.0640   47.6680 H   0  0  0  0  0  0  0  0  0  0  0  0
   45.1410   34.5600   48.5580 H   0  0  0  0  0  0  0  0  0  0  0  0
   47.0660   34.5700   41.9080 C   0  0  0  0  0  0  0  0  0  0  0  0
   48.0970   35.4400   41.7270 C   0  0  0  0  0  0  0  0  0  0  0  0
   48.7430   35.3690   40.4810 C   0  0  0  0  0  0  0  0  0  0  0  0
   48.2610   34.4250   39.5810 C   0  0  0  0  0  0  0  0  0  0  0  0
   47.2260   33.5480   39.7610 C   0  0  0  0  0  0  0  0  0  0  0  0
   46.6330   33.6650   40.9950 N   0  0  0  0  0  0  0  0  0  0  0  0
   48.3730   36.1290   42.5120 H   0  0  0  0  0  0  0  0  0  0  0  0
   49.5570   36.0590   40.3420 H   0  0  0  0  0  0  0  0  0  0  0  0
   48.8650   34.5060   38.6910 H   0  0  0  0  0  0  0  0  0  0  0  0
   46.8210   32.6640   38.8350 O   0  0  0  0  0  0  0  0  0  0  0  0
   47.6160   31.0320   37.6800 C   0  0  0  0  0  0  0  0  0  0  0  0
   47.0470   32.3210   37.5890 C   0  0  0  0  0  0  0  0  0  0  0  0
   46.9160   32.7880   36.3120 C   0  0  0  0  0  0  0  0  0  0  0  0
   46.4890   33.7560   36.2690 H   0  0  0  0  0  0  0  0  0  0  0  0
   47.2710   32.1470   35.1520 C   0  0  0  0  0  0  0  0  0  0  0  0
   47.1000   32.6570   34.2260 H   0  0  0  0  0  0  0  0  0  0  0  0
   47.8190   30.8980   35.3150 C   0  0  0  0  0  3  0  0  0  0  0  0
   48.0090   30.3030   36.5610 C   0  0  0  0  0  3  0  0  0  0  0  0
   48.2480   28.7640   38.7440 H   0  0  0  0  0  0  0  0  0  0  0  0
   47.9650   30.0540   39.1140 S   0  0  0  0  0  0  0  0  0  0  0  0
   49.0850   30.6750   39.8660 O   0  0  0  0  0  0  0  0  0  0  0  0
   46.7510   30.0070   39.9790 O   0  0  0  0  0  0  0  0  0  0  0  0
  1  7  1  0  0  0  0
  1  6  1  0  0  0  0
  2  1  2  0  0  0  0
  3  2  1  0  0  0  0
  3  4  2  0  0  0  0
  4  5  1  0  0  0  0
  5  6  2  0  0  0  0
  5  9  1  0  0  0  0
  8  2  1  0  0  0  0
  9 15  1  1  0  0  0
  9 14  1  0  0  0  0
 10 11  1  0  0  0  0
 10 17  1  0  0  0  0
 10  9  1  0  0  0  0
 11 12  1  0  0  0  0
 12 21  1  0  0  0  0
 12 20  1  0  0  0  0
 12 13  1  0  0  0  0
 13 22  1  0  0  0  0
 14 13  2  0  0  0  0
 14 23  1  0  0  0  0
 16 10  1  0  0  0  0
 18 11  1  0  0  0  0
 19 11  1  0  0  0  0
 23 25  1  0  0  0  0
 24 23  1  0  0  0  0
 26  3  1  0  0  0  0
 27 26  1  0  0  0  0
 27 32  1  0  0  0  0
 28 27  2  0  0  0  0
 29 30  2  0  0  0  0
 29 28  1  0  0  0  0
 30 31  1  0  0  0  0
 31 26  2  0  0  0  0
 33 28  1  0  0  0  0
 34 29  1  0  0  0  0
 35 30  1  0  0  0  0
 36 45  1  0  0  0  0
 37 36  1  0  0  0  0
 37 35  1  0  0  0  0
 38 37  2  0  0  0  0
 39 38  1  0  0  0  0
 40 42  2  0  0  0  0
 40 38  1  0  0  0  0
 41 40  1  0  0  0  0
 42 43  1  0  0  0  0
 43 36  2  0  0  0  0
 44 45  1  0  0  0  0
 45 46  2  0  0  0  0
 45 47  2  0  0  0  0
M  END
>  <minimizedAffinity>
-6.74262953

>  <minimizedRMSD>
0.484858632

$$$$
