
 OpenBabel03252506103D

 33 35  0  0  0  0  0  0  0  0999 V2000
   45.4770   33.0770   41.0870 F   0  0  0  0  0  0  0  0  0  0  0  0
   46.5560   33.8290   40.8800 C   0  0  0  0  0  0  0  0  0  0  0  0
   47.0060   34.6910   41.8690 C   0  0  0  0  0  0  0  0  0  0  0  0
   48.1110   35.4930   41.7140 C   0  0  0  0  0  0  0  0  0  0  0  0
   48.8330   35.4600   40.5220 C   0  0  0  0  0  0  0  0  0  0  0  0
   48.3470   34.5820   39.5570 C   0  0  0  0  0  0  0  0  0  0  0  0
   47.2430   33.7710   39.6890 C   0  0  0  0  0  0  0  0  0  0  0  0
   48.4350   36.1550   42.5100 H   0  0  0  0  0  0  0  0  0  0  0  0
   49.6910   36.0700   40.3780 H   0  0  0  0  0  0  0  0  0  0  0  0
   48.9270   34.5770   38.6390 H   0  0  0  0  0  0  0  0  0  0  0  0
   46.0290   34.0990   45.3680 C   0  0  0  0  0  0  0  0  0  0  0  0
   44.9020   34.9250   45.5000 C   0  0  0  0  0  0  0  0  0  0  0  0
   44.4720   35.6910   44.3830 C   0  0  0  0  0  0  0  0  0  0  0  0
   45.2060   35.5640   43.2340 N   0  0  0  0  0  0  0  0  0  0  0  0
   46.2790   34.7630   43.1450 C   0  0  0  0  0  0  0  0  0  0  0  0
   46.6770   34.0440   44.2050 N   0  0  0  0  0  0  0  0  0  0  0  0
   44.3270   35.0180   46.4150 H   0  0  0  0  0  0  0  0  0  0  0  0
   43.6110   36.3400   44.4330 H   0  0  0  0  0  0  0  0  0  0  0  0
   46.4390   33.3480   46.4860 N   0  0  0  0  0  0  0  0  0  0  0  0
   45.8220   33.2110   47.3140 H   0  0  0  0  0  0  0  0  0  0  0  0
   47.3620   32.8870   46.5640 H   0  0  0  0  0  0  0  0  0  0  0  0
   47.2890   31.6000   38.4320 C   0  0  0  0  0  0  0  0  0  0  0  0
   46.8410   32.8930   38.5940 C   0  0  0  0  0  0  0  0  0  0  0  0
   45.9440   33.3940   37.6460 C   0  0  0  0  0  0  0  0  0  0  0  0
   45.5730   34.4240   37.7550 H   0  0  0  0  0  0  0  0  0  0  0  0
   45.5320   32.6070   36.5910 C   0  0  0  0  0  0  0  0  0  0  0  0
   44.8250   33.0210   35.8540 H   0  0  0  0  0  0  0  0  0  0  0  0
   45.9860   31.3060   36.4330 C   0  0  0  0  0  3  0  0  0  0  0  0
   46.8720   30.8330   37.3810 C   0  0  0  0  0  3  0  0  0  0  0  0
   49.2600   31.9300   40.1080 H   0  0  0  0  0  0  0  0  0  0  0  0
   48.4070   30.9930   39.6240 S   0  0  0  0  0  0  0  0  0  0  0  0
   47.5980   30.4070   40.7520 O   0  0  0  0  0  0  0  0  0  0  0  0
   49.1290   29.8280   38.9690 O   0  0  0  0  0  0  0  0  0  0  0  0
  2  1  1  0  0  0  0
  2  3  1  0  0  0  0
  3 15  1  0  0  0  0
  4  3  2  0  0  0  0
  4  8  1  0  0  0  0
  5  4  1  0  0  0  0
  6  7  1  0  0  0  0
  6  5  2  0  0  0  0
  7  2  2  0  0  0  0
  9  5  1  0  0  0  0
 10  6  1  0  0  0  0
 11 12  1  0  0  0  0
 11 19  1  0  0  0  0
 12 17  1  0  0  0  0
 13 18  1  0  0  0  0
 13 12  2  0  0  0  0
 14 13  1  0  0  0  0
 15 14  2  0  0  0  0
 15 16  1  0  0  0  0
 16 11  2  0  0  0  0
 19 21  1  0  0  0  0
 19 20  1  0  0  0  0
 22 23  1  0  0  0  0
 22 31  1  0  0  0  0
 23  7  1  0  0  0  0
 24 25  1  0  0  0  0
 24 23  2  0  0  0  0
 26 24  1  0  0  0  0
 27 26  1  0  0  0  0
 28 26  2  0  0  0  0
 28 29  1  0  0  0  0
 29 22  2  0  0  0  0
 31 30  1  0  0  0  0
 31 32  2  0  0  0  0
 33 31  2  0  0  0  0
M  END
>  <minimizedAffinity>
-5.58060884

>  <minimizedRMSD>
2.38340545

$$$$
