
 OpenBabel03252506343D

 36 38  0  0  1  0  0  0  0  0999 V2000
   44.4650   35.7050   44.9640 C   0  0  0  0  0  0  0  0  0  0  0  0
   45.1500   35.7050   43.7380 C   0  0  0  0  0  0  0  0  0  0  0  0
   46.0930   34.7500   43.5170 C   0  0  0  0  0  0  0  0  0  0  0  0
   46.3050   33.8600   44.5080 N   0  0  0  0  0  0  0  0  0  0  0  0
   45.6590   33.8600   45.6700 C   0  0  0  0  0  0  0  0  0  0  0  0
   44.7190   34.7810   45.9340 N   0  0  0  0  0  0  0  0  0  0  0  0
   45.9820   32.8650   46.6300 N   0  0  0  0  0  0  0  0  0  0  0  0
   45.1670   32.5390   47.7970 C   0  0  0  0  0  0  0  0  0  0  0  0
   46.2460   32.2750   48.8410 C   0  0  0  0  0  0  0  0  0  0  0  0
   47.5600   32.1760   48.1120 C   0  0  0  0  0  0  0  0  0  0  0  0
   47.1350   31.9920   46.6730 C   0  0  1  0  0  0  0  0  0  0  0  0
   43.6940   36.4380   45.2160 H   0  0  0  0  0  0  0  0  0  0  0  0
   46.5870   34.7810   42.5820 H   0  0  0  0  0  0  0  0  0  0  0  0
   44.5230   31.6630   47.6250 H   0  0  0  0  0  0  0  0  0  0  0  0
   44.5870   33.4020   48.1560 H   0  0  0  0  0  0  0  0  0  0  0  0
   46.0110   31.2980   49.3050 H   0  0  0  0  0  0  0  0  0  0  0  0
   46.2320   33.0190   49.6520 H   0  0  0  0  0  0  0  0  0  0  0  0
   48.1770   31.3170   48.4750 H   0  0  0  0  0  0  0  0  0  0  0  0
   48.0800   33.1460   48.2370 H   0  0  0  0  0  0  0  0  0  0  0  0
   47.9630   32.3430   46.0470 H   0  0  0  0  0  0  0  0  0  0  0  0
   44.7460   36.7550   42.8540 N   0  0  0  0  0  0  0  0  0  0  0  0
   43.8050   36.9610   42.4870 H   0  0  0  0  0  0  0  0  0  0  0  0
   45.6590   37.2550   42.6820 H   0  0  0  0  0  0  0  0  0  0  0  0
   46.6850   30.2640   46.4370 S   0  0  0  0  0  0  0  0  0  0  0  0
   47.2380   29.6280   43.7280 C   0  0  0  0  0  0  0  0  0  0  0  0
   46.3310   29.8820   44.7320 C   0  0  0  0  0  0  0  0  0  0  0  0
   44.9630   29.8530   44.4460 C   0  0  0  0  0  0  0  0  0  0  0  0
   44.1750   30.0420   45.1750 H   0  0  0  0  0  0  0  0  0  0  0  0
   44.5430   29.5700   43.1590 C   0  0  0  0  0  0  0  0  0  0  0  0
   43.4890   29.5430   42.9210 H   0  0  0  0  0  0  0  0  0  0  0  0
   45.4390   29.3140   42.1470 C   0  0  0  0  0  3  0  0  0  0  0  0
   46.7830   29.3470   42.4540 C   0  0  0  0  0  3  0  0  0  0  0  0
   49.0420   30.3560   45.3900 H   0  0  0  0  0  0  0  0  0  0  0  0
   48.9160   29.6910   44.2040 S   0  0  0  0  0  0  0  0  0  0  0  0
   49.4100   28.2730   44.4490 O   0  0  0  0  0  0  0  0  0  0  0  0
   49.8050   30.2450   43.1360 O   0  0  0  0  0  0  0  0  0  0  0  0
  1 12  1  0  0  0  0
  1  6  1  0  0  0  0
  2  1  2  0  0  0  0
  3  2  1  0  0  0  0
  3  4  2  0  0  0  0
  4  5  1  0  0  0  0
  5  6  2  0  0  0  0
  5  7  1  0  0  0  0
  7 11  1  0  0  0  0
  7  8  1  0  0  0  0
  8 15  1  0  0  0  0
  8  9  1  0  0  0  0
  9 16  1  0  0  0  0
  9 17  1  0  0  0  0
 10 19  1  0  0  0  0
 10 18  1  0  0  0  0
 10  9  1  0  0  0  0
 11 20  1  6  0  0  0
 11 10  1  0  0  0  0
 13  3  1  0  0  0  0
 14  8  1  0  0  0  0
 21  2  1  0  0  0  0
 22 21  1  0  0  0  0
 23 21  1  0  0  0  0
 24 11  1  0  0  0  0
 25 34  1  0  0  0  0
 25 26  1  0  0  0  0
 26 24  1  0  0  0  0
 27 26  2  0  0  0  0
 27 28  1  0  0  0  0
 29 27  1  0  0  0  0
 30 29  1  0  0  0  0
 31 32  1  0  0  0  0
 31 29  2  0  0  0  0
 32 25  2  0  0  0  0
 34 35  2  0  0  0  0
 34 33  1  0  0  0  0
 36 34  2  0  0  0  0
M  END
>  <minimizedAffinity>
-4.79533434

>  <minimizedRMSD>
0.731811643

$$$$
