
 OpenBabel03242522303D

 42 45  0  0  0  0  0  0  0  0999 V2000
   45.3600   33.1940   41.1460 F   0  0  0  0  0  0  0  0  0  0  0  0
   46.4950   33.9220   40.9950 C   0  0  0  0  0  0  0  0  0  0  0  0
   46.9370   34.7440   41.9720 C   0  0  0  0  0  0  0  0  0  0  0  0
   48.0940   35.4420   41.7330 C   0  0  0  0  0  0  0  0  0  0  0  0
   48.7950   35.3300   40.5560 C   0  0  0  0  0  0  0  0  0  0  0  0
   48.2870   34.4780   39.6100 C   0  0  0  0  0  0  0  0  0  0  0  0
   47.1470   33.7610   39.7900 C   0  0  0  0  0  0  0  0  0  0  0  0
   48.4580   36.1070   42.5170 H   0  0  0  0  0  0  0  0  0  0  0  0
   49.7080   35.8970   40.3970 H   0  0  0  0  0  0  0  0  0  0  0  0
   48.8560   34.4010   38.6850 H   0  0  0  0  0  0  0  0  0  0  0  0
   46.7200   32.9030   38.7240 C   0  0  0  0  0  0  0  0  0  0  0  0
   46.3090   31.6120   39.0010 C   0  0  0  0  0  0  0  0  0  0  0  0
   45.9040   30.8000   37.9910 C   0  0  0  0  0  0  0  0  0  0  0  0
   45.8980   31.2530   36.6800 C   0  0  0  0  0  0  0  0  0  0  0  0
   46.3180   32.5610   36.4320 C   0  0  0  0  0  0  0  0  0  0  0  0
   46.7290   33.3850   37.4580 C   0  0  0  0  0  0  0  0  0  0  0  0
   46.3240   31.2900   40.0270 H   0  0  0  0  0  0  0  0  0  0  0  0
   45.5930   29.8030   38.2690 H   0  0  0  0  0  0  0  0  0  0  0  0
   45.5670   30.5680   35.9120 H   0  0  0  0  0  0  0  0  0  0  0  0
   46.2700   32.7990   35.3790 H   0  0  0  0  0  0  0  0  0  0  0  0
   47.0930   34.6140   36.9740 O   0  0  0  0  0  0  0  0  0  0  0  0
   46.4010   35.2780   36.6700 H   0  0  0  0  0  0  0  0  0  0  0  0
   44.5520   35.9070   44.6660 C   0  0  0  0  0  0  0  0  0  0  0  0
   45.2730   35.8640   43.4690 C   0  0  0  0  0  0  0  0  0  0  0  0
   46.1560   34.8340   43.2170 C   0  0  0  0  0  0  0  0  0  0  0  0
   46.2590   33.9070   44.1870 N   0  0  0  0  0  0  0  0  0  0  0  0
   45.5710   33.9480   45.3310 C   0  0  0  0  0  0  0  0  0  0  0  0
   44.7230   34.9440   45.5660 N   0  0  0  0  0  0  0  0  0  0  0  0
   43.8780   36.7470   44.7940 H   0  0  0  0  0  0  0  0  0  0  0  0
   45.1400   36.6440   42.7340 H   0  0  0  0  0  0  0  0  0  0  0  0
   46.4030   31.6800   45.9750 C   0  0  0  0  0  0  0  0  0  0  0  0
   45.7920   32.8670   46.2880 C   0  0  0  0  0  0  0  0  0  0  0  0
   45.3700   33.0290   47.5920 C   0  0  0  0  0  0  0  0  0  0  0  0
   44.8730   33.9590   47.9080 H   0  0  0  0  0  0  0  0  0  0  0  0
   45.5050   32.1070   48.6080 C   0  0  0  0  0  0  0  0  0  0  0  0
   45.1560   32.2870   49.6080 H   0  0  0  0  0  0  0  0  0  0  0  0
   46.1240   30.9130   48.2720 C   0  0  0  0  0  0  0  0  0  0  0  0
   46.5600   30.7250   46.9610 C   0  0  0  0  0  0  0  0  0  0  0  0
   47.3020   32.6110   43.7240 H   0  0  0  0  0  0  0  0  0  0  0  0
   46.9550   31.4220   44.3470 S   0  0  0  0  0  0  0  0  0  0  0  0
   45.9430   30.6450   43.5360 O   0  0  0  0  0  0  0  0  0  0  0  0
   48.2310   30.6150   44.4150 O   0  0  0  0  0  0  0  0  0  0  0  0
  2  1  1  0  0  0  0
  2  3  1  0  0  0  0
  3 25  1  0  0  0  0
  4  3  2  0  0  0  0
  4  8  1  0  0  0  0
  5  4  1  0  0  0  0
  6  7  1  0  0  0  0
  6  5  2  0  0  0  0
  7  2  2  0  0  0  0
  9  5  1  0  0  0  0
 10  6  1  0  0  0  0
 11 12  1  0  0  0  0
 11  7  1  0  0  0  0
 12 17  1  0  0  0  0
 13 18  1  0  0  0  0
 13 12  2  0  0  0  0
 14 13  1  0  0  0  0
 15 14  2  0  0  0  0
 15 16  1  0  0  0  0
 16 11  2  0  0  0  0
 19 14  1  0  0  0  0
 20 15  1  0  0  0  0
 21 16  1  0  0  0  0
 22 21  1  0  0  0  0
 23 29  1  0  0  0  0
 23 28  1  0  0  0  0
 24 23  2  0  0  0  0
 25 24  1  0  0  0  0
 25 26  2  0  0  0  0
 26 27  1  0  0  0  0
 27 28  2  0  0  0  0
 27 32  1  0  0  0  0
 30 24  1  0  0  0  0
 31 32  2  0  0  0  0
 31 38  1  0  0  0  0
 32 33  1  0  0  0  0
 33 34  1  0  0  0  0
 33 35  2  0  0  0  0
 35 36  1  0  0  0  0
 37 35  1  0  0  0  0
 38 37  2  0  0  0  0
 39 40  1  0  0  0  0
 40 42  2  0  0  0  0
 40 31  1  0  0  0  0
 41 40  2  0  0  0  0
M  END
>  <minimizedAffinity>
-7.47976494

>  <minimizedRMSD>
0.241510317

$$$$
