
 OpenBabel03252509083D

 44 47  0  0  0  0  0  0  0  0999 V2000
   47.7180   31.8660   38.9120 C   0  0  0  0  0  0  0  0  0  0  0  0
   47.2240   33.1370   38.8740 C   0  0  0  0  0  0  0  0  0  0  0  0
   47.8260   34.0810   38.0590 C   0  0  0  0  0  0  0  0  0  0  0  0
   48.9120   33.7590   37.2900 C   0  0  0  0  0  0  0  0  0  0  0  0
   49.4500   32.4780   37.2980 C   0  0  0  0  0  0  0  0  0  0  0  0
   48.8300   31.5390   38.1250 C   0  0  0  0  0  0  0  0  0  0  0  0
   47.4610   35.0870   38.0060 H   0  0  0  0  0  0  0  0  0  0  0  0
   49.4110   34.4420   36.6510 H   0  0  0  0  0  0  0  0  0  0  0  0
   50.2880   32.1280   36.7400 H   0  0  0  0  0  0  0  0  0  0  0  0
   49.2240   30.5110   38.1600 H   0  0  0  0  0  0  0  0  0  0  0  0
   45.2830   35.2540   43.1660 Cl  0  0  0  0  0  0  0  0  0  0  0  0
   45.1530   34.5280   41.5820 C   0  0  0  0  0  0  0  0  0  0  0  0
   46.2610   34.1440   40.8970 C   0  0  0  0  0  0  0  0  0  0  0  0
   46.0680   33.5880   39.6400 C   0  0  0  0  0  0  0  0  0  0  0  0
   44.8250   33.4400   39.1180 C   0  0  0  0  0  0  0  0  0  0  0  0
   43.7170   33.8210   39.7970 C   0  0  0  0  0  0  0  0  0  0  0  0
   43.8950   34.3710   41.0470 C   0  0  0  0  0  0  0  0  0  0  0  0
   44.7040   33.0140   38.1410 H   0  0  0  0  0  0  0  0  0  0  0  0
   42.7400   33.6860   39.3530 H   0  0  0  0  0  0  0  0  0  0  0  0
   42.9970   34.6720   41.5860 H   0  0  0  0  0  0  0  0  0  0  0  0
   49.5590   35.7060   41.9120 C   0  0  0  0  0  0  0  0  0  0  0  0
   48.2970   35.5230   41.3380 C   0  0  0  0  0  0  0  0  0  0  0  0
   47.5800   34.3450   41.4910 C   0  0  0  0  0  0  0  0  0  0  0  0
   48.1930   33.4130   42.2270 N   0  0  0  0  0  0  0  0  0  0  0  0
   49.4010   33.5770   42.7810 C   0  0  0  0  0  0  0  0  0  0  0  0
   50.0780   34.7140   42.6250 N   0  0  0  0  0  0  0  0  0  0  0  0
   50.0600   36.6330   41.7570 H   0  0  0  0  0  0  0  0  0  0  0  0
   47.8570   36.3290   40.7490 H   0  0  0  0  0  0  0  0  0  0  0  0
   49.6960   32.6860   43.3330 H   0  0  0  0  0  0  0  0  0  0  0  0
   47.0780   30.6860   39.9400 S   0  0  0  0  0  0  0  0  0  0  0  0
   47.3650   29.2890   39.2920 O   0  0  0  0  0  0  0  0  0  0  0  0
   47.9170   30.6670   41.1850 O   0  0  0  0  0  0  0  0  0  0  0  0
   44.4450   30.1090   39.2390 C   0  0  0  0  0  0  0  0  0  0  0  0
   45.4010   30.4320   40.2320 C   0  0  0  0  0  0  0  0  0  0  0  0
   44.7700   30.5020   41.4680 C   0  0  0  0  0  0  0  0  0  0  0  0
   45.3810   30.7230   42.3330 H   0  0  0  0  0  0  0  0  0  0  0  0
   43.4380   30.3050   41.7470 C   0  0  0  0  0  0  0  0  0  0  0  0
   43.0490   30.3850   42.7500 H   0  0  0  0  0  0  0  0  0  0  0  0
   42.6380   30.0020   40.6920 C   0  0  0  0  0  3  0  0  0  0  0  0
   43.0960   29.8920   39.4070 C   0  0  0  0  0  3  0  0  0  0  0  0
   46.3820   30.0610   37.4900 H   0  0  0  0  0  0  0  0  0  0  0  0
   45.0470   29.8940   37.5830 S   0  0  0  0  0  0  0  0  0  0  0  0
   44.4250   30.9500   36.6790 O   0  0  0  0  0  0  0  0  0  0  0  0
   44.5300   28.5880   37.1020 O   0  0  0  0  0  0  0  0  0  0  0  0
  1 30  1  0  0  0  0
  2  1  1  0  0  0  0
  2 14  1  0  0  0  0
  3  2  2  0  0  0  0
  4  5  2  0  0  0  0
  4  3  1  0  0  0  0
  5  6  1  0  0  0  0
  6 10  1  0  0  0  0
  6  1  2  0  0  0  0
  7  3  1  0  0  0  0
  8  4  1  0  0  0  0
  9  5  1  0  0  0  0
 12 11  1  0  0  0  0
 13 23  1  0  0  0  0
 13 12  2  0  0  0  0
 14 13  1  0  0  0  0
 15 14  2  0  0  0  0
 15 16  1  0  0  0  0
 16 17  2  0  0  0  0
 17 12  1  0  0  0  0
 17 20  1  0  0  0  0
 18 15  1  0  0  0  0
 19 16  1  0  0  0  0
 21 26  1  0  0  0  0
 22 23  1  0  0  0  0
 22 21  2  0  0  0  0
 23 24  2  0  0  0  0
 24 25  1  0  0  0  0
 25 29  1  0  0  0  0
 26 25  2  0  0  0  0
 27 21  1  0  0  0  0
 28 22  1  0  0  0  0
 30 34  1  0  0  0  0
 30 32  2  0  0  0  0
 31 30  2  0  0  0  0
 33 40  2  0  0  0  0
 33 34  1  0  0  0  0
 34 35  2  0  0  0  0
 35 37  1  0  0  0  0
 35 36  1  0  0  0  0
 37 38  1  0  0  0  0
 39 37  2  0  0  0  0
 40 39  1  0  0  0  0
 41 42  1  0  0  0  0
 42 33  1  0  0  0  0
 43 42  2  0  0  0  0
 44 42  2  0  0  0  0
M  END
>  <minimizedAffinity>
-4.55246687

>  <minimizedRMSD>
0.918316603

$$$$
