
 OpenBabel03242518023D

 40 42  0  0  0  0  0  0  0  0999 V2000
   46.4850   31.5030   46.3640 C   0  0  0  0  0  0  0  0  0  0  0  0
   46.1270   30.5530   45.8630 H   0  0  0  0  0  0  0  0  0  0  0  0
   45.5860   31.9050   46.8440 H   0  0  0  0  0  0  0  0  0  0  0  0
   47.8760   31.9760   48.3790 C   0  0  0  0  0  0  0  0  0  0  0  0
   47.5070   31.1110   47.3110 C   0  0  0  0  0  0  0  0  0  0  0  0
   48.1820   29.8880   47.2380 C   0  0  0  0  0  0  0  0  0  0  0  0
   49.1330   29.6030   48.1720 N   0  0  0  0  0  0  0  0  0  0  0  0
   49.4460   30.4410   49.1540 C   0  0  0  0  0  0  0  0  0  0  0  0
   48.8310   31.6110   49.2590 N   0  0  0  0  0  0  0  0  0  0  0  0
   47.4040   32.9440   48.5110 H   0  0  0  0  0  0  0  0  0  0  0  0
   47.9490   29.1880   46.4520 H   0  0  0  0  0  0  0  0  0  0  0  0
   51.8090   30.3570   49.9400 C   0  0  0  0  0  0  0  0  0  0  0  0
   50.4730   30.0780   50.1230 C   0  0  0  0  0  0  0  0  0  0  0  0
   50.1410   29.4230   51.2930 C   0  0  0  0  0  0  0  0  0  0  0  0
   49.1080   29.1610   51.5240 H   0  0  0  0  0  0  0  0  0  0  0  0
   51.0570   29.0490   52.2550 C   0  0  0  0  0  0  0  0  0  0  0  0
   50.7950   28.5360   53.1690 H   0  0  0  0  0  0  0  0  0  0  0  0
   52.3930   29.3320   52.0620 C   0  0  0  0  0  3  0  0  0  0  0  0
   52.7280   29.9860   50.8940 C   0  0  0  0  0  3  0  0  0  0  0  0
   51.4150   32.0920   48.0320 H   0  0  0  0  0  0  0  0  0  0  0  0
   52.3240   31.1830   48.4890 S   0  0  0  0  0  0  0  0  0  0  0  0
   52.7960   30.2280   47.4180 O   0  0  0  0  0  0  0  0  0  0  0  0
   53.5580   32.0190   48.8120 O   0  0  0  0  0  0  0  0  0  0  0  0
   47.1240   32.4300   45.3480 C   0  0  0  0  0  0  0  0  0  0  0  0
   47.4140   31.8040   44.4820 H   0  0  0  0  0  0  0  0  0  0  0  0
   48.1080   32.8420   45.7240 H   0  0  0  0  0  0  0  0  0  0  0  0
   46.4880   34.1810   43.7480 C   0  0  0  0  0  0  0  0  0  0  0  0
   46.3110   33.5930   44.9830 C   0  0  0  0  0  0  0  0  0  0  0  0
   45.3960   34.0400   45.8980 C   0  0  0  0  0  0  0  0  0  0  0  0
   44.6160   35.1310   45.5700 C   0  0  0  0  0  0  0  0  0  0  0  0
   44.7300   35.7710   44.3680 C   0  0  0  0  0  0  0  0  0  0  0  0
   45.6800   35.2620   43.4860 C   0  0  0  0  0  0  0  0  0  0  0  0
   45.1890   33.6610   46.8650 H   0  0  0  0  0  0  0  0  0  0  0  0
   43.8620   35.5590   46.2340 H   0  0  0  0  0  0  0  0  0  0  0  0
   44.1510   36.6280   44.0500 H   0  0  0  0  0  0  0  0  0  0  0  0
   45.7890   35.7560   42.5210 H   0  0  0  0  0  0  0  0  0  0  0  0
   47.6480   33.6450   42.5510 S   0  0  0  0  0  0  0  0  0  0  0  0
   49.0540   34.1130   42.8680 O   0  0  0  0  0  0  0  0  0  0  0  0
   47.3220   34.3060   41.2330 O   0  0  0  0  0  0  0  0  0  0  0  0
   47.6260   32.3150   42.3210 H   0  0  0  0  0  0  0  0  0  0  0  0
  1  3  1  0  0  0  0
  1  5  1  0  0  0  0
  2  1  1  0  0  0  0
  4 10  1  0  0  0  0
  4  9  1  0  0  0  0
  5  4  2  0  0  0  0
  6  5  1  0  0  0  0
  6  7  2  0  0  0  0
  7  8  1  0  0  0  0
  8  9  2  0  0  0  0
  8 13  1  0  0  0  0
 11  6  1  0  0  0  0
 12 13  2  0  0  0  0
 12 19  1  0  0  0  0
 13 14  1  0  0  0  0
 14 15  1  0  0  0  0
 14 16  2  0  0  0  0
 16 17  1  0  0  0  0
 18 16  1  0  0  0  0
 19 18  2  0  0  0  0
 20 21  1  0  0  0  0
 21 23  2  0  0  0  0
 21 12  1  0  0  0  0
 22 21  2  0  0  0  0
 24 26  1  0  0  0  0
 24  1  1  0  0  0  0
 25 24  1  0  0  0  0
 27 28  1  0  0  0  0
 28 24  1  0  0  0  0
 28 29  2  0  0  0  0
 29 33  1  0  0  0  0
 30 29  1  0  0  0  0
 30 34  1  0  0  0  0
 31 30  2  0  0  0  0
 32 27  2  0  0  0  0
 32 31  1  0  0  0  0
 35 31  1  0  0  0  0
 36 32  1  0  0  0  0
 37 38  2  0  0  0  0
 37 27  1  0  0  0  0
 39 37  2  0  0  0  0
 40 37  1  0  0  0  0
M  END
>  <minimizedAffinity>
-5.32255411

>  <minimizedRMSD>
0.876378119

$$$$
