
 OpenBabel03242519313D

 51 54  0  0  0  0  0  0  0  0999 V2000
   50.4660   31.3420   42.5930 C   0  0  0  0  0  0  0  0  0  0  0  0
   51.4180   31.1700   41.6630 N   0  0  0  0  0  0  0  0  0  0  0  0
   52.0300   29.9710   41.8670 C   0  0  0  0  0  0  0  0  0  0  0  0
   51.4360   29.4140   42.9390 N   0  0  0  0  0  0  0  0  0  0  0  0
   50.4870   30.2400   43.3840 N   0  0  0  0  0  0  0  0  0  0  0  0
   52.8420   29.5500   41.2750 H   0  0  0  0  0  0  0  0  0  0  0  0
   47.7460   33.8060   42.8710 C   0  0  0  0  0  0  0  0  0  0  0  0
   48.4410   34.9820   42.4610 C   0  0  0  0  0  0  0  0  0  0  0  0
   49.7940   34.9090   42.1040 C   0  0  0  0  0  0  0  0  0  0  0  0
   50.3780   33.6740   42.1750 N   0  0  0  0  0  0  0  0  0  0  0  0
   49.6700   32.5600   42.5770 C   0  0  0  0  0  0  0  0  0  0  0  0
   48.3950   32.6450   42.9100 N   0  0  0  0  0  0  0  0  0  0  0  0
   48.0410   35.9830   42.3830 H   0  0  0  0  0  0  0  0  0  0  0  0
   50.3570   35.7530   41.7920 H   0  0  0  0  0  0  0  0  0  0  0  0
   46.3440   34.0170   43.2200 C   0  0  0  0  0  0  0  0  0  0  0  0
   45.6900   35.0760   42.4900 C   0  0  0  0  0  0  0  0  0  0  0  0
   45.2990   36.2470   43.3050 C   0  0  0  0  0  0  0  0  0  0  0  0
   44.4380   35.8270   44.4960 C   0  0  0  0  0  0  0  0  0  0  0  0
   44.9160   34.5960   45.1880 C   0  0  0  0  0  0  0  0  0  0  0  0
   46.3370   34.2460   44.7700 C   0  0  0  0  0  0  0  0  0  0  0  0
   45.7600   33.0520   43.1450 H   0  0  0  0  0  0  0  0  0  0  0  0
   44.7710   34.7300   41.9470 H   0  0  0  0  0  0  0  0  0  0  0  0
   46.3630   35.4540   41.6730 H   0  0  0  0  0  0  0  0  0  0  0  0
   46.1090   36.8620   43.7130 H   0  0  0  0  0  0  0  0  0  0  0  0
   44.6430   36.9430   42.7090 H   0  0  0  0  0  0  0  0  0  0  0  0
   43.3640   35.7700   44.1650 H   0  0  0  0  0  0  0  0  0  0  0  0
   44.4510   36.6660   45.2410 H   0  0  0  0  0  0  0  0  0  0  0  0
   44.9050   34.6320   46.2800 H   0  0  0  0  0  0  0  0  0  0  0  0
   44.2880   33.7420   44.8200 H   0  0  0  0  0  0  0  0  0  0  0  0
   47.0430   35.0650   45.0210 H   0  0  0  0  0  0  0  0  0  0  0  0
   46.6330   33.3140   45.2630 H   0  0  0  0  0  0  0  0  0  0  0  0
   51.7580   28.1530   43.5550 C   0  0  0  0  0  0  0  0  0  0  0  0
   52.7670   27.8080   43.3840 H   0  0  0  0  0  0  0  0  0  0  0  0
   51.0860   27.3680   43.1190 H   0  0  0  0  0  0  0  0  0  0  0  0
   51.4780   28.2240   44.9910 C   0  0  0  0  0  0  0  0  0  0  0  0
   52.1730   28.6320   46.0510 C   0  0  0  0  0  0  0  0  0  0  0  0
   51.6630   28.7040   47.5020 C   0  0  0  0  0  0  0  0  0  0  0  0
   51.9760   27.7880   47.9950 H   0  0  0  0  0  0  0  0  0  0  0  0
   50.5400   28.7220   47.4140 H   0  0  0  0  0  0  0  0  0  0  0  0
   51.3780   30.4340   49.2080 C   0  0  0  0  0  0  0  0  0  0  0  0
   52.0900   29.9430   48.1500 C   0  0  0  0  0  0  0  0  0  0  0  0
   53.2180   30.6380   47.7080 C   0  0  0  0  0  0  0  0  0  0  0  0
   53.7330   30.1830   46.8580 H   0  0  0  0  0  0  0  0  0  0  0  0
   53.6630   31.8080   48.2860 C   0  0  0  0  0  0  0  0  0  0  0  0
   54.5280   32.3150   47.9260 H   0  0  0  0  0  0  0  0  0  0  0  0
   52.9600   32.3090   49.3460 C   0  0  0  0  0  0  0  0  0  0  0  0
   51.8470   31.6170   49.7760 C   0  0  0  0  0  0  0  0  0  0  0  0
   49.7000   28.5160   49.3030 H   0  0  0  0  0  0  0  0  0  0  0  0
   49.9610   29.7370   49.9060 S   0  0  0  0  0  0  0  0  0  0  0  0
   50.1500   29.4810   51.3830 O   0  0  0  0  0  0  0  0  0  0  0  0
   48.7390   30.5950   49.7700 O   0  0  0  0  0  0  0  0  0  0  0  0
  1  5  2  0  0  0  0
  2  3  2  0  0  0  0
  2  1  1  0  0  0  0
  3  4  1  0  0  0  0
  4  5  1  0  0  0  0
  4 32  1  0  0  0  0
  6  3  1  0  0  0  0
  7 12  1  0  0  0  0
  7 15  1  0  0  0  0
  8  7  2  0  0  0  0
  9 10  2  0  0  0  0
  9  8  1  0  0  0  0
 10 11  1  0  0  0  0
 11  1  1  0  0  0  0
 11 12  2  0  0  0  0
 13  8  1  0  0  0  0
 14  9  1  0  0  0  0
 15 20  1  0  0  0  0
 16 15  1  0  0  0  0
 16 17  1  0  0  0  0
 17 24  1  0  0  0  0
 17 18  1  0  0  0  0
 18 19  1  0  0  0  0
 18 27  1  0  0  0  0
 19 28  1  0  0  0  0
 20 30  1  0  0  0  0
 20 19  1  0  0  0  0
 20 31  1  0  0  0  0
 21 15  1  0  0  0  0
 22 16  1  0  0  0  0
 23 16  1  0  0  0  0
 25 17  1  0  0  0  0
 26 18  1  0  0  0  0
 29 19  1  0  0  0  0
 32 35  1  0  0  0  0
 33 32  1  0  0  0  0
 34 32  1  0  0  0  0
 35 36  2  0  0  0  0
 36 37  1  0  0  0  0
 37 38  1  0  0  0  0
 37 41  1  0  0  0  0
 39 37  1  0  0  0  0
 40 47  1  0  0  0  0
 40 49  1  0  0  0  0
 41 40  2  0  0  0  0
 42 41  1  0  0  0  0
 42 44  2  0  0  0  0
 43 42  1  0  0  0  0
 44 46  1  0  0  0  0
 45 44  1  0  0  0  0
 46 47  2  0  0  0  0
 48 49  1  0  0  0  0
 49 50  2  0  0  0  0
 51 49  2  0  0  0  0
M  END
>  <minimizedAffinity>
-5.09708023

>  <minimizedRMSD>
3.21202493

$$$$
