
 OpenBabel03242512593D

 38 41  0  0  0  0  0  0  0  0999 V2000
   45.8690   32.5910   41.8310 F   0  0  0  0  0  0  0  0  0  0  0  0
   46.7990   33.5550   41.5670 C   0  0  0  0  0  0  0  0  0  0  0  0
   47.0130   34.5940   42.4360 C   0  0  0  0  0  0  0  0  0  0  0  0
   47.9620   35.5140   42.0920 C   0  0  0  0  0  0  0  0  0  0  0  0
   48.7100   35.4540   40.9290 C   0  0  0  0  0  0  0  0  0  0  0  0
   48.4520   34.3980   40.1040 C   0  0  0  0  0  0  0  0  0  0  0  0
   47.5100   33.4460   40.3990 C   0  0  0  0  0  0  0  0  0  0  0  0
   48.1170   36.3320   42.7960 H   0  0  0  0  0  0  0  0  0  0  0  0
   49.4540   36.2110   40.7000 H   0  0  0  0  0  0  0  0  0  0  0  0
   48.9990   34.2890   39.1780 H   0  0  0  0  0  0  0  0  0  0  0  0
   44.4770   35.5760   45.0800 C   0  0  0  0  0  0  0  0  0  0  0  0
   45.2120   35.5700   43.8890 C   0  0  0  0  0  0  0  0  0  0  0  0
   46.2150   34.6440   43.6620 C   0  0  0  0  0  0  0  0  0  0  0  0
   46.4260   33.7480   44.6810 N   0  0  0  0  0  0  0  0  0  0  0  0
   45.7080   33.7690   45.8200 C   0  0  0  0  0  0  0  0  0  0  0  0
   44.7460   34.6690   46.0220 N   0  0  0  0  0  0  0  0  0  0  0  0
   43.7010   36.3170   45.2190 H   0  0  0  0  0  0  0  0  0  0  0  0
   45.0330   36.2880   43.0910 H   0  0  0  0  0  0  0  0  0  0  0  0
   46.0190   32.9840   46.5080 H   0  0  0  0  0  0  0  0  0  0  0  0
   47.2530   32.3230   39.4980 C   0  0  0  0  0  0  0  0  0  0  0  0
   48.1440   31.3210   39.1480 C   0  0  0  0  0  0  0  0  0  0  0  0
   47.4880   30.4550   38.2680 C   0  0  0  0  0  0  0  0  0  0  0  0
   46.2590   30.9550   38.1230 N   0  0  0  0  0  0  0  0  0  0  0  0
   46.0980   32.0610   38.8430 N   0  0  0  0  0  0  0  0  0  0  0  0
   49.1540   31.3070   39.5480 H   0  0  0  0  0  0  0  0  0  0  0  0
   48.0070   29.6090   37.8770 H   0  0  0  0  0  0  0  0  0  0  0  0
   44.9440   30.6620   35.9970 C   0  0  0  0  0  0  0  0  0  0  0  0
   45.3430   30.2770   37.2700 C   0  0  0  0  0  0  0  0  0  0  0  0
   44.8090   29.1040   37.7980 C   0  0  0  0  0  0  0  0  0  0  0  0
   45.0770   28.7350   38.8000 H   0  0  0  0  0  0  0  0  0  0  0  0
   43.8980   28.3240   37.0910 C   0  0  0  0  0  0  0  0  0  0  0  0
   43.4920   27.4030   37.5320 H   0  0  0  0  0  0  0  0  0  0  0  0
   43.5110   28.7330   35.8120 C   0  0  0  0  0  3  0  0  0  0  0  0
   44.0420   29.8910   35.2930 C   0  0  0  0  0  3  0  0  0  0  0  0
   47.0320   32.0580   35.3650 H   0  0  0  0  0  0  0  0  0  0  0  0
   45.6520   32.1420   35.3930 S   0  0  0  0  0  0  0  0  0  0  0  0
   45.1790   33.3390   36.1720 O   0  0  0  0  0  0  0  0  0  0  0  0
   45.2010   32.2800   33.9580 O   0  0  0  0  0  0  0  0  0  0  0  0
  2  1  1  0  0  0  0
  2  3  1  0  0  0  0
  3 13  1  0  0  0  0
  4  3  2  0  0  0  0
  4  8  1  0  0  0  0
  5  4  1  0  0  0  0
  6  7  1  0  0  0  0
  6  5  2  0  0  0  0
  7  2  2  0  0  0  0
  9  5  1  0  0  0  0
 10  6  1  0  0  0  0
 11 17  1  0  0  0  0
 11 16  1  0  0  0  0
 12 11  2  0  0  0  0
 13 12  1  0  0  0  0
 13 14  2  0  0  0  0
 14 15  1  0  0  0  0
 15 16  2  0  0  0  0
 15 19  1  0  0  0  0
 18 12  1  0  0  0  0
 20  7  1  0  0  0  0
 21 20  1  0  0  0  0
 21 25  1  0  0  0  0
 22 21  2  0  0  0  0
 23 22  1  0  0  0  0
 23 24  1  0  0  0  0
 24 20  2  0  0  0  0
 26 22  1  0  0  0  0
 27 28  1  0  0  0  0
 28 29  2  0  0  0  0
 28 23  1  0  0  0  0
 29 30  1  0  0  0  0
 31 32  1  0  0  0  0
 31 29  1  0  0  0  0
 33 31  2  0  0  0  0
 34 33  1  0  0  0  0
 34 27  2  0  0  0  0
 35 36  1  0  0  0  0
 36 27  1  0  0  0  0
 36 37  2  0  0  0  0
 38 36  2  0  0  0  0
M  END
>  <minimizedAffinity>
-5.1424017

>  <minimizedRMSD>
1.82010078

$$$$
