
 OpenBabel03252507323D

 52 55  0  0  1  0  0  0  0  0999 V2000
   46.9730   32.7330   45.5510 C   0  0  0  0  0  0  0  0  0  0  0  0
   45.8900   33.4110   46.0940 C   0  0  0  0  0  0  0  0  0  0  0  0
   45.2090   34.3780   45.3180 C   0  0  0  0  0  0  0  0  0  0  0  0
   45.6910   34.5880   44.0290 N   0  0  0  0  0  0  0  0  0  0  0  0
   46.7420   33.9010   43.5660 C   0  0  0  0  0  0  0  0  0  0  0  0
   47.3710   32.9910   44.3110 N   0  0  0  0  0  0  0  0  0  0  0  0
   45.3870   33.4390   47.0380 H   0  0  0  0  0  0  0  0  0  0  0  0
   44.3770   34.9830   45.5580 H   0  0  0  0  0  0  0  0  0  0  0  0
   47.6200   31.7370   46.3790 C   0  0  2  0  0  0  0  0  0  0  0  0
   47.3790   30.2950   45.8350 C   0  0  0  0  0  0  0  0  0  0  0  0
   48.1970   29.3300   46.6200 C   0  0  0  0  0  0  0  0  0  0  0  0
   48.1790   29.5110   48.1010 C   0  0  0  0  0  0  0  0  0  0  0  0
   48.1720   30.8860   48.5330 C   0  0  0  0  0  0  0  0  0  0  0  0
   47.1780   31.7780   47.7590 C   0  0  2  0  0  0  0  0  0  0  0  0
   48.7200   31.8460   46.2810 H   0  0  0  0  0  0  0  0  0  0  0  0
   46.3070   30.0830   45.7820 H   0  0  0  0  0  0  0  0  0  0  0  0
   47.7420   30.3490   44.7880 H   0  0  0  0  0  0  0  0  0  0  0  0
   49.1930   29.3020   46.1360 H   0  0  0  0  0  0  0  0  0  0  0  0
   47.7620   28.3070   46.4170 H   0  0  0  0  0  0  0  0  0  0  0  0
   49.2920   29.2520   48.3260 H   0  0  0  0  0  0  0  0  0  0  0  0
   47.8070   28.6900   48.7160 H   0  0  0  0  0  0  0  0  0  0  0  0
   49.1280   31.4640   48.5210 H   0  0  0  0  0  0  0  0  0  0  0  0
   47.8160   30.9520   49.6010 H   0  0  0  0  0  0  0  0  0  0  0  0
   47.2960   32.7270   48.2850 H   0  0  0  0  0  0  0  0  0  0  0  0
   45.8420   31.1910   47.8750 N   0  0  0  0  0  0  0  0  0  0  0  0
   45.1500   30.6500   48.9730 C   0  0  0  0  0  0  0  0  0  0  0  0
   44.5990   31.3770   49.8770 O   0  0  0  0  0  0  0  0  0  0  0  0
   45.1000   29.2250   49.0040 N   0  0  0  0  0  0  0  0  0  0  0  0
   45.2030   31.0400   47.0050 H   0  0  0  0  0  0  0  0  0  0  0  0
   44.6630   28.6340   48.2670 H   0  0  0  0  0  0  0  0  0  0  0  0
   45.3860   28.3980   49.5880 H   0  0  0  0  0  0  0  0  0  0  0  0
   47.2130   34.1860   42.2080 C   0  0  0  0  0  0  0  0  0  0  0  0
   48.1970   35.1100   41.9740 C   0  0  0  0  0  0  0  0  0  0  0  0
   48.6690   35.4090   40.7130 C   0  0  0  0  0  0  0  0  0  0  0  0
   48.0830   34.7080   39.6650 C   0  0  0  0  0  0  0  0  0  0  0  0
   47.0950   33.7780   39.8870 C   0  0  0  0  0  0  0  0  0  0  0  0
   46.6840   33.5380   41.1610 N   0  0  0  0  0  0  0  0  0  0  0  0
   48.6100   35.6190   42.8230 H   0  0  0  0  0  0  0  0  0  0  0  0
   49.4440   36.1450   40.5880 H   0  0  0  0  0  0  0  0  0  0  0  0
   48.4670   34.9580   38.6950 H   0  0  0  0  0  0  0  0  0  0  0  0
   45.1050   32.9890   38.6720 C   0  0  0  0  0  0  0  0  0  0  0  0
   46.4860   33.0480   38.7970 C   0  0  0  0  0  0  0  0  0  0  0  0
   47.2310   32.3860   37.8450 C   0  0  0  0  0  0  0  0  0  0  0  0
   48.3110   32.3780   37.8640 H   0  0  0  0  0  0  0  0  0  0  0  0
   46.6950   31.6770   36.7890 C   0  0  0  0  0  0  0  0  0  0  0  0
   47.3070   31.1640   36.0520 H   0  0  0  0  0  0  0  0  0  0  0  0
   45.3410   31.6060   36.6460 C   0  0  0  0  0  3  0  0  0  0  0  0
   44.5830   32.2640   37.5910 C   0  0  0  0  0  3  0  0  0  0  0  0
   44.6350   34.8030   40.4720 H   0  0  0  0  0  0  0  0  0  0  0  0
   44.0200   33.7740   39.7940 S   0  0  0  0  0  0  0  0  0  0  0  0
   42.9280   34.4530   38.9740 O   0  0  0  0  0  0  0  0  0  0  0  0
   43.3470   32.8010   40.7240 O   0  0  0  0  0  0  0  0  0  0  0  0
  1  2  1  0  0  0  0
  1  9  1  0  0  0  0
  2  7  1  0  0  0  0
  3  8  1  0  0  0  0
  3  2  2  0  0  0  0
  4  3  1  0  0  0  0
  5  4  2  0  0  0  0
  5  6  1  0  0  0  0
  6  1  2  0  0  0  0
  9 15  1  6  0  0  0
  9 14  1  0  0  0  0
 10  9  1  0  0  0  0
 10 11  1  0  0  0  0
 11 12  1  0  0  0  0
 12 20  1  0  0  0  0
 12 13  1  0  0  0  0
 12 21  1  0  0  0  0
 13 23  1  0  0  0  0
 14 25  1  0  0  0  0
 14 24  1  1  0  0  0
 14 13  1  0  0  0  0
 16 10  1  0  0  0  0
 17 10  1  0  0  0  0
 18 11  1  0  0  0  0
 19 11  1  0  0  0  0
 22 13  1  0  0  0  0
 25 26  1  0  0  0  0
 26 28  1  0  0  0  0
 26 27  2  0  0  0  0
 28 31  1  0  0  0  0
 29 25  1  0  0  0  0
 30 28  1  0  0  0  0
 32  5  1  0  0  0  0
 33 32  1  0  0  0  0
 33 38  1  0  0  0  0
 34 33  2  0  0  0  0
 35 36  2  0  0  0  0
 35 34  1  0  0  0  0
 36 37  1  0  0  0  0
 37 32  2  0  0  0  0
 39 34  1  0  0  0  0
 40 35  1  0  0  0  0
 41 42  1  0  0  0  0
 41 50  1  0  0  0  0
 42 36  1  0  0  0  0
 43 44  1  0  0  0  0
 43 42  2  0  0  0  0
 45 43  1  0  0  0  0
 46 45  1  0  0  0  0
 47 45  2  0  0  0  0
 47 48  1  0  0  0  0
 48 41  2  0  0  0  0
 50 49  1  0  0  0  0
 50 52  2  0  0  0  0
 51 50  2  0  0  0  0
M  END
>  <minimizedAffinity>
-6.46143913

>  <minimizedRMSD>
0.309149951

$$$$
