
 OpenBabel03252507043D

 50 53  0  0  0  0  0  0  0  0999 V2000
   42.9770   30.7280   40.7230 N   0  0  0  0  0  0  0  0  0  0  0  0
   42.1180   30.0170   41.6190 C   0  0  0  0  0  0  0  0  0  0  0  0
   40.7690   30.5200   41.1050 C   0  0  0  0  0  0  0  0  0  0  0  0
   40.5190   30.2030   39.7080 C   0  0  0  0  0  0  0  0  0  0  0  0
   41.6500   29.9800   38.8330 C   0  0  0  0  0  0  0  0  0  0  0  0
   43.0450   30.2720   39.3180 C   0  0  0  0  0  0  0  0  0  0  0  0
   42.1580   28.9430   41.6470 H   0  0  0  0  0  0  0  0  0  0  0  0
   42.2670   30.3950   42.6490 H   0  0  0  0  0  0  0  0  0  0  0  0
   40.0140   30.0060   41.7680 H   0  0  0  0  0  0  0  0  0  0  0  0
   40.7120   31.5850   41.3890 H   0  0  0  0  0  0  0  0  0  0  0  0
   39.8920   31.0160   39.2610 H   0  0  0  0  0  0  0  0  0  0  0  0
   39.8730   29.2790   39.6330 H   0  0  0  0  0  0  0  0  0  0  0  0
   41.5770   29.6420   37.8410 H   0  0  0  0  0  0  0  0  0  0  0  0
   43.7250   31.8020   41.0050 C   0  0  0  0  0  0  0  0  0  0  0  0
   44.1990   32.2820   40.0800 H   0  0  0  0  0  0  0  0  0  0  0  0
   43.1420   32.6360   41.4510 H   0  0  0  0  0  0  0  0  0  0  0  0
   44.8780   31.5150   41.8970 C   0  0  0  0  0  0  0  0  0  0  0  0
   45.2220   30.4440   41.8480 H   0  0  0  0  0  0  0  0  0  0  0  0
   44.5850   31.7100   42.9650 H   0  0  0  0  0  0  0  0  0  0  0  0
   45.9590   32.4620   41.5700 C   0  0  0  0  0  0  0  0  0  0  0  0
   45.7610   33.8180   41.6840 C   0  0  0  0  0  0  0  0  0  0  0  0
   46.8040   34.6680   41.3550 C   0  0  0  0  0  0  0  0  0  0  0  0
   47.9830   34.1120   40.9330 N   0  0  0  0  0  0  0  0  0  0  0  0
   48.1420   32.8020   40.8360 C   0  0  0  0  0  0  0  0  0  0  0  0
   47.1170   32.0020   41.1590 N   0  0  0  0  0  0  0  0  0  0  0  0
   44.9400   34.4360   42.0040 H   0  0  0  0  0  0  0  0  0  0  0  0
   46.8360   35.7510   41.3780 H   0  0  0  0  0  0  0  0  0  0  0  0
   49.4410   32.2900   40.4040 C   0  0  0  0  0  0  0  0  0  0  0  0
   50.4990   32.1960   41.3040 C   0  0  0  0  0  0  0  0  0  0  0  0
   51.7190   31.7150   40.8770 C   0  0  0  0  0  0  0  0  0  0  0  0
   51.7650   31.3620   39.5500 C   0  0  0  0  0  0  0  0  0  0  0  0
   50.7340   31.4370   38.6130 C   0  0  0  0  0  0  0  0  0  0  0  0
   49.5680   31.9200   39.1110 N   0  0  0  0  0  0  0  0  0  0  0  0
   50.3870   32.4950   42.3380 H   0  0  0  0  0  0  0  0  0  0  0  0
   52.5820   31.6080   41.4900 H   0  0  0  0  0  0  0  0  0  0  0  0
   52.7100   30.9720   39.1520 H   0  0  0  0  0  0  0  0  0  0  0  0
   50.8780   31.1330   37.5960 H   0  0  0  0  0  0  0  0  0  0  0  0
   44.4630   30.0960   38.3720 S   0  0  0  0  0  0  0  0  0  0  0  0
   45.1690   31.6520   36.5610 C   0  0  0  0  0  0  0  0  0  0  0  0
   44.4970   30.4150   36.6820 C   0  0  0  0  0  0  0  0  0  0  0  0
   44.1180   29.8490   35.5090 C   0  0  0  0  0  0  0  0  0  0  0  0
   43.6050   28.9420   35.6650 H   0  0  0  0  0  0  0  0  0  0  0  0
   44.3090   30.3310   34.2510 C   0  0  0  0  0  0  0  0  0  0  0  0
   43.9440   29.7540   33.4370 H   0  0  0  0  0  0  0  0  0  0  0  0
   44.9650   31.5370   34.1900 C   0  0  0  0  0  3  0  0  0  0  0  0
   45.4110   32.2290   35.3060 C   0  0  0  0  0  3  0  0  0  0  0  0
   46.3880   31.9830   38.7910 H   0  0  0  0  0  0  0  0  0  0  0  0
   45.8400   32.7470   37.7830 S   0  0  0  0  0  0  0  0  0  0  0  0
   44.7260   33.6040   38.2990 O   0  0  0  0  0  0  0  0  0  0  0  0
   46.9050   33.5670   37.1450 O   0  0  0  0  0  0  0  0  0  0  0  0
  1 14  1  0  0  0  0
  1  2  1  0  0  0  0
  2  7  1  0  0  0  0
  2  8  1  0  0  0  0
  3 10  1  0  0  0  0
  3  2  1  0  0  0  0
  3  9  1  0  0  0  0
  4  3  1  0  0  0  0
  5  6  2  0  0  0  0
  5  4  1  0  0  0  0
  6  1  1  0  0  0  0
 11  4  1  0  0  0  0
 12  4  1  0  0  0  0
 13  5  1  0  0  0  0
 14 16  1  0  0  0  0
 14 17  1  0  0  0  0
 15 14  1  0  0  0  0
 17 19  1  0  0  0  0
 18 17  1  0  0  0  0
 20 21  1  0  0  0  0
 20 17  1  0  0  0  0
 21 26  1  0  0  0  0
 22 27  1  0  0  0  0
 22 21  2  0  0  0  0
 23 22  1  0  0  0  0
 24 23  2  0  0  0  0
 24 25  1  0  0  0  0
 25 20  2  0  0  0  0
 28 24  1  0  0  0  0
 28 29  1  0  0  0  0
 29 34  1  0  0  0  0
 30 29  2  0  0  0  0
 30 35  1  0  0  0  0
 31 30  1  0  0  0  0
 32 33  1  0  0  0  0
 32 31  2  0  0  0  0
 33 28  2  0  0  0  0
 36 31  1  0  0  0  0
 37 32  1  0  0  0  0
 38  6  1  0  0  0  0
 39 40  1  0  0  0  0
 39 48  1  0  0  0  0
 40 38  1  0  0  0  0
 41 42  1  0  0  0  0
 41 40  2  0  0  0  0
 43 41  1  0  0  0  0
 44 43  1  0  0  0  0
 45 43  2  0  0  0  0
 45 46  1  0  0  0  0
 46 39  2  0  0  0  0
 48 49  2  0  0  0  0
 48 47  1  0  0  0  0
 50 48  2  0  0  0  0
M  END
>  <minimizedAffinity>
-3.56753635

>  <minimizedRMSD>
5.37143803

$$$$
