
 OpenBabel03252507223D

 50 53  0  0  1  0  0  0  0  0999 V2000
   47.5220   33.5920   42.9300 C   0  0  0  0  0  0  0  0  0  0  0  0
   48.6140   33.5390   43.5840 O   0  0  0  0  0  0  0  0  0  0  0  0
   47.3110   32.9090   41.7030 N   0  0  0  0  0  0  0  0  0  0  0  0
   46.1650   32.1390   41.2260 C   0  0  0  0  0  0  0  0  0  0  0  0
   45.7390   32.6330   39.8500 C   0  0  0  0  0  0  0  0  0  0  0  0
   46.8290   32.4200   38.8520 C   0  0  0  0  0  0  0  0  0  0  0  0
   48.1150   32.0370   39.5830 C   0  0  0  0  0  0  0  0  0  0  0  0
   48.3760   32.9350   40.7280 C   0  0  2  0  0  0  0  0  0  0  0  0
   45.3100   32.2840   41.9290 H   0  0  0  0  0  0  0  0  0  0  0  0
   46.3830   31.0610   41.1250 H   0  0  0  0  0  0  0  0  0  0  0  0
   45.5130   33.7310   39.9650 H   0  0  0  0  0  0  0  0  0  0  0  0
   44.8140   32.0540   39.5980 H   0  0  0  0  0  0  0  0  0  0  0  0
   46.6240   31.5970   38.1530 H   0  0  0  0  0  0  0  0  0  0  0  0
   47.0350   33.3200   38.2260 H   0  0  0  0  0  0  0  0  0  0  0  0
   47.9700   30.9840   39.8680 H   0  0  0  0  0  0  0  0  0  0  0  0
   48.9220   32.1450   38.8340 H   0  0  0  0  0  0  0  0  0  0  0  0
   48.3840   33.9910   40.3000 H   0  0  0  0  0  0  0  0  0  0  0  0
   46.0940   35.5650   42.7690 C   0  0  0  0  0  0  0  0  0  0  0  0
   46.4600   34.3890   43.4710 C   0  0  0  0  0  0  0  0  0  0  0  0
   45.7940   34.0530   44.6350 C   0  0  0  0  0  0  0  0  0  0  0  0
   44.8110   34.8770   45.0530 N   0  0  0  0  0  0  0  0  0  0  0  0
   44.4460   36.0010   44.4010 C   0  0  0  0  0  0  0  0  0  0  0  0
   45.0990   36.3280   43.2620 N   0  0  0  0  0  0  0  0  0  0  0  0
   46.6210   35.8150   41.8630 H   0  0  0  0  0  0  0  0  0  0  0  0
   43.6490   36.6240   44.7810 H   0  0  0  0  0  0  0  0  0  0  0  0
   46.1900   32.8550   45.3290 C   0  0  0  0  0  0  0  0  0  0  0  0
   45.8960   31.6340   44.8240 C   0  0  0  0  0  0  0  0  0  0  0  0
   46.2920   30.5070   45.5120 C   0  0  0  0  0  0  0  0  0  0  0  0
   46.9870   30.5650   46.7150 C   0  0  0  0  0  0  0  0  0  0  0  0
   47.2610   31.8390   47.1870 C   0  0  0  0  0  0  0  0  0  0  0  0
   46.8640   32.9210   46.4970 N   0  0  0  0  0  0  0  0  0  0  0  0
   45.3630   31.4280   43.9100 H   0  0  0  0  0  0  0  0  0  0  0  0
   46.0900   29.4990   45.1680 H   0  0  0  0  0  0  0  0  0  0  0  0
   47.2870   29.6540   47.2410 H   0  0  0  0  0  0  0  0  0  0  0  0
   47.8070   31.9120   48.1320 H   0  0  0  0  0  0  0  0  0  0  0  0
   49.7420   32.7090   41.3060 C   0  0  0  0  0  0  0  0  0  0  0  0
   50.5340   33.0880   40.5900 H   0  0  0  0  0  0  0  0  0  0  0  0
   49.9050   33.1290   42.3040 H   0  0  0  0  0  0  0  0  0  0  0  0
   50.9990   30.5450   40.6780 C   0  0  0  0  0  0  0  0  0  0  0  0
   50.0640   31.2450   41.3970 C   0  0  0  0  0  0  0  0  0  0  0  0
   49.4100   30.4660   42.3650 C   0  0  0  0  0  0  0  0  0  0  0  0
   48.6400   30.9440   42.9900 H   0  0  0  0  0  0  0  0  0  0  0  0
   49.6320   29.1300   42.6260 C   0  0  0  0  0  0  0  0  0  0  0  0
   49.0710   28.6230   43.3970 H   0  0  0  0  0  0  0  0  0  0  0  0
   50.5900   28.5020   41.8590 C   0  0  0  0  0  3  0  0  0  0  0  0
   51.2510   29.2170   40.9060 C   0  0  0  0  0  3  0  0  0  0  0  0
   51.3660   32.5370   39.0370 H   0  0  0  0  0  0  0  0  0  0  0  0
   51.8550   31.2980   39.3830 S   0  0  0  0  0  0  0  0  0  0  0  0
   51.6860   30.4550   38.1230 O   0  0  0  0  0  0  0  0  0  0  0  0
   53.3550   31.3240   39.6020 O   0  0  0  0  0  0  0  0  0  0  0  0
  1 19  1  0  0  0  0
  1  2  2  0  0  0  0
  3  1  1  0  0  0  0
  4  3  1  0  0  0  0
  4  9  1  0  0  0  0
  5 11  1  0  0  0  0
  5  4  1  0  0  0  0
  6  7  1  0  0  0  0
  6  5  1  0  0  0  0
  7 15  1  0  0  0  0
  7  8  1  0  0  0  0
  8 17  1  6  0  0  0
  8 36  1  0  0  0  0
  8  3  1  0  0  0  0
 10  4  1  0  0  0  0
 12  5  1  0  0  0  0
 13  6  1  0  0  0  0
 14  6  1  0  0  0  0
 16  7  1  0  0  0  0
 18 23  2  0  0  0  0
 18 19  1  0  0  0  0
 19 20  2  0  0  0  0
 20 21  1  0  0  0  0
 20 26  1  0  0  0  0
 22 25  1  0  0  0  0
 22 21  2  0  0  0  0
 23 22  1  0  0  0  0
 24 18  1  0  0  0  0
 26 31  1  0  0  0  0
 27 26  2  0  0  0  0
 27 28  1  0  0  0  0
 28 29  2  0  0  0  0
 29 30  1  0  0  0  0
 29 34  1  0  0  0  0
 30 35  1  0  0  0  0
 31 30  2  0  0  0  0
 32 27  1  0  0  0  0
 33 28  1  0  0  0  0
 36 40  1  0  0  0  0
 36 38  1  0  0  0  0
 37 36  1  0  0  0  0
 39 46  2  0  0  0  0
 39 40  1  0  0  0  0
 40 41  2  0  0  0  0
 41 43  1  0  0  0  0
 41 42  1  0  0  0  0
 43 44  1  0  0  0  0
 45 43  2  0  0  0  0
 46 45  1  0  0  0  0
 47 48  1  0  0  0  0
 48 50  2  0  0  0  0
 48 39  1  0  0  0  0
 49 48  2  0  0  0  0
M  END
>  <minimizedAffinity>
-5.0504303

>  <minimizedRMSD>
2.69261074

$$$$
