
 OpenBabel03252505513D

 28 29  0  0  0  0  0  0  0  0999 V2000
   46.1850   32.2000   48.2910 C   0  0  0  0  0  0  0  0  0  0  0  0
   46.1190   32.2900   49.3920 H   0  0  0  0  0  0  0  0  0  0  0  0
   47.1930   32.5450   47.9230 H   0  0  0  0  0  0  0  0  0  0  0  0
   47.2640   30.0350   47.9770 C   0  0  0  0  0  0  0  0  0  0  0  0
   46.0820   30.7670   47.9170 C   0  0  0  0  0  0  0  0  0  0  0  0
   44.9160   30.1470   47.5210 C   0  0  0  0  0  0  0  0  0  0  0  0
   44.0330   30.8040   47.5060 H   0  0  0  0  0  0  0  0  0  0  0  0
   44.8360   28.8180   47.1690 C   0  0  0  0  0  0  0  0  0  0  0  0
   43.8940   28.3800   46.8640 H   0  0  0  0  0  0  0  0  0  0  0  0
   46.0080   28.0560   47.2180 C   0  0  0  0  0  3  0  0  0  0  0  0
   47.1540   28.7060   47.6190 C   0  0  0  0  0  3  0  0  0  0  0  0
   49.0180   31.8670   48.0160 H   0  0  0  0  0  0  0  0  0  0  0  0
   48.8280   30.6040   48.4470 S   0  0  0  0  0  0  0  0  0  0  0  0
   49.9330   29.7620   47.8690 O   0  0  0  0  0  0  0  0  0  0  0  0
   48.9670   30.5560   49.9630 O   0  0  0  0  0  0  0  0  0  0  0  0
   45.1520   32.9950   47.7400 O   0  0  0  0  0  0  0  0  0  0  0  0
   44.6320   35.4230   45.1910 C   0  0  0  0  0  0  0  0  0  0  0  0
   45.4750   35.0120   44.1650 C   0  0  0  0  0  0  0  0  0  0  0  0
   46.2440   33.8520   44.3770 C   0  0  0  0  0  0  0  0  0  0  0  0
   46.1290   33.1970   45.5560 N   0  0  0  0  0  0  0  0  0  0  0  0
   45.2920   33.6400   46.5240 C   0  0  0  0  0  0  0  0  0  0  0  0
   44.5550   34.7350   46.3470 N   0  0  0  0  0  0  0  0  0  0  0  0
   44.0360   36.2960   45.0660 H   0  0  0  0  0  0  0  0  0  0  0  0
   46.8940   33.5450   43.5700 H   0  0  0  0  0  0  0  0  0  0  0  0
   45.5090   35.8260   42.9090 C   0  0  0  0  0  0  0  0  0  0  0  0
   45.2130   37.1100   43.3140 F   0  0  0  0  0  0  0  0  0  0  0  0
   44.5280   35.3240   42.0820 F   0  0  0  0  0  0  0  0  0  0  0  0
   46.7630   35.7020   42.3500 F   0  0  0  0  0  0  0  0  0  0  0  0
  1  2  1  0  0  0  0
  3  1  1  0  0  0  0
  4 13  1  0  0  0  0
  5  4  1  0  0  0  0
  5  1  1  0  0  0  0
  6  5  2  0  0  0  0
  7  6  1  0  0  0  0
  8 10  2  0  0  0  0
  8  6  1  0  0  0  0
  9  8  1  0  0  0  0
 10 11  1  0  0  0  0
 11  4  2  0  0  0  0
 12 13  1  0  0  0  0
 13 15  2  0  0  0  0
 14 13  2  0  0  0  0
 16  1  1  0  0  0  0
 17 22  1  0  0  0  0
 18 19  1  0  0  0  0
 18 17  2  0  0  0  0
 19 20  2  0  0  0  0
 20 21  1  0  0  0  0
 21 16  1  0  0  0  0
 22 21  2  0  0  0  0
 23 17  1  0  0  0  0
 24 19  1  0  0  0  0
 25 26  1  0  0  0  0
 25 18  1  0  0  0  0
 27 25  1  0  0  0  0
 28 25  1  0  0  0  0
M  END
>  <minimizedAffinity>
-5.2741971

>  <minimizedRMSD>
0.956772268

$$$$
