
 OpenBabel03252506423D

 43 46  0  0  1  0  0  0  0  0999 V2000
   48.9210   32.8500   41.5670 N   0  0  1  0  0  0  0  0  0  0  0  0
   50.3290   33.1010   41.5580 C   0  0  0  0  0  0  0  0  0  0  0  0
   51.1960   31.9230   41.3140 C   0  0  0  0  0  0  0  0  0  0  0  0
   51.0220   30.9190   42.4140 C   0  0  0  0  0  0  0  0  0  0  0  0
   49.6220   30.9350   42.9160 C   0  0  0  0  0  0  0  0  0  0  0  0
   48.6600   31.4690   41.9360 C   0  0  2  0  0  0  0  0  0  0  0  0
   50.6400   33.5240   42.5550 H   0  0  0  0  0  0  0  0  0  0  0  0
   50.6190   33.8740   40.7880 H   0  0  0  0  0  0  0  0  0  0  0  0
   51.2230   31.5010   40.3150 H   0  0  0  0  0  0  0  0  0  0  0  0
   52.2620   32.3150   41.4590 H   0  0  0  0  0  0  0  0  0  0  0  0
   51.3300   29.8900   42.0650 H   0  0  0  0  0  0  0  0  0  0  0  0
   51.7030   31.1470   43.2620 H   0  0  0  0  0  0  0  0  0  0  0  0
   49.3980   29.9350   43.2490 H   0  0  0  0  0  0  0  0  0  0  0  0
   49.5470   31.5860   43.8320 H   0  0  0  0  0  0  0  0  0  0  0  0
   47.7080   31.6240   42.5490 H   0  0  0  0  0  0  0  0  0  0  0  0
   47.9460   31.2470   39.5950 C   0  0  0  0  0  0  0  0  0  0  0  0
   48.2210   30.6260   40.8260 C   0  0  0  0  0  0  0  0  0  0  0  0
   48.0660   29.2320   40.8720 C   0  0  0  0  0  0  0  0  0  0  0  0
   48.2810   28.7180   41.8000 H   0  0  0  0  0  0  0  0  0  0  0  0
   47.6780   28.4420   39.8390 C   0  0  0  0  0  0  0  0  0  0  0  0
   47.5790   27.3700   39.9450 H   0  0  0  0  0  0  0  0  0  0  0  0
   47.4060   29.0250   38.6320 C   0  0  0  0  0  3  0  0  0  0  0  0
   47.5480   30.3950   38.5500 C   0  0  0  0  0  3  0  0  0  0  0  0
   48.3200   33.7000   40.4020 H   0  0  0  0  0  0  0  0  0  0  0  0
   48.0530   32.9290   39.2710 S   0  0  0  0  0  0  0  0  0  0  0  0
   48.8580   33.3500   38.1080 O   0  0  0  0  0  0  0  0  0  0  0  0
   46.6530   33.4410   38.9070 O   0  0  0  0  0  0  0  0  0  0  0  0
   46.9400   34.3570   42.2140 C   0  0  1  0  0  0  0  0  0  0  0  0
   48.0900   35.1560   41.8500 C   0  0  0  0  0  0  0  0  0  0  0  0
   48.3420   33.8170   42.4610 C   0  0  2  0  0  0  0  0  0  0  0  0
   46.3970   33.7360   41.4570 H   0  0  0  0  0  0  0  0  0  0  0  0
   48.2950   36.0600   42.4900 H   0  0  0  0  0  0  0  0  0  0  0  0
   48.3770   35.3490   40.8070 H   0  0  0  0  0  0  0  0  0  0  0  0
   48.6920   33.7830   43.5070 H   0  0  0  0  0  0  0  0  0  0  0  0
   45.3310   35.8680   43.4390 C   0  0  0  0  0  0  0  0  0  0  0  0
   46.1110   34.6790   43.4020 C   0  0  0  0  0  0  0  0  0  0  0  0
   46.0620   33.8560   44.5120 C   0  0  0  0  0  0  0  0  0  0  0  0
   45.2750   34.2420   45.5500 N   0  0  0  0  0  0  0  0  0  0  0  0
   44.5450   35.3730   45.5590 C   0  0  0  0  0  0  0  0  0  0  0  0
   44.5660   36.2110   44.4880 N   0  0  0  0  0  0  0  0  0  0  0  0
   45.4120   36.4740   42.5370 H   0  0  0  0  0  0  0  0  0  0  0  0
   46.6340   32.9400   44.5420 H   0  0  0  0  0  0  0  0  0  0  0  0
   43.9350   35.6280   46.4160 H   0  0  0  0  0  0  0  0  0  0  0  0
  1  2  1  1  0  0  0
  1  6  1  0  0  0  0
  1 30  1  0  0  0  0
  2  7  1  0  0  0  0
  3 10  1  0  0  0  0
  3  2  1  0  0  0  0
  3  4  1  0  0  0  0
  4  5  1  0  0  0  0
  4 12  1  0  0  0  0
  5 13  1  0  0  0  0
  5 14  1  0  0  0  0
  6 15  1  1  0  0  0
  6  5  1  0  0  0  0
  8  2  1  0  0  0  0
  9  3  1  0  0  0  0
 11  4  1  0  0  0  0
 16 17  1  0  0  0  0
 17 18  2  0  0  0  0
 17  6  1  0  0  0  0
 18 19  1  0  0  0  0
 20 21  1  0  0  0  0
 20 18  1  0  0  0  0
 22 20  2  0  0  0  0
 23 22  1  0  0  0  0
 23 16  2  0  0  0  0
 25 16  1  0  0  0  0
 25 24  1  0  0  0  0
 26 25  2  0  0  0  0
 27 25  2  0  0  0  0
 28 31  1  6  0  0  0
 28 30  1  0  0  0  0
 28 36  1  0  0  0  0
 29 28  1  0  0  0  0
 29 30  1  0  0  0  0
 29 32  1  0  0  0  0
 30 34  1  1  0  0  0
 33 29  1  0  0  0  0
 35 40  1  0  0  0  0
 36 35  2  0  0  0  0
 36 37  1  0  0  0  0
 37 42  1  0  0  0  0
 37 38  2  0  0  0  0
 38 39  1  0  0  0  0
 39 43  1  0  0  0  0
 40 39  2  0  0  0  0
 41 35  1  0  0  0  0
M  END
>  <minimizedAffinity>
-4.55857038

>  <minimizedRMSD>
1.35480213

$$$$
