
 OpenBabel03252502393D

 49 52  0  0  1  0  0  0  0  0999 V2000
   46.0840   32.9860   39.9420 C   0  0  1  0  0  0  0  0  0  0  0  0
   45.3640   33.8160   39.6820 H   0  0  0  0  0  0  0  0  0  0  0  0
   46.4470   33.2060   41.3160 N   0  0  0  0  0  0  0  0  0  0  0  0
   46.6860   34.5670   41.6200 C   0  0  0  0  0  0  0  0  0  0  0  0
   47.4360   34.5520   42.9670 C   0  0  0  0  0  0  0  0  0  0  0  0
   46.4040   34.1930   43.9070 N   0  0  0  0  0  0  0  0  0  0  0  0
   45.8660   32.9150   43.6630 C   0  0  0  0  0  0  0  0  0  0  0  0
   45.5490   32.6010   42.2080 C   0  0  0  0  0  0  0  0  0  0  0  0
   47.4060   35.0300   40.9110 H   0  0  0  0  0  0  0  0  0  0  0  0
   45.7900   35.1810   41.7870 H   0  0  0  0  0  0  0  0  0  0  0  0
   48.1750   33.7350   42.9420 H   0  0  0  0  0  0  0  0  0  0  0  0
   47.8460   35.5460   43.2060 H   0  0  0  0  0  0  0  0  0  0  0  0
   45.7360   34.9640   44.0530 H   0  0  0  0  0  0  0  0  0  0  0  0
   46.5810   32.1420   44.0370 H   0  0  0  0  0  0  0  0  0  0  0  0
   44.9540   32.7760   44.3080 H   0  0  0  0  0  0  0  0  0  0  0  0
   44.6080   33.2340   42.1230 H   0  0  0  0  0  0  0  0  0  0  0  0
   45.3550   31.5540   42.2240 H   0  0  0  0  0  0  0  0  0  0  0  0
   47.1310   33.6720   37.7920 C   0  0  0  0  0  0  0  0  0  0  0  0
   47.1520   32.9960   38.9880 C   0  0  0  0  0  0  0  0  0  0  0  0
   48.3300   32.2730   39.2570 C   0  0  0  0  0  0  0  0  0  0  0  0
   49.3490   32.2830   38.3440 N   0  0  0  0  0  0  0  0  0  0  0  0
   49.2500   32.9770   37.1830 C   0  0  0  0  0  0  0  0  0  0  0  0
   48.1310   33.6770   36.9060 N   0  0  0  0  0  0  0  0  0  0  0  0
   46.2140   34.2160   37.6270 H   0  0  0  0  0  0  0  0  0  0  0  0
   48.4300   31.7120   40.1770 H   0  0  0  0  0  0  0  0  0  0  0  0
   50.1320   32.8830   36.5780 H   0  0  0  0  0  0  0  0  0  0  0  0
   45.3550   31.6400   39.8320 C   0  0  0  0  0  0  0  0  0  0  0  0
   44.9780   31.5960   40.9030 H   0  0  0  0  0  0  0  0  0  0  0  0
   45.9940   30.7590   39.8270 H   0  0  0  0  0  0  0  0  0  0  0  0
   44.3070   31.5640   38.8680 C   0  0  0  0  0  0  0  0  0  0  0  0
   44.1240   31.0870   37.6150 C   0  0  0  0  0  0  0  0  0  0  0  0
   42.9840   31.1310   36.8360 C   0  0  0  0  0  0  0  0  0  0  0  0
   41.9360   31.7260   37.4120 N   0  0  0  0  0  0  0  0  0  0  0  0
   42.0210   32.2200   38.6310 C   0  0  0  0  0  0  0  0  0  0  0  0
   43.1550   32.1280   39.2910 N   0  0  0  0  0  0  0  0  0  0  0  0
   45.0510   30.6210   37.2260 H   0  0  0  0  0  0  0  0  0  0  0  0
   43.0820   30.6760   35.8510 H   0  0  0  0  0  0  0  0  0  0  0  0
   40.6600   34.1780   39.4390 C   0  0  0  0  0  0  0  0  0  0  0  0
   40.7960   32.8410   39.1410 C   0  0  0  0  0  0  0  0  0  0  0  0
   39.6790   32.0770   39.3590 C   0  0  0  0  0  0  0  0  0  0  0  0
   39.6760   31.0100   39.1570 H   0  0  0  0  0  0  0  0  0  0  0  0
   38.4730   32.5420   39.8400 C   0  0  0  0  0  0  0  0  0  0  0  0
   37.6190   31.9060   39.9960 H   0  0  0  0  0  0  0  0  0  0  0  0
   38.3480   33.8810   40.1340 C   0  0  0  0  0  0  0  0  0  0  0  0
   39.4520   34.6790   39.9280 C   0  0  0  0  0  0  0  0  0  0  0  0
   41.5670   36.5550   39.3940 H   0  0  0  0  0  0  0  0  0  0  0  0
   42.0050   35.2450   39.2080 S   0  0  0  0  0  0  0  0  0  0  0  0
   43.0940   35.0610   40.2310 O   0  0  0  0  0  0  0  0  0  0  0  0
   42.5410   35.2030   37.8170 O   0  0  0  0  0  0  0  0  0  0  0  0
  1  2  1  6  0  0  0
  1  3  1  0  0  0  0
  3  4  1  0  0  0  0
  3  8  1  0  0  0  0
  4 10  1  0  0  0  0
  4  5  1  0  0  0  0
  5 12  1  0  0  0  0
  5  6  1  0  0  0  0
  6 13  1  0  0  0  0
  7  6  1  0  0  0  0
  7 14  1  0  0  0  0
  7 15  1  0  0  0  0
  8 17  1  0  0  0  0
  8  7  1  0  0  0  0
  9  4  1  0  0  0  0
 11  5  1  0  0  0  0
 16  8  1  0  0  0  0
 18 19  1  0  0  0  0
 19 20  2  0  0  0  0
 19  1  1  0  0  0  0
 20 25  1  0  0  0  0
 21 20  1  0  0  0  0
 22 21  2  0  0  0  0
 23 22  1  0  0  0  0
 23 18  2  0  0  0  0
 24 18  1  0  0  0  0
 26 22  1  0  0  0  0
 27  1  1  0  0  0  0
 27 28  1  0  0  0  0
 29 27  1  0  0  0  0
 30 35  1  0  0  0  0
 30 27  1  0  0  0  0
 31 30  2  0  0  0  0
 32 33  2  0  0  0  0
 32 31  1  0  0  0  0
 33 34  1  0  0  0  0
 34 39  1  0  0  0  0
 34 35  2  0  0  0  0
 36 31  1  0  0  0  0
 37 32  1  0  0  0  0
 38 45  1  0  0  0  0
 39 40  1  0  0  0  0
 39 38  2  0  0  0  0
 40 42  2  0  0  0  0
 41 40  1  0  0  0  0
 42 43  1  0  0  0  0
 42 44  1  0  0  0  0
 45 44  2  0  0  0  0
 47 46  1  0  0  0  0
 47 38  1  0  0  0  0
 47 48  2  0  0  0  0
 49 47  2  0  0  0  0
M  END
>  <minimizedAffinity>
-4.8717947

>  <minimizedRMSD>
8.04704952

$$$$
