
 OpenBabel03242518293D

 24 25  0  0  0  0  0  0  0  0999 V2000
   36.4160   30.0440   41.6380 O   0  0  0  0  0  0  0  0  0  0  0  0
   38.5980   29.2260   42.4090 C   0  0  0  0  0  0  0  0  0  0  0  0
   37.2570   29.0770   42.1870 C   0  0  0  0  0  0  0  0  0  0  0  0
   36.6140   27.8850   42.5130 C   0  0  0  0  0  0  0  0  0  0  0  0
   35.5580   27.6860   42.3680 H   0  0  0  0  0  0  0  0  0  0  0  0
   37.3750   26.8560   43.0680 C   0  0  0  0  0  0  0  0  0  0  0  0
   36.9270   25.9080   43.3400 H   0  0  0  0  0  0  0  0  0  0  0  0
   38.7220   26.9800   43.3020 C   0  0  0  0  0  3  0  0  0  0  0  0
   39.3200   28.1840   42.9620 C   0  0  0  0  0  3  0  0  0  0  0  0
   38.2990   31.7040   41.9460 H   0  0  0  0  0  0  0  0  0  0  0  0
   39.2800   30.7640   41.9590 S   0  0  0  0  0  0  0  0  0  0  0  0
   39.8090   30.6360   40.5510 O   0  0  0  0  0  0  0  0  0  0  0  0
   40.4530   31.1290   42.8200 O   0  0  0  0  0  0  0  0  0  0  0  0
   35.8150   29.8940   40.4000 C   0  0  0  0  0  0  0  0  0  0  0  0
   34.7360   29.2450   40.3480 O   0  0  0  0  0  0  0  0  0  0  0  0
   36.5050   30.5070   39.3090 C   0  0  0  0  0  0  0  0  0  0  0  0
   36.7760   29.6460   38.2580 C   0  0  0  0  0  0  0  0  0  0  0  0
   37.4550   30.1840   37.1490 C   0  0  0  0  0  0  0  0  0  0  0  0
   37.8060   31.4980   37.1660 N   0  0  0  0  0  0  0  0  0  0  0  0
   37.5150   32.2910   38.2210 C   0  0  0  0  0  0  0  0  0  0  0  0
   36.8680   31.7950   39.2840 N   0  0  0  0  0  0  0  0  0  0  0  0
   36.5230   28.5990   38.1890 H   0  0  0  0  0  0  0  0  0  0  0  0
   37.6920   29.5480   36.2940 H   0  0  0  0  0  0  0  0  0  0  0  0
   37.7830   33.3480   38.2630 H   0  0  0  0  0  0  0  0  0  0  0  0
  1  3  1  0  0  0  0
  2  9  1  0  0  0  0
  3  2  2  0  0  0  0
  3  4  1  0  0  0  0
  4  6  2  0  0  0  0
  5  4  1  0  0  0  0
  6  8  1  0  0  0  0
  6  7  1  0  0  0  0
  9  8  2  0  0  0  0
 10 11  1  0  0  0  0
 11  2  1  0  0  0  0
 11 13  2  0  0  0  0
 12 11  2  0  0  0  0
 14  1  1  0  0  0  0
 15 14  2  0  0  0  0
 16 14  1  0  0  0  0
 17 16  2  0  0  0  0
 18 19  2  0  0  0  0
 18 17  1  0  0  0  0
 19 20  1  0  0  0  0
 20 24  1  0  0  0  0
 20 21  2  0  0  0  0
 21 16  1  0  0  0  0
 22 17  1  0  0  0  0
 23 18  1  0  0  0  0
M  END
>  <minimizedAffinity>
-4.65932655

$$$$

 OpenBabel03242518293D

 24 25  0  0  0  0  0  0  0  0999 V2000
   38.1420   29.5620   40.0960 O   0  0  0  0  0  0  0  0  0  0  0  0
   37.1670   27.6070   41.2170 C   0  0  0  0  0  0  0  0  0  0  0  0
   37.7530   28.8430   41.2260 C   0  0  0  0  0  0  0  0  0  0  0  0
   38.0100   29.4950   42.4300 C   0  0  0  0  0  0  0  0  0  0  0  0
   38.4680   30.4730   42.5240 H   0  0  0  0  0  0  0  0  0  0  0  0
   37.6530   28.8530   43.6160 C   0  0  0  0  0  0  0  0  0  0  0  0
   37.8300   29.3140   44.5810 H   0  0  0  0  0  0  0  0  0  0  0  0
   37.0650   27.6130   43.6340 C   0  0  0  0  0  3  0  0  0  0  0  0
   36.8280   27.0010   42.4130 C   0  0  0  0  0  3  0  0  0  0  0  0
   37.9530   27.1920   38.8390 H   0  0  0  0  0  0  0  0  0  0  0  0
   36.9010   26.9010   39.6470 S   0  0  0  0  0  0  0  0  0  0  0  0
   35.6750   27.5520   39.0540 O   0  0  0  0  0  0  0  0  0  0  0  0
   36.5990   25.4340   39.7380 O   0  0  0  0  0  0  0  0  0  0  0  0
   37.5500   30.7600   39.7340 C   0  0  0  0  0  0  0  0  0  0  0  0
   36.3160   30.7480   39.4770 O   0  0  0  0  0  0  0  0  0  0  0  0
   38.4290   31.8860   39.6950 C   0  0  0  0  0  0  0  0  0  0  0  0
   37.9330   33.0100   40.3360 C   0  0  0  0  0  0  0  0  0  0  0  0
   38.7480   34.1580   40.3360 C   0  0  0  0  0  0  0  0  0  0  0  0
   39.9580   34.1060   39.7180 N   0  0  0  0  0  0  0  0  0  0  0  0
   40.3900   32.9790   39.1080 C   0  0  0  0  0  0  0  0  0  0  0  0
   39.6270   31.8780   39.0990 N   0  0  0  0  0  0  0  0  0  0  0  0
   36.9840   33.1090   40.8410 H   0  0  0  0  0  0  0  0  0  0  0  0
   38.4040   35.0700   40.8270 H   0  0  0  0  0  0  0  0  0  0  0  0
   41.3550   32.9080   38.6040 H   0  0  0  0  0  0  0  0  0  0  0  0
  1  3  1  0  0  0  0
  2  3  2  0  0  0  0
  2  9  1  0  0  0  0
  3  4  1  0  0  0  0
  4  5  1  0  0  0  0
  4  6  2  0  0  0  0
  6  8  1  0  0  0  0
  6  7  1  0  0  0  0
  9  8  2  0  0  0  0
 10 11  1  0  0  0  0
 11 13  2  0  0  0  0
 11  2  1  0  0  0  0
 12 11  2  0  0  0  0
 14  1  1  0  0  0  0
 15 14  2  0  0  0  0
 16 14  1  0  0  0  0
 16 17  1  0  0  0  0
 17 18  2  0  0  0  0
 17 22  1  0  0  0  0
 18 23  1  0  0  0  0
 19 18  1  0  0  0  0
 20 19  2  0  0  0  0
 21 20  1  0  0  0  0
 21 16  2  0  0  0  0
 24 20  1  0  0  0  0
M  END
>  <minimizedAffinity>
-4.5013423

$$$$

 OpenBabel03242518293D

 24 25  0  0  0  0  0  0  0  0999 V2000
   36.2380   27.9480   40.2290 O   0  0  0  0  0  0  0  0  0  0  0  0
   38.4260   27.3710   41.1830 C   0  0  0  0  0  0  0  0  0  0  0  0
   37.1080   27.7230   41.2960 C   0  0  0  0  0  0  0  0  0  0  0  0
   36.5240   27.8850   42.5490 C   0  0  0  0  0  0  0  0  0  0  0  0
   35.4900   28.1610   42.7250 H   0  0  0  0  0  0  0  0  0  0  0  0
   37.3180   27.6800   43.6780 C   0  0  0  0  0  0  0  0  0  0  0  0
   36.9160   27.7920   44.6780 H   0  0  0  0  0  0  0  0  0  0  0  0
   38.6410   27.3270   43.5930 C   0  0  0  0  0  3  0  0  0  0  0  0
   39.1820   27.1760   42.3240 C   0  0  0  0  0  3  0  0  0  0  0  0
   38.1130   26.5510   38.8000 H   0  0  0  0  0  0  0  0  0  0  0  0
   39.0340   27.2000   39.5600 S   0  0  0  0  0  0  0  0  0  0  0  0
   40.2690   26.3340   39.6220 O   0  0  0  0  0  0  0  0  0  0  0  0
   39.4690   28.5160   38.9850 O   0  0  0  0  0  0  0  0  0  0  0  0
   35.5170   29.1210   40.0900 C   0  0  0  0  0  0  0  0  0  0  0  0
   34.2650   29.0560   40.2150 O   0  0  0  0  0  0  0  0  0  0  0  0
   36.2970   30.2860   39.8150 C   0  0  0  0  0  0  0  0  0  0  0  0
   36.6550   30.4260   38.4840 C   0  0  0  0  0  0  0  0  0  0  0  0
   37.4240   31.5530   38.1430 C   0  0  0  0  0  0  0  0  0  0  0  0
   37.7730   32.4330   39.1210 N   0  0  0  0  0  0  0  0  0  0  0  0
   37.3940   32.2450   40.4050 C   0  0  0  0  0  0  0  0  0  0  0  0
   36.6610   31.1770   40.7460 N   0  0  0  0  0  0  0  0  0  0  0  0
   36.4080   29.7630   37.6690 H   0  0  0  0  0  0  0  0  0  0  0  0
   37.7330   31.7100   37.1080 H   0  0  0  0  0  0  0  0  0  0  0  0
   37.6590   32.9330   41.2090 H   0  0  0  0  0  0  0  0  0  0  0  0
  1  3  1  0  0  0  0
  2  3  2  0  0  0  0
  2  9  1  0  0  0  0
  3  4  1  0  0  0  0
  4  5  1  0  0  0  0
  4  6  2  0  0  0  0
  6  7  1  0  0  0  0
  8  6  1  0  0  0  0
  9  8  2  0  0  0  0
 10 11  1  0  0  0  0
 11 12  2  0  0  0  0
 11  2  1  0  0  0  0
 13 11  2  0  0  0  0
 14 15  2  0  0  0  0
 14  1  1  0  0  0  0
 16 14  1  0  0  0  0
 16 21  1  0  0  0  0
 17 16  2  0  0  0  0
 18 17  1  0  0  0  0
 18 19  2  0  0  0  0
 19 20  1  0  0  0  0
 20 21  2  0  0  0  0
 20 24  1  0  0  0  0
 22 17  1  0  0  0  0
 23 18  1  0  0  0  0
M  END
>  <minimizedAffinity>
-4.45002127

$$$$

 OpenBabel03242518293D

 24 25  0  0  0  0  0  0  0  0999 V2000
   38.7040   29.0550   41.3400 O   0  0  0  0  0  0  0  0  0  0  0  0
   37.2220   30.6250   40.1710 C   0  0  0  0  0  0  0  0  0  0  0  0
   38.3150   30.3330   40.9410 C   0  0  0  0  0  0  0  0  0  0  0  0
   39.1520   31.3490   41.3960 C   0  0  0  0  0  0  0  0  0  0  0  0
   40.0350   31.2030   42.0070 H   0  0  0  0  0  0  0  0  0  0  0  0
   38.8420   32.6630   41.0450 C   0  0  0  0  0  0  0  0  0  0  0  0
   39.4580   33.4930   41.3710 H   0  0  0  0  0  0  0  0  0  0  0  0
   37.7520   32.9830   40.2750 C   0  0  0  0  0  3  0  0  0  0  0  0
   36.9470   31.9390   39.8440 C   0  0  0  0  0  3  0  0  0  0  0  0
   37.0740   28.2180   39.3760 H   0  0  0  0  0  0  0  0  0  0  0  0
   36.2580   29.2640   39.6680 S   0  0  0  0  0  0  0  0  0  0  0  0
   35.5430   29.6540   38.3970 O   0  0  0  0  0  0  0  0  0  0  0  0
   35.1910   28.9340   40.6700 O   0  0  0  0  0  0  0  0  0  0  0  0
   38.2240   28.4550   42.4920 C   0  0  0  0  0  0  0  0  0  0  0  0
   37.5610   29.1690   43.2910 O   0  0  0  0  0  0  0  0  0  0  0  0
   38.5450   27.0700   42.6360 C   0  0  0  0  0  0  0  0  0  0  0  0
   39.6070   26.8220   43.4900 C   0  0  0  0  0  0  0  0  0  0  0  0
   39.9780   25.4780   43.6800 C   0  0  0  0  0  0  0  0  0  0  0  0
   39.2860   24.5070   43.0250 N   0  0  0  0  0  0  0  0  0  0  0  0
   38.2560   24.8080   42.2020 C   0  0  0  0  0  0  0  0  0  0  0  0
   37.8910   26.0830   42.0120 N   0  0  0  0  0  0  0  0  0  0  0  0
   40.1910   27.5500   44.0350 H   0  0  0  0  0  0  0  0  0  0  0  0
   40.8080   25.2290   44.3430 H   0  0  0  0  0  0  0  0  0  0  0  0
   37.6840   24.0510   41.6640 H   0  0  0  0  0  0  0  0  0  0  0  0
  1 14  1  0  0  0  0
  2  3  1  0  0  0  0
  3  1  1  0  0  0  0
  3  4  2  0  0  0  0
  4  5  1  0  0  0  0
  6  7  1  0  0  0  0
  6  4  1  0  0  0  0
  8  6  2  0  0  0  0
  9  2  2  0  0  0  0
  9  8  1  0  0  0  0
 10 11  1  0  0  0  0
 11  2  1  0  0  0  0
 11 13  2  0  0  0  0
 12 11  2  0  0  0  0
 14 16  1  0  0  0  0
 14 15  2  0  0  0  0
 16 17  1  0  0  0  0
 17 18  2  0  0  0  0
 17 22  1  0  0  0  0
 18 23  1  0  0  0  0
 19 18  1  0  0  0  0
 20 19  2  0  0  0  0
 21 20  1  0  0  0  0
 21 16  2  0  0  0  0
 24 20  1  0  0  0  0
M  END
>  <minimizedAffinity>
-4.43289995

$$$$

 OpenBabel03242518293D

 24 25  0  0  0  0  0  0  0  0999 V2000
   37.8200   29.6320   39.6910 O   0  0  0  0  0  0  0  0  0  0  0  0
   38.5170   29.6270   42.0450 C   0  0  0  0  0  0  0  0  0  0  0  0
   37.7230   29.2040   41.0140 C   0  0  0  0  0  0  0  0  0  0  0  0
   36.7150   28.2680   41.2350 C   0  0  0  0  0  0  0  0  0  0  0  0
   36.0460   27.8800   40.4760 H   0  0  0  0  0  0  0  0  0  0  0  0
   36.5430   27.7800   42.5310 C   0  0  0  0  0  0  0  0  0  0  0  0
   35.7750   27.0500   42.7610 H   0  0  0  0  0  0  0  0  0  0  0  0
   37.3250   28.1880   43.5820 C   0  0  0  0  0  3  0  0  0  0  0  0
   38.3160   29.1210   43.3160 C   0  0  0  0  0  3  0  0  0  0  0  0
   40.4330   30.3650   40.5520 H   0  0  0  0  0  0  0  0  0  0  0  0
   39.7380   30.7990   41.6350 S   0  0  0  0  0  0  0  0  0  0  0  0
   40.7020   30.8810   42.7940 O   0  0  0  0  0  0  0  0  0  0  0  0
   39.1600   32.1740   41.4680 O   0  0  0  0  0  0  0  0  0  0  0  0
   36.8630   30.4350   39.0940 C   0  0  0  0  0  0  0  0  0  0  0  0
   36.5210   31.4860   39.7000 O   0  0  0  0  0  0  0  0  0  0  0  0
   36.3710   29.9650   37.8380 C   0  0  0  0  0  0  0  0  0  0  0  0
   35.1810   29.2610   37.9260 C   0  0  0  0  0  0  0  0  0  0  0  0
   34.6380   28.7680   36.7250 C   0  0  0  0  0  0  0  0  0  0  0  0
   35.2980   29.0040   35.5590 N   0  0  0  0  0  0  0  0  0  0  0  0
   36.4570   29.6990   35.5340 C   0  0  0  0  0  0  0  0  0  0  0  0
   36.9870   30.1750   36.6690 N   0  0  0  0  0  0  0  0  0  0  0  0
   34.6150   29.0440   38.8190 H   0  0  0  0  0  0  0  0  0  0  0  0
   33.7020   28.2070   36.7390 H   0  0  0  0  0  0  0  0  0  0  0  0
   37.0080   29.9030   34.6150 H   0  0  0  0  0  0  0  0  0  0  0  0
  1  3  1  0  0  0  0
  2  9  1  0  0  0  0
  3  4  1  0  0  0  0
  3  2  2  0  0  0  0
  4  6  2  0  0  0  0
  5  4  1  0  0  0  0
  6  7  1  0  0  0  0
  6  8  1  0  0  0  0
  9  8  2  0  0  0  0
 10 11  1  0  0  0  0
 11  2  1  0  0  0  0
 11 12  2  0  0  0  0
 13 11  2  0  0  0  0
 14  1  1  0  0  0  0
 14 15  2  0  0  0  0
 16 17  1  0  0  0  0
 16 14  1  0  0  0  0
 17 22  1  0  0  0  0
 18 23  1  0  0  0  0
 18 17  2  0  0  0  0
 19 18  1  0  0  0  0
 20 19  2  0  0  0  0
 20 21  1  0  0  0  0
 21 16  2  0  0  0  0
 24 20  1  0  0  0  0
M  END
>  <minimizedAffinity>
-4.33225393

$$$$

 OpenBabel03242518293D

 24 25  0  0  0  0  0  0  0  0999 V2000
   37.2380   29.0320   42.5650 O   0  0  0  0  0  0  0  0  0  0  0  0
   37.7920   29.9940   40.3750 C   0  0  0  0  0  0  0  0  0  0  0  0
   36.9410   29.3700   41.2440 C   0  0  0  0  0  0  0  0  0  0  0  0
   35.6550   29.0150   40.8440 C   0  0  0  0  0  0  0  0  0  0  0  0
   34.9210   28.5200   41.4690 H   0  0  0  0  0  0  0  0  0  0  0  0
   35.2670   29.3140   39.5380 C   0  0  0  0  0  0  0  0  0  0  0  0
   34.2780   29.0600   39.1720 H   0  0  0  0  0  0  0  0  0  0  0  0
   36.1010   29.9390   38.6450 C   0  0  0  0  0  3  0  0  0  0  0  0
   37.3720   30.2740   39.0880 C   0  0  0  0  0  3  0  0  0  0  0  0
   39.2380   31.0100   42.1990 H   0  0  0  0  0  0  0  0  0  0  0  0
   39.3710   30.3840   41.0000 S   0  0  0  0  0  0  0  0  0  0  0  0
   40.0150   31.3590   40.0440 O   0  0  0  0  0  0  0  0  0  0  0  0
   40.2670   29.1810   41.0450 O   0  0  0  0  0  0  0  0  0  0  0  0
   37.1750   27.7320   43.0340 C   0  0  0  0  0  0  0  0  0  0  0  0
   36.1470   27.3920   43.6790 O   0  0  0  0  0  0  0  0  0  0  0  0
   38.3070   26.9160   42.7240 C   0  0  0  0  0  0  0  0  0  0  0  0
   39.3090   26.9530   43.6800 C   0  0  0  0  0  0  0  0  0  0  0  0
   40.4540   26.1720   43.4380 C   0  0  0  0  0  0  0  0  0  0  0  0
   40.5180   25.4340   42.2960 N   0  0  0  0  0  0  0  0  0  0  0  0
   39.5070   25.4370   41.3980 C   0  0  0  0  0  0  0  0  0  0  0  0
   38.4110   26.1750   41.6140 N   0  0  0  0  0  0  0  0  0  0  0  0
   39.3130   27.5170   44.6000 H   0  0  0  0  0  0  0  0  0  0  0  0
   41.2720   26.1650   44.1600 H   0  0  0  0  0  0  0  0  0  0  0  0
   39.5310   24.8570   40.4740 H   0  0  0  0  0  0  0  0  0  0  0  0
  1 14  1  0  0  0  0
  2 11  1  0  0  0  0
  2  3  1  0  0  0  0
  3  1  1  0  0  0  0
  4  3  2  0  0  0  0
  4  5  1  0  0  0  0
  6  4  1  0  0  0  0
  7  6  1  0  0  0  0
  8  9  1  0  0  0  0
  8  6  2  0  0  0  0
  9  2  2  0  0  0  0
 11 13  2  0  0  0  0
 11 10  1  0  0  0  0
 12 11  2  0  0  0  0
 14 15  2  0  0  0  0
 16 14  1  0  0  0  0
 16 17  1  0  0  0  0
 17 22  1  0  0  0  0
 18 17  2  0  0  0  0
 18 23  1  0  0  0  0
 19 18  1  0  0  0  0
 20 21  1  0  0  0  0
 20 19  2  0  0  0  0
 21 16  2  0  0  0  0
 24 20  1  0  0  0  0
M  END
>  <minimizedAffinity>
-4.29577732

$$$$

 OpenBabel03242518293D

 24 25  0  0  0  0  0  0  0  0999 V2000
   38.8890   28.0500   41.4670 O   0  0  0  0  0  0  0  0  0  0  0  0
   39.4880   25.7720   42.1610 C   0  0  0  0  0  0  0  0  0  0  0  0
   38.5980   26.7080   41.7090 C   0  0  0  0  0  0  0  0  0  0  0  0
   37.2760   26.3570   41.4470 C   0  0  0  0  0  0  0  0  0  0  0  0
   36.5100   27.0350   41.0870 H   0  0  0  0  0  0  0  0  0  0  0  0
   36.8910   25.0330   41.6590 C   0  0  0  0  0  0  0  0  0  0  0  0
   35.8760   24.7040   41.4710 H   0  0  0  0  0  0  0  0  0  0  0  0
   37.7640   24.0760   42.1120 C   0  0  0  0  0  3  0  0  0  0  0  0
   39.0710   24.4700   42.3590 C   0  0  0  0  0  3  0  0  0  0  0  0
   41.5810   26.9470   41.3290 H   0  0  0  0  0  0  0  0  0  0  0  0
   41.1100   26.3400   42.4500 S   0  0  0  0  0  0  0  0  0  0  0  0
   41.9770   25.1340   42.7150 O   0  0  0  0  0  0  0  0  0  0  0  0
   41.1910   27.1980   43.6790 O   0  0  0  0  0  0  0  0  0  0  0  0
   38.4290   29.0710   42.2810 C   0  0  0  0  0  0  0  0  0  0  0  0
   38.2490   28.8100   43.5010 O   0  0  0  0  0  0  0  0  0  0  0  0
   38.2110   30.3220   41.6260 C   0  0  0  0  0  0  0  0  0  0  0  0
   39.2720   31.2060   41.7300 C   0  0  0  0  0  0  0  0  0  0  0  0
   39.1260   32.4590   41.1070 C   0  0  0  0  0  0  0  0  0  0  0  0
   37.9690   32.7340   40.4460 N   0  0  0  0  0  0  0  0  0  0  0  0
   36.9660   31.8300   40.3770 C   0  0  0  0  0  0  0  0  0  0  0  0
   37.0900   30.6330   40.9650 N   0  0  0  0  0  0  0  0  0  0  0  0
   40.2100   31.0440   42.2390 H   0  0  0  0  0  0  0  0  0  0  0  0
   39.9330   33.1920   41.1590 H   0  0  0  0  0  0  0  0  0  0  0  0
   36.0270   32.0230   39.8550 H   0  0  0  0  0  0  0  0  0  0  0  0
  1  3  1  0  0  0  0
  1 14  1  0  0  0  0
  2  9  1  0  0  0  0
  2 11  1  0  0  0  0
  3  2  2  0  0  0  0
  4  6  2  0  0  0  0
  4  3  1  0  0  0  0
  5  4  1  0  0  0  0
  6  8  1  0  0  0  0
  7  6  1  0  0  0  0
  8  9  2  0  0  0  0
 10 11  1  0  0  0  0
 11 12  2  0  0  0  0
 11 13  2  0  0  0  0
 14 15  2  0  0  0  0
 16 17  1  0  0  0  0
 16 14  1  0  0  0  0
 17 22  1  0  0  0  0
 18 23  1  0  0  0  0
 18 17  2  0  0  0  0
 19 18  1  0  0  0  0
 20 19  2  0  0  0  0
 20 21  1  0  0  0  0
 21 16  2  0  0  0  0
 24 20  1  0  0  0  0
M  END
>  <minimizedAffinity>
-4.28092051

$$$$

 OpenBabel03242518293D

 24 25  0  0  0  0  0  0  0  0999 V2000
   39.0110   28.7880   39.8590 O   0  0  0  0  0  0  0  0  0  0  0  0
   37.0660   28.2610   41.2610 C   0  0  0  0  0  0  0  0  0  0  0  0
   38.4100   28.4230   41.0630 C   0  0  0  0  0  0  0  0  0  0  0  0
   39.3080   28.2240   42.1090 C   0  0  0  0  0  0  0  0  0  0  0  0
   40.3840   28.3330   42.0360 H   0  0  0  0  0  0  0  0  0  0  0  0
   38.7970   27.8570   43.3540 C   0  0  0  0  0  0  0  0  0  0  0  0
   39.4500   27.6890   44.2030 H   0  0  0  0  0  0  0  0  0  0  0  0
   37.4540   27.6870   43.5790 C   0  0  0  0  0  3  0  0  0  0  0  0
   36.5970   27.8960   42.5090 C   0  0  0  0  0  3  0  0  0  0  0  0
   36.5790   29.5430   39.1230 H   0  0  0  0  0  0  0  0  0  0  0  0
   36.0510   28.5400   39.8730 S   0  0  0  0  0  0  0  0  0  0  0  0
   34.7050   29.0030   40.3740 O   0  0  0  0  0  0  0  0  0  0  0  0
   35.8030   27.2770   39.1000 O   0  0  0  0  0  0  0  0  0  0  0  0
   39.7810   29.9310   39.7260 C   0  0  0  0  0  0  0  0  0  0  0  0
   41.0190   29.7840   39.5440 O   0  0  0  0  0  0  0  0  0  0  0  0
   39.0630   31.1630   39.8120 C   0  0  0  0  0  0  0  0  0  0  0  0
   38.1180   31.3370   38.8140 C   0  0  0  0  0  0  0  0  0  0  0  0
   37.3720   32.5300   38.8380 C   0  0  0  0  0  0  0  0  0  0  0  0
   37.6150   33.4370   39.8230 N   0  0  0  0  0  0  0  0  0  0  0  0
   38.5510   33.2130   40.7720 C   0  0  0  0  0  0  0  0  0  0  0  0
   39.2680   32.0820   40.7630 N   0  0  0  0  0  0  0  0  0  0  0  0
   37.8830   30.6540   38.0110 H   0  0  0  0  0  0  0  0  0  0  0  0
   36.6150   32.7160   38.0750 H   0  0  0  0  0  0  0  0  0  0  0  0
   38.7670   33.9220   41.5730 H   0  0  0  0  0  0  0  0  0  0  0  0
  1  3  1  0  0  0  0
  2  9  1  0  0  0  0
  3  2  2  0  0  0  0
  3  4  1  0  0  0  0
  4  6  2  0  0  0  0
  5  4  1  0  0  0  0
  6  8  1  0  0  0  0
  6  7  1  0  0  0  0
  9  8  2  0  0  0  0
 10 11  1  0  0  0  0
 11 12  2  0  0  0  0
 11  2  1  0  0  0  0
 13 11  2  0  0  0  0
 14 16  1  0  0  0  0
 14  1  1  0  0  0  0
 15 14  2  0  0  0  0
 16 21  1  0  0  0  0
 17 18  1  0  0  0  0
 17 16  2  0  0  0  0
 18 19  2  0  0  0  0
 19 20  1  0  0  0  0
 20 24  1  0  0  0  0
 21 20  2  0  0  0  0
 22 17  1  0  0  0  0
 23 18  1  0  0  0  0
M  END
>  <minimizedAffinity>
-4.263412

$$$$

 OpenBabel03242518293D

 24 25  0  0  0  0  0  0  0  0999 V2000
   38.2250   30.9520   40.8780 O   0  0  0  0  0  0  0  0  0  0  0  0
   36.6610   29.0960   41.2530 C   0  0  0  0  0  0  0  0  0  0  0  0
   37.7420   29.8600   41.5990 C   0  0  0  0  0  0  0  0  0  0  0  0
   38.4650   29.5790   42.7570 C   0  0  0  0  0  0  0  0  0  0  0  0
   39.3290   30.1340   43.1020 H   0  0  0  0  0  0  0  0  0  0  0  0
   38.0550   28.5030   43.5440 C   0  0  0  0  0  0  0  0  0  0  0  0
   38.5790   28.2400   44.4550 H   0  0  0  0  0  0  0  0  0  0  0  0
   36.9750   27.7210   43.2190 C   0  0  0  0  0  3  0  0  0  0  0  0
   36.2850   28.0370   42.0580 C   0  0  0  0  0  3  0  0  0  0  0  0
   35.9040   30.9010   39.6350 H   0  0  0  0  0  0  0  0  0  0  0  0
   35.8460   29.5520   39.7830 S   0  0  0  0  0  0  0  0  0  0  0  0
   34.3920   29.1700   39.9280 O   0  0  0  0  0  0  0  0  0  0  0  0
   36.3660   28.7930   38.5970 O   0  0  0  0  0  0  0  0  0  0  0  0
   39.3890   30.8960   40.1320 C   0  0  0  0  0  0  0  0  0  0  0  0
   39.4860   29.9850   39.2660 O   0  0  0  0  0  0  0  0  0  0  0  0
   40.3580   31.9000   40.4390 C   0  0  0  0  0  0  0  0  0  0  0  0
   40.1180   33.1220   39.8320 C   0  0  0  0  0  0  0  0  0  0  0  0
   41.0340   34.1580   40.0910 C   0  0  0  0  0  0  0  0  0  0  0  0
   42.0920   33.9100   40.9100 N   0  0  0  0  0  0  0  0  0  0  0  0
   42.2770   32.6960   41.4750 C   0  0  0  0  0  0  0  0  0  0  0  0
   41.4130   31.7000   41.2380 N   0  0  0  0  0  0  0  0  0  0  0  0
   39.2980   33.3750   39.1760 H   0  0  0  0  0  0  0  0  0  0  0  0
   40.8900   35.1400   39.6380 H   0  0  0  0  0  0  0  0  0  0  0  0
   43.1150   32.4690   42.1350 H   0  0  0  0  0  0  0  0  0  0  0  0
  1  3  1  0  0  0  0
  2  3  2  0  0  0  0
  2  9  1  0  0  0  0
  3  4  1  0  0  0  0
  4  5  1  0  0  0  0
  4  6  2  0  0  0  0
  6  7  1  0  0  0  0
  8  6  1  0  0  0  0
  9  8  2  0  0  0  0
 10 11  1  0  0  0  0
 11 12  2  0  0  0  0
 11  2  1  0  0  0  0
 13 11  2  0  0  0  0
 14 16  1  0  0  0  0
 14  1  1  0  0  0  0
 15 14  2  0  0  0  0
 16 21  1  0  0  0  0
 17 18  1  0  0  0  0
 17 16  2  0  0  0  0
 18 19  2  0  0  0  0
 19 20  1  0  0  0  0
 20 24  1  0  0  0  0
 21 20  2  0  0  0  0
 22 17  1  0  0  0  0
 23 18  1  0  0  0  0
M  END
>  <minimizedAffinity>
-4.25713491

$$$$
