
 OpenBabel03242523423D

 27 28  0  0  1  0  0  0  0  0999 V2000
   46.3560   35.1530   42.2900 C   0  0  2  0  0  0  0  0  0  0  0  0
   45.9660   36.1990   42.3650 H   0  0  0  0  0  0  0  0  0  0  0  0
   45.2470   34.9490   44.5010 C   0  0  0  0  0  0  0  0  0  0  0  0
   46.2110   34.5310   43.5930 C   0  0  0  0  0  0  0  0  0  0  0  0
   47.0350   33.4590   44.0220 C   0  0  0  0  0  0  0  0  0  0  0  0
   46.8280   32.9340   45.2560 N   0  0  0  0  0  0  0  0  0  0  0  0
   45.8790   33.3830   46.0820 C   0  0  0  0  0  0  0  0  0  0  0  0
   45.0840   34.3970   45.7010 N   0  0  0  0  0  0  0  0  0  0  0  0
   44.5590   35.7540   44.2950 H   0  0  0  0  0  0  0  0  0  0  0  0
   47.8070   33.0840   43.3680 H   0  0  0  0  0  0  0  0  0  0  0  0
   45.7690   32.9150   47.0530 H   0  0  0  0  0  0  0  0  0  0  0  0
   46.2400   33.5940   40.2560 C   0  0  0  0  0  0  0  0  0  0  0  0
   45.6800   34.4520   41.1700 C   0  0  0  0  0  0  0  0  0  0  0  0
   44.3170   34.7300   41.0500 C   0  0  0  0  0  0  0  0  0  0  0  0
   43.7530   35.3840   41.6980 H   0  0  0  0  0  0  0  0  0  0  0  0
   43.5400   34.1700   40.0510 C   0  0  0  0  0  0  0  0  0  0  0  0
   42.4960   34.3330   39.8920 H   0  0  0  0  0  0  0  0  0  0  0  0
   44.1420   33.3140   39.1520 C   0  0  0  0  0  3  0  0  0  0  0  0
   45.4850   33.0200   39.2460 C   0  0  0  0  0  3  0  0  0  0  0  0
   48.5820   34.2460   40.9980 H   0  0  0  0  0  0  0  0  0  0  0  0
   47.9210   33.2280   40.3960 S   0  0  0  0  0  0  0  0  0  0  0  0
   48.1950   31.8770   40.9940 O   0  0  0  0  0  0  0  0  0  0  0  0
   48.5200   33.1360   38.9920 O   0  0  0  0  0  0  0  0  0  0  0  0
   47.8400   35.3380   42.0230 C   0  0  0  0  0  0  0  0  0  0  0  0
   48.1920   36.0380   42.8370 H   0  0  0  0  0  0  0  0  0  0  0  0
   47.9740   35.8520   41.0420 H   0  0  0  0  0  0  0  0  0  0  0  0
   48.4320   34.4320   42.1580 H   0  0  0  0  0  0  0  0  0  0  0  0
  1  2  1  1  0  0  0
  1  4  1  0  0  0  0
  3  8  1  0  0  0  0
  4  5  1  0  0  0  0
  4  3  2  0  0  0  0
  5  6  2  0  0  0  0
  6  7  1  0  0  0  0
  7 11  1  0  0  0  0
  8  7  2  0  0  0  0
  9  3  1  0  0  0  0
 10  5  1  0  0  0  0
 12 21  1  0  0  0  0
 12 13  1  0  0  0  0
 13  1  1  0  0  0  0
 14 13  2  0  0  0  0
 14 15  1  0  0  0  0
 16 14  1  0  0  0  0
 17 16  1  0  0  0  0
 18 19  1  0  0  0  0
 18 16  2  0  0  0  0
 19 12  2  0  0  0  0
 21 22  2  0  0  0  0
 21 20  1  0  0  0  0
 23 21  2  0  0  0  0
 24 27  1  0  0  0  0
 24  1  1  0  0  0  0
 24 25  1  0  0  0  0
 26 24  1  0  0  0  0
M  END
>  <minimizedAffinity>
-4.4601779

>  <minimizedRMSD>
1.12856638

$$$$
