
 OpenBabel03252505513D

 28 29  0  0  0  0  0  0  0  0999 V2000
   46.2540   32.5210   48.5140 C   0  0  0  0  0  0  0  0  0  0  0  0
   45.6340   32.3750   49.4180 H   0  0  0  0  0  0  0  0  0  0  0  0
   46.7910   33.5130   48.5540 H   0  0  0  0  0  0  0  0  0  0  0  0
   46.9160   30.2160   48.0750 C   0  0  0  0  0  0  0  0  0  0  0  0
   47.3160   31.4840   48.4820 C   0  0  0  0  0  0  0  0  0  0  0  0
   48.6320   31.7050   48.8290 C   0  0  0  0  0  0  0  0  0  0  0  0
   48.8550   32.7390   49.1360 H   0  0  0  0  0  0  0  0  0  0  0  0
   49.6060   30.7320   48.8030 C   0  0  0  0  0  0  0  0  0  0  0  0
   50.6250   30.9590   49.0850 H   0  0  0  0  0  0  0  0  0  0  0  0
   49.2350   29.4460   48.3980 C   0  0  0  0  0  3  0  0  0  0  0  0
   47.9130   29.2600   48.0570 C   0  0  0  0  0  3  0  0  0  0  0  0
   44.4200   30.6450   47.9480 H   0  0  0  0  0  0  0  0  0  0  0  0
   45.3320   29.7180   47.5930 S   0  0  0  0  0  0  0  0  0  0  0  0
   44.9260   28.4220   48.2410 O   0  0  0  0  0  0  0  0  0  0  0  0
   45.2860   29.5070   46.0860 O   0  0  0  0  0  0  0  0  0  0  0  0
   45.3890   32.4670   47.3950 O   0  0  0  0  0  0  0  0  0  0  0  0
   45.1990   34.8960   44.8020 C   0  0  0  0  0  0  0  0  0  0  0  0
   46.1670   34.4850   43.8910 C   0  0  0  0  0  0  0  0  0  0  0  0
   46.9020   33.3250   44.2000 C   0  0  0  0  0  0  0  0  0  0  0  0
   46.6380   32.6700   45.3550 N   0  0  0  0  0  0  0  0  0  0  0  0
   45.6830   33.1120   46.2070 C   0  0  0  0  0  0  0  0  0  0  0  0
   44.9740   34.2070   45.9370 N   0  0  0  0  0  0  0  0  0  0  0  0
   44.6230   35.7680   44.6020 H   0  0  0  0  0  0  0  0  0  0  0  0
   47.6510   33.0190   43.4820 H   0  0  0  0  0  0  0  0  0  0  0  0
   46.3610   35.3000   42.6500 C   0  0  0  0  0  0  0  0  0  0  0  0
   45.7560   36.5080   42.9240 F   0  0  0  0  0  0  0  0  0  0  0  0
   45.7120   34.6360   41.6330 F   0  0  0  0  0  0  0  0  0  0  0  0
   47.7150   35.4050   42.4120 F   0  0  0  0  0  0  0  0  0  0  0  0
  1  3  1  0  0  0  0
  1  2  1  0  0  0  0
  4  5  1  0  0  0  0
  5  1  1  0  0  0  0
  5  6  2  0  0  0  0
  6  7  1  0  0  0  0
  8  6  1  0  0  0  0
  8  9  1  0  0  0  0
 10  8  2  0  0  0  0
 11  4  2  0  0  0  0
 11 10  1  0  0  0  0
 13 12  1  0  0  0  0
 13  4  1  0  0  0  0
 13 14  2  0  0  0  0
 15 13  2  0  0  0  0
 16  1  1  0  0  0  0
 17 22  1  0  0  0  0
 18 19  1  0  0  0  0
 18 17  2  0  0  0  0
 19 20  2  0  0  0  0
 20 21  1  0  0  0  0
 21 16  1  0  0  0  0
 22 21  2  0  0  0  0
 23 17  1  0  0  0  0
 24 19  1  0  0  0  0
 25 26  1  0  0  0  0
 25 18  1  0  0  0  0
 27 25  1  0  0  0  0
 28 25  1  0  0  0  0
M  END
>  <minimizedAffinity>
-4.90428352

>  <minimizedRMSD>
1.54069316

$$$$
