
 OpenBabel03252502373D

 27 28  0  0  1  0  0  0  0  0999 V2000
   46.2460   35.1960   42.3240 C   0  0  2  0  0  0  0  0  0  0  0  0
   45.9280   36.2640   42.4350 H   0  0  0  0  0  0  0  0  0  0  0  0
   45.1810   34.9580   44.5530 C   0  0  0  0  0  0  0  0  0  0  0  0
   46.1360   34.5630   43.6240 C   0  0  0  0  0  0  0  0  0  0  0  0
   46.9860   33.5030   44.0310 C   0  0  0  0  0  0  0  0  0  0  0  0
   46.8110   32.9650   45.2650 N   0  0  0  0  0  0  0  0  0  0  0  0
   45.8700   33.3920   46.1110 C   0  0  0  0  0  0  0  0  0  0  0  0
   45.0500   34.3950   45.7520 N   0  0  0  0  0  0  0  0  0  0  0  0
   44.4750   35.7520   44.3660 H   0  0  0  0  0  0  0  0  0  0  0  0
   47.7520   33.1460   43.3600 H   0  0  0  0  0  0  0  0  0  0  0  0
   45.7860   32.9160   47.0810 H   0  0  0  0  0  0  0  0  0  0  0  0
   45.8970   33.6270   40.3260 C   0  0  0  0  0  0  0  0  0  0  0  0
   45.4650   34.5580   41.2360 C   0  0  0  0  0  0  0  0  0  0  0  0
   44.1390   34.9890   41.1450 C   0  0  0  0  0  0  0  0  0  0  0  0
   43.6710   35.7140   41.7930 H   0  0  0  0  0  0  0  0  0  0  0  0
   43.2760   34.5040   40.1770 C   0  0  0  0  0  0  0  0  0  0  0  0
   42.2540   34.7820   40.0420 H   0  0  0  0  0  0  0  0  0  0  0  0
   43.7510   33.5680   39.2810 C   0  0  0  0  0  3  0  0  0  0  0  0
   45.0550   33.1240   39.3470 C   0  0  0  0  0  3  0  0  0  0  0  0
   48.2800   33.9420   41.1500 H   0  0  0  0  0  0  0  0  0  0  0  0
   47.5290   33.0730   40.4310 S   0  0  0  0  0  0  0  0  0  0  0  0
   47.6530   31.6420   40.8720 O   0  0  0  0  0  0  0  0  0  0  0  0
   48.1400   33.0790   39.0290 O   0  0  0  0  0  0  0  0  0  0  0  0
   47.7210   35.2920   41.9740 C   0  0  0  0  0  0  0  0  0  0  0  0
   48.1620   35.9550   42.7760 H   0  0  0  0  0  0  0  0  0  0  0  0
   47.8320   35.8130   40.9950 H   0  0  0  0  0  0  0  0  0  0  0  0
   48.2610   34.3490   42.0640 H   0  0  0  0  0  0  0  0  0  0  0  0
  1  2  1  1  0  0  0
  1  4  1  0  0  0  0
  3  8  1  0  0  0  0
  4  5  1  0  0  0  0
  4  3  2  0  0  0  0
  5  6  2  0  0  0  0
  6  7  1  0  0  0  0
  7 11  1  0  0  0  0
  8  7  2  0  0  0  0
  9  3  1  0  0  0  0
 10  5  1  0  0  0  0
 12 21  1  0  0  0  0
 12 13  1  0  0  0  0
 13  1  1  0  0  0  0
 14 13  2  0  0  0  0
 14 15  1  0  0  0  0
 16 14  1  0  0  0  0
 17 16  1  0  0  0  0
 18 19  1  0  0  0  0
 18 16  2  0  0  0  0
 19 12  2  0  0  0  0
 21 22  2  0  0  0  0
 21 20  1  0  0  0  0
 23 21  2  0  0  0  0
 24 27  1  0  0  0  0
 24  1  1  0  0  0  0
 24 25  1  0  0  0  0
 26 24  1  0  0  0  0
M  END
>  <minimizedAffinity>
-4.5007925

>  <minimizedRMSD>
1.23098242

$$$$
