
 OpenBabel03252509113D

 34 37  0  0  0  0  0  0  0  0999 V2000
   42.9180   29.7410   39.5080 C   0  0  0  0  0  0  0  0  0  0  0  0
   43.3040   31.0020   39.8790 C   0  0  0  0  0  0  0  0  0  0  0  0
   42.8170   31.6620   41.0150 C   0  0  0  0  0  0  0  0  0  0  0  0
   41.8820   30.9980   41.8210 C   0  0  0  0  0  0  0  0  0  0  0  0
   41.2090   31.2950   42.9580 N   0  0  0  0  0  0  0  0  0  0  0  0
   40.4160   30.2360   43.2890 C   0  0  0  0  0  0  0  0  0  0  0  0
   40.6210   29.2930   42.3330 N   0  0  0  0  0  0  0  0  0  0  0  0
   41.5080   29.7350   41.4320 C   0  0  0  0  0  0  0  0  0  0  0  0
   41.9830   29.0780   40.3130 C   0  0  0  0  0  0  0  0  0  0  0  0
   43.3450   29.2980   38.6080 H   0  0  0  0  0  0  0  0  0  0  0  0
   41.3060   32.1970   43.4710 H   0  0  0  0  0  0  0  0  0  0  0  0
   39.7700   30.2020   44.1520 H   0  0  0  0  0  0  0  0  0  0  0  0
   41.6650   28.0780   40.0350 H   0  0  0  0  0  0  0  0  0  0  0  0
   44.8400   33.2640   37.3990 C   0  0  0  0  0  0  0  0  0  0  0  0
   46.2030   33.1010   37.6460 C   0  0  0  0  0  0  0  0  0  0  0  0
   46.5870   32.2160   38.6600 C   0  0  0  0  0  0  0  0  0  0  0  0
   45.6010   31.5650   39.3480 N   0  0  0  0  0  0  0  0  0  0  0  0
   44.2840   31.7480   39.0800 C   0  0  0  0  0  0  0  0  0  0  0  0
   43.9040   32.5860   38.1190 N   0  0  0  0  0  0  0  0  0  0  0  0
   44.5650   33.9520   36.6100 H   0  0  0  0  0  0  0  0  0  0  0  0
   46.9910   33.6000   37.1210 H   0  0  0  0  0  0  0  0  0  0  0  0
   47.6120   31.9980   38.9540 H   0  0  0  0  0  0  0  0  0  0  0  0
   42.5070   34.0760   40.9950 C   0  0  0  0  0  0  0  0  0  0  0  0
   43.2520   32.9850   41.3610 C   0  0  0  0  0  0  0  0  0  0  0  0
   44.4290   33.1770   42.0690 C   0  0  0  0  0  0  0  0  0  0  0  0
   44.9940   32.2940   42.3440 H   0  0  0  0  0  0  0  0  0  0  0  0
   44.8920   34.4260   42.4260 C   0  0  0  0  0  0  0  0  0  0  0  0
   45.8320   34.5370   42.9870 H   0  0  0  0  0  0  0  0  0  0  0  0
   44.1540   35.5390   42.0650 C   0  0  0  0  0  3  0  0  0  0  0  0
   42.9790   35.3410   41.3580 C   0  0  0  0  0  3  0  0  0  0  0  0
   41.0020   32.8370   39.2930 H   0  0  0  0  0  0  0  0  0  0  0  0
   41.0200   33.9640   40.1080 S   0  0  0  0  0  0  0  0  0  0  0  0
   40.6690   35.1920   39.3470 O   0  0  0  0  0  0  0  0  0  0  0  0
   39.9120   33.7250   41.1100 O   0  0  0  0  0  0  0  0  0  0  0  0
  1  2  2  0  0  0  0
  1  9  1  0  0  0  0
  2  3  1  0  0  0  0
  3 24  1  0  0  0  0
  3  4  2  0  0  0  0
  4  5  1  0  0  0  0
  5  6  1  0  0  0  0
  5 11  1  0  0  0  0
  6 12  1  0  0  0  0
  7  6  2  0  0  0  0
  8  4  1  0  0  0  0
  8  7  1  0  0  0  0
  9  8  2  0  0  0  0
 10  1  1  0  0  0  0
 13  9  1  0  0  0  0
 14 15  2  0  0  0  0
 14 19  1  0  0  0  0
 15 16  1  0  0  0  0
 16 22  1  0  0  0  0
 16 17  2  0  0  0  0
 18 17  1  0  0  0  0
 18  2  1  0  0  0  0
 19 18  2  0  0  0  0
 20 14  1  0  0  0  0
 21 15  1  0  0  0  0
 23 30  2  0  0  0  0
 23 24  1  0  0  0  0
 24 25  2  0  0  0  0
 25 26  1  0  0  0  0
 25 27  1  0  0  0  0
 27 28  1  0  0  0  0
 29 27  2  0  0  0  0
 30 29  1  0  0  0  0
 31 32  1  0  0  0  0
 32 23  1  0  0  0  0
 32 34  2  0  0  0  0
 33 32  2  0  0  0  0
M  END
>  <minimizedAffinity>
-4.26758337

>  <minimizedRMSD>
6.80701494

$$$$
