
 OpenBabel03252507323D

 52 55  0  0  1  0  0  0  0  0999 V2000
   47.0370   32.4530   45.2900 C   0  0  0  0  0  0  0  0  0  0  0  0
   45.9970   33.1550   45.8840 C   0  0  0  0  0  0  0  0  0  0  0  0
   45.3860   34.2220   45.1870 C   0  0  0  0  0  0  0  0  0  0  0  0
   45.8880   34.5020   43.9190 N   0  0  0  0  0  0  0  0  0  0  0  0
   46.8960   33.7870   43.4050 C   0  0  0  0  0  0  0  0  0  0  0  0
   47.4600   32.7810   44.0750 N   0  0  0  0  0  0  0  0  0  0  0  0
   45.4910   33.1400   46.8270 H   0  0  0  0  0  0  0  0  0  0  0  0
   44.5930   34.8590   45.4730 H   0  0  0  0  0  0  0  0  0  0  0  0
   47.6130   31.3540   46.0380 C   0  0  2  0  0  0  0  0  0  0  0  0
   47.0790   29.9780   45.5350 C   0  0  0  0  0  0  0  0  0  0  0  0
   47.8220   28.8820   46.2170 C   0  0  0  0  0  0  0  0  0  0  0  0
   48.0150   29.0420   47.6890 C   0  0  0  0  0  0  0  0  0  0  0  0
   48.2810   30.3940   48.1110 C   0  0  0  0  0  0  0  0  0  0  0  0
   47.3560   31.4450   47.4610 C   0  0  2  0  0  0  0  0  0  0  0  0
   48.6960   31.2870   45.8040 H   0  0  0  0  0  0  0  0  0  0  0  0
   45.9890   29.9400   45.6160 H   0  0  0  0  0  0  0  0  0  0  0  0
   47.3150   29.9880   44.4510 H   0  0  0  0  0  0  0  0  0  0  0  0
   48.7340   28.7030   45.6150 H   0  0  0  0  0  0  0  0  0  0  0  0
   47.2070   27.9450   46.0750 H   0  0  0  0  0  0  0  0  0  0  0  0
   49.0910   28.6050   47.7760 H   0  0  0  0  0  0  0  0  0  0  0  0
   47.5940   28.2820   48.3490 H   0  0  0  0  0  0  0  0  0  0  0  0
   49.3090   30.8120   47.9790 H   0  0  0  0  0  0  0  0  0  0  0  0
   48.0740   30.5010   49.2150 H   0  0  0  0  0  0  0  0  0  0  0  0
   47.6890   32.3550   47.9630 H   0  0  0  0  0  0  0  0  0  0  0  0
   45.9670   31.0770   47.7440 N   0  0  0  0  0  0  0  0  0  0  0  0
   45.3230   30.7080   48.9380 C   0  0  0  0  0  0  0  0  0  0  0  0
   44.9820   31.5580   49.8380 O   0  0  0  0  0  0  0  0  0  0  0  0
   45.0660   29.3110   49.0710 N   0  0  0  0  0  0  0  0  0  0  0  0
   45.2250   30.9800   46.9520 H   0  0  0  0  0  0  0  0  0  0  0  0
   44.4720   28.7560   48.4210 H   0  0  0  0  0  0  0  0  0  0  0  0
   45.2860   28.4830   49.6800 H   0  0  0  0  0  0  0  0  0  0  0  0
   47.3940   34.1470   42.0740 C   0  0  0  0  0  0  0  0  0  0  0  0
   48.2630   35.1910   41.8970 C   0  0  0  0  0  0  0  0  0  0  0  0
   48.7550   35.5650   40.6630 C   0  0  0  0  0  0  0  0  0  0  0  0
   48.3140   34.8090   39.5820 C   0  0  0  0  0  0  0  0  0  0  0  0
   47.4420   33.7590   39.7470 C   0  0  0  0  0  0  0  0  0  0  0  0
   47.0020   33.4530   40.9970 N   0  0  0  0  0  0  0  0  0  0  0  0
   48.5670   35.7360   42.7690 H   0  0  0  0  0  0  0  0  0  0  0  0
   49.4360   36.3940   40.5830 H   0  0  0  0  0  0  0  0  0  0  0  0
   48.7110   35.1200   38.6340 H   0  0  0  0  0  0  0  0  0  0  0  0
   47.7250   31.8900   38.1700 C   0  0  0  0  0  0  0  0  0  0  0  0
   46.9840   32.9740   38.6220 C   0  0  0  0  0  0  0  0  0  0  0  0
   45.8120   33.2540   37.9560 C   0  0  0  0  0  0  0  0  0  0  0  0
   45.1730   34.0780   38.2390 H   0  0  0  0  0  0  0  0  0  0  0  0
   45.3340   32.5350   36.8790 C   0  0  0  0  0  0  0  0  0  0  0  0
   44.4060   32.7800   36.3710 H   0  0  0  0  0  0  0  0  0  0  0  0
   46.0450   31.4670   36.4170 C   0  0  0  0  0  3  0  0  0  0  0  0
   47.2210   31.1740   37.0760 C   0  0  0  0  0  3  0  0  0  0  0  0
   49.2700   31.7010   40.2490 H   0  0  0  0  0  0  0  0  0  0  0  0
   49.2320   31.4010   38.9060 S   0  0  0  0  0  0  0  0  0  0  0  0
   49.2940   29.8780   38.8510 O   0  0  0  0  0  0  0  0  0  0  0  0
   50.4340   31.9280   38.1690 O   0  0  0  0  0  0  0  0  0  0  0  0
  1  2  1  0  0  0  0
  1  9  1  0  0  0  0
  2  7  1  0  0  0  0
  3  8  1  0  0  0  0
  3  2  2  0  0  0  0
  4  3  1  0  0  0  0
  5  4  2  0  0  0  0
  5  6  1  0  0  0  0
  6  1  2  0  0  0  0
  9 15  1  6  0  0  0
  9 14  1  0  0  0  0
 10 16  1  0  0  0  0
 10  9  1  0  0  0  0
 10 11  1  0  0  0  0
 11 12  1  0  0  0  0
 12 20  1  0  0  0  0
 12 13  1  0  0  0  0
 12 21  1  0  0  0  0
 13 23  1  0  0  0  0
 14 25  1  0  0  0  0
 14 24  1  1  0  0  0
 14 13  1  0  0  0  0
 17 10  1  0  0  0  0
 18 11  1  0  0  0  0
 19 11  1  0  0  0  0
 22 13  1  0  0  0  0
 25 26  1  0  0  0  0
 26 28  1  0  0  0  0
 26 27  2  0  0  0  0
 28 31  1  0  0  0  0
 29 25  1  0  0  0  0
 30 28  1  0  0  0  0
 32  5  1  0  0  0  0
 33 32  1  0  0  0  0
 33 38  1  0  0  0  0
 34 33  2  0  0  0  0
 35 36  2  0  0  0  0
 35 34  1  0  0  0  0
 36 37  1  0  0  0  0
 37 32  2  0  0  0  0
 39 34  1  0  0  0  0
 40 35  1  0  0  0  0
 41 42  1  0  0  0  0
 41 50  1  0  0  0  0
 42 36  1  0  0  0  0
 43 44  1  0  0  0  0
 43 42  2  0  0  0  0
 45 43  1  0  0  0  0
 46 45  1  0  0  0  0
 47 45  2  0  0  0  0
 47 48  1  0  0  0  0
 48 41  2  0  0  0  0
 50 49  1  0  0  0  0
 51 50  2  0  0  0  0
 52 50  2  0  0  0  0
M  END
>  <minimizedAffinity>
-6.28601503

>  <minimizedRMSD>
1.83146286

$$$$
