
 OpenBabel03252501393D

 38 40  0  0  0  0  0  0  0  0999 V2000
   39.1780   30.2500   42.6310 Cl  0  0  0  0  0  0  0  0  0  0  0  0
   38.1490   30.6000   41.2630 C   0  0  0  0  0  0  0  0  0  0  0  0
   38.0940   31.8560   40.6490 C   0  0  0  0  0  0  0  0  0  0  0  0
   37.2660   32.0630   39.5830 C   0  0  0  0  0  0  0  0  0  0  0  0
   36.4530   31.0810   39.0500 C   0  0  0  0  0  0  0  0  0  0  0  0
   36.4830   29.8230   39.6350 C   0  0  0  0  0  0  0  0  0  0  0  0
   35.4870   28.5020   39.0380 Cl  0  0  0  0  0  0  0  0  0  0  0  0
   37.3320   29.6430   40.7160 C   0  0  0  0  0  0  0  0  0  0  0  0
   37.2720   33.0650   39.1520 H   0  0  0  0  0  0  0  0  0  0  0  0
   35.8030   31.2750   38.2000 H   0  0  0  0  0  0  0  0  0  0  0  0
   38.3310   27.4630   40.7800 C   0  0  0  0  0  0  0  0  0  0  0  0
   37.3810   28.3140   41.3540 C   0  0  0  0  0  0  0  0  0  0  0  0
   36.6000   27.8900   42.4110 C   0  0  0  0  0  0  0  0  0  0  0  0
   35.8930   28.6120   42.7920 H   0  0  0  0  0  0  0  0  0  0  0  0
   36.7650   26.6110   42.9000 C   0  0  0  0  0  0  0  0  0  0  0  0
   36.1330   26.2940   43.7410 H   0  0  0  0  0  0  0  0  0  0  0  0
   37.6810   25.7160   42.3850 C   0  0  0  0  0  3  0  0  0  0  0  0
   38.4490   26.1800   41.3210 C   0  0  0  0  0  3  0  0  0  0  0  0
   39.7510   29.1800   39.5950 H   0  0  0  0  0  0  0  0  0  0  0  0
   39.3770   27.8710   39.4490 S   0  0  0  0  0  0  0  0  0  0  0  0
   38.8010   27.5830   38.1140 O   0  0  0  0  0  0  0  0  0  0  0  0
   40.6220   27.0040   39.5680 O   0  0  0  0  0  0  0  0  0  0  0  0
   38.9290   32.8280   41.2110 O   0  0  0  0  0  0  0  0  0  0  0  0
   40.0660   33.2200   40.4820 C   0  0  0  0  0  0  0  0  0  0  0  0
   40.3870   34.4240   40.1740 O   0  0  0  0  0  0  0  0  0  0  0  0
   41.0090   32.2610   39.9980 N   0  0  0  0  0  0  0  0  0  0  0  0
   40.8790   31.2550   40.1720 H   0  0  0  0  0  0  0  0  0  0  0  0
   42.0650   32.9630   39.2920 C   0  0  0  0  0  0  0  0  0  0  0  0
   42.0090   33.3040   37.9670 C   0  0  0  0  0  0  0  0  0  0  0  0
   43.1140   33.9750   37.4570 C   0  0  0  0  0  0  0  0  0  0  0  0
   44.1360   34.2370   38.2840 N   0  0  0  0  0  0  0  0  0  0  0  0
   44.1470   33.8810   39.5860 C   0  0  0  0  0  0  0  0  0  0  0  0
   43.0890   33.2250   40.1180 N   0  0  0  0  0  0  0  0  0  0  0  0
   43.0770   34.2470   36.4100 H   0  0  0  0  0  0  0  0  0  0  0  0
   45.0190   34.1390   40.1620 H   0  0  0  0  0  0  0  0  0  0  0  0
   40.8500   32.9490   37.2390 N   0  0  0  0  0  0  0  0  0  0  0  0
   39.9220   32.9470   37.7330 H   0  0  0  0  0  0  0  0  0  0  0  0
   41.0600   32.7250   36.2610 H   0  0  0  0  0  0  0  0  0  0  0  0
  2  1  1  0  0  0  0
  3 23  1  0  0  0  0
  3  2  2  0  0  0  0
  4  3  1  0  0  0  0
  5  4  2  0  0  0  0
  5  6  1  0  0  0  0
  6  8  2  0  0  0  0
  7  6  1  0  0  0  0
  8  2  1  0  0  0  0
  8 12  1  0  0  0  0
  9  4  1  0  0  0  0
 10  5  1  0  0  0  0
 11 18  2  0  0  0  0
 11 12  1  0  0  0  0
 12 13  2  0  0  0  0
 13 14  1  0  0  0  0
 13 15  1  0  0  0  0
 15 16  1  0  0  0  0
 17 15  2  0  0  0  0
 18 17  1  0  0  0  0
 20 22  2  0  0  0  0
 20 19  1  0  0  0  0
 20 11  1  0  0  0  0
 21 20  2  0  0  0  0
 24 23  1  0  0  0  0
 25 24  2  0  0  0  0
 26 27  1  0  0  0  0
 26 24  1  0  0  0  0
 28 26  1  0  0  0  0
 28 33  1  0  0  0  0
 29 28  2  0  0  0  0
 30 29  1  0  0  0  0
 30 31  2  0  0  0  0
 31 32  1  0  0  0  0
 32 33  2  0  0  0  0
 32 35  1  0  0  0  0
 34 30  1  0  0  0  0
 36 37  1  0  0  0  0
 36 29  1  0  0  0  0
 38 36  1  0  0  0  0
M  END
>  <minimizedAffinity>
-6.12699986

$$$$

 OpenBabel03252501393D

 38 40  0  0  0  0  0  0  0  0999 V2000
   36.5950   27.7830   40.0040 Cl  0  0  0  0  0  0  0  0  0  0  0  0
   37.6210   27.5340   41.3960 C   0  0  0  0  0  0  0  0  0  0  0  0
   38.0130   28.5680   42.2530 C   0  0  0  0  0  0  0  0  0  0  0  0
   38.8180   28.3040   43.3230 C   0  0  0  0  0  0  0  0  0  0  0  0
   39.2860   27.0410   43.6290 C   0  0  0  0  0  0  0  0  0  0  0  0
   38.9170   25.9910   42.8000 C   0  0  0  0  0  0  0  0  0  0  0  0
   39.4570   24.3440   43.0970 Cl  0  0  0  0  0  0  0  0  0  0  0  0
   38.1000   26.2890   41.7210 C   0  0  0  0  0  0  0  0  0  0  0  0
   39.0850   29.1550   43.9500 H   0  0  0  0  0  0  0  0  0  0  0  0
   39.9260   26.8600   44.4890 H   0  0  0  0  0  0  0  0  0  0  0  0
   38.5850   24.9840   39.7670 C   0  0  0  0  0  0  0  0  0  0  0  0
   37.6930   25.1890   40.8250 C   0  0  0  0  0  0  0  0  0  0  0  0
   36.5650   24.4060   40.9600 C   0  0  0  0  0  0  0  0  0  0  0  0
   35.9330   24.6340   41.8050 H   0  0  0  0  0  0  0  0  0  0  0  0
   36.3220   23.4110   40.0360 C   0  0  0  0  0  0  0  0  0  0  0  0
   35.4170   22.7990   40.1620 H   0  0  0  0  0  0  0  0  0  0  0  0
   37.1540   23.1500   38.9670 C   0  0  0  0  0  3  0  0  0  0  0  0
   38.2810   23.9610   38.8650 C   0  0  0  0  0  3  0  0  0  0  0  0
   39.9000   27.1120   40.0990 H   0  0  0  0  0  0  0  0  0  0  0  0
   40.0400   25.8980   39.4810 S   0  0  0  0  0  0  0  0  0  0  0  0
   40.4090   26.0200   38.0510 O   0  0  0  0  0  0  0  0  0  0  0  0
   41.1840   25.1510   40.1520 O   0  0  0  0  0  0  0  0  0  0  0  0
   37.5220   29.8340   41.9170 O   0  0  0  0  0  0  0  0  0  0  0  0
   38.3750   30.7050   41.2150 C   0  0  0  0  0  0  0  0  0  0  0  0
   39.6430   30.8190   41.3840 O   0  0  0  0  0  0  0  0  0  0  0  0
   37.8770   31.5820   40.2030 N   0  0  0  0  0  0  0  0  0  0  0  0
   36.8770   31.5970   39.9600 H   0  0  0  0  0  0  0  0  0  0  0  0
   38.9850   32.3470   39.6640 C   0  0  0  0  0  0  0  0  0  0  0  0
   39.4340   33.5280   40.1950 C   0  0  0  0  0  0  0  0  0  0  0  0
   40.5100   34.1250   39.5470 C   0  0  0  0  0  0  0  0  0  0  0  0
   41.0220   33.5120   38.4690 N   0  0  0  0  0  0  0  0  0  0  0  0
   40.5460   32.3470   37.9820 C   0  0  0  0  0  0  0  0  0  0  0  0
   39.4990   31.7360   38.5860 N   0  0  0  0  0  0  0  0  0  0  0  0
   40.8690   35.0570   39.9610 H   0  0  0  0  0  0  0  0  0  0  0  0
   41.0300   31.9410   37.1110 H   0  0  0  0  0  0  0  0  0  0  0  0
   38.7760   34.0340   41.3390 N   0  0  0  0  0  0  0  0  0  0  0  0
   38.3850   33.3550   42.0410 H   0  0  0  0  0  0  0  0  0  0  0  0
   38.7550   35.0580   41.3530 H   0  0  0  0  0  0  0  0  0  0  0  0
  1  2  1  0  0  0  0
  2  8  2  0  0  0  0
  2  3  1  0  0  0  0
  3  4  2  0  0  0  0
  4  5  1  0  0  0  0
  4  9  1  0  0  0  0
  5 10  1  0  0  0  0
  6  7  1  0  0  0  0
  6  5  2  0  0  0  0
  8  6  1  0  0  0  0
 11 12  1  0  0  0  0
 12 13  2  0  0  0  0
 12  8  1  0  0  0  0
 13 14  1  0  0  0  0
 15 16  1  0  0  0  0
 15 13  1  0  0  0  0
 17 15  2  0  0  0  0
 18 17  1  0  0  0  0
 18 11  2  0  0  0  0
 20 11  1  0  0  0  0
 20 19  1  0  0  0  0
 20 22  2  0  0  0  0
 21 20  2  0  0  0  0
 23  3  1  0  0  0  0
 24 25  2  0  0  0  0
 24 23  1  0  0  0  0
 26 24  1  0  0  0  0
 27 26  1  0  0  0  0
 28 29  1  0  0  0  0
 28 26  1  0  0  0  0
 29 36  1  0  0  0  0
 30 34  1  0  0  0  0
 30 29  2  0  0  0  0
 31 30  1  0  0  0  0
 32 31  2  0  0  0  0
 32 33  1  0  0  0  0
 33 28  2  0  0  0  0
 35 32  1  0  0  0  0
 36 38  1  0  0  0  0
 36 37  1  0  0  0  0
M  END
>  <minimizedAffinity>
-6.11849213

$$$$

 OpenBabel03252501393D

 38 40  0  0  0  0  0  0  0  0999 V2000
   39.6890   27.2100   38.8980 Cl  0  0  0  0  0  0  0  0  0  0  0  0
   38.4300   28.4160   38.7740 C   0  0  0  0  0  0  0  0  0  0  0  0
   38.5510   29.5710   37.9930 C   0  0  0  0  0  0  0  0  0  0  0  0
   37.5290   30.4740   37.9420 C   0  0  0  0  0  0  0  0  0  0  0  0
   36.3400   30.3180   38.6290 C   0  0  0  0  0  0  0  0  0  0  0  0
   36.1870   29.1830   39.4130 C   0  0  0  0  0  0  0  0  0  0  0  0
   34.7160   28.8850   40.3300 Cl  0  0  0  0  0  0  0  0  0  0  0  0
   37.2410   28.2850   39.4470 C   0  0  0  0  0  0  0  0  0  0  0  0
   37.6890   31.3510   37.3150 H   0  0  0  0  0  0  0  0  0  0  0  0
   35.5420   31.0540   38.5690 H   0  0  0  0  0  0  0  0  0  0  0  0
   37.4830   27.2640   41.6050 C   0  0  0  0  0  0  0  0  0  0  0  0
   37.1010   27.0700   40.2740 C   0  0  0  0  0  0  0  0  0  0  0  0
   36.6460   25.8400   39.8410 C   0  0  0  0  0  0  0  0  0  0  0  0
   36.3720   25.7820   38.7980 H   0  0  0  0  0  0  0  0  0  0  0  0
   36.5710   24.7970   40.7390 C   0  0  0  0  0  0  0  0  0  0  0  0
   36.2060   23.8260   40.3730 H   0  0  0  0  0  0  0  0  0  0  0  0
   36.9300   24.9120   42.0660 C   0  0  0  0  0  3  0  0  0  0  0  0
   37.3840   26.1660   42.4640 C   0  0  0  0  0  3  0  0  0  0  0  0
   37.4700   29.7870   41.6060 H   0  0  0  0  0  0  0  0  0  0  0  0
   38.0720   28.7580   42.2790 S   0  0  0  0  0  0  0  0  0  0  0  0
   39.5500   28.8720   42.3020 O   0  0  0  0  0  0  0  0  0  0  0  0
   37.6210   28.8100   43.7320 O   0  0  0  0  0  0  0  0  0  0  0  0
   39.7640   29.7000   37.3100 O   0  0  0  0  0  0  0  0  0  0  0  0
   40.6330   30.7350   37.7010 C   0  0  0  0  0  0  0  0  0  0  0  0
   41.3930   30.7320   38.7350 O   0  0  0  0  0  0  0  0  0  0  0  0
   40.7490   31.9380   36.9390 N   0  0  0  0  0  0  0  0  0  0  0  0
   40.1980   32.0780   36.0820 H   0  0  0  0  0  0  0  0  0  0  0  0
   41.7160   32.8060   37.5860 C   0  0  0  0  0  0  0  0  0  0  0  0
   41.4070   33.6880   38.5870 C   0  0  0  0  0  0  0  0  0  0  0  0
   42.4620   34.4410   39.0910 C   0  0  0  0  0  0  0  0  0  0  0  0
   43.6830   34.2520   38.5710 N   0  0  0  0  0  0  0  0  0  0  0  0
   43.9400   33.3690   37.5830 C   0  0  0  0  0  0  0  0  0  0  0  0
   42.9380   32.6180   37.0660 N   0  0  0  0  0  0  0  0  0  0  0  0
   42.2260   35.1400   39.8820 H   0  0  0  0  0  0  0  0  0  0  0  0
   44.9570   33.2950   37.2370 H   0  0  0  0  0  0  0  0  0  0  0  0
   40.0630   33.7600   39.0190 N   0  0  0  0  0  0  0  0  0  0  0  0
   39.4790   32.8850   39.0060 H   0  0  0  0  0  0  0  0  0  0  0  0
   39.7980   34.7060   39.3090 H   0  0  0  0  0  0  0  0  0  0  0  0
  2  1  1  0  0  0  0
  2  8  1  0  0  0  0
  3  2  2  0  0  0  0
  4  3  1  0  0  0  0
  4  5  2  0  0  0  0
  5  6  1  0  0  0  0
  6  8  2  0  0  0  0
  6  7  1  0  0  0  0
  8 12  1  0  0  0  0
  9  4  1  0  0  0  0
 10  5  1  0  0  0  0
 11 20  1  0  0  0  0
 11 18  1  0  0  0  0
 12 11  2  0  0  0  0
 13 12  1  0  0  0  0
 13 15  2  0  0  0  0
 14 13  1  0  0  0  0
 15 17  1  0  0  0  0
 16 15  1  0  0  0  0
 17 18  2  0  0  0  0
 19 20  1  0  0  0  0
 20 21  2  0  0  0  0
 20 22  2  0  0  0  0
 23 24  1  0  0  0  0
 23  3  1  0  0  0  0
 24 25  2  0  0  0  0
 26 28  1  0  0  0  0
 26 24  1  0  0  0  0
 27 26  1  0  0  0  0
 28 29  1  0  0  0  0
 29 36  1  0  0  0  0
 29 30  2  0  0  0  0
 30 34  1  0  0  0  0
 31 30  1  0  0  0  0
 32 31  2  0  0  0  0
 33 32  1  0  0  0  0
 33 28  2  0  0  0  0
 35 32  1  0  0  0  0
 36 38  1  0  0  0  0
 37 36  1  0  0  0  0
M  END
>  <minimizedAffinity>
-6.10712862

$$$$

 OpenBabel03252501393D

 38 40  0  0  0  0  0  0  0  0999 V2000
   36.8910   31.9630   39.4680 Cl  0  0  0  0  0  0  0  0  0  0  0  0
   37.5720   30.6860   40.4470 C   0  0  0  0  0  0  0  0  0  0  0  0
   38.5740   30.9030   41.3990 C   0  0  0  0  0  0  0  0  0  0  0  0
   39.0630   29.8590   42.1290 C   0  0  0  0  0  0  0  0  0  0  0  0
   38.6180   28.5580   41.9900 C   0  0  0  0  0  0  0  0  0  0  0  0
   37.6240   28.3070   41.0550 C   0  0  0  0  0  0  0  0  0  0  0  0
   36.9860   26.6890   40.7950 Cl  0  0  0  0  0  0  0  0  0  0  0  0
   37.1480   29.3860   40.3270 C   0  0  0  0  0  0  0  0  0  0  0  0
   39.8420   30.0970   42.8530 H   0  0  0  0  0  0  0  0  0  0  0  0
   39.0260   27.7450   42.5870 H   0  0  0  0  0  0  0  0  0  0  0  0
   36.5930   28.8520   38.0540 C   0  0  0  0  0  0  0  0  0  0  0  0
   36.0900   29.1440   39.3260 C   0  0  0  0  0  0  0  0  0  0  0  0
   34.7290   29.1870   39.5550 C   0  0  0  0  0  0  0  0  0  0  0  0
   34.4300   29.4200   40.5660 H   0  0  0  0  0  0  0  0  0  0  0  0
   33.8630   28.9360   38.5120 C   0  0  0  0  0  0  0  0  0  0  0  0
   32.7830   28.9750   38.7160 H   0  0  0  0  0  0  0  0  0  0  0  0
   34.2850   28.6410   37.2310 C   0  0  0  0  0  3  0  0  0  0  0  0
   35.6630   28.6070   37.0400 C   0  0  0  0  0  3  0  0  0  0  0  0
   38.8980   27.9440   38.5350 H   0  0  0  0  0  0  0  0  0  0  0  0
   38.2810   28.7670   37.6310 S   0  0  0  0  0  0  0  0  0  0  0  0
   38.9430   30.0870   37.5090 O   0  0  0  0  0  0  0  0  0  0  0  0
   38.3720   28.1180   36.2570 O   0  0  0  0  0  0  0  0  0  0  0  0
   39.0030   32.2290   41.5160 O   0  0  0  0  0  0  0  0  0  0  0  0
   40.0070   32.6770   40.6380 C   0  0  0  0  0  0  0  0  0  0  0  0
   40.4280   33.8840   40.5270 O   0  0  0  0  0  0  0  0  0  0  0  0
   40.6760   31.7790   39.7520 N   0  0  0  0  0  0  0  0  0  0  0  0
   40.4400   30.7770   39.7330 H   0  0  0  0  0  0  0  0  0  0  0  0
   41.6510   32.5280   38.9810 C   0  0  0  0  0  0  0  0  0  0  0  0
   41.4700   32.9130   37.6790 C   0  0  0  0  0  0  0  0  0  0  0  0
   42.5120   33.6260   37.0980 C   0  0  0  0  0  0  0  0  0  0  0  0
   43.6000   33.8810   37.8400 N   0  0  0  0  0  0  0  0  0  0  0  0
   43.7340   33.4800   39.1210 C   0  0  0  0  0  0  0  0  0  0  0  0
   42.7400   32.7830   39.7220 N   0  0  0  0  0  0  0  0  0  0  0  0
   42.3760   33.9340   36.0700 H   0  0  0  0  0  0  0  0  0  0  0  0
   44.6480   33.7380   39.6270 H   0  0  0  0  0  0  0  0  0  0  0  0
   40.2570   32.5600   37.0450 N   0  0  0  0  0  0  0  0  0  0  0  0
   39.3770   32.5190   37.6190 H   0  0  0  0  0  0  0  0  0  0  0  0
   40.3820   32.3740   36.0440 H   0  0  0  0  0  0  0  0  0  0  0  0
  1  2  1  0  0  0  0
  2  3  1  0  0  0  0
  3 23  1  0  0  0  0
  3  4  2  0  0  0  0
  4  9  1  0  0  0  0
  5  4  1  0  0  0  0
  5 10  1  0  0  0  0
  6  5  2  0  0  0  0
  7  6  1  0  0  0  0
  8  2  2  0  0  0  0
  8  6  1  0  0  0  0
 11 12  1  0  0  0  0
 12 13  2  0  0  0  0
 12  8  1  0  0  0  0
 13 14  1  0  0  0  0
 15 16  1  0  0  0  0
 15 13  1  0  0  0  0
 17 15  2  0  0  0  0
 18 17  1  0  0  0  0
 18 11  2  0  0  0  0
 20 11  1  0  0  0  0
 20 19  1  0  0  0  0
 21 20  2  0  0  0  0
 22 20  2  0  0  0  0
 24 23  1  0  0  0  0
 25 24  2  0  0  0  0
 26 24  1  0  0  0  0
 27 26  1  0  0  0  0
 28 33  1  0  0  0  0
 28 26  1  0  0  0  0
 29 28  2  0  0  0  0
 30 29  1  0  0  0  0
 30 31  2  0  0  0  0
 31 32  1  0  0  0  0
 32 35  1  0  0  0  0
 32 33  2  0  0  0  0
 34 30  1  0  0  0  0
 36 37  1  0  0  0  0
 36 29  1  0  0  0  0
 38 36  1  0  0  0  0
M  END
>  <minimizedAffinity>
-6.08395958

$$$$

 OpenBabel03252501393D

 38 40  0  0  0  0  0  0  0  0999 V2000
   38.6760   27.2970   38.4570 Cl  0  0  0  0  0  0  0  0  0  0  0  0
   38.0390   28.2470   39.7780 C   0  0  0  0  0  0  0  0  0  0  0  0
   37.9890   29.6450   39.7600 C   0  0  0  0  0  0  0  0  0  0  0  0
   37.4800   30.3270   40.8280 C   0  0  0  0  0  0  0  0  0  0  0  0
   36.9910   29.7080   41.9620 C   0  0  0  0  0  0  0  0  0  0  0  0
   37.0250   28.3220   42.0130 C   0  0  0  0  0  0  0  0  0  0  0  0
   36.4300   27.4330   43.4090 Cl  0  0  0  0  0  0  0  0  0  0  0  0
   37.5490   27.6570   40.9160 C   0  0  0  0  0  0  0  0  0  0  0  0
   37.4700   31.4140   40.7480 H   0  0  0  0  0  0  0  0  0  0  0  0
   36.5900   30.2770   42.7980 H   0  0  0  0  0  0  0  0  0  0  0  0
   38.7380   25.6810   41.5810 C   0  0  0  0  0  0  0  0  0  0  0  0
   37.5960   26.1820   40.9470 C   0  0  0  0  0  0  0  0  0  0  0  0
   36.6460   25.3270   40.4230 C   0  0  0  0  0  0  0  0  0  0  0  0
   35.7980   25.8010   39.9510 H   0  0  0  0  0  0  0  0  0  0  0  0
   36.8340   23.9660   40.5320 C   0  0  0  0  0  0  0  0  0  0  0  0
   36.0650   23.3030   40.1080 H   0  0  0  0  0  0  0  0  0  0  0  0
   37.9330   23.3980   41.1440 C   0  0  0  0  0  3  0  0  0  0  0  0
   38.8680   24.2920   41.6590 C   0  0  0  0  0  3  0  0  0  0  0  0
   39.8660   27.9260   41.8180 H   0  0  0  0  0  0  0  0  0  0  0  0
   40.0080   26.6450   42.2820 S   0  0  0  0  0  0  0  0  0  0  0  0
   41.3700   26.1030   42.0670 O   0  0  0  0  0  0  0  0  0  0  0  0
   39.7900   26.6580   43.7880 O   0  0  0  0  0  0  0  0  0  0  0  0
   38.4910   30.2420   38.5990 O   0  0  0  0  0  0  0  0  0  0  0  0
   39.5930   31.1070   38.7260 C   0  0  0  0  0  0  0  0  0  0  0  0
   40.7770   30.7710   39.0910 O   0  0  0  0  0  0  0  0  0  0  0  0
   39.4810   32.5030   38.4450 N   0  0  0  0  0  0  0  0  0  0  0  0
   38.5880   32.9130   38.1400 H   0  0  0  0  0  0  0  0  0  0  0  0
   40.7730   33.1260   38.6620 C   0  0  0  0  0  0  0  0  0  0  0  0
   41.2190   33.5650   39.8810 C   0  0  0  0  0  0  0  0  0  0  0  0
   42.4860   34.1380   39.9030 C   0  0  0  0  0  0  0  0  0  0  0  0
   43.1680   34.2160   38.7510 N   0  0  0  0  0  0  0  0  0  0  0  0
   42.6870   33.7680   37.5720 C   0  0  0  0  0  0  0  0  0  0  0  0
   41.4570   33.2050   37.5110 N   0  0  0  0  0  0  0  0  0  0  0  0
   42.8450   34.4880   40.8620 H   0  0  0  0  0  0  0  0  0  0  0  0
   43.3170   33.8800   36.7060 H   0  0  0  0  0  0  0  0  0  0  0  0
   40.3670   33.4040   40.9970 N   0  0  0  0  0  0  0  0  0  0  0  0
   39.7360   32.5640   41.0350 H   0  0  0  0  0  0  0  0  0  0  0  0
   40.4700   34.1640   41.6770 H   0  0  0  0  0  0  0  0  0  0  0  0
  1  2  1  0  0  0  0
  2  8  1  0  0  0  0
  3  2  2  0  0  0  0
  3  4  1  0  0  0  0
  4  5  2  0  0  0  0
  5  6  1  0  0  0  0
  5 10  1  0  0  0  0
  6  7  1  0  0  0  0
  8 12  1  0  0  0  0
  8  6  2  0  0  0  0
  9  4  1  0  0  0  0
 11 18  1  0  0  0  0
 11 20  1  0  0  0  0
 12 11  2  0  0  0  0
 13 15  2  0  0  0  0
 13 12  1  0  0  0  0
 14 13  1  0  0  0  0
 15 17  1  0  0  0  0
 16 15  1  0  0  0  0
 17 18  2  0  0  0  0
 19 20  1  0  0  0  0
 20 22  2  0  0  0  0
 21 20  2  0  0  0  0
 23 24  1  0  0  0  0
 23  3  1  0  0  0  0
 24 25  2  0  0  0  0
 26 28  1  0  0  0  0
 26 24  1  0  0  0  0
 27 26  1  0  0  0  0
 28 29  1  0  0  0  0
 29 30  2  0  0  0  0
 29 36  1  0  0  0  0
 30 34  1  0  0  0  0
 31 30  1  0  0  0  0
 32 31  2  0  0  0  0
 33 32  1  0  0  0  0
 33 28  2  0  0  0  0
 35 32  1  0  0  0  0
 36 37  1  0  0  0  0
 36 38  1  0  0  0  0
M  END
>  <minimizedAffinity>
-6.01874971

$$$$

 OpenBabel03252501393D

 38 40  0  0  0  0  0  0  0  0999 V2000
   39.4590   27.1470   39.0840 Cl  0  0  0  0  0  0  0  0  0  0  0  0
   38.1060   27.9330   39.8610 C   0  0  0  0  0  0  0  0  0  0  0  0
   37.4160   29.0090   39.2920 C   0  0  0  0  0  0  0  0  0  0  0  0
   36.3670   29.5780   39.9550 C   0  0  0  0  0  0  0  0  0  0  0  0
   35.9240   29.1470   41.1900 C   0  0  0  0  0  0  0  0  0  0  0  0
   36.5850   28.0810   41.7830 C   0  0  0  0  0  0  0  0  0  0  0  0
   36.1040   27.4530   43.3540 Cl  0  0  0  0  0  0  0  0  0  0  0  0
   37.6470   27.5240   41.0880 C   0  0  0  0  0  0  0  0  0  0  0  0
   35.8740   30.4130   39.4550 H   0  0  0  0  0  0  0  0  0  0  0  0
   35.0840   29.6200   41.6950 H   0  0  0  0  0  0  0  0  0  0  0  0
   39.4450   26.7860   42.4940 C   0  0  0  0  0  0  0  0  0  0  0  0
   38.3660   26.3890   41.6980 C   0  0  0  0  0  0  0  0  0  0  0  0
   38.0570   25.0520   41.5420 C   0  0  0  0  0  0  0  0  0  0  0  0
   37.2070   24.8370   40.9110 H   0  0  0  0  0  0  0  0  0  0  0  0
   38.8280   24.1040   42.1820 C   0  0  0  0  0  0  0  0  0  0  0  0
   38.5640   23.0460   42.0430 H   0  0  0  0  0  0  0  0  0  0  0  0
   39.9070   24.4190   42.9820 C   0  0  0  0  0  3  0  0  0  0  0  0
   40.1870   25.7760   43.1150 C   0  0  0  0  0  3  0  0  0  0  0  0
   40.9290   28.4150   43.7240 H   0  0  0  0  0  0  0  0  0  0  0  0
   39.9410   28.4320   42.7750 S   0  0  0  0  0  0  0  0  0  0  0  0
   38.8300   29.3500   43.1170 O   0  0  0  0  0  0  0  0  0  0  0  0
   40.5380   28.9530   41.4760 O   0  0  0  0  0  0  0  0  0  0  0  0
   37.8880   29.4210   38.0420 O   0  0  0  0  0  0  0  0  0  0  0  0
   38.7480   30.5350   37.9980 C   0  0  0  0  0  0  0  0  0  0  0  0
   38.5780   31.5900   37.2870 O   0  0  0  0  0  0  0  0  0  0  0  0
   39.9420   30.5860   38.7800 N   0  0  0  0  0  0  0  0  0  0  0  0
   40.2050   29.8070   39.3990 H   0  0  0  0  0  0  0  0  0  0  0  0
   40.6100   31.8480   38.5240 C   0  0  0  0  0  0  0  0  0  0  0  0
   41.4850   32.0600   37.4910 C   0  0  0  0  0  0  0  0  0  0  0  0
   42.0320   33.3350   37.3990 C   0  0  0  0  0  0  0  0  0  0  0  0
   41.6700   34.2490   38.3110 N   0  0  0  0  0  0  0  0  0  0  0  0
   40.8030   33.9940   39.3130 C   0  0  0  0  0  0  0  0  0  0  0  0
   40.2500   32.7640   39.4360 N   0  0  0  0  0  0  0  0  0  0  0  0
   42.7230   33.5090   36.5860 H   0  0  0  0  0  0  0  0  0  0  0  0
   40.5810   34.8000   39.9920 H   0  0  0  0  0  0  0  0  0  0  0  0
   41.7550   30.9810   36.6180 N   0  0  0  0  0  0  0  0  0  0  0  0
   40.9880   30.2910   36.4130 H   0  0  0  0  0  0  0  0  0  0  0  0
   42.7170   30.9980   36.2670 H   0  0  0  0  0  0  0  0  0  0  0  0
  1  2  1  0  0  0  0
  2  8  1  0  0  0  0
  3  2  2  0  0  0  0
  3  4  1  0  0  0  0
  4  5  2  0  0  0  0
  5 10  1  0  0  0  0
  5  6  1  0  0  0  0
  6  7  1  0  0  0  0
  8 12  1  0  0  0  0
  8  6  2  0  0  0  0
  9  4  1  0  0  0  0
 11 20  1  0  0  0  0
 11 18  1  0  0  0  0
 12 11  2  0  0  0  0
 13 12  1  0  0  0  0
 13 15  2  0  0  0  0
 14 13  1  0  0  0  0
 15 17  1  0  0  0  0
 16 15  1  0  0  0  0
 17 18  2  0  0  0  0
 20 21  2  0  0  0  0
 20 19  1  0  0  0  0
 22 20  2  0  0  0  0
 23  3  1  0  0  0  0
 24 23  1  0  0  0  0
 24 26  1  0  0  0  0
 25 24  2  0  0  0  0
 26 27  1  0  0  0  0
 28 26  1  0  0  0  0
 28 33  1  0  0  0  0
 29 28  2  0  0  0  0
 30 29  1  0  0  0  0
 30 31  2  0  0  0  0
 31 32  1  0  0  0  0
 32 33  2  0  0  0  0
 32 35  1  0  0  0  0
 34 30  1  0  0  0  0
 36 29  1  0  0  0  0
 37 36  1  0  0  0  0
 38 36  1  0  0  0  0
M  END
>  <minimizedAffinity>
-5.96415377

$$$$

 OpenBabel03252501393D

 38 40  0  0  0  0  0  0  0  0999 V2000
   39.7440   27.7130   38.5660 Cl  0  0  0  0  0  0  0  0  0  0  0  0
   38.4530   28.8840   38.6930 C   0  0  0  0  0  0  0  0  0  0  0  0
   38.5030   30.1470   38.0940 C   0  0  0  0  0  0  0  0  0  0  0  0
   37.4590   31.0150   38.2350 C   0  0  0  0  0  0  0  0  0  0  0  0
   36.3150   30.7190   38.9510 C   0  0  0  0  0  0  0  0  0  0  0  0
   36.2320   29.4740   39.5590 C   0  0  0  0  0  0  0  0  0  0  0  0
   34.8230   28.9940   40.4960 Cl  0  0  0  0  0  0  0  0  0  0  0  0
   37.3080   28.6140   39.4000 C   0  0  0  0  0  0  0  0  0  0  0  0
   37.5630   31.9820   37.7420 H   0  0  0  0  0  0  0  0  0  0  0  0
   35.4980   31.4300   39.0460 H   0  0  0  0  0  0  0  0  0  0  0  0
   37.7680   27.2690   41.3330 C   0  0  0  0  0  0  0  0  0  0  0  0
   37.2430   27.2850   40.0370 C   0  0  0  0  0  0  0  0  0  0  0  0
   36.7290   26.1360   39.4690 C   0  0  0  0  0  0  0  0  0  0  0  0
   36.3440   26.2400   38.4650 H   0  0  0  0  0  0  0  0  0  0  0  0
   36.7390   24.9640   40.1960 C   0  0  0  0  0  0  0  0  0  0  0  0
   36.3250   24.0610   39.7240 H   0  0  0  0  0  0  0  0  0  0  0  0
   37.2400   24.8710   41.4780 C   0  0  0  0  0  3  0  0  0  0  0  0
   37.7480   26.0500   42.0160 C   0  0  0  0  0  3  0  0  0  0  0  0
   38.8680   29.5380   41.2180 H   0  0  0  0  0  0  0  0  0  0  0  0
   38.4440   28.6430   42.1640 S   0  0  0  0  0  0  0  0  0  0  0  0
   39.5010   28.2990   43.1440 O   0  0  0  0  0  0  0  0  0  0  0  0
   37.3210   29.2880   42.9630 O   0  0  0  0  0  0  0  0  0  0  0  0
   39.6730   30.4160   37.3750 O   0  0  0  0  0  0  0  0  0  0  0  0
   40.6350   31.2500   37.9730 C   0  0  0  0  0  0  0  0  0  0  0  0
   41.8080   30.8940   38.3570 O   0  0  0  0  0  0  0  0  0  0  0  0
   40.3760   32.6340   38.2150 N   0  0  0  0  0  0  0  0  0  0  0  0
   39.4740   33.0570   37.9570 H   0  0  0  0  0  0  0  0  0  0  0  0
   41.5470   33.2250   38.8340 C   0  0  0  0  0  0  0  0  0  0  0  0
   42.5630   33.8270   38.1390 C   0  0  0  0  0  0  0  0  0  0  0  0
   43.6090   34.3390   38.8980 C   0  0  0  0  0  0  0  0  0  0  0  0
   43.5480   34.2120   40.2320 N   0  0  0  0  0  0  0  0  0  0  0  0
   42.5260   33.6090   40.8740 C   0  0  0  0  0  0  0  0  0  0  0  0
   41.4890   33.0970   40.1690 N   0  0  0  0  0  0  0  0  0  0  0  0
   44.4140   34.8160   38.3560 H   0  0  0  0  0  0  0  0  0  0  0  0
   42.5760   33.5600   41.9480 H   0  0  0  0  0  0  0  0  0  0  0  0
   42.4650   33.8750   36.7300 N   0  0  0  0  0  0  0  0  0  0  0  0
   41.5140   33.9680   36.2910 H   0  0  0  0  0  0  0  0  0  0  0  0
   43.3810   33.8110   36.2750 H   0  0  0  0  0  0  0  0  0  0  0  0
  1  2  1  0  0  0  0
  2  8  1  0  0  0  0
  3  4  1  0  0  0  0
  3  2  2  0  0  0  0
  4  5  2  0  0  0  0
  5 10  1  0  0  0  0
  5  6  1  0  0  0  0
  6  7  1  0  0  0  0
  8  6  2  0  0  0  0
  8 12  1  0  0  0  0
  9  4  1  0  0  0  0
 11 18  1  0  0  0  0
 11 20  1  0  0  0  0
 12 11  2  0  0  0  0
 13 12  1  0  0  0  0
 13 15  2  0  0  0  0
 14 13  1  0  0  0  0
 15 17  1  0  0  0  0
 16 15  1  0  0  0  0
 17 18  2  0  0  0  0
 19 20  1  0  0  0  0
 20 22  2  0  0  0  0
 20 21  2  0  0  0  0
 23 24  1  0  0  0  0
 23  3  1  0  0  0  0
 24 26  1  0  0  0  0
 24 25  2  0  0  0  0
 26 28  1  0  0  0  0
 27 26  1  0  0  0  0
 28 33  1  0  0  0  0
 29 28  2  0  0  0  0
 29 30  1  0  0  0  0
 30 31  2  0  0  0  0
 31 32  1  0  0  0  0
 32 35  1  0  0  0  0
 33 32  2  0  0  0  0
 34 30  1  0  0  0  0
 36 29  1  0  0  0  0
 37 36  1  0  0  0  0
 38 36  1  0  0  0  0
M  END
>  <minimizedAffinity>
-5.93214989

$$$$

 OpenBabel03252501393D

 38 40  0  0  0  0  0  0  0  0999 V2000
   40.5280   27.7520   40.4720 Cl  0  0  0  0  0  0  0  0  0  0  0  0
   39.4520   27.8790   39.1010 C   0  0  0  0  0  0  0  0  0  0  0  0
   39.8970   28.1410   37.8010 C   0  0  0  0  0  0  0  0  0  0  0  0
   39.0010   28.2290   36.7740 C   0  0  0  0  0  0  0  0  0  0  0  0
   37.6380   28.0690   36.9380 C   0  0  0  0  0  0  0  0  0  0  0  0
   37.1630   27.8080   38.2150 C   0  0  0  0  0  0  0  0  0  0  0  0
   35.4470   27.5890   38.5350 Cl  0  0  0  0  0  0  0  0  0  0  0  0
   38.0950   27.7250   39.2370 C   0  0  0  0  0  0  0  0  0  0  0  0
   39.4150   28.4350   35.7870 H   0  0  0  0  0  0  0  0  0  0  0  0
   36.9480   28.1450   36.1010 H   0  0  0  0  0  0  0  0  0  0  0  0
   37.3210   28.6080   41.3300 C   0  0  0  0  0  0  0  0  0  0  0  0
   37.6130   27.4480   40.6040 C   0  0  0  0  0  0  0  0  0  0  0  0
   37.4440   26.2000   41.1690 C   0  0  0  0  0  0  0  0  0  0  0  0
   37.6940   25.3610   40.5370 H   0  0  0  0  0  0  0  0  0  0  0  0
   36.9820   26.1050   42.4650 C   0  0  0  0  0  0  0  0  0  0  0  0
   36.8560   25.1010   42.8960 H   0  0  0  0  0  0  0  0  0  0  0  0
   36.6740   27.2020   43.2420 C   0  0  0  0  0  3  0  0  0  0  0  0
   36.8560   28.4430   42.6380 C   0  0  0  0  0  3  0  0  0  0  0  0
   37.5730   30.1810   39.3730 H   0  0  0  0  0  0  0  0  0  0  0  0
   37.4880   30.2380   40.7390 S   0  0  0  0  0  0  0  0  0  0  0  0
   38.6040   30.9940   41.3530 O   0  0  0  0  0  0  0  0  0  0  0  0
   36.2150   30.9860   41.1060 O   0  0  0  0  0  0  0  0  0  0  0  0
   41.2800   28.2970   37.6680 O   0  0  0  0  0  0  0  0  0  0  0  0
   41.8050   29.6010   37.7350 C   0  0  0  0  0  0  0  0  0  0  0  0
   42.2220   30.1930   38.7950 O   0  0  0  0  0  0  0  0  0  0  0  0
   41.9240   30.4170   36.5690 N   0  0  0  0  0  0  0  0  0  0  0  0
   41.6290   30.0710   35.6460 H   0  0  0  0  0  0  0  0  0  0  0  0
   42.4960   31.6950   36.9520 C   0  0  0  0  0  0  0  0  0  0  0  0
   41.7570   32.8150   37.2310 C   0  0  0  0  0  0  0  0  0  0  0  0
   42.4740   33.9530   37.5820 C   0  0  0  0  0  0  0  0  0  0  0  0
   43.8120   33.8730   37.6250 N   0  0  0  0  0  0  0  0  0  0  0  0
   44.4980   32.7460   37.3420 C   0  0  0  0  0  0  0  0  0  0  0  0
   43.8340   31.6180   36.9950 N   0  0  0  0  0  0  0  0  0  0  0  0
   41.8980   34.8410   37.8030 H   0  0  0  0  0  0  0  0  0  0  0  0
   45.5710   32.7900   37.4050 H   0  0  0  0  0  0  0  0  0  0  0  0
   40.3500   32.7220   37.1380 N   0  0  0  0  0  0  0  0  0  0  0  0
   39.8840   31.8130   37.3890 H   0  0  0  0  0  0  0  0  0  0  0  0
   39.9230   33.5980   36.8200 H   0  0  0  0  0  0  0  0  0  0  0  0
  2  8  1  0  0  0  0
  2  1  1  0  0  0  0
  3  2  2  0  0  0  0
  4  5  2  0  0  0  0
  4  3  1  0  0  0  0
  5  6  1  0  0  0  0
  6  7  1  0  0  0  0
  6  8  2  0  0  0  0
  8 12  1  0  0  0  0
  9  4  1  0  0  0  0
 10  5  1  0  0  0  0
 11 18  1  0  0  0  0
 12 13  1  0  0  0  0
 12 11  2  0  0  0  0
 13 15  2  0  0  0  0
 14 13  1  0  0  0  0
 15 16  1  0  0  0  0
 15 17  1  0  0  0  0
 18 17  2  0  0  0  0
 19 20  1  0  0  0  0
 20 22  2  0  0  0  0
 20 11  1  0  0  0  0
 20 21  2  0  0  0  0
 23 24  1  0  0  0  0
 23  3  1  0  0  0  0
 24 25  2  0  0  0  0
 26 28  1  0  0  0  0
 26 24  1  0  0  0  0
 27 26  1  0  0  0  0
 28 33  2  0  0  0  0
 28 29  1  0  0  0  0
 29 30  2  0  0  0  0
 30 31  1  0  0  0  0
 30 34  1  0  0  0  0
 32 35  1  0  0  0  0
 32 31  2  0  0  0  0
 33 32  1  0  0  0  0
 36 29  1  0  0  0  0
 36 37  1  0  0  0  0
 38 36  1  0  0  0  0
M  END
>  <minimizedAffinity>
-5.91699553

$$$$

 OpenBabel03252501393D

 38 40  0  0  0  0  0  0  0  0999 V2000
   40.1550   28.2300   40.2900 Cl  0  0  0  0  0  0  0  0  0  0  0  0
   38.8250   28.8270   39.3270 C   0  0  0  0  0  0  0  0  0  0  0  0
   38.9790   29.3000   38.0190 C   0  0  0  0  0  0  0  0  0  0  0  0
   37.8970   29.7550   37.3230 C   0  0  0  0  0  0  0  0  0  0  0  0
   36.6150   29.7780   37.8390 C   0  0  0  0  0  0  0  0  0  0  0  0
   36.4270   29.3160   39.1340 C   0  0  0  0  0  0  0  0  0  0  0  0
   34.8380   29.3030   39.8880 Cl  0  0  0  0  0  0  0  0  0  0  0  0
   37.5440   28.8620   39.8170 C   0  0  0  0  0  0  0  0  0  0  0  0
   38.0870   30.1080   36.3090 H   0  0  0  0  0  0  0  0  0  0  0  0
   35.7710   30.1460   37.2600 H   0  0  0  0  0  0  0  0  0  0  0  0
   37.1900   26.9800   41.2620 C   0  0  0  0  0  0  0  0  0  0  0  0
   37.3680   28.3660   41.1960 C   0  0  0  0  0  0  0  0  0  0  0  0
   37.3700   29.1340   42.3430 C   0  0  0  0  0  0  0  0  0  0  0  0
   37.5140   30.1940   42.1970 H   0  0  0  0  0  0  0  0  0  0  0  0
   37.1930   28.5190   43.5640 C   0  0  0  0  0  0  0  0  0  0  0  0
   37.1970   29.1510   44.4650 H   0  0  0  0  0  0  0  0  0  0  0  0
   37.0110   27.1590   43.7090 C   0  0  0  0  0  3  0  0  0  0  0  0
   37.0150   26.4190   42.5310 C   0  0  0  0  0  3  0  0  0  0  0  0
   38.2590   26.1810   39.1210 H   0  0  0  0  0  0  0  0  0  0  0  0
   37.1670   25.8980   39.8980 S   0  0  0  0  0  0  0  0  0  0  0  0
   35.8980   25.9140   39.1320 O   0  0  0  0  0  0  0  0  0  0  0  0
   37.3190   24.4830   40.4380 O   0  0  0  0  0  0  0  0  0  0  0  0
   40.2870   29.2630   37.5260 O   0  0  0  0  0  0  0  0  0  0  0  0
   41.1000   30.3930   37.7290 C   0  0  0  0  0  0  0  0  0  0  0  0
   41.8900   30.5870   38.7220 O   0  0  0  0  0  0  0  0  0  0  0  0
   41.1150   31.4770   36.7980 N   0  0  0  0  0  0  0  0  0  0  0  0
   40.5300   31.4570   35.9510 H   0  0  0  0  0  0  0  0  0  0  0  0
   42.0430   32.4860   37.2740 C   0  0  0  0  0  0  0  0  0  0  0  0
   43.3940   32.4540   37.0500 C   0  0  0  0  0  0  0  0  0  0  0  0
   44.1310   33.5060   37.5820 C   0  0  0  0  0  0  0  0  0  0  0  0
   43.4770   34.4600   38.2610 N   0  0  0  0  0  0  0  0  0  0  0  0
   42.1420   34.4490   38.4560 C   0  0  0  0  0  0  0  0  0  0  0  0
   41.3910   33.4410   37.9540 N   0  0  0  0  0  0  0  0  0  0  0  0
   45.1990   33.4870   37.4090 H   0  0  0  0  0  0  0  0  0  0  0  0
   41.7180   35.2640   39.0170 H   0  0  0  0  0  0  0  0  0  0  0  0
   43.9190   31.3690   36.3100 N   0  0  0  0  0  0  0  0  0  0  0  0
   43.3350   30.9500   35.5430 H   0  0  0  0  0  0  0  0  0  0  0  0
   44.8580   31.1050   36.6230 H   0  0  0  0  0  0  0  0  0  0  0  0
  2  8  1  0  0  0  0
  2  1  1  0  0  0  0
  3  2  2  0  0  0  0
  4  5  2  0  0  0  0
  4  3  1  0  0  0  0
  5  6  1  0  0  0  0
  6  8  2  0  0  0  0
  6  7  1  0  0  0  0
  8 12  1  0  0  0  0
  9  4  1  0  0  0  0
 10  5  1  0  0  0  0
 11 18  1  0  0  0  0
 12 11  2  0  0  0  0
 12 13  1  0  0  0  0
 13 15  2  0  0  0  0
 14 13  1  0  0  0  0
 15 17  1  0  0  0  0
 15 16  1  0  0  0  0
 18 17  2  0  0  0  0
 19 20  1  0  0  0  0
 20 22  2  0  0  0  0
 20 11  1  0  0  0  0
 21 20  2  0  0  0  0
 23 24  1  0  0  0  0
 23  3  1  0  0  0  0
 24 25  2  0  0  0  0
 26 28  1  0  0  0  0
 26 24  1  0  0  0  0
 27 26  1  0  0  0  0
 28 33  1  0  0  0  0
 29 28  2  0  0  0  0
 29 30  1  0  0  0  0
 30 31  2  0  0  0  0
 31 32  1  0  0  0  0
 32 35  1  0  0  0  0
 33 32  2  0  0  0  0
 34 30  1  0  0  0  0
 36 38  1  0  0  0  0
 36 29  1  0  0  0  0
 37 36  1  0  0  0  0
M  END
>  <minimizedAffinity>
-5.83075523

$$$$
