
 OpenBabel03242516383D

 23 24  0  0  0  0  0  0  0  0999 V2000
   48.5150   33.5020   42.2970 C   0  0  0  0  0  0  0  0  0  0  0  0
   47.7000   32.9720   43.2880 C   0  0  0  0  0  0  0  0  0  0  0  0
   47.8880   31.6740   43.7160 C   0  0  0  0  0  0  0  0  0  0  0  0
   47.2870   31.2150   44.4780 H   0  0  0  0  0  0  0  0  0  0  0  0
   48.8600   30.8450   43.2100 C   0  0  0  0  0  0  0  0  0  0  0  0
   49.0110   29.8320   43.5400 H   0  0  0  0  0  0  0  0  0  0  0  0
   49.7000   31.3200   42.2210 C   0  0  0  0  0  0  0  0  0  0  0  0
   49.4920   32.6210   41.8120 C   0  0  0  0  0  0  0  0  0  0  0  0
   45.1060   35.6740   43.7200 C   0  0  0  0  0  0  0  0  0  0  0  0
   46.1070   34.8860   43.1290 C   0  0  0  0  0  0  0  0  0  0  0  0
   46.6680   33.8180   43.8400 C   0  0  0  0  0  0  0  0  0  0  0  0
   46.1710   33.6370   45.0830 N   0  0  0  0  0  0  0  0  0  0  0  0
   45.2230   34.3820   45.6430 C   0  0  0  0  0  0  0  0  0  0  0  0
   44.6860   35.4030   44.9670 N   0  0  0  0  0  0  0  0  0  0  0  0
   44.5390   36.7520   43.0070 N   0  0  0  0  0  0  0  0  0  0  0  0
   46.4280   35.1230   42.1280 H   0  0  0  0  0  0  0  0  0  0  0  0
   44.8970   34.1450   46.6570 H   0  0  0  0  0  0  0  0  0  0  0  0
   44.4730   37.7690   43.2070 H   0  0  0  0  0  0  0  0  0  0  0  0
   44.1300   36.3600   42.1240 H   0  0  0  0  0  0  0  0  0  0  0  0
   47.3330   35.8260   42.1230 H   0  0  0  0  0  0  0  0  0  0  0  0
   48.3930   35.1040   41.6670 S   0  0  0  0  0  0  0  0  0  0  0  0
   49.6470   35.8650   42.0720 O   0  0  0  0  0  0  0  0  0  0  0  0
   48.3770   35.0650   40.1560 O   0  0  0  0  0  0  0  0  0  0  0  0
  1  2  1  0  0  0  0
  2  3  2  0  0  0  0
  2 11  1  0  0  0  0
  3  4  1  0  0  0  0
  5  6  1  0  0  0  0
  5  3  1  0  0  0  0
  7  5  2  0  0  0  0
  8  7  1  0  0  0  0
  8  1  2  0  0  0  0
  9 14  1  0  0  0  0
 10  9  2  0  0  0  0
 10 11  1  0  0  0  0
 11 12  2  0  0  0  0
 12 13  1  0  0  0  0
 13 17  1  0  0  0  0
 14 13  2  0  0  0  0
 15 18  1  0  0  0  0
 15  9  1  0  0  0  0
 16 10  1  0  0  0  0
 19 15  1  0  0  0  0
 21 22  2  0  0  0  0
 21 20  1  0  0  0  0
 21  1  1  0  0  0  0
 23 21  2  0  0  0  0
M  END
>  <minimizedAffinity>
-4.9007988

>  <minimizedRMSD>
1.14281642

$$$$
