
 OpenBabel03252506113D

 33 35  0  0  0  0  0  0  0  0999 V2000
   40.3560   30.5090   40.8500 F   0  0  0  0  0  0  0  0  0  0  0  0
   39.2460   31.1820   40.5580 C   0  0  0  0  0  0  0  0  0  0  0  0
   39.3230   32.4280   39.9550 C   0  0  0  0  0  0  0  0  0  0  0  0
   38.2120   33.1700   39.6310 C   0  0  0  0  0  0  0  0  0  0  0  0
   36.9390   32.6750   39.9090 C   0  0  0  0  0  0  0  0  0  0  0  0
   36.9080   31.4210   40.5150 C   0  0  0  0  0  0  0  0  0  0  0  0
   38.0060   30.6610   40.8480 C   0  0  0  0  0  0  0  0  0  0  0  0
   38.3100   34.1420   39.1590 H   0  0  0  0  0  0  0  0  0  0  0  0
   36.0650   33.2300   39.6680 H   0  0  0  0  0  0  0  0  0  0  0  0
   35.9040   31.0600   40.7210 H   0  0  0  0  0  0  0  0  0  0  0  0
   42.1730   33.8040   38.0780 C   0  0  0  0  0  0  0  0  0  0  0  0
   43.1060   34.0460   39.0990 C   0  0  0  0  0  0  0  0  0  0  0  0
   42.7560   33.7360   40.4410 C   0  0  0  0  0  0  0  0  0  0  0  0
   41.5080   33.2120   40.6430 N   0  0  0  0  0  0  0  0  0  0  0  0
   40.6420   32.9940   39.6400 C   0  0  0  0  0  0  0  0  0  0  0  0
   40.9810   33.2900   38.3770 N   0  0  0  0  0  0  0  0  0  0  0  0
   44.0930   34.4620   38.9280 H   0  0  0  0  0  0  0  0  0  0  0  0
   43.4370   33.9030   41.2610 H   0  0  0  0  0  0  0  0  0  0  0  0
   42.5390   34.1180   36.7550 N   0  0  0  0  0  0  0  0  0  0  0  0
   43.5280   34.3040   36.4850 H   0  0  0  0  0  0  0  0  0  0  0  0
   41.8670   34.1850   35.9710 H   0  0  0  0  0  0  0  0  0  0  0  0
   37.7040   28.1710   40.7940 C   0  0  0  0  0  0  0  0  0  0  0  0
   37.8300   29.3570   41.4830 C   0  0  0  0  0  0  0  0  0  0  0  0
   37.7880   29.3080   42.8800 C   0  0  0  0  0  0  0  0  0  0  0  0
   37.8880   30.2430   43.4500 H   0  0  0  0  0  0  0  0  0  0  0  0
   37.6250   28.1010   43.5300 C   0  0  0  0  0  0  0  0  0  0  0  0
   37.5940   28.0840   44.6300 H   0  0  0  0  0  0  0  0  0  0  0  0
   37.4970   26.9110   42.8320 C   0  0  0  0  0  3  0  0  0  0  0  0
   37.5420   26.9850   41.4530 C   0  0  0  0  0  3  0  0  0  0  0  0
   37.2230   29.3890   38.5390 H   0  0  0  0  0  0  0  0  0  0  0  0
   37.7580   28.2540   39.0550 S   0  0  0  0  0  0  0  0  0  0  0  0
   39.2010   28.1340   38.6360 O   0  0  0  0  0  0  0  0  0  0  0  0
   37.0640   27.0010   38.5510 O   0  0  0  0  0  0  0  0  0  0  0  0
  2  7  1  0  0  0  0
  2  1  1  0  0  0  0
  3  2  2  0  0  0  0
  4  5  2  0  0  0  0
  4  3  1  0  0  0  0
  5  6  1  0  0  0  0
  6 10  1  0  0  0  0
  6  7  2  0  0  0  0
  7 23  1  0  0  0  0
  8  4  1  0  0  0  0
  9  5  1  0  0  0  0
 11 16  2  0  0  0  0
 11 12  1  0  0  0  0
 12 13  2  0  0  0  0
 13 14  1  0  0  0  0
 13 18  1  0  0  0  0
 15  3  1  0  0  0  0
 15 14  2  0  0  0  0
 16 15  1  0  0  0  0
 17 12  1  0  0  0  0
 19 11  1  0  0  0  0
 20 19  1  0  0  0  0
 21 19  1  0  0  0  0
 22 29  2  0  0  0  0
 22 23  1  0  0  0  0
 23 24  2  0  0  0  0
 24 25  1  0  0  0  0
 24 26  1  0  0  0  0
 26 27  1  0  0  0  0
 28 26  2  0  0  0  0
 29 28  1  0  0  0  0
 30 31  1  0  0  0  0
 31 22  1  0  0  0  0
 32 31  2  0  0  0  0
 33 31  2  0  0  0  0
M  END
>  <minimizedAffinity>
-6.10184717

$$$$

 OpenBabel03252506113D

 33 35  0  0  0  0  0  0  0  0999 V2000
   40.2990   29.5810   40.0840 F   0  0  0  0  0  0  0  0  0  0  0  0
   39.1920   30.0310   39.4990 C   0  0  0  0  0  0  0  0  0  0  0  0
   39.2750   30.8320   38.3700 C   0  0  0  0  0  0  0  0  0  0  0  0
   38.1680   31.3280   37.7240 C   0  0  0  0  0  0  0  0  0  0  0  0
   36.8920   31.0300   38.2010 C   0  0  0  0  0  0  0  0  0  0  0  0
   36.8550   30.2240   39.3360 C   0  0  0  0  0  0  0  0  0  0  0  0
   37.9490   29.7170   39.9990 C   0  0  0  0  0  0  0  0  0  0  0  0
   38.2700   31.9520   36.8420 H   0  0  0  0  0  0  0  0  0  0  0  0
   36.0210   31.4020   37.7190 H   0  0  0  0  0  0  0  0  0  0  0  0
   35.8500   30.0080   39.6860 H   0  0  0  0  0  0  0  0  0  0  0  0
   42.1270   32.7750   37.0920 C   0  0  0  0  0  0  0  0  0  0  0  0
   43.0670   31.7690   36.8200 C   0  0  0  0  0  0  0  0  0  0  0  0
   42.7230   30.4150   37.0770 C   0  0  0  0  0  0  0  0  0  0  0  0
   41.4710   30.1860   37.5810 N   0  0  0  0  0  0  0  0  0  0  0  0
   40.5970   31.1750   37.8280 C   0  0  0  0  0  0  0  0  0  0  0  0
   40.9320   32.4500   37.5830 N   0  0  0  0  0  0  0  0  0  0  0  0
   44.0580   31.9610   36.4210 H   0  0  0  0  0  0  0  0  0  0  0  0
   43.4100   29.6050   36.8840 H   0  0  0  0  0  0  0  0  0  0  0  0
   42.4870   34.1110   36.8320 N   0  0  0  0  0  0  0  0  0  0  0  0
   43.3160   34.3550   36.2490 H   0  0  0  0  0  0  0  0  0  0  0  0
   41.9680   34.9290   37.1920 H   0  0  0  0  0  0  0  0  0  0  0  0
   37.6290   27.5110   41.1490 C   0  0  0  0  0  0  0  0  0  0  0  0
   37.7680   28.8810   41.1830 C   0  0  0  0  0  0  0  0  0  0  0  0
   37.7330   29.5100   42.4310 C   0  0  0  0  0  0  0  0  0  0  0  0
   37.8420   30.6020   42.4810 H   0  0  0  0  0  0  0  0  0  0  0  0
   37.5640   28.7660   43.5820 C   0  0  0  0  0  0  0  0  0  0  0  0
   37.5390   29.2810   44.5550 H   0  0  0  0  0  0  0  0  0  0  0  0
   37.4240   27.3880   43.5430 C   0  0  0  0  0  3  0  0  0  0  0  0
   37.4610   26.7900   42.2990 C   0  0  0  0  0  3  0  0  0  0  0  0
   38.4910   27.3610   38.6940 H   0  0  0  0  0  0  0  0  0  0  0  0
   37.6740   26.7460   39.5850 S   0  0  0  0  0  0  0  0  0  0  0  0
   38.1200   25.3200   39.7860 O   0  0  0  0  0  0  0  0  0  0  0  0
   36.2350   26.6770   39.1070 O   0  0  0  0  0  0  0  0  0  0  0  0
  2  7  1  0  0  0  0
  2  1  1  0  0  0  0
  3  2  2  0  0  0  0
  4  5  2  0  0  0  0
  4  3  1  0  0  0  0
  5  6  1  0  0  0  0
  6 10  1  0  0  0  0
  6  7  2  0  0  0  0
  7 23  1  0  0  0  0
  8  4  1  0  0  0  0
  9  5  1  0  0  0  0
 11 16  1  0  0  0  0
 12 13  1  0  0  0  0
 12 11  2  0  0  0  0
 13 14  2  0  0  0  0
 14 15  1  0  0  0  0
 15  3  1  0  0  0  0
 16 15  2  0  0  0  0
 17 12  1  0  0  0  0
 18 13  1  0  0  0  0
 19 11  1  0  0  0  0
 19 21  1  0  0  0  0
 20 19  1  0  0  0  0
 22 23  2  0  0  0  0
 22 29  1  0  0  0  0
 23 24  1  0  0  0  0
 24 25  1  0  0  0  0
 24 26  2  0  0  0  0
 26 27  1  0  0  0  0
 28 26  1  0  0  0  0
 29 28  2  0  0  0  0
 30 31  1  0  0  0  0
 31 32  2  0  0  0  0
 31 22  1  0  0  0  0
 33 31  2  0  0  0  0
M  END
>  <minimizedAffinity>
-5.9662776

$$$$

 OpenBabel03252506113D

 33 35  0  0  0  0  0  0  0  0999 V2000
   38.5490   28.0930   39.8890 F   0  0  0  0  0  0  0  0  0  0  0  0
   38.0130   27.9490   41.0990 C   0  0  0  0  0  0  0  0  0  0  0  0
   37.8570   29.0500   41.9280 C   0  0  0  0  0  0  0  0  0  0  0  0
   37.3130   28.9650   43.1870 C   0  0  0  0  0  0  0  0  0  0  0  0
   36.8900   27.7310   43.6800 C   0  0  0  0  0  0  0  0  0  0  0  0
   37.0650   26.6530   42.8150 C   0  0  0  0  0  0  0  0  0  0  0  0
   37.6080   26.7150   41.5520 C   0  0  0  0  0  0  0  0  0  0  0  0
   37.2060   29.8470   43.8080 H   0  0  0  0  0  0  0  0  0  0  0  0
   36.4650   27.6390   44.6500 H   0  0  0  0  0  0  0  0  0  0  0  0
   36.7270   25.7060   43.2240 H   0  0  0  0  0  0  0  0  0  0  0  0
   37.7860   32.4330   40.4800 C   0  0  0  0  0  0  0  0  0  0  0  0
   39.1290   32.8250   40.5880 C   0  0  0  0  0  0  0  0  0  0  0  0
   40.0670   31.9250   41.1610 C   0  0  0  0  0  0  0  0  0  0  0  0
   39.5810   30.7140   41.5750 N   0  0  0  0  0  0  0  0  0  0  0  0
   38.2880   30.3730   41.4540 C   0  0  0  0  0  0  0  0  0  0  0  0
   37.4100   31.2300   40.9130 N   0  0  0  0  0  0  0  0  0  0  0  0
   39.5050   33.7870   40.2570 H   0  0  0  0  0  0  0  0  0  0  0  0
   41.1110   32.1790   41.2660 H   0  0  0  0  0  0  0  0  0  0  0  0
   36.8710   33.3380   39.9090 N   0  0  0  0  0  0  0  0  0  0  0  0
   37.1860   34.1740   39.3720 H   0  0  0  0  0  0  0  0  0  0  0  0
   35.8440   33.2430   39.9800 H   0  0  0  0  0  0  0  0  0  0  0  0
   38.8750   24.7350   40.6780 C   0  0  0  0  0  0  0  0  0  0  0  0
   37.7340   25.5030   40.7470 C   0  0  0  0  0  0  0  0  0  0  0  0
   36.6260   25.0940   39.9980 C   0  0  0  0  0  0  0  0  0  0  0  0
   35.7050   25.6930   40.0390 H   0  0  0  0  0  0  0  0  0  0  0  0
   36.6920   23.9560   39.2200 C   0  0  0  0  0  0  0  0  0  0  0  0
   35.8090   23.6510   38.6380 H   0  0  0  0  0  0  0  0  0  0  0  0
   37.8430   23.1870   39.1540 C   0  0  0  0  0  3  0  0  0  0  0  0
   38.9240   23.6110   39.9020 C   0  0  0  0  0  3  0  0  0  0  0  0
   40.1960   26.5670   41.9800 H   0  0  0  0  0  0  0  0  0  0  0  0
   40.2450   25.2610   41.6170 S   0  0  0  0  0  0  0  0  0  0  0  0
   40.3170   24.3920   42.8470 O   0  0  0  0  0  0  0  0  0  0  0  0
   41.4750   24.9310   40.7910 O   0  0  0  0  0  0  0  0  0  0  0  0
  1  2  1  0  0  0  0
  2  7  2  0  0  0  0
  2  3  1  0  0  0  0
  3  4  2  0  0  0  0
  4  5  1  0  0  0  0
  4  8  1  0  0  0  0
  5  9  1  0  0  0  0
  6 10  1  0  0  0  0
  6  5  2  0  0  0  0
  7  6  1  0  0  0  0
 11 12  2  0  0  0  0
 11 16  1  0  0  0  0
 12 13  1  0  0  0  0
 13 18  1  0  0  0  0
 13 14  2  0  0  0  0
 15 14  1  0  0  0  0
 15  3  1  0  0  0  0
 16 15  2  0  0  0  0
 17 12  1  0  0  0  0
 19 21  1  0  0  0  0
 19 11  1  0  0  0  0
 20 19  1  0  0  0  0
 22 23  1  0  0  0  0
 22 31  1  0  0  0  0
 23  7  1  0  0  0  0
 24 25  1  0  0  0  0
 24 23  2  0  0  0  0
 26 24  1  0  0  0  0
 27 26  1  0  0  0  0
 28 26  2  0  0  0  0
 28 29  1  0  0  0  0
 29 22  2  0  0  0  0
 31 30  1  0  0  0  0
 31 32  2  0  0  0  0
 33 31  2  0  0  0  0
M  END
>  <minimizedAffinity>
-5.94230795

$$$$

 OpenBabel03252506113D

 33 35  0  0  0  0  0  0  0  0999 V2000
   39.5270   27.9320   40.3820 F   0  0  0  0  0  0  0  0  0  0  0  0
   38.6100   27.8270   41.3420 C   0  0  0  0  0  0  0  0  0  0  0  0
   38.9940   27.5530   42.6460 C   0  0  0  0  0  0  0  0  0  0  0  0
   38.0950   27.4320   43.6790 C   0  0  0  0  0  0  0  0  0  0  0  0
   36.7310   27.5860   43.4350 C   0  0  0  0  0  0  0  0  0  0  0  0
   36.3900   27.8590   42.1130 C   0  0  0  0  0  0  0  0  0  0  0  0
   37.2720   27.9850   41.0640 C   0  0  0  0  0  0  0  0  0  0  0  0
   38.4310   27.2180   44.6870 H   0  0  0  0  0  0  0  0  0  0  0  0
   36.0160   27.4970   44.2170 H   0  0  0  0  0  0  0  0  0  0  0  0
   35.3220   27.9740   41.9520 H   0  0  0  0  0  0  0  0  0  0  0  0
   42.2640   25.9910   43.2880 C   0  0  0  0  0  0  0  0  0  0  0  0
   43.0790   27.1090   43.5290 C   0  0  0  0  0  0  0  0  0  0  0  0
   42.5050   28.4070   43.4720 C   0  0  0  0  0  0  0  0  0  0  0  0
   41.1690   28.4740   43.1790 N   0  0  0  0  0  0  0  0  0  0  0  0
   40.4210   27.3830   42.9540 C   0  0  0  0  0  0  0  0  0  0  0  0
   40.9720   26.1610   43.0100 N   0  0  0  0  0  0  0  0  0  0  0  0
   44.1370   27.0450   43.7610 H   0  0  0  0  0  0  0  0  0  0  0  0
   43.0880   29.2970   43.6510 H   0  0  0  0  0  0  0  0  0  0  0  0
   42.8520   24.7130   43.3490 N   0  0  0  0  0  0  0  0  0  0  0  0
   43.7880   24.5570   43.7780 H   0  0  0  0  0  0  0  0  0  0  0  0
   42.4070   23.8560   42.9800 H   0  0  0  0  0  0  0  0  0  0  0  0
   36.7500   29.5330   39.1600 C   0  0  0  0  0  0  0  0  0  0  0  0
   36.7790   28.2740   39.7200 C   0  0  0  0  0  0  0  0  0  0  0  0
   36.3040   27.2070   38.9510 C   0  0  0  0  0  0  0  0  0  0  0  0
   36.3180   26.1940   39.3790 H   0  0  0  0  0  0  0  0  0  0  0  0
   35.8260   27.4260   37.6750 C   0  0  0  0  0  0  0  0  0  0  0  0
   35.4570   26.5720   37.0860 H   0  0  0  0  0  0  0  0  0  0  0  0
   35.7990   28.6940   37.1160 C   0  0  0  0  0  3  0  0  0  0  0  0
   36.2730   29.7320   37.8940 C   0  0  0  0  0  3  0  0  0  0  0  0
   38.4890   30.5650   40.8050 H   0  0  0  0  0  0  0  0  0  0  0  0
   37.3450   30.8490   40.1330 S   0  0  0  0  0  0  0  0  0  0  0  0
   37.5690   32.0280   39.2200 O   0  0  0  0  0  0  0  0  0  0  0  0
   36.2070   31.2380   41.0580 O   0  0  0  0  0  0  0  0  0  0  0  0
  1  2  1  0  0  0  0
  2  3  1  0  0  0  0
  3 15  1  0  0  0  0
  3  4  2  0  0  0  0
  4  8  1  0  0  0  0
  5  4  1  0  0  0  0
  5  9  1  0  0  0  0
  6  5  2  0  0  0  0
  7  2  2  0  0  0  0
  7  6  1  0  0  0  0
 10  6  1  0  0  0  0
 11 19  1  0  0  0  0
 11 12  1  0  0  0  0
 12 17  1  0  0  0  0
 13 12  2  0  0  0  0
 13 18  1  0  0  0  0
 14 13  1  0  0  0  0
 15 16  1  0  0  0  0
 15 14  2  0  0  0  0
 16 11  2  0  0  0  0
 19 20  1  0  0  0  0
 21 19  1  0  0  0  0
 22 23  1  0  0  0  0
 22 31  1  0  0  0  0
 23  7  1  0  0  0  0
 24 25  1  0  0  0  0
 24 23  2  0  0  0  0
 26 24  1  0  0  0  0
 27 26  1  0  0  0  0
 28 26  2  0  0  0  0
 28 29  1  0  0  0  0
 29 22  2  0  0  0  0
 31 30  1  0  0  0  0
 31 33  2  0  0  0  0
 32 31  2  0  0  0  0
M  END
>  <minimizedAffinity>
-5.89444304

$$$$

 OpenBabel03252506113D

 33 35  0  0  0  0  0  0  0  0999 V2000
   40.1700   30.3550   39.5720 F   0  0  0  0  0  0  0  0  0  0  0  0
   39.1060   31.1510   39.6490 C   0  0  0  0  0  0  0  0  0  0  0  0
   39.2560   32.5270   39.5680 C   0  0  0  0  0  0  0  0  0  0  0  0
   38.1970   33.4000   39.6430 C   0  0  0  0  0  0  0  0  0  0  0  0
   36.9030   32.9090   39.8060 C   0  0  0  0  0  0  0  0  0  0  0  0
   36.7970   31.5220   39.8840 C   0  0  0  0  0  0  0  0  0  0  0  0
   37.8430   30.6310   39.8120 C   0  0  0  0  0  0  0  0  0  0  0  0
   38.3520   34.4710   39.5750 H   0  0  0  0  0  0  0  0  0  0  0  0
   36.0670   33.5630   39.8670 H   0  0  0  0  0  0  0  0  0  0  0  0
   35.7780   31.1680   40.0110 H   0  0  0  0  0  0  0  0  0  0  0  0
   42.3010   33.8760   38.0000 C   0  0  0  0  0  0  0  0  0  0  0  0
   43.1070   34.1490   39.1160 C   0  0  0  0  0  0  0  0  0  0  0  0
   42.6050   33.8710   40.4150 C   0  0  0  0  0  0  0  0  0  0  0  0
   41.3440   33.3430   40.4850 N   0  0  0  0  0  0  0  0  0  0  0  0
   40.6020   33.0940   39.3950 C   0  0  0  0  0  0  0  0  0  0  0  0
   41.0840   33.3610   38.1720 N   0  0  0  0  0  0  0  0  0  0  0  0
   44.1060   34.5680   39.0500 H   0  0  0  0  0  0  0  0  0  0  0  0
   43.1860   34.0630   41.3040 H   0  0  0  0  0  0  0  0  0  0  0  0
   42.8160   34.1590   36.7200 N   0  0  0  0  0  0  0  0  0  0  0  0
   43.8290   34.3450   36.5630 H   0  0  0  0  0  0  0  0  0  0  0  0
   42.2390   34.2020   35.8630 H   0  0  0  0  0  0  0  0  0  0  0  0
   37.6670   28.4710   41.0770 C   0  0  0  0  0  0  0  0  0  0  0  0
   37.5920   29.1950   39.9070 C   0  0  0  0  0  0  0  0  0  0  0  0
   37.2520   28.5100   38.7370 C   0  0  0  0  0  0  0  0  0  0  0  0
   37.1860   29.0680   37.7920 H   0  0  0  0  0  0  0  0  0  0  0  0
   37.0040   27.1520   38.7710 C   0  0  0  0  0  0  0  0  0  0  0  0
   36.7390   26.6310   37.8380 H   0  0  0  0  0  0  0  0  0  0  0  0
   37.0820   26.4290   39.9500 C   0  0  0  0  0  3  0  0  0  0  0  0
   37.4190   27.1270   41.0930 C   0  0  0  0  0  3  0  0  0  0  0  0
   37.8090   30.6680   42.4730 H   0  0  0  0  0  0  0  0  0  0  0  0
   38.0920   29.3430   42.5240 S   0  0  0  0  0  0  0  0  0  0  0  0
   37.3520   28.7080   43.6740 O   0  0  0  0  0  0  0  0  0  0  0  0
   39.5650   29.0690   42.7640 O   0  0  0  0  0  0  0  0  0  0  0  0
  1  2  1  0  0  0  0
  2  7  1  0  0  0  0
  3  4  1  0  0  0  0
  3  2  2  0  0  0  0
  4  5  2  0  0  0  0
  5  9  1  0  0  0  0
  5  6  1  0  0  0  0
  6 10  1  0  0  0  0
  7  6  2  0  0  0  0
  7 23  1  0  0  0  0
  8  4  1  0  0  0  0
 11 16  2  0  0  0  0
 11 12  1  0  0  0  0
 12 13  2  0  0  0  0
 13 14  1  0  0  0  0
 13 18  1  0  0  0  0
 15  3  1  0  0  0  0
 15 14  2  0  0  0  0
 16 15  1  0  0  0  0
 17 12  1  0  0  0  0
 19 11  1  0  0  0  0
 20 19  1  0  0  0  0
 21 19  1  0  0  0  0
 22 29  1  0  0  0  0
 22 31  1  0  0  0  0
 23 22  2  0  0  0  0
 24 26  2  0  0  0  0
 24 23  1  0  0  0  0
 25 24  1  0  0  0  0
 26 28  1  0  0  0  0
 27 26  1  0  0  0  0
 28 29  2  0  0  0  0
 30 31  1  0  0  0  0
 31 33  2  0  0  0  0
 31 32  2  0  0  0  0
M  END
>  <minimizedAffinity>
-5.88895416

$$$$

 OpenBabel03252506113D

 33 35  0  0  0  0  0  0  0  0999 V2000
   39.9670   28.9320   40.9430 F   0  0  0  0  0  0  0  0  0  0  0  0
   38.6390   29.0040   40.9950 C   0  0  0  0  0  0  0  0  0  0  0  0
   37.9850   30.1500   40.5660 C   0  0  0  0  0  0  0  0  0  0  0  0
   36.6180   30.2840   40.5960 C   0  0  0  0  0  0  0  0  0  0  0  0
   35.8270   29.2400   41.0730 C   0  0  0  0  0  0  0  0  0  0  0  0
   36.5240   28.1090   41.4940 C   0  0  0  0  0  0  0  0  0  0  0  0
   37.8910   27.9530   41.4730 C   0  0  0  0  0  0  0  0  0  0  0  0
   36.1400   31.1950   40.2520 H   0  0  0  0  0  0  0  0  0  0  0  0
   34.7670   29.3190   41.1070 H   0  0  0  0  0  0  0  0  0  0  0  0
   35.8840   27.3120   41.8600 H   0  0  0  0  0  0  0  0  0  0  0  0
   39.8390   32.3620   38.2820 C   0  0  0  0  0  0  0  0  0  0  0  0
   40.2420   33.3960   39.1410 C   0  0  0  0  0  0  0  0  0  0  0  0
   39.8760   33.3370   40.5130 C   0  0  0  0  0  0  0  0  0  0  0  0
   39.1420   32.2500   40.9050 N   0  0  0  0  0  0  0  0  0  0  0  0
   38.7750   31.2790   40.0540 C   0  0  0  0  0  0  0  0  0  0  0  0
   39.1240   31.3440   38.7610 N   0  0  0  0  0  0  0  0  0  0  0  0
   40.8240   34.2540   38.8210 H   0  0  0  0  0  0  0  0  0  0  0  0
   40.1620   34.1060   41.2130 H   0  0  0  0  0  0  0  0  0  0  0  0
   40.2110   32.4390   36.9260 N   0  0  0  0  0  0  0  0  0  0  0  0
   40.9450   33.0990   36.5930 H   0  0  0  0  0  0  0  0  0  0  0  0
   39.7910   31.8600   36.1800 H   0  0  0  0  0  0  0  0  0  0  0  0
   38.4600   25.5200   41.2520 C   0  0  0  0  0  0  0  0  0  0  0  0
   38.4960   26.7100   41.9450 C   0  0  0  0  0  0  0  0  0  0  0  0
   39.1530   26.7270   43.1790 C   0  0  0  0  0  0  0  0  0  0  0  0
   39.1940   27.6670   43.7480 H   0  0  0  0  0  0  0  0  0  0  0  0
   39.7410   25.5800   43.6720 C   0  0  0  0  0  0  0  0  0  0  0  0
   40.2540   25.6150   44.6450 H   0  0  0  0  0  0  0  0  0  0  0  0
   39.7020   24.3850   42.9710 C   0  0  0  0  0  3  0  0  0  0  0  0
   39.0470   24.3930   41.7550 C   0  0  0  0  0  3  0  0  0  0  0  0
   37.4000   26.7560   39.2170 H   0  0  0  0  0  0  0  0  0  0  0  0
   37.6360   25.5180   39.7180 S   0  0  0  0  0  0  0  0  0  0  0  0
   38.4770   24.7280   38.7480 O   0  0  0  0  0  0  0  0  0  0  0  0
   36.3620   24.7200   39.9240 O   0  0  0  0  0  0  0  0  0  0  0  0
  1  2  1  0  0  0  0
  2  7  1  0  0  0  0
  3  4  1  0  0  0  0
  3  2  2  0  0  0  0
  4  5  2  0  0  0  0
  5  9  1  0  0  0  0
  5  6  1  0  0  0  0
  6 10  1  0  0  0  0
  7  6  2  0  0  0  0
  7 23  1  0  0  0  0
  8  4  1  0  0  0  0
 11 16  2  0  0  0  0
 11 12  1  0  0  0  0
 12 13  2  0  0  0  0
 13 14  1  0  0  0  0
 13 18  1  0  0  0  0
 15  3  1  0  0  0  0
 15 14  2  0  0  0  0
 16 15  1  0  0  0  0
 17 12  1  0  0  0  0
 19 11  1  0  0  0  0
 20 19  1  0  0  0  0
 21 19  1  0  0  0  0
 22 29  2  0  0  0  0
 22 23  1  0  0  0  0
 23 24  2  0  0  0  0
 24 26  1  0  0  0  0
 24 25  1  0  0  0  0
 26 27  1  0  0  0  0
 28 26  2  0  0  0  0
 29 28  1  0  0  0  0
 30 31  1  0  0  0  0
 31 33  2  0  0  0  0
 31 22  1  0  0  0  0
 32 31  2  0  0  0  0
M  END
>  <minimizedAffinity>
-5.87534618

$$$$

 OpenBabel03252506113D

 33 35  0  0  0  0  0  0  0  0999 V2000
   39.1170   28.2860   40.0480 F   0  0  0  0  0  0  0  0  0  0  0  0
   37.9090   28.8190   40.2130 C   0  0  0  0  0  0  0  0  0  0  0  0
   37.7260   30.1880   40.0820 C   0  0  0  0  0  0  0  0  0  0  0  0
   36.5050   30.7970   40.2410 C   0  0  0  0  0  0  0  0  0  0  0  0
   35.3810   30.0320   40.5490 C   0  0  0  0  0  0  0  0  0  0  0  0
   35.6090   28.6630   40.6720 C   0  0  0  0  0  0  0  0  0  0  0  0
   36.8220   28.0320   40.5170 C   0  0  0  0  0  0  0  0  0  0  0  0
   36.3990   31.8710   40.1310 H   0  0  0  0  0  0  0  0  0  0  0  0
   34.4250   30.4790   40.6770 H   0  0  0  0  0  0  0  0  0  0  0  0
   34.7170   28.0920   40.9120 H   0  0  0  0  0  0  0  0  0  0  0  0
   40.1920   32.1500   38.1800 C   0  0  0  0  0  0  0  0  0  0  0  0
   41.0350   32.6240   39.1970 C   0  0  0  0  0  0  0  0  0  0  0  0
   40.7570   32.2700   40.5450 C   0  0  0  0  0  0  0  0  0  0  0  0
   39.6640   31.4740   40.7560 N   0  0  0  0  0  0  0  0  0  0  0  0
   38.8810   31.0390   39.7570 C   0  0  0  0  0  0  0  0  0  0  0  0
   39.1500   31.3790   38.4880 N   0  0  0  0  0  0  0  0  0  0  0  0
   41.9000   33.2550   39.0190 H   0  0  0  0  0  0  0  0  0  0  0  0
   41.3750   32.6080   41.3620 H   0  0  0  0  0  0  0  0  0  0  0  0
   40.4840   32.5120   36.8510 N   0  0  0  0  0  0  0  0  0  0  0  0
   41.4040   32.9170   36.5790 H   0  0  0  0  0  0  0  0  0  0  0  0
   39.8200   32.4040   36.0650 H   0  0  0  0  0  0  0  0  0  0  0  0
   36.8320   25.6840   39.6340 C   0  0  0  0  0  0  0  0  0  0  0  0
   36.9220   26.5840   40.6740 C   0  0  0  0  0  0  0  0  0  0  0  0
   37.1220   26.0750   41.9610 C   0  0  0  0  0  0  0  0  0  0  0  0
   37.1970   26.7760   42.8050 H   0  0  0  0  0  0  0  0  0  0  0  0
   37.2230   24.7140   42.1650 C   0  0  0  0  0  0  0  0  0  0  0  0
   37.3800   24.3340   43.1860 H   0  0  0  0  0  0  0  0  0  0  0  0
   37.1310   23.8130   41.1160 C   0  0  0  0  0  3  0  0  0  0  0  0
   36.9330   24.3390   39.8540 C   0  0  0  0  0  3  0  0  0  0  0  0
   37.1760   27.5380   37.8350 H   0  0  0  0  0  0  0  0  0  0  0  0
   36.5820   26.3360   38.0390 S   0  0  0  0  0  0  0  0  0  0  0  0
   37.1100   25.3320   37.0460 O   0  0  0  0  0  0  0  0  0  0  0  0
   35.0790   26.3860   37.8340 O   0  0  0  0  0  0  0  0  0  0  0  0
  1  2  1  0  0  0  0
  2  7  1  0  0  0  0
  3  2  2  0  0  0  0
  3  4  1  0  0  0  0
  4  5  2  0  0  0  0
  5  6  1  0  0  0  0
  5  9  1  0  0  0  0
  6 10  1  0  0  0  0
  7  6  2  0  0  0  0
  7 23  1  0  0  0  0
  8  4  1  0  0  0  0
 11 16  2  0  0  0  0
 11 12  1  0  0  0  0
 12 13  2  0  0  0  0
 13 14  1  0  0  0  0
 13 18  1  0  0  0  0
 15  3  1  0  0  0  0
 15 14  2  0  0  0  0
 16 15  1  0  0  0  0
 17 12  1  0  0  0  0
 19 11  1  0  0  0  0
 20 19  1  0  0  0  0
 21 19  1  0  0  0  0
 22 29  2  0  0  0  0
 22 23  1  0  0  0  0
 23 24  2  0  0  0  0
 24 26  1  0  0  0  0
 24 25  1  0  0  0  0
 26 27  1  0  0  0  0
 28 26  2  0  0  0  0
 29 28  1  0  0  0  0
 30 31  1  0  0  0  0
 31 22  1  0  0  0  0
 32 31  2  0  0  0  0
 33 31  2  0  0  0  0
M  END
>  <minimizedAffinity>
-5.70859814

$$$$

 OpenBabel03252506113D

 33 35  0  0  0  0  0  0  0  0999 V2000
   39.3870   30.2020   40.6380 F   0  0  0  0  0  0  0  0  0  0  0  0
   38.4540   30.2080   39.6890 C   0  0  0  0  0  0  0  0  0  0  0  0
   38.4590   31.1920   38.7120 C   0  0  0  0  0  0  0  0  0  0  0  0
   37.5220   31.2520   37.7080 C   0  0  0  0  0  0  0  0  0  0  0  0
   36.5100   30.2950   37.6440 C   0  0  0  0  0  0  0  0  0  0  0  0
   36.5420   29.3270   38.6450 C   0  0  0  0  0  0  0  0  0  0  0  0
   37.4690   29.2480   39.6580 C   0  0  0  0  0  0  0  0  0  0  0  0
   37.5570   32.0360   36.9600 H   0  0  0  0  0  0  0  0  0  0  0  0
   35.7730   30.3200   36.8780 H   0  0  0  0  0  0  0  0  0  0  0  0
   35.7420   28.5960   38.5700 H   0  0  0  0  0  0  0  0  0  0  0  0
   41.3990   33.2040   37.7870 C   0  0  0  0  0  0  0  0  0  0  0  0
   41.4340   34.1580   38.8160 C   0  0  0  0  0  0  0  0  0  0  0  0
   40.4440   34.1130   39.8340 C   0  0  0  0  0  0  0  0  0  0  0  0
   39.5080   33.1200   39.7350 N   0  0  0  0  0  0  0  0  0  0  0  0
   39.5060   32.2230   38.7360 C   0  0  0  0  0  0  0  0  0  0  0  0
   40.4440   32.2740   37.7790 N   0  0  0  0  0  0  0  0  0  0  0  0
   42.1810   34.9420   38.8860 H   0  0  0  0  0  0  0  0  0  0  0  0
   40.4290   34.8240   40.6460 H   0  0  0  0  0  0  0  0  0  0  0  0
   42.3890   33.2650   36.7880 N   0  0  0  0  0  0  0  0  0  0  0  0
   43.2540   33.8330   36.9030 H   0  0  0  0  0  0  0  0  0  0  0  0
   42.3300   32.7610   35.8870 H   0  0  0  0  0  0  0  0  0  0  0  0
   37.9740   26.9380   40.4980 C   0  0  0  0  0  0  0  0  0  0  0  0
   37.3870   28.1760   40.6460 C   0  0  0  0  0  0  0  0  0  0  0  0
   36.6660   28.4190   41.8200 C   0  0  0  0  0  0  0  0  0  0  0  0
   36.1900   29.4000   41.9590 H   0  0  0  0  0  0  0  0  0  0  0  0
   36.5570   27.4390   42.7870 C   0  0  0  0  0  0  0  0  0  0  0  0
   35.9850   27.6510   43.7030 H   0  0  0  0  0  0  0  0  0  0  0  0
   37.1490   26.1960   42.6320 C   0  0  0  0  0  3  0  0  0  0  0  0
   37.8560   25.9800   41.4650 C   0  0  0  0  0  3  0  0  0  0  0  0
   38.3470   27.2720   37.9400 H   0  0  0  0  0  0  0  0  0  0  0  0
   38.8670   26.6540   39.0290 S   0  0  0  0  0  0  0  0  0  0  0  0
   40.2810   27.1250   39.2560 O   0  0  0  0  0  0  0  0  0  0  0  0
   38.9420   25.1480   38.8650 O   0  0  0  0  0  0  0  0  0  0  0  0
  2  1  1  0  0  0  0
  3 15  1  0  0  0  0
  3  2  2  0  0  0  0
  4  3  1  0  0  0  0
  5  4  2  0  0  0  0
  5  6  1  0  0  0  0
  6  7  2  0  0  0  0
  7  2  1  0  0  0  0
  7 23  1  0  0  0  0
  8  4  1  0  0  0  0
  9  5  1  0  0  0  0
 10  6  1  0  0  0  0
 11 12  1  0  0  0  0
 12 17  1  0  0  0  0
 12 13  2  0  0  0  0
 13 18  1  0  0  0  0
 14 13  1  0  0  0  0
 15 14  2  0  0  0  0
 16 11  2  0  0  0  0
 16 15  1  0  0  0  0
 19 20  1  0  0  0  0
 19 11  1  0  0  0  0
 21 19  1  0  0  0  0
 22 23  2  0  0  0  0
 22 29  1  0  0  0  0
 23 24  1  0  0  0  0
 24 25  1  0  0  0  0
 24 26  2  0  0  0  0
 26 27  1  0  0  0  0
 28 26  1  0  0  0  0
 29 28  2  0  0  0  0
 30 31  1  0  0  0  0
 31 32  2  0  0  0  0
 31 22  1  0  0  0  0
 33 31  2  0  0  0  0
M  END
>  <minimizedAffinity>
-5.63140535

$$$$

 OpenBabel03252506113D

 33 35  0  0  0  0  0  0  0  0999 V2000
   39.2180   28.4470   40.0200 F   0  0  0  0  0  0  0  0  0  0  0  0
   37.9960   28.7440   39.5840 C   0  0  0  0  0  0  0  0  0  0  0  0
   37.7410   29.9820   39.0120 C   0  0  0  0  0  0  0  0  0  0  0  0
   36.5020   30.3470   38.5450 C   0  0  0  0  0  0  0  0  0  0  0  0
   35.4340   29.4560   38.6350 C   0  0  0  0  0  0  0  0  0  0  0  0
   35.7330   28.2260   39.2160 C   0  0  0  0  0  0  0  0  0  0  0  0
   36.9660   27.8390   39.6910 C   0  0  0  0  0  0  0  0  0  0  0  0
   36.3390   31.3240   38.1030 H   0  0  0  0  0  0  0  0  0  0  0  0
   34.4650   29.7140   38.2810 H   0  0  0  0  0  0  0  0  0  0  0  0
   34.8840   27.5520   39.2740 H   0  0  0  0  0  0  0  0  0  0  0  0
   40.1480   32.6440   39.8280 C   0  0  0  0  0  0  0  0  0  0  0  0
   40.8750   32.7560   38.6320 C   0  0  0  0  0  0  0  0  0  0  0  0
   40.5390   31.9140   37.5380 C   0  0  0  0  0  0  0  0  0  0  0  0
   39.5080   31.0360   37.7350 N   0  0  0  0  0  0  0  0  0  0  0  0
   38.8350   30.9570   38.8930 C   0  0  0  0  0  0  0  0  0  0  0  0
   39.1590   31.7560   39.9210 N   0  0  0  0  0  0  0  0  0  0  0  0
   41.6910   33.4560   38.4860 H   0  0  0  0  0  0  0  0  0  0  0  0
   41.0670   31.9630   36.5980 H   0  0  0  0  0  0  0  0  0  0  0  0
   40.4960   33.4870   40.9000 N   0  0  0  0  0  0  0  0  0  0  0  0
   41.1040   34.3240   40.7700 H   0  0  0  0  0  0  0  0  0  0  0  0
   40.1810   33.3410   41.8740 H   0  0  0  0  0  0  0  0  0  0  0  0
   37.2360   26.2730   41.6320 C   0  0  0  0  0  0  0  0  0  0  0  0
   37.1430   26.5140   40.2790 C   0  0  0  0  0  0  0  0  0  0  0  0
   37.2250   25.4180   39.4140 C   0  0  0  0  0  0  0  0  0  0  0  0
   37.1530   25.5880   38.3300 H   0  0  0  0  0  0  0  0  0  0  0  0
   37.3930   24.1430   39.9170 C   0  0  0  0  0  0  0  0  0  0  0  0
   37.4540   23.2940   39.2190 H   0  0  0  0  0  0  0  0  0  0  0  0
   37.4850   23.9070   41.2790 C   0  0  0  0  0  3  0  0  0  0  0  0
   37.4020   25.0040   42.1130 C   0  0  0  0  0  3  0  0  0  0  0  0
   36.9100   28.8250   42.0520 H   0  0  0  0  0  0  0  0  0  0  0  0
   37.1330   27.6510   42.6930 S   0  0  0  0  0  0  0  0  0  0  0  0
   36.0220   27.3880   43.6770 O   0  0  0  0  0  0  0  0  0  0  0  0
   38.4190   27.6610   43.4970 O   0  0  0  0  0  0  0  0  0  0  0  0
  2  7  1  0  0  0  0
  2  1  1  0  0  0  0
  3  2  2  0  0  0  0
  4  5  2  0  0  0  0
  4  3  1  0  0  0  0
  5  6  1  0  0  0  0
  6 10  1  0  0  0  0
  6  7  2  0  0  0  0
  7 23  1  0  0  0  0
  8  4  1  0  0  0  0
  9  5  1  0  0  0  0
 11 16  1  0  0  0  0
 11 19  1  0  0  0  0
 12 11  2  0  0  0  0
 13 14  2  0  0  0  0
 13 12  1  0  0  0  0
 14 15  1  0  0  0  0
 15  3  1  0  0  0  0
 15 16  2  0  0  0  0
 17 12  1  0  0  0  0
 18 13  1  0  0  0  0
 19 21  1  0  0  0  0
 20 19  1  0  0  0  0
 22 29  1  0  0  0  0
 22 31  1  0  0  0  0
 23 22  2  0  0  0  0
 24 26  2  0  0  0  0
 24 23  1  0  0  0  0
 25 24  1  0  0  0  0
 26 28  1  0  0  0  0
 27 26  1  0  0  0  0
 28 29  2  0  0  0  0
 30 31  1  0  0  0  0
 31 33  2  0  0  0  0
 31 32  2  0  0  0  0
M  END
>  <minimizedAffinity>
-5.62526226

$$$$
