
 OpenBabel03242516053D

 39 42  0  0  0  0  0  0  0  0999 V2000
   47.0840   33.0920   38.7230 C   0  0  0  0  0  0  0  0  0  0  0  0
   47.5570   31.7630   38.6250 C   0  0  0  0  0  0  0  0  0  0  0  0
   46.7640   31.1680   37.0980 S   0  0  0  0  0  0  0  0  0  0  0  0
   45.9080   32.8370   36.8380 C   0  0  0  0  0  0  0  0  0  0  0  0
   46.2950   33.3800   37.7330 N   0  0  0  0  0  0  0  0  0  0  0  0
   45.0380   33.1660   35.7510 N   0  0  0  0  0  0  0  0  0  0  0  0
   44.2440   32.4620   35.6840 H   0  0  0  0  0  0  0  0  0  0  0  0
   45.3160   34.0170   35.2190 H   0  0  0  0  0  0  0  0  0  0  0  0
   45.3730   33.0070   41.0950 Cl  0  0  0  0  0  0  0  0  0  0  0  0
   46.7610   34.0500   41.0000 C   0  0  0  0  0  0  0  0  0  0  0  0
   47.1150   34.8770   42.0310 C   0  0  0  0  0  0  0  0  0  0  0  0
   48.2270   35.6470   41.8310 C   0  0  0  0  0  0  0  0  0  0  0  0
   48.9530   35.6190   40.7030 C   0  0  0  0  0  0  0  0  0  0  0  0
   48.6050   34.7960   39.6730 C   0  0  0  0  0  0  0  0  0  0  0  0
   47.4750   33.9960   39.8410 C   0  0  0  0  0  0  0  0  0  0  0  0
   48.5320   36.3170   42.6370 H   0  0  0  0  0  0  0  0  0  0  0  0
   49.8400   36.2340   40.5490 H   0  0  0  0  0  0  0  0  0  0  0  0
   49.1590   34.7320   38.7320 H   0  0  0  0  0  0  0  0  0  0  0  0
   44.5080   35.7760   44.6290 C   0  0  0  0  0  0  0  0  0  0  0  0
   45.2880   35.7920   43.4700 C   0  0  0  0  0  0  0  0  0  0  0  0
   46.3000   34.8730   43.2260 C   0  0  0  0  0  0  0  0  0  0  0  0
   46.4810   33.9390   44.2120 N   0  0  0  0  0  0  0  0  0  0  0  0
   45.7190   33.9380   45.3240 C   0  0  0  0  0  0  0  0  0  0  0  0
   44.7500   34.8360   45.5340 N   0  0  0  0  0  0  0  0  0  0  0  0
   43.7640   36.5430   44.6860 H   0  0  0  0  0  0  0  0  0  0  0  0
   45.1760   36.5170   42.6610 H   0  0  0  0  0  0  0  0  0  0  0  0
   45.9510   33.1470   46.0450 H   0  0  0  0  0  0  0  0  0  0  0  0
   49.7750   31.0010   39.0970 C   0  0  0  0  0  0  0  0  0  0  0  0
   48.4490   31.0150   39.4910 C   0  0  0  0  0  0  0  0  0  0  0  0
   48.0410   30.3570   40.6240 C   0  0  0  0  0  0  0  0  0  0  0  0
   46.9940   30.4070   40.8750 H   0  0  0  0  0  0  0  0  0  0  0  0
   48.9500   29.6550   41.4140 C   0  0  0  0  0  0  0  0  0  0  0  0
   48.5840   29.1490   42.3000 H   0  0  0  0  0  0  0  0  0  0  0  0
   50.2780   29.6190   41.0530 C   0  0  0  0  0  0  0  0  0  0  0  0
   50.6750   30.2930   39.8990 C   0  0  0  0  0  0  0  0  0  0  0  0
   49.8320   32.9630   37.4980 H   0  0  0  0  0  0  0  0  0  0  0  0
   50.4700   31.7750   37.6990 S   0  0  0  0  0  0  0  0  0  0  0  0
   51.9460   31.9660   37.9340 O   0  0  0  0  0  0  0  0  0  0  0  0
   50.3080   30.8430   36.5220 O   0  0  0  0  0  0  0  0  0  0  0  0
  1 15  1  0  0  0  0
  2  1  2  0  0  0  0
  2 29  1  0  0  0  0
  3  2  1  0  0  0  0
  4  3  1  0  0  0  0
  4  5  2  0  0  0  0
  5  1  1  0  0  0  0
  6  4  1  0  0  0  0
  7  6  1  0  0  0  0
  8  6  1  0  0  0  0
 10  9  1  0  0  0  0
 10 11  1  0  0  0  0
 11 21  1  0  0  0  0
 12 11  2  0  0  0  0
 12 16  1  0  0  0  0
 13 12  1  0  0  0  0
 14 15  1  0  0  0  0
 14 13  2  0  0  0  0
 15 10  2  0  0  0  0
 17 13  1  0  0  0  0
 18 14  1  0  0  0  0
 19 25  1  0  0  0  0
 19 24  1  0  0  0  0
 20 19  2  0  0  0  0
 21 20  1  0  0  0  0
 21 22  2  0  0  0  0
 22 23  1  0  0  0  0
 23 24  2  0  0  0  0
 23 27  1  0  0  0  0
 26 20  1  0  0  0  0
 28 29  2  0  0  0  0
 28 35  1  0  0  0  0
 29 30  1  0  0  0  0
 30 31  1  0  0  0  0
 30 32  2  0  0  0  0
 32 33  1  0  0  0  0
 34 32  1  0  0  0  0
 35 34  2  0  0  0  0
 36 37  1  0  0  0  0
 37 38  2  0  0  0  0
 37 28  1  0  0  0  0
 39 37  2  0  0  0  0
M  END
>  <minimizedAffinity>
-6.20828485

>  <minimizedRMSD>
1.12047946

$$$$
