
 OpenBabel03252507383D

 41 45  0  0  0  0  0  0  0  0999 V2000
   45.6990   34.8190   43.5440 C   0  0  0  0  0  0  0  0  0  0  0  0
   46.4090   33.7490   44.1440 C   0  0  0  0  0  0  0  0  0  0  0  0
   46.1530   33.4870   45.4800 C   0  0  0  0  0  0  0  0  0  0  0  0
   45.2560   34.2530   46.1320 N   0  0  0  0  0  0  0  0  0  0  0  0
   44.5890   35.2720   45.5370 C   0  0  0  0  0  0  0  0  0  0  0  0
   44.8160   35.5430   44.2580 N   0  0  0  0  0  0  0  0  0  0  0  0
   47.1300   33.1340   43.6220 H   0  0  0  0  0  0  0  0  0  0  0  0
   43.8770   35.8450   46.1350 H   0  0  0  0  0  0  0  0  0  0  0  0
   47.0440   32.6500   47.5860 C   0  0  0  0  0  0  0  0  0  0  0  0
   46.8020   32.4220   46.2370 C   0  0  0  0  0  0  0  0  0  0  0  0
   47.1840   31.2150   45.7030 C   0  0  0  0  0  0  0  0  0  0  0  0
   47.7920   30.2330   46.4480 C   0  0  0  0  0  0  0  0  0  0  0  0
   48.2480   28.9980   46.1500 N   0  0  0  0  0  0  0  0  0  0  0  0
   48.7730   28.4640   47.3180 C   0  0  0  0  0  0  0  0  0  0  0  0
   48.6290   29.3700   48.2900 N   0  0  0  0  0  0  0  0  0  0  0  0
   48.0310   30.4590   47.7820 C   0  0  0  0  0  0  0  0  0  0  0  0
   47.6600   31.6610   48.3480 C   0  0  0  0  0  0  0  0  0  0  0  0
   46.7700   33.5790   48.0780 H   0  0  0  0  0  0  0  0  0  0  0  0
   46.9800   31.0640   44.6390 H   0  0  0  0  0  0  0  0  0  0  0  0
   48.2140   28.5290   45.2140 H   0  0  0  0  0  0  0  0  0  0  0  0
   49.2210   27.4800   47.4180 H   0  0  0  0  0  0  0  0  0  0  0  0
   47.8340   31.8750   49.3990 H   0  0  0  0  0  0  0  0  0  0  0  0
   45.9590   35.0820   42.1940 O   0  0  0  0  0  0  0  0  0  0  0  0
   45.0650   34.6340   41.2230 C   0  0  0  0  0  0  0  0  0  0  0  0
   45.8580   33.7750   40.5550 C   0  0  0  0  0  0  0  0  0  0  0  0
   44.6630   33.1350   39.2180 S   0  0  0  0  0  0  0  0  0  0  0  0
   43.3120   34.2330   39.9110 C   0  0  0  0  0  0  0  0  0  0  0  0
   43.8490   34.7050   40.7350 N   0  0  0  0  0  0  0  0  0  0  0  0
   46.8510   33.1130   40.2210 H   0  0  0  0  0  0  0  0  0  0  0  0
   40.8790   33.6340   39.9100 C   0  0  0  0  0  0  0  0  0  0  0  0
   41.9030   34.3250   39.3600 C   0  0  0  0  0  0  0  0  0  0  0  0
   41.7940   35.1480   38.2930 C   0  0  0  0  0  0  0  0  0  0  0  0
   42.6530   35.6940   37.8730 H   0  0  0  0  0  0  0  0  0  0  0  0
   40.5540   35.2890   37.7350 C   0  0  0  0  0  0  0  0  0  0  0  0
   40.4650   35.9500   36.8770 H   0  0  0  0  0  0  0  0  0  0  0  0
   39.4280   34.6490   38.1900 C   0  0  0  0  0  3  0  0  0  0  0  0
   39.6420   33.8330   39.2790 C   0  0  0  0  0  3  0  0  0  0  0  0
   42.1080   32.8590   42.0710 H   0  0  0  0  0  0  0  0  0  0  0  0
   41.0460   32.5760   41.2880 S   0  0  0  0  0  0  0  0  0  0  0  0
   41.2810   31.1900   40.7250 O   0  0  0  0  0  0  0  0  0  0  0  0
   39.7390   32.4790   42.0330 O   0  0  0  0  0  0  0  0  0  0  0  0
  1  2  2  0  0  0  0
  1  6  1  0  0  0  0
  2  3  1  0  0  0  0
  3  4  2  0  0  0  0
  3 10  1  0  0  0  0
  5  4  1  0  0  0  0
  5  8  1  0  0  0  0
  6  5  2  0  0  0  0
  7  2  1  0  0  0  0
  9 18  1  0  0  0  0
  9 17  1  0  0  0  0
 10  9  2  0  0  0  0
 11 10  1  0  0  0  0
 11 12  2  0  0  0  0
 12 16  1  0  0  0  0
 13 12  1  0  0  0  0
 13 14  1  0  0  0  0
 14 21  1  0  0  0  0
 14 15  2  0  0  0  0
 16 15  1  0  0  0  0
 16 17  2  0  0  0  0
 17 22  1  0  0  0  0
 19 11  1  0  0  0  0
 20 13  1  0  0  0  0
 23  1  1  0  0  0  0
 24 23  1  0  0  0  0
 25 24  2  0  0  0  0
 26 27  1  0  0  0  0
 26 25  1  0  0  0  0
 27 28  2  0  0  0  0
 28 24  1  0  0  0  0
 29 25  1  0  0  0  0
 30 39  1  0  0  0  0
 31 30  1  0  0  0  0
 31 27  1  0  0  0  0
 32 31  2  0  0  0  0
 33 32  1  0  0  0  0
 34 36  2  0  0  0  0
 34 32  1  0  0  0  0
 35 34  1  0  0  0  0
 36 37  1  0  0  0  0
 37 30  2  0  0  0  0
 39 41  2  0  0  0  0
 39 38  1  0  0  0  0
 40 39  2  0  0  0  0
M  END
>  <minimizedAffinity>
-7.12492418

>  <minimizedRMSD>
2.0779078

$$$$
