
 OpenBabel03242512003D

 50 53  0  0  1  0  0  0  0  0999 V2000
   47.1930   34.1200   42.3960 C   0  0  2  0  0  0  0  0  0  0  0  0
   48.5680   34.6990   42.5510 C   0  0  0  0  0  0  0  0  0  0  0  0
   48.8910   35.6870   41.5010 C   0  0  0  0  0  0  0  0  0  0  0  0
   48.7210   35.1330   40.0970 C   0  0  0  0  0  0  0  0  0  0  0  0
   47.5200   34.2500   39.9420 C   0  0  0  0  0  0  0  0  0  0  0  0
   46.5420   34.3740   41.0870 C   0  0  1  0  0  0  0  0  0  0  0  0
   47.3350   33.0020   42.5030 H   0  0  0  0  0  0  0  0  0  0  0  0
   48.5960   35.2110   43.5320 H   0  0  0  0  0  0  0  0  0  0  0  0
   49.3640   33.9290   42.5890 H   0  0  0  0  0  0  0  0  0  0  0  0
   48.3240   36.6190   41.6550 H   0  0  0  0  0  0  0  0  0  0  0  0
   49.9730   35.9520   41.5800 H   0  0  0  0  0  0  0  0  0  0  0  0
   49.6530   34.5840   39.8140 H   0  0  0  0  0  0  0  0  0  0  0  0
   48.6640   36.0140   39.4240 H   0  0  0  0  0  0  0  0  0  0  0  0
   46.9930   34.5540   39.0270 H   0  0  0  0  0  0  0  0  0  0  0  0
   47.8360   33.1960   39.8310 H   0  0  0  0  0  0  0  0  0  0  0  0
   46.0550   35.3490   40.9490 H   0  0  0  0  0  0  0  0  0  0  0  0
   46.2870   34.4890   43.5020 C   0  0  0  0  0  0  0  0  0  0  0  0
   45.5900   35.6610   43.2680 C   0  0  0  0  0  0  0  0  0  0  0  0
   44.6860   36.1350   44.2340 C   0  0  0  0  0  0  0  0  0  0  0  0
   44.5670   35.3490   45.3870 N   0  0  0  0  0  0  0  0  0  0  0  0
   45.2730   34.2130   45.5650 C   0  0  0  0  0  0  0  0  0  0  0  0
   46.1280   33.7970   44.6150 N   0  0  0  0  0  0  0  0  0  0  0  0
   45.5480   36.3920   42.4750 H   0  0  0  0  0  0  0  0  0  0  0  0
   44.0650   37.0160   44.2200 H   0  0  0  0  0  0  0  0  0  0  0  0
   45.1330   33.6620   46.4730 H   0  0  0  0  0  0  0  0  0  0  0  0
   45.4720   33.3350   40.8880 C   0  0  2  0  0  0  0  0  0  0  0  0
   44.9440   33.1310   39.4820 C   0  0  0  0  0  0  0  0  0  0  0  0
   44.0870   33.7450   40.5180 C   0  0  1  0  0  0  0  0  0  0  0  0
   45.6600   32.3800   41.4210 H   0  0  0  0  0  0  0  0  0  0  0  0
   45.2690   33.7800   38.6570 H   0  0  0  0  0  0  0  0  0  0  0  0
   44.6720   32.1040   39.1560 H   0  0  0  0  0  0  0  0  0  0  0  0
   43.9470   34.8480   40.5250 H   0  0  0  0  0  0  0  0  0  0  0  0
   43.0410   32.9880   41.2680 C   0  0  0  0  0  0  0  0  0  0  0  0
   43.4360   32.8370   42.3110 H   0  0  0  0  0  0  0  0  0  0  0  0
   42.9530   31.9760   40.8300 H   0  0  0  0  0  0  0  0  0  0  0  0
   41.7320   33.6990   41.4050 C   0  0  0  0  0  0  0  0  0  0  0  0
   41.8830   34.7660   41.0550 H   0  0  0  0  0  0  0  0  0  0  0  0
   41.5110   33.8140   42.4840 H   0  0  0  0  0  0  0  0  0  0  0  0
   40.0910   33.9060   39.5630 C   0  0  0  0  0  0  0  0  0  0  0  0
   40.6440   33.1690   40.5880 C   0  0  0  0  0  0  0  0  0  0  0  0
   40.0940   31.8970   40.7830 C   0  0  0  0  0  0  0  0  0  0  0  0
   40.5440   31.3340   41.5940 H   0  0  0  0  0  0  0  0  0  0  0  0
   39.0540   31.3590   40.0200 C   0  0  0  0  0  0  0  0  0  0  0  0
   38.7410   30.3680   40.2940 H   0  0  0  0  0  0  0  0  0  0  0  0
   38.5380   32.1330   39.0110 C   0  0  0  0  0  3  0  0  0  0  0  0
   39.0570   33.3930   38.7910 C   0  0  0  0  0  3  0  0  0  0  0  0
   39.7700   36.0330   38.1550 H   0  0  0  0  0  0  0  0  0  0  0  0
   40.6000   35.5050   39.1270 S   0  0  0  0  0  0  0  0  0  0  0  0
   40.3550   36.3900   40.3430 O   0  0  0  0  0  0  0  0  0  0  0  0
   41.9770   35.6070   38.6020 O   0  0  0  0  0  0  0  0  0  0  0  0
  1  7  1  1  0  0  0
  1  2  1  0  0  0  0
  1 17  1  0  0  0  0
  2  9  1  0  0  0  0
  2  8  1  0  0  0  0
  3 11  1  0  0  0  0
  3 10  1  0  0  0  0
  3  2  1  0  0  0  0
  4  3  1  0  0  0  0
  5  4  1  0  0  0  0
  5  6  1  0  0  0  0
  6 16  1  6  0  0  0
  6  1  1  0  0  0  0
 12  4  1  0  0  0  0
 13  4  1  0  0  0  0
 14  5  1  0  0  0  0
 15  5  1  0  0  0  0
 17 22  1  0  0  0  0
 18 17  2  0  0  0  0
 18 19  1  0  0  0  0
 19 20  2  0  0  0  0
 20 21  1  0  0  0  0
 21 25  1  0  0  0  0
 22 21  2  0  0  0  0
 23 18  1  0  0  0  0
 24 19  1  0  0  0  0
 26  6  1  0  0  0  0
 26 29  1  1  0  0  0
 27 28  1  0  0  0  0
 27 26  1  0  0  0  0
 28 32  1  6  0  0  0
 28 26  1  0  0  0  0
 28 33  1  0  0  0  0
 30 27  1  0  0  0  0
 31 27  1  0  0  0  0
 33 36  1  0  0  0  0
 33 34  1  0  0  0  0
 35 33  1  0  0  0  0
 36 38  1  0  0  0  0
 37 36  1  0  0  0  0
 39 40  1  0  0  0  0
 40 41  2  0  0  0  0
 40 36  1  0  0  0  0
 41 42  1  0  0  0  0
 43 44  1  0  0  0  0
 43 41  1  0  0  0  0
 45 43  2  0  0  0  0
 46 45  1  0  0  0  0
 46 39  2  0  0  0  0
 47 48  1  0  0  0  0
 48 39  1  0  0  0  0
 48 49  2  0  0  0  0
 50 48  2  0  0  0  0
M  END
>  <minimizedAffinity>
-6.6016264

>  <minimizedRMSD>
1.6096133

$$$$
