
 OpenBabel03252506333D

 36 38  0  0  1  0  0  0  0  0999 V2000
   44.4970   35.5550   45.0480 C   0  0  0  0  0  0  0  0  0  0  0  0
   45.1930   35.5630   43.8280 C   0  0  0  0  0  0  0  0  0  0  0  0
   46.1510   34.6210   43.6170 C   0  0  0  0  0  0  0  0  0  0  0  0
   46.3660   33.7350   44.6120 N   0  0  0  0  0  0  0  0  0  0  0  0
   45.7090   33.7270   45.7680 C   0  0  0  0  0  0  0  0  0  0  0  0
   44.7540   34.6370   46.0210 N   0  0  0  0  0  0  0  0  0  0  0  0
   46.0370   32.7380   46.7320 N   0  0  0  0  0  0  0  0  0  0  0  0
   45.2150   32.4020   47.8910 C   0  0  0  0  0  0  0  0  0  0  0  0
   46.2880   32.1540   48.9460 C   0  0  0  0  0  0  0  0  0  0  0  0
   47.6090   32.0730   48.2290 C   0  0  0  0  0  0  0  0  0  0  0  0
   47.2010   31.8820   46.7860 C   0  0  1  0  0  0  0  0  0  0  0  0
   43.7140   36.2780   45.2920 H   0  0  0  0  0  0  0  0  0  0  0  0
   46.6530   34.6580   42.6870 H   0  0  0  0  0  0  0  0  0  0  0  0
   44.5840   31.5170   47.7150 H   0  0  0  0  0  0  0  0  0  0  0  0
   44.6200   33.2580   48.2440 H   0  0  0  0  0  0  0  0  0  0  0  0
   46.0620   31.1750   49.4090 H   0  0  0  0  0  0  0  0  0  0  0  0
   46.2560   32.8990   49.7560 H   0  0  0  0  0  0  0  0  0  0  0  0
   48.2350   31.2220   48.5990 H   0  0  0  0  0  0  0  0  0  0  0  0
   48.1150   33.0500   48.3580 H   0  0  0  0  0  0  0  0  0  0  0  0
   48.0300   32.2430   46.1680 H   0  0  0  0  0  0  0  0  0  0  0  0
   44.7830   36.6070   42.9390 N   0  0  0  0  0  0  0  0  0  0  0  0
   43.8430   36.8000   42.5630 H   0  0  0  0  0  0  0  0  0  0  0  0
   45.6910   37.1190   42.7750 H   0  0  0  0  0  0  0  0  0  0  0  0
   46.7760   30.1460   46.5480 S   0  0  0  0  0  0  0  0  0  0  0  0
   46.6650   29.9040   43.7240 C   0  0  0  0  0  0  0  0  0  0  0  0
   46.0450   29.8410   44.9520 C   0  0  0  0  0  0  0  0  0  0  0  0
   44.6900   29.5040   45.0200 C   0  0  0  0  0  0  0  0  0  0  0  0
   44.1190   29.4310   45.9450 H   0  0  0  0  0  0  0  0  0  0  0  0
   43.9940   29.2410   43.8540 C   0  0  0  0  0  0  0  0  0  0  0  0
   42.9470   28.9790   43.8910 H   0  0  0  0  0  0  0  0  0  0  0  0
   44.6030   29.3000   42.6220 C   0  0  0  0  0  3  0  0  0  0  0  0
   45.9410   29.6350   42.5790 C   0  0  0  0  0  3  0  0  0  0  0  0
   48.8330   30.2450   45.0400 H   0  0  0  0  0  0  0  0  0  0  0  0
   48.3570   30.3320   43.7630 S   0  0  0  0  0  0  0  0  0  0  0  0
   49.1380   29.3200   42.9390 O   0  0  0  0  0  0  0  0  0  0  0  0
   48.6380   31.6600   43.1340 O   0  0  0  0  0  0  0  0  0  0  0  0
  1 12  1  0  0  0  0
  1  6  1  0  0  0  0
  2  1  2  0  0  0  0
  3  2  1  0  0  0  0
  3  4  2  0  0  0  0
  4  5  1  0  0  0  0
  5  6  2  0  0  0  0
  5  7  1  0  0  0  0
  7 11  1  0  0  0  0
  7  8  1  0  0  0  0
  8 15  1  0  0  0  0
  8  9  1  0  0  0  0
  9 16  1  0  0  0  0
  9 17  1  0  0  0  0
 10 19  1  0  0  0  0
 10 18  1  0  0  0  0
 10  9  1  0  0  0  0
 11 20  1  6  0  0  0
 11 10  1  0  0  0  0
 13  3  1  0  0  0  0
 14  8  1  0  0  0  0
 21  2  1  0  0  0  0
 22 21  1  0  0  0  0
 23 21  1  0  0  0  0
 24 11  1  0  0  0  0
 25 34  1  0  0  0  0
 25 26  1  0  0  0  0
 26 27  2  0  0  0  0
 26 24  1  0  0  0  0
 27 28  1  0  0  0  0
 29 30  1  0  0  0  0
 29 27  1  0  0  0  0
 31 29  2  0  0  0  0
 32 31  1  0  0  0  0
 32 25  2  0  0  0  0
 34 33  1  0  0  0  0
 35 34  2  0  0  0  0
 36 34  2  0  0  0  0
M  END
>  <minimizedAffinity>
-4.87108231

>  <minimizedRMSD>
0.463827193

$$$$
