
 OpenBabel03252508073D

 47 50  0  0  0  0  0  0  0  0999 V2000
   44.9890   35.4490   43.3890 C   0  0  0  0  0  0  0  0  0  0  0  0
   45.4410   34.1400   43.4190 C   0  0  0  0  0  0  0  0  0  0  0  0
   45.4780   33.4520   44.6070 C   0  0  0  0  0  0  0  0  0  0  0  0
   45.0460   34.1270   45.7310 N   0  0  0  0  0  0  0  0  0  0  0  0
   44.6130   35.3840   45.6990 C   0  0  0  0  0  0  0  0  0  0  0  0
   44.5900   36.0350   44.5160 N   0  0  0  0  0  0  0  0  0  0  0  0
   44.9460   36.0260   42.4720 H   0  0  0  0  0  0  0  0  0  0  0  0
   44.2810   35.8860   46.6020 H   0  0  0  0  0  0  0  0  0  0  0  0
   45.9080   32.1190   44.8040 C   0  0  0  0  0  0  0  0  0  0  0  0
   45.6390   31.0710   43.9180 C   0  0  0  0  0  0  0  0  0  0  0  0
   45.9970   29.7660   44.1390 C   0  0  0  0  0  0  0  0  0  0  0  0
   46.6640   29.4280   45.2940 C   0  0  0  0  0  0  0  0  0  0  0  0
   46.9460   30.4750   46.2000 C   0  0  0  0  0  0  0  0  0  0  0  0
   47.6070   30.1550   47.3610 C   0  0  0  0  0  0  0  0  0  0  0  0
   47.9150   31.1250   48.2940 C   0  0  0  0  0  0  0  0  0  0  0  0
   47.5460   32.4570   48.0460 C   0  0  0  0  0  0  0  0  0  0  0  0
   46.8700   32.7430   46.8460 C   0  0  0  0  0  0  0  0  0  0  0  0
   46.5760   31.7570   45.9450 C   0  0  0  0  0  0  0  0  0  0  0  0
   45.1120   31.3380   43.0060 H   0  0  0  0  0  0  0  0  0  0  0  0
   45.7580   28.9960   43.4100 H   0  0  0  0  0  0  0  0  0  0  0  0
   46.9740   28.4180   45.5320 H   0  0  0  0  0  0  0  0  0  0  0  0
   47.8850   29.1220   47.5340 H   0  0  0  0  0  0  0  0  0  0  0  0
   48.4360   30.7990   49.1870 H   0  0  0  0  0  0  0  0  0  0  0  0
   47.8270   33.1460   48.8260 H   0  0  0  0  0  0  0  0  0  0  0  0
   46.6980   33.7980   46.8320 H   0  0  0  0  0  0  0  0  0  0  0  0
   45.8350   33.5870   42.2310 O   0  0  0  0  0  0  0  0  0  0  0  0
   48.1840   32.6120   41.6150 O   0  0  0  0  0  0  0  0  0  0  0  0
   47.3470   33.8380   41.5100 P   0  0  1  0  0  0  0  0  0  0  0  0
   47.1780   34.1770   39.8580 O   0  0  0  0  0  0  0  0  0  0  0  0
   47.1830   32.6070   38.0990 C   0  0  0  0  0  0  0  0  0  0  0  0
   46.4610   33.2970   39.0570 C   0  0  0  0  0  0  0  0  0  0  0  0
   45.1070   33.0820   39.1650 C   0  0  0  0  0  0  0  0  0  0  0  0
   44.5500   33.6130   39.9030 H   0  0  0  0  0  0  0  0  0  0  0  0
   44.4740   32.1860   38.3250 C   0  0  0  0  0  0  0  0  0  0  0  0
   43.4010   32.0330   38.4290 H   0  0  0  0  0  0  0  0  0  0  0  0
   45.1760   31.4850   37.3600 C   0  0  0  0  0  0  0  0  0  0  0  0
   46.5350   31.7060   37.2580 C   0  0  0  0  0  0  0  0  0  0  0  0
   49.5980   32.7580   39.0170 H   0  0  0  0  0  0  0  0  0  0  0  0
   48.9040   32.7680   37.8360 S   0  0  0  0  0  0  0  0  0  0  0  0
   49.1680   34.0580   37.0840 O   0  0  0  0  0  0  0  0  0  0  0  0
   49.4240   31.6360   36.9970 O   0  0  0  0  0  0  0  0  0  0  0  0
   48.0800   35.1450   42.2600 O   0  0  0  0  0  0  0  0  0  0  0  0
   49.3940   35.5570   42.1100 C   0  0  0  0  0  0  0  0  0  0  0  0
   49.3510   36.4370   41.2290 O   0  0  0  0  0  0  0  0  0  0  0  0
   50.2650   34.8300   43.0000 N   0  0  0  0  0  0  0  0  0  0  0  0
   50.1580   35.0620   44.0330 H   0  0  0  0  0  0  0  0  0  0  0  0
   50.9890   34.1050   42.7740 H   0  0  0  0  0  0  0  0  0  0  0  0
  1  2  2  0  0  0  0
  1  6  1  0  0  0  0
  2  3  1  0  0  0  0
  3  9  1  0  0  0  0
  3  4  2  0  0  0  0
  5  4  1  0  0  0  0
  5  8  1  0  0  0  0
  6  5  2  0  0  0  0
  7  1  1  0  0  0  0
  9 18  1  0  0  0  0
 10 11  1  0  0  0  0
 10  9  2  0  0  0  0
 11 12  2  0  0  0  0
 12 21  1  0  0  0  0
 12 13  1  0  0  0  0
 13 14  1  0  0  0  0
 14 22  1  0  0  0  0
 14 15  2  0  0  0  0
 15 23  1  0  0  0  0
 16 15  1  0  0  0  0
 16 24  1  0  0  0  0
 17 16  2  0  0  0  0
 18 13  2  0  0  0  0
 18 17  1  0  0  0  0
 19 10  1  0  0  0  0
 20 11  1  0  0  0  0
 25 17  1  0  0  0  0
 26  2  1  0  0  0  0
 28 27  2  1  0  0  0
 28 26  1  0  0  0  0
 28 42  1  0  0  0  0
 29 28  1  0  0  0  0
 30 31  1  0  0  0  0
 31 32  2  0  0  0  0
 31 29  1  0  0  0  0
 32 33  1  0  0  0  0
 34 35  1  0  0  0  0
 34 32  1  0  0  0  0
 36 34  2  0  0  0  0
 37 36  1  0  0  0  0
 37 30  2  0  0  0  0
 39 30  1  0  0  0  0
 39 38  1  0  0  0  0
 40 39  2  0  0  0  0
 41 39  2  0  0  0  0
 43 42  1  0  0  0  0
 43 45  1  0  0  0  0
 44 43  2  0  0  0  0
 45 46  1  0  0  0  0
 47 45  1  0  0  0  0
M  END
>  <minimizedAffinity>
-6.30703259

>  <minimizedRMSD>
1.39122236

$$$$
