
 OpenBabel03242518033D

 40 42  0  0  0  0  0  0  0  0999 V2000
   33.6090   28.6840   36.4920 C   0  0  0  0  0  0  0  0  0  0  0  0
   34.0400   29.5340   35.8820 H   0  0  0  0  0  0  0  0  0  0  0  0
   33.7570   27.8020   35.8590 H   0  0  0  0  0  0  0  0  0  0  0  0
   33.8640   29.2390   38.9090 C   0  0  0  0  0  0  0  0  0  0  0  0
   34.3660   28.6320   37.7240 C   0  0  0  0  0  0  0  0  0  0  0  0
   35.6090   28.0010   37.8260 C   0  0  0  0  0  0  0  0  0  0  0  0
   36.2540   28.0040   39.0270 N   0  0  0  0  0  0  0  0  0  0  0  0
   35.7480   28.5840   40.1100 C   0  0  0  0  0  0  0  0  0  0  0  0
   34.5720   29.1940   40.0560 N   0  0  0  0  0  0  0  0  0  0  0  0
   32.9070   29.7510   38.9210 H   0  0  0  0  0  0  0  0  0  0  0  0
   36.0450   27.5220   36.9640 H   0  0  0  0  0  0  0  0  0  0  0  0
   37.4630   29.4710   41.6860 C   0  0  0  0  0  0  0  0  0  0  0  0
   36.4870   28.5530   41.3670 C   0  0  0  0  0  0  0  0  0  0  0  0
   36.2330   27.5780   42.3130 C   0  0  0  0  0  0  0  0  0  0  0  0
   35.4780   26.8100   42.1480 H   0  0  0  0  0  0  0  0  0  0  0  0
   36.8900   27.4870   43.5220 C   0  0  0  0  0  0  0  0  0  0  0  0
   36.6900   26.7240   44.2600 H   0  0  0  0  0  0  0  0  0  0  0  0
   37.8660   28.4110   43.8320 C   0  0  0  0  0  3  0  0  0  0  0  0
   38.1220   29.3850   42.8900 C   0  0  0  0  0  3  0  0  0  0  0  0
   37.7460   30.3500   39.2460 H   0  0  0  0  0  0  0  0  0  0  0  0
   37.8530   30.7400   40.5510 S   0  0  0  0  0  0  0  0  0  0  0  0
   39.1700   31.4090   40.8620 O   0  0  0  0  0  0  0  0  0  0  0  0
   36.8250   31.8570   40.6900 O   0  0  0  0  0  0  0  0  0  0  0  0
   32.1620   28.9670   36.8470 C   0  0  0  0  0  0  0  0  0  0  0  0
   32.1120   29.0410   37.9510 H   0  0  0  0  0  0  0  0  0  0  0  0
   31.4960   28.0860   36.6060 H   0  0  0  0  0  0  0  0  0  0  0  0
   30.5720   30.8370   36.7720 C   0  0  0  0  0  0  0  0  0  0  0  0
   31.5760   30.1190   36.1570 C   0  0  0  0  0  0  0  0  0  0  0  0
   32.0670   30.4340   34.9190 C   0  0  0  0  0  0  0  0  0  0  0  0
   31.5320   31.5200   34.2550 C   0  0  0  0  0  0  0  0  0  0  0  0
   30.5350   32.2830   34.7950 C   0  0  0  0  0  0  0  0  0  0  0  0
   30.0840   31.9050   36.0570 C   0  0  0  0  0  0  0  0  0  0  0  0
   32.8270   29.9470   34.3660 H   0  0  0  0  0  0  0  0  0  0  0  0
   31.8580   31.8470   33.2650 H   0  0  0  0  0  0  0  0  0  0  0  0
   30.0740   33.1440   34.3290 H   0  0  0  0  0  0  0  0  0  0  0  0
   29.2890   32.4980   36.5080 H   0  0  0  0  0  0  0  0  0  0  0  0
   29.9110   30.4670   38.3520 S   0  0  0  0  0  0  0  0  0  0  0  0
   29.0080   29.2510   38.3210 O   0  0  0  0  0  0  0  0  0  0  0  0
   29.0040   31.5980   38.7730 O   0  0  0  0  0  0  0  0  0  0  0  0
   30.8420   30.3490   39.3230 H   0  0  0  0  0  0  0  0  0  0  0  0
  1 24  1  0  0  0  0
  1  5  1  0  0  0  0
  2  1  1  0  0  0  0
  3  1  1  0  0  0  0
  4 10  1  0  0  0  0
  4  9  1  0  0  0  0
  5  6  1  0  0  0  0
  5  4  2  0  0  0  0
  6  7  2  0  0  0  0
  7  8  1  0  0  0  0
  8 13  1  0  0  0  0
  9  8  2  0  0  0  0
 11  6  1  0  0  0  0
 12 19  1  0  0  0  0
 13 12  2  0  0  0  0
 13 14  1  0  0  0  0
 14 16  2  0  0  0  0
 15 14  1  0  0  0  0
 16 18  1  0  0  0  0
 16 17  1  0  0  0  0
 19 18  2  0  0  0  0
 20 21  1  0  0  0  0
 21 23  2  0  0  0  0
 21 22  2  0  0  0  0
 21 12  1  0  0  0  0
 24 25  1  0  0  0  0
 26 24  1  0  0  0  0
 27 37  1  0  0  0  0
 28 27  1  0  0  0  0
 28 24  1  0  0  0  0
 29 28  2  0  0  0  0
 30 31  2  0  0  0  0
 30 29  1  0  0  0  0
 31 32  1  0  0  0  0
 32 36  1  0  0  0  0
 32 27  2  0  0  0  0
 33 29  1  0  0  0  0
 34 30  1  0  0  0  0
 35 31  1  0  0  0  0
 37 39  2  0  0  0  0
 37 40  1  0  0  0  0
 38 37  2  0  0  0  0
M  END
>  <minimizedAffinity>
-6.21614265

$$$$

 OpenBabel03242518033D

 40 42  0  0  0  0  0  0  0  0999 V2000
   37.0020   28.1040   38.3900 C   0  0  0  0  0  0  0  0  0  0  0  0
   36.1980   28.2820   37.6130 H   0  0  0  0  0  0  0  0  0  0  0  0
   37.4950   27.1840   38.0550 H   0  0  0  0  0  0  0  0  0  0  0  0
   38.9580   29.3760   39.2680 C   0  0  0  0  0  0  0  0  0  0  0  0
   37.8720   29.2590   38.3560 C   0  0  0  0  0  0  0  0  0  0  0  0
   37.7060   30.3100   37.4480 C   0  0  0  0  0  0  0  0  0  0  0  0
   38.5720   31.3610   37.4900 N   0  0  0  0  0  0  0  0  0  0  0  0
   39.5740   31.4290   38.3600 C   0  0  0  0  0  0  0  0  0  0  0  0
   39.7670   30.4550   39.2380 N   0  0  0  0  0  0  0  0  0  0  0  0
   39.1610   28.6070   40.0060 H   0  0  0  0  0  0  0  0  0  0  0  0
   36.9020   30.2820   36.7310 H   0  0  0  0  0  0  0  0  0  0  0  0
   40.3160   33.6530   39.2070 C   0  0  0  0  0  0  0  0  0  0  0  0
   40.4680   32.5810   38.3550 C   0  0  0  0  0  0  0  0  0  0  0  0
   41.5300   32.6480   37.4730 C   0  0  0  0  0  0  0  0  0  0  0  0
   41.7300   31.8470   36.7620 H   0  0  0  0  0  0  0  0  0  0  0  0
   42.4160   33.7040   37.4120 C   0  0  0  0  0  0  0  0  0  0  0  0
   43.2460   33.7540   36.7220 H   0  0  0  0  0  0  0  0  0  0  0  0
   42.2550   34.7720   38.2690 C   0  0  0  0  0  3  0  0  0  0  0  0
   41.1960   34.7090   39.1500 C   0  0  0  0  0  3  0  0  0  0  0  0
   39.0630   32.6300   41.2540 H   0  0  0  0  0  0  0  0  0  0  0  0
   39.0000   33.6570   40.3560 S   0  0  0  0  0  0  0  0  0  0  0  0
   37.6510   33.7780   39.6880 O   0  0  0  0  0  0  0  0  0  0  0  0
   39.1040   34.9110   41.2170 O   0  0  0  0  0  0  0  0  0  0  0  0
   36.3920   28.0220   39.7750 C   0  0  0  0  0  0  0  0  0  0  0  0
   35.3060   28.2100   39.6580 H   0  0  0  0  0  0  0  0  0  0  0  0
   36.7420   28.8720   40.4330 H   0  0  0  0  0  0  0  0  0  0  0  0
   37.1230   26.8700   41.8170 C   0  0  0  0  0  0  0  0  0  0  0  0
   36.6960   26.7900   40.5070 C   0  0  0  0  0  0  0  0  0  0  0  0
   36.5330   25.6020   39.8470 C   0  0  0  0  0  0  0  0  0  0  0  0
   36.8090   24.4310   40.5220 C   0  0  0  0  0  0  0  0  0  0  0  0
   37.2370   24.4230   41.8200 C   0  0  0  0  0  0  0  0  0  0  0  0
   37.3800   25.6660   42.4300 C   0  0  0  0  0  0  0  0  0  0  0  0
   36.2160   25.4390   38.8500 H   0  0  0  0  0  0  0  0  0  0  0  0
   36.7090   23.4370   40.0790 H   0  0  0  0  0  0  0  0  0  0  0  0
   37.4690   23.5420   42.4050 H   0  0  0  0  0  0  0  0  0  0  0  0
   37.7200   25.6860   43.4640 H   0  0  0  0  0  0  0  0  0  0  0  0
   37.3490   28.3660   42.6980 S   0  0  0  0  0  0  0  0  0  0  0  0
   38.8020   28.7970   42.7280 O   0  0  0  0  0  0  0  0  0  0  0  0
   36.9970   28.1320   44.1470 O   0  0  0  0  0  0  0  0  0  0  0  0
   36.5590   29.3770   42.2770 H   0  0  0  0  0  0  0  0  0  0  0  0
  1 24  1  0  0  0  0
  2  1  1  0  0  0  0
  3  1  1  0  0  0  0
  4 10  1  0  0  0  0
  5  1  1  0  0  0  0
  5  4  2  0  0  0  0
  6  7  2  0  0  0  0
  6  5  1  0  0  0  0
  7  8  1  0  0  0  0
  8  9  2  0  0  0  0
  9  4  1  0  0  0  0
 11  6  1  0  0  0  0
 12 21  1  0  0  0  0
 13  8  1  0  0  0  0
 13 12  2  0  0  0  0
 14 13  1  0  0  0  0
 15 14  1  0  0  0  0
 16 14  2  0  0  0  0
 16 18  1  0  0  0  0
 17 16  1  0  0  0  0
 18 19  2  0  0  0  0
 19 12  1  0  0  0  0
 21 23  2  0  0  0  0
 21 20  1  0  0  0  0
 22 21  2  0  0  0  0
 24 26  1  0  0  0  0
 24 28  1  0  0  0  0
 25 24  1  0  0  0  0
 27 32  1  0  0  0  0
 27 37  1  0  0  0  0
 28 27  2  0  0  0  0
 29 28  1  0  0  0  0
 29 30  2  0  0  0  0
 30 31  1  0  0  0  0
 31 35  1  0  0  0  0
 31 32  2  0  0  0  0
 32 36  1  0  0  0  0
 33 29  1  0  0  0  0
 34 30  1  0  0  0  0
 37 38  2  0  0  0  0
 37 39  2  0  0  0  0
 40 37  1  0  0  0  0
M  END
>  <minimizedAffinity>
-5.75273705

$$$$

 OpenBabel03242518033D

 40 42  0  0  0  0  0  0  0  0999 V2000
   38.9950   27.3370   43.0850 C   0  0  0  0  0  0  0  0  0  0  0  0
   39.5510   26.5150   42.5390 H   0  0  0  0  0  0  0  0  0  0  0  0
   39.3000   27.2150   44.1300 H   0  0  0  0  0  0  0  0  0  0  0  0
   39.0130   29.8300   43.0570 C   0  0  0  0  0  0  0  0  0  0  0  0
   39.4360   28.5870   42.5070 C   0  0  0  0  0  0  0  0  0  0  0  0
   40.2830   28.6550   41.3960 C   0  0  0  0  0  0  0  0  0  0  0  0
   40.6450   29.8780   40.9160 N   0  0  0  0  0  0  0  0  0  0  0  0
   40.2260   31.0140   41.4620 C   0  0  0  0  0  0  0  0  0  0  0  0
   39.4220   30.9960   42.5150 N   0  0  0  0  0  0  0  0  0  0  0  0
   38.3550   29.8710   43.9190 H   0  0  0  0  0  0  0  0  0  0  0  0
   40.6400   27.7490   40.9320 H   0  0  0  0  0  0  0  0  0  0  0  0
   39.8260   33.0830   40.1310 C   0  0  0  0  0  0  0  0  0  0  0  0
   40.6490   32.2930   40.9020 C   0  0  0  0  0  0  0  0  0  0  0  0
   41.9250   32.7760   41.1260 C   0  0  0  0  0  0  0  0  0  0  0  0
   42.6460   32.2200   41.7240 H   0  0  0  0  0  0  0  0  0  0  0  0
   42.3930   33.9750   40.6300 C   0  0  0  0  0  0  0  0  0  0  0  0
   43.3910   34.3500   40.8060 H   0  0  0  0  0  0  0  0  0  0  0  0
   41.5610   34.7590   39.8580 C   0  0  0  0  0  3  0  0  0  0  0  0
   40.2880   34.2790   39.6330 C   0  0  0  0  0  3  0  0  0  0  0  0
   37.6160   31.8890   40.8360 H   0  0  0  0  0  0  0  0  0  0  0  0
   38.1960   32.5530   39.7930 S   0  0  0  0  0  0  0  0  0  0  0  0
   38.0900   31.8070   38.4850 O   0  0  0  0  0  0  0  0  0  0  0  0
   37.3120   33.7790   39.5960 O   0  0  0  0  0  0  0  0  0  0  0  0
   37.5030   27.2150   42.8470 C   0  0  0  0  0  0  0  0  0  0  0  0
   37.1180   28.2430   42.6950 H   0  0  0  0  0  0  0  0  0  0  0  0
   36.9630   26.8600   43.7750 H   0  0  0  0  0  0  0  0  0  0  0  0
   36.7420   26.7860   40.5520 C   0  0  0  0  0  0  0  0  0  0  0  0
   37.1260   26.2860   41.7790 C   0  0  0  0  0  0  0  0  0  0  0  0
   37.1820   24.9460   42.0540 C   0  0  0  0  0  0  0  0  0  0  0  0
   36.8370   24.0550   41.0580 C   0  0  0  0  0  0  0  0  0  0  0  0
   36.4450   24.4680   39.8160 C   0  0  0  0  0  0  0  0  0  0  0  0
   36.4120   25.8440   39.6050 C   0  0  0  0  0  0  0  0  0  0  0  0
   37.4590   24.4680   42.9570 H   0  0  0  0  0  0  0  0  0  0  0  0
   36.8500   22.9690   41.1840 H   0  0  0  0  0  0  0  0  0  0  0  0
   36.1630   23.8230   38.9930 H   0  0  0  0  0  0  0  0  0  0  0  0
   36.1030   26.1980   38.6230 H   0  0  0  0  0  0  0  0  0  0  0  0
   36.6520   28.4900   40.1580 S   0  0  0  0  0  0  0  0  0  0  0  0
   35.3530   29.1150   40.6220 O   0  0  0  0  0  0  0  0  0  0  0  0
   36.6250   28.6380   38.6560 O   0  0  0  0  0  0  0  0  0  0  0  0
   37.7110   29.2100   40.5880 H   0  0  0  0  0  0  0  0  0  0  0  0
  1  3  1  0  0  0  0
  2  1  1  0  0  0  0
  4 10  1  0  0  0  0
  5  4  2  0  0  0  0
  5  1  1  0  0  0  0
  6  5  1  0  0  0  0
  7  6  2  0  0  0  0
  7  8  1  0  0  0  0
  8  9  2  0  0  0  0
  9  4  1  0  0  0  0
 11  6  1  0  0  0  0
 12 13  1  0  0  0  0
 13 14  2  0  0  0  0
 13  8  1  0  0  0  0
 14 15  1  0  0  0  0
 16 17  1  0  0  0  0
 16 14  1  0  0  0  0
 18 16  2  0  0  0  0
 19 18  1  0  0  0  0
 19 12  2  0  0  0  0
 21 12  1  0  0  0  0
 21 20  1  0  0  0  0
 22 21  2  0  0  0  0
 23 21  2  0  0  0  0
 24  1  1  0  0  0  0
 24 26  1  0  0  0  0
 25 24  1  0  0  0  0
 27 28  1  0  0  0  0
 28 29  2  0  0  0  0
 28 24  1  0  0  0  0
 29 33  1  0  0  0  0
 30 34  1  0  0  0  0
 30 29  1  0  0  0  0
 31 30  2  0  0  0  0
 32 31  1  0  0  0  0
 32 27  2  0  0  0  0
 35 31  1  0  0  0  0
 36 32  1  0  0  0  0
 37 27  1  0  0  0  0
 37 40  1  0  0  0  0
 37 38  2  0  0  0  0
 39 37  2  0  0  0  0
M  END
>  <minimizedAffinity>
-5.61086845

$$$$

 OpenBabel03242518033D

 40 42  0  0  0  0  0  0  0  0999 V2000
   37.6640   32.2500   39.2970 C   0  0  0  0  0  0  0  0  0  0  0  0
   38.3920   32.2690   38.4290 H   0  0  0  0  0  0  0  0  0  0  0  0
   36.7550   32.7060   38.8900 H   0  0  0  0  0  0  0  0  0  0  0  0
   38.2690   29.8450   39.0350 C   0  0  0  0  0  0  0  0  0  0  0  0
   37.4900   30.8600   39.6580 C   0  0  0  0  0  0  0  0  0  0  0  0
   36.5660   30.4350   40.6190 C   0  0  0  0  0  0  0  0  0  0  0  0
   36.4680   29.1030   40.8940 N   0  0  0  0  0  0  0  0  0  0  0  0
   37.2160   28.1890   40.2870 C   0  0  0  0  0  0  0  0  0  0  0  0
   38.1040   28.5490   39.3710 N   0  0  0  0  0  0  0  0  0  0  0  0
   39.0090   30.0860   38.2790 H   0  0  0  0  0  0  0  0  0  0  0  0
   35.9450   31.1540   41.1270 H   0  0  0  0  0  0  0  0  0  0  0  0
   37.4780   26.2470   41.8280 C   0  0  0  0  0  0  0  0  0  0  0  0
   37.0640   26.7790   40.6270 C   0  0  0  0  0  0  0  0  0  0  0  0
   36.4830   25.8960   39.7360 C   0  0  0  0  0  0  0  0  0  0  0  0
   36.1240   26.2250   38.7620 H   0  0  0  0  0  0  0  0  0  0  0  0
   36.3050   24.5510   39.9890 C   0  0  0  0  0  0  0  0  0  0  0  0
   35.8510   23.8620   39.2910 H   0  0  0  0  0  0  0  0  0  0  0  0
   36.7250   24.0280   41.1940 C   0  0  0  0  0  3  0  0  0  0  0  0
   37.3050   24.9070   42.0850 C   0  0  0  0  0  3  0  0  0  0  0  0
   38.7080   28.4510   42.4890 H   0  0  0  0  0  0  0  0  0  0  0  0
   38.2250   27.2880   43.0160 S   0  0  0  0  0  0  0  0  0  0  0  0
   39.2370   26.5590   43.8670 O   0  0  0  0  0  0  0  0  0  0  0  0
   37.1610   27.7430   44.0080 O   0  0  0  0  0  0  0  0  0  0  0  0
   38.2490   32.9720   40.4950 C   0  0  0  0  0  0  0  0  0  0  0  0
   38.0490   32.3370   41.3800 H   0  0  0  0  0  0  0  0  0  0  0  0
   37.6880   33.9280   40.7170 H   0  0  0  0  0  0  0  0  0  0  0  0
   40.6360   32.5110   40.8400 C   0  0  0  0  0  0  0  0  0  0  0  0
   39.6570   33.3520   40.3540 C   0  0  0  0  0  0  0  0  0  0  0  0
   39.9360   34.5390   39.7310 C   0  0  0  0  0  0  0  0  0  0  0  0
   41.2560   34.9110   39.5830 C   0  0  0  0  0  0  0  0  0  0  0  0
   42.2860   34.1350   40.0360 C   0  0  0  0  0  0  0  0  0  0  0  0
   41.9300   32.9410   40.6600 C   0  0  0  0  0  0  0  0  0  0  0  0
   39.2600   35.2480   39.3300 H   0  0  0  0  0  0  0  0  0  0  0  0
   41.5750   35.8380   39.1010 H   0  0  0  0  0  0  0  0  0  0  0  0
   43.3390   34.3680   39.9520 H   0  0  0  0  0  0  0  0  0  0  0  0
   42.7330   32.3060   41.0300 H   0  0  0  0  0  0  0  0  0  0  0  0
   40.3260   30.9870   41.6470 S   0  0  0  0  0  0  0  0  0  0  0  0
   39.8210   31.1840   43.0610 O   0  0  0  0  0  0  0  0  0  0  0  0
   41.6360   30.2540   41.8140 O   0  0  0  0  0  0  0  0  0  0  0  0
   39.5140   30.1570   40.9580 H   0  0  0  0  0  0  0  0  0  0  0  0
  1  5  1  0  0  0  0
  1 24  1  0  0  0  0
  2  1  1  0  0  0  0
  3  1  1  0  0  0  0
  4  9  2  0  0  0  0
  4  5  1  0  0  0  0
  5  6  2  0  0  0  0
  6  7  1  0  0  0  0
  6 11  1  0  0  0  0
  8 13  1  0  0  0  0
  8  7  2  0  0  0  0
  9  8  1  0  0  0  0
 10  4  1  0  0  0  0
 12 19  1  0  0  0  0
 12 21  1  0  0  0  0
 13 12  2  0  0  0  0
 14 16  2  0  0  0  0
 14 13  1  0  0  0  0
 15 14  1  0  0  0  0
 16 18  1  0  0  0  0
 17 16  1  0  0  0  0
 18 19  2  0  0  0  0
 20 21  1  0  0  0  0
 21 22  2  0  0  0  0
 21 23  2  0  0  0  0
 24 26  1  0  0  0  0
 24 25  1  0  0  0  0
 27 37  1  0  0  0  0
 28 24  1  0  0  0  0
 28 27  2  0  0  0  0
 29 28  1  0  0  0  0
 30 29  2  0  0  0  0
 30 31  1  0  0  0  0
 31 32  2  0  0  0  0
 32 27  1  0  0  0  0
 32 36  1  0  0  0  0
 33 29  1  0  0  0  0
 34 30  1  0  0  0  0
 35 31  1  0  0  0  0
 37 39  2  0  0  0  0
 37 38  2  0  0  0  0
 40 37  1  0  0  0  0
M  END
>  <minimizedAffinity>
-5.61040974

$$$$

 OpenBabel03242518033D

 40 42  0  0  0  0  0  0  0  0999 V2000
   36.5760   31.4940   40.0480 C   0  0  0  0  0  0  0  0  0  0  0  0
   35.5340   31.2640   39.6700 H   0  0  0  0  0  0  0  0  0  0  0  0
   36.4140   32.2380   40.8360 H   0  0  0  0  0  0  0  0  0  0  0  0
   37.1930   29.9960   41.9440 C   0  0  0  0  0  0  0  0  0  0  0  0
   37.1190   30.2480   40.5450 C   0  0  0  0  0  0  0  0  0  0  0  0
   37.5960   29.2380   39.7040 C   0  0  0  0  0  0  0  0  0  0  0  0
   38.0940   28.0970   40.2600 N   0  0  0  0  0  0  0  0  0  0  0  0
   38.1440   27.9040   41.5740 C   0  0  0  0  0  0  0  0  0  0  0  0
   37.7020   28.8360   42.4070 N   0  0  0  0  0  0  0  0  0  0  0  0
   36.8450   30.7250   42.6690 H   0  0  0  0  0  0  0  0  0  0  0  0
   37.5690   29.3670   38.6340 H   0  0  0  0  0  0  0  0  0  0  0  0
   39.9150   26.5850   42.7300 C   0  0  0  0  0  0  0  0  0  0  0  0
   38.6880   26.6600   42.1080 C   0  0  0  0  0  0  0  0  0  0  0  0
   37.9790   25.4780   42.0100 C   0  0  0  0  0  0  0  0  0  0  0  0
   36.9990   25.4410   41.5360 H   0  0  0  0  0  0  0  0  0  0  0  0
   38.4290   24.2670   42.4930 C   0  0  0  0  0  0  0  0  0  0  0  0
   37.8730   23.3440   42.4160 H   0  0  0  0  0  0  0  0  0  0  0  0
   39.6600   24.2010   43.1130 C   0  0  0  0  0  3  0  0  0  0  0  0
   40.3700   25.3790   43.2120 C   0  0  0  0  0  3  0  0  0  0  0  0
   40.1690   29.1140   43.3170 H   0  0  0  0  0  0  0  0  0  0  0  0
   40.8840   28.0290   42.8980 S   0  0  0  0  0  0  0  0  0  0  0  0
   41.7200   28.3090   41.6720 O   0  0  0  0  0  0  0  0  0  0  0  0
   41.9070   27.8070   44.0050 O   0  0  0  0  0  0  0  0  0  0  0  0
   37.4610   31.9650   38.9110 C   0  0  0  0  0  0  0  0  0  0  0  0
   36.7870   32.3490   38.1200 H   0  0  0  0  0  0  0  0  0  0  0  0
   37.9940   31.1000   38.4150 H   0  0  0  0  0  0  0  0  0  0  0  0
   39.8070   32.6890   38.9050 C   0  0  0  0  0  0  0  0  0  0  0  0
   38.5060   32.9160   39.3010 C   0  0  0  0  0  0  0  0  0  0  0  0
   38.1310   34.0010   40.0460 C   0  0  0  0  0  0  0  0  0  0  0  0
   39.1000   34.9110   40.4180 C   0  0  0  0  0  0  0  0  0  0  0  0
   40.4110   34.7610   40.0660 C   0  0  0  0  0  0  0  0  0  0  0  0
   40.7220   33.6340   39.3090 C   0  0  0  0  0  0  0  0  0  0  0  0
   37.1660   34.2590   40.3980 H   0  0  0  0  0  0  0  0  0  0  0  0
   38.8960   35.8060   41.0110 H   0  0  0  0  0  0  0  0  0  0  0  0
   41.2180   35.4350   40.3240 H   0  0  0  0  0  0  0  0  0  0  0  0
   41.7610   33.4920   39.0170 H   0  0  0  0  0  0  0  0  0  0  0  0
   40.3320   31.3140   37.9570 S   0  0  0  0  0  0  0  0  0  0  0  0
   40.8970   30.2060   38.8230 O   0  0  0  0  0  0  0  0  0  0  0  0
   41.4920   31.7390   37.0890 O   0  0  0  0  0  0  0  0  0  0  0  0
   39.3900   30.8330   37.1180 H   0  0  0  0  0  0  0  0  0  0  0  0
  1  5  1  0  0  0  0
  1  3  1  0  0  0  0
  2  1  1  0  0  0  0
  4  9  1  0  0  0  0
  4 10  1  0  0  0  0
  5  4  2  0  0  0  0
  6  7  2  0  0  0  0
  6  5  1  0  0  0  0
  7  8  1  0  0  0  0
  8 13  1  0  0  0  0
  8  9  2  0  0  0  0
 11  6  1  0  0  0  0
 12 21  1  0  0  0  0
 12 19  1  0  0  0  0
 13 12  2  0  0  0  0
 14 13  1  0  0  0  0
 14 16  2  0  0  0  0
 15 14  1  0  0  0  0
 16 18  1  0  0  0  0
 17 16  1  0  0  0  0
 18 19  2  0  0  0  0
 21 20  1  0  0  0  0
 21 23  2  0  0  0  0
 22 21  2  0  0  0  0
 24 28  1  0  0  0  0
 24  1  1  0  0  0  0
 25 24  1  0  0  0  0
 26 24  1  0  0  0  0
 27 28  2  0  0  0  0
 27 32  1  0  0  0  0
 28 29  1  0  0  0  0
 29 33  1  0  0  0  0
 29 30  2  0  0  0  0
 30 34  1  0  0  0  0
 31 35  1  0  0  0  0
 31 30  1  0  0  0  0
 32 31  2  0  0  0  0
 36 32  1  0  0  0  0
 37 38  2  0  0  0  0
 37 27  1  0  0  0  0
 39 37  2  0  0  0  0
 40 37  1  0  0  0  0
M  END
>  <minimizedAffinity>
-5.57851458

$$$$

 OpenBabel03242518033D

 40 42  0  0  0  0  0  0  0  0999 V2000
   37.5440   31.4960   37.8430 C   0  0  0  0  0  0  0  0  0  0  0  0
   37.1910   31.4230   36.7700 H   0  0  0  0  0  0  0  0  0  0  0  0
   36.9010   32.2680   38.2820 H   0  0  0  0  0  0  0  0  0  0  0  0
   38.4460   29.3070   38.6260 C   0  0  0  0  0  0  0  0  0  0  0  0
   37.3460   30.1890   38.4330 C   0  0  0  0  0  0  0  0  0  0  0  0
   36.0930   29.7210   38.8390 C   0  0  0  0  0  0  0  0  0  0  0  0
   35.9990   28.4740   39.3830 N   0  0  0  0  0  0  0  0  0  0  0  0
   37.0540   27.6830   39.5450 C   0  0  0  0  0  0  0  0  0  0  0  0
   38.2600   28.0880   39.1730 N   0  0  0  0  0  0  0  0  0  0  0  0
   39.4540   29.5890   38.3390 H   0  0  0  0  0  0  0  0  0  0  0  0
   35.2190   30.3400   38.7200 H   0  0  0  0  0  0  0  0  0  0  0  0
   36.9960   26.1210   41.4860 C   0  0  0  0  0  0  0  0  0  0  0  0
   36.8890   26.3590   40.1340 C   0  0  0  0  0  0  0  0  0  0  0  0
   36.6120   25.2610   39.3400 C   0  0  0  0  0  0  0  0  0  0  0  0
   36.5090   25.3530   38.2600 H   0  0  0  0  0  0  0  0  0  0  0  0
   36.4430   23.9810   39.8270 C   0  0  0  0  0  0  0  0  0  0  0  0
   36.2270   23.1250   39.2050 H   0  0  0  0  0  0  0  0  0  0  0  0
   36.5530   23.7540   41.1830 C   0  0  0  0  0  3  0  0  0  0  0  0
   36.8300   24.8470   41.9770 C   0  0  0  0  0  3  0  0  0  0  0  0
   37.1210   28.6740   42.0090 H   0  0  0  0  0  0  0  0  0  0  0  0
   37.3460   27.4480   42.5670 S   0  0  0  0  0  0  0  0  0  0  0  0
   38.7100   27.3290   43.2050 O   0  0  0  0  0  0  0  0  0  0  0  0
   36.3780   27.3910   43.7430 O   0  0  0  0  0  0  0  0  0  0  0  0
   39.0260   31.8080   37.8930 C   0  0  0  0  0  0  0  0  0  0  0  0
   39.3500   31.9940   36.8500 H   0  0  0  0  0  0  0  0  0  0  0  0
   39.6300   30.9050   38.2050 H   0  0  0  0  0  0  0  0  0  0  0  0
   40.6460   33.4570   38.7240 C   0  0  0  0  0  0  0  0  0  0  0  0
   39.3950   32.8820   38.8190 C   0  0  0  0  0  0  0  0  0  0  0  0
   38.4630   33.2720   39.7430 C   0  0  0  0  0  0  0  0  0  0  0  0
   38.7900   34.2870   40.6200 C   0  0  0  0  0  0  0  0  0  0  0  0
   40.0070   34.9080   40.5920 C   0  0  0  0  0  0  0  0  0  0  0  0
   40.9060   34.4610   39.6270 C   0  0  0  0  0  0  0  0  0  0  0  0
   37.4870   32.8940   39.8950 H   0  0  0  0  0  0  0  0  0  0  0  0
   38.1130   34.6650   41.3900 H   0  0  0  0  0  0  0  0  0  0  0  0
   40.3250   35.7070   41.2490 H   0  0  0  0  0  0  0  0  0  0  0  0
   41.8820   34.9410   39.5860 H   0  0  0  0  0  0  0  0  0  0  0  0
   41.8690   32.9880   37.5620 S   0  0  0  0  0  0  0  0  0  0  0  0
   42.8180   31.9470   38.1220 O   0  0  0  0  0  0  0  0  0  0  0  0
   42.7480   34.1820   37.2760 O   0  0  0  0  0  0  0  0  0  0  0  0
   41.3720   32.5910   36.3710 H   0  0  0  0  0  0  0  0  0  0  0  0
  1 24  1  0  0  0  0
  1  3  1  0  0  0  0
  1  5  1  0  0  0  0
  2  1  1  0  0  0  0
  4  9  1  0  0  0  0
  5  4  2  0  0  0  0
  5  6  1  0  0  0  0
  6  7  2  0  0  0  0
  7  8  1  0  0  0  0
  8 13  1  0  0  0  0
  9  8  2  0  0  0  0
 10  4  1  0  0  0  0
 11  6  1  0  0  0  0
 12 19  1  0  0  0  0
 12 21  1  0  0  0  0
 13 12  2  0  0  0  0
 14 16  2  0  0  0  0
 14 13  1  0  0  0  0
 15 14  1  0  0  0  0
 16 18  1  0  0  0  0
 17 16  1  0  0  0  0
 18 19  2  0  0  0  0
 20 21  1  0  0  0  0
 21 22  2  0  0  0  0
 21 23  2  0  0  0  0
 24 26  1  0  0  0  0
 24 28  1  0  0  0  0
 25 24  1  0  0  0  0
 27 28  2  0  0  0  0
 27 32  1  0  0  0  0
 28 29  1  0  0  0  0
 29 33  1  0  0  0  0
 29 30  2  0  0  0  0
 30 34  1  0  0  0  0
 31 30  1  0  0  0  0
 31 35  1  0  0  0  0
 32 31  2  0  0  0  0
 36 32  1  0  0  0  0
 37 38  2  0  0  0  0
 37 27  1  0  0  0  0
 39 37  2  0  0  0  0
 40 37  1  0  0  0  0
M  END
>  <minimizedAffinity>
-5.47483921

$$$$

 OpenBabel03242518033D

 40 42  0  0  0  0  0  0  0  0999 V2000
   37.1590   32.0420   40.0620 C   0  0  0  0  0  0  0  0  0  0  0  0
   36.5230   32.9750   40.1410 H   0  0  0  0  0  0  0  0  0  0  0  0
   36.9400   31.6560   39.0600 H   0  0  0  0  0  0  0  0  0  0  0  0
   38.9390   33.7740   39.8360 C   0  0  0  0  0  0  0  0  0  0  0  0
   38.5330   32.4650   40.2200 C   0  0  0  0  0  0  0  0  0  0  0  0
   39.5280   31.6340   40.7460 C   0  0  0  0  0  0  0  0  0  0  0  0
   40.7990   32.1150   40.8560 N   0  0  0  0  0  0  0  0  0  0  0  0
   41.1330   33.3460   40.4850 C   0  0  0  0  0  0  0  0  0  0  0  0
   40.2210   34.1660   39.9810 N   0  0  0  0  0  0  0  0  0  0  0  0
   38.2320   34.4840   39.4190 H   0  0  0  0  0  0  0  0  0  0  0  0
   39.2870   30.6300   41.0560 H   0  0  0  0  0  0  0  0  0  0  0  0
   43.4630   33.6330   39.6480 C   0  0  0  0  0  0  0  0  0  0  0  0
   42.5110   33.8030   40.6280 C   0  0  0  0  0  0  0  0  0  0  0  0
   42.9280   34.4410   41.7810 C   0  0  0  0  0  0  0  0  0  0  0  0
   42.2440   34.6200   42.6100 H   0  0  0  0  0  0  0  0  0  0  0  0
   44.2130   34.9000   41.9860 C   0  0  0  0  0  0  0  0  0  0  0  0
   44.5370   35.3980   42.8890 H   0  0  0  0  0  0  0  0  0  0  0  0
   45.1590   34.7240   40.9990 C   0  0  0  0  0  3  0  0  0  0  0  0
   44.7460   34.0880   39.8470 C   0  0  0  0  0  3  0  0  0  0  0  0
   44.0910   32.6260   37.3240 H   0  0  0  0  0  0  0  0  0  0  0  0
   43.0280   32.8360   38.1550 S   0  0  0  0  0  0  0  0  0  0  0  0
   41.8600   33.5000   37.4660 O   0  0  0  0  0  0  0  0  0  0  0  0
   42.5240   31.4340   38.4760 O   0  0  0  0  0  0  0  0  0  0  0  0
   36.8350   31.0820   41.1900 C   0  0  0  0  0  0  0  0  0  0  0  0
   35.9370   31.4810   41.7010 H   0  0  0  0  0  0  0  0  0  0  0  0
   37.6320   31.1010   41.9910 H   0  0  0  0  0  0  0  0  0  0  0  0
   37.1760   28.6870   41.6150 C   0  0  0  0  0  0  0  0  0  0  0  0
   36.7020   29.6810   40.7830 C   0  0  0  0  0  0  0  0  0  0  0  0
   36.1000   29.4230   39.5810 C   0  0  0  0  0  0  0  0  0  0  0  0
   35.9600   28.1090   39.1830 C   0  0  0  0  0  0  0  0  0  0  0  0
   36.4020   27.0660   39.9480 C   0  0  0  0  0  0  0  0  0  0  0  0
   37.0040   27.4010   41.1580 C   0  0  0  0  0  0  0  0  0  0  0  0
   35.7110   30.1110   38.8770 H   0  0  0  0  0  0  0  0  0  0  0  0
   35.4940   27.8060   38.2420 H   0  0  0  0  0  0  0  0  0  0  0  0
   36.3230   26.0170   39.6950 H   0  0  0  0  0  0  0  0  0  0  0  0
   37.3650   26.5880   41.7850 H   0  0  0  0  0  0  0  0  0  0  0  0
   37.9560   28.9710   43.1570 S   0  0  0  0  0  0  0  0  0  0  0  0
   39.3320   28.3410   43.2240 O   0  0  0  0  0  0  0  0  0  0  0  0
   37.1670   28.2660   44.2340 O   0  0  0  0  0  0  0  0  0  0  0  0
   38.0060   30.2720   43.5160 H   0  0  0  0  0  0  0  0  0  0  0  0
  1  2  1  0  0  0  0
  1  5  1  0  0  0  0
  1 24  1  0  0  0  0
  3  1  1  0  0  0  0
  4  9  2  0  0  0  0
  4  5  1  0  0  0  0
  5  6  2  0  0  0  0
  6  7  1  0  0  0  0
  6 11  1  0  0  0  0
  8 13  1  0  0  0  0
  8  7  2  0  0  0  0
  9  8  1  0  0  0  0
 10  4  1  0  0  0  0
 12 19  2  0  0  0  0
 12 13  1  0  0  0  0
 13 14  2  0  0  0  0
 14 16  1  0  0  0  0
 14 15  1  0  0  0  0
 16 17  1  0  0  0  0
 18 16  2  0  0  0  0
 19 18  1  0  0  0  0
 20 21  1  0  0  0  0
 21 23  2  0  0  0  0
 21 12  1  0  0  0  0
 22 21  2  0  0  0  0
 24 25  1  0  0  0  0
 24 26  1  0  0  0  0
 27 37  1  0  0  0  0
 28 24  1  0  0  0  0
 28 27  2  0  0  0  0
 29 28  1  0  0  0  0
 30 29  2  0  0  0  0
 30 31  1  0  0  0  0
 31 32  2  0  0  0  0
 32 27  1  0  0  0  0
 32 36  1  0  0  0  0
 33 29  1  0  0  0  0
 34 30  1  0  0  0  0
 35 31  1  0  0  0  0
 37 38  2  0  0  0  0
 37 40  1  0  0  0  0
 37 39  2  0  0  0  0
M  END
>  <minimizedAffinity>
-5.44040537

$$$$

 OpenBabel03242518033D

 40 42  0  0  0  0  0  0  0  0999 V2000
   37.1390   28.0040   43.1850 C   0  0  0  0  0  0  0  0  0  0  0  0
   36.8520   28.3240   44.2320 H   0  0  0  0  0  0  0  0  0  0  0  0
   36.1850   27.7270   42.7220 H   0  0  0  0  0  0  0  0  0  0  0  0
   37.1750   29.7610   41.4150 C   0  0  0  0  0  0  0  0  0  0  0  0
   37.7630   29.1490   42.5590 C   0  0  0  0  0  0  0  0  0  0  0  0
   38.9540   29.7140   43.0240 C   0  0  0  0  0  0  0  0  0  0  0  0
   39.4730   30.7920   42.3690 N   0  0  0  0  0  0  0  0  0  0  0  0
   38.8900   31.3310   41.3040 C   0  0  0  0  0  0  0  0  0  0  0  0
   37.7590   30.8260   40.8310 N   0  0  0  0  0  0  0  0  0  0  0  0
   36.2500   29.3870   40.9880 H   0  0  0  0  0  0  0  0  0  0  0  0
   39.4500   29.2980   43.8860 H   0  0  0  0  0  0  0  0  0  0  0  0
   40.4950   32.3740   39.7070 C   0  0  0  0  0  0  0  0  0  0  0  0
   39.4940   32.4850   40.6480 C   0  0  0  0  0  0  0  0  0  0  0  0
   39.0780   33.7680   40.9480 C   0  0  0  0  0  0  0  0  0  0  0  0
   38.2920   33.9540   41.6790 H   0  0  0  0  0  0  0  0  0  0  0  0
   39.6030   34.9040   40.3680 C   0  0  0  0  0  0  0  0  0  0  0  0
   39.2760   35.9070   40.6040 H   0  0  0  0  0  0  0  0  0  0  0  0
   40.6050   34.7820   39.4270 C   0  0  0  0  0  3  0  0  0  0  0  0
   41.0220   33.5030   39.1250 C   0  0  0  0  0  3  0  0  0  0  0  0
   40.1040   29.8430   39.2060 H   0  0  0  0  0  0  0  0  0  0  0  0
   41.0860   30.7900   39.2640 S   0  0  0  0  0  0  0  0  0  0  0  0
   42.2710   30.3630   40.0950 O   0  0  0  0  0  0  0  0  0  0  0  0
   41.6290   30.8500   37.8410 O   0  0  0  0  0  0  0  0  0  0  0  0
   38.1620   26.8860   43.2340 C   0  0  0  0  0  0  0  0  0  0  0  0
   38.1260   26.4640   44.2580 H   0  0  0  0  0  0  0  0  0  0  0  0
   39.2160   27.2860   43.1450 H   0  0  0  0  0  0  0  0  0  0  0  0
   39.0120   25.7480   41.2310 C   0  0  0  0  0  0  0  0  0  0  0  0
   38.0200   25.8780   42.1800 C   0  0  0  0  0  0  0  0  0  0  0  0
   36.8940   25.0990   42.1940 C   0  0  0  0  0  0  0  0  0  0  0  0
   36.7450   24.1400   41.2130 C   0  0  0  0  0  0  0  0  0  0  0  0
   37.6820   23.9470   40.2360 C   0  0  0  0  0  0  0  0  0  0  0  0
   38.8010   24.7750   40.2830 C   0  0  0  0  0  0  0  0  0  0  0  0
   36.0830   25.1250   42.8730 H   0  0  0  0  0  0  0  0  0  0  0  0
   35.8830   23.4730   41.1420 H   0  0  0  0  0  0  0  0  0  0  0  0
   37.6260   23.2150   39.4410 H   0  0  0  0  0  0  0  0  0  0  0  0
   39.5610   24.6400   39.5150 H   0  0  0  0  0  0  0  0  0  0  0  0
   40.4650   26.7250   41.1720 S   0  0  0  0  0  0  0  0  0  0  0  0
   40.9690   26.9130   39.7560 O   0  0  0  0  0  0  0  0  0  0  0  0
   41.5770   25.9800   41.8700 O   0  0  0  0  0  0  0  0  0  0  0  0
   40.3530   27.9140   41.8030 H   0  0  0  0  0  0  0  0  0  0  0  0
  1 24  1  0  0  0  0
  1  2  1  0  0  0  0
  3  1  1  0  0  0  0
  4  5  1  0  0  0  0
  5  6  2  0  0  0  0
  5  1  1  0  0  0  0
  6 11  1  0  0  0  0
  7  6  1  0  0  0  0
  8  7  2  0  0  0  0
  9  8  1  0  0  0  0
  9  4  2  0  0  0  0
 10  4  1  0  0  0  0
 12 13  1  0  0  0  0
 13 14  2  0  0  0  0
 13  8  1  0  0  0  0
 14 15  1  0  0  0  0
 16 17  1  0  0  0  0
 16 14  1  0  0  0  0
 18 16  2  0  0  0  0
 19 18  1  0  0  0  0
 19 12  2  0  0  0  0
 20 21  1  0  0  0  0
 21 12  1  0  0  0  0
 21 22  2  0  0  0  0
 23 21  2  0  0  0  0
 24 25  1  0  0  0  0
 26 24  1  0  0  0  0
 27 28  1  0  0  0  0
 28 29  2  0  0  0  0
 28 24  1  0  0  0  0
 29 33  1  0  0  0  0
 30 29  1  0  0  0  0
 31 32  1  0  0  0  0
 31 30  2  0  0  0  0
 32 27  2  0  0  0  0
 34 30  1  0  0  0  0
 35 31  1  0  0  0  0
 36 32  1  0  0  0  0
 37 27  1  0  0  0  0
 37 40  1  0  0  0  0
 37 39  2  0  0  0  0
 38 37  2  0  0  0  0
M  END
>  <minimizedAffinity>
-5.37336206

$$$$

 OpenBabel03242518033D

 40 42  0  0  0  0  0  0  0  0999 V2000
   35.7920   29.8460   39.1100 C   0  0  0  0  0  0  0  0  0  0  0  0
   34.9450   30.5660   38.8920 H   0  0  0  0  0  0  0  0  0  0  0  0
   35.8820   29.2560   38.1920 H   0  0  0  0  0  0  0  0  0  0  0  0
   38.1790   30.4260   38.6850 C   0  0  0  0  0  0  0  0  0  0  0  0
   36.9610   30.6540   39.3840 C   0  0  0  0  0  0  0  0  0  0  0  0
   36.9680   31.6840   40.3300 C   0  0  0  0  0  0  0  0  0  0  0  0
   38.1160   32.3930   40.5240 N   0  0  0  0  0  0  0  0  0  0  0  0
   39.2330   32.1460   39.8480 C   0  0  0  0  0  0  0  0  0  0  0  0
   39.2690   31.1780   38.9420 N   0  0  0  0  0  0  0  0  0  0  0  0
   38.2630   29.6480   37.9340 H   0  0  0  0  0  0  0  0  0  0  0  0
   36.0770   31.9070   40.8940 H   0  0  0  0  0  0  0  0  0  0  0  0
   41.3850   32.5830   41.0280 C   0  0  0  0  0  0  0  0  0  0  0  0
   40.4300   32.9400   40.1010 C   0  0  0  0  0  0  0  0  0  0  0  0
   40.6620   34.1110   39.4050 C   0  0  0  0  0  0  0  0  0  0  0  0
   39.9630   34.4720   38.6520 H   0  0  0  0  0  0  0  0  0  0  0  0
   41.7710   34.9110   39.5910 C   0  0  0  0  0  0  0  0  0  0  0  0
   41.9500   35.8260   39.0450 H   0  0  0  0  0  0  0  0  0  0  0  0
   42.7200   34.5460   40.5220 C   0  0  0  0  0  3  0  0  0  0  0  0
   42.4910   33.3770   41.2180 C   0  0  0  0  0  3  0  0  0  0  0  0
   39.8680   30.7510   42.1000 H   0  0  0  0  0  0  0  0  0  0  0  0
   41.1760   31.1180   41.9570 S   0  0  0  0  0  0  0  0  0  0  0  0
   41.9270   31.1520   43.2660 O   0  0  0  0  0  0  0  0  0  0  0  0
   41.8070   29.9590   41.1940 O   0  0  0  0  0  0  0  0  0  0  0  0
   35.4890   29.0330   40.3530 C   0  0  0  0  0  0  0  0  0  0  0  0
   34.3900   28.8930   40.3840 H   0  0  0  0  0  0  0  0  0  0  0  0
   35.7120   29.6160   41.2960 H   0  0  0  0  0  0  0  0  0  0  0  0
   36.9430   27.5140   41.6210 C   0  0  0  0  0  0  0  0  0  0  0  0
   36.2410   27.7800   40.4640 C   0  0  0  0  0  0  0  0  0  0  0  0
   36.2030   26.9200   39.4000 C   0  0  0  0  0  0  0  0  0  0  0  0
   36.9010   25.7320   39.4880 C   0  0  0  0  0  0  0  0  0  0  0  0
   37.6210   25.3930   40.5980 C   0  0  0  0  0  0  0  0  0  0  0  0
   37.6150   26.3140   41.6430 C   0  0  0  0  0  0  0  0  0  0  0  0
   35.7000   27.0350   38.4760 H   0  0  0  0  0  0  0  0  0  0  0  0
   36.9300   24.9850   38.6910 H   0  0  0  0  0  0  0  0  0  0  0  0
   38.1880   24.4810   40.7310 H   0  0  0  0  0  0  0  0  0  0  0  0
   38.1830   26.0660   42.5380 H   0  0  0  0  0  0  0  0  0  0  0  0
   37.0230   28.5860   43.0040 S   0  0  0  0  0  0  0  0  0  0  0  0
   38.1850   29.5530   42.9100 O   0  0  0  0  0  0  0  0  0  0  0  0
   37.3170   27.7640   44.2360 O   0  0  0  0  0  0  0  0  0  0  0  0
   35.8710   29.2430   43.2560 H   0  0  0  0  0  0  0  0  0  0  0  0
  1  5  1  0  0  0  0
  1 24  1  0  0  0  0
  2  1  1  0  0  0  0
  3  1  1  0  0  0  0
  4  9  2  0  0  0  0
  4  5  1  0  0  0  0
  5  6  2  0  0  0  0
  6  7  1  0  0  0  0
  6 11  1  0  0  0  0
  8 13  1  0  0  0  0
  8  7  2  0  0  0  0
  9  8  1  0  0  0  0
 10  4  1  0  0  0  0
 12 19  1  0  0  0  0
 12 21  1  0  0  0  0
 13 12  2  0  0  0  0
 14 16  2  0  0  0  0
 14 13  1  0  0  0  0
 15 14  1  0  0  0  0
 16 18  1  0  0  0  0
 17 16  1  0  0  0  0
 18 19  2  0  0  0  0
 21 20  1  0  0  0  0
 21 22  2  0  0  0  0
 23 21  2  0  0  0  0
 24 25  1  0  0  0  0
 24 28  1  0  0  0  0
 24 26  1  0  0  0  0
 27 32  1  0  0  0  0
 27 37  1  0  0  0  0
 28 27  2  0  0  0  0
 29 30  2  0  0  0  0
 29 28  1  0  0  0  0
 30 31  1  0  0  0  0
 31 35  1  0  0  0  0
 31 32  2  0  0  0  0
 32 36  1  0  0  0  0
 33 29  1  0  0  0  0
 34 30  1  0  0  0  0
 37 40  1  0  0  0  0
 37 39  2  0  0  0  0
 38 37  2  0  0  0  0
M  END
>  <minimizedAffinity>
-5.28091145

$$$$
