
 OpenBabel03252505513D

 28 29  0  0  0  0  0  0  0  0999 V2000
   47.0810   31.3580   47.7060 C   0  0  0  0  0  0  0  0  0  0  0  0
   46.9950   31.1400   48.7870 H   0  0  0  0  0  0  0  0  0  0  0  0
   47.8600   32.1520   47.5200 H   0  0  0  0  0  0  0  0  0  0  0  0
   46.6820   29.0660   46.9770 C   0  0  0  0  0  0  0  0  0  0  0  0
   47.5620   30.1420   47.0030 C   0  0  0  0  0  0  0  0  0  0  0  0
   48.7970   30.0280   46.4020 C   0  0  0  0  0  0  0  0  0  0  0  0
   49.4240   30.9310   46.4730 H   0  0  0  0  0  0  0  0  0  0  0  0
   49.2340   28.8910   45.7590 C   0  0  0  0  0  0  0  0  0  0  0  0
   50.2160   28.8530   45.3040 H   0  0  0  0  0  0  0  0  0  0  0  0
   48.3720   27.7910   45.7170 C   0  0  0  0  0  3  0  0  0  0  0  0
   47.1460   27.9390   46.3260 C   0  0  0  0  0  3  0  0  0  0  0  0
   44.9160   29.9860   48.5470 H   0  0  0  0  0  0  0  0  0  0  0  0
   45.0930   28.9900   47.6570 S   0  0  0  0  0  0  0  0  0  0  0  0
   44.8490   27.6930   48.3800 O   0  0  0  0  0  0  0  0  0  0  0  0
   44.0480   29.1000   46.5550 O   0  0  0  0  0  0  0  0  0  0  0  0
   45.8090   31.7910   47.2620 O   0  0  0  0  0  0  0  0  0  0  0  0
   44.7980   34.8690   45.7880 C   0  0  0  0  0  0  0  0  0  0  0  0
   45.3060   34.8000   44.4950 C   0  0  0  0  0  0  0  0  0  0  0  0
   46.0200   33.6410   44.1360 C   0  0  0  0  0  0  0  0  0  0  0  0
   46.1790   32.6590   45.0540 N   0  0  0  0  0  0  0  0  0  0  0  0
   45.6640   32.7760   46.3000 C   0  0  0  0  0  0  0  0  0  0  0  0
   44.9840   33.8620   46.6640 N   0  0  0  0  0  0  0  0  0  0  0  0
   44.2520   35.7300   46.0950 H   0  0  0  0  0  0  0  0  0  0  0  0
   46.4080   33.6040   43.1270 H   0  0  0  0  0  0  0  0  0  0  0  0
   45.0600   35.9570   43.5770 C   0  0  0  0  0  0  0  0  0  0  0  0
   44.9150   37.0440   44.4110 F   0  0  0  0  0  0  0  0  0  0  0  0
   43.8900   35.6860   42.9010 F   0  0  0  0  0  0  0  0  0  0  0  0
   46.1340   36.0610   42.7200 F   0  0  0  0  0  0  0  0  0  0  0  0
  1  2  1  0  0  0  0
  3  1  1  0  0  0  0
  4  5  1  0  0  0  0
  4 13  1  0  0  0  0
  5  1  1  0  0  0  0
  6  7  1  0  0  0  0
  6  5  2  0  0  0  0
  8  6  1  0  0  0  0
  9  8  1  0  0  0  0
 10  8  2  0  0  0  0
 10 11  1  0  0  0  0
 11  4  2  0  0  0  0
 13 14  2  0  0  0  0
 13 12  1  0  0  0  0
 15 13  2  0  0  0  0
 16  1  1  0  0  0  0
 17 23  1  0  0  0  0
 17 22  1  0  0  0  0
 18 17  2  0  0  0  0
 19 18  1  0  0  0  0
 19 20  2  0  0  0  0
 20 21  1  0  0  0  0
 21 22  2  0  0  0  0
 21 16  1  0  0  0  0
 24 19  1  0  0  0  0
 25 26  1  0  0  0  0
 25 18  1  0  0  0  0
 27 25  1  0  0  0  0
 28 25  1  0  0  0  0
M  END
>  <minimizedAffinity>
-4.14378214

>  <minimizedRMSD>
1.43229401

$$$$
