
 OpenBabel03252508593D

 48 50  0  0  1  0  0  0  0  0999 V2000
   48.0070   30.9010   43.6850 N   0  0  0  0  0  0  0  0  0  0  0  0
   47.4300   31.1810   42.4140 C   0  0  0  0  0  0  0  0  0  0  0  0
   45.9560   30.9340   42.2990 C   0  0  0  0  0  0  0  0  0  0  0  0
   45.1820   31.1650   43.5650 C   0  0  0  0  0  0  0  0  0  0  0  0
   46.0600   31.7050   44.6700 C   0  0  0  0  0  0  0  0  0  0  0  0
   47.2060   30.6350   44.7820 C   0  0  2  0  0  0  0  0  0  0  0  0
   47.9050   30.7100   41.5510 H   0  0  0  0  0  0  0  0  0  0  0  0
   47.5770   32.2900   42.2420 H   0  0  0  0  0  0  0  0  0  0  0  0
   45.5140   31.5820   41.5180 H   0  0  0  0  0  0  0  0  0  0  0  0
   45.8190   29.8890   41.9060 H   0  0  0  0  0  0  0  0  0  0  0  0
   44.8310   30.1700   43.9180 H   0  0  0  0  0  0  0  0  0  0  0  0
   44.2820   31.7790   43.4060 H   0  0  0  0  0  0  0  0  0  0  0  0
   45.4760   31.6730   45.6110 H   0  0  0  0  0  0  0  0  0  0  0  0
   46.5070   32.6850   44.4490 H   0  0  0  0  0  0  0  0  0  0  0  0
   46.6710   29.6660   44.8350 H   0  0  0  0  0  0  0  0  0  0  0  0
   49.3140   30.3040   43.6180 C   0  0  0  0  0  0  0  0  0  0  0  0
   49.8110   30.7190   42.7030 H   0  0  0  0  0  0  0  0  0  0  0  0
   49.9720   30.5370   44.4560 H   0  0  0  0  0  0  0  0  0  0  0  0
   49.1600   28.8150   43.5190 C   0  0  0  0  0  0  0  0  0  0  0  0
   49.4620   28.4580   42.5130 H   0  0  0  0  0  0  0  0  0  0  0  0
   48.1260   28.4580   43.7010 H   0  0  0  0  0  0  0  0  0  0  0  0
   50.6930   26.2620   45.8110 C   0  0  0  0  0  0  0  0  0  0  0  0
   49.8240   26.8920   44.8980 C   0  0  0  0  0  0  0  0  0  0  0  0
   50.0880   28.1680   44.4810 C   0  0  0  0  0  0  0  0  0  0  0  0
   51.1810   28.7650   44.9700 N   0  0  0  0  0  0  0  0  0  0  0  0
   52.0150   28.1660   45.8420 C   0  0  0  0  0  0  0  0  0  0  0  0
   51.7770   26.9150   46.2660 N   0  0  0  0  0  0  0  0  0  0  0  0
   50.4860   25.2500   46.1430 H   0  0  0  0  0  0  0  0  0  0  0  0
   48.9770   26.2980   44.5820 H   0  0  0  0  0  0  0  0  0  0  0  0
   52.8770   28.7310   46.1830 H   0  0  0  0  0  0  0  0  0  0  0  0
   47.8230   31.0030   45.9680 O   0  0  0  0  0  0  0  0  0  0  0  0
   47.1070   30.2930   48.4240 O   0  0  0  0  0  0  0  0  0  0  0  0
   47.7800   29.8000   47.1340 P   0  0  2  0  0  0  0  0  0  0  0  0
   49.4070   29.5090   47.5850 O   0  0  0  0  0  0  0  0  0  0  0  0
   49.3480   28.7700   48.2620 H   0  0  0  0  0  0  0  0  0  0  0  0
   47.1450   28.3670   46.6090 O   0  0  0  0  0  0  0  0  0  0  0  0
   45.4220   27.0180   47.2320 C   0  0  0  0  0  0  0  0  0  0  0  0
   46.8010   27.2390   47.3190 C   0  0  0  0  0  0  0  0  0  0  0  0
   47.5570   26.3510   48.0550 C   0  0  0  0  0  0  0  0  0  0  0  0
   48.6040   26.6220   48.0500 H   0  0  0  0  0  0  0  0  0  0  0  0
   46.9630   25.2770   48.6840 C   0  0  0  0  0  0  0  0  0  0  0  0
   47.6300   24.6280   49.2420 H   0  0  0  0  0  0  0  0  0  0  0  0
   45.6050   25.0470   48.6070 C   0  0  0  0  0  3  0  0  0  0  0  0
   44.8310   25.9240   47.8750 C   0  0  0  0  0  3  0  0  0  0  0  0
   42.9950   27.5690   46.5330 H   0  0  0  0  0  0  0  0  0  0  0  0
   44.2740   28.0250   46.3470 S   0  0  0  0  0  0  0  0  0  0  0  0
   44.3140   29.4410   46.8580 O   0  0  0  0  0  0  0  0  0  0  0  0
   44.6680   27.9930   44.8820 O   0  0  0  0  0  0  0  0  0  0  0  0
  1  6  1  0  0  0  0
  2  1  1  0  0  0  0
  3  2  1  0  0  0  0
  3  4  1  0  0  0  0
  4 11  1  0  0  0  0
  4  5  1  0  0  0  0
  5  6  1  0  0  0  0
  5 13  1  0  0  0  0
  6 15  1  1  0  0  0
  6 31  1  0  0  0  0
  7  2  1  0  0  0  0
  8  2  1  0  0  0  0
  9  3  1  0  0  0  0
 10  3  1  0  0  0  0
 12  4  1  0  0  0  0
 14  5  1  0  0  0  0
 16  1  1  0  0  0  0
 16 18  1  0  0  0  0
 17 16  1  0  0  0  0
 19 16  1  0  0  0  0
 19 21  1  0  0  0  0
 19 24  1  0  0  0  0
 20 19  1  0  0  0  0
 22 28  1  0  0  0  0
 22 27  1  0  0  0  0
 23 22  2  0  0  0  0
 24 23  1  0  0  0  0
 24 25  2  0  0  0  0
 25 26  1  0  0  0  0
 26 30  1  0  0  0  0
 26 27  2  0  0  0  0
 29 23  1  0  0  0  0
 31 33  1  0  0  0  0
 33 34  1  0  0  0  0
 33 32  2  1  0  0  0
 34 35  1  0  0  0  0
 36 33  1  0  0  0  0
 36 38  1  0  0  0  0
 37 38  2  0  0  0  0
 37 44  1  0  0  0  0
 38 39  1  0  0  0  0
 39 41  2  0  0  0  0
 40 39  1  0  0  0  0
 41 42  1  0  0  0  0
 43 41  1  0  0  0  0
 44 43  2  0  0  0  0
 46 45  1  0  0  0  0
 46 47  2  0  0  0  0
 46 37  1  0  0  0  0
 48 46  2  0  0  0  0
M  END
>  <minimizedAffinity>
-2.49615598

>  <minimizedRMSD>
6.1613183

$$$$
