
 OpenBabel03252503523D

 24 25  0  0  0  0  0  0  0  0999 V2000
   36.8290   28.4710   41.9010 C   0  0  0  0  0  0  0  0  0  0  0  0
   36.1410   28.2140   40.7110 C   0  0  0  0  0  0  0  0  0  0  0  0
   35.9310   29.2450   39.8010 C   0  0  0  0  0  0  0  0  0  0  0  0
   36.4170   30.4610   40.1340 N   0  0  0  0  0  0  0  0  0  0  0  0
   37.0850   30.7090   41.2890 C   0  0  0  0  0  0  0  0  0  0  0  0
   37.2890   29.7130   42.1710 N   0  0  0  0  0  0  0  0  0  0  0  0
   35.7860   27.2250   40.5200 H   0  0  0  0  0  0  0  0  0  0  0  0
   37.4680   31.6870   41.5400 H   0  0  0  0  0  0  0  0  0  0  0  0
   35.9660   28.8490   37.3850 C   0  0  0  0  0  0  0  0  0  0  0  0
   35.2220   29.0450   38.5450 C   0  0  0  0  0  0  0  0  0  0  0  0
   33.8440   29.0430   38.4720 C   0  0  0  0  0  0  0  0  0  0  0  0
   33.2210   29.1880   39.3250 H   0  0  0  0  0  0  0  0  0  0  0  0
   33.1510   28.8530   37.2840 C   0  0  0  0  0  0  0  0  0  0  0  0
   32.0580   28.8550   37.2410 H   0  0  0  0  0  0  0  0  0  0  0  0
   33.8500   28.6570   36.1150 C   0  0  0  0  0  3  0  0  0  0  0  0
   35.2220   28.6630   36.2170 C   0  0  0  0  0  3  0  0  0  0  0  0
   38.2670   28.3250   38.4930 H   0  0  0  0  0  0  0  0  0  0  0  0
   37.7110   28.8310   37.3530 S   0  0  0  0  0  0  0  0  0  0  0  0
   38.1660   30.2840   37.3000 O   0  0  0  0  0  0  0  0  0  0  0  0
   38.2550   28.1890   36.1000 O   0  0  0  0  0  0  0  0  0  0  0  0
   37.0240   27.3300   42.8370 C   0  0  0  0  0  0  0  0  0  0  0  0
   38.1950   27.4370   43.5460 F   0  0  0  0  0  0  0  0  0  0  0  0
   35.9090   27.2710   43.6790 F   0  0  0  0  0  0  0  0  0  0  0  0
   36.9980   26.1370   42.1260 F   0  0  0  0  0  0  0  0  0  0  0  0
  1  6  1  0  0  0  0
  1 21  1  0  0  0  0
  2  1  2  0  0  0  0
  3  4  2  0  0  0  0
  3  2  1  0  0  0  0
  4  5  1  0  0  0  0
  5  8  1  0  0  0  0
  5  6  2  0  0  0  0
  7  2  1  0  0  0  0
  9 10  1  0  0  0  0
 10  3  1  0  0  0  0
 11 10  2  0  0  0  0
 11 12  1  0  0  0  0
 13 11  1  0  0  0  0
 14 13  1  0  0  0  0
 15 16  1  0  0  0  0
 15 13  2  0  0  0  0
 16  9  2  0  0  0  0
 18  9  1  0  0  0  0
 18 17  1  0  0  0  0
 19 18  2  0  0  0  0
 20 18  2  0  0  0  0
 21 22  1  0  0  0  0
 21 23  1  0  0  0  0
 24 21  1  0  0  0  0
M  END
>  <minimizedAffinity>
-5.07348776

$$$$

 OpenBabel03252503523D

 24 25  0  0  0  0  0  0  0  0999 V2000
   37.7480   27.7800   41.5050 C   0  0  0  0  0  0  0  0  0  0  0  0
   37.7110   29.1770   41.4670 C   0  0  0  0  0  0  0  0  0  0  0  0
   38.2000   29.8490   40.3520 C   0  0  0  0  0  0  0  0  0  0  0  0
   38.6920   29.0890   39.3490 N   0  0  0  0  0  0  0  0  0  0  0  0
   38.7270   27.7330   39.3860 C   0  0  0  0  0  0  0  0  0  0  0  0
   38.2550   27.0810   40.4640 N   0  0  0  0  0  0  0  0  0  0  0  0
   37.3060   29.7080   42.3010 H   0  0  0  0  0  0  0  0  0  0  0  0
   39.1230   27.1400   38.5750 H   0  0  0  0  0  0  0  0  0  0  0  0
   39.2660   32.0120   40.7780 C   0  0  0  0  0  0  0  0  0  0  0  0
   38.1920   31.3020   40.2500 C   0  0  0  0  0  0  0  0  0  0  0  0
   37.1570   31.9890   39.6480 C   0  0  0  0  0  0  0  0  0  0  0  0
   36.3090   31.5020   39.2250 H   0  0  0  0  0  0  0  0  0  0  0  0
   37.1320   33.3730   39.5410 C   0  0  0  0  0  0  0  0  0  0  0  0
   36.3070   33.9050   39.0610 H   0  0  0  0  0  0  0  0  0  0  0  0
   38.1750   34.1120   40.0510 C   0  0  0  0  0  3  0  0  0  0  0  0
   39.1930   33.4010   40.6450 C   0  0  0  0  0  3  0  0  0  0  0  0
   40.8800   29.9920   41.1060 H   0  0  0  0  0  0  0  0  0  0  0  0
   40.6280   31.2540   41.5620 S   0  0  0  0  0  0  0  0  0  0  0  0
   40.2530   31.0780   43.0280 O   0  0  0  0  0  0  0  0  0  0  0  0
   41.8540   32.1340   41.5600 O   0  0  0  0  0  0  0  0  0  0  0  0
   37.2120   27.1140   42.7230 C   0  0  0  0  0  0  0  0  0  0  0  0
   36.1250   27.7750   43.2380 F   0  0  0  0  0  0  0  0  0  0  0  0
   36.9080   25.7900   42.3910 F   0  0  0  0  0  0  0  0  0  0  0  0
   38.2160   27.0210   43.6800 F   0  0  0  0  0  0  0  0  0  0  0  0
  1 21  1  0  0  0  0
  2  1  1  0  0  0  0
  2  7  1  0  0  0  0
  3  2  2  0  0  0  0
  4  5  2  0  0  0  0
  4  3  1  0  0  0  0
  5  6  1  0  0  0  0
  6  1  2  0  0  0  0
  8  5  1  0  0  0  0
  9 18  1  0  0  0  0
 10  3  1  0  0  0  0
 10  9  2  0  0  0  0
 11 10  1  0  0  0  0
 12 11  1  0  0  0  0
 13 11  2  0  0  0  0
 13 15  1  0  0  0  0
 14 13  1  0  0  0  0
 15 16  2  0  0  0  0
 16  9  1  0  0  0  0
 17 18  1  0  0  0  0
 18 19  2  0  0  0  0
 20 18  2  0  0  0  0
 21 22  1  0  0  0  0
 21 24  1  0  0  0  0
 23 21  1  0  0  0  0
M  END
>  <minimizedAffinity>
-4.90845871

$$$$

 OpenBabel03252503523D

 24 25  0  0  0  0  0  0  0  0999 V2000
   37.5260   30.3420   39.1550 C   0  0  0  0  0  0  0  0  0  0  0  0
   38.4320   29.5710   39.8900 C   0  0  0  0  0  0  0  0  0  0  0  0
   38.2620   29.4320   41.2640 C   0  0  0  0  0  0  0  0  0  0  0  0
   37.2040   30.0660   41.8150 N   0  0  0  0  0  0  0  0  0  0  0  0
   36.3240   30.8130   41.1000 C   0  0  0  0  0  0  0  0  0  0  0  0
   36.4870   30.9490   39.7720 N   0  0  0  0  0  0  0  0  0  0  0  0
   39.2450   29.1010   39.3820 H   0  0  0  0  0  0  0  0  0  0  0  0
   35.4830   31.3130   41.5560 H   0  0  0  0  0  0  0  0  0  0  0  0
   38.7110   27.4460   42.6240 C   0  0  0  0  0  0  0  0  0  0  0  0
   39.1700   28.6450   42.0870 C   0  0  0  0  0  0  0  0  0  0  0  0
   40.4630   29.0510   42.3470 C   0  0  0  0  0  0  0  0  0  0  0  0
   40.8710   29.9580   41.9640 H   0  0  0  0  0  0  0  0  0  0  0  0
   41.3430   28.3140   43.1280 C   0  0  0  0  0  0  0  0  0  0  0  0
   42.3650   28.6480   43.3260 H   0  0  0  0  0  0  0  0  0  0  0  0
   40.9270   27.1230   43.6780 C   0  0  0  0  0  3  0  0  0  0  0  0
   39.6340   26.7420   43.4030 C   0  0  0  0  0  3  0  0  0  0  0  0
   36.4850   27.3680   41.2710 H   0  0  0  0  0  0  0  0  0  0  0  0
   37.0990   26.8300   42.3650 S   0  0  0  0  0  0  0  0  0  0  0  0
   36.2580   27.2810   43.5530 O   0  0  0  0  0  0  0  0  0  0  0  0
   37.0500   25.3220   42.3840 O   0  0  0  0  0  0  0  0  0  0  0  0
   37.7580   30.4570   37.6900 C   0  0  0  0  0  0  0  0  0  0  0  0
   38.8150   29.6880   37.2710 F   0  0  0  0  0  0  0  0  0  0  0  0
   36.5700   30.1080   37.0390 F   0  0  0  0  0  0  0  0  0  0  0  0
   37.9690   31.7890   37.3570 F   0  0  0  0  0  0  0  0  0  0  0  0
  1  6  2  0  0  0  0
  1  2  1  0  0  0  0
  2  3  2  0  0  0  0
  3  4  1  0  0  0  0
  3 10  1  0  0  0  0
  5  8  1  0  0  0  0
  5  4  2  0  0  0  0
  6  5  1  0  0  0  0
  7  2  1  0  0  0  0
  9 16  1  0  0  0  0
 10 11  1  0  0  0  0
 10  9  2  0  0  0  0
 11 13  2  0  0  0  0
 12 11  1  0  0  0  0
 13 14  1  0  0  0  0
 13 15  1  0  0  0  0
 16 15  2  0  0  0  0
 17 18  1  0  0  0  0
 18 20  2  0  0  0  0
 18  9  1  0  0  0  0
 18 19  2  0  0  0  0
 21  1  1  0  0  0  0
 22 21  1  0  0  0  0
 23 21  1  0  0  0  0
 24 21  1  0  0  0  0
M  END
>  <minimizedAffinity>
-4.88162041

$$$$

 OpenBabel03252503523D

 24 25  0  0  0  0  0  0  0  0999 V2000
   39.4030   32.0680   39.3670 C   0  0  0  0  0  0  0  0  0  0  0  0
   39.1380   30.9360   40.1450 C   0  0  0  0  0  0  0  0  0  0  0  0
   37.9250   30.8320   40.8180 C   0  0  0  0  0  0  0  0  0  0  0  0
   37.0580   31.8580   40.6750 N   0  0  0  0  0  0  0  0  0  0  0  0
   37.3160   32.9560   39.9190 C   0  0  0  0  0  0  0  0  0  0  0  0
   38.4890   33.0580   39.2670 N   0  0  0  0  0  0  0  0  0  0  0  0
   39.8750   30.1660   40.2090 H   0  0  0  0  0  0  0  0  0  0  0  0
   36.6120   33.7670   39.8150 H   0  0  0  0  0  0  0  0  0  0  0  0
   36.6470   28.7730   41.1670 C   0  0  0  0  0  0  0  0  0  0  0  0
   37.5870   29.6820   41.6450 C   0  0  0  0  0  0  0  0  0  0  0  0
   38.1680   29.4680   42.8780 C   0  0  0  0  0  0  0  0  0  0  0  0
   38.8930   30.1270   43.2960 H   0  0  0  0  0  0  0  0  0  0  0  0
   37.8590   28.3770   43.6790 C   0  0  0  0  0  0  0  0  0  0  0  0
   38.3270   28.2200   44.6540 H   0  0  0  0  0  0  0  0  0  0  0  0
   36.9340   27.4560   43.2440 C   0  0  0  0  0  3  0  0  0  0  0  0
   36.3710   27.6930   42.0110 C   0  0  0  0  0  3  0  0  0  0  0  0
   36.2680   30.0220   38.9110 H   0  0  0  0  0  0  0  0  0  0  0  0
   35.8460   28.9380   39.6260 S   0  0  0  0  0  0  0  0  0  0  0  0
   34.3750   29.2040   39.9180 O   0  0  0  0  0  0  0  0  0  0  0  0
   35.8750   27.6590   38.8240 O   0  0  0  0  0  0  0  0  0  0  0  0
   40.7170   32.1250   38.6700 C   0  0  0  0  0  0  0  0  0  0  0  0
   41.7320   31.6070   39.4360 F   0  0  0  0  0  0  0  0  0  0  0  0
   40.5860   31.4500   37.4520 F   0  0  0  0  0  0  0  0  0  0  0  0
   40.9990   33.4400   38.3220 F   0  0  0  0  0  0  0  0  0  0  0  0
  1  2  1  0  0  0  0
  2  7  1  0  0  0  0
  2  3  2  0  0  0  0
  3 10  1  0  0  0  0
  4  3  1  0  0  0  0
  5  4  2  0  0  0  0
  6  1  2  0  0  0  0
  6  5  1  0  0  0  0
  8  5  1  0  0  0  0
  9 10  2  0  0  0  0
  9 16  1  0  0  0  0
 10 11  1  0  0  0  0
 11 12  1  0  0  0  0
 11 13  2  0  0  0  0
 13 14  1  0  0  0  0
 15 13  1  0  0  0  0
 16 15  2  0  0  0  0
 17 18  1  0  0  0  0
 18 19  2  0  0  0  0
 18  9  1  0  0  0  0
 20 18  2  0  0  0  0
 21  1  1  0  0  0  0
 21 22  1  0  0  0  0
 23 21  1  0  0  0  0
 24 21  1  0  0  0  0
M  END
>  <minimizedAffinity>
-4.81883144

$$$$

 OpenBabel03252503523D

 24 25  0  0  0  0  0  0  0  0999 V2000
   34.9590   28.8170   37.8410 C   0  0  0  0  0  0  0  0  0  0  0  0
   35.2780   28.6770   39.1960 C   0  0  0  0  0  0  0  0  0  0  0  0
   36.6120   28.6690   39.5910 C   0  0  0  0  0  0  0  0  0  0  0  0
   37.5380   28.8010   38.6160 N   0  0  0  0  0  0  0  0  0  0  0  0
   37.2270   28.9380   37.3020 C   0  0  0  0  0  0  0  0  0  0  0  0
   35.9370   28.9450   36.9180 N   0  0  0  0  0  0  0  0  0  0  0  0
   34.4880   28.5770   39.9070 H   0  0  0  0  0  0  0  0  0  0  0  0
   37.9800   29.0430   36.5360 H   0  0  0  0  0  0  0  0  0  0  0  0
   37.7170   29.5650   41.5840 C   0  0  0  0  0  0  0  0  0  0  0  0
   37.0120   28.5260   40.9840 C   0  0  0  0  0  0  0  0  0  0  0  0
   36.7140   27.3980   41.7210 C   0  0  0  0  0  0  0  0  0  0  0  0
   36.1770   26.5700   41.3170 H   0  0  0  0  0  0  0  0  0  0  0  0
   37.0860   27.2430   43.0490 C   0  0  0  0  0  0  0  0  0  0  0  0
   36.8430   26.3440   43.6210 H   0  0  0  0  0  0  0  0  0  0  0  0
   37.7850   28.2480   43.6790 C   0  0  0  0  0  3  0  0  0  0  0  0
   38.0680   29.3610   42.9210 C   0  0  0  0  0  3  0  0  0  0  0  0
   38.7510   30.8210   39.5470 H   0  0  0  0  0  0  0  0  0  0  0  0
   38.1510   31.0380   40.7550 S   0  0  0  0  0  0  0  0  0  0  0  0
   39.2110   31.7270   41.6050 O   0  0  0  0  0  0  0  0  0  0  0  0
   37.0010   32.0110   40.6720 O   0  0  0  0  0  0  0  0  0  0  0  0
   33.5160   28.8180   37.4760 C   0  0  0  0  0  0  0  0  0  0  0  0
   32.7240   29.2860   38.4950 F   0  0  0  0  0  0  0  0  0  0  0  0
   33.3690   29.5780   36.3110 F   0  0  0  0  0  0  0  0  0  0  0  0
   33.1290   27.5330   37.1160 F   0  0  0  0  0  0  0  0  0  0  0  0
  1  2  1  0  0  0  0
  2  3  2  0  0  0  0
  2  7  1  0  0  0  0
  3 10  1  0  0  0  0
  4  3  1  0  0  0  0
  5  4  2  0  0  0  0
  6  5  1  0  0  0  0
  6  1  2  0  0  0  0
  8  5  1  0  0  0  0
  9 16  1  0  0  0  0
 10  9  2  0  0  0  0
 10 11  1  0  0  0  0
 11 13  2  0  0  0  0
 12 11  1  0  0  0  0
 13 14  1  0  0  0  0
 13 15  1  0  0  0  0
 16 15  2  0  0  0  0
 17 18  1  0  0  0  0
 18  9  1  0  0  0  0
 18 19  2  0  0  0  0
 20 18  2  0  0  0  0
 21  1  1  0  0  0  0
 21 22  1  0  0  0  0
 23 21  1  0  0  0  0
 24 21  1  0  0  0  0
M  END
>  <minimizedAffinity>
-4.81289005

$$$$

 OpenBabel03252503523D

 24 25  0  0  0  0  0  0  0  0999 V2000
   36.7070   28.6430   41.7660 C   0  0  0  0  0  0  0  0  0  0  0  0
   37.6700   29.6180   41.4870 C   0  0  0  0  0  0  0  0  0  0  0  0
   37.4390   30.5450   40.4770 C   0  0  0  0  0  0  0  0  0  0  0  0
   36.2670   30.4430   39.8110 N   0  0  0  0  0  0  0  0  0  0  0  0
   35.3330   29.4970   40.0820 C   0  0  0  0  0  0  0  0  0  0  0  0
   35.5550   28.5980   41.0590 N   0  0  0  0  0  0  0  0  0  0  0  0
   38.5720   29.6330   42.0580 H   0  0  0  0  0  0  0  0  0  0  0  0
   34.4010   29.4290   39.5410 H   0  0  0  0  0  0  0  0  0  0  0  0
   39.3970   31.2910   39.2100 C   0  0  0  0  0  0  0  0  0  0  0  0
   38.4000   31.5850   40.1360 C   0  0  0  0  0  0  0  0  0  0  0  0
   38.3510   32.8430   40.7010 C   0  0  0  0  0  0  0  0  0  0  0  0
   37.6120   33.1270   41.4140 H   0  0  0  0  0  0  0  0  0  0  0  0
   39.2580   33.8470   40.3880 C   0  0  0  0  0  0  0  0  0  0  0  0
   39.2080   34.8390   40.8430 H   0  0  0  0  0  0  0  0  0  0  0  0
   40.2600   33.5960   39.4770 C   0  0  0  0  0  3  0  0  0  0  0  0
   40.2840   32.3340   38.9300 C   0  0  0  0  0  3  0  0  0  0  0  0
   39.6060   28.6950   39.3120 H   0  0  0  0  0  0  0  0  0  0  0  0
   39.5600   29.7380   38.4320 S   0  0  0  0  0  0  0  0  0  0  0  0
   40.9160   29.7320   37.7380 O   0  0  0  0  0  0  0  0  0  0  0  0
   38.5430   29.5360   37.3360 O   0  0  0  0  0  0  0  0  0  0  0  0
   37.0080   27.6760   42.8560 C   0  0  0  0  0  0  0  0  0  0  0  0
   38.0250   28.1130   43.6690 F   0  0  0  0  0  0  0  0  0  0  0  0
   35.8270   27.4560   43.5720 F   0  0  0  0  0  0  0  0  0  0  0  0
   37.3280   26.4420   42.3060 F   0  0  0  0  0  0  0  0  0  0  0  0
  1 21  1  0  0  0  0
  2  1  1  0  0  0  0
  2  7  1  0  0  0  0
  3  2  2  0  0  0  0
  4  5  2  0  0  0  0
  4  3  1  0  0  0  0
  5  6  1  0  0  0  0
  6  1  2  0  0  0  0
  8  5  1  0  0  0  0
  9 10  1  0  0  0  0
 10  3  1  0  0  0  0
 10 11  2  0  0  0  0
 11 12  1  0  0  0  0
 13 11  1  0  0  0  0
 13 14  1  0  0  0  0
 15 13  2  0  0  0  0
 16  9  2  0  0  0  0
 16 15  1  0  0  0  0
 18  9  1  0  0  0  0
 18 17  1  0  0  0  0
 19 18  2  0  0  0  0
 20 18  2  0  0  0  0
 21 23  1  0  0  0  0
 21 22  1  0  0  0  0
 24 21  1  0  0  0  0
M  END
>  <minimizedAffinity>
-4.80751085

$$$$

 OpenBabel03252503523D

 24 25  0  0  0  0  0  0  0  0999 V2000
   37.7570   30.3340   39.9540 C   0  0  0  0  0  0  0  0  0  0  0  0
   37.2630   29.0820   40.3360 C   0  0  0  0  0  0  0  0  0  0  0  0
   37.9790   27.9330   40.0160 C   0  0  0  0  0  0  0  0  0  0  0  0
   39.1350   28.1030   39.3380 N   0  0  0  0  0  0  0  0  0  0  0  0
   39.6130   29.3190   38.9680 C   0  0  0  0  0  0  0  0  0  0  0  0
   38.9230   30.4320   39.2770 N   0  0  0  0  0  0  0  0  0  0  0  0
   36.3410   29.0300   40.8710 H   0  0  0  0  0  0  0  0  0  0  0  0
   40.5400   29.4370   38.4260 H   0  0  0  0  0  0  0  0  0  0  0  0
   37.8940   26.0870   41.6220 C   0  0  0  0  0  0  0  0  0  0  0  0
   37.5200   26.6010   40.3830 C   0  0  0  0  0  0  0  0  0  0  0  0
   36.7320   25.8390   39.5450 C   0  0  0  0  0  0  0  0  0  0  0  0
   36.4150   26.1770   38.5860 H   0  0  0  0  0  0  0  0  0  0  0  0
   36.2850   24.5670   39.8780 C   0  0  0  0  0  0  0  0  0  0  0  0
   35.6610   23.9740   39.2050 H   0  0  0  0  0  0  0  0  0  0  0  0
   36.6330   24.0230   41.0940 C   0  0  0  0  0  3  0  0  0  0  0  0
   37.4190   24.8040   41.9090 C   0  0  0  0  0  3  0  0  0  0  0  0
   39.9290   27.6160   42.1810 H   0  0  0  0  0  0  0  0  0  0  0  0
   38.8860   26.9550   42.7640 S   0  0  0  0  0  0  0  0  0  0  0  0
   39.5340   25.9140   43.6680 O   0  0  0  0  0  0  0  0  0  0  0  0
   38.0720   27.8360   43.6800 O   0  0  0  0  0  0  0  0  0  0  0  0
   36.9500   31.5280   40.3230 C   0  0  0  0  0  0  0  0  0  0  0  0
   35.8450   31.1970   41.0670 F   0  0  0  0  0  0  0  0  0  0  0  0
   37.7870   32.4190   41.0020 F   0  0  0  0  0  0  0  0  0  0  0  0
   36.5690   32.2040   39.1700 F   0  0  0  0  0  0  0  0  0  0  0  0
  1 21  1  0  0  0  0
  1  2  1  0  0  0  0
  2  7  1  0  0  0  0
  3  2  2  0  0  0  0
  3 10  1  0  0  0  0
  4  3  1  0  0  0  0
  5  6  1  0  0  0  0
  5  4  2  0  0  0  0
  6  1  2  0  0  0  0
  8  5  1  0  0  0  0
  9 16  1  0  0  0  0
  9 18  1  0  0  0  0
 10  9  2  0  0  0  0
 11 13  2  0  0  0  0
 11 10  1  0  0  0  0
 12 11  1  0  0  0  0
 13 15  1  0  0  0  0
 14 13  1  0  0  0  0
 15 16  2  0  0  0  0
 17 18  1  0  0  0  0
 18 19  2  0  0  0  0
 18 20  2  0  0  0  0
 21 23  1  0  0  0  0
 21 22  1  0  0  0  0
 24 21  1  0  0  0  0
M  END
>  <minimizedAffinity>
-4.7343955

$$$$

 OpenBabel03252503523D

 24 25  0  0  0  0  0  0  0  0999 V2000
   36.8240   28.9640   41.5710 C   0  0  0  0  0  0  0  0  0  0  0  0
   36.9440   27.6890   41.0080 C   0  0  0  0  0  0  0  0  0  0  0  0
   37.3890   26.6300   41.7910 C   0  0  0  0  0  0  0  0  0  0  0  0
   37.6840   26.9060   43.0810 N   0  0  0  0  0  0  0  0  0  0  0  0
   37.5660   28.1430   43.6260 C   0  0  0  0  0  0  0  0  0  0  0  0
   37.1370   29.1700   42.8700 N   0  0  0  0  0  0  0  0  0  0  0  0
   36.6920   27.5510   39.9800 H   0  0  0  0  0  0  0  0  0  0  0  0
   37.8060   28.3470   44.6590 H   0  0  0  0  0  0  0  0  0  0  0  0
   38.8120   24.7230   41.2120 C   0  0  0  0  0  0  0  0  0  0  0  0
   37.5370   25.2790   41.2670 C   0  0  0  0  0  0  0  0  0  0  0  0
   36.4570   24.5400   40.8270 C   0  0  0  0  0  0  0  0  0  0  0  0
   35.4590   24.9110   40.8450 H   0  0  0  0  0  0  0  0  0  0  0  0
   36.5790   23.2520   40.3250 C   0  0  0  0  0  0  0  0  0  0  0  0
   35.7150   22.6780   39.9800 H   0  0  0  0  0  0  0  0  0  0  0  0
   37.8220   22.6660   40.2530 C   0  0  0  0  0  3  0  0  0  0  0  0
   38.8800   23.4250   40.6980 C   0  0  0  0  0  3  0  0  0  0  0  0
   40.0180   26.8540   42.1050 H   0  0  0  0  0  0  0  0  0  0  0  0
   40.2500   25.5590   41.7370 S   0  0  0  0  0  0  0  0  0  0  0  0
   41.1750   25.6490   40.5300 O   0  0  0  0  0  0  0  0  0  0  0  0
   41.0170   24.7820   42.7790 O   0  0  0  0  0  0  0  0  0  0  0  0
   36.3450   30.0590   40.6850 C   0  0  0  0  0  0  0  0  0  0  0  0
   37.2000   30.2890   39.6370 F   0  0  0  0  0  0  0  0  0  0  0  0
   35.0600   29.7250   40.2460 F   0  0  0  0  0  0  0  0  0  0  0  0
   36.1760   31.2190   41.4330 F   0  0  0  0  0  0  0  0  0  0  0  0
  1  6  1  0  0  0  0
  2  1  2  0  0  0  0
  2  3  1  0  0  0  0
  3  4  2  0  0  0  0
  4  5  1  0  0  0  0
  5  8  1  0  0  0  0
  6  5  2  0  0  0  0
  7  2  1  0  0  0  0
  9 10  1  0  0  0  0
  9 18  1  0  0  0  0
 10  3  1  0  0  0  0
 11 12  1  0  0  0  0
 11 10  2  0  0  0  0
 13 11  1  0  0  0  0
 14 13  1  0  0  0  0
 15 13  2  0  0  0  0
 15 16  1  0  0  0  0
 16  9  2  0  0  0  0
 18 17  1  0  0  0  0
 18 20  2  0  0  0  0
 19 18  2  0  0  0  0
 21 24  1  0  0  0  0
 21  1  1  0  0  0  0
 22 21  1  0  0  0  0
 23 21  1  0  0  0  0
M  END
>  <minimizedAffinity>
-4.72188044

$$$$

 OpenBabel03252503523D

 24 25  0  0  0  0  0  0  0  0999 V2000
   36.9820   28.4360   41.6800 C   0  0  0  0  0  0  0  0  0  0  0  0
   38.0760   29.0300   41.0410 C   0  0  0  0  0  0  0  0  0  0  0  0
   37.8730   29.7900   39.8940 C   0  0  0  0  0  0  0  0  0  0  0  0
   36.6000   29.9100   39.4580 N   0  0  0  0  0  0  0  0  0  0  0  0
   35.5390   29.3340   40.0790 C   0  0  0  0  0  0  0  0  0  0  0  0
   35.7330   28.5980   41.1890 N   0  0  0  0  0  0  0  0  0  0  0  0
   39.0530   28.8880   41.4460 H   0  0  0  0  0  0  0  0  0  0  0  0
   34.5270   29.4400   39.7180 H   0  0  0  0  0  0  0  0  0  0  0  0
   39.1630   31.8010   39.3550 C   0  0  0  0  0  0  0  0  0  0  0  0
   38.9680   30.4340   39.1800 C   0  0  0  0  0  0  0  0  0  0  0  0
   39.8110   29.7320   38.3430 C   0  0  0  0  0  0  0  0  0  0  0  0
   39.7120   28.6850   38.1700 H   0  0  0  0  0  0  0  0  0  0  0  0
   40.8600   30.3270   37.6560 C   0  0  0  0  0  0  0  0  0  0  0  0
   41.5200   29.7600   36.9950 H   0  0  0  0  0  0  0  0  0  0  0  0
   41.0860   31.6780   37.8010 C   0  0  0  0  0  3  0  0  0  0  0  0
   40.2310   32.3520   38.6410 C   0  0  0  0  0  3  0  0  0  0  0  0
   37.5000   32.0780   41.3430 H   0  0  0  0  0  0  0  0  0  0  0  0
   38.1620   32.7910   40.3850 S   0  0  0  0  0  0  0  0  0  0  0  0
   37.0690   33.3820   39.5040 O   0  0  0  0  0  0  0  0  0  0  0  0
   38.9130   33.9740   40.9480 O   0  0  0  0  0  0  0  0  0  0  0  0
   37.2580   27.6340   42.9020 C   0  0  0  0  0  0  0  0  0  0  0  0
   38.2840   28.1610   43.6470 F   0  0  0  0  0  0  0  0  0  0  0  0
   36.0710   27.5480   43.6360 F   0  0  0  0  0  0  0  0  0  0  0  0
   37.5500   26.3240   42.5400 F   0  0  0  0  0  0  0  0  0  0  0  0
  1 21  1  0  0  0  0
  2  7  1  0  0  0  0
  2  1  2  0  0  0  0
  3  2  1  0  0  0  0
  4  3  2  0  0  0  0
  4  5  1  0  0  0  0
  5  6  2  0  0  0  0
  6  1  1  0  0  0  0
  8  5  1  0  0  0  0
  9 18  1  0  0  0  0
 10  9  1  0  0  0  0
 10  3  1  0  0  0  0
 11 10  2  0  0  0  0
 12 11  1  0  0  0  0
 13 15  2  0  0  0  0
 13 11  1  0  0  0  0
 14 13  1  0  0  0  0
 15 16  1  0  0  0  0
 16  9  2  0  0  0  0
 18 20  2  0  0  0  0
 18 17  1  0  0  0  0
 19 18  2  0  0  0  0
 21 23  1  0  0  0  0
 21 22  1  0  0  0  0
 24 21  1  0  0  0  0
M  END
>  <minimizedAffinity>
-4.71830034

$$$$
