
 OpenBabel03242519493D

 53 56  0  0  1  0  0  0  0  0999 V2000
   43.9420   28.0750   45.3020 C   0  0  0  0  0  0  0  0  0  0  0  0
   44.6410   27.8570   44.5080 H   0  0  0  0  0  0  0  0  0  0  0  0
   43.6870   27.1200   45.8180 H   0  0  0  0  0  0  0  0  0  0  0  0
   42.7850   29.3780   43.6010 C   0  0  0  0  0  0  0  0  0  0  0  0
   42.6940   28.6570   44.7970 C   0  0  0  0  0  0  0  0  0  0  0  0
   41.4240   28.6260   45.3310 C   0  0  0  0  0  0  0  0  0  0  0  0
   40.3250   29.2140   44.8050 C   0  0  0  0  0  0  0  0  0  0  0  0
   40.4500   29.9280   43.6110 C   0  0  0  0  0  0  0  0  0  0  0  0
   41.7240   30.0180   42.9790 C   0  0  0  0  0  0  0  0  0  0  0  0
   41.3780   28.0690   46.2450 H   0  0  0  0  0  0  0  0  0  0  0  0
   39.3790   29.1180   45.3200 H   0  0  0  0  0  0  0  0  0  0  0  0
   39.5490   30.3610   43.2560 H   0  0  0  0  0  0  0  0  0  0  0  0
   43.9240   29.5700   42.8490 O   0  0  0  0  0  0  0  0  0  0  0  0
   44.8020   29.7860   43.2890 H   0  0  0  0  0  0  0  0  0  0  0  0
   41.7000   30.7090   41.8780 O   0  0  0  0  0  0  0  0  0  0  0  0
   40.9000   32.3050   40.2130 C   0  0  0  0  0  0  0  0  0  0  0  0
   41.6790   31.3710   40.8220 C   0  0  0  0  0  0  0  0  0  0  0  0
   42.8300   30.9830   40.1000 C   0  0  0  0  0  0  0  0  0  0  0  0
   43.6410   30.2580   40.3290 H   0  0  0  0  0  0  0  0  0  0  0  0
   43.2090   31.4830   38.8370 C   0  0  0  0  0  0  0  0  0  0  0  0
   44.0520   31.2640   38.2010 H   0  0  0  0  0  0  0  0  0  0  0  0
   42.3640   32.4280   38.2880 C   0  0  0  0  0  3  0  0  0  0  0  0
   41.2450   32.8040   38.9910 C   0  0  0  0  0  3  0  0  0  0  0  0
   38.8700   33.7590   40.2330 H   0  0  0  0  0  0  0  0  0  0  0  0
   39.4730   32.8100   41.0710 S   0  0  0  0  0  0  0  0  0  0  0  0
   38.4950   31.7150   41.2820 O   0  0  0  0  0  0  0  0  0  0  0  0
   39.8010   33.6020   42.3110 O   0  0  0  0  0  0  0  0  0  0  0  0
   44.5400   28.9950   46.3730 C   0  0  0  0  0  0  0  0  0  0  0  0
   44.8710   28.6390   47.2990 H   0  0  0  0  0  0  0  0  0  0  0  0
   43.4740   29.4750   46.8160 H   0  0  0  0  0  0  0  0  0  0  0  0
   45.0340   30.1310   45.8710 O   0  0  0  0  0  0  0  0  0  0  0  0
   46.5360   31.9780   45.9240 C   0  0  2  0  0  0  0  0  0  0  0  0
   46.9810   32.2520   44.5580 C   0  0  1  0  0  0  0  0  0  0  0  0
   46.3820   31.1340   43.7820 O   0  0  0  0  0  0  0  0  0  0  0  0
   46.9310   30.1000   44.5320 C   0  0  0  0  0  0  0  0  0  0  0  0
   46.3120   30.5040   45.9880 C   0  0  2  0  0  0  0  0  0  0  0  0
   47.2090   32.3330   46.7220 H   0  0  0  0  0  0  0  0  0  0  0  0
   48.0670   32.0510   44.4090 H   0  0  0  0  0  0  0  0  0  0  0  0
   46.5040   29.1370   44.2670 H   0  0  0  0  0  0  0  0  0  0  0  0
   48.0130   30.1690   44.6200 H   0  0  0  0  0  0  0  0  0  0  0  0
   47.0030   29.8700   46.5720 H   0  0  0  0  0  0  0  0  0  0  0  0
   44.8720   35.1680   43.9600 C   0  0  0  0  0  0  0  0  0  0  0  0
   45.5620   35.8870   42.9890 C   0  0  0  0  0  0  0  0  0  0  0  0
   46.7730   35.3670   42.5110 C   0  0  0  0  0  0  0  0  0  0  0  0
   47.2240   34.1940   43.0070 N   0  0  0  0  0  0  0  0  0  0  0  0
   46.5430   33.5080   43.9500 C   0  0  0  0  0  0  0  0  0  0  0  0
   45.3610   33.9880   44.4360 N   0  0  0  0  0  0  0  0  0  0  0  0
   45.1750   36.8300   42.6080 H   0  0  0  0  0  0  0  0  0  0  0  0
   47.3500   35.8780   41.7600 H   0  0  0  0  0  0  0  0  0  0  0  0
   43.6550   35.6340   44.4770 O   0  0  0  0  0  0  0  0  0  0  0  0
   43.7640   36.1750   45.3430 H   0  0  0  0  0  0  0  0  0  0  0  0
   45.2390   32.6100   46.1200 O   0  0  0  0  0  0  0  0  0  0  0  0
   44.6060   31.9390   46.4790 H   0  0  0  0  0  0  0  0  0  0  0  0
  1  3  1  0  0  0  0
  1 28  1  0  0  0  0
  2  1  1  0  0  0  0
  4  5  1  0  0  0  0
  5  1  1  0  0  0  0
  5  6  2  0  0  0  0
  6 10  1  0  0  0  0
  7 11  1  0  0  0  0
  7  6  1  0  0  0  0
  8  7  2  0  0  0  0
  9  4  2  0  0  0  0
  9  8  1  0  0  0  0
 12  8  1  0  0  0  0
 13 14  1  0  0  0  0
 13  4  1  0  0  0  0
 15  9  1  0  0  0  0
 16 17  1  0  0  0  0
 16 25  1  0  0  0  0
 17 15  1  0  0  0  0
 18 19  1  0  0  0  0
 18 17  2  0  0  0  0
 20 18  1  0  0  0  0
 21 20  1  0  0  0  0
 22 20  2  0  0  0  0
 22 23  1  0  0  0  0
 23 16  2  0  0  0  0
 24 25  1  0  0  0  0
 25 26  2  0  0  0  0
 25 27  2  0  0  0  0
 28 30  1  0  0  0  0
 28 29  1  0  0  0  0
 31 36  1  0  0  0  0
 31 28  1  0  0  0  0
 32 36  1  0  0  0  0
 32 52  1  0  0  0  0
 32 37  1  1  0  0  0
 33 38  1  6  0  0  0
 33 32  1  0  0  0  0
 34 35  1  0  0  0  0
 34 33  1  0  0  0  0
 35 40  1  0  0  0  0
 35 36  1  0  0  0  0
 36 41  1  1  0  0  0
 39 35  1  0  0  0  0
 42 47  1  0  0  0  0
 42 50  1  0  0  0  0
 43 42  2  0  0  0  0
 44 43  1  0  0  0  0
 44 45  2  0  0  0  0
 45 46  1  0  0  0  0
 46 47  2  0  0  0  0
 46 33  1  0  0  0  0
 48 43  1  0  0  0  0
 49 44  1  0  0  0  0
 50 51  1  0  0  0  0
 52 53  1  0  0  0  0
M  END
>  <minimizedAffinity>
-5.72109604

>  <minimizedRMSD>
3.85836887

$$$$
