
 OpenBabel03252502503D

 37 39  0  0  0  0  0  0  0  0999 V2000
   44.6010   36.2480   43.9800 C   0  0  0  0  0  0  0  0  0  0  0  0
   44.7870   35.4420   45.1080 C   0  0  0  0  0  0  0  0  0  0  0  0
   45.4910   34.2580   44.9410 C   0  0  0  0  0  0  0  0  0  0  0  0
   45.9630   33.9360   43.7100 N   0  0  0  0  0  0  0  0  0  0  0  0
   45.7650   34.7440   42.6320 C   0  0  0  0  0  0  0  0  0  0  0  0
   45.0870   35.8920   42.7740 N   0  0  0  0  0  0  0  0  0  0  0  0
   44.0690   37.1880   44.0020 H   0  0  0  0  0  0  0  0  0  0  0  0
   44.3720   35.7970   46.0200 H   0  0  0  0  0  0  0  0  0  0  0  0
   48.5350   35.6710   42.0560 Cl  0  0  0  0  0  0  0  0  0  0  0  0
   47.5630   34.7030   40.9680 C   0  0  0  0  0  0  0  0  0  0  0  0
   46.3010   34.3340   41.3360 C   0  0  0  0  0  0  0  0  0  0  0  0
   45.4980   33.5590   40.4860 C   0  0  0  0  0  0  0  0  0  0  0  0
   46.0530   33.2040   39.2860 C   0  0  0  0  0  0  0  0  0  0  0  0
   47.3060   33.5710   38.9200 C   0  0  0  0  0  0  0  0  0  0  0  0
   48.0790   34.3220   39.7470 C   0  0  0  0  0  0  0  0  0  0  0  0
   44.4840   33.2730   40.8030 H   0  0  0  0  0  0  0  0  0  0  0  0
   45.3760   32.6020   38.6710 H   0  0  0  0  0  0  0  0  0  0  0  0
   47.6140   33.2200   37.9450 H   0  0  0  0  0  0  0  0  0  0  0  0
   49.0650   34.5820   39.4060 H   0  0  0  0  0  0  0  0  0  0  0  0
   45.6870   33.4010   46.1440 C   0  0  0  0  0  0  0  0  0  0  0  0
   44.7180   33.3370   46.6350 H   0  0  0  0  0  0  0  0  0  0  0  0
   46.4340   33.9050   46.7820 H   0  0  0  0  0  0  0  0  0  0  0  0
   46.2550   32.0350   45.7910 C   0  0  0  0  0  0  0  0  0  0  0  0
   45.3480   31.3680   45.7390 H   0  0  0  0  0  0  0  0  0  0  0  0
   46.7240   32.0340   44.7910 H   0  0  0  0  0  0  0  0  0  0  0  0
   47.4020   30.1410   46.7870 C   0  0  0  0  0  0  0  0  0  0  0  0
   47.0980   31.4830   46.8630 C   0  0  0  0  0  0  0  0  0  0  0  0
   47.5810   32.2600   47.9220 C   0  0  0  0  0  0  0  0  0  0  0  0
   47.3120   33.3060   47.9330 H   0  0  0  0  0  0  0  0  0  0  0  0
   48.3750   31.6930   48.9140 C   0  0  0  0  0  0  0  0  0  0  0  0
   48.7480   32.3100   49.7390 H   0  0  0  0  0  0  0  0  0  0  0  0
   48.6730   30.3340   48.8220 C   0  0  0  0  0  3  0  0  0  0  0  0
   48.1950   29.5750   47.7790 C   0  0  0  0  0  3  0  0  0  0  0  0
   46.5920   29.7100   44.3550 H   0  0  0  0  0  0  0  0  0  0  0  0
   46.8650   29.0760   45.5310 S   0  0  0  0  0  0  0  0  0  0  0  0
   47.9670   28.0800   45.2360 O   0  0  0  0  0  0  0  0  0  0  0  0
   45.6680   28.3240   46.0070 O   0  0  0  0  0  0  0  0  0  0  0  0
  1  7  1  0  0  0  0
  1  2  1  0  0  0  0
  2  8  1  0  0  0  0
  3  2  2  0  0  0  0
  3 20  1  0  0  0  0
  4  3  1  0  0  0  0
  5  6  1  0  0  0  0
  5  4  2  0  0  0  0
  6  1  2  0  0  0  0
 10 11  1  0  0  0  0
 10  9  1  0  0  0  0
 11  5  1  0  0  0  0
 12 16  1  0  0  0  0
 12 11  2  0  0  0  0
 13 12  1  0  0  0  0
 14 13  2  0  0  0  0
 14 15  1  0  0  0  0
 15 10  2  0  0  0  0
 17 13  1  0  0  0  0
 18 14  1  0  0  0  0
 19 15  1  0  0  0  0
 20 21  1  0  0  0  0
 20 22  1  0  0  0  0
 23 20  1  0  0  0  0
 23 27  1  0  0  0  0
 24 23  1  0  0  0  0
 25 23  1  0  0  0  0
 26 27  2  0  0  0  0
 26 33  1  0  0  0  0
 27 28  1  0  0  0  0
 28 29  1  0  0  0  0
 28 30  2  0  0  0  0
 30 31  1  0  0  0  0
 32 30  1  0  0  0  0
 33 32  2  0  0  0  0
 34 35  1  0  0  0  0
 35 37  2  0  0  0  0
 35 26  1  0  0  0  0
 36 35  2  0  0  0  0
M  END
>  <minimizedAffinity>
-5.75455141

>  <minimizedRMSD>
0.994787097

$$$$
