
 OpenBabel03252503533D

 39 41  0  0  1  0  0  0  0  0999 V2000
   46.7780   32.7390   45.1740 N   0  0  0  0  0  0  0  0  0  0  0  0
   46.5910   33.0840   46.5870 C   0  0  0  0  0  0  0  0  0  0  0  0
   47.3110   32.0120   47.3840 C   0  0  0  0  0  0  0  0  0  0  0  0
   46.5690   30.7140   47.2330 C   0  0  0  0  0  0  0  0  0  0  0  0
   46.3730   30.4310   45.7790 C   0  0  0  0  0  0  0  0  0  0  0  0
   47.0590   31.3870   44.8620 C   0  0  1  0  0  0  0  0  0  0  0  0
   47.1070   34.0570   46.7520 H   0  0  0  0  0  0  0  0  0  0  0  0
   45.5430   33.1010   46.8880 H   0  0  0  0  0  0  0  0  0  0  0  0
   48.3790   31.9320   47.0930 H   0  0  0  0  0  0  0  0  0  0  0  0
   47.2960   32.2750   48.4470 H   0  0  0  0  0  0  0  0  0  0  0  0
   45.6310   30.8030   47.8110 H   0  0  0  0  0  0  0  0  0  0  0  0
   47.1550   29.8810   47.7050 H   0  0  0  0  0  0  0  0  0  0  0  0
   46.6270   29.3840   45.4990 H   0  0  0  0  0  0  0  0  0  0  0  0
   45.2640   30.5680   45.5950 H   0  0  0  0  0  0  0  0  0  0  0  0
   48.1430   31.2120   44.9060 H   0  0  0  0  0  0  0  0  0  0  0  0
   47.5570   35.0040   42.3610 C   0  0  0  0  0  0  0  0  0  0  0  0
   47.7270   34.0560   43.3720 C   0  0  0  0  0  0  0  0  0  0  0  0
   46.6590   33.7270   44.1860 C   0  0  0  0  0  0  0  0  0  0  0  0
   45.4760   34.3520   43.9680 N   0  0  0  0  0  0  0  0  0  0  0  0
   45.3090   35.2790   42.9860 C   0  0  0  0  0  0  0  0  0  0  0  0
   46.3530   35.6010   42.1820 N   0  0  0  0  0  0  0  0  0  0  0  0
   48.7230   33.6700   43.4680 H   0  0  0  0  0  0  0  0  0  0  0  0
   44.3490   35.7590   42.8410 H   0  0  0  0  0  0  0  0  0  0  0  0
   48.7290   35.2950   41.4780 C   0  0  0  0  0  0  0  0  0  0  0  0
   48.3950   35.2080   40.1310 F   0  0  0  0  0  0  0  0  0  0  0  0
   49.1800   36.5590   41.7960 F   0  0  0  0  0  0  0  0  0  0  0  0
   49.7500   34.3960   41.7540 F   0  0  0  0  0  0  0  0  0  0  0  0
   47.4890   30.5650   42.5090 C   0  0  0  0  0  0  0  0  0  0  0  0
   46.5670   30.9320   43.5030 C   0  0  0  0  0  0  0  0  0  0  0  0
   45.2120   30.8170   43.1720 C   0  0  0  0  0  0  0  0  0  0  0  0
   44.4890   31.0930   43.9260 H   0  0  0  0  0  0  0  0  0  0  0  0
   44.8470   30.3630   41.9240 C   0  0  0  0  0  0  0  0  0  0  0  0
   43.7740   30.3060   41.7540 H   0  0  0  0  0  0  0  0  0  0  0  0
   45.7830   30.0120   40.9720 C   0  0  0  0  0  0  0  0  0  0  0  0
   47.1180   30.1160   41.2760 C   0  0  0  0  0  0  0  0  0  0  0  0
   49.5400   31.4820   43.8330 H   0  0  0  0  0  0  0  0  0  0  0  0
   49.2140   30.6620   42.7870 S   0  0  0  0  0  0  0  0  0  0  0  0
   49.7940   29.3090   43.0880 O   0  0  0  0  0  0  0  0  0  0  0  0
   49.8920   31.2250   41.5480 O   0  0  0  0  0  0  0  0  0  0  0  0
  1  2  1  0  0  0  0
  2  7  1  0  0  0  0
  2  8  1  0  0  0  0
  2  3  1  0  0  0  0
  3 10  1  0  0  0  0
  4  3  1  0  0  0  0
  4 12  1  0  0  0  0
  4 11  1  0  0  0  0
  5  4  1  0  0  0  0
  6 15  1  1  0  0  0
  6  1  1  0  0  0  0
  6  5  1  0  0  0  0
  9  3  1  0  0  0  0
 13  5  1  0  0  0  0
 14  5  1  0  0  0  0
 16 17  1  0  0  0  0
 17 22  1  0  0  0  0
 17 18  2  0  0  0  0
 18  1  1  0  0  0  0
 19 18  1  0  0  0  0
 20 19  2  0  0  0  0
 21 16  2  0  0  0  0
 21 20  1  0  0  0  0
 23 20  1  0  0  0  0
 24 27  1  0  0  0  0
 24 26  1  0  0  0  0
 24 16  1  0  0  0  0
 25 24  1  0  0  0  0
 28 37  1  0  0  0  0
 28 29  1  0  0  0  0
 29  6  1  0  0  0  0
 30 29  2  0  0  0  0
 30 31  1  0  0  0  0
 32 30  1  0  0  0  0
 33 32  1  0  0  0  0
 34 35  1  0  0  0  0
 34 32  2  0  0  0  0
 35 28  2  0  0  0  0
 37 38  2  0  0  0  0
 37 36  1  0  0  0  0
 39 37  2  0  0  0  0
M  END
>  <minimizedAffinity>
-5.07691383

>  <minimizedRMSD>
1.72166741

$$$$
