
 OpenBabel03252509083D

 44 47  0  0  0  0  0  0  0  0999 V2000
   47.5170   31.8350   38.8480 C   0  0  0  0  0  0  0  0  0  0  0  0
   47.1230   33.1390   38.9110 C   0  0  0  0  0  0  0  0  0  0  0  0
   47.7940   34.0930   38.1640 C   0  0  0  0  0  0  0  0  0  0  0  0
   48.8500   33.7470   37.3630 C   0  0  0  0  0  0  0  0  0  0  0  0
   49.2860   32.4320   37.2700 C   0  0  0  0  0  0  0  0  0  0  0  0
   48.5970   31.4830   38.0290 C   0  0  0  0  0  0  0  0  0  0  0  0
   47.5100   35.1260   38.1900 H   0  0  0  0  0  0  0  0  0  0  0  0
   49.3980   34.4360   36.7730 H   0  0  0  0  0  0  0  0  0  0  0  0
   50.0930   32.0610   36.6790 H   0  0  0  0  0  0  0  0  0  0  0  0
   48.9100   30.4280   37.9830 H   0  0  0  0  0  0  0  0  0  0  0  0
   45.3960   35.2750   43.2840 Cl  0  0  0  0  0  0  0  0  0  0  0  0
   45.1890   34.5690   41.7000 C   0  0  0  0  0  0  0  0  0  0  0  0
   46.2610   34.1570   40.9740 C   0  0  0  0  0  0  0  0  0  0  0  0
   46.0090   33.6200   39.7200 C   0  0  0  0  0  0  0  0  0  0  0  0
   44.7450   33.5160   39.2380 C   0  0  0  0  0  0  0  0  0  0  0  0
   43.6730   33.9250   39.9570 C   0  0  0  0  0  0  0  0  0  0  0  0
   43.9100   34.4570   41.2060 C   0  0  0  0  0  0  0  0  0  0  0  0
   44.5770   33.1040   38.2620 H   0  0  0  0  0  0  0  0  0  0  0  0
   42.6780   33.8260   39.5460 H   0  0  0  0  0  0  0  0  0  0  0  0
   43.0410   34.7810   41.7770 H   0  0  0  0  0  0  0  0  0  0  0  0
   49.6030   35.6360   41.9720 C   0  0  0  0  0  0  0  0  0  0  0  0
   48.3170   35.4980   41.4400 C   0  0  0  0  0  0  0  0  0  0  0  0
   47.6050   34.3100   41.5250 C   0  0  0  0  0  0  0  0  0  0  0  0
   48.2490   33.3210   42.1530 N   0  0  0  0  0  0  0  0  0  0  0  0
   49.4800   33.4410   42.6650 C   0  0  0  0  0  0  0  0  0  0  0  0
   50.1510   34.5880   42.5760 N   0  0  0  0  0  0  0  0  0  0  0  0
   50.0980   36.5730   41.8740 H   0  0  0  0  0  0  0  0  0  0  0  0
   47.8520   36.3500   40.9410 H   0  0  0  0  0  0  0  0  0  0  0  0
   49.7970   32.5070   43.1270 H   0  0  0  0  0  0  0  0  0  0  0  0
   46.7900   30.6340   39.7900 S   0  0  0  0  0  0  0  0  0  0  0  0
   47.1680   29.2480   39.1640 O   0  0  0  0  0  0  0  0  0  0  0  0
   47.4900   30.6140   41.1180 O   0  0  0  0  0  0  0  0  0  0  0  0
   44.2420   30.1070   38.7940 C   0  0  0  0  0  0  0  0  0  0  0  0
   45.0960   30.3500   39.8980 C   0  0  0  0  0  0  0  0  0  0  0  0
   44.3500   30.3130   41.0690 C   0  0  0  0  0  0  0  0  0  0  0  0
   44.8720   30.4630   42.0040 H   0  0  0  0  0  0  0  0  0  0  0  0
   42.9990   30.0870   41.2020 C   0  0  0  0  0  0  0  0  0  0  0  0
   42.5150   30.0810   42.1650 H   0  0  0  0  0  0  0  0  0  0  0  0
   42.3060   29.8720   40.0520 C   0  0  0  0  0  3  0  0  0  0  0  0
   42.8870   29.8710   38.8130 C   0  0  0  0  0  3  0  0  0  0  0  0
   46.3160   29.7320   37.2540 H   0  0  0  0  0  0  0  0  0  0  0  0
   45.0020   30.0340   37.1910 S   0  0  0  0  0  0  0  0  0  0  0  0
   44.9150   31.4020   36.5290 O   0  0  0  0  0  0  0  0  0  0  0  0
   44.1750   29.1240   36.3610 O   0  0  0  0  0  0  0  0  0  0  0  0
  1  2  1  0  0  0  0
  1 30  1  0  0  0  0
  2 14  1  0  0  0  0
  3  7  1  0  0  0  0
  3  2  2  0  0  0  0
  4  3  1  0  0  0  0
  5  4  2  0  0  0  0
  5  6  1  0  0  0  0
  6  1  2  0  0  0  0
  8  4  1  0  0  0  0
  9  5  1  0  0  0  0
 10  6  1  0  0  0  0
 12 11  1  0  0  0  0
 13 23  1  0  0  0  0
 13 12  2  0  0  0  0
 14 13  1  0  0  0  0
 15 14  2  0  0  0  0
 15 16  1  0  0  0  0
 16 17  2  0  0  0  0
 17 12  1  0  0  0  0
 17 20  1  0  0  0  0
 18 15  1  0  0  0  0
 19 16  1  0  0  0  0
 21 26  1  0  0  0  0
 22 23  1  0  0  0  0
 22 21  2  0  0  0  0
 23 24  2  0  0  0  0
 24 25  1  0  0  0  0
 25 29  1  0  0  0  0
 26 25  2  0  0  0  0
 27 21  1  0  0  0  0
 28 22  1  0  0  0  0
 30 34  1  0  0  0  0
 30 32  2  0  0  0  0
 31 30  2  0  0  0  0
 33 40  2  0  0  0  0
 33 34  1  0  0  0  0
 34 35  2  0  0  0  0
 35 37  1  0  0  0  0
 35 36  1  0  0  0  0
 37 38  1  0  0  0  0
 39 37  2  0  0  0  0
 40 39  1  0  0  0  0
 42 41  1  0  0  0  0
 42 33  1  0  0  0  0
 43 42  2  0  0  0  0
 44 42  2  0  0  0  0
M  END
>  <minimizedAffinity>
-4.59620523

>  <minimizedRMSD>
2.15206695

$$$$
