
 OpenBabel03252506493D

 32 34  0  0  0  0  0  0  0  0999 V2000
   41.9930   30.0100   39.9550 C   0  0  0  0  0  0  0  0  0  0  0  0
   42.8630   29.9200   38.8570 C   0  0  0  0  0  0  0  0  0  0  0  0
   43.2020   31.1030   38.1810 C   0  0  0  0  0  0  0  0  0  0  0  0
   42.6700   32.2780   38.6220 N   0  0  0  0  0  0  0  0  0  0  0  0
   41.8360   32.3170   39.6840 C   0  0  0  0  0  0  0  0  0  0  0  0
   41.4860   31.2060   40.3580 N   0  0  0  0  0  0  0  0  0  0  0  0
   43.2700   28.9860   38.5260 H   0  0  0  0  0  0  0  0  0  0  0  0
   43.8740   31.0190   37.3370 H   0  0  0  0  0  0  0  0  0  0  0  0
   42.0100   34.4970   40.8920 C   0  0  0  0  0  0  0  0  0  0  0  0
   41.3280   33.6310   40.0640 C   0  0  0  0  0  0  0  0  0  0  0  0
   40.1030   34.0390   39.5760 C   0  0  0  0  0  0  0  0  0  0  0  0
   39.4840   33.4230   38.9110 H   0  0  0  0  0  0  0  0  0  0  0  0
   39.5410   35.2710   39.8850 C   0  0  0  0  0  0  0  0  0  0  0  0
   38.5770   35.5780   39.4940 H   0  0  0  0  0  0  0  0  0  0  0  0
   40.2090   36.1500   40.7110 C   0  0  0  0  0  0  0  0  0  0  0  0
   41.4220   35.7220   41.1800 C   0  0  0  0  0  0  0  0  0  0  0  0
   43.5870   32.7420   41.9920 H   0  0  0  0  0  0  0  0  0  0  0  0
   43.5660   34.0330   41.5380 S   0  0  0  0  0  0  0  0  0  0  0  0
   43.8820   35.0020   42.6690 O   0  0  0  0  0  0  0  0  0  0  0  0
   44.6640   34.2790   40.5120 O   0  0  0  0  0  0  0  0  0  0  0  0
   41.6060   28.4620   40.7690 S   0  0  0  0  0  0  0  0  0  0  0  0
   43.9990   27.8750   42.8090 Cl  0  0  0  0  0  0  0  0  0  0  0  0
   42.4370   28.3860   43.4600 C   0  0  0  0  0  0  0  0  0  0  0  0
   41.4780   28.6090   42.5180 C   0  0  0  0  0  0  0  0  0  0  0  0
   40.2240   29.0100   42.9660 C   0  0  0  0  0  0  0  0  0  0  0  0
   39.9950   29.1660   44.3350 C   0  0  0  0  0  0  0  0  0  0  0  0
   40.9780   28.9350   45.2910 C   0  0  0  0  0  0  0  0  0  0  0  0
   42.2170   28.5370   44.8120 C   0  0  0  0  0  0  0  0  0  0  0  0
   43.5560   28.2160   45.9040 Cl  0  0  0  0  0  0  0  0  0  0  0  0
   39.3840   29.2180   42.3170 H   0  0  0  0  0  0  0  0  0  0  0  0
   39.0220   29.4780   44.7030 H   0  0  0  0  0  0  0  0  0  0  0  0
   40.8000   29.0560   46.3490 H   0  0  0  0  0  0  0  0  0  0  0  0
  1  6  1  0  0  0  0
  1 21  1  0  0  0  0
  2  1  2  0  0  0  0
  3  4  2  0  0  0  0
  3  2  1  0  0  0  0
  4  5  1  0  0  0  0
  5 10  1  0  0  0  0
  5  6  2  0  0  0  0
  7  2  1  0  0  0  0
  8  3  1  0  0  0  0
  9 16  1  0  0  0  0
  9 18  1  0  0  0  0
 10  9  2  0  0  0  0
 11 13  2  0  0  0  0
 11 10  1  0  0  0  0
 12 11  1  0  0  0  0
 13 15  1  0  0  0  0
 14 13  1  0  0  0  0
 15 16  2  0  0  0  0
 18 17  1  0  0  0  0
 18 19  2  0  0  0  0
 20 18  2  0  0  0  0
 21 24  1  0  0  0  0
 22 23  1  0  0  0  0
 23 28  1  0  0  0  0
 24 25  1  0  0  0  0
 24 23  2  0  0  0  0
 25 26  2  0  0  0  0
 26 31  1  0  0  0  0
 26 27  1  0  0  0  0
 27 32  1  0  0  0  0
 28 27  2  0  0  0  0
 28 29  1  0  0  0  0
 30 25  1  0  0  0  0
M  END
>  <minimizedAffinity>
-4.54678965

>  <minimizedRMSD>
6.94373417

$$$$
