
 OpenBabel03252509073D

 44 47  0  0  0  0  0  0  0  0999 V2000
   47.7120   31.8410   38.8930 C   0  0  0  0  0  0  0  0  0  0  0  0
   47.2350   33.1180   38.8850 C   0  0  0  0  0  0  0  0  0  0  0  0
   47.8450   34.0710   38.0870 C   0  0  0  0  0  0  0  0  0  0  0  0
   48.9240   33.7520   37.3070 C   0  0  0  0  0  0  0  0  0  0  0  0
   49.4450   32.4640   37.2850 C   0  0  0  0  0  0  0  0  0  0  0  0
   48.8160   31.5150   38.0950 C   0  0  0  0  0  0  0  0  0  0  0  0
   47.4950   35.0840   38.0560 H   0  0  0  0  0  0  0  0  0  0  0  0
   49.4290   34.4410   36.6790 H   0  0  0  0  0  0  0  0  0  0  0  0
   50.2760   32.1150   36.7160 H   0  0  0  0  0  0  0  0  0  0  0  0
   49.1960   30.4820   38.1060 H   0  0  0  0  0  0  0  0  0  0  0  0
   45.3490   35.2590   43.1890 Cl  0  0  0  0  0  0  0  0  0  0  0  0
   45.1980   34.5180   41.6140 C   0  0  0  0  0  0  0  0  0  0  0  0
   46.2980   34.1360   40.9150 C   0  0  0  0  0  0  0  0  0  0  0  0
   46.0890   33.5690   39.6650 C   0  0  0  0  0  0  0  0  0  0  0  0
   44.8390   33.4080   39.1640 C   0  0  0  0  0  0  0  0  0  0  0  0
   43.7390   33.7880   39.8580 C   0  0  0  0  0  0  0  0  0  0  0  0
   43.9330   34.3490   41.1010 C   0  0  0  0  0  0  0  0  0  0  0  0
   44.7040   32.9740   38.1930 H   0  0  0  0  0  0  0  0  0  0  0  0
   42.7560   33.6430   39.4310 H   0  0  0  0  0  0  0  0  0  0  0  0
   43.0420   34.6490   41.6510 H   0  0  0  0  0  0  0  0  0  0  0  0
   49.5820   35.7440   41.9040 C   0  0  0  0  0  0  0  0  0  0  0  0
   48.3120   35.5480   41.3520 C   0  0  0  0  0  0  0  0  0  0  0  0
   47.6250   34.3500   41.4860 C   0  0  0  0  0  0  0  0  0  0  0  0
   48.2750   33.4110   42.1810 N   0  0  0  0  0  0  0  0  0  0  0  0
   49.4910   33.5880   42.7130 C   0  0  0  0  0  0  0  0  0  0  0  0
   50.1380   34.7430   42.5760 N   0  0  0  0  0  0  0  0  0  0  0  0
   50.0580   36.6860   41.7650 H   0  0  0  0  0  0  0  0  0  0  0  0
   47.8400   36.3600   40.7960 H   0  0  0  0  0  0  0  0  0  0  0  0
   49.8170   32.6880   43.2320 H   0  0  0  0  0  0  0  0  0  0  0  0
   47.0600   30.6480   39.8990 S   0  0  0  0  0  0  0  0  0  0  0  0
   47.3400   29.2600   39.2280 O   0  0  0  0  0  0  0  0  0  0  0  0
   47.8960   30.6020   41.1460 O   0  0  0  0  0  0  0  0  0  0  0  0
   44.7570   30.4570   41.4530 C   0  0  0  0  0  0  0  0  0  0  0  0
   45.3810   30.4000   40.1820 C   0  0  0  0  0  0  0  0  0  0  0  0
   44.4240   30.1220   39.2140 C   0  0  0  0  0  0  0  0  0  0  0  0
   44.7500   30.0670   38.1850 H   0  0  0  0  0  0  0  0  0  0  0  0
   43.0750   29.9210   39.3960 C   0  0  0  0  0  0  0  0  0  0  0  0
   42.4150   29.7080   38.5690 H   0  0  0  0  0  0  0  0  0  0  0  0
   42.6190   30.0030   40.6730 C   0  0  0  0  0  3  0  0  0  0  0  0
   43.4250   30.2710   41.7450 C   0  0  0  0  0  3  0  0  0  0  0  0
   47.0200   31.2720   42.4640 H   0  0  0  0  0  0  0  0  0  0  0  0
   45.7860   30.8740   42.8370 S   0  0  0  0  0  0  0  0  0  0  0  0
   45.9850   29.6430   43.7080 O   0  0  0  0  0  0  0  0  0  0  0  0
   45.0240   31.8420   43.6650 O   0  0  0  0  0  0  0  0  0  0  0  0
  1 30  1  0  0  0  0
  2  1  1  0  0  0  0
  2 14  1  0  0  0  0
  3  2  2  0  0  0  0
  4  3  1  0  0  0  0
  5  4  2  0  0  0  0
  5  6  1  0  0  0  0
  6 10  1  0  0  0  0
  6  1  2  0  0  0  0
  7  3  1  0  0  0  0
  8  4  1  0  0  0  0
  9  5  1  0  0  0  0
 12 11  1  0  0  0  0
 13 23  1  0  0  0  0
 13 12  2  0  0  0  0
 14 13  1  0  0  0  0
 15 14  2  0  0  0  0
 15 16  1  0  0  0  0
 16 17  2  0  0  0  0
 17 12  1  0  0  0  0
 17 20  1  0  0  0  0
 18 15  1  0  0  0  0
 19 16  1  0  0  0  0
 21 26  1  0  0  0  0
 22 23  1  0  0  0  0
 22 21  2  0  0  0  0
 23 24  2  0  0  0  0
 24 25  1  0  0  0  0
 25 29  1  0  0  0  0
 26 25  2  0  0  0  0
 27 21  1  0  0  0  0
 28 22  1  0  0  0  0
 30 34  1  0  0  0  0
 30 32  2  0  0  0  0
 31 30  2  0  0  0  0
 33 40  1  0  0  0  0
 33 42  1  0  0  0  0
 34 33  2  0  0  0  0
 35 37  2  0  0  0  0
 35 34  1  0  0  0  0
 36 35  1  0  0  0  0
 37 39  1  0  0  0  0
 38 37  1  0  0  0  0
 39 40  2  0  0  0  0
 41 42  1  0  0  0  0
 42 44  2  0  0  0  0
 42 43  2  0  0  0  0
M  END
>  <minimizedAffinity>
-4.59676981

>  <minimizedRMSD>
1.41044462

$$$$
