
 OpenBabel03252507043D

 50 53  0  0  0  0  0  0  0  0999 V2000
   41.8000   30.0300   42.1630 N   0  0  0  0  0  0  0  0  0  0  0  0
   41.7420   28.6190   42.3940 C   0  0  0  0  0  0  0  0  0  0  0  0
   40.5270   28.5790   43.3190 C   0  0  0  0  0  0  0  0  0  0  0  0
   39.3130   29.1050   42.7160 C   0  0  0  0  0  0  0  0  0  0  0  0
   39.4320   30.0560   41.6320 C   0  0  0  0  0  0  0  0  0  0  0  0
   40.7780   30.6320   41.2820 C   0  0  0  0  0  0  0  0  0  0  0  0
   41.6280   27.9530   41.5580 H   0  0  0  0  0  0  0  0  0  0  0  0
   42.6340   28.3030   42.9670 H   0  0  0  0  0  0  0  0  0  0  0  0
   40.4040   27.4840   43.5630 H   0  0  0  0  0  0  0  0  0  0  0  0
   40.8500   29.0420   44.2680 H   0  0  0  0  0  0  0  0  0  0  0  0
   38.6870   29.5740   43.5180 H   0  0  0  0  0  0  0  0  0  0  0  0
   38.6780   28.2570   42.3260 H   0  0  0  0  0  0  0  0  0  0  0  0
   38.6250   30.4120   41.0620 H   0  0  0  0  0  0  0  0  0  0  0  0
   42.6760   30.8960   42.6870 C   0  0  0  0  0  0  0  0  0  0  0  0
   42.3860   31.9910   42.5210 H   0  0  0  0  0  0  0  0  0  0  0  0
   42.7560   30.8220   43.7930 H   0  0  0  0  0  0  0  0  0  0  0  0
   44.0430   30.7910   42.1150 C   0  0  0  0  0  0  0  0  0  0  0  0
   44.0610   30.3320   41.0870 H   0  0  0  0  0  0  0  0  0  0  0  0
   44.6760   30.1340   42.7710 H   0  0  0  0  0  0  0  0  0  0  0  0
   44.6540   32.1320   42.1350 C   0  0  0  0  0  0  0  0  0  0  0  0
   43.8690   33.2610   42.1010 C   0  0  0  0  0  0  0  0  0  0  0  0
   44.4920   34.4990   42.1110 C   0  0  0  0  0  0  0  0  0  0  0  0
   45.8610   34.5340   42.1570 N   0  0  0  0  0  0  0  0  0  0  0  0
   46.5870   33.4290   42.1910 C   0  0  0  0  0  0  0  0  0  0  0  0
   45.9610   32.2450   42.1770 N   0  0  0  0  0  0  0  0  0  0  0  0
   42.8090   33.4410   42.0830 H   0  0  0  0  0  0  0  0  0  0  0  0
   44.0470   35.4870   42.0880 H   0  0  0  0  0  0  0  0  0  0  0  0
   48.0410   33.5550   42.2660 C   0  0  0  0  0  0  0  0  0  0  0  0
   48.8560   32.4320   42.1460 C   0  0  0  0  0  0  0  0  0  0  0  0
   50.2250   32.5700   42.2240 C   0  0  0  0  0  0  0  0  0  0  0  0
   50.6640   33.8570   42.4200 C   0  0  0  0  0  0  0  0  0  0  0  0
   49.8880   35.0100   42.5450 C   0  0  0  0  0  0  0  0  0  0  0  0
   48.5520   34.7910   42.4570 N   0  0  0  0  0  0  0  0  0  0  0  0
   48.4360   31.4470   41.9930 H   0  0  0  0  0  0  0  0  0  0  0  0
   50.9250   31.7720   42.1440 H   0  0  0  0  0  0  0  0  0  0  0  0
   51.7440   34.0300   42.4900 H   0  0  0  0  0  0  0  0  0  0  0  0
   50.3350   35.9720   42.6960 H   0  0  0  0  0  0  0  0  0  0  0  0
   41.0500   31.7960   40.0530 S   0  0  0  0  0  0  0  0  0  0  0  0
   39.7970   33.6420   38.9470 C   0  0  0  0  0  0  0  0  0  0  0  0
   39.8490   32.2300   38.9020 C   0  0  0  0  0  0  0  0  0  0  0  0
   39.0130   31.6530   38.0030 C   0  0  0  0  0  0  0  0  0  0  0  0
   39.0810   30.6020   38.0310 H   0  0  0  0  0  0  0  0  0  0  0  0
   38.1460   32.2700   37.1560 C   0  0  0  0  0  0  0  0  0  0  0  0
   37.5610   31.6600   36.5130 H   0  0  0  0  0  0  0  0  0  0  0  0
   38.1350   33.6410   37.2400 C   0  0  0  0  0  3  0  0  0  0  0  0
   38.9350   34.3650   38.1120 C   0  0  0  0  0  3  0  0  0  0  0  0
   40.1000   36.0530   39.7610 H   0  0  0  0  0  0  0  0  0  0  0  0
   40.6820   34.8160   39.9380 S   0  0  0  0  0  0  0  0  0  0  0  0
   42.1090   34.8210   39.4850 O   0  0  0  0  0  0  0  0  0  0  0  0
   40.5650   34.4090   41.3640 O   0  0  0  0  0  0  0  0  0  0  0  0
  1  2  1  0  0  0  0
  1 14  1  0  0  0  0
  2  8  1  0  0  0  0
  2  3  1  0  0  0  0
  3  9  1  0  0  0  0
  3 10  1  0  0  0  0
  4  3  1  0  0  0  0
  4 11  1  0  0  0  0
  5  4  1  0  0  0  0
  6  5  2  0  0  0  0
  6  1  1  0  0  0  0
  7  2  1  0  0  0  0
 12  4  1  0  0  0  0
 13  5  1  0  0  0  0
 14 16  1  0  0  0  0
 15 14  1  0  0  0  0
 17 20  1  0  0  0  0
 17 14  1  0  0  0  0
 17 19  1  0  0  0  0
 18 17  1  0  0  0  0
 20 25  1  0  0  0  0
 21 22  1  0  0  0  0
 21 20  2  0  0  0  0
 22 23  2  0  0  0  0
 23 24  1  0  0  0  0
 24 28  1  0  0  0  0
 25 24  2  0  0  0  0
 26 21  1  0  0  0  0
 27 22  1  0  0  0  0
 28 33  1  0  0  0  0
 29 30  1  0  0  0  0
 29 28  2  0  0  0  0
 30 31  2  0  0  0  0
 31 36  1  0  0  0  0
 31 32  1  0  0  0  0
 32 37  1  0  0  0  0
 33 32  2  0  0  0  0
 34 29  1  0  0  0  0
 35 30  1  0  0  0  0
 38  6  1  0  0  0  0
 39 48  1  0  0  0  0
 40 39  1  0  0  0  0
 40 38  1  0  0  0  0
 41 42  1  0  0  0  0
 41 40  2  0  0  0  0
 43 45  2  0  0  0  0
 43 41  1  0  0  0  0
 44 43  1  0  0  0  0
 45 46  1  0  0  0  0
 46 39  2  0  0  0  0
 47 48  1  0  0  0  0
 48 50  2  0  0  0  0
 49 48  2  0  0  0  0
M  END
>  <minimizedAffinity>
-5.35237789

>  <minimizedRMSD>
3.67512655

$$$$
