
 OpenBabel03252508593D

 48 50  0  0  1  0  0  0  0  0999 V2000
   46.9180   34.2450   43.3800 N   0  0  0  0  0  0  0  0  0  0  0  0
   46.5120   35.4600   42.7590 C   0  0  0  0  0  0  0  0  0  0  0  0
   45.0570   35.7990   42.8840 C   0  0  0  0  0  0  0  0  0  0  0  0
   44.4110   35.3280   44.1550 C   0  0  0  0  0  0  0  0  0  0  0  0
   45.4120   34.6940   45.0920 C   0  0  0  0  0  0  0  0  0  0  0  0
   46.0600   33.5580   44.2220 C   0  0  2  0  0  0  0  0  0  0  0  0
   46.7830   35.5830   41.7090 H   0  0  0  0  0  0  0  0  0  0  0  0
   47.0740   36.2850   43.2910 H   0  0  0  0  0  0  0  0  0  0  0  0
   44.9080   36.8940   42.8230 H   0  0  0  0  0  0  0  0  0  0  0  0
   44.5370   35.3940   41.9720 H   0  0  0  0  0  0  0  0  0  0  0  0
   43.7010   34.5170   43.8790 H   0  0  0  0  0  0  0  0  0  0  0  0
   43.8160   36.1150   44.6450 H   0  0  0  0  0  0  0  0  0  0  0  0
   44.8450   34.2090   45.9120 H   0  0  0  0  0  0  0  0  0  0  0  0
   46.2020   35.3790   45.4340 H   0  0  0  0  0  0  0  0  0  0  0  0
   45.1950   33.0210   43.7840 H   0  0  0  0  0  0  0  0  0  0  0  0
   47.9000   33.5030   42.6330 C   0  0  0  0  0  0  0  0  0  0  0  0
   48.5500   34.2570   42.1190 H   0  0  0  0  0  0  0  0  0  0  0  0
   48.5660   32.8830   43.2330 H   0  0  0  0  0  0  0  0  0  0  0  0
   47.1910   32.6340   41.6370 C   0  0  0  0  0  0  0  0  0  0  0  0
   46.1280   32.9380   41.5400 H   0  0  0  0  0  0  0  0  0  0  0  0
   47.2060   31.5540   41.8920 H   0  0  0  0  0  0  0  0  0  0  0  0
   49.2830   32.0920   38.5620 C   0  0  0  0  0  0  0  0  0  0  0  0
   48.6950   31.9140   39.8300 C   0  0  0  0  0  0  0  0  0  0  0  0
   47.8000   32.8390   40.2980 C   0  0  0  0  0  0  0  0  0  0  0  0
   47.5250   33.8850   39.5120 N   0  0  0  0  0  0  0  0  0  0  0  0
   48.0850   34.0590   38.2990 C   0  0  0  0  0  0  0  0  0  0  0  0
   48.9640   33.1660   37.8180 N   0  0  0  0  0  0  0  0  0  0  0  0
   49.9920   31.3610   38.1880 H   0  0  0  0  0  0  0  0  0  0  0  0
   49.0040   31.0250   40.3620 H   0  0  0  0  0  0  0  0  0  0  0  0
   47.7980   34.9410   37.7340 H   0  0  0  0  0  0  0  0  0  0  0  0
   46.7530   32.8300   45.1760 O   0  0  0  0  0  0  0  0  0  0  0  0
   45.2240   30.8740   44.2330 O   0  0  0  0  0  0  0  0  0  0  0  0
   46.1440   31.2830   45.3930 P   0  0  2  0  0  0  0  0  0  0  0  0
   45.1060   31.3610   46.7540 O   0  0  0  0  0  0  0  0  0  0  0  0
   44.7800   30.4190   46.8720 H   0  0  0  0  0  0  0  0  0  0  0  0
   47.2940   30.1380   45.7100 O   0  0  0  0  0  0  0  0  0  0  0  0
   49.3840   29.2730   45.9560 C   0  0  0  0  0  0  0  0  0  0  0  0
   48.4850   29.8790   45.0720 C   0  0  0  0  0  0  0  0  0  0  0  0
   48.9000   30.1100   43.7770 C   0  0  0  0  0  0  0  0  0  0  0  0
   48.1250   30.5790   43.1890 H   0  0  0  0  0  0  0  0  0  0  0  0
   50.1700   29.7500   43.3740 C   0  0  0  0  0  0  0  0  0  0  0  0
   50.4150   29.9670   42.3390 H   0  0  0  0  0  0  0  0  0  0  0  0
   51.0660   29.1520   44.2340 C   0  0  0  0  0  3  0  0  0  0  0  0
   50.6700   28.9130   45.5350 C   0  0  0  0  0  3  0  0  0  0  0  0
   50.1990   28.4450   48.2660 H   0  0  0  0  0  0  0  0  0  0  0  0
   49.0590   28.8890   47.6480 S   0  0  0  0  0  0  0  0  0  0  0  0
   48.6090   30.1210   48.3890 O   0  0  0  0  0  0  0  0  0  0  0  0
   47.9650   27.8390   47.6800 O   0  0  0  0  0  0  0  0  0  0  0  0
  1  6  1  0  0  0  0
  2  3  1  0  0  0  0
  2  8  1  0  0  0  0
  2  1  1  0  0  0  0
  3  4  1  0  0  0  0
  4 12  1  0  0  0  0
  4  5  1  0  0  0  0
  5 14  1  0  0  0  0
  5 13  1  0  0  0  0
  6 15  1  6  0  0  0
  6  5  1  0  0  0  0
  6 31  1  0  0  0  0
  7  2  1  0  0  0  0
  9  3  1  0  0  0  0
 10  3  1  0  0  0  0
 11  4  1  0  0  0  0
 16 18  1  0  0  0  0
 16  1  1  0  0  0  0
 17 16  1  0  0  0  0
 19 21  1  0  0  0  0
 19 16  1  0  0  0  0
 20 19  1  0  0  0  0
 22 23  1  0  0  0  0
 23 24  2  0  0  0  0
 23 29  1  0  0  0  0
 24 19  1  0  0  0  0
 25 24  1  0  0  0  0
 26 25  2  0  0  0  0
 27 26  1  0  0  0  0
 27 22  2  0  0  0  0
 28 22  1  0  0  0  0
 30 26  1  0  0  0  0
 31 33  1  0  0  0  0
 33 32  2  6  0  0  0
 33 36  1  0  0  0  0
 33 34  1  0  0  0  0
 34 35  1  0  0  0  0
 37 46  1  0  0  0  0
 38 36  1  0  0  0  0
 38 37  2  0  0  0  0
 39 38  1  0  0  0  0
 40 39  1  0  0  0  0
 41 39  2  0  0  0  0
 41 43  1  0  0  0  0
 42 41  1  0  0  0  0
 43 44  2  0  0  0  0
 44 37  1  0  0  0  0
 46 48  2  0  0  0  0
 46 45  1  0  0  0  0
 46 47  2  0  0  0  0
M  END
>  <minimizedAffinity>
-4.24343967

>  <minimizedRMSD>
1.25507617

$$$$
