
 OpenBabel03252502503D

 37 39  0  0  0  0  0  0  0  0999 V2000
   44.6050   36.2230   43.9710 C   0  0  0  0  0  0  0  0  0  0  0  0
   44.8070   35.4200   45.0980 C   0  0  0  0  0  0  0  0  0  0  0  0
   45.5200   34.2430   44.9270 C   0  0  0  0  0  0  0  0  0  0  0  0
   45.9850   33.9230   43.6920 N   0  0  0  0  0  0  0  0  0  0  0  0
   45.7710   34.7290   42.6160 C   0  0  0  0  0  0  0  0  0  0  0  0
   45.0840   35.8700   42.7620 N   0  0  0  0  0  0  0  0  0  0  0  0
   44.0650   37.1590   43.9980 H   0  0  0  0  0  0  0  0  0  0  0  0
   44.3970   35.7720   46.0130 H   0  0  0  0  0  0  0  0  0  0  0  0
   48.5220   35.6910   42.0100 Cl  0  0  0  0  0  0  0  0  0  0  0  0
   47.5530   34.7070   40.9340 C   0  0  0  0  0  0  0  0  0  0  0  0
   46.3000   34.3220   41.3150 C   0  0  0  0  0  0  0  0  0  0  0  0
   45.4990   33.5340   40.4750 C   0  0  0  0  0  0  0  0  0  0  0  0
   46.0470   33.1840   39.2700 C   0  0  0  0  0  0  0  0  0  0  0  0
   47.2920   33.5660   38.8910 C   0  0  0  0  0  0  0  0  0  0  0  0
   48.0620   34.3290   39.7090 C   0  0  0  0  0  0  0  0  0  0  0  0
   44.4920   33.2360   40.8020 H   0  0  0  0  0  0  0  0  0  0  0  0
   45.3730   32.5710   38.6630 H   0  0  0  0  0  0  0  0  0  0  0  0
   47.5950   33.2170   37.9140 H   0  0  0  0  0  0  0  0  0  0  0  0
   49.0410   34.6020   39.3570 H   0  0  0  0  0  0  0  0  0  0  0  0
   45.7340   33.3880   46.1290 C   0  0  0  0  0  0  0  0  0  0  0  0
   44.7760   33.3370   46.6420 H   0  0  0  0  0  0  0  0  0  0  0  0
   46.5010   33.8850   46.7470 H   0  0  0  0  0  0  0  0  0  0  0  0
   46.2780   32.0140   45.7690 C   0  0  0  0  0  0  0  0  0  0  0  0
   45.3620   31.3590   45.7330 H   0  0  0  0  0  0  0  0  0  0  0  0
   46.7310   32.0050   44.7610 H   0  0  0  0  0  0  0  0  0  0  0  0
   47.5340   30.1440   46.6730 C   0  0  0  0  0  0  0  0  0  0  0  0
   47.1310   31.4530   46.8280 C   0  0  0  0  0  0  0  0  0  0  0  0
   47.5290   32.1890   47.9490 C   0  0  0  0  0  0  0  0  0  0  0  0
   47.1850   33.2090   48.0200 H   0  0  0  0  0  0  0  0  0  0  0  0
   48.3380   31.6150   48.9260 C   0  0  0  0  0  0  0  0  0  0  0  0
   48.6440   32.2000   49.8000 H   0  0  0  0  0  0  0  0  0  0  0  0
   48.7360   30.2900   48.7530 C   0  0  0  0  0  3  0  0  0  0  0  0
   48.3410   29.5700   47.6500 C   0  0  0  0  0  3  0  0  0  0  0  0
   46.6640   29.8180   44.2460 H   0  0  0  0  0  0  0  0  0  0  0  0
   47.1100   29.1310   45.3350 S   0  0  0  0  0  0  0  0  0  0  0  0
   48.3420   28.3730   44.8900 O   0  0  0  0  0  0  0  0  0  0  0  0
   46.0860   28.1400   45.7790 O   0  0  0  0  0  0  0  0  0  0  0  0
  1  7  1  0  0  0  0
  1  2  1  0  0  0  0
  2  8  1  0  0  0  0
  3  2  2  0  0  0  0
  3 20  1  0  0  0  0
  4  3  1  0  0  0  0
  5  6  1  0  0  0  0
  5  4  2  0  0  0  0
  6  1  2  0  0  0  0
 10 11  1  0  0  0  0
 10  9  1  0  0  0  0
 11  5  1  0  0  0  0
 12 16  1  0  0  0  0
 12 11  2  0  0  0  0
 13 12  1  0  0  0  0
 14 13  2  0  0  0  0
 14 15  1  0  0  0  0
 15 10  2  0  0  0  0
 17 13  1  0  0  0  0
 18 14  1  0  0  0  0
 19 15  1  0  0  0  0
 20 21  1  0  0  0  0
 20 22  1  0  0  0  0
 23 20  1  0  0  0  0
 23 27  1  0  0  0  0
 24 23  1  0  0  0  0
 25 23  1  0  0  0  0
 26 27  2  0  0  0  0
 26 33  1  0  0  0  0
 27 28  1  0  0  0  0
 28 29  1  0  0  0  0
 28 30  2  0  0  0  0
 30 31  1  0  0  0  0
 32 30  1  0  0  0  0
 33 32  2  0  0  0  0
 34 35  1  0  0  0  0
 35 37  2  0  0  0  0
 35 26  1  0  0  0  0
 36 35  2  0  0  0  0
M  END
>  <minimizedAffinity>
-5.75120783

>  <minimizedRMSD>
0.599080145

$$$$
