
 OpenBabel03242516073D

 39 42  0  0  0  0  0  0  0  0999 V2000
   40.2120   29.2640   42.0980 C   0  0  0  0  0  0  0  0  0  0  0  0
   40.2060   30.3370   41.1780 C   0  0  0  0  0  0  0  0  0  0  0  0
   41.9310   30.9160   41.2260 S   0  0  0  0  0  0  0  0  0  0  0  0
   42.3870   29.5920   42.5020 C   0  0  0  0  0  0  0  0  0  0  0  0
   41.3920   29.0970   42.6120 N   0  0  0  0  0  0  0  0  0  0  0  0
   43.6830   29.3990   43.0750 N   0  0  0  0  0  0  0  0  0  0  0  0
   44.0350   30.3030   43.5110 H   0  0  0  0  0  0  0  0  0  0  0  0
   44.0590   28.4330   42.9740 H   0  0  0  0  0  0  0  0  0  0  0  0
   39.8140   26.8760   40.4550 Cl  0  0  0  0  0  0  0  0  0  0  0  0
   38.6910   27.3300   41.7020 C   0  0  0  0  0  0  0  0  0  0  0  0
   37.5710   26.5910   41.9710 C   0  0  0  0  0  0  0  0  0  0  0  0
   36.7700   27.0560   42.9770 C   0  0  0  0  0  0  0  0  0  0  0  0
   37.0350   28.1680   43.6790 C   0  0  0  0  0  0  0  0  0  0  0  0
   38.1490   28.9080   43.4160 C   0  0  0  0  0  0  0  0  0  0  0  0
   38.9910   28.4650   42.3960 C   0  0  0  0  0  0  0  0  0  0  0  0
   35.8690   26.4860   43.2120 H   0  0  0  0  0  0  0  0  0  0  0  0
   36.3920   28.5340   44.4810 H   0  0  0  0  0  0  0  0  0  0  0  0
   38.4140   29.8210   43.9560 H   0  0  0  0  0  0  0  0  0  0  0  0
   37.5730   23.0040   40.7550 C   0  0  0  0  0  0  0  0  0  0  0  0
   37.8160   24.1450   41.5220 C   0  0  0  0  0  0  0  0  0  0  0  0
   37.3290   25.4010   41.1860 C   0  0  0  0  0  0  0  0  0  0  0  0
   36.5860   25.4430   40.0350 N   0  0  0  0  0  0  0  0  0  0  0  0
   36.3630   24.3310   39.3060 C   0  0  0  0  0  0  0  0  0  0  0  0
   36.8440   23.1320   39.6540 N   0  0  0  0  0  0  0  0  0  0  0  0
   38.0090   22.1010   41.1320 H   0  0  0  0  0  0  0  0  0  0  0  0
   38.4000   24.1560   42.4450 H   0  0  0  0  0  0  0  0  0  0  0  0
   35.7570   24.4800   38.4060 H   0  0  0  0  0  0  0  0  0  0  0  0
   39.1750   30.5530   39.0290 C   0  0  0  0  0  0  0  0  0  0  0  0
   39.1280   30.8820   40.3730 C   0  0  0  0  0  0  0  0  0  0  0  0
   38.1210   31.6680   40.8740 C   0  0  0  0  0  0  0  0  0  0  0  0
   38.1430   31.8870   41.9290 H   0  0  0  0  0  0  0  0  0  0  0  0
   37.1140   32.1600   40.0450 C   0  0  0  0  0  0  0  0  0  0  0  0
   36.3380   32.7770   40.4830 H   0  0  0  0  0  0  0  0  0  0  0  0
   37.1290   31.8540   38.7030 C   0  0  0  0  0  3  0  0  0  0  0  0
   38.1590   31.0540   38.2110 C   0  0  0  0  0  3  0  0  0  0  0  0
   41.0290   28.8340   39.1580 H   0  0  0  0  0  0  0  0  0  0  0  0
   40.3690   29.5730   38.2230 S   0  0  0  0  0  0  0  0  0  0  0  0
   39.6750   28.7010   37.2080 O   0  0  0  0  0  0  0  0  0  0  0  0
   41.3010   30.4960   37.4740 O   0  0  0  0  0  0  0  0  0  0  0  0
  1 15  1  0  0  0  0
  1  5  1  0  0  0  0
  2  3  1  0  0  0  0
  2  1  2  0  0  0  0
  3  4  1  0  0  0  0
  4  5  2  0  0  0  0
  4  6  1  0  0  0  0
  6  7  1  0  0  0  0
  8  6  1  0  0  0  0
  9 10  1  0  0  0  0
 10 11  2  0  0  0  0
 10 15  1  0  0  0  0
 11 12  1  0  0  0  0
 12 16  1  0  0  0  0
 12 13  2  0  0  0  0
 13 17  1  0  0  0  0
 14 13  1  0  0  0  0
 14 18  1  0  0  0  0
 15 14  2  0  0  0  0
 19 25  1  0  0  0  0
 19 20  1  0  0  0  0
 20 26  1  0  0  0  0
 21 20  2  0  0  0  0
 21 11  1  0  0  0  0
 22 21  1  0  0  0  0
 23 24  1  0  0  0  0
 23 22  2  0  0  0  0
 24 19  2  0  0  0  0
 27 23  1  0  0  0  0
 28 29  1  0  0  0  0
 29 30  2  0  0  0  0
 29  2  1  0  0  0  0
 30 31  1  0  0  0  0
 32 33  1  0  0  0  0
 32 30  1  0  0  0  0
 34 32  2  0  0  0  0
 35 34  1  0  0  0  0
 35 28  2  0  0  0  0
 37 28  1  0  0  0  0
 37 36  1  0  0  0  0
 38 37  2  0  0  0  0
 39 37  2  0  0  0  0
M  END
>  <minimizedAffinity>
-5.88955784

$$$$

 OpenBabel03242516073D

 39 42  0  0  0  0  0  0  0  0999 V2000
   37.7770   29.0250   38.6490 C   0  0  0  0  0  0  0  0  0  0  0  0
   37.6810   27.8810   39.4740 C   0  0  0  0  0  0  0  0  0  0  0  0
   37.5100   26.5300   38.2660 S   0  0  0  0  0  0  0  0  0  0  0  0
   37.5980   27.7500   36.8200 C   0  0  0  0  0  0  0  0  0  0  0  0
   37.7110   28.7020   37.3940 N   0  0  0  0  0  0  0  0  0  0  0  0
   37.5270   27.4050   35.4340 N   0  0  0  0  0  0  0  0  0  0  0  0
   36.6470   26.8410   35.2360 H   0  0  0  0  0  0  0  0  0  0  0  0
   38.3250   27.7530   34.8620 H   0  0  0  0  0  0  0  0  0  0  0  0
   40.4970   30.1050   38.6440 Cl  0  0  0  0  0  0  0  0  0  0  0  0
   39.1480   31.0140   39.2610 C   0  0  0  0  0  0  0  0  0  0  0  0
   39.2990   32.2740   39.7710 C   0  0  0  0  0  0  0  0  0  0  0  0
   38.1610   32.8810   40.2240 C   0  0  0  0  0  0  0  0  0  0  0  0
   36.9500   32.3050   40.1850 C   0  0  0  0  0  0  0  0  0  0  0  0
   36.7940   31.0490   39.6780 C   0  0  0  0  0  0  0  0  0  0  0  0
   37.9340   30.3980   39.2060 C   0  0  0  0  0  0  0  0  0  0  0  0
   38.2520   33.8870   40.6370 H   0  0  0  0  0  0  0  0  0  0  0  0
   36.0440   32.7940   40.5480 H   0  0  0  0  0  0  0  0  0  0  0  0
   35.8320   30.5310   39.6210 H   0  0  0  0  0  0  0  0  0  0  0  0
   42.4330   34.1610   38.7860 C   0  0  0  0  0  0  0  0  0  0  0  0
   41.1510   33.6070   38.7520 C   0  0  0  0  0  0  0  0  0  0  0  0
   40.6250   32.8520   39.7920 C   0  0  0  0  0  0  0  0  0  0  0  0
   41.4610   32.6870   40.8650 N   0  0  0  0  0  0  0  0  0  0  0  0
   42.6950   33.2280   40.8800 C   0  0  0  0  0  0  0  0  0  0  0  0
   43.1780   33.9520   39.8640 N   0  0  0  0  0  0  0  0  0  0  0  0
   42.7090   34.7190   37.9150 H   0  0  0  0  0  0  0  0  0  0  0  0
   40.4540   33.7150   37.9190 H   0  0  0  0  0  0  0  0  0  0  0  0
   43.2770   33.0320   41.7880 H   0  0  0  0  0  0  0  0  0  0  0  0
   38.9370   27.4310   41.4600 C   0  0  0  0  0  0  0  0  0  0  0  0
   37.7060   27.7580   40.9190 C   0  0  0  0  0  0  0  0  0  0  0  0
   36.6080   27.9450   41.7220 C   0  0  0  0  0  0  0  0  0  0  0  0
   35.6790   28.1980   41.2390 H   0  0  0  0  0  0  0  0  0  0  0  0
   36.7000   27.8110   43.1070 C   0  0  0  0  0  0  0  0  0  0  0  0
   35.8080   27.9680   43.7020 H   0  0  0  0  0  0  0  0  0  0  0  0
   37.9090   27.4860   43.6800 C   0  0  0  0  0  3  0  0  0  0  0  0
   39.0130   27.3000   42.8490 C   0  0  0  0  0  3  0  0  0  0  0  0
   40.4030   27.8820   39.4460 H   0  0  0  0  0  0  0  0  0  0  0  0
   40.4280   27.1590   40.6010 S   0  0  0  0  0  0  0  0  0  0  0  0
   41.5780   27.5600   41.4870 O   0  0  0  0  0  0  0  0  0  0  0  0
   40.5490   25.6770   40.3350 O   0  0  0  0  0  0  0  0  0  0  0  0
  1 15  1  0  0  0  0
  1  2  2  0  0  0  0
  2 29  1  0  0  0  0
  3  2  1  0  0  0  0
  4  5  2  0  0  0  0
  4  3  1  0  0  0  0
  5  1  1  0  0  0  0
  6  4  1  0  0  0  0
  7  6  1  0  0  0  0
  8  6  1  0  0  0  0
  9 10  1  0  0  0  0
 10 11  1  0  0  0  0
 11 21  1  0  0  0  0
 11 12  2  0  0  0  0
 12 16  1  0  0  0  0
 13 12  1  0  0  0  0
 13 17  1  0  0  0  0
 14 13  2  0  0  0  0
 15 10  2  0  0  0  0
 15 14  1  0  0  0  0
 18 14  1  0  0  0  0
 19 24  1  0  0  0  0
 20 19  2  0  0  0  0
 20 21  1  0  0  0  0
 21 22  2  0  0  0  0
 22 23  1  0  0  0  0
 23 27  1  0  0  0  0
 24 23  2  0  0  0  0
 25 19  1  0  0  0  0
 26 20  1  0  0  0  0
 28 35  1  0  0  0  0
 29 28  2  0  0  0  0
 29 30  1  0  0  0  0
 30 32  2  0  0  0  0
 31 30  1  0  0  0  0
 32 34  1  0  0  0  0
 32 33  1  0  0  0  0
 35 34  2  0  0  0  0
 36 37  1  0  0  0  0
 37 28  1  0  0  0  0
 37 38  2  0  0  0  0
 39 37  2  0  0  0  0
M  END
>  <minimizedAffinity>
-5.83626175

$$$$

 OpenBabel03242516073D

 39 42  0  0  0  0  0  0  0  0999 V2000
   36.9470   28.7650   38.7620 C   0  0  0  0  0  0  0  0  0  0  0  0
   36.9270   27.6840   39.6730 C   0  0  0  0  0  0  0  0  0  0  0  0
   36.2200   26.3340   38.6780 S   0  0  0  0  0  0  0  0  0  0  0  0
   36.0640   27.4670   37.1690 C   0  0  0  0  0  0  0  0  0  0  0  0
   36.4740   28.4080   37.6060 N   0  0  0  0  0  0  0  0  0  0  0  0
   35.5460   27.0850   35.8920 N   0  0  0  0  0  0  0  0  0  0  0  0
   34.5740   26.6650   35.9950 H   0  0  0  0  0  0  0  0  0  0  0  0
   36.1860   27.2750   35.0930 H   0  0  0  0  0  0  0  0  0  0  0  0
   39.7010   29.3570   37.9720 Cl  0  0  0  0  0  0  0  0  0  0  0  0
   38.7210   30.5120   38.8270 C   0  0  0  0  0  0  0  0  0  0  0  0
   39.1950   31.7500   39.1680 C   0  0  0  0  0  0  0  0  0  0  0  0
   38.3250   32.5650   39.8380 C   0  0  0  0  0  0  0  0  0  0  0  0
   37.0730   32.2050   40.1580 C   0  0  0  0  0  0  0  0  0  0  0  0
   36.5960   30.9720   39.8210 C   0  0  0  0  0  0  0  0  0  0  0  0
   37.4550   30.1130   39.1370 C   0  0  0  0  0  0  0  0  0  0  0  0
   38.6770   33.5570   40.1230 H   0  0  0  0  0  0  0  0  0  0  0  0
   36.3830   32.8580   40.6930 H   0  0  0  0  0  0  0  0  0  0  0  0
   35.5850   30.6270   40.0570 H   0  0  0  0  0  0  0  0  0  0  0  0
   42.9480   32.2540   39.2750 C   0  0  0  0  0  0  0  0  0  0  0  0
   41.6430   31.9210   39.6430 C   0  0  0  0  0  0  0  0  0  0  0  0
   40.5520   32.0910   38.8000 C   0  0  0  0  0  0  0  0  0  0  0  0
   40.8500   32.6130   37.5690 N   0  0  0  0  0  0  0  0  0  0  0  0
   42.1160   32.9300   37.2310 C   0  0  0  0  0  0  0  0  0  0  0  0
   43.1490   32.7560   38.0630 N   0  0  0  0  0  0  0  0  0  0  0  0
   43.6920   32.0710   40.0230 H   0  0  0  0  0  0  0  0  0  0  0  0
   41.3620   31.5020   40.6120 H   0  0  0  0  0  0  0  0  0  0  0  0
   42.2380   33.3400   36.2230 H   0  0  0  0  0  0  0  0  0  0  0  0
   38.6070   27.0720   41.2630 C   0  0  0  0  0  0  0  0  0  0  0  0
   37.3510   27.6140   41.0590 C   0  0  0  0  0  0  0  0  0  0  0  0
   36.5860   28.0440   42.1150 C   0  0  0  0  0  0  0  0  0  0  0  0
   35.6170   28.4570   41.8880 H   0  0  0  0  0  0  0  0  0  0  0  0
   37.0530   27.9480   43.4260 C   0  0  0  0  0  0  0  0  0  0  0  0
   36.4150   28.3000   44.2290 H   0  0  0  0  0  0  0  0  0  0  0  0
   38.2980   27.4140   43.6660 C   0  0  0  0  0  3  0  0  0  0  0  0
   39.0610   26.9820   42.5820 C   0  0  0  0  0  3  0  0  0  0  0  0
   39.3900   27.0490   38.8560 H   0  0  0  0  0  0  0  0  0  0  0  0
   39.7110   26.4790   40.0520 S   0  0  0  0  0  0  0  0  0  0  0  0
   41.1180   26.8140   40.4720 O   0  0  0  0  0  0  0  0  0  0  0  0
   39.5900   24.9750   40.0090 O   0  0  0  0  0  0  0  0  0  0  0  0
  1 15  1  0  0  0  0
  1  2  2  0  0  0  0
  2 29  1  0  0  0  0
  3  2  1  0  0  0  0
  4  5  2  0  0  0  0
  4  3  1  0  0  0  0
  5  1  1  0  0  0  0
  6  7  1  0  0  0  0
  6  4  1  0  0  0  0
  8  6  1  0  0  0  0
  9 10  1  0  0  0  0
 10 15  2  0  0  0  0
 10 11  1  0  0  0  0
 11 12  2  0  0  0  0
 12 16  1  0  0  0  0
 12 13  1  0  0  0  0
 13 17  1  0  0  0  0
 14 18  1  0  0  0  0
 14 13  2  0  0  0  0
 15 14  1  0  0  0  0
 19 20  1  0  0  0  0
 19 25  1  0  0  0  0
 20 26  1  0  0  0  0
 21 11  1  0  0  0  0
 21 20  2  0  0  0  0
 22 21  1  0  0  0  0
 23 22  2  0  0  0  0
 23 24  1  0  0  0  0
 24 19  2  0  0  0  0
 27 23  1  0  0  0  0
 28 35  1  0  0  0  0
 29 28  2  0  0  0  0
 29 30  1  0  0  0  0
 30 32  2  0  0  0  0
 31 30  1  0  0  0  0
 32 34  1  0  0  0  0
 32 33  1  0  0  0  0
 35 34  2  0  0  0  0
 36 37  1  0  0  0  0
 37 38  2  0  0  0  0
 37 28  1  0  0  0  0
 39 37  2  0  0  0  0
M  END
>  <minimizedAffinity>
-5.64559889

$$$$

 OpenBabel03242516073D

 39 42  0  0  0  0  0  0  0  0999 V2000
   37.4370   27.9370   41.4550 C   0  0  0  0  0  0  0  0  0  0  0  0
   38.7080   28.3740   41.8930 C   0  0  0  0  0  0  0  0  0  0  0  0
   38.4950   30.1790   42.0050 S   0  0  0  0  0  0  0  0  0  0  0  0
   36.6940   30.0470   41.4320 C   0  0  0  0  0  0  0  0  0  0  0  0
   36.6270   28.9400   41.3020 N   0  0  0  0  0  0  0  0  0  0  0  0
   35.7930   31.1430   41.2600 N   0  0  0  0  0  0  0  0  0  0  0  0
   36.2130   31.8720   40.6080 H   0  0  0  0  0  0  0  0  0  0  0  0
   34.8990   31.0520   41.7860 H   0  0  0  0  0  0  0  0  0  0  0  0
   36.9490   27.1770   38.6720 Cl  0  0  0  0  0  0  0  0  0  0  0  0
   36.8820   26.0180   39.9670 C   0  0  0  0  0  0  0  0  0  0  0  0
   36.5970   24.6980   39.7420 C   0  0  0  0  0  0  0  0  0  0  0  0
   36.5740   23.8900   40.8450 C   0  0  0  0  0  0  0  0  0  0  0  0
   36.8130   24.3310   42.0890 C   0  0  0  0  0  0  0  0  0  0  0  0
   37.0970   25.6450   42.3190 C   0  0  0  0  0  0  0  0  0  0  0  0
   37.1280   26.5000   41.2180 C   0  0  0  0  0  0  0  0  0  0  0  0
   36.3500   22.8330   40.6940 H   0  0  0  0  0  0  0  0  0  0  0  0
   36.7940   23.6820   42.9660 H   0  0  0  0  0  0  0  0  0  0  0  0
   37.2990   26.0580   43.3120 H   0  0  0  0  0  0  0  0  0  0  0  0
   37.0770   23.3700   36.2270 C   0  0  0  0  0  0  0  0  0  0  0  0
   37.3330   23.7790   37.5370 C   0  0  0  0  0  0  0  0  0  0  0  0
   36.3470   24.2720   38.3830 C   0  0  0  0  0  0  0  0  0  0  0  0
   35.0930   24.3290   37.8350 N   0  0  0  0  0  0  0  0  0  0  0  0
   34.8640   23.9310   36.5670 C   0  0  0  0  0  0  0  0  0  0  0  0
   35.8330   23.4590   35.7740 N   0  0  0  0  0  0  0  0  0  0  0  0
   37.9300   23.0110   35.6880 H   0  0  0  0  0  0  0  0  0  0  0  0
   38.3150   23.7490   38.0130 H   0  0  0  0  0  0  0  0  0  0  0  0
   33.8250   24.0200   36.2330 H   0  0  0  0  0  0  0  0  0  0  0  0
   40.7550   27.4090   41.1160 C   0  0  0  0  0  0  0  0  0  0  0  0
   39.9120   27.6200   42.1930 C   0  0  0  0  0  0  0  0  0  0  0  0
   40.2210   27.1370   43.4390 C   0  0  0  0  0  0  0  0  0  0  0  0
   39.5210   27.3360   44.2350 H   0  0  0  0  0  0  0  0  0  0  0  0
   41.3950   26.4180   43.6600 C   0  0  0  0  0  0  0  0  0  0  0  0
   41.5990   26.0550   44.6610 H   0  0  0  0  0  0  0  0  0  0  0  0
   42.2580   26.1880   42.6130 C   0  0  0  0  0  3  0  0  0  0  0  0
   41.9280   26.6870   41.3530 C   0  0  0  0  0  3  0  0  0  0  0  0
   39.2080   27.8210   39.1560 H   0  0  0  0  0  0  0  0  0  0  0  0
   40.5270   27.9450   39.4740 S   0  0  0  0  0  0  0  0  0  0  0  0
   40.9980   29.3720   39.3600 O   0  0  0  0  0  0  0  0  0  0  0  0
   41.4040   27.1000   38.5820 O   0  0  0  0  0  0  0  0  0  0  0  0
  1  2  2  0  0  0  0
  2  3  1  0  0  0  0
  2 29  1  0  0  0  0
  4  3  1  0  0  0  0
  5  4  2  0  0  0  0
  5  1  1  0  0  0  0
  6  4  1  0  0  0  0
  6  8  1  0  0  0  0
  7  6  1  0  0  0  0
  9 10  1  0  0  0  0
 10 15  1  0  0  0  0
 11 10  2  0  0  0  0
 11 12  1  0  0  0  0
 12 13  2  0  0  0  0
 13 14  1  0  0  0  0
 13 17  1  0  0  0  0
 14 18  1  0  0  0  0
 15  1  1  0  0  0  0
 15 14  2  0  0  0  0
 16 12  1  0  0  0  0
 19 20  1  0  0  0  0
 20 26  1  0  0  0  0
 20 21  2  0  0  0  0
 21 11  1  0  0  0  0
 22 21  1  0  0  0  0
 23 22  2  0  0  0  0
 24 19  2  0  0  0  0
 24 23  1  0  0  0  0
 25 19  1  0  0  0  0
 27 23  1  0  0  0  0
 28 35  2  0  0  0  0
 28 29  1  0  0  0  0
 29 30  2  0  0  0  0
 30 32  1  0  0  0  0
 30 31  1  0  0  0  0
 32 33  1  0  0  0  0
 34 32  2  0  0  0  0
 35 34  1  0  0  0  0
 36 37  1  0  0  0  0
 37 28  1  0  0  0  0
 38 37  2  0  0  0  0
 39 37  2  0  0  0  0
M  END
>  <minimizedAffinity>
-5.64411259

$$$$

 OpenBabel03242516073D

 39 42  0  0  0  0  0  0  0  0999 V2000
   40.1380   29.0060   39.9120 C   0  0  0  0  0  0  0  0  0  0  0  0
   39.9900   28.1470   41.0250 C   0  0  0  0  0  0  0  0  0  0  0  0
   41.6200   27.3430   41.1310 S   0  0  0  0  0  0  0  0  0  0  0  0
   42.2460   28.3140   39.6300 C   0  0  0  0  0  0  0  0  0  0  0  0
   41.3280   28.9060   39.4020 N   0  0  0  0  0  0  0  0  0  0  0  0
   43.5540   28.2130   39.0610 N   0  0  0  0  0  0  0  0  0  0  0  0
   43.7780   27.2010   38.8190 H   0  0  0  0  0  0  0  0  0  0  0  0
   44.0590   29.1200   38.9780 H   0  0  0  0  0  0  0  0  0  0  0  0
   38.4110   27.8810   37.8350 Cl  0  0  0  0  0  0  0  0  0  0  0  0
   38.1630   29.4810   38.4700 C   0  0  0  0  0  0  0  0  0  0  0  0
   37.1480   30.2850   38.0260 C   0  0  0  0  0  0  0  0  0  0  0  0
   37.0610   31.5200   38.6060 C   0  0  0  0  0  0  0  0  0  0  0  0
   37.9030   31.9510   39.5570 C   0  0  0  0  0  0  0  0  0  0  0  0
   38.9160   31.1540   40.0030 C   0  0  0  0  0  0  0  0  0  0  0  0
   39.0370   29.8870   39.4340 C   0  0  0  0  0  0  0  0  0  0  0  0
   36.2620   32.1820   38.2710 H   0  0  0  0  0  0  0  0  0  0  0  0
   37.8300   32.9380   40.0170 H   0  0  0  0  0  0  0  0  0  0  0  0
   39.6310   31.4540   40.7750 H   0  0  0  0  0  0  0  0  0  0  0  0
   34.2360   28.6230   36.2650 C   0  0  0  0  0  0  0  0  0  0  0  0
   35.0780   29.1090   37.2670 C   0  0  0  0  0  0  0  0  0  0  0  0
   36.2670   29.7750   36.9990 C   0  0  0  0  0  0  0  0  0  0  0  0
   36.5590   29.9220   35.6690 N   0  0  0  0  0  0  0  0  0  0  0  0
   35.7350   29.4450   34.7150 C   0  0  0  0  0  0  0  0  0  0  0  0
   34.5940   28.8070   35.0000 N   0  0  0  0  0  0  0  0  0  0  0  0
   33.3520   28.1300   36.6140 H   0  0  0  0  0  0  0  0  0  0  0  0
   34.8830   29.0150   38.3370 H   0  0  0  0  0  0  0  0  0  0  0  0
   36.0670   29.6180   33.6850 H   0  0  0  0  0  0  0  0  0  0  0  0
   38.1680   26.7400   41.6780 C   0  0  0  0  0  0  0  0  0  0  0  0
   38.8510   27.9230   41.8960 C   0  0  0  0  0  0  0  0  0  0  0  0
   38.4530   28.8000   42.8740 C   0  0  0  0  0  0  0  0  0  0  0  0
   39.0280   29.7040   42.9930 H   0  0  0  0  0  0  0  0  0  0  0  0
   37.3470   28.5250   43.6790 C   0  0  0  0  0  0  0  0  0  0  0  0
   37.0680   29.2450   44.4390 H   0  0  0  0  0  0  0  0  0  0  0  0
   36.6430   27.3570   43.4900 C   0  0  0  0  0  3  0  0  0  0  0  0
   37.0630   26.4780   42.4920 C   0  0  0  0  0  3  0  0  0  0  0  0
   39.2970   26.0720   39.5120 H   0  0  0  0  0  0  0  0  0  0  0  0
   38.5290   25.5160   40.4910 S   0  0  0  0  0  0  0  0  0  0  0  0
   39.2330   24.3720   41.1730 O   0  0  0  0  0  0  0  0  0  0  0  0
   37.2200   24.9920   39.9510 O   0  0  0  0  0  0  0  0  0  0  0  0
  1  2  2  0  0  0  0
  2  3  1  0  0  0  0
  2 29  1  0  0  0  0
  4  3  1  0  0  0  0
  5  4  2  0  0  0  0
  5  1  1  0  0  0  0
  6  4  1  0  0  0  0
  7  6  1  0  0  0  0
  8  6  1  0  0  0  0
  9 10  1  0  0  0  0
 10 15  1  0  0  0  0
 11 10  2  0  0  0  0
 11 12  1  0  0  0  0
 12 13  2  0  0  0  0
 13 14  1  0  0  0  0
 13 17  1  0  0  0  0
 14 18  1  0  0  0  0
 15  1  1  0  0  0  0
 15 14  2  0  0  0  0
 16 12  1  0  0  0  0
 19 25  1  0  0  0  0
 19 20  1  0  0  0  0
 20 26  1  0  0  0  0
 21 20  2  0  0  0  0
 21 11  1  0  0  0  0
 22 21  1  0  0  0  0
 23 24  1  0  0  0  0
 23 22  2  0  0  0  0
 24 19  2  0  0  0  0
 27 23  1  0  0  0  0
 28 29  2  0  0  0  0
 28 35  1  0  0  0  0
 29 30  1  0  0  0  0
 30 31  1  0  0  0  0
 30 32  2  0  0  0  0
 32 33  1  0  0  0  0
 34 32  1  0  0  0  0
 35 34  2  0  0  0  0
 36 37  1  0  0  0  0
 37 38  2  0  0  0  0
 37 28  1  0  0  0  0
 39 37  2  0  0  0  0
M  END
>  <minimizedAffinity>
-5.56477928

$$$$

 OpenBabel03242516073D

 39 42  0  0  0  0  0  0  0  0999 V2000
   37.2010   28.4880   41.1170 C   0  0  0  0  0  0  0  0  0  0  0  0
   37.8150   29.7550   40.9840 C   0  0  0  0  0  0  0  0  0  0  0  0
   36.4570   30.7950   40.3630 S   0  0  0  0  0  0  0  0  0  0  0  0
   35.2620   29.3260   40.3840 C   0  0  0  0  0  0  0  0  0  0  0  0
   35.9540   28.5360   40.7620 N   0  0  0  0  0  0  0  0  0  0  0  0
   33.8860   29.3670   39.9960 N   0  0  0  0  0  0  0  0  0  0  0  0
   33.7880   29.7590   39.0110 H   0  0  0  0  0  0  0  0  0  0  0  0
   33.2240   29.0170   40.7190 H   0  0  0  0  0  0  0  0  0  0  0  0
   37.5130   26.3040   39.1960 Cl  0  0  0  0  0  0  0  0  0  0  0  0
   38.1550   26.2070   40.8090 C   0  0  0  0  0  0  0  0  0  0  0  0
   38.8340   25.1050   41.2520 C   0  0  0  0  0  0  0  0  0  0  0  0
   39.2880   25.1540   42.5410 C   0  0  0  0  0  0  0  0  0  0  0  0
   39.0960   26.2050   43.3520 C   0  0  0  0  0  0  0  0  0  0  0  0
   38.4200   27.3060   42.9160 C   0  0  0  0  0  0  0  0  0  0  0  0
   37.9420   27.2920   41.6060 C   0  0  0  0  0  0  0  0  0  0  0  0
   39.8320   24.2880   42.9200 H   0  0  0  0  0  0  0  0  0  0  0  0
   39.4600   26.2400   44.3800 H   0  0  0  0  0  0  0  0  0  0  0  0
   38.2350   28.1900   43.5340 H   0  0  0  0  0  0  0  0  0  0  0  0
   38.4170   21.7870   39.4720 C   0  0  0  0  0  0  0  0  0  0  0  0
   38.2330   22.8490   40.3600 C   0  0  0  0  0  0  0  0  0  0  0  0
   39.0140   23.9970   40.3400 C   0  0  0  0  0  0  0  0  0  0  0  0
   39.9890   24.0140   39.3770 N   0  0  0  0  0  0  0  0  0  0  0  0
   40.1530   22.9800   38.5290 C   0  0  0  0  0  0  0  0  0  0  0  0
   39.3860   21.8840   38.5700 N   0  0  0  0  0  0  0  0  0  0  0  0
   37.7430   20.9650   39.6010 H   0  0  0  0  0  0  0  0  0  0  0  0
   37.4690   22.8770   41.1400 H   0  0  0  0  0  0  0  0  0  0  0  0
   40.9630   23.1000   37.8000 H   0  0  0  0  0  0  0  0  0  0  0  0
   40.0470   30.0860   40.1860 C   0  0  0  0  0  0  0  0  0  0  0  0
   39.1770   30.1740   41.2590 C   0  0  0  0  0  0  0  0  0  0  0  0
   39.6060   30.6280   42.4810 C   0  0  0  0  0  0  0  0  0  0  0  0
   38.8790   30.6730   43.2750 H   0  0  0  0  0  0  0  0  0  0  0  0
   40.9310   31.0160   42.6790 C   0  0  0  0  0  0  0  0  0  0  0  0
   41.2260   31.3690   43.6610 H   0  0  0  0  0  0  0  0  0  0  0  0
   41.8240   30.9420   41.6340 C   0  0  0  0  0  3  0  0  0  0  0  0
   41.3710   30.4780   40.4000 C   0  0  0  0  0  3  0  0  0  0  0  0
   38.6960   28.5980   38.6460 H   0  0  0  0  0  0  0  0  0  0  0  0
   39.6810   29.5370   38.5730 S   0  0  0  0  0  0  0  0  0  0  0  0
   39.2650   30.7220   37.7410 O   0  0  0  0  0  0  0  0  0  0  0  0
   40.9490   28.9770   37.9740 O   0  0  0  0  0  0  0  0  0  0  0  0
  1 15  1  0  0  0  0
  2  1  2  0  0  0  0
  2 29  1  0  0  0  0
  3  4  1  0  0  0  0
  3  2  1  0  0  0  0
  4  5  2  0  0  0  0
  5  1  1  0  0  0  0
  6  4  1  0  0  0  0
  6  8  1  0  0  0  0
  7  6  1  0  0  0  0
  9 10  1  0  0  0  0
 10 11  2  0  0  0  0
 10 15  1  0  0  0  0
 11 12  1  0  0  0  0
 12 16  1  0  0  0  0
 12 13  2  0  0  0  0
 13 17  1  0  0  0  0
 14 13  1  0  0  0  0
 14 18  1  0  0  0  0
 15 14  2  0  0  0  0
 19 25  1  0  0  0  0
 19 20  1  0  0  0  0
 20 26  1  0  0  0  0
 21 20  2  0  0  0  0
 21 11  1  0  0  0  0
 22 21  1  0  0  0  0
 23 24  1  0  0  0  0
 23 22  2  0  0  0  0
 24 19  2  0  0  0  0
 27 23  1  0  0  0  0
 28 35  2  0  0  0  0
 28 29  1  0  0  0  0
 29 30  2  0  0  0  0
 30 32  1  0  0  0  0
 30 31  1  0  0  0  0
 32 33  1  0  0  0  0
 34 32  2  0  0  0  0
 35 34  1  0  0  0  0
 37 36  1  0  0  0  0
 37 28  1  0  0  0  0
 38 37  2  0  0  0  0
 39 37  2  0  0  0  0
M  END
>  <minimizedAffinity>
-5.45228386

$$$$

 OpenBabel03242516073D

 39 42  0  0  0  0  0  0  0  0999 V2000
   38.8900   29.5420   40.5900 C   0  0  0  0  0  0  0  0  0  0  0  0
   39.1230   28.8130   41.7780 C   0  0  0  0  0  0  0  0  0  0  0  0
   37.6020   29.1090   42.7340 S   0  0  0  0  0  0  0  0  0  0  0  0
   36.8880   30.1870   41.3500 C   0  0  0  0  0  0  0  0  0  0  0  0
   37.7310   30.1260   40.6210 N   0  0  0  0  0  0  0  0  0  0  0  0
   35.6130   30.8340   41.3730 N   0  0  0  0  0  0  0  0  0  0  0  0
   35.5200   31.4420   42.2410 H   0  0  0  0  0  0  0  0  0  0  0  0
   35.0020   30.6110   40.5590 H   0  0  0  0  0  0  0  0  0  0  0  0
   40.6190   31.9020   40.5370 Cl  0  0  0  0  0  0  0  0  0  0  0  0
   40.7480   30.6420   39.3450 C   0  0  0  0  0  0  0  0  0  0  0  0
   41.6630   30.6980   38.3300 C   0  0  0  0  0  0  0  0  0  0  0  0
   41.6620   29.6440   37.4590 C   0  0  0  0  0  0  0  0  0  0  0  0
   40.8270   28.5990   37.5640 C   0  0  0  0  0  0  0  0  0  0  0  0
   39.9120   28.5380   38.5740 C   0  0  0  0  0  0  0  0  0  0  0  0
   39.8840   29.5960   39.4820 C   0  0  0  0  0  0  0  0  0  0  0  0
   42.3820   29.6630   36.6390 H   0  0  0  0  0  0  0  0  0  0  0  0
   40.8300   27.7600   36.8660 H   0  0  0  0  0  0  0  0  0  0  0  0
   39.2080   27.7120   38.7070 H   0  0  0  0  0  0  0  0  0  0  0  0
   43.1000   34.1000   37.4880 C   0  0  0  0  0  0  0  0  0  0  0  0
   42.2430   32.9990   37.5470 C   0  0  0  0  0  0  0  0  0  0  0  0
   42.5410   31.8450   38.2590 C   0  0  0  0  0  0  0  0  0  0  0  0
   43.7480   31.8630   38.9080 N   0  0  0  0  0  0  0  0  0  0  0  0
   44.5630   32.9350   38.8390 C   0  0  0  0  0  0  0  0  0  0  0  0
   44.2510   34.0350   38.1450 N   0  0  0  0  0  0  0  0  0  0  0  0
   42.7440   34.9230   36.9020 H   0  0  0  0  0  0  0  0  0  0  0  0
   41.2740   32.9440   37.0470 H   0  0  0  0  0  0  0  0  0  0  0  0
   45.5020   32.8400   39.3960 H   0  0  0  0  0  0  0  0  0  0  0  0
   40.1580   26.6600   41.9210 C   0  0  0  0  0  0  0  0  0  0  0  0
   40.2640   28.0150   42.1850 C   0  0  0  0  0  0  0  0  0  0  0  0
   41.3830   28.5310   42.7890 C   0  0  0  0  0  0  0  0  0  0  0  0
   41.4030   29.5940   42.9670 H   0  0  0  0  0  0  0  0  0  0  0  0
   42.4470   27.7080   43.1560 C   0  0  0  0  0  0  0  0  0  0  0  0
   43.3100   28.1580   43.6310 H   0  0  0  0  0  0  0  0  0  0  0  0
   42.3750   26.3550   42.9090 C   0  0  0  0  0  3  0  0  0  0  0  0
   41.2320   25.8480   42.2940 C   0  0  0  0  0  3  0  0  0  0  0  0
   38.1680   26.7140   40.3570 H   0  0  0  0  0  0  0  0  0  0  0  0
   38.8230   25.8340   41.1650 S   0  0  0  0  0  0  0  0  0  0  0  0
   39.3570   24.6550   40.3920 O   0  0  0  0  0  0  0  0  0  0  0  0
   37.9280   25.2990   42.2570 O   0  0  0  0  0  0  0  0  0  0  0  0
  1  5  1  0  0  0  0
  1  2  2  0  0  0  0
  2 29  1  0  0  0  0
  2  3  1  0  0  0  0
  4  6  1  0  0  0  0
  4  3  1  0  0  0  0
  5  4  2  0  0  0  0
  6  7  1  0  0  0  0
  8  6  1  0  0  0  0
 10 15  1  0  0  0  0
 10  9  1  0  0  0  0
 11 10  2  0  0  0  0
 12 13  2  0  0  0  0
 12 11  1  0  0  0  0
 13 14  1  0  0  0  0
 14 18  1  0  0  0  0
 14 15  2  0  0  0  0
 15  1  1  0  0  0  0
 16 12  1  0  0  0  0
 17 13  1  0  0  0  0
 19 20  2  0  0  0  0
 19 24  1  0  0  0  0
 20 21  1  0  0  0  0
 21 11  1  0  0  0  0
 21 22  2  0  0  0  0
 23 22  1  0  0  0  0
 23 27  1  0  0  0  0
 24 23  2  0  0  0  0
 25 19  1  0  0  0  0
 26 20  1  0  0  0  0
 28 29  2  0  0  0  0
 28 35  1  0  0  0  0
 29 30  1  0  0  0  0
 30 31  1  0  0  0  0
 30 32  2  0  0  0  0
 32 33  1  0  0  0  0
 34 32  1  0  0  0  0
 35 34  2  0  0  0  0
 36 37  1  0  0  0  0
 37 28  1  0  0  0  0
 37 39  2  0  0  0  0
 38 37  2  0  0  0  0
M  END
>  <minimizedAffinity>
-5.44632435

$$$$

 OpenBabel03242516073D

 39 42  0  0  0  0  0  0  0  0999 V2000
   38.2290   29.1910   41.1390 C   0  0  0  0  0  0  0  0  0  0  0  0
   37.0970   28.3580   40.9830 C   0  0  0  0  0  0  0  0  0  0  0  0
   35.7750   29.5470   40.5960 S   0  0  0  0  0  0  0  0  0  0  0  0
   36.9850   30.9990   40.7090 C   0  0  0  0  0  0  0  0  0  0  0  0
   37.9180   30.4380   40.9560 N   0  0  0  0  0  0  0  0  0  0  0  0
   36.6540   32.3760   40.5100 N   0  0  0  0  0  0  0  0  0  0  0  0
   35.8540   32.6630   41.1500 H   0  0  0  0  0  0  0  0  0  0  0  0
   37.2340   32.8590   39.7920 H   0  0  0  0  0  0  0  0  0  0  0  0
   39.8970   28.4330   38.8570 Cl  0  0  0  0  0  0  0  0  0  0  0  0
   40.4490   28.2600   40.4970 C   0  0  0  0  0  0  0  0  0  0  0  0
   41.6890   27.7620   40.7930 C   0  0  0  0  0  0  0  0  0  0  0  0
   42.0020   27.6770   42.1220 C   0  0  0  0  0  0  0  0  0  0  0  0
   41.1680   28.0510   43.1030 C   0  0  0  0  0  0  0  0  0  0  0  0
   39.9320   28.5480   42.8140 C   0  0  0  0  0  0  0  0  0  0  0  0
   39.5760   28.6490   41.4690 C   0  0  0  0  0  0  0  0  0  0  0  0
   42.9850   27.2820   42.3860 H   0  0  0  0  0  0  0  0  0  0  0  0
   41.4230   27.9810   44.1620 H   0  0  0  0  0  0  0  0  0  0  0  0
   39.2120   28.8670   43.5730 H   0  0  0  0  0  0  0  0  0  0  0  0
   43.4530   25.7180   38.1360 C   0  0  0  0  0  0  0  0  0  0  0  0
   42.6160   26.0810   39.1930 C   0  0  0  0  0  0  0  0  0  0  0  0
   42.5510   27.3720   39.7000 C   0  0  0  0  0  0  0  0  0  0  0  0
   43.3760   28.2760   39.0820 N   0  0  0  0  0  0  0  0  0  0  0  0
   44.1780   27.9080   38.0630 C   0  0  0  0  0  0  0  0  0  0  0  0
   44.2210   26.6560   37.5940 N   0  0  0  0  0  0  0  0  0  0  0  0
   43.4010   24.6890   37.8480 H   0  0  0  0  0  0  0  0  0  0  0  0
   41.9430   25.3940   39.7120 H   0  0  0  0  0  0  0  0  0  0  0  0
   44.7950   28.7110   37.6450 H   0  0  0  0  0  0  0  0  0  0  0  0
   36.7540   26.2530   39.8970 C   0  0  0  0  0  0  0  0  0  0  0  0
   36.9670   26.9160   41.0930 C   0  0  0  0  0  0  0  0  0  0  0  0
   37.0430   26.2300   42.2790 C   0  0  0  0  0  0  0  0  0  0  0  0
   37.2110   26.8060   43.1740 H   0  0  0  0  0  0  0  0  0  0  0  0
   36.9090   24.8420   42.3150 C   0  0  0  0  0  0  0  0  0  0  0  0
   36.9760   24.3410   43.2740 H   0  0  0  0  0  0  0  0  0  0  0  0
   36.6950   24.1490   41.1450 C   0  0  0  0  0  3  0  0  0  0  0  0
   36.6200   24.8630   39.9500 C   0  0  0  0  0  3  0  0  0  0  0  0
   37.2080   28.1900   38.3320 H   0  0  0  0  0  0  0  0  0  0  0  0
   36.6300   26.9560   38.3080 S   0  0  0  0  0  0  0  0  0  0  0  0
   37.3060   26.0410   37.3190 O   0  0  0  0  0  0  0  0  0  0  0  0
   35.1660   27.0260   37.9420 O   0  0  0  0  0  0  0  0  0  0  0  0
  1 15  1  0  0  0  0
  2 29  1  0  0  0  0
  2  1  2  0  0  0  0
  3  4  1  0  0  0  0
  3  2  1  0  0  0  0
  4  5  2  0  0  0  0
  5  1  1  0  0  0  0
  6  4  1  0  0  0  0
  6  7  1  0  0  0  0
  8  6  1  0  0  0  0
  9 10  1  0  0  0  0
 10 11  2  0  0  0  0
 10 15  1  0  0  0  0
 11 12  1  0  0  0  0
 12 16  1  0  0  0  0
 12 13  2  0  0  0  0
 13 17  1  0  0  0  0
 14 13  1  0  0  0  0
 14 18  1  0  0  0  0
 15 14  2  0  0  0  0
 19 20  1  0  0  0  0
 20 21  2  0  0  0  0
 20 26  1  0  0  0  0
 21 11  1  0  0  0  0
 22 21  1  0  0  0  0
 23 22  2  0  0  0  0
 24 23  1  0  0  0  0
 24 19  2  0  0  0  0
 25 19  1  0  0  0  0
 27 23  1  0  0  0  0
 28 35  2  0  0  0  0
 28 29  1  0  0  0  0
 29 30  2  0  0  0  0
 30 32  1  0  0  0  0
 30 31  1  0  0  0  0
 32 33  1  0  0  0  0
 34 32  2  0  0  0  0
 35 34  1  0  0  0  0
 37 36  1  0  0  0  0
 37 28  1  0  0  0  0
 38 37  2  0  0  0  0
 39 37  2  0  0  0  0
M  END
>  <minimizedAffinity>
-5.44496775

$$$$

 OpenBabel03242516073D

 39 42  0  0  0  0  0  0  0  0999 V2000
   35.7050   28.2620   39.3420 C   0  0  0  0  0  0  0  0  0  0  0  0
   36.0270   27.0620   38.6680 C   0  0  0  0  0  0  0  0  0  0  0  0
   34.6720   26.9010   37.4640 S   0  0  0  0  0  0  0  0  0  0  0  0
   33.8770   28.5070   38.0760 C   0  0  0  0  0  0  0  0  0  0  0  0
   34.6110   28.7800   38.8720 N   0  0  0  0  0  0  0  0  0  0  0  0
   32.6730   29.0870   37.5660 N   0  0  0  0  0  0  0  0  0  0  0  0
   31.8770   28.3820   37.6000 H   0  0  0  0  0  0  0  0  0  0  0  0
   32.7700   30.0760   37.2550 H   0  0  0  0  0  0  0  0  0  0  0  0
   37.3570   30.5750   38.6480 Cl  0  0  0  0  0  0  0  0  0  0  0  0
   37.3630   29.8870   40.2450 C   0  0  0  0  0  0  0  0  0  0  0  0
   38.1410   30.3960   41.2490 C   0  0  0  0  0  0  0  0  0  0  0  0
   38.0550   29.7640   42.4590 C   0  0  0  0  0  0  0  0  0  0  0  0
   37.2640   28.7040   42.6840 C   0  0  0  0  0  0  0  0  0  0  0  0
   36.4870   28.1920   41.6870 C   0  0  0  0  0  0  0  0  0  0  0  0
   36.5490   28.8110   40.4390 C   0  0  0  0  0  0  0  0  0  0  0  0
   38.6650   30.1500   43.2770 H   0  0  0  0  0  0  0  0  0  0  0  0
   37.1980   28.2040   43.6510 H   0  0  0  0  0  0  0  0  0  0  0  0
   35.8240   27.3310   41.8150 H   0  0  0  0  0  0  0  0  0  0  0  0
   41.1360   32.5650   40.4270 C   0  0  0  0  0  0  0  0  0  0  0  0
   40.3410   31.4520   40.7090 C   0  0  0  0  0  0  0  0  0  0  0  0
   38.9770   31.5400   40.9570 C   0  0  0  0  0  0  0  0  0  0  0  0
   38.4620   32.8080   40.9030 N   0  0  0  0  0  0  0  0  0  0  0  0
   39.2450   33.8710   40.6300 C   0  0  0  0  0  0  0  0  0  0  0  0
   40.5570   33.7580   40.3950 N   0  0  0  0  0  0  0  0  0  0  0  0
   42.1720   32.3520   40.2570 H   0  0  0  0  0  0  0  0  0  0  0  0
   40.7110   30.4260   40.7600 H   0  0  0  0  0  0  0  0  0  0  0  0
   38.7270   34.8370   40.6140 H   0  0  0  0  0  0  0  0  0  0  0  0
   38.2550   26.4220   38.0740 C   0  0  0  0  0  0  0  0  0  0  0  0
   37.1420   26.1510   38.8500 C   0  0  0  0  0  0  0  0  0  0  0  0
   37.1280   25.0880   39.7180 C   0  0  0  0  0  0  0  0  0  0  0  0
   36.2310   24.9320   40.2940 H   0  0  0  0  0  0  0  0  0  0  0  0
   38.2350   24.2490   39.8460 C   0  0  0  0  0  0  0  0  0  0  0  0
   38.1800   23.4220   40.5440 H   0  0  0  0  0  0  0  0  0  0  0  0
   39.3590   24.4890   39.0890 C   0  0  0  0  0  3  0  0  0  0  0  0
   39.3560   25.5730   38.2120 C   0  0  0  0  0  3  0  0  0  0  0  0
   37.9090   28.8520   37.4540 H   0  0  0  0  0  0  0  0  0  0  0  0
   38.4520   27.7190   36.9260 S   0  0  0  0  0  0  0  0  0  0  0  0
   39.9190   27.8860   36.6300 O   0  0  0  0  0  0  0  0  0  0  0  0
   37.7680   27.3120   35.6430 O   0  0  0  0  0  0  0  0  0  0  0  0
  1 15  1  0  0  0  0
  2 29  1  0  0  0  0
  2  1  2  0  0  0  0
  3  4  1  0  0  0  0
  3  2  1  0  0  0  0
  4  5  2  0  0  0  0
  5  1  1  0  0  0  0
  6  7  1  0  0  0  0
  6  4  1  0  0  0  0
  8  6  1  0  0  0  0
  9 10  1  0  0  0  0
 10 15  2  0  0  0  0
 10 11  1  0  0  0  0
 11 12  2  0  0  0  0
 12 13  1  0  0  0  0
 12 16  1  0  0  0  0
 13 17  1  0  0  0  0
 14 18  1  0  0  0  0
 14 13  2  0  0  0  0
 15 14  1  0  0  0  0
 19 20  1  0  0  0  0
 20 26  1  0  0  0  0
 20 21  2  0  0  0  0
 21 11  1  0  0  0  0
 22 21  1  0  0  0  0
 23 22  2  0  0  0  0
 24 19  2  0  0  0  0
 24 23  1  0  0  0  0
 25 19  1  0  0  0  0
 27 23  1  0  0  0  0
 28 35  2  0  0  0  0
 28 29  1  0  0  0  0
 29 30  2  0  0  0  0
 30 32  1  0  0  0  0
 30 31  1  0  0  0  0
 32 33  1  0  0  0  0
 34 32  2  0  0  0  0
 35 34  1  0  0  0  0
 37 36  1  0  0  0  0
 37 28  1  0  0  0  0
 38 37  2  0  0  0  0
 39 37  2  0  0  0  0
M  END
>  <minimizedAffinity>
-5.40795422

$$$$
