
 OpenBabel03252506423D

 43 46  0  0  1  0  0  0  0  0999 V2000
   49.3250   33.0830   41.5840 N   0  0  1  0  0  0  0  0  0  0  0  0
   50.7090   33.1530   41.9350 C   0  0  0  0  0  0  0  0  0  0  0  0
   51.4830   31.8990   41.7690 C   0  0  0  0  0  0  0  0  0  0  0  0
   50.9410   30.8350   42.6740 C   0  0  0  0  0  0  0  0  0  0  0  0
   49.4690   30.9860   42.8300 C   0  0  0  0  0  0  0  0  0  0  0  0
   48.8400   31.7200   41.7190 C   0  0  2  0  0  0  0  0  0  0  0  0
   50.8060   33.4450   43.0190 H   0  0  0  0  0  0  0  0  0  0  0  0
   51.2580   33.9460   41.3480 H   0  0  0  0  0  0  0  0  0  0  0  0
   51.7140   31.5650   40.7630 H   0  0  0  0  0  0  0  0  0  0  0  0
   52.5150   32.1380   42.2040 H   0  0  0  0  0  0  0  0  0  0  0  0
   51.2190   29.8090   42.2920 H   0  0  0  0  0  0  0  0  0  0  0  0
   51.4110   30.9000   43.6800 H   0  0  0  0  0  0  0  0  0  0  0  0
   49.0690   29.9970   42.9850 H   0  0  0  0  0  0  0  0  0  0  0  0
   49.2380   31.5590   43.7720 H   0  0  0  0  0  0  0  0  0  0  0  0
   47.7870   31.9420   42.1050 H   0  0  0  0  0  0  0  0  0  0  0  0
   47.9910   31.7680   39.4140 C   0  0  0  0  0  0  0  0  0  0  0  0
   48.6050   31.0390   40.4490 C   0  0  0  0  0  0  0  0  0  0  0  0
   48.9580   29.7130   40.1550 C   0  0  0  0  0  0  0  0  0  0  0  0
   49.4450   29.1270   40.9230 H   0  0  0  0  0  0  0  0  0  0  0  0
   48.7610   29.0820   38.9700 C   0  0  0  0  0  0  0  0  0  0  0  0
   49.0590   28.0550   38.8120 H   0  0  0  0  0  0  0  0  0  0  0  0
   48.1650   29.7730   37.9500 C   0  0  0  0  0  3  0  0  0  0  0  0
   47.8030   31.0800   38.2030 C   0  0  0  0  0  3  0  0  0  0  0  0
   47.4010   33.8890   40.8120 H   0  0  0  0  0  0  0  0  0  0  0  0
   47.4580   33.3960   39.5100 S   0  0  0  0  0  0  0  0  0  0  0  0
   48.0570   34.3670   38.5730 O   0  0  0  0  0  0  0  0  0  0  0  0
   45.9730   33.4430   39.1270 O   0  0  0  0  0  0  0  0  0  0  0  0
   47.2830   34.5850   42.0190 C   0  0  1  0  0  0  0  0  0  0  0  0
   48.4690   35.3870   41.8100 C   0  0  0  0  0  0  0  0  0  0  0  0
   48.6450   34.0350   42.4200 C   0  0  2  0  0  0  0  0  0  0  0  0
   46.8320   33.9800   41.1910 H   0  0  0  0  0  0  0  0  0  0  0  0
   48.5980   36.2780   42.4860 H   0  0  0  0  0  0  0  0  0  0  0  0
   48.8780   35.5980   40.8120 H   0  0  0  0  0  0  0  0  0  0  0  0
   48.8680   33.9810   43.5000 H   0  0  0  0  0  0  0  0  0  0  0  0
   45.5690   36.0970   43.0920 C   0  0  0  0  0  0  0  0  0  0  0  0
   46.3190   34.8880   43.1070 C   0  0  0  0  0  0  0  0  0  0  0  0
   46.1120   34.0280   44.1690 C   0  0  0  0  0  0  0  0  0  0  0  0
   45.2100   34.3980   45.1150 N   0  0  0  0  0  0  0  0  0  0  0  0
   44.5120   35.5490   45.0770 C   0  0  0  0  0  0  0  0  0  0  0  0
   44.6860   36.4230   44.0500 N   0  0  0  0  0  0  0  0  0  0  0  0
   45.7760   36.7310   42.2310 H   0  0  0  0  0  0  0  0  0  0  0  0
   46.6540   33.0950   44.2350 H   0  0  0  0  0  0  0  0  0  0  0  0
   43.8050   35.7900   45.8610 H   0  0  0  0  0  0  0  0  0  0  0  0
  1  6  1  0  0  0  0
  1  2  1  1  0  0  0
  1 30  1  0  0  0  0
  2  7  1  0  0  0  0
  3  2  1  0  0  0  0
  3 10  1  0  0  0  0
  3  4  1  0  0  0  0
  4  5  1  0  0  0  0
  4 12  1  0  0  0  0
  5 13  1  0  0  0  0
  5 14  1  0  0  0  0
  6 15  1  1  0  0  0
  6  5  1  0  0  0  0
  8  2  1  0  0  0  0
  9  3  1  0  0  0  0
 11  4  1  0  0  0  0
 16 25  1  0  0  0  0
 16 17  1  0  0  0  0
 17  6  1  0  0  0  0
 18 17  2  0  0  0  0
 18 19  1  0  0  0  0
 20 18  1  0  0  0  0
 21 20  1  0  0  0  0
 22 23  1  0  0  0  0
 22 20  2  0  0  0  0
 23 16  2  0  0  0  0
 25 24  1  0  0  0  0
 26 25  2  0  0  0  0
 27 25  2  0  0  0  0
 28 31  1  6  0  0  0
 28 30  1  0  0  0  0
 28 36  1  0  0  0  0
 29 28  1  0  0  0  0
 29 30  1  0  0  0  0
 29 32  1  0  0  0  0
 30 34  1  1  0  0  0
 33 29  1  0  0  0  0
 35 36  2  0  0  0  0
 35 40  1  0  0  0  0
 36 37  1  0  0  0  0
 37 42  1  0  0  0  0
 37 38  2  0  0  0  0
 39 38  1  0  0  0  0
 39 43  1  0  0  0  0
 40 39  2  0  0  0  0
 41 35  1  0  0  0  0
M  END
>  <minimizedAffinity>
-4.87587214

>  <minimizedRMSD>
0.638267398

$$$$
