
 OpenBabel03252509073D

 44 47  0  0  0  0  0  0  0  0999 V2000
   47.5710   31.8290   38.9060 C   0  0  0  0  0  0  0  0  0  0  0  0
   47.1540   33.1260   38.9340 C   0  0  0  0  0  0  0  0  0  0  0  0
   47.8100   34.0730   38.1650 C   0  0  0  0  0  0  0  0  0  0  0  0
   48.8760   33.7260   37.3780 C   0  0  0  0  0  0  0  0  0  0  0  0
   49.3360   32.4160   37.3200 C   0  0  0  0  0  0  0  0  0  0  0  0
   48.6610   31.4750   38.1000 C   0  0  0  0  0  0  0  0  0  0  0  0
   47.5070   35.1010   38.1630 H   0  0  0  0  0  0  0  0  0  0  0  0
   49.4140   34.4090   36.7710 H   0  0  0  0  0  0  0  0  0  0  0  0
   50.1520   32.0450   36.7420 H   0  0  0  0  0  0  0  0  0  0  0  0
   48.9930   30.4260   38.0830 H   0  0  0  0  0  0  0  0  0  0  0  0
   45.3670   35.3180   43.2550 Cl  0  0  0  0  0  0  0  0  0  0  0  0
   45.1810   34.5810   41.6820 C   0  0  0  0  0  0  0  0  0  0  0  0
   46.2640   34.1700   40.9720 C   0  0  0  0  0  0  0  0  0  0  0  0
   46.0270   33.6080   39.7250 C   0  0  0  0  0  0  0  0  0  0  0  0
   44.7690   33.4790   39.2360 C   0  0  0  0  0  0  0  0  0  0  0  0
   43.6860   33.8880   39.9400 C   0  0  0  0  0  0  0  0  0  0  0  0
   43.9070   34.4450   41.1810 C   0  0  0  0  0  0  0  0  0  0  0  0
   44.6130   33.0480   38.2670 H   0  0  0  0  0  0  0  0  0  0  0  0
   42.6960   33.7690   39.5230 H   0  0  0  0  0  0  0  0  0  0  0  0
   43.0300   34.7690   41.7400 H   0  0  0  0  0  0  0  0  0  0  0  0
   49.5900   35.6990   41.9450 C   0  0  0  0  0  0  0  0  0  0  0  0
   48.3100   35.5360   41.4060 C   0  0  0  0  0  0  0  0  0  0  0  0
   47.6010   34.3490   41.5300 C   0  0  0  0  0  0  0  0  0  0  0  0
   48.2420   33.3880   42.2020 N   0  0  0  0  0  0  0  0  0  0  0  0
   49.4670   33.5320   42.7220 C   0  0  0  0  0  0  0  0  0  0  0  0
   50.1350   34.6780   42.5950 N   0  0  0  0  0  0  0  0  0  0  0  0
   50.0830   36.6340   41.8150 H   0  0  0  0  0  0  0  0  0  0  0  0
   47.8470   36.3660   40.8690 H   0  0  0  0  0  0  0  0  0  0  0  0
   49.7830   32.6180   43.2230 H   0  0  0  0  0  0  0  0  0  0  0  0
   46.8620   30.6390   39.8760 S   0  0  0  0  0  0  0  0  0  0  0  0
   47.2810   29.2450   39.2970 O   0  0  0  0  0  0  0  0  0  0  0  0
   47.5470   30.6760   41.2120 O   0  0  0  0  0  0  0  0  0  0  0  0
   44.3390   30.0240   38.8670 C   0  0  0  0  0  0  0  0  0  0  0  0
   45.1740   30.3170   39.9740 C   0  0  0  0  0  0  0  0  0  0  0  0
   44.4150   30.2950   41.1380 C   0  0  0  0  0  0  0  0  0  0  0  0
   44.9240   30.4830   42.0730 H   0  0  0  0  0  0  0  0  0  0  0  0
   43.0690   30.0410   41.2620 C   0  0  0  0  0  0  0  0  0  0  0  0
   42.5740   30.0500   42.2200 H   0  0  0  0  0  0  0  0  0  0  0  0
   42.3950   29.7780   40.1120 C   0  0  0  0  0  3  0  0  0  0  0  0
   42.9890   29.7560   38.8790 C   0  0  0  0  0  3  0  0  0  0  0  0
   46.4370   29.6590   37.3600 H   0  0  0  0  0  0  0  0  0  0  0  0
   45.1180   29.9260   37.2760 S   0  0  0  0  0  0  0  0  0  0  0  0
   45.0050   31.2730   36.5750 O   0  0  0  0  0  0  0  0  0  0  0  0
   44.3220   28.9740   36.4620 O   0  0  0  0  0  0  0  0  0  0  0  0
  1  2  1  0  0  0  0
  1 30  1  0  0  0  0
  2 14  1  0  0  0  0
  3  2  2  0  0  0  0
  4  3  1  0  0  0  0
  5  4  2  0  0  0  0
  5  6  1  0  0  0  0
  6  1  2  0  0  0  0
  7  3  1  0  0  0  0
  8  4  1  0  0  0  0
  9  5  1  0  0  0  0
 10  6  1  0  0  0  0
 12 11  1  0  0  0  0
 13 23  1  0  0  0  0
 13 12  2  0  0  0  0
 14 13  1  0  0  0  0
 15 14  2  0  0  0  0
 15 16  1  0  0  0  0
 16 17  2  0  0  0  0
 17 12  1  0  0  0  0
 17 20  1  0  0  0  0
 18 15  1  0  0  0  0
 19 16  1  0  0  0  0
 21 26  1  0  0  0  0
 22 23  1  0  0  0  0
 22 21  2  0  0  0  0
 23 24  2  0  0  0  0
 24 25  1  0  0  0  0
 25 29  1  0  0  0  0
 26 25  2  0  0  0  0
 27 21  1  0  0  0  0
 28 22  1  0  0  0  0
 30 34  1  0  0  0  0
 30 32  2  0  0  0  0
 31 30  2  0  0  0  0
 33 40  2  0  0  0  0
 33 34  1  0  0  0  0
 34 35  2  0  0  0  0
 35 37  1  0  0  0  0
 35 36  1  0  0  0  0
 37 38  1  0  0  0  0
 39 37  2  0  0  0  0
 40 39  1  0  0  0  0
 42 41  1  0  0  0  0
 42 33  1  0  0  0  0
 43 42  2  0  0  0  0
 44 42  2  0  0  0  0
M  END
>  <minimizedAffinity>
-4.58121777

>  <minimizedRMSD>
1.5032661

$$$$
