
 OpenBabel03252509123D

 34 37  0  0  0  0  0  0  0  0999 V2000
   39.3370   30.2790   41.8040 C   0  0  0  0  0  0  0  0  0  0  0  0
   38.2600   29.7630   41.1350 C   0  0  0  0  0  0  0  0  0  0  0  0
   37.3890   30.5330   40.3520 C   0  0  0  0  0  0  0  0  0  0  0  0
   37.6310   31.9090   40.2450 C   0  0  0  0  0  0  0  0  0  0  0  0
   37.0370   32.9430   39.6030 N   0  0  0  0  0  0  0  0  0  0  0  0
   37.7340   34.0840   39.8700 C   0  0  0  0  0  0  0  0  0  0  0  0
   38.7600   33.7230   40.6830 N   0  0  0  0  0  0  0  0  0  0  0  0
   38.7160   32.4060   40.9230 C   0  0  0  0  0  0  0  0  0  0  0  0
   39.5790   31.6550   41.6970 C   0  0  0  0  0  0  0  0  0  0  0  0
   39.9670   29.6110   42.3930 H   0  0  0  0  0  0  0  0  0  0  0  0
   36.1860   32.8460   39.0090 H   0  0  0  0  0  0  0  0  0  0  0  0
   37.4800   35.0600   39.4860 H   0  0  0  0  0  0  0  0  0  0  0  0
   40.4290   32.0810   42.2210 H   0  0  0  0  0  0  0  0  0  0  0  0
   38.0100   26.1700   40.3260 C   0  0  0  0  0  0  0  0  0  0  0  0
   37.3390   25.6570   41.4360 C   0  0  0  0  0  0  0  0  0  0  0  0
   36.9750   26.5460   42.4540 C   0  0  0  0  0  0  0  0  0  0  0  0
   37.3010   27.8640   42.2980 N   0  0  0  0  0  0  0  0  0  0  0  0
   37.9550   28.3280   41.2030 C   0  0  0  0  0  0  0  0  0  0  0  0
   38.3070   27.4950   40.2280 N   0  0  0  0  0  0  0  0  0  0  0  0
   38.2810   25.4660   39.5510 H   0  0  0  0  0  0  0  0  0  0  0  0
   37.0750   24.6300   41.5790 H   0  0  0  0  0  0  0  0  0  0  0  0
   36.4510   26.2790   43.3700 H   0  0  0  0  0  0  0  0  0  0  0  0
   36.3410   29.6900   38.3240 C   0  0  0  0  0  0  0  0  0  0  0  0
   36.2710   29.9460   39.6700 C   0  0  0  0  0  0  0  0  0  0  0  0
   35.1100   29.6310   40.3570 C   0  0  0  0  0  0  0  0  0  0  0  0
   35.0870   29.8460   41.4190 H   0  0  0  0  0  0  0  0  0  0  0  0
   34.0080   29.0690   39.7470 C   0  0  0  0  0  0  0  0  0  0  0  0
   33.1030   28.8330   40.3300 H   0  0  0  0  0  0  0  0  0  0  0  0
   34.0580   28.8020   38.3920 C   0  0  0  0  0  3  0  0  0  0  0  0
   35.2220   29.1180   37.7090 C   0  0  0  0  0  3  0  0  0  0  0  0
   38.9110   29.7120   38.0270 H   0  0  0  0  0  0  0  0  0  0  0  0
   37.7370   30.0400   37.3550 S   0  0  0  0  0  0  0  0  0  0  0  0
   37.7820   31.4290   36.8270 O   0  0  0  0  0  0  0  0  0  0  0  0
   37.7080   29.1070   36.1650 O   0  0  0  0  0  0  0  0  0  0  0  0
  1 10  1  0  0  0  0
  2 18  1  0  0  0  0
  2  1  2  0  0  0  0
  3  2  1  0  0  0  0
  4  3  2  0  0  0  0
  4  8  1  0  0  0  0
  5  6  1  0  0  0  0
  5  4  1  0  0  0  0
  6  7  2  0  0  0  0
  7  8  1  0  0  0  0
  8  9  2  0  0  0  0
  9  1  1  0  0  0  0
  9 13  1  0  0  0  0
 11  5  1  0  0  0  0
 12  6  1  0  0  0  0
 14 15  1  0  0  0  0
 15 21  1  0  0  0  0
 15 16  2  0  0  0  0
 16 22  1  0  0  0  0
 17 16  1  0  0  0  0
 18 17  2  0  0  0  0
 19 14  2  0  0  0  0
 19 18  1  0  0  0  0
 20 14  1  0  0  0  0
 23 24  1  0  0  0  0
 24  3  1  0  0  0  0
 24 25  2  0  0  0  0
 25 26  1  0  0  0  0
 27 28  1  0  0  0  0
 27 25  1  0  0  0  0
 29 27  2  0  0  0  0
 30 23  2  0  0  0  0
 30 29  1  0  0  0  0
 32 31  1  0  0  0  0
 32 23  1  0  0  0  0
 33 32  2  0  0  0  0
 34 32  2  0  0  0  0
M  END
>  <minimizedAffinity>
-5.89271736

$$$$

 OpenBabel03252509123D

 34 37  0  0  0  0  0  0  0  0999 V2000
   40.8500   28.2530   41.0300 C   0  0  0  0  0  0  0  0  0  0  0  0
   40.3250   29.4480   40.6170 C   0  0  0  0  0  0  0  0  0  0  0  0
   39.1420   29.9980   41.1280 C   0  0  0  0  0  0  0  0  0  0  0  0
   38.4540   29.2860   42.1210 C   0  0  0  0  0  0  0  0  0  0  0  0
   37.3200   29.4850   42.8350 N   0  0  0  0  0  0  0  0  0  0  0  0
   37.1430   28.4290   43.6800 C   0  0  0  0  0  0  0  0  0  0  0  0
   38.1880   27.5890   43.4650 N   0  0  0  0  0  0  0  0  0  0  0  0
   38.9960   28.0900   42.5210 C   0  0  0  0  0  0  0  0  0  0  0  0
   40.1610   27.5420   42.0210 C   0  0  0  0  0  0  0  0  0  0  0  0
   41.7770   27.8950   40.5800 H   0  0  0  0  0  0  0  0  0  0  0  0
   36.7070   30.3210   42.7310 H   0  0  0  0  0  0  0  0  0  0  0  0
   36.3170   28.3270   44.3660 H   0  0  0  0  0  0  0  0  0  0  0  0
   40.5630   26.5930   42.3610 H   0  0  0  0  0  0  0  0  0  0  0  0
   41.2780   30.9400   37.3760 C   0  0  0  0  0  0  0  0  0  0  0  0
   42.3340   31.7800   37.7300 C   0  0  0  0  0  0  0  0  0  0  0  0
   42.7130   31.8290   39.0770 C   0  0  0  0  0  0  0  0  0  0  0  0
   42.0240   31.0500   39.9640 N   0  0  0  0  0  0  0  0  0  0  0  0
   41.0010   30.2430   39.5830 C   0  0  0  0  0  0  0  0  0  0  0  0
   40.6300   30.1870   38.3080 N   0  0  0  0  0  0  0  0  0  0  0  0
   41.0010   30.9170   36.3310 H   0  0  0  0  0  0  0  0  0  0  0  0
   42.8860   32.3980   37.0530 H   0  0  0  0  0  0  0  0  0  0  0  0
   43.5170   32.4390   39.4860 H   0  0  0  0  0  0  0  0  0  0  0  0
   37.6000   31.2870   39.7570 C   0  0  0  0  0  0  0  0  0  0  0  0
   38.6310   31.2540   40.6610 C   0  0  0  0  0  0  0  0  0  0  0  0
   39.1700   32.4490   41.1140 C   0  0  0  0  0  0  0  0  0  0  0  0
   39.9830   32.3880   41.8270 H   0  0  0  0  0  0  0  0  0  0  0  0
   38.7160   33.6810   40.6940 C   0  0  0  0  0  0  0  0  0  0  0  0
   39.1720   34.6080   41.0780 H   0  0  0  0  0  0  0  0  0  0  0  0
   37.6770   33.7360   39.7830 C   0  0  0  0  0  3  0  0  0  0  0  0
   37.1420   32.5390   39.3340 C   0  0  0  0  0  3  0  0  0  0  0  0
   37.7100   28.7730   39.1560 H   0  0  0  0  0  0  0  0  0  0  0  0
   36.8450   29.8620   39.1150 S   0  0  0  0  0  0  0  0  0  0  0  0
   36.2560   30.0390   37.7630 O   0  0  0  0  0  0  0  0  0  0  0  0
   35.7180   29.4870   40.0510 O   0  0  0  0  0  0  0  0  0  0  0  0
  1  9  1  0  0  0  0
  2  1  2  0  0  0  0
  2  3  1  0  0  0  0
  3  4  2  0  0  0  0
  4  8  1  0  0  0  0
  4  5  1  0  0  0  0
  5  6  1  0  0  0  0
  6 12  1  0  0  0  0
  7  6  2  0  0  0  0
  8  7  1  0  0  0  0
  9 13  1  0  0  0  0
  9  8  2  0  0  0  0
 10  1  1  0  0  0  0
 11  5  1  0  0  0  0
 14 15  2  0  0  0  0
 14 19  1  0  0  0  0
 15 16  1  0  0  0  0
 16 22  1  0  0  0  0
 16 17  2  0  0  0  0
 18 17  1  0  0  0  0
 18  2  1  0  0  0  0
 19 18  2  0  0  0  0
 20 14  1  0  0  0  0
 21 15  1  0  0  0  0
 23 24  1  0  0  0  0
 24 25  2  0  0  0  0
 24  3  1  0  0  0  0
 25 26  1  0  0  0  0
 27 28  1  0  0  0  0
 27 25  1  0  0  0  0
 29 27  2  0  0  0  0
 30 23  2  0  0  0  0
 30 29  1  0  0  0  0
 32 31  1  0  0  0  0
 32 23  1  0  0  0  0
 32 34  2  0  0  0  0
 33 32  2  0  0  0  0
M  END
>  <minimizedAffinity>
-5.39592886

$$$$

 OpenBabel03252509123D

 34 37  0  0  0  0  0  0  0  0999 V2000
   37.1690   33.0140   39.5940 C   0  0  0  0  0  0  0  0  0  0  0  0
   37.5060   31.6860   39.5740 C   0  0  0  0  0  0  0  0  0  0  0  0
   38.7960   31.2070   39.8340 C   0  0  0  0  0  0  0  0  0  0  0  0
   39.8030   32.1350   40.1330 C   0  0  0  0  0  0  0  0  0  0  0  0
   41.1220   32.0600   40.4330 N   0  0  0  0  0  0  0  0  0  0  0  0
   41.5980   33.3220   40.6360 C   0  0  0  0  0  0  0  0  0  0  0  0
   40.5460   34.1600   40.4550 N   0  0  0  0  0  0  0  0  0  0  0  0
   39.4450   33.4600   40.1490 C   0  0  0  0  0  0  0  0  0  0  0  0
   38.1760   33.9410   39.8920 C   0  0  0  0  0  0  0  0  0  0  0  0
   36.1400   33.3040   39.3790 H   0  0  0  0  0  0  0  0  0  0  0  0
   41.6550   31.1660   40.4910 H   0  0  0  0  0  0  0  0  0  0  0  0
   42.6200   33.5570   40.8890 H   0  0  0  0  0  0  0  0  0  0  0  0
   37.9270   34.9970   39.9130 H   0  0  0  0  0  0  0  0  0  0  0  0
   34.8140   29.1810   39.9100 C   0  0  0  0  0  0  0  0  0  0  0  0
   34.6290   28.7600   38.5940 C   0  0  0  0  0  0  0  0  0  0  0  0
   35.4270   29.3360   37.5990 C   0  0  0  0  0  0  0  0  0  0  0  0
   36.3420   30.2780   37.9800 N   0  0  0  0  0  0  0  0  0  0  0  0
   36.4960   30.6640   39.2720 C   0  0  0  0  0  0  0  0  0  0  0  0
   35.7440   30.1260   40.2270 N   0  0  0  0  0  0  0  0  0  0  0  0
   34.1870   28.7230   40.6630 H   0  0  0  0  0  0  0  0  0  0  0  0
   33.9190   28.0250   38.2740 H   0  0  0  0  0  0  0  0  0  0  0  0
   35.3850   29.0990   36.5380 H   0  0  0  0  0  0  0  0  0  0  0  0
   39.0610   29.0610   40.9520 C   0  0  0  0  0  0  0  0  0  0  0  0
   39.1010   29.8050   39.8000 C   0  0  0  0  0  0  0  0  0  0  0  0
   39.4390   29.1840   38.6070 C   0  0  0  0  0  0  0  0  0  0  0  0
   39.4610   29.8000   37.7160 H   0  0  0  0  0  0  0  0  0  0  0  0
   39.7420   27.8410   38.5220 C   0  0  0  0  0  0  0  0  0  0  0  0
   40.0060   27.3860   37.5540 H   0  0  0  0  0  0  0  0  0  0  0  0
   39.7060   27.0740   39.6720 C   0  0  0  0  0  3  0  0  0  0  0  0
   39.3670   27.7000   40.8610 C   0  0  0  0  0  3  0  0  0  0  0  0
   37.4020   30.3320   42.4780 H   0  0  0  0  0  0  0  0  0  0  0  0
   38.6530   29.7230   42.5040 S   0  0  0  0  0  0  0  0  0  0  0  0
   39.6870   30.6280   43.0720 O   0  0  0  0  0  0  0  0  0  0  0  0
   38.4930   28.5640   43.4620 O   0  0  0  0  0  0  0  0  0  0  0  0
  1  9  1  0  0  0  0
  2  1  2  0  0  0  0
  2  3  1  0  0  0  0
  3  4  2  0  0  0  0
  4  8  1  0  0  0  0
  4  5  1  0  0  0  0
  5 11  1  0  0  0  0
  5  6  1  0  0  0  0
  6 12  1  0  0  0  0
  7  6  2  0  0  0  0
  8  7  1  0  0  0  0
  9 13  1  0  0  0  0
  9  8  2  0  0  0  0
 10  1  1  0  0  0  0
 14 19  1  0  0  0  0
 14 20  1  0  0  0  0
 15 14  2  0  0  0  0
 16 17  2  0  0  0  0
 16 15  1  0  0  0  0
 17 18  1  0  0  0  0
 18  2  1  0  0  0  0
 18 19  2  0  0  0  0
 21 15  1  0  0  0  0
 22 16  1  0  0  0  0
 23 32  1  0  0  0  0
 24  3  1  0  0  0  0
 24 23  2  0  0  0  0
 25 24  1  0  0  0  0
 26 25  1  0  0  0  0
 27 25  2  0  0  0  0
 27 29  1  0  0  0  0
 28 27  1  0  0  0  0
 29 30  2  0  0  0  0
 30 23  1  0  0  0  0
 31 32  1  0  0  0  0
 32 33  2  0  0  0  0
 32 34  2  0  0  0  0
M  END
>  <minimizedAffinity>
-5.37242126

$$$$

 OpenBabel03252509123D

 34 37  0  0  0  0  0  0  0  0999 V2000
   37.2840   29.0400   37.4420 C   0  0  0  0  0  0  0  0  0  0  0  0
   37.4100   28.5040   38.6960 C   0  0  0  0  0  0  0  0  0  0  0  0
   37.4930   29.2710   39.8650 C   0  0  0  0  0  0  0  0  0  0  0  0
   37.4450   30.6670   39.7500 C   0  0  0  0  0  0  0  0  0  0  0  0
   37.4910   31.7060   40.6170 N   0  0  0  0  0  0  0  0  0  0  0  0
   37.3960   32.8700   39.9140 C   0  0  0  0  0  0  0  0  0  0  0  0
   37.2910   32.5180   38.6060 N   0  0  0  0  0  0  0  0  0  0  0  0
   37.3190   31.1840   38.4840 C   0  0  0  0  0  0  0  0  0  0  0  0
   37.2360   30.4350   37.3270 C   0  0  0  0  0  0  0  0  0  0  0  0
   37.2250   28.3710   36.5820 H   0  0  0  0  0  0  0  0  0  0  0  0
   37.5850   31.5970   41.6500 H   0  0  0  0  0  0  0  0  0  0  0  0
   37.4070   33.8540   40.3550 H   0  0  0  0  0  0  0  0  0  0  0  0
   37.1370   30.8780   36.3400 H   0  0  0  0  0  0  0  0  0  0  0  0
   38.6280   25.0520   39.1780 C   0  0  0  0  0  0  0  0  0  0  0  0
   37.4430   24.3200   39.2390 C   0  0  0  0  0  0  0  0  0  0  0  0
   36.2330   25.0130   39.1140 C   0  0  0  0  0  0  0  0  0  0  0  0
   36.2890   26.3680   38.9390 N   0  0  0  0  0  0  0  0  0  0  0  0
   37.4610   27.0480   38.8840 C   0  0  0  0  0  0  0  0  0  0  0  0
   38.6180   26.4030   39.0020 N   0  0  0  0  0  0  0  0  0  0  0  0
   39.5510   24.4970   39.2770 H   0  0  0  0  0  0  0  0  0  0  0  0
   37.3770   23.2600   39.3760 H   0  0  0  0  0  0  0  0  0  0  0  0
   35.2420   24.5660   39.1440 H   0  0  0  0  0  0  0  0  0  0  0  0
   38.8600   28.5560   41.7470 C   0  0  0  0  0  0  0  0  0  0  0  0
   37.6260   28.6620   41.1580 C   0  0  0  0  0  0  0  0  0  0  0  0
   36.5140   28.1740   41.8260 C   0  0  0  0  0  0  0  0  0  0  0  0
   35.5550   28.2730   41.3330 H   0  0  0  0  0  0  0  0  0  0  0  0
   36.5890   27.5780   43.0680 C   0  0  0  0  0  0  0  0  0  0  0  0
   35.6810   27.2030   43.5660 H   0  0  0  0  0  0  0  0  0  0  0  0
   37.8240   27.4620   43.6800 C   0  0  0  0  0  3  0  0  0  0  0  0
   38.9320   27.9530   43.0070 C   0  0  0  0  0  3  0  0  0  0  0  0
   40.2370   29.0870   39.6220 H   0  0  0  0  0  0  0  0  0  0  0  0
   40.3240   29.1270   41.0100 S   0  0  0  0  0  0  0  0  0  0  0  0
   41.5560   28.4540   41.4980 O   0  0  0  0  0  0  0  0  0  0  0  0
   40.4540   30.5970   41.3410 O   0  0  0  0  0  0  0  0  0  0  0  0
  1  2  1  0  0  0  0
  2 18  1  0  0  0  0
  2  3  2  0  0  0  0
  3 24  1  0  0  0  0
  4  3  1  0  0  0  0
  4  5  1  0  0  0  0
  5 11  1  0  0  0  0
  6 12  1  0  0  0  0
  6  5  1  0  0  0  0
  7  6  2  0  0  0  0
  8  7  1  0  0  0  0
  8  4  2  0  0  0  0
  9  1  2  0  0  0  0
  9  8  1  0  0  0  0
 10  1  1  0  0  0  0
 13  9  1  0  0  0  0
 14 15  1  0  0  0  0
 14 20  1  0  0  0  0
 15 21  1  0  0  0  0
 16 22  1  0  0  0  0
 16 15  2  0  0  0  0
 17 16  1  0  0  0  0
 18 17  2  0  0  0  0
 18 19  1  0  0  0  0
 19 14  2  0  0  0  0
 23 30  1  0  0  0  0
 24 23  2  0  0  0  0
 24 25  1  0  0  0  0
 25 27  2  0  0  0  0
 26 25  1  0  0  0  0
 27 28  1  0  0  0  0
 27 29  1  0  0  0  0
 30 29  2  0  0  0  0
 31 32  1  0  0  0  0
 32 34  2  0  0  0  0
 32 33  2  0  0  0  0
 32 23  1  0  0  0  0
M  END
>  <minimizedAffinity>
-5.28372002

$$$$

 OpenBabel03252509123D

 34 37  0  0  0  0  0  0  0  0999 V2000
   37.0950   28.5030   43.0570 C   0  0  0  0  0  0  0  0  0  0  0  0
   37.6310   28.7640   41.8240 C   0  0  0  0  0  0  0  0  0  0  0  0
   37.8800   27.7780   40.8600 C   0  0  0  0  0  0  0  0  0  0  0  0
   37.5630   26.4490   41.1700 C   0  0  0  0  0  0  0  0  0  0  0  0
   37.6520   25.2620   40.5220 N   0  0  0  0  0  0  0  0  0  0  0  0
   37.1790   24.2790   41.3410 C   0  0  0  0  0  0  0  0  0  0  0  0
   36.8020   24.8900   42.4930 N   0  0  0  0  0  0  0  0  0  0  0  0
   37.0270   26.2080   42.4110 C   0  0  0  0  0  0  0  0  0  0  0  0
   36.7790   27.1740   43.3670 C   0  0  0  0  0  0  0  0  0  0  0  0
   36.9330   29.3290   43.7520 H   0  0  0  0  0  0  0  0  0  0  0  0
   38.0260   25.1550   39.5560 H   0  0  0  0  0  0  0  0  0  0  0  0
   37.1330   23.2340   41.0780 H   0  0  0  0  0  0  0  0  0  0  0  0
   36.3540   26.9490   44.3400 H   0  0  0  0  0  0  0  0  0  0  0  0
   37.4650   32.1960   40.4740 C   0  0  0  0  0  0  0  0  0  0  0  0
   38.7360   32.6940   40.7600 C   0  0  0  0  0  0  0  0  0  0  0  0
   39.6420   31.8500   41.4130 C   0  0  0  0  0  0  0  0  0  0  0  0
   39.2250   30.5880   41.7310 N   0  0  0  0  0  0  0  0  0  0  0  0
   37.9800   30.1370   41.4360 C   0  0  0  0  0  0  0  0  0  0  0  0
   37.1080   30.9270   40.8170 N   0  0  0  0  0  0  0  0  0  0  0  0
   36.7810   32.8640   39.9690 H   0  0  0  0  0  0  0  0  0  0  0  0
   39.0830   33.6780   40.5210 H   0  0  0  0  0  0  0  0  0  0  0  0
   40.6610   32.1120   41.6940 H   0  0  0  0  0  0  0  0  0  0  0  0
   37.6260   28.3600   38.5110 C   0  0  0  0  0  0  0  0  0  0  0  0
   38.4440   28.1010   39.5810 C   0  0  0  0  0  0  0  0  0  0  0  0
   39.8190   28.1560   39.4090 C   0  0  0  0  0  0  0  0  0  0  0  0
   40.4360   27.9470   40.2740 H   0  0  0  0  0  0  0  0  0  0  0  0
   40.4100   28.4590   38.2000 C   0  0  0  0  0  0  0  0  0  0  0  0
   41.5070   28.4920   38.1050 H   0  0  0  0  0  0  0  0  0  0  0  0
   39.6030   28.7240   37.1090 C   0  0  0  0  0  3  0  0  0  0  0  0
   38.2300   28.6680   37.2870 C   0  0  0  0  0  3  0  0  0  0  0  0
   35.4520   28.5240   39.9040 H   0  0  0  0  0  0  0  0  0  0  0  0
   35.8930   28.3210   38.6000 S   0  0  0  0  0  0  0  0  0  0  0  0
   35.2780   27.1080   38.0000 O   0  0  0  0  0  0  0  0  0  0  0  0
   35.3740   29.5160   37.8320 O   0  0  0  0  0  0  0  0  0  0  0  0
  1  9  1  0  0  0  0
  1 10  1  0  0  0  0
  2  1  2  0  0  0  0
  3  4  2  0  0  0  0
  3  2  1  0  0  0  0
  4  8  1  0  0  0  0
  5  4  1  0  0  0  0
  5  6  1  0  0  0  0
  6  7  2  0  0  0  0
  8  7  1  0  0  0  0
  8  9  2  0  0  0  0
  9 13  1  0  0  0  0
 11  5  1  0  0  0  0
 12  6  1  0  0  0  0
 14 15  2  0  0  0  0
 14 19  1  0  0  0  0
 15 16  1  0  0  0  0
 16 22  1  0  0  0  0
 16 17  2  0  0  0  0
 18 17  1  0  0  0  0
 18  2  1  0  0  0  0
 19 18  2  0  0  0  0
 20 14  1  0  0  0  0
 21 15  1  0  0  0  0
 23 32  1  0  0  0  0
 23 24  1  0  0  0  0
 24  3  1  0  0  0  0
 25 24  2  0  0  0  0
 25 26  1  0  0  0  0
 27 25  1  0  0  0  0
 28 27  1  0  0  0  0
 29 30  1  0  0  0  0
 29 27  2  0  0  0  0
 30 23  2  0  0  0  0
 32 31  1  0  0  0  0
 33 32  2  0  0  0  0
 34 32  2  0  0  0  0
M  END
>  <minimizedAffinity>
-5.13085985

$$$$

 OpenBabel03252509123D

 34 37  0  0  0  0  0  0  0  0999 V2000
   36.9520   25.4020   41.5890 C   0  0  0  0  0  0  0  0  0  0  0  0
   37.3810   26.5160   40.9180 C   0  0  0  0  0  0  0  0  0  0  0  0
   38.7170   26.9380   40.8850 C   0  0  0  0  0  0  0  0  0  0  0  0
   39.6710   26.1790   41.5750 C   0  0  0  0  0  0  0  0  0  0  0  0
   41.0100   26.2620   41.7680 N   0  0  0  0  0  0  0  0  0  0  0  0
   41.4060   25.2160   42.5470 C   0  0  0  0  0  0  0  0  0  0  0  0
   40.2860   24.4990   42.8220 N   0  0  0  0  0  0  0  0  0  0  0  0
   39.2210   25.0670   42.2420 C   0  0  0  0  0  0  0  0  0  0  0  0
   37.9070   24.6450   42.2800 C   0  0  0  0  0  0  0  0  0  0  0  0
   35.8930   25.1420   41.5650 H   0  0  0  0  0  0  0  0  0  0  0  0
   41.6080   27.0170   41.3700 H   0  0  0  0  0  0  0  0  0  0  0  0
   42.4240   25.0360   42.8580 H   0  0  0  0  0  0  0  0  0  0  0  0
   37.5850   23.7580   42.8180 H   0  0  0  0  0  0  0  0  0  0  0  0
   34.9940   29.1770   39.9950 C   0  0  0  0  0  0  0  0  0  0  0  0
   34.6670   28.8460   38.6800 C   0  0  0  0  0  0  0  0  0  0  0  0
   35.2660   27.7120   38.1180 C   0  0  0  0  0  0  0  0  0  0  0  0
   36.1360   26.9980   38.8940 N   0  0  0  0  0  0  0  0  0  0  0  0
   36.4310   27.3500   40.1710 C   0  0  0  0  0  0  0  0  0  0  0  0
   35.8700   28.4250   40.7180 N   0  0  0  0  0  0  0  0  0  0  0  0
   34.5210   30.0570   40.4090 H   0  0  0  0  0  0  0  0  0  0  0  0
   33.9900   29.3910   38.0550 H   0  0  0  0  0  0  0  0  0  0  0  0
   35.0990   27.3440   37.1080 H   0  0  0  0  0  0  0  0  0  0  0  0
   39.3290   29.2920   40.8380 C   0  0  0  0  0  0  0  0  0  0  0  0
   39.1170   28.1150   40.1680 C   0  0  0  0  0  0  0  0  0  0  0  0
   39.2940   28.0790   38.7930 C   0  0  0  0  0  0  0  0  0  0  0  0
   39.1170   27.1340   38.2950 H   0  0  0  0  0  0  0  0  0  0  0  0
   39.6750   29.1830   38.0590 C   0  0  0  0  0  0  0  0  0  0  0  0
   39.8040   29.1120   36.9670 H   0  0  0  0  0  0  0  0  0  0  0  0
   39.8950   30.3790   38.7160 C   0  0  0  0  0  3  0  0  0  0  0  0
   39.7180   30.4090   40.0900 C   0  0  0  0  0  3  0  0  0  0  0  0
   39.9210   28.5390   43.2420 H   0  0  0  0  0  0  0  0  0  0  0  0
   39.1400   29.4640   42.5550 S   0  0  0  0  0  0  0  0  0  0  0  0
   37.7290   29.4360   43.0200 O   0  0  0  0  0  0  0  0  0  0  0  0
   39.7150   30.8080   42.9420 O   0  0  0  0  0  0  0  0  0  0  0  0
  1  9  1  0  0  0  0
  2  1  2  0  0  0  0
  3  2  1  0  0  0  0
  3  4  2  0  0  0  0
  4  5  1  0  0  0  0
  4  8  1  0  0  0  0
  5  6  1  0  0  0  0
  6  7  2  0  0  0  0
  6 12  1  0  0  0  0
  8  9  2  0  0  0  0
  8  7  1  0  0  0  0
  9 13  1  0  0  0  0
 10  1  1  0  0  0  0
 11  5  1  0  0  0  0
 14 20  1  0  0  0  0
 14 19  1  0  0  0  0
 15 14  2  0  0  0  0
 16 15  1  0  0  0  0
 16 17  2  0  0  0  0
 17 18  1  0  0  0  0
 18 19  2  0  0  0  0
 18  2  1  0  0  0  0
 21 15  1  0  0  0  0
 22 16  1  0  0  0  0
 23 32  1  0  0  0  0
 24 23  1  0  0  0  0
 24  3  1  0  0  0  0
 25 24  2  0  0  0  0
 26 25  1  0  0  0  0
 27 29  2  0  0  0  0
 27 25  1  0  0  0  0
 28 27  1  0  0  0  0
 29 30  1  0  0  0  0
 30 23  2  0  0  0  0
 32 34  2  0  0  0  0
 32 33  2  0  0  0  0
 32 31  1  0  0  0  0
M  END
>  <minimizedAffinity>
-5.09826756

$$$$

 OpenBabel03252509123D

 34 37  0  0  0  0  0  0  0  0999 V2000
   37.1950   27.3190   38.4950 C   0  0  0  0  0  0  0  0  0  0  0  0
   37.5640   28.5520   38.9650 C   0  0  0  0  0  0  0  0  0  0  0  0
   37.5660   29.7140   38.1820 C   0  0  0  0  0  0  0  0  0  0  0  0
   37.1680   29.6150   36.8420 C   0  0  0  0  0  0  0  0  0  0  0  0
   37.0390   30.4820   35.8100 N   0  0  0  0  0  0  0  0  0  0  0  0
   36.5980   29.7990   34.7150 C   0  0  0  0  0  0  0  0  0  0  0  0
   36.4610   28.5050   35.1020 N   0  0  0  0  0  0  0  0  0  0  0  0
   36.8020   28.3710   36.3910 C   0  0  0  0  0  0  0  0  0  0  0  0
   36.7980   27.2200   37.1550 C   0  0  0  0  0  0  0  0  0  0  0  0
   37.2230   26.4630   39.1700 H   0  0  0  0  0  0  0  0  0  0  0  0
   37.2520   31.5000   35.8770 H   0  0  0  0  0  0  0  0  0  0  0  0
   36.4090   30.2460   33.7510 H   0  0  0  0  0  0  0  0  0  0  0  0
   36.5020   26.2510   36.7660 H   0  0  0  0  0  0  0  0  0  0  0  0
   39.6100   28.7180   42.0340 C   0  0  0  0  0  0  0  0  0  0  0  0
   38.6710   29.0750   43.0020 C   0  0  0  0  0  0  0  0  0  0  0  0
   37.3440   29.2570   42.5970 C   0  0  0  0  0  0  0  0  0  0  0  0
   37.0480   29.0720   41.2760 N   0  0  0  0  0  0  0  0  0  0  0  0
   37.9870   28.7230   40.3600 C   0  0  0  0  0  0  0  0  0  0  0  0
   39.2520   28.5480   40.7310 N   0  0  0  0  0  0  0  0  0  0  0  0
   40.6290   28.5820   42.3680 H   0  0  0  0  0  0  0  0  0  0  0  0
   38.8810   29.2260   44.0410 H   0  0  0  0  0  0  0  0  0  0  0  0
   36.5170   29.5350   43.2480 H   0  0  0  0  0  0  0  0  0  0  0  0
   39.2650   31.4010   38.6150 C   0  0  0  0  0  0  0  0  0  0  0  0
   37.9630   30.9840   38.7200 C   0  0  0  0  0  0  0  0  0  0  0  0
   37.0400   31.8030   39.3520 C   0  0  0  0  0  0  0  0  0  0  0  0
   36.0200   31.4440   39.4180 H   0  0  0  0  0  0  0  0  0  0  0  0
   37.3720   33.0300   39.8870 C   0  0  0  0  0  0  0  0  0  0  0  0
   36.6080   33.6510   40.3820 H   0  0  0  0  0  0  0  0  0  0  0  0
   38.6790   33.4700   39.7910 C   0  0  0  0  0  3  0  0  0  0  0  0
   39.5980   32.6470   39.1580 C   0  0  0  0  0  3  0  0  0  0  0  0
   39.9710   29.5470   36.9550 H   0  0  0  0  0  0  0  0  0  0  0  0
   40.5110   30.4660   37.8500 S   0  0  0  0  0  0  0  0  0  0  0  0
   41.4550   29.8160   38.7960 O   0  0  0  0  0  0  0  0  0  0  0  0
   41.3180   31.4080   36.9850 O   0  0  0  0  0  0  0  0  0  0  0  0
  1  2  1  0  0  0  0
  1 10  1  0  0  0  0
  2 18  1  0  0  0  0
  3 24  1  0  0  0  0
  3  2  2  0  0  0  0
  4  3  1  0  0  0  0
  5 11  1  0  0  0  0
  5  4  1  0  0  0  0
  6  7  2  0  0  0  0
  6  5  1  0  0  0  0
  7  8  1  0  0  0  0
  8  4  2  0  0  0  0
  8  9  1  0  0  0  0
  9  1  2  0  0  0  0
 12  6  1  0  0  0  0
 13  9  1  0  0  0  0
 14 20  1  0  0  0  0
 14 15  1  0  0  0  0
 15 21  1  0  0  0  0
 16 15  2  0  0  0  0
 16 22  1  0  0  0  0
 17 16  1  0  0  0  0
 18 19  1  0  0  0  0
 18 17  2  0  0  0  0
 19 14  2  0  0  0  0
 23 24  2  0  0  0  0
 23 30  1  0  0  0  0
 24 25  1  0  0  0  0
 25 26  1  0  0  0  0
 25 27  2  0  0  0  0
 27 28  1  0  0  0  0
 29 27  1  0  0  0  0
 30 29  2  0  0  0  0
 31 32  1  0  0  0  0
 32 23  1  0  0  0  0
 32 33  2  0  0  0  0
 34 32  2  0  0  0  0
M  END
>  <minimizedAffinity>
-5.01466608

$$$$

 OpenBabel03252509123D

 34 37  0  0  0  0  0  0  0  0999 V2000
   40.0000   27.7790   42.3420 C   0  0  0  0  0  0  0  0  0  0  0  0
   38.8550   27.8060   41.5910 C   0  0  0  0  0  0  0  0  0  0  0  0
   38.3230   28.9730   41.0260 C   0  0  0  0  0  0  0  0  0  0  0  0
   38.9980   30.1820   41.2380 C   0  0  0  0  0  0  0  0  0  0  0  0
   38.8040   31.4710   40.8670 N   0  0  0  0  0  0  0  0  0  0  0  0
   39.8130   32.2320   41.3790 C   0  0  0  0  0  0  0  0  0  0  0  0
   40.6200   31.3830   42.0660 N   0  0  0  0  0  0  0  0  0  0  0  0
   40.1440   30.1340   41.9940 C   0  0  0  0  0  0  0  0  0  0  0  0
   40.6740   28.9880   42.5540 C   0  0  0  0  0  0  0  0  0  0  0  0
   40.3470   26.8270   42.7470 H   0  0  0  0  0  0  0  0  0  0  0  0
   38.0030   31.7920   40.2830 H   0  0  0  0  0  0  0  0  0  0  0  0
   39.9070   33.2970   41.2380 H   0  0  0  0  0  0  0  0  0  0  0  0
   41.5840   28.9850   43.1470 H   0  0  0  0  0  0  0  0  0  0  0  0
   37.4660   24.8060   39.9470 C   0  0  0  0  0  0  0  0  0  0  0  0
   36.6600   24.2620   40.9460 C   0  0  0  0  0  0  0  0  0  0  0  0
   36.5960   24.9260   42.1760 C   0  0  0  0  0  0  0  0  0  0  0  0
   37.3300   26.0700   42.3230 N   0  0  0  0  0  0  0  0  0  0  0  0
   38.1040   26.5720   41.3290 C   0  0  0  0  0  0  0  0  0  0  0  0
   38.1750   25.9510   40.1550 N   0  0  0  0  0  0  0  0  0  0  0  0
   37.5010   24.2770   39.0040 H   0  0  0  0  0  0  0  0  0  0  0  0
   36.0780   23.3680   40.8520 H   0  0  0  0  0  0  0  0  0  0  0  0
   36.0080   24.6100   43.0360 H   0  0  0  0  0  0  0  0  0  0  0  0
   37.1820   28.9500   38.8770 C   0  0  0  0  0  0  0  0  0  0  0  0
   37.1180   28.9510   40.2470 C   0  0  0  0  0  0  0  0  0  0  0  0
   35.8770   28.9320   40.8650 C   0  0  0  0  0  0  0  0  0  0  0  0
   35.8620   28.9330   41.9480 H   0  0  0  0  0  0  0  0  0  0  0  0
   34.6910   28.9130   40.1610 C   0  0  0  0  0  0  0  0  0  0  0  0
   33.7250   28.8980   40.6910 H   0  0  0  0  0  0  0  0  0  0  0  0
   34.7340   28.9100   38.7790 C   0  0  0  0  0  3  0  0  0  0  0  0
   35.9770   28.9290   38.1670 C   0  0  0  0  0  3  0  0  0  0  0  0
   39.5870   28.0660   38.5150 H   0  0  0  0  0  0  0  0  0  0  0  0
   38.6730   28.9740   37.9890 S   0  0  0  0  0  0  0  0  0  0  0  0
   39.2740   30.3260   37.8400 O   0  0  0  0  0  0  0  0  0  0  0  0
   38.3810   28.4570   36.5980 O   0  0  0  0  0  0  0  0  0  0  0  0
  1  9  1  0  0  0  0
  1 10  1  0  0  0  0
  2  1  2  0  0  0  0
  3  4  2  0  0  0  0
  3  2  1  0  0  0  0
  4  8  1  0  0  0  0
  5  4  1  0  0  0  0
  5  6  1  0  0  0  0
  6  7  2  0  0  0  0
  8  7  1  0  0  0  0
  8  9  2  0  0  0  0
  9 13  1  0  0  0  0
 11  5  1  0  0  0  0
 12  6  1  0  0  0  0
 14 19  2  0  0  0  0
 14 15  1  0  0  0  0
 15 16  2  0  0  0  0
 16 17  1  0  0  0  0
 16 22  1  0  0  0  0
 18  2  1  0  0  0  0
 18 17  2  0  0  0  0
 19 18  1  0  0  0  0
 20 14  1  0  0  0  0
 21 15  1  0  0  0  0
 23 24  1  0  0  0  0
 24 25  2  0  0  0  0
 24  3  1  0  0  0  0
 25 26  1  0  0  0  0
 27 28  1  0  0  0  0
 27 25  1  0  0  0  0
 29 27  2  0  0  0  0
 30 29  1  0  0  0  0
 30 23  2  0  0  0  0
 32 31  1  0  0  0  0
 32 23  1  0  0  0  0
 33 32  2  0  0  0  0
 34 32  2  0  0  0  0
M  END
>  <minimizedAffinity>
-5.00913429

$$$$

 OpenBabel03252509123D

 34 37  0  0  0  0  0  0  0  0999 V2000
   36.7640   31.0090   40.7400 C   0  0  0  0  0  0  0  0  0  0  0  0
   37.7830   30.1560   41.0710 C   0  0  0  0  0  0  0  0  0  0  0  0
   39.1400   30.4910   40.9780 C   0  0  0  0  0  0  0  0  0  0  0  0
   39.4790   31.7720   40.5220 C   0  0  0  0  0  0  0  0  0  0  0  0
   40.6360   32.4420   40.3070 N   0  0  0  0  0  0  0  0  0  0  0  0
   40.3420   33.6920   39.8480 C   0  0  0  0  0  0  0  0  0  0  0  0
   38.9870   33.7680   39.7900 N   0  0  0  0  0  0  0  0  0  0  0  0
   38.4430   32.6130   40.1950 C   0  0  0  0  0  0  0  0  0  0  0  0
   37.1030   32.2890   40.2830 C   0  0  0  0  0  0  0  0  0  0  0  0
   35.7320   30.6690   40.8400 H   0  0  0  0  0  0  0  0  0  0  0  0
   41.5820   32.0370   40.4750 H   0  0  0  0  0  0  0  0  0  0  0  0
   41.0770   34.4400   39.5950 H   0  0  0  0  0  0  0  0  0  0  0  0
   36.3090   32.9790   40.0160 H   0  0  0  0  0  0  0  0  0  0  0  0
   36.9670   27.2980   43.2610 C   0  0  0  0  0  0  0  0  0  0  0  0
   36.9590   26.2270   42.3680 C   0  0  0  0  0  0  0  0  0  0  0  0
   37.2340   26.4900   41.0210 C   0  0  0  0  0  0  0  0  0  0  0  0
   37.4940   27.7830   40.6630 N   0  0  0  0  0  0  0  0  0  0  0  0
   37.4940   28.8020   41.5600 C   0  0  0  0  0  0  0  0  0  0  0  0
   37.2330   28.5660   42.8430 N   0  0  0  0  0  0  0  0  0  0  0  0
   36.7520   27.0720   44.2970 H   0  0  0  0  0  0  0  0  0  0  0  0
   36.7580   25.2080   42.6260 H   0  0  0  0  0  0  0  0  0  0  0  0
   37.2600   25.7490   40.2240 H   0  0  0  0  0  0  0  0  0  0  0  0
   40.8050   28.8260   40.3660 C   0  0  0  0  0  0  0  0  0  0  0  0
   40.1720   29.5610   41.3360 C   0  0  0  0  0  0  0  0  0  0  0  0
   40.5420   29.3910   42.6610 C   0  0  0  0  0  0  0  0  0  0  0  0
   40.0220   29.9870   43.4020 H   0  0  0  0  0  0  0  0  0  0  0  0
   41.5260   28.5090   43.0560 C   0  0  0  0  0  0  0  0  0  0  0  0
   41.7900   28.4040   44.1210 H   0  0  0  0  0  0  0  0  0  0  0  0
   42.1770   27.7590   42.0940 C   0  0  0  0  0  3  0  0  0  0  0  0
   41.8030   27.9340   40.7710 C   0  0  0  0  0  3  0  0  0  0  0  0
   39.1000   29.3080   38.4810 H   0  0  0  0  0  0  0  0  0  0  0  0
   40.4300   28.9480   38.6760 S   0  0  0  0  0  0  0  0  0  0  0  0
   40.7900   27.7440   37.8820 O   0  0  0  0  0  0  0  0  0  0  0  0
   41.2240   30.1080   38.1190 O   0  0  0  0  0  0  0  0  0  0  0  0
  1 10  1  0  0  0  0
  1  2  1  0  0  0  0
  2 18  1  0  0  0  0
  3  2  2  0  0  0  0
  3 24  1  0  0  0  0
  4  3  1  0  0  0  0
  5 11  1  0  0  0  0
  5  4  1  0  0  0  0
  6  5  1  0  0  0  0
  7  6  2  0  0  0  0
  7  8  1  0  0  0  0
  8  9  1  0  0  0  0
  8  4  2  0  0  0  0
  9  1  2  0  0  0  0
 12  6  1  0  0  0  0
 13  9  1  0  0  0  0
 14 20  1  0  0  0  0
 15 21  1  0  0  0  0
 15 14  2  0  0  0  0
 16 15  1  0  0  0  0
 17 16  2  0  0  0  0
 17 18  1  0  0  0  0
 18 19  2  0  0  0  0
 19 14  1  0  0  0  0
 22 16  1  0  0  0  0
 23 30  2  0  0  0  0
 23 24  1  0  0  0  0
 24 25  2  0  0  0  0
 25 27  1  0  0  0  0
 25 26  1  0  0  0  0
 27 28  1  0  0  0  0
 29 27  2  0  0  0  0
 30 29  1  0  0  0  0
 31 32  1  0  0  0  0
 32 23  1  0  0  0  0
 33 32  2  0  0  0  0
 34 32  2  0  0  0  0
M  END
>  <minimizedAffinity>
-4.98221874

$$$$
