
 OpenBabel03252506123D

 39 41  0  0  0  0  0  0  0  0999 V2000
   45.3410   33.3500   41.2300 F   0  0  0  0  0  0  0  0  0  0  0  0
   46.4870   34.0200   41.1020 C   0  0  0  0  0  0  0  0  0  0  0  0
   46.9110   34.8450   42.1400 C   0  0  0  0  0  0  0  0  0  0  0  0
   48.0930   35.5770   42.0910 C   0  0  0  0  0  0  0  0  0  0  0  0
   48.9020   35.4910   40.9580 C   0  0  0  0  0  0  0  0  0  0  0  0
   48.4450   34.6590   39.9470 C   0  0  0  0  0  0  0  0  0  0  0  0
   47.2930   33.9380   39.9800 C   0  0  0  0  0  0  0  0  0  0  0  0
   48.3580   36.2050   42.9490 H   0  0  0  0  0  0  0  0  0  0  0  0
   49.7880   36.0730   40.9840 H   0  0  0  0  0  0  0  0  0  0  0  0
   49.1690   34.6830   39.1400 H   0  0  0  0  0  0  0  0  0  0  0  0
   45.4900   34.1520   45.4520 C   0  0  0  0  0  0  0  0  0  0  0  0
   44.5730   35.2070   45.6030 C   0  0  0  0  0  0  0  0  0  0  0  0
   44.4460   36.1560   44.5630 C   0  0  0  0  0  0  0  0  0  0  0  0
   45.2380   35.9790   43.4610 N   0  0  0  0  0  0  0  0  0  0  0  0
   46.0970   34.9660   43.3510 C   0  0  0  0  0  0  0  0  0  0  0  0
   46.2180   34.0630   44.3400 N   0  0  0  0  0  0  0  0  0  0  0  0
   43.9490   35.3420   46.4720 H   0  0  0  0  0  0  0  0  0  0  0  0
   43.7550   36.9840   44.6320 H   0  0  0  0  0  0  0  0  0  0  0  0
   45.6090   33.2050   46.5000 N   0  0  0  0  0  0  0  0  0  0  0  0
   44.9330   32.4500   46.8170 H   0  0  0  0  0  0  0  0  0  0  0  0
   46.4770   33.2120   47.0760 H   0  0  0  0  0  0  0  0  0  0  0  0
   46.9450   33.1500   38.9180 O   0  0  0  0  0  0  0  0  0  0  0  0
   48.1340   34.6520   37.0910 O   0  0  0  0  0  0  0  0  0  0  0  0
   47.2010   33.4770   37.2920 P   0  0  2  0  0  0  0  0  0  0  0  0
   45.6860   33.8070   36.5660 O   0  0  0  0  0  0  0  0  0  0  0  0
   45.7540   34.6020   35.9840 H   0  0  0  0  0  0  0  0  0  0  0  0
   47.8170   32.1630   36.4270 O   0  0  0  0  0  0  0  0  0  0  0  0
   47.5620   31.5160   34.2200 C   0  0  0  0  0  0  0  0  0  0  0  0
   47.1430   31.3640   35.5450 C   0  0  0  0  0  0  0  0  0  0  0  0
   46.1360   30.4570   35.7750 C   0  0  0  0  0  0  0  0  0  0  0  0
   45.8480   30.3760   36.8120 H   0  0  0  0  0  0  0  0  0  0  0  0
   45.5600   29.7270   34.7620 C   0  0  0  0  0  0  0  0  0  0  0  0
   44.7720   29.0240   34.9800 H   0  0  0  0  0  0  0  0  0  0  0  0
   45.9610   29.8640   33.4450 C   0  0  0  0  0  3  0  0  0  0  0  0
   46.9730   30.7750   33.2170 C   0  0  0  0  0  3  0  0  0  0  0  0
   49.0330   33.5050   34.7790 H   0  0  0  0  0  0  0  0  0  0  0  0
   48.8450   32.6410   33.7530 S   0  0  0  0  0  0  0  0  0  0  0  0
   50.1050   31.8360   33.4680 O   0  0  0  0  0  0  0  0  0  0  0  0
   48.4730   33.2980   32.4640 O   0  0  0  0  0  0  0  0  0  0  0  0
  2  1  1  0  0  0  0
  2  3  1  0  0  0  0
  3 15  1  0  0  0  0
  4  3  2  0  0  0  0
  4  8  1  0  0  0  0
  5  9  1  0  0  0  0
  5  4  1  0  0  0  0
  6  7  1  0  0  0  0
  6  5  2  0  0  0  0
  7  2  2  0  0  0  0
 10  6  1  0  0  0  0
 11 12  1  0  0  0  0
 11 19  1  0  0  0  0
 12 17  1  0  0  0  0
 13 18  1  0  0  0  0
 13 12  2  0  0  0  0
 14 13  1  0  0  0  0
 15 14  2  0  0  0  0
 15 16  1  0  0  0  0
 16 11  2  0  0  0  0
 19 20  1  0  0  0  0
 19 21  1  0  0  0  0
 22  7  1  0  0  0  0
 24 23  2  6  0  0  0
 24 22  1  0  0  0  0
 25 24  1  0  0  0  0
 26 25  1  0  0  0  0
 27 24  1  0  0  0  0
 28 29  1  0  0  0  0
 29 30  2  0  0  0  0
 29 27  1  0  0  0  0
 30 31  1  0  0  0  0
 32 33  1  0  0  0  0
 32 30  1  0  0  0  0
 34 32  2  0  0  0  0
 35 34  1  0  0  0  0
 35 28  2  0  0  0  0
 37 28  1  0  0  0  0
 37 36  1  0  0  0  0
 38 37  2  0  0  0  0
 39 37  2  0  0  0  0
M  END
>  <minimizedAffinity>
-6.83820772

>  <minimizedRMSD>
1.43351424

$$$$
