
 OpenBabel03252503533D

 39 41  0  0  1  0  0  0  0  0999 V2000
   46.1480   32.6010   45.3930 N   0  0  0  0  0  0  0  0  0  0  0  0
   45.7450   33.0620   46.7250 C   0  0  0  0  0  0  0  0  0  0  0  0
   46.2710   32.0320   47.7070 C   0  0  0  0  0  0  0  0  0  0  0  0
   45.5030   30.7530   47.5260 C   0  0  0  0  0  0  0  0  0  0  0  0
   45.5390   30.3640   46.0840 C   0  0  0  0  0  0  0  0  0  0  0  0
   46.4120   31.2200   45.2310 C   0  0  1  0  0  0  0  0  0  0  0  0
   46.2730   34.0280   46.9050 H   0  0  0  0  0  0  0  0  0  0  0  0
   44.6640   33.1400   46.8410 H   0  0  0  0  0  0  0  0  0  0  0  0
   47.3670   31.8920   47.6080 H   0  0  0  0  0  0  0  0  0  0  0  0
   46.0910   32.3790   48.7310 H   0  0  0  0  0  0  0  0  0  0  0  0
   44.4870   30.9200   47.9290 H   0  0  0  0  0  0  0  0  0  0  0  0
   45.9620   29.9400   48.1500 H   0  0  0  0  0  0  0  0  0  0  0  0
   45.7850   29.2900   45.9270 H   0  0  0  0  0  0  0  0  0  0  0  0
   44.4840   30.5250   45.7050 H   0  0  0  0  0  0  0  0  0  0  0  0
   47.4650   31.0110   45.4700 H   0  0  0  0  0  0  0  0  0  0  0  0
   47.5080   34.6650   42.6460 C   0  0  0  0  0  0  0  0  0  0  0  0
   47.4590   33.7960   43.7380 C   0  0  0  0  0  0  0  0  0  0  0  0
   46.2430   33.5110   44.3300 C   0  0  0  0  0  0  0  0  0  0  0  0
   45.1330   34.1010   43.8210 N   0  0  0  0  0  0  0  0  0  0  0  0
   45.1800   34.9510   42.7590 C   0  0  0  0  0  0  0  0  0  0  0  0
   46.3710   35.2290   42.1720 N   0  0  0  0  0  0  0  0  0  0  0  0
   48.4110   33.4330   44.0720 H   0  0  0  0  0  0  0  0  0  0  0  0
   44.2720   35.4050   42.3780 H   0  0  0  0  0  0  0  0  0  0  0  0
   48.8410   34.9070   42.0110 C   0  0  0  0  0  0  0  0  0  0  0  0
   49.1330   33.9540   41.0420 F   0  0  0  0  0  0  0  0  0  0  0  0
   48.8140   36.1740   41.4680 F   0  0  0  0  0  0  0  0  0  0  0  0
   49.8290   34.8820   42.9870 F   0  0  0  0  0  0  0  0  0  0  0  0
   47.1910   30.2160   43.0440 C   0  0  0  0  0  0  0  0  0  0  0  0
   46.1320   30.6770   43.8440 C   0  0  0  0  0  0  0  0  0  0  0  0
   44.8470   30.5690   43.3030 C   0  0  0  0  0  0  0  0  0  0  0  0
   44.0210   30.9170   43.9060 H   0  0  0  0  0  0  0  0  0  0  0  0
   44.6740   30.0320   42.0450 C   0  0  0  0  0  0  0  0  0  0  0  0
   43.6420   29.9870   41.7050 H   0  0  0  0  0  0  0  0  0  0  0  0
   45.7390   29.5890   41.2880 C   0  0  0  0  0  3  0  0  0  0  0  0
   47.0100   29.6850   41.8000 C   0  0  0  0  0  3  0  0  0  0  0  0
   48.9620   30.7280   44.8880 H   0  0  0  0  0  0  0  0  0  0  0  0
   48.8500   30.2940   43.5950 S   0  0  0  0  0  0  0  0  0  0  0  0
   49.5120   28.9460   43.5200 O   0  0  0  0  0  0  0  0  0  0  0  0
   49.6240   31.2720   42.7260 O   0  0  0  0  0  0  0  0  0  0  0  0
  1  2  1  0  0  0  0
  2  8  1  0  0  0  0
  2  7  1  0  0  0  0
  2  3  1  0  0  0  0
  3 10  1  0  0  0  0
  4  3  1  0  0  0  0
  4 11  1  0  0  0  0
  4 12  1  0  0  0  0
  5  4  1  0  0  0  0
  6  1  1  0  0  0  0
  6 15  1  1  0  0  0
  6  5  1  0  0  0  0
  9  3  1  0  0  0  0
 13  5  1  0  0  0  0
 14  5  1  0  0  0  0
 16 17  1  0  0  0  0
 17 22  1  0  0  0  0
 17 18  2  0  0  0  0
 18  1  1  0  0  0  0
 19 18  1  0  0  0  0
 20 19  2  0  0  0  0
 21 16  2  0  0  0  0
 21 20  1  0  0  0  0
 23 20  1  0  0  0  0
 24 16  1  0  0  0  0
 24 27  1  0  0  0  0
 25 24  1  0  0  0  0
 26 24  1  0  0  0  0
 28 37  1  0  0  0  0
 28 29  1  0  0  0  0
 29  6  1  0  0  0  0
 30 29  2  0  0  0  0
 30 31  1  0  0  0  0
 32 30  1  0  0  0  0
 33 32  1  0  0  0  0
 34 35  1  0  0  0  0
 34 32  2  0  0  0  0
 35 28  2  0  0  0  0
 37 36  1  0  0  0  0
 38 37  2  0  0  0  0
 39 37  2  0  0  0  0
M  END
>  <minimizedAffinity>
-4.84464836

>  <minimizedRMSD>
1.956972

$$$$
