
 OpenBabel03252501373D

 38 40  0  0  0  0  0  0  0  0999 V2000
   42.5660   32.8180   38.2490 Cl  0  0  0  0  0  0  0  0  0  0  0  0
   41.5820   33.1860   39.6450 C   0  0  0  0  0  0  0  0  0  0  0  0
   41.8660   34.2340   40.5270 C   0  0  0  0  0  0  0  0  0  0  0  0
   41.0550   34.4660   41.6000 C   0  0  0  0  0  0  0  0  0  0  0  0
   39.9320   33.7120   41.8830 C   0  0  0  0  0  0  0  0  0  0  0  0
   39.6210   32.6640   41.0280 C   0  0  0  0  0  0  0  0  0  0  0  0
   38.2160   31.6390   41.2950 Cl  0  0  0  0  0  0  0  0  0  0  0  0
   40.4630   32.4510   39.9480 C   0  0  0  0  0  0  0  0  0  0  0  0
   41.3340   35.2980   42.2470 H   0  0  0  0  0  0  0  0  0  0  0  0
   39.3040   33.9200   42.7460 H   0  0  0  0  0  0  0  0  0  0  0  0
   39.3010   31.7200   37.9800 C   0  0  0  0  0  0  0  0  0  0  0  0
   40.1520   31.3430   39.0240 C   0  0  0  0  0  0  0  0  0  0  0  0
   40.6190   30.0470   39.1230 C   0  0  0  0  0  0  0  0  0  0  0  0
   41.2700   29.8460   39.9600 H   0  0  0  0  0  0  0  0  0  0  0  0
   40.2360   29.1200   38.1760 C   0  0  0  0  0  0  0  0  0  0  0  0
   40.6190   28.0940   38.2740 H   0  0  0  0  0  0  0  0  0  0  0  0
   39.4000   29.4170   37.1190 C   0  0  0  0  0  0  0  0  0  0  0  0
   38.9510   30.7330   37.0540 C   0  0  0  0  0  0  0  0  0  0  0  0
   39.6790   34.1520   37.4250 H   0  0  0  0  0  0  0  0  0  0  0  0
   38.6420   33.3140   37.7400 S   0  0  0  0  0  0  0  0  0  0  0  0
   37.8250   33.8100   38.8720 O   0  0  0  0  0  0  0  0  0  0  0  0
   37.7070   33.2430   36.5410 O   0  0  0  0  0  0  0  0  0  0  0  0
   43.0070   34.9790   40.2140 O   0  0  0  0  0  0  0  0  0  0  0  0
   44.2060   34.6560   40.8760 C   0  0  0  0  0  0  0  0  0  0  0  0
   45.0600   33.7730   40.5020 O   0  0  0  0  0  0  0  0  0  0  0  0
   44.5940   35.3180   42.0810 N   0  0  0  0  0  0  0  0  0  0  0  0
   44.0050   36.0510   42.4970 H   0  0  0  0  0  0  0  0  0  0  0  0
   45.8660   34.7750   42.5200 C   0  0  0  0  0  0  0  0  0  0  0  0
   45.9990   33.8130   43.4860 C   0  0  0  0  0  0  0  0  0  0  0  0
   47.2970   33.4110   43.7800 C   0  0  0  0  0  0  0  0  0  0  0  0
   48.3070   33.9810   43.1070 N   0  0  0  0  0  0  0  0  0  0  0  0
   48.1270   34.9270   42.1610 C   0  0  0  0  0  0  0  0  0  0  0  0
   46.8780   35.3450   41.8480 N   0  0  0  0  0  0  0  0  0  0  0  0
   47.4090   32.6510   44.5430 H   0  0  0  0  0  0  0  0  0  0  0  0
   49.0070   35.3200   41.6810 H   0  0  0  0  0  0  0  0  0  0  0  0
   44.8240   33.3180   44.0960 N   0  0  0  0  0  0  0  0  0  0  0  0
   43.9460   33.2480   43.5220 H   0  0  0  0  0  0  0  0  0  0  0  0
   44.9720   33.0710   45.0800 H   0  0  0  0  0  0  0  0  0  0  0  0
  1  2  1  0  0  0  0
  2  8  2  0  0  0  0
  2  3  1  0  0  0  0
  3  4  2  0  0  0  0
  4  5  1  0  0  0  0
  4  9  1  0  0  0  0
  5 10  1  0  0  0  0
  6  7  1  0  0  0  0
  6  5  2  0  0  0  0
  8  6  1  0  0  0  0
 11 12  1  0  0  0  0
 12 13  2  0  0  0  0
 12  8  1  0  0  0  0
 13 14  1  0  0  0  0
 15 16  1  0  0  0  0
 15 13  1  0  0  0  0
 17 15  2  0  0  0  0
 18 17  1  0  0  0  0
 18 11  2  0  0  0  0
 19 20  1  0  0  0  0
 20 11  1  0  0  0  0
 20 21  2  0  0  0  0
 22 20  2  0  0  0  0
 23  3  1  0  0  0  0
 23 24  1  0  0  0  0
 24 26  1  0  0  0  0
 25 24  2  0  0  0  0
 26 27  1  0  0  0  0
 26 28  1  0  0  0  0
 28 29  1  0  0  0  0
 29 30  2  0  0  0  0
 29 36  1  0  0  0  0
 30 34  1  0  0  0  0
 31 30  1  0  0  0  0
 32 31  2  0  0  0  0
 33 32  1  0  0  0  0
 33 28  2  0  0  0  0
 35 32  1  0  0  0  0
 36 38  1  0  0  0  0
 37 36  1  0  0  0  0
M  END
>  <minimizedAffinity>
-5.57231379

>  <minimizedRMSD>
2.1512773

$$$$
