
 OpenBabel03252502243D

 37 39  0  0  1  0  0  0  0  0999 V2000
   46.6040   34.4190   42.2780 N   0  0  0  0  0  0  0  0  0  0  0  0
   48.0240   34.1140   42.3080 C   0  0  0  0  0  0  0  0  0  0  0  0
   48.5890   34.8720   41.0910 C   0  0  0  0  0  0  0  0  0  0  0  0
   48.0520   34.2780   39.8270 C   0  0  0  0  0  0  0  0  0  0  0  0
   46.6070   33.9130   39.8800 C   0  0  0  0  0  0  0  0  0  0  0  0
   45.8520   34.4380   41.0500 C   0  0  1  0  0  0  0  0  0  0  0  0
   48.1570   33.0450   42.0610 H   0  0  0  0  0  0  0  0  0  0  0  0
   48.5000   34.4410   43.2310 H   0  0  0  0  0  0  0  0  0  0  0  0
   49.6910   34.7200   41.1180 H   0  0  0  0  0  0  0  0  0  0  0  0
   48.3890   35.9520   41.1970 H   0  0  0  0  0  0  0  0  0  0  0  0
   48.2610   35.0310   39.0170 H   0  0  0  0  0  0  0  0  0  0  0  0
   48.7130   33.4190   39.5590 H   0  0  0  0  0  0  0  0  0  0  0  0
   46.5440   32.8020   39.7490 H   0  0  0  0  0  0  0  0  0  0  0  0
   46.1230   34.3210   38.9680 H   0  0  0  0  0  0  0  0  0  0  0  0
   45.5600   35.4900   40.8680 H   0  0  0  0  0  0  0  0  0  0  0  0
   44.4770   36.0840   44.8610 C   0  0  0  0  0  0  0  0  0  0  0  0
   45.1260   35.8940   43.6280 C   0  0  0  0  0  0  0  0  0  0  0  0
   45.9020   34.7130   43.4880 C   0  0  0  0  0  0  0  0  0  0  0  0
   45.9660   33.8520   44.5420 N   0  0  0  0  0  0  0  0  0  0  0  0
   45.3110   34.0970   45.7110 C   0  0  0  0  0  0  0  0  0  0  0  0
   44.5690   35.2190   45.8550 N   0  0  0  0  0  0  0  0  0  0  0  0
   43.8930   36.9920   44.9420 H   0  0  0  0  0  0  0  0  0  0  0  0
   45.0700   36.5840   42.7930 H   0  0  0  0  0  0  0  0  0  0  0  0
   45.4660   33.3140   46.4460 H   0  0  0  0  0  0  0  0  0  0  0  0
   44.6990   33.6760   41.2150 O   0  0  0  0  0  0  0  0  0  0  0  0
   42.5210   33.0120   41.3320 C   0  0  0  0  0  0  0  0  0  0  0  0
   43.4060   34.0270   40.9490 C   0  0  0  0  0  0  0  0  0  0  0  0
   42.8920   35.1770   40.3900 C   0  0  0  0  0  0  0  0  0  0  0  0
   43.6500   35.9020   40.1270 H   0  0  0  0  0  0  0  0  0  0  0  0
   41.5390   35.3590   40.1960 C   0  0  0  0  0  0  0  0  0  0  0  0
   41.2270   36.2920   39.7500 H   0  0  0  0  0  0  0  0  0  0  0  0
   40.6760   34.3350   40.5850 C   0  0  0  0  0  0  0  0  0  0  0  0
   41.1410   33.1650   41.1490 C   0  0  0  0  0  0  0  0  0  0  0  0
   43.9840   31.6380   42.9790 H   0  0  0  0  0  0  0  0  0  0  0  0
   42.9990   31.4790   42.0610 S   0  0  0  0  0  0  0  0  0  0  0  0
   41.8310   30.8470   42.7130 O   0  0  0  0  0  0  0  0  0  0  0  0
   43.4420   30.5800   40.9260 O   0  0  0  0  0  0  0  0  0  0  0  0
  1  2  1  0  0  0  0
  1 18  1  0  0  0  0
  2  8  1  0  0  0  0
  3  9  1  0  0  0  0
  3 10  1  0  0  0  0
  3  2  1  0  0  0  0
  4  5  1  0  0  0  0
  4  3  1  0  0  0  0
  5  6  1  0  0  0  0
  6 15  1  6  0  0  0
  6 25  1  0  0  0  0
  6  1  1  0  0  0  0
  7  2  1  0  0  0  0
 11  4  1  0  0  0  0
 12  4  1  0  0  0  0
 13  5  1  0  0  0  0
 14  5  1  0  0  0  0
 16 22  1  0  0  0  0
 16 21  1  0  0  0  0
 17 16  2  0  0  0  0
 18 17  1  0  0  0  0
 18 19  2  0  0  0  0
 19 20  1  0  0  0  0
 20 21  2  0  0  0  0
 20 24  1  0  0  0  0
 23 17  1  0  0  0  0
 26 35  1  0  0  0  0
 27 25  1  0  0  0  0
 27 26  2  0  0  0  0
 28 27  1  0  0  0  0
 29 28  1  0  0  0  0
 30 28  2  0  0  0  0
 30 32  1  0  0  0  0
 31 30  1  0  0  0  0
 32 33  2  0  0  0  0
 33 26  1  0  0  0  0
 35 36  2  0  0  0  0
 35 34  1  0  0  0  0
 37 35  2  0  0  0  0
M  END
>  <minimizedAffinity>
-5.67279196

>  <minimizedRMSD>
1.13384199

$$$$
