
 OpenBabel03242517503D

 22 23  0  0  0  0  0  0  0  0999 V2000
   45.8370   30.6910   46.7050 C   0  0  0  0  0  0  0  0  0  0  0  0
   46.2170   31.9690   47.0090 C   0  0  0  0  0  0  0  0  0  0  0  0
   45.9780   32.4210   48.3110 C   0  0  0  0  0  0  0  0  0  0  0  0
   46.2280   33.4060   48.6860 H   0  0  0  0  0  0  0  0  0  0  0  0
   45.3830   31.6200   49.2640 C   0  0  0  0  0  0  0  0  0  0  0  0
   45.1850   31.9400   50.2790 H   0  0  0  0  0  0  0  0  0  0  0  0
   45.0090   30.3310   48.9280 C   0  0  0  0  0  0  0  0  0  0  0  0
   45.2400   29.8710   47.6400 C   0  0  0  0  0  0  0  0  0  0  0  0
   47.4290   30.5320   44.6470 H   0  0  0  0  0  0  0  0  0  0  0  0
   46.1690   30.2070   45.0570 S   0  0  0  0  0  0  0  0  0  0  0  0
   45.1280   30.7150   44.1070 O   0  0  0  0  0  0  0  0  0  0  0  0
   46.0980   28.6880   45.0140 O   0  0  0  0  0  0  0  0  0  0  0  0
   46.8170   32.9260   46.2240 O   0  0  0  0  0  0  0  0  0  0  0  0
   46.0700   34.7490   43.2690 C   0  0  0  0  0  0  0  0  0  0  0  0
   44.9860   35.5510   43.6490 C   0  0  0  0  0  0  0  0  0  0  0  0
   44.5140   35.4460   44.9600 C   0  0  0  0  0  0  0  0  0  0  0  0
   45.1400   34.5750   45.7740 N   0  0  0  0  0  0  0  0  0  0  0  0
   46.1750   33.8190   45.3910 C   0  0  0  0  0  0  0  0  0  0  0  0
   46.6300   33.9140   44.1370 N   0  0  0  0  0  0  0  0  0  0  0  0
   46.3700   34.8910   42.2410 H   0  0  0  0  0  0  0  0  0  0  0  0
   44.4390   36.2690   43.0450 H   0  0  0  0  0  0  0  0  0  0  0  0
   43.6960   35.9880   45.4100 H   0  0  0  0  0  0  0  0  0  0  0  0
  1  2  2  0  0  0  0
  1  8  1  0  0  0  0
  2  3  1  0  0  0  0
  3  4  1  0  0  0  0
  3  5  2  0  0  0  0
  5  6  1  0  0  0  0
  7  5  1  0  0  0  0
  8  7  2  0  0  0  0
  9 10  1  0  0  0  0
 10  1  1  0  0  0  0
 11 10  2  0  0  0  0
 12 10  2  0  0  0  0
 13  2  1  0  0  0  0
 14 15  2  0  0  0  0
 14 19  1  0  0  0  0
 15 16  1  0  0  0  0
 16 22  1  0  0  0  0
 16 17  2  0  0  0  0
 18 17  1  0  0  0  0
 18 13  1  0  0  0  0
 19 18  2  0  0  0  0
 20 14  1  0  0  0  0
 21 15  1  0  0  0  0
M  END
>  <minimizedAffinity>
-4.64129114

>  <minimizedRMSD>
2.48337984

$$$$
