
 OpenBabel03252503533D

 39 41  0  0  1  0  0  0  0  0999 V2000
   46.6170   32.7690   45.2440 N   0  0  0  0  0  0  0  0  0  0  0  0
   45.7930   33.0210   46.4310 C   0  0  0  0  0  0  0  0  0  0  0  0
   46.3620   32.1480   47.5340 C   0  0  0  0  0  0  0  0  0  0  0  0
   46.0820   30.7080   47.2050 C   0  0  0  0  0  0  0  0  0  0  0  0
   46.5700   30.4200   45.8230 C   0  0  0  0  0  0  0  0  0  0  0  0
   47.3170   31.5400   45.1820 C   0  0  1  0  0  0  0  0  0  0  0  0
   45.9460   34.0890   46.7080 H   0  0  0  0  0  0  0  0  0  0  0  0
   44.7440   32.7650   46.2850 H   0  0  0  0  0  0  0  0  0  0  0  0
   47.4400   32.3480   47.7020 H   0  0  0  0  0  0  0  0  0  0  0  0
   45.8510   32.3720   48.4770 H   0  0  0  0  0  0  0  0  0  0  0  0
   44.9990   30.5430   47.3510 H   0  0  0  0  0  0  0  0  0  0  0  0
   46.6070   30.0400   47.9400 H   0  0  0  0  0  0  0  0  0  0  0  0
   47.1600   29.4790   45.7550 H   0  0  0  0  0  0  0  0  0  0  0  0
   45.6360   30.2760   45.2000 H   0  0  0  0  0  0  0  0  0  0  0  0
   48.2970   31.6450   45.6700 H   0  0  0  0  0  0  0  0  0  0  0  0
   47.8470   34.8320   42.4360 C   0  0  0  0  0  0  0  0  0  0  0  0
   47.8400   33.9190   43.4920 C   0  0  0  0  0  0  0  0  0  0  0  0
   46.6770   33.7180   44.2130 C   0  0  0  0  0  0  0  0  0  0  0  0
   45.5790   34.4310   43.8620 N   0  0  0  0  0  0  0  0  0  0  0  0
   45.5850   35.3240   42.8350 C   0  0  0  0  0  0  0  0  0  0  0  0
   46.7230   35.5210   42.1230 N   0  0  0  0  0  0  0  0  0  0  0  0
   48.7840   33.4540   43.6970 H   0  0  0  0  0  0  0  0  0  0  0  0
   44.6890   35.8780   42.5820 H   0  0  0  0  0  0  0  0  0  0  0  0
   49.1160   34.9830   41.6580 C   0  0  0  0  0  0  0  0  0  0  0  0
   49.5170   33.7800   41.0850 F   0  0  0  0  0  0  0  0  0  0  0  0
   48.8950   35.9420   40.6920 F   0  0  0  0  0  0  0  0  0  0  0  0
   50.1200   35.4440   42.4970 F   0  0  0  0  0  0  0  0  0  0  0  0
   46.4530   30.6290   42.9870 C   0  0  0  0  0  0  0  0  0  0  0  0
   47.5470   31.0090   43.7820 C   0  0  0  0  0  0  0  0  0  0  0  0
   48.8130   30.8990   43.1970 C   0  0  0  0  0  0  0  0  0  0  0  0
   49.6660   31.1890   43.7930 H   0  0  0  0  0  0  0  0  0  0  0  0
   48.9340   30.4360   41.9040 C   0  0  0  0  0  0  0  0  0  0  0  0
   49.9530   30.3850   41.5310 H   0  0  0  0  0  0  0  0  0  0  0  0
   47.8350   30.0720   41.1530 C   0  0  0  0  0  3  0  0  0  0  0  0
   46.5820   30.1720   41.7080 C   0  0  0  0  0  3  0  0  0  0  0  0
   44.7490   31.1100   44.9020 H   0  0  0  0  0  0  0  0  0  0  0  0
   44.8140   30.7120   43.5940 S   0  0  0  0  0  0  0  0  0  0  0  0
   43.9860   31.6780   42.7950 O   0  0  0  0  0  0  0  0  0  0  0  0
   44.1770   29.3330   43.5140 O   0  0  0  0  0  0  0  0  0  0  0  0
  1  2  1  0  0  0  0
  2  7  1  0  0  0  0
  2  3  1  0  0  0  0
  3  9  1  0  0  0  0
  3 10  1  0  0  0  0
  4 11  1  0  0  0  0
  4  3  1  0  0  0  0
  4 12  1  0  0  0  0
  5  4  1  0  0  0  0
  6  1  1  0  0  0  0
  6 15  1  1  0  0  0
  6  5  1  0  0  0  0
  8  2  1  0  0  0  0
 13  5  1  0  0  0  0
 14  5  1  0  0  0  0
 16 17  1  0  0  0  0
 17 22  1  0  0  0  0
 17 18  2  0  0  0  0
 18  1  1  0  0  0  0
 19 18  1  0  0  0  0
 20 19  2  0  0  0  0
 21 16  2  0  0  0  0
 21 20  1  0  0  0  0
 23 20  1  0  0  0  0
 24 16  1  0  0  0  0
 24 27  1  0  0  0  0
 25 24  1  0  0  0  0
 26 24  1  0  0  0  0
 28 37  1  0  0  0  0
 28 29  1  0  0  0  0
 29  6  1  0  0  0  0
 30 29  2  0  0  0  0
 30 31  1  0  0  0  0
 32 30  1  0  0  0  0
 33 32  1  0  0  0  0
 34 35  1  0  0  0  0
 34 32  2  0  0  0  0
 35 28  2  0  0  0  0
 37 36  1  0  0  0  0
 38 37  2  0  0  0  0
 39 37  2  0  0  0  0
M  END
>  <minimizedAffinity>
-5.00282812

>  <minimizedRMSD>
2.06906724

$$$$
