
 OpenBabel03252506493D

 32 34  0  0  0  0  0  0  0  0999 V2000
   44.1700   34.4640   40.3530 C   0  0  0  0  0  0  0  0  0  0  0  0
   45.2710   33.5940   40.3150 C   0  0  0  0  0  0  0  0  0  0  0  0
   46.3100   33.7990   41.2370 C   0  0  0  0  0  0  0  0  0  0  0  0
   46.1990   34.8290   42.1210 N   0  0  0  0  0  0  0  0  0  0  0  0
   45.1200   35.6420   42.1220 C   0  0  0  0  0  0  0  0  0  0  0  0
   44.1030   35.4800   41.2540 N   0  0  0  0  0  0  0  0  0  0  0  0
   45.3390   32.7900   39.6100 H   0  0  0  0  0  0  0  0  0  0  0  0
   47.1520   33.1200   41.1960 H   0  0  0  0  0  0  0  0  0  0  0  0
   44.9360   36.4930   44.4640 C   0  0  0  0  0  0  0  0  0  0  0  0
   45.1120   36.7120   43.1140 C   0  0  0  0  0  0  0  0  0  0  0  0
   45.2880   38.0130   42.6930 C   0  0  0  0  0  0  0  0  0  0  0  0
   45.4350   38.2910   41.6410 H   0  0  0  0  0  0  0  0  0  0  0  0
   45.2950   39.0950   43.5640 C   0  0  0  0  0  0  0  0  0  0  0  0
   45.4340   40.1130   43.2190 H   0  0  0  0  0  0  0  0  0  0  0  0
   45.1210   38.8950   44.9180 C   0  0  0  0  0  3  0  0  0  0  0  0
   44.9480   37.5940   45.3110 C   0  0  0  0  0  3  0  0  0  0  0  0
   43.7760   34.1660   44.3380 H   0  0  0  0  0  0  0  0  0  0  0  0
   44.7090   34.8630   45.0540 S   0  0  0  0  0  0  0  0  0  0  0  0
   44.2860   34.9760   46.5130 O   0  0  0  0  0  0  0  0  0  0  0  0
   46.0390   34.1230   45.1020 O   0  0  0  0  0  0  0  0  0  0  0  0
   42.8830   34.1420   39.1490 S   0  0  0  0  0  0  0  0  0  0  0  0
   42.4250   31.4100   40.7480 Cl  0  0  0  0  0  0  0  0  0  0  0  0
   41.0670   32.5280   40.5740 C   0  0  0  0  0  0  0  0  0  0  0  0
   41.3540   33.6620   39.8770 C   0  0  0  0  0  0  0  0  0  0  0  0
   40.3250   34.5820   39.7010 C   0  0  0  0  0  0  0  0  0  0  0  0
   39.0620   34.3160   40.2340 C   0  0  0  0  0  0  0  0  0  0  0  0
   38.7750   33.1560   40.9450 C   0  0  0  0  0  0  0  0  0  0  0  0
   39.8220   32.2610   41.1020 C   0  0  0  0  0  0  0  0  0  0  0  0
   39.6080   30.7550   41.9830 Cl  0  0  0  0  0  0  0  0  0  0  0  0
   40.4290   35.5160   39.1670 H   0  0  0  0  0  0  0  0  0  0  0  0
   38.2470   35.0230   40.1070 H   0  0  0  0  0  0  0  0  0  0  0  0
   37.7980   32.9530   41.3570 H   0  0  0  0  0  0  0  0  0  0  0  0
  1  6  1  0  0  0  0
  2  1  2  0  0  0  0
  2  3  1  0  0  0  0
  3  4  2  0  0  0  0
  4  5  1  0  0  0  0
  5 10  1  0  0  0  0
  6  5  2  0  0  0  0
  7  2  1  0  0  0  0
  8  3  1  0  0  0  0
  9 18  1  0  0  0  0
  9 16  1  0  0  0  0
 10  9  2  0  0  0  0
 11 10  1  0  0  0  0
 11 13  2  0  0  0  0
 12 11  1  0  0  0  0
 13 15  1  0  0  0  0
 14 13  1  0  0  0  0
 15 16  2  0  0  0  0
 17 18  1  0  0  0  0
 18 20  2  0  0  0  0
 18 19  2  0  0  0  0
 21 24  1  0  0  0  0
 21  1  1  0  0  0  0
 23 22  1  0  0  0  0
 23 28  1  0  0  0  0
 24 23  2  0  0  0  0
 25 24  1  0  0  0  0
 25 26  2  0  0  0  0
 26 27  1  0  0  0  0
 27 28  2  0  0  0  0
 27 32  1  0  0  0  0
 28 29  1  0  0  0  0
 30 25  1  0  0  0  0
 31 26  1  0  0  0  0
M  END
>  <minimizedAffinity>
-2.54993773

>  <minimizedRMSD>
2.43292785

$$$$
