
 OpenBabel03252505113D

 47 50  0  0  1  0  0  0  0  0999 V2000
   44.5600   35.5560   44.6050 C   0  0  0  0  0  0  0  0  0  0  0  0
   45.2570   35.6060   43.3780 C   0  0  0  0  0  0  0  0  0  0  0  0
   46.3750   34.7250   43.2140 C   0  0  0  0  0  0  0  0  0  0  0  0
   46.7060   33.9020   44.2280 N   0  0  0  0  0  0  0  0  0  0  0  0
   46.0170   33.8860   45.3820 C   0  0  0  0  0  0  0  0  0  0  0  0
   44.9390   34.7130   45.5790 N   0  0  0  0  0  0  0  0  0  0  0  0
   43.7080   36.2190   44.7440 H   0  0  0  0  0  0  0  0  0  0  0  0
   44.9890   36.2610   42.5780 H   0  0  0  0  0  0  0  0  0  0  0  0
   46.4220   32.9640   46.4660 C   0  0  2  0  0  0  0  0  0  0  0  0
   46.9370   31.7280   45.7610 C   0  0  0  0  0  0  0  0  0  0  0  0
   46.0390   30.5530   45.7790 C   0  0  0  0  0  0  0  0  0  0  0  0
   45.7780   30.2870   47.2560 C   0  0  0  0  0  0  0  0  0  0  0  0
   44.9920   31.3650   47.8780 C   0  0  0  0  0  0  0  0  0  0  0  0
   45.3760   32.7280   47.4230 C   0  0  0  0  0  0  0  0  0  0  0  0
   47.2930   33.4620   46.9640 H   0  0  0  0  0  0  0  0  0  0  0  0
   47.2230   31.9170   44.7040 H   0  0  0  0  0  0  0  0  0  0  0  0
   47.8850   31.4170   46.2500 H   0  0  0  0  0  0  0  0  0  0  0  0
   45.1090   30.6220   45.2160 H   0  0  0  0  0  0  0  0  0  0  0  0
   46.6260   29.6860   45.4290 H   0  0  0  0  0  0  0  0  0  0  0  0
   46.6960   30.0140   47.7760 H   0  0  0  0  0  0  0  0  0  0  0  0
   45.1040   29.4040   47.2610 H   0  0  0  0  0  0  0  0  0  0  0  0
   44.1990   31.3670   48.5890 H   0  0  0  0  0  0  0  0  0  0  0  0
   44.6930   33.8620   47.9370 N   0  0  0  0  0  0  0  0  0  0  0  0
   43.6930   34.0680   47.6930 H   0  0  0  0  0  0  0  0  0  0  0  0
   45.1660   34.5310   48.5780 H   0  0  0  0  0  0  0  0  0  0  0  0
   47.1050   34.7550   41.9570 C   0  0  0  0  0  0  0  0  0  0  0  0
   48.2340   35.5110   41.8970 C   0  0  0  0  0  0  0  0  0  0  0  0
   48.9040   35.5100   40.6610 C   0  0  0  0  0  0  0  0  0  0  0  0
   48.3430   34.7420   39.6480 C   0  0  0  0  0  0  0  0  0  0  0  0
   47.2090   33.9790   39.7050 C   0  0  0  0  0  0  0  0  0  0  0  0
   46.5970   34.0200   40.9350 N   0  0  0  0  0  0  0  0  0  0  0  0
   48.5650   36.0670   42.7630 H   0  0  0  0  0  0  0  0  0  0  0  0
   49.7960   36.1100   40.6190 H   0  0  0  0  0  0  0  0  0  0  0  0
   48.9770   34.8550   38.7840 H   0  0  0  0  0  0  0  0  0  0  0  0
   46.7310   33.2630   38.6740 O   0  0  0  0  0  0  0  0  0  0  0  0
   45.8110   32.4510   36.9070 C   0  0  0  0  0  0  0  0  0  0  0  0
   47.0240   32.9460   37.4360 C   0  0  0  0  0  0  0  0  0  0  0  0
   48.0640   32.9420   36.5520 C   0  0  0  0  0  0  0  0  0  0  0  0
   48.9620   33.3170   36.9700 H   0  0  0  0  0  0  0  0  0  0  0  0
   48.0450   32.5200   35.2460 C   0  0  0  0  0  0  0  0  0  0  0  0
   48.9560   32.5860   34.6860 H   0  0  0  0  0  0  0  0  0  0  0  0
   46.8340   32.0510   34.7980 C   0  0  0  0  0  3  0  0  0  0  0  0
   45.6920   32.0000   35.5950 C   0  0  0  0  0  3  0  0  0  0  0  0
   43.3060   31.8330   36.7740 H   0  0  0  0  0  0  0  0  0  0  0  0
   44.2320   32.2770   37.6860 S   0  0  0  0  0  0  0  0  0  0  0  0
   44.3580   31.3560   38.8440 O   0  0  0  0  0  0  0  0  0  0  0  0
   43.7720   33.6130   38.1610 O   0  0  0  0  0  0  0  0  0  0  0  0
  1  7  1  0  0  0  0
  1  6  1  0  0  0  0
  2  1  2  0  0  0  0
  3  2  1  0  0  0  0
  3  4  2  0  0  0  0
  4  5  1  0  0  0  0
  5  6  2  0  0  0  0
  5  9  1  0  0  0  0
  8  2  1  0  0  0  0
  9 15  1  1  0  0  0
  9 14  1  0  0  0  0
 10 11  1  0  0  0  0
 10 17  1  0  0  0  0
 10  9  1  0  0  0  0
 11 12  1  0  0  0  0
 12 21  1  0  0  0  0
 12 20  1  0  0  0  0
 12 13  1  0  0  0  0
 13 22  1  0  0  0  0
 14 13  2  0  0  0  0
 14 23  1  0  0  0  0
 16 10  1  0  0  0  0
 18 11  1  0  0  0  0
 19 11  1  0  0  0  0
 23 25  1  0  0  0  0
 24 23  1  0  0  0  0
 26  3  1  0  0  0  0
 27 26  1  0  0  0  0
 27 32  1  0  0  0  0
 28 27  2  0  0  0  0
 29 30  2  0  0  0  0
 29 28  1  0  0  0  0
 30 31  1  0  0  0  0
 31 26  2  0  0  0  0
 33 28  1  0  0  0  0
 34 29  1  0  0  0  0
 35 30  1  0  0  0  0
 36 37  1  0  0  0  0
 36 45  1  0  0  0  0
 37 35  1  0  0  0  0
 38 39  1  0  0  0  0
 38 37  2  0  0  0  0
 40 38  1  0  0  0  0
 41 40  1  0  0  0  0
 42 40  2  0  0  0  0
 42 43  1  0  0  0  0
 43 36  2  0  0  0  0
 44 45  1  0  0  0  0
 45 47  2  0  0  0  0
 45 46  2  0  0  0  0
M  END
>  <minimizedAffinity>
-7.31831264

>  <minimizedRMSD>
0.752503753

$$$$
