
 OpenBabel03252505113D

 47 50  0  0  1  0  0  0  0  0999 V2000
   44.5570   35.5550   44.6010 C   0  0  0  0  0  0  0  0  0  0  0  0
   45.2550   35.6050   43.3750 C   0  0  0  0  0  0  0  0  0  0  0  0
   46.3750   34.7260   43.2120 C   0  0  0  0  0  0  0  0  0  0  0  0
   46.7060   33.9030   44.2260 N   0  0  0  0  0  0  0  0  0  0  0  0
   46.0160   33.8860   45.3800 C   0  0  0  0  0  0  0  0  0  0  0  0
   44.9370   34.7120   45.5760 N   0  0  0  0  0  0  0  0  0  0  0  0
   43.7050   36.2160   44.7390 H   0  0  0  0  0  0  0  0  0  0  0  0
   44.9880   36.2600   42.5740 H   0  0  0  0  0  0  0  0  0  0  0  0
   46.4210   32.9660   46.4650 C   0  0  2  0  0  0  0  0  0  0  0  0
   46.9370   31.7290   45.7600 C   0  0  0  0  0  0  0  0  0  0  0  0
   46.0390   30.5540   45.7790 C   0  0  0  0  0  0  0  0  0  0  0  0
   45.7780   30.2880   47.2570 C   0  0  0  0  0  0  0  0  0  0  0  0
   44.9920   31.3670   47.8770 C   0  0  0  0  0  0  0  0  0  0  0  0
   45.3760   32.7300   47.4210 C   0  0  0  0  0  0  0  0  0  0  0  0
   47.2930   33.4640   46.9620 H   0  0  0  0  0  0  0  0  0  0  0  0
   47.2230   31.9180   44.7030 H   0  0  0  0  0  0  0  0  0  0  0  0
   47.8850   31.4190   46.2490 H   0  0  0  0  0  0  0  0  0  0  0  0
   45.1090   30.6220   45.2160 H   0  0  0  0  0  0  0  0  0  0  0  0
   46.6260   29.6870   45.4290 H   0  0  0  0  0  0  0  0  0  0  0  0
   46.6970   30.0160   47.7760 H   0  0  0  0  0  0  0  0  0  0  0  0
   45.1050   29.4060   47.2620 H   0  0  0  0  0  0  0  0  0  0  0  0
   44.1990   31.3690   48.5880 H   0  0  0  0  0  0  0  0  0  0  0  0
   44.6920   33.8640   47.9350 N   0  0  0  0  0  0  0  0  0  0  0  0
   43.6920   34.0700   47.6910 H   0  0  0  0  0  0  0  0  0  0  0  0
   45.1660   34.5330   48.5750 H   0  0  0  0  0  0  0  0  0  0  0  0
   47.1060   34.7560   41.9550 C   0  0  0  0  0  0  0  0  0  0  0  0
   48.2350   35.5140   41.8970 C   0  0  0  0  0  0  0  0  0  0  0  0
   48.9060   35.5130   40.6620 C   0  0  0  0  0  0  0  0  0  0  0  0
   48.3470   34.7450   39.6480 C   0  0  0  0  0  0  0  0  0  0  0  0
   47.2120   33.9810   39.7040 C   0  0  0  0  0  0  0  0  0  0  0  0
   46.6000   34.0210   40.9330 N   0  0  0  0  0  0  0  0  0  0  0  0
   48.5650   36.0690   42.7640 H   0  0  0  0  0  0  0  0  0  0  0  0
   49.7980   36.1140   40.6200 H   0  0  0  0  0  0  0  0  0  0  0  0
   48.9820   34.8580   38.7840 H   0  0  0  0  0  0  0  0  0  0  0  0
   46.7360   33.2660   38.6720 O   0  0  0  0  0  0  0  0  0  0  0  0
   45.8190   32.4500   36.9050 C   0  0  0  0  0  0  0  0  0  0  0  0
   47.0300   32.9480   37.4340 C   0  0  0  0  0  0  0  0  0  0  0  0
   48.0710   32.9480   36.5500 C   0  0  0  0  0  0  0  0  0  0  0  0
   48.9680   33.3260   36.9700 H   0  0  0  0  0  0  0  0  0  0  0  0
   48.0540   32.5250   35.2440 C   0  0  0  0  0  0  0  0  0  0  0  0
   48.9660   32.5940   34.6850 H   0  0  0  0  0  0  0  0  0  0  0  0
   46.8450   32.0540   34.7970 C   0  0  0  0  0  3  0  0  0  0  0  0
   45.7030   31.9990   35.5920 C   0  0  0  0  0  3  0  0  0  0  0  0
   43.3170   31.8230   36.7720 H   0  0  0  0  0  0  0  0  0  0  0  0
   44.2400   32.2710   37.6830 S   0  0  0  0  0  0  0  0  0  0  0  0
   44.3680   31.3520   38.8420 O   0  0  0  0  0  0  0  0  0  0  0  0
   43.7760   33.6080   38.1560 O   0  0  0  0  0  0  0  0  0  0  0  0
  1  7  1  0  0  0  0
  1  6  1  0  0  0  0
  2  1  2  0  0  0  0
  3  2  1  0  0  0  0
  3  4  2  0  0  0  0
  4  5  1  0  0  0  0
  5  6  2  0  0  0  0
  5  9  1  0  0  0  0
  8  2  1  0  0  0  0
  9 15  1  1  0  0  0
  9 14  1  0  0  0  0
 10 11  1  0  0  0  0
 10 17  1  0  0  0  0
 10  9  1  0  0  0  0
 11 12  1  0  0  0  0
 12 21  1  0  0  0  0
 12 20  1  0  0  0  0
 12 13  1  0  0  0  0
 13 22  1  0  0  0  0
 14 13  2  0  0  0  0
 14 23  1  0  0  0  0
 16 10  1  0  0  0  0
 18 11  1  0  0  0  0
 19 11  1  0  0  0  0
 23 25  1  0  0  0  0
 24 23  1  0  0  0  0
 26  3  1  0  0  0  0
 27 26  1  0  0  0  0
 27 32  1  0  0  0  0
 28 27  2  0  0  0  0
 29 30  2  0  0  0  0
 29 28  1  0  0  0  0
 30 31  1  0  0  0  0
 31 26  2  0  0  0  0
 33 28  1  0  0  0  0
 34 29  1  0  0  0  0
 35 30  1  0  0  0  0
 36 37  1  0  0  0  0
 36 45  1  0  0  0  0
 37 35  1  0  0  0  0
 38 39  1  0  0  0  0
 38 37  2  0  0  0  0
 40 38  1  0  0  0  0
 41 40  1  0  0  0  0
 42 40  2  0  0  0  0
 42 43  1  0  0  0  0
 43 36  2  0  0  0  0
 44 45  1  0  0  0  0
 45 47  2  0  0  0  0
 45 46  2  0  0  0  0
M  END
>  <minimizedAffinity>
-7.32017899

>  <minimizedRMSD>
0.965702355

$$$$
