
 OpenBabel03252503533D

 39 41  0  0  1  0  0  0  0  0999 V2000
   46.6720   32.8300   45.1200 N   0  0  0  0  0  0  0  0  0  0  0  0
   46.4190   33.2940   46.4880 C   0  0  0  0  0  0  0  0  0  0  0  0
   47.1520   32.3310   47.4040 C   0  0  0  0  0  0  0  0  0  0  0  0
   46.4680   30.9940   47.3480 C   0  0  0  0  0  0  0  0  0  0  0  0
   46.3390   30.5720   45.9210 C   0  0  0  0  0  0  0  0  0  0  0  0
   47.0190   31.4690   44.9440 C   0  0  1  0  0  0  0  0  0  0  0  0
   46.8890   34.3000   46.5790 H   0  0  0  0  0  0  0  0  0  0  0  0
   45.3610   33.2930   46.7500 H   0  0  0  0  0  0  0  0  0  0  0  0
   48.2320   32.2720   47.1580 H   0  0  0  0  0  0  0  0  0  0  0  0
   47.0860   32.6890   48.4370 H   0  0  0  0  0  0  0  0  0  0  0  0
   45.5070   31.0950   47.8850 H   0  0  0  0  0  0  0  0  0  0  0  0
   47.0700   30.2340   47.9160 H   0  0  0  0  0  0  0  0  0  0  0  0
   46.6450   29.5160   45.7490 H   0  0  0  0  0  0  0  0  0  0  0  0
   45.2330   30.6440   45.6880 H   0  0  0  0  0  0  0  0  0  0  0  0
   48.1080   31.3460   45.0400 H   0  0  0  0  0  0  0  0  0  0  0  0
   47.4910   34.9480   42.2040 C   0  0  0  0  0  0  0  0  0  0  0  0
   47.6560   34.1060   43.3070 C   0  0  0  0  0  0  0  0  0  0  0  0
   46.5510   33.7180   44.0410 C   0  0  0  0  0  0  0  0  0  0  0  0
   45.3370   34.1810   43.6570 N   0  0  0  0  0  0  0  0  0  0  0  0
   45.1740   35.0040   42.5850 C   0  0  0  0  0  0  0  0  0  0  0  0
   46.2550   35.3830   41.8590 N   0  0  0  0  0  0  0  0  0  0  0  0
   48.6720   33.8480   43.5320 H   0  0  0  0  0  0  0  0  0  0  0  0
   44.1870   35.3550   42.3070 H   0  0  0  0  0  0  0  0  0  0  0  0
   48.7100   35.3050   41.4140 C   0  0  0  0  0  0  0  0  0  0  0  0
   48.4580   35.3080   40.0470 F   0  0  0  0  0  0  0  0  0  0  0  0
   49.1290   36.5470   41.8440 F   0  0  0  0  0  0  0  0  0  0  0  0
   49.7210   34.3950   41.6890 F   0  0  0  0  0  0  0  0  0  0  0  0
   47.5690   30.5070   42.6700 C   0  0  0  0  0  0  0  0  0  0  0  0
   46.5970   30.8720   43.6170 C   0  0  0  0  0  0  0  0  0  0  0  0
   45.2650   30.6180   43.2740 C   0  0  0  0  0  0  0  0  0  0  0  0
   44.5030   30.8920   43.9920 H   0  0  0  0  0  0  0  0  0  0  0  0
   44.9670   30.0410   42.0590 C   0  0  0  0  0  0  0  0  0  0  0  0
   43.9060   29.8820   41.8770 H   0  0  0  0  0  0  0  0  0  0  0  0
   45.9480   29.6970   41.1530 C   0  0  0  0  0  3  0  0  0  0  0  0
   47.2640   29.9350   41.4710 C   0  0  0  0  0  3  0  0  0  0  0  0
   49.5090   31.7670   43.8750 H   0  0  0  0  0  0  0  0  0  0  0  0
   49.2730   30.7690   42.9680 S   0  0  0  0  0  0  0  0  0  0  0  0
   49.9310   29.5240   43.4980 O   0  0  0  0  0  0  0  0  0  0  0  0
   49.9550   31.1730   41.6700 O   0  0  0  0  0  0  0  0  0  0  0  0
  1  2  1  0  0  0  0
  2  7  1  0  0  0  0
  2  8  1  0  0  0  0
  2  3  1  0  0  0  0
  3 10  1  0  0  0  0
  4  3  1  0  0  0  0
  4 11  1  0  0  0  0
  4 12  1  0  0  0  0
  5  4  1  0  0  0  0
  6 15  1  1  0  0  0
  6  1  1  0  0  0  0
  6  5  1  0  0  0  0
  9  3  1  0  0  0  0
 13  5  1  0  0  0  0
 14  5  1  0  0  0  0
 16 17  1  0  0  0  0
 17 22  1  0  0  0  0
 17 18  2  0  0  0  0
 18  1  1  0  0  0  0
 19 18  1  0  0  0  0
 20 19  2  0  0  0  0
 21 16  2  0  0  0  0
 21 20  1  0  0  0  0
 23 20  1  0  0  0  0
 24 27  1  0  0  0  0
 24 26  1  0  0  0  0
 24 16  1  0  0  0  0
 25 24  1  0  0  0  0
 28 37  1  0  0  0  0
 28 29  1  0  0  0  0
 29  6  1  0  0  0  0
 30 29  2  0  0  0  0
 30 31  1  0  0  0  0
 32 30  1  0  0  0  0
 33 32  1  0  0  0  0
 34 35  1  0  0  0  0
 34 32  2  0  0  0  0
 35 28  2  0  0  0  0
 37 38  2  0  0  0  0
 37 36  1  0  0  0  0
 39 37  2  0  0  0  0
M  END
>  <minimizedAffinity>
-5.04495049

>  <minimizedRMSD>
1.90587866

$$$$
