
 OpenBabel03252508443D

 42 44  0  0  0  0  0  0  0  0999 V2000
   43.3710   35.8440   42.4610 C   0  0  0  0  0  0  0  0  0  0  0  0
   44.2990   35.2660   42.2350 H   0  0  0  0  0  0  0  0  0  0  0  0
   43.5660   36.9120   42.2280 H   0  0  0  0  0  0  0  0  0  0  0  0
   42.4520   34.0600   40.9740 C   0  0  0  0  0  0  0  0  0  0  0  0
   42.3010   35.2990   41.5950 C   0  0  0  0  0  0  0  0  0  0  0  0
   41.1340   35.9970   41.3800 C   0  0  0  0  0  0  0  0  0  0  0  0
   40.1530   35.4910   40.5820 C   0  0  0  0  0  0  0  0  0  0  0  0
   40.2650   34.2820   39.9590 C   0  0  0  0  0  0  0  0  0  0  0  0
   41.4570   33.5890   40.1890 C   0  0  0  0  0  0  0  0  0  0  0  0
   40.9460   36.9630   41.8270 H   0  0  0  0  0  0  0  0  0  0  0  0
   39.2290   36.0270   40.4030 H   0  0  0  0  0  0  0  0  0  0  0  0
   39.5620   33.7800   39.3090 H   0  0  0  0  0  0  0  0  0  0  0  0
   41.6800   32.6150   39.7550 H   0  0  0  0  0  0  0  0  0  0  0  0
   45.1040   31.7750   42.3870 C   0  0  0  0  0  0  0  0  0  0  0  0
   43.8570   32.3970   42.2190 C   0  0  0  0  0  0  0  0  0  0  0  0
   43.7000   33.3580   41.2290 C   0  0  0  0  0  0  0  0  0  0  0  0
   44.7770   33.6520   40.4610 N   0  0  0  0  0  0  0  0  0  0  0  0
   45.9720   33.0390   40.6390 C   0  0  0  0  0  0  0  0  0  0  0  0
   46.1400   32.1130   41.5870 N   0  0  0  0  0  0  0  0  0  0  0  0
   45.2620   31.0300   43.1390 H   0  0  0  0  0  0  0  0  0  0  0  0
   43.0250   32.1510   42.8330 H   0  0  0  0  0  0  0  0  0  0  0  0
   46.8250   33.2900   40.0110 H   0  0  0  0  0  0  0  0  0  0  0  0
   43.1070   35.7550   43.8610 N   0  0  0  0  0  0  0  0  0  0  0  0
   42.5060   34.9650   44.1500 H   0  0  0  0  0  0  0  0  0  0  0  0
   44.5530   35.8070   44.8060 S   0  0  0  0  0  0  0  0  0  0  0  0
   45.4520   34.6570   44.4810 O   0  0  0  0  0  0  0  0  0  0  0  0
   45.8040   33.9490   45.0730 H   0  0  0  0  0  0  0  0  0  0  0  0
   44.2740   35.8800   46.2490 O   0  0  0  0  0  0  0  0  0  0  0  0
   43.5130   35.3950   46.6840 H   0  0  0  0  0  0  0  0  0  0  0  0
   45.3340   37.2440   44.3310 O   0  0  0  0  0  0  0  0  0  0  0  0
   45.2160   39.7270   44.4920 C   0  0  0  0  0  0  0  0  0  0  0  0
   45.0980   38.4310   45.0000 C   0  0  0  0  0  0  0  0  0  0  0  0
   44.7060   38.2210   46.3060 C   0  0  0  0  0  0  0  0  0  0  0  0
   44.5850   37.2600   46.7880 H   0  0  0  0  0  0  0  0  0  0  0  0
   44.4140   39.2830   47.1670 C   0  0  0  0  0  0  0  0  0  0  0  0
   44.1050   39.1450   48.1960 H   0  0  0  0  0  0  0  0  0  0  0  0
   44.5380   40.5660   46.6460 C   0  0  0  0  0  3  0  0  0  0  0  0
   44.9280   40.7440   45.3450 C   0  0  0  0  0  3  0  0  0  0  0  0
   44.9830   38.9350   42.0850 H   0  0  0  0  0  0  0  0  0  0  0  0
   45.7190   39.8400   42.8290 S   0  0  0  0  0  0  0  0  0  0  0  0
   45.5290   41.2310   42.2790 O   0  0  0  0  0  0  0  0  0  0  0  0
   47.2020   39.5270   42.6880 O   0  0  0  0  0  0  0  0  0  0  0  0
  1 23  1  0  0  0  0
  2  1  1  0  0  0  0
  3  1  1  0  0  0  0
  4 16  1  0  0  0  0
  4  5  1  0  0  0  0
  5  1  1  0  0  0  0
  6  5  2  0  0  0  0
  6 10  1  0  0  0  0
  7  6  1  0  0  0  0
  8  9  1  0  0  0  0
  8  7  2  0  0  0  0
  9  4  2  0  0  0  0
 11  7  1  0  0  0  0
 12  8  1  0  0  0  0
 13  9  1  0  0  0  0
 14 20  1  0  0  0  0
 15 14  1  0  0  0  0
 15 21  1  0  0  0  0
 16 15  2  0  0  0  0
 17 18  2  0  0  0  0
 17 16  1  0  0  0  0
 18 19  1  0  0  0  0
 19 14  2  0  0  0  0
 22 18  1  0  0  0  0
 23 24  1  0  0  0  0
 23 25  1  0  0  0  0
 25 28  1  0  0  0  0
 26 25  1  0  0  0  0
 26 27  1  0  0  0  0
 28 29  1  0  0  0  0
 30 25  1  0  0  0  0
 30 32  1  0  0  0  0
 31 32  2  0  0  0  0
 31 38  1  0  0  0  0
 32 33  1  0  0  0  0
 33 34  1  0  0  0  0
 33 35  2  0  0  0  0
 35 36  1  0  0  0  0
 37 35  1  0  0  0  0
 38 37  2  0  0  0  0
 39 40  1  0  0  0  0
 40 31  1  0  0  0  0
 41 40  2  0  0  0  0
 42 40  2  0  0  0  0
M  END
>  <minimizedAffinity>
2.12657785

>  <minimizedRMSD>
1.39428174

$$$$
