
 OpenBabel03242513223D

 37 39  0  0  1  0  0  0  0  0999 V2000
   36.0060   29.7440   39.5060 C   0  0  2  0  0  0  0  0  0  0  0  0
   35.6700   29.0760   38.1900 C   0  0  0  0  0  0  0  0  0  0  0  0
   36.5530   29.9570   37.3200 C   0  0  0  0  0  0  0  0  0  0  0  0
   37.7500   29.9540   38.0090 O   0  0  0  0  0  0  0  0  0  0  0  0
   37.4550   29.9920   39.3870 C   0  0  1  0  0  0  0  0  0  0  0  0
   35.4040   30.6800   39.5450 H   0  0  0  0  0  0  0  0  0  0  0  0
   36.0360   28.0320   38.1300 H   0  0  0  0  0  0  0  0  0  0  0  0
   34.5980   29.1720   37.9300 H   0  0  0  0  0  0  0  0  0  0  0  0
   36.6480   29.5790   36.3060 H   0  0  0  0  0  0  0  0  0  0  0  0
   36.1570   30.9980   37.3890 H   0  0  0  0  0  0  0  0  0  0  0  0
   38.1140   29.3430   39.9760 H   0  0  0  0  0  0  0  0  0  0  0  0
   38.8980   31.7290   40.5810 C   0  0  0  0  0  0  0  0  0  0  0  0
   37.8190   31.4120   39.7660 C   0  0  0  0  0  0  0  0  0  0  0  0
   37.0910   32.4610   39.2610 C   0  0  0  0  0  0  0  0  0  0  0  0
   36.2430   32.3660   38.6190 H   0  0  0  0  0  0  0  0  0  0  0  0
   37.3690   33.7970   39.5170 C   0  0  0  0  0  0  0  0  0  0  0  0
   36.8040   34.6350   39.1260 H   0  0  0  0  0  0  0  0  0  0  0  0
   38.4410   34.1090   40.3250 C   0  0  0  0  0  3  0  0  0  0  0  0
   39.1690   33.0820   40.8300 C   0  0  0  0  0  3  0  0  0  0  0  0
   39.7790   29.2730   40.7890 H   0  0  0  0  0  0  0  0  0  0  0  0
   39.8880   30.5330   41.3170 S   0  0  0  0  0  0  0  0  0  0  0  0
   39.3460   30.3410   42.7460 O   0  0  0  0  0  0  0  0  0  0  0  0
   41.3080   30.9590   41.5630 O   0  0  0  0  0  0  0  0  0  0  0  0
   35.5720   28.9190   40.6850 C   0  0  0  0  0  0  0  0  0  0  0  0
   35.2740   29.5120   41.5630 H   0  0  0  0  0  0  0  0  0  0  0  0
   34.6320   28.3820   40.3640 H   0  0  0  0  0  0  0  0  0  0  0  0
   37.0330   27.7730   42.2620 C   0  0  0  0  0  3  0  0  0  0  0  0
   36.5230   27.8360   41.0430 C   0  0  0  0  0  3  0  0  0  0  0  0
   39.8370   25.9050   43.6770 C   0  0  0  0  0  0  0  0  0  0  0  0
   39.6070   24.5960   43.1780 C   0  0  0  0  0  0  0  0  0  0  0  0
   38.4870   24.4170   42.3690 C   0  0  0  0  0  0  0  0  0  0  0  0
   37.6960   25.4870   42.1100 N   0  0  0  0  0  0  0  0  0  0  0  0
   37.9580   26.7200   42.6110 C   0  0  0  0  0  0  0  0  0  0  0  0
   39.0060   26.9300   43.3800 N   0  0  0  0  0  0  0  0  0  0  0  0
   40.6790   26.1510   44.3150 H   0  0  0  0  0  0  0  0  0  0  0  0
   40.3180   23.8580   43.4700 H   0  0  0  0  0  0  0  0  0  0  0  0
   38.3190   23.4300   41.9970 H   0  0  0  0  0  0  0  0  0  0  0  0
  1  6  1  1  0  0  0
  1 24  1  0  0  0  0
  2  1  1  0  0  0  0
  3 10  1  0  0  0  0
  3  4  1  0  0  0  0
  3  2  1  0  0  0  0
  4  5  1  0  0  0  0
  5  1  1  0  0  0  0
  5 13  1  0  0  0  0
  5 11  1  1  0  0  0
  7  2  1  0  0  0  0
  8  2  1  0  0  0  0
  9  3  1  0  0  0  0
 12 19  1  0  0  0  0
 12 21  1  0  0  0  0
 13 12  2  0  0  0  0
 14 16  2  0  0  0  0
 14 13  1  0  0  0  0
 15 14  1  0  0  0  0
 16 18  1  0  0  0  0
 17 16  1  0  0  0  0
 18 19  2  0  0  0  0
 20 21  1  0  0  0  0
 21 23  2  0  0  0  0
 21 22  2  0  0  0  0
 24 28  1  0  0  0  0
 24 25  1  0  0  0  0
 26 24  1  0  0  0  0
 27 33  1  0  0  0  0
 28 27  2  0  0  0  0
 29 35  1  0  0  0  0
 30 36  1  0  0  0  0
 30 29  2  0  0  0  0
 31 30  1  0  0  0  0
 32 31  2  0  0  0  0
 32 33  1  0  0  0  0
 33 34  2  0  0  0  0
 34 29  1  0  0  0  0
 37 31  1  0  0  0  0
M  END
>  <minimizedAffinity>
-5.73409462

$$$$

 OpenBabel03242513223D

 37 39  0  0  1  0  0  0  0  0999 V2000
   33.7200   28.5960   37.4110 C   0  0  2  0  0  0  0  0  0  0  0  0
   33.9420   27.1670   36.9660 C   0  0  0  0  0  0  0  0  0  0  0  0
   32.5710   26.9670   36.3390 C   0  0  0  0  0  0  0  0  0  0  0  0
   32.4300   28.1010   35.5630 O   0  0  0  0  0  0  0  0  0  0  0  0
   32.9870   29.1830   36.2730 C   0  0  1  0  0  0  0  0  0  0  0  0
   33.1120   28.5440   38.3430 H   0  0  0  0  0  0  0  0  0  0  0  0
   34.7140   27.0740   36.1760 H   0  0  0  0  0  0  0  0  0  0  0  0
   34.1140   26.4810   37.8190 H   0  0  0  0  0  0  0  0  0  0  0  0
   32.5060   26.0490   35.7610 H   0  0  0  0  0  0  0  0  0  0  0  0
   31.8140   27.0530   37.1550 H   0  0  0  0  0  0  0  0  0  0  0  0
   33.5510   29.8650   35.6270 H   0  0  0  0  0  0  0  0  0  0  0  0
   31.0540   30.8090   35.8940 C   0  0  0  0  0  0  0  0  0  0  0  0
   31.7620   29.9510   36.7250 C   0  0  0  0  0  0  0  0  0  0  0  0
   31.2810   29.7790   38.0000 C   0  0  0  0  0  0  0  0  0  0  0  0
   31.7200   29.1480   38.7400 H   0  0  0  0  0  0  0  0  0  0  0  0
   30.1450   30.4060   38.4940 C   0  0  0  0  0  0  0  0  0  0  0  0
   29.7530   30.2810   39.4970 H   0  0  0  0  0  0  0  0  0  0  0  0
   29.4430   31.2560   37.6670 C   0  0  0  0  0  3  0  0  0  0  0  0
   29.9080   31.4340   36.4060 C   0  0  0  0  0  3  0  0  0  0  0  0
   32.8760   30.9750   34.0230 H   0  0  0  0  0  0  0  0  0  0  0  0
   31.5430   31.1570   34.2840 S   0  0  0  0  0  0  0  0  0  0  0  0
   31.3730   32.6770   34.0980 O   0  0  0  0  0  0  0  0  0  0  0  0
   30.6410   30.5970   33.2200 O   0  0  0  0  0  0  0  0  0  0  0  0
   35.0060   29.2750   37.7890 C   0  0  0  0  0  0  0  0  0  0  0  0
   35.7600   29.2890   36.9870 H   0  0  0  0  0  0  0  0  0  0  0  0
   34.7490   30.3600   37.9660 H   0  0  0  0  0  0  0  0  0  0  0  0
   36.1130   29.6730   39.9230 C   0  0  0  0  0  3  0  0  0  0  0  0
   35.5760   28.8070   39.0790 C   0  0  0  0  0  3  0  0  0  0  0  0
   38.1060   29.4010   42.9750 C   0  0  0  0  0  0  0  0  0  0  0  0
   37.5950   28.2120   43.5600 C   0  0  0  0  0  0  0  0  0  0  0  0
   36.5800   27.5540   42.8690 C   0  0  0  0  0  0  0  0  0  0  0  0
   36.1470   28.0790   41.6970 N   0  0  0  0  0  0  0  0  0  0  0  0
   36.6670   29.2190   41.1770 C   0  0  0  0  0  0  0  0  0  0  0  0
   37.6270   29.8710   41.7990 N   0  0  0  0  0  0  0  0  0  0  0  0
   38.8950   29.9880   43.4300 H   0  0  0  0  0  0  0  0  0  0  0  0
   38.0380   27.9260   44.4860 H   0  0  0  0  0  0  0  0  0  0  0  0
   36.2000   26.6610   43.3150 H   0  0  0  0  0  0  0  0  0  0  0  0
  1 24  1  0  0  0  0
  1  6  1  1  0  0  0
  2  1  1  0  0  0  0
  2  8  1  0  0  0  0
  3  2  1  0  0  0  0
  3 10  1  0  0  0  0
  4  5  1  0  0  0  0
  4  3  1  0  0  0  0
  5 11  1  6  0  0  0
  5 13  1  0  0  0  0
  5  1  1  0  0  0  0
  7  2  1  0  0  0  0
  9  3  1  0  0  0  0
 12 19  2  0  0  0  0
 12 13  1  0  0  0  0
 13 14  2  0  0  0  0
 14 16  1  0  0  0  0
 14 15  1  0  0  0  0
 16 17  1  0  0  0  0
 18 16  2  0  0  0  0
 19 18  1  0  0  0  0
 20 21  1  0  0  0  0
 21 12  1  0  0  0  0
 22 21  2  0  0  0  0
 23 21  2  0  0  0  0
 24 26  1  0  0  0  0
 24 28  1  0  0  0  0
 25 24  1  0  0  0  0
 27 33  1  0  0  0  0
 28 27  2  0  0  0  0
 29 35  1  0  0  0  0
 29 30  1  0  0  0  0
 30 36  1  0  0  0  0
 31 37  1  0  0  0  0
 31 30  2  0  0  0  0
 32 31  1  0  0  0  0
 33 32  2  0  0  0  0
 33 34  1  0  0  0  0
 34 29  2  0  0  0  0
M  END
>  <minimizedAffinity>
-5.29261971

$$$$

 OpenBabel03242513223D

 37 39  0  0  1  0  0  0  0  0999 V2000
   38.1940   26.8320   42.9900 C   0  0  2  0  0  0  0  0  0  0  0  0
   39.5110   26.5490   43.6790 C   0  0  0  0  0  0  0  0  0  0  0  0
   39.9580   25.4360   42.7440 C   0  0  0  0  0  0  0  0  0  0  0  0
   39.7370   25.9880   41.4970 O   0  0  0  0  0  0  0  0  0  0  0  0
   38.5450   26.7360   41.5600 C   0  0  1  0  0  0  0  0  0  0  0  0
   37.4880   26.0370   43.3210 H   0  0  0  0  0  0  0  0  0  0  0  0
   40.2280   27.3900   43.6040 H   0  0  0  0  0  0  0  0  0  0  0  0
   39.3740   26.1910   44.7180 H   0  0  0  0  0  0  0  0  0  0  0  0
   40.9940   25.1500   42.9020 H   0  0  0  0  0  0  0  0  0  0  0  0
   39.2280   24.5990   42.8470 H   0  0  0  0  0  0  0  0  0  0  0  0
   38.6110   27.6800   41.0070 H   0  0  0  0  0  0  0  0  0  0  0  0
   37.1070   26.1840   39.5220 C   0  0  0  0  0  0  0  0  0  0  0  0
   37.5670   25.8700   40.7940 C   0  0  0  0  0  0  0  0  0  0  0  0
   37.1280   24.6890   41.3420 C   0  0  0  0  0  0  0  0  0  0  0  0
   37.4040   24.3210   42.3050 H   0  0  0  0  0  0  0  0  0  0  0  0
   36.2640   23.8090   40.7030 C   0  0  0  0  0  0  0  0  0  0  0  0
   35.9100   22.8740   41.1210 H   0  0  0  0  0  0  0  0  0  0  0  0
   35.8110   24.1230   39.4400 C   0  0  0  0  0  3  0  0  0  0  0  0
   36.2370   25.2860   38.8890 C   0  0  0  0  0  3  0  0  0  0  0  0
   38.3540   28.4830   39.4170 H   0  0  0  0  0  0  0  0  0  0  0  0
   37.5360   27.6380   38.7140 S   0  0  0  0  0  0  0  0  0  0  0  0
   36.2400   28.4630   38.5870 O   0  0  0  0  0  0  0  0  0  0  0  0
   37.9480   27.4600   37.2790 O   0  0  0  0  0  0  0  0  0  0  0  0
   37.5930   28.1360   43.4360 C   0  0  0  0  0  0  0  0  0  0  0  0
   36.5030   28.0990   43.5900 H   0  0  0  0  0  0  0  0  0  0  0  0
   38.0230   28.3480   44.4580 H   0  0  0  0  0  0  0  0  0  0  0  0
   37.1120   29.9070   41.8340 C   0  0  0  0  0  3  0  0  0  0  0  0
   37.9980   29.2990   42.6070 C   0  0  0  0  0  3  0  0  0  0  0  0
   37.1520   32.5950   39.3580 C   0  0  0  0  0  0  0  0  0  0  0  0
   38.4130   33.2020   39.5960 C   0  0  0  0  0  0  0  0  0  0  0  0
   39.1980   32.6510   40.6070 C   0  0  0  0  0  0  0  0  0  0  0  0
   38.7190   31.5850   41.2920 N   0  0  0  0  0  0  0  0  0  0  0  0
   37.5050   31.0390   41.0270 C   0  0  0  0  0  0  0  0  0  0  0  0
   36.7330   31.5300   40.0800 N   0  0  0  0  0  0  0  0  0  0  0  0
   36.4650   32.9450   38.5960 H   0  0  0  0  0  0  0  0  0  0  0  0
   38.6500   34.0340   38.9740 H   0  0  0  0  0  0  0  0  0  0  0  0
   40.1450   33.1130   40.7810 H   0  0  0  0  0  0  0  0  0  0  0  0
  1  6  1  1  0  0  0
  1 24  1  0  0  0  0
  1  2  1  0  0  0  0
  2  8  1  0  0  0  0
  3 10  1  0  0  0  0
  3  9  1  0  0  0  0
  3  2  1  0  0  0  0
  4  5  1  0  0  0  0
  4  3  1  0  0  0  0
  5 11  1  6  0  0  0
  5  1  1  0  0  0  0
  7  2  1  0  0  0  0
 12 13  1  0  0  0  0
 13 14  2  0  0  0  0
 13  5  1  0  0  0  0
 14 15  1  0  0  0  0
 16 17  1  0  0  0  0
 16 14  1  0  0  0  0
 18 16  2  0  0  0  0
 19 18  1  0  0  0  0
 19 12  2  0  0  0  0
 21 20  1  0  0  0  0
 21 12  1  0  0  0  0
 22 21  2  0  0  0  0
 23 21  2  0  0  0  0
 24 25  1  0  0  0  0
 24 26  1  0  0  0  0
 27 28  2  0  0  0  0
 28 24  1  0  0  0  0
 29 30  2  0  0  0  0
 29 34  1  0  0  0  0
 30 31  1  0  0  0  0
 31 37  1  0  0  0  0
 31 32  2  0  0  0  0
 33 32  1  0  0  0  0
 33 27  1  0  0  0  0
 34 33  2  0  0  0  0
 35 29  1  0  0  0  0
 36 30  1  0  0  0  0
M  END
>  <minimizedAffinity>
-5.27634525

$$$$

 OpenBabel03242513223D

 37 39  0  0  1  0  0  0  0  0999 V2000
   35.7210   28.1910   38.2370 C   0  0  2  0  0  0  0  0  0  0  0  0
   36.5420   28.9370   37.2080 C   0  0  0  0  0  0  0  0  0  0  0  0
   37.8660   28.8520   37.9500 C   0  0  0  0  0  0  0  0  0  0  0  0
   37.9270   27.5180   38.3010 O   0  0  0  0  0  0  0  0  0  0  0  0
   36.6270   27.1040   38.6530 C   0  0  1  0  0  0  0  0  0  0  0  0
   35.5060   28.9170   39.0530 H   0  0  0  0  0  0  0  0  0  0  0  0
   36.6330   28.3910   36.2480 H   0  0  0  0  0  0  0  0  0  0  0  0
   36.2030   29.9840   37.0760 H   0  0  0  0  0  0  0  0  0  0  0  0
   38.7080   29.1680   37.3390 H   0  0  0  0  0  0  0  0  0  0  0  0
   37.7510   29.4200   38.9040 H   0  0  0  0  0  0  0  0  0  0  0  0
   36.3900   26.1000   38.2830 H   0  0  0  0  0  0  0  0  0  0  0  0
   37.1100   25.8230   40.8100 C   0  0  0  0  0  0  0  0  0  0  0  0
   36.7130   26.9840   40.1600 C   0  0  0  0  0  0  0  0  0  0  0  0
   36.4290   28.0730   40.9480 C   0  0  0  0  0  0  0  0  0  0  0  0
   36.1190   29.0280   40.5850 H   0  0  0  0  0  0  0  0  0  0  0  0
   36.5170   28.0750   42.3340 C   0  0  0  0  0  0  0  0  0  0  0  0
   36.2980   28.9250   42.9690 H   0  0  0  0  0  0  0  0  0  0  0  0
   36.9130   26.9220   42.9750 C   0  0  0  0  0  3  0  0  0  0  0  0
   37.1960   25.8390   42.2090 C   0  0  0  0  0  3  0  0  0  0  0  0
   36.4900   23.9240   39.1190 H   0  0  0  0  0  0  0  0  0  0  0  0
   37.4680   24.3670   39.9710 S   0  0  0  0  0  0  0  0  0  0  0  0
   37.5080   23.2520   41.0350 O   0  0  0  0  0  0  0  0  0  0  0  0
   38.8500   24.3040   39.3830 O   0  0  0  0  0  0  0  0  0  0  0  0
   34.3850   27.7660   37.6940 C   0  0  0  0  0  0  0  0  0  0  0  0
   34.4380   27.2590   36.7170 H   0  0  0  0  0  0  0  0  0  0  0  0
   33.9900   26.9840   38.4060 H   0  0  0  0  0  0  0  0  0  0  0  0
   32.5500   29.0020   36.6740 C   0  0  0  0  0  3  0  0  0  0  0  0
   33.3620   28.8420   37.7070 C   0  0  0  0  0  3  0  0  0  0  0  0
   30.3780   31.7780   35.7070 C   0  0  0  0  0  0  0  0  0  0  0  0
   29.6140   31.9840   36.8850 C   0  0  0  0  0  0  0  0  0  0  0  0
   29.8860   31.1510   37.9680 C   0  0  0  0  0  0  0  0  0  0  0  0
   30.8500   30.2070   37.8340 N   0  0  0  0  0  0  0  0  0  0  0  0
   31.5540   30.0480   36.6860 C   0  0  0  0  0  0  0  0  0  0  0  0
   31.3270   30.8150   35.6400 N   0  0  0  0  0  0  0  0  0  0  0  0
   30.2460   32.3710   34.8090 H   0  0  0  0  0  0  0  0  0  0  0  0
   28.8920   32.7670   36.8370 H   0  0  0  0  0  0  0  0  0  0  0  0
   29.3080   31.3110   38.8510 H   0  0  0  0  0  0  0  0  0  0  0  0
  1  5  1  0  0  0  0
  1  6  1  1  0  0  0
  2  3  1  0  0  0  0
  2  1  1  0  0  0  0
  3  4  1  0  0  0  0
  3 10  1  0  0  0  0
  4  5  1  0  0  0  0
  5 11  1  6  0  0  0
  5 13  1  0  0  0  0
  7  2  1  0  0  0  0
  8  2  1  0  0  0  0
  9  3  1  0  0  0  0
 12 19  1  0  0  0  0
 13 12  2  0  0  0  0
 13 14  1  0  0  0  0
 14 16  2  0  0  0  0
 15 14  1  0  0  0  0
 16 17  1  0  0  0  0
 16 18  1  0  0  0  0
 19 18  2  0  0  0  0
 20 21  1  0  0  0  0
 21 12  1  0  0  0  0
 21 22  2  0  0  0  0
 23 21  2  0  0  0  0
 24 28  1  0  0  0  0
 24  1  1  0  0  0  0
 24 26  1  0  0  0  0
 25 24  1  0  0  0  0
 27 33  1  0  0  0  0
 27 28  2  0  0  0  0
 29 30  1  0  0  0  0
 30 31  2  0  0  0  0
 31 37  1  0  0  0  0
 32 31  1  0  0  0  0
 33 32  2  0  0  0  0
 34 29  2  0  0  0  0
 34 33  1  0  0  0  0
 35 29  1  0  0  0  0
 36 30  1  0  0  0  0
M  END
>  <minimizedAffinity>
-5.1445055

$$$$

 OpenBabel03242513223D

 37 39  0  0  1  0  0  0  0  0999 V2000
   36.2250   28.4890   37.1250 C   0  0  2  0  0  0  0  0  0  0  0  0
   37.0900   27.6830   36.1810 C   0  0  0  0  0  0  0  0  0  0  0  0
   38.4200   28.2780   36.6170 C   0  0  0  0  0  0  0  0  0  0  0  0
   38.3430   28.2040   37.9940 O   0  0  0  0  0  0  0  0  0  0  0  0
   37.0170   28.4970   38.3690 C   0  0  1  0  0  0  0  0  0  0  0  0
   36.1180   29.4990   36.6680 H   0  0  0  0  0  0  0  0  0  0  0  0
   37.0900   26.5990   36.4120 H   0  0  0  0  0  0  0  0  0  0  0  0
   36.8660   27.8960   35.1170 H   0  0  0  0  0  0  0  0  0  0  0  0
   39.2710   27.7380   36.2110 H   0  0  0  0  0  0  0  0  0  0  0  0
   38.3990   29.3640   36.3620 H   0  0  0  0  0  0  0  0  0  0  0  0
   36.6590   27.8570   39.1830 H   0  0  0  0  0  0  0  0  0  0  0  0
   37.3440   30.1300   40.3060 C   0  0  0  0  0  0  0  0  0  0  0  0
   37.1370   29.8890   38.9540 C   0  0  0  0  0  0  0  0  0  0  0  0
   37.0840   30.9840   38.1270 C   0  0  0  0  0  0  0  0  0  0  0  0
   36.9370   30.9460   37.0700 H   0  0  0  0  0  0  0  0  0  0  0  0
   37.2230   32.2950   38.5610 C   0  0  0  0  0  0  0  0  0  0  0  0
   37.1840   33.1690   37.9210 H   0  0  0  0  0  0  0  0  0  0  0  0
   37.4300   32.5320   39.9030 C   0  0  0  0  0  3  0  0  0  0  0  0
   37.4850   31.4590   40.7310 C   0  0  0  0  0  3  0  0  0  0  0  0
   38.0680   27.7400   41.0870 H   0  0  0  0  0  0  0  0  0  0  0  0
   37.4020   28.8730   41.4750 S   0  0  0  0  0  0  0  0  0  0  0  0
   35.9560   28.3670   41.6400 O   0  0  0  0  0  0  0  0  0  0  0  0
   37.7480   29.3240   42.8660 O   0  0  0  0  0  0  0  0  0  0  0  0
   34.8340   27.9300   37.2320 C   0  0  0  0  0  0  0  0  0  0  0  0
   34.5730   27.2170   36.4340 H   0  0  0  0  0  0  0  0  0  0  0  0
   34.8110   27.3210   38.1830 H   0  0  0  0  0  0  0  0  0  0  0  0
   32.6480   28.8890   36.7440 C   0  0  0  0  0  3  0  0  0  0  0  0
   33.7830   28.9630   37.4190 C   0  0  0  0  0  3  0  0  0  0  0  0
   29.9710   30.9470   38.1430 C   0  0  0  0  0  0  0  0  0  0  0  0
   29.7300   31.8760   37.0970 C   0  0  0  0  0  0  0  0  0  0  0  0
   30.5070   31.7480   35.9480 C   0  0  0  0  0  0  0  0  0  0  0  0
   31.4330   30.7590   35.8970 N   0  0  0  0  0  0  0  0  0  0  0  0
   31.6260   29.8940   36.9250 C   0  0  0  0  0  0  0  0  0  0  0  0
   30.9130   29.9820   38.0280 N   0  0  0  0  0  0  0  0  0  0  0  0
   29.4230   30.9590   39.0790 H   0  0  0  0  0  0  0  0  0  0  0  0
   28.9690   32.5970   37.2860 H   0  0  0  0  0  0  0  0  0  0  0  0
   30.3210   32.4500   35.1650 H   0  0  0  0  0  0  0  0  0  0  0  0
  1  6  1  6  0  0  0
  1 24  1  0  0  0  0
  1  5  1  0  0  0  0
  2  7  1  0  0  0  0
  2  3  1  0  0  0  0
  2  1  1  0  0  0  0
  3  4  1  0  0  0  0
  4  5  1  0  0  0  0
  5 13  1  0  0  0  0
  5 11  1  1  0  0  0
  8  2  1  0  0  0  0
  9  3  1  0  0  0  0
 10  3  1  0  0  0  0
 12 19  1  0  0  0  0
 12 21  1  0  0  0  0
 13 12  2  0  0  0  0
 14 16  2  0  0  0  0
 14 13  1  0  0  0  0
 15 14  1  0  0  0  0
 16 18  1  0  0  0  0
 17 16  1  0  0  0  0
 18 19  2  0  0  0  0
 20 21  1  0  0  0  0
 21 22  2  0  0  0  0
 21 23  2  0  0  0  0
 24 28  1  0  0  0  0
 24 26  1  0  0  0  0
 25 24  1  0  0  0  0
 27 33  1  0  0  0  0
 27 28  2  0  0  0  0
 29 35  1  0  0  0  0
 30 36  1  0  0  0  0
 30 29  2  0  0  0  0
 31 30  1  0  0  0  0
 32 31  2  0  0  0  0
 32 33  1  0  0  0  0
 33 34  2  0  0  0  0
 34 29  1  0  0  0  0
 37 31  1  0  0  0  0
M  END
>  <minimizedAffinity>
-5.06124258

$$$$

 OpenBabel03242513223D

 37 39  0  0  1  0  0  0  0  0999 V2000
   36.2260   29.9680   38.7690 C   0  0  2  0  0  0  0  0  0  0  0  0
   36.0220   29.3780   37.3910 C   0  0  0  0  0  0  0  0  0  0  0  0
   37.0490   30.2440   36.6800 C   0  0  0  0  0  0  0  0  0  0  0  0
   38.1500   30.1430   37.5080 O   0  0  0  0  0  0  0  0  0  0  0  0
   37.6900   30.1380   38.8400 C   0  0  1  0  0  0  0  0  0  0  0  0
   35.6720   30.9350   38.7820 H   0  0  0  0  0  0  0  0  0  0  0  0
   36.3380   28.3180   37.3230 H   0  0  0  0  0  0  0  0  0  0  0  0
   34.9960   29.5460   37.0080 H   0  0  0  0  0  0  0  0  0  0  0  0
   37.2500   29.9060   35.6670 H   0  0  0  0  0  0  0  0  0  0  0  0
   36.7010   31.3020   36.7520 H   0  0  0  0  0  0  0  0  0  0  0  0
   38.2360   29.4280   39.4710 H   0  0  0  0  0  0  0  0  0  0  0  0
   39.3420   31.8270   39.8110 C   0  0  0  0  0  0  0  0  0  0  0  0
   38.0760   31.5180   39.3310 C   0  0  0  0  0  0  0  0  0  0  0  0
   37.1640   32.5430   39.2720 C   0  0  0  0  0  0  0  0  0  0  0  0
   36.1600   32.4510   38.9200 H   0  0  0  0  0  0  0  0  0  0  0  0
   37.4340   33.8490   39.6600 C   0  0  0  0  0  0  0  0  0  0  0  0
   36.7260   34.6680   39.6190 H   0  0  0  0  0  0  0  0  0  0  0  0
   38.6920   34.1530   40.1350 C   0  0  0  0  0  3  0  0  0  0  0  0
   39.6020   33.1490   40.1980 C   0  0  0  0  0  3  0  0  0  0  0  0
   40.2360   29.5240   40.6740 H   0  0  0  0  0  0  0  0  0  0  0  0
   40.5830   30.6520   39.9780 S   0  0  0  0  0  0  0  0  0  0  0  0
   41.6580   31.2820   40.8850 O   0  0  0  0  0  0  0  0  0  0  0  0
   41.3510   30.3650   38.7180 O   0  0  0  0  0  0  0  0  0  0  0  0
   35.6070   29.1190   39.8440 C   0  0  0  0  0  0  0  0  0  0  0  0
   35.6000   29.5890   40.8400 H   0  0  0  0  0  0  0  0  0  0  0  0
   34.5180   29.0050   39.5690 H   0  0  0  0  0  0  0  0  0  0  0  0
   36.6820   27.2620   40.9990 C   0  0  0  0  0  3  0  0  0  0  0  0
   36.1330   27.7300   39.8900 C   0  0  0  0  0  3  0  0  0  0  0  0
   38.6450   24.2880   41.8090 C   0  0  0  0  0  0  0  0  0  0  0  0
   38.0260   23.2930   41.0080 C   0  0  0  0  0  0  0  0  0  0  0  0
   36.9520   23.6970   40.2180 C   0  0  0  0  0  0  0  0  0  0  0  0
   36.5680   24.9960   40.2600 N   0  0  0  0  0  0  0  0  0  0  0  0
   37.1930   25.9120   41.0430 C   0  0  0  0  0  0  0  0  0  0  0  0
   38.2110   25.5700   41.8050 N   0  0  0  0  0  0  0  0  0  0  0  0
   39.4880   24.0790   42.4600 H   0  0  0  0  0  0  0  0  0  0  0  0
   38.4420   22.3150   41.0830 H   0  0  0  0  0  0  0  0  0  0  0  0
   36.4910   22.9440   39.6180 H   0  0  0  0  0  0  0  0  0  0  0  0
  1  6  1  1  0  0  0
  1  5  1  0  0  0  0
  1 24  1  0  0  0  0
  2  1  1  0  0  0  0
  3 10  1  0  0  0  0
  3  2  1  0  0  0  0
  3  4  1  0  0  0  0
  4  5  1  0  0  0  0
  5 13  1  0  0  0  0
  5 11  1  1  0  0  0
  7  2  1  0  0  0  0
  8  2  1  0  0  0  0
  9  3  1  0  0  0  0
 12 21  1  0  0  0  0
 12 19  1  0  0  0  0
 13 12  2  0  0  0  0
 14 13  1  0  0  0  0
 14 16  2  0  0  0  0
 15 14  1  0  0  0  0
 16 18  1  0  0  0  0
 17 16  1  0  0  0  0
 18 19  2  0  0  0  0
 21 20  1  0  0  0  0
 21 22  2  0  0  0  0
 23 21  2  0  0  0  0
 24 28  1  0  0  0  0
 24 25  1  0  0  0  0
 26 24  1  0  0  0  0
 27 33  1  0  0  0  0
 28 27  2  0  0  0  0
 29 35  1  0  0  0  0
 30 36  1  0  0  0  0
 30 29  2  0  0  0  0
 31 32  2  0  0  0  0
 31 30  1  0  0  0  0
 32 33  1  0  0  0  0
 33 34  2  0  0  0  0
 34 29  1  0  0  0  0
 37 31  1  0  0  0  0
M  END
>  <minimizedAffinity>
-5.04022026

$$$$

 OpenBabel03242513223D

 37 39  0  0  1  0  0  0  0  0999 V2000
   36.0320   28.6810   37.4220 C   0  0  2  0  0  0  0  0  0  0  0  0
   34.6900   29.1390   36.8950 C   0  0  0  0  0  0  0  0  0  0  0  0
   33.8490   28.5040   37.9920 C   0  0  0  0  0  0  0  0  0  0  0  0
   34.5070   28.9010   39.1400 O   0  0  0  0  0  0  0  0  0  0  0  0
   35.8910   28.8630   38.8800 C   0  0  1  0  0  0  0  0  0  0  0  0
   36.1390   27.6140   37.1230 H   0  0  0  0  0  0  0  0  0  0  0  0
   34.5610   30.2390   36.9360 H   0  0  0  0  0  0  0  0  0  0  0  0
   34.4620   28.7160   35.8970 H   0  0  0  0  0  0  0  0  0  0  0  0
   32.8130   28.8310   37.9640 H   0  0  0  0  0  0  0  0  0  0  0  0
   33.9860   27.3990   37.9200 H   0  0  0  0  0  0  0  0  0  0  0  0
   36.4260   29.7110   39.3210 H   0  0  0  0  0  0  0  0  0  0  0  0
   36.8040   27.6890   40.9570 C   0  0  0  0  0  0  0  0  0  0  0  0
   36.3410   27.6380   39.6490 C   0  0  0  0  0  0  0  0  0  0  0  0
   36.2590   26.3980   39.0650 C   0  0  0  0  0  0  0  0  0  0  0  0
   35.9160   26.2100   38.0710 H   0  0  0  0  0  0  0  0  0  0  0  0
   36.6080   25.2140   39.7000 C   0  0  0  0  0  0  0  0  0  0  0  0
   36.5490   24.2280   39.2530 H   0  0  0  0  0  0  0  0  0  0  0  0
   37.0670   25.2680   40.9990 C   0  0  0  0  0  3  0  0  0  0  0  0
   37.1520   26.4870   41.5870 C   0  0  0  0  0  3  0  0  0  0  0  0
   35.9940   30.0820   41.6400 H   0  0  0  0  0  0  0  0  0  0  0  0
   36.9960   29.1650   41.8160 S   0  0  0  0  0  0  0  0  0  0  0  0
   38.2100   29.8770   41.1890 O   0  0  0  0  0  0  0  0  0  0  0  0
   37.4190   29.0060   43.2500 O   0  0  0  0  0  0  0  0  0  0  0  0
   37.1730   29.4130   36.7730 C   0  0  0  0  0  0  0  0  0  0  0  0
   37.8430   28.7680   36.1820 H   0  0  0  0  0  0  0  0  0  0  0  0
   36.7090   30.1160   36.0210 H   0  0  0  0  0  0  0  0  0  0  0  0
   37.6190   31.5780   37.7980 C   0  0  0  0  0  3  0  0  0  0  0  0
   37.9270   30.2940   37.7010 C   0  0  0  0  0  3  0  0  0  0  0  0
   38.4880   34.0030   40.3900 C   0  0  0  0  0  0  0  0  0  0  0  0
   39.9070   33.9940   40.3440 C   0  0  0  0  0  0  0  0  0  0  0  0
   40.5030   33.1470   39.4130 C   0  0  0  0  0  0  0  0  0  0  0  0
   39.7050   32.3920   38.6180 N   0  0  0  0  0  0  0  0  0  0  0  0
   38.3510   32.4360   38.7000 C   0  0  0  0  0  0  0  0  0  0  0  0
   37.7500   33.2230   39.5660 N   0  0  0  0  0  0  0  0  0  0  0  0
   37.9260   34.6260   41.0770 H   0  0  0  0  0  0  0  0  0  0  0  0
   40.3960   34.6440   41.0330 H   0  0  0  0  0  0  0  0  0  0  0  0
   41.5700   33.1450   39.3840 H   0  0  0  0  0  0  0  0  0  0  0  0
  1  6  1  6  0  0  0
  1  5  1  0  0  0  0
  2  7  1  0  0  0  0
  2  1  1  0  0  0  0
  2  3  1  0  0  0  0
  3  4  1  0  0  0  0
  5  4  1  0  0  0  0
  5 11  1  1  0  0  0
  5 13  1  0  0  0  0
  8  2  1  0  0  0  0
  9  3  1  0  0  0  0
 10  3  1  0  0  0  0
 12 19  1  0  0  0  0
 12 21  1  0  0  0  0
 13 12  2  0  0  0  0
 14 13  1  0  0  0  0
 14 16  2  0  0  0  0
 15 14  1  0  0  0  0
 16 18  1  0  0  0  0
 17 16  1  0  0  0  0
 18 19  2  0  0  0  0
 20 21  1  0  0  0  0
 21 23  2  0  0  0  0
 22 21  2  0  0  0  0
 24  1  1  0  0  0  0
 24 28  1  0  0  0  0
 25 24  1  0  0  0  0
 26 24  1  0  0  0  0
 27 33  1  0  0  0  0
 28 27  2  0  0  0  0
 29 35  1  0  0  0  0
 30 29  1  0  0  0  0
 30 36  1  0  0  0  0
 31 30  2  0  0  0  0
 32 33  2  0  0  0  0
 32 31  1  0  0  0  0
 33 34  1  0  0  0  0
 34 29  2  0  0  0  0
 37 31  1  0  0  0  0
M  END
>  <minimizedAffinity>
-5.03608513

$$$$

 OpenBabel03242513223D

 37 39  0  0  1  0  0  0  0  0999 V2000
   36.7200   29.4190   41.1310 C   0  0  2  0  0  0  0  0  0  0  0  0
   35.9490   28.4680   40.2420 C   0  0  0  0  0  0  0  0  0  0  0  0
   36.1560   29.2380   38.9470 C   0  0  0  0  0  0  0  0  0  0  0  0
   37.5130   29.4930   38.9650 O   0  0  0  0  0  0  0  0  0  0  0  0
   37.8810   29.7810   40.2950 C   0  0  1  0  0  0  0  0  0  0  0  0
   36.0430   30.2800   41.3330 H   0  0  0  0  0  0  0  0  0  0  0  0
   36.4310   27.4750   40.1500 H   0  0  0  0  0  0  0  0  0  0  0  0
   34.8790   28.4030   40.5220 H   0  0  0  0  0  0  0  0  0  0  0  0
   35.8440   28.6730   38.0720 H   0  0  0  0  0  0  0  0  0  0  0  0
   35.6520   30.2270   39.0610 H   0  0  0  0  0  0  0  0  0  0  0  0
   38.8420   29.3330   40.5720 H   0  0  0  0  0  0  0  0  0  0  0  0
   39.2880   31.8760   40.6890 C   0  0  0  0  0  0  0  0  0  0  0  0
   38.1110   31.2770   40.2610 C   0  0  0  0  0  0  0  0  0  0  0  0
   37.1410   32.1040   39.7490 C   0  0  0  0  0  0  0  0  0  0  0  0
   36.1930   31.7810   39.3790 H   0  0  0  0  0  0  0  0  0  0  0  0
   37.2720   33.4820   39.6380 C   0  0  0  0  0  0  0  0  0  0  0  0
   36.5170   34.1480   39.2370 H   0  0  0  0  0  0  0  0  0  0  0  0
   38.4430   34.0730   40.0630 C   0  0  0  0  0  3  0  0  0  0  0  0
   39.4080   33.2670   40.5710 C   0  0  0  0  0  3  0  0  0  0  0  0
   40.5250   29.6280   41.2060 H   0  0  0  0  0  0  0  0  0  0  0  0
   40.5820   30.9850   41.3850 S   0  0  0  0  0  0  0  0  0  0  0  0
   40.4340   31.1250   42.9120 O   0  0  0  0  0  0  0  0  0  0  0  0
   41.9470   31.5650   41.1370 O   0  0  0  0  0  0  0  0  0  0  0  0
   37.0340   28.8120   42.4700 C   0  0  0  0  0  0  0  0  0  0  0  0
   37.0970   29.5420   43.2910 H   0  0  0  0  0  0  0  0  0  0  0  0
   36.1540   28.1550   42.7320 H   0  0  0  0  0  0  0  0  0  0  0  0
   39.1790   28.0410   43.3310 C   0  0  0  0  0  3  0  0  0  0  0  0
   38.2000   27.8910   42.4530 C   0  0  0  0  0  3  0  0  0  0  0  0
   42.5490   26.6570   43.6230 C   0  0  0  0  0  0  0  0  0  0  0  0
   42.3520   25.3050   43.2360 C   0  0  0  0  0  0  0  0  0  0  0  0
   41.0550   24.9310   42.8880 C   0  0  0  0  0  0  0  0  0  0  0  0
   40.0750   25.8650   42.9380 N   0  0  0  0  0  0  0  0  0  0  0  0
   40.3130   27.1470   43.3160 C   0  0  0  0  0  0  0  0  0  0  0  0
   41.5240   27.5400   43.6520 N   0  0  0  0  0  0  0  0  0  0  0  0
   43.5170   27.0500   43.9130 H   0  0  0  0  0  0  0  0  0  0  0  0
   43.2220   24.6900   43.2460 H   0  0  0  0  0  0  0  0  0  0  0  0
   40.9140   23.9130   42.5980 H   0  0  0  0  0  0  0  0  0  0  0  0
  1  6  1  1  0  0  0
  1 24  1  0  0  0  0
  2  8  1  0  0  0  0
  2  1  1  0  0  0  0
  3  4  1  0  0  0  0
  3 10  1  0  0  0  0
  3  2  1  0  0  0  0
  4  5  1  0  0  0  0
  5 11  1  1  0  0  0
  5  1  1  0  0  0  0
  7  2  1  0  0  0  0
  9  3  1  0  0  0  0
 12 21  1  0  0  0  0
 13  5  1  0  0  0  0
 13 12  2  0  0  0  0
 14 13  1  0  0  0  0
 15 14  1  0  0  0  0
 16 14  2  0  0  0  0
 16 18  1  0  0  0  0
 17 16  1  0  0  0  0
 18 19  2  0  0  0  0
 19 12  1  0  0  0  0
 20 21  1  0  0  0  0
 21 22  2  0  0  0  0
 23 21  2  0  0  0  0
 24 26  1  0  0  0  0
 24 25  1  0  0  0  0
 28 24  1  0  0  0  0
 28 27  2  0  0  0  0
 29 34  1  0  0  0  0
 29 35  1  0  0  0  0
 30 36  1  0  0  0  0
 30 29  2  0  0  0  0
 31 32  2  0  0  0  0
 31 30  1  0  0  0  0
 32 33  1  0  0  0  0
 33 27  1  0  0  0  0
 33 34  2  0  0  0  0
 37 31  1  0  0  0  0
M  END
>  <minimizedAffinity>
-5.03578949

$$$$

 OpenBabel03242513223D

 37 39  0  0  1  0  0  0  0  0999 V2000
   37.3670   25.4160   42.0590 C   0  0  2  0  0  0  0  0  0  0  0  0
   38.7270   24.9550   42.5350 C   0  0  0  0  0  0  0  0  0  0  0  0
   39.0430   24.0810   41.3310 C   0  0  0  0  0  0  0  0  0  0  0  0
   38.7350   24.9110   40.2710 O   0  0  0  0  0  0  0  0  0  0  0  0
   37.5850   25.6470   40.6180 C   0  0  1  0  0  0  0  0  0  0  0  0
   36.6620   24.5790   42.2660 H   0  0  0  0  0  0  0  0  0  0  0  0
   39.4690   25.7760   42.5860 H   0  0  0  0  0  0  0  0  0  0  0  0
   38.6690   24.3680   43.4730 H   0  0  0  0  0  0  0  0  0  0  0  0
   40.0770   23.7460   41.3190 H   0  0  0  0  0  0  0  0  0  0  0  0
   38.2910   23.2570   41.3100 H   0  0  0  0  0  0  0  0  0  0  0  0
   37.6400   26.6920   40.2930 H   0  0  0  0  0  0  0  0  0  0  0  0
   36.0740   25.5260   38.5620 C   0  0  0  0  0  0  0  0  0  0  0  0
   36.5080   25.0010   39.7720 C   0  0  0  0  0  0  0  0  0  0  0  0
   35.9430   23.8160   40.1750 C   0  0  0  0  0  0  0  0  0  0  0  0
   36.1850   23.2970   41.0770 H   0  0  0  0  0  0  0  0  0  0  0  0
   34.9800   23.1260   39.4510 C   0  0  0  0  0  0  0  0  0  0  0  0
   34.5260   22.1910   39.7550 H   0  0  0  0  0  0  0  0  0  0  0  0
   34.5520   23.6500   38.2500 C   0  0  0  0  0  3  0  0  0  0  0  0
   35.1020   24.8200   37.8410 C   0  0  0  0  0  3  0  0  0  0  0  0
   37.9670   27.3000   38.2170 H   0  0  0  0  0  0  0  0  0  0  0  0
   36.6570   27.0160   37.9350 S   0  0  0  0  0  0  0  0  0  0  0  0
   35.9070   28.1290   38.6940 O   0  0  0  0  0  0  0  0  0  0  0  0
   36.2780   27.2870   36.5060 O   0  0  0  0  0  0  0  0  0  0  0  0
   36.8620   26.5920   42.8480 C   0  0  0  0  0  0  0  0  0  0  0  0
   35.8700   26.4370   43.3000 H   0  0  0  0  0  0  0  0  0  0  0  0
   37.5650   26.7090   43.7240 H   0  0  0  0  0  0  0  0  0  0  0  0
   37.7880   28.8210   42.5220 C   0  0  0  0  0  3  0  0  0  0  0  0
   36.9450   27.8840   42.1200 C   0  0  0  0  0  3  0  0  0  0  0  0
   38.9970   31.9570   41.0850 C   0  0  0  0  0  0  0  0  0  0  0  0
   37.8440   32.4430   40.4140 C   0  0  0  0  0  0  0  0  0  0  0  0
   36.6940   31.6610   40.4900 C   0  0  0  0  0  0  0  0  0  0  0  0
   36.7420   30.5010   41.1890 N   0  0  0  0  0  0  0  0  0  0  0  0
   37.8700   30.0780   41.8150 C   0  0  0  0  0  0  0  0  0  0  0  0
   38.9770   30.7880   41.7670 N   0  0  0  0  0  0  0  0  0  0  0  0
   39.9430   32.4880   41.0890 H   0  0  0  0  0  0  0  0  0  0  0  0
   37.9620   33.3720   39.9070 H   0  0  0  0  0  0  0  0  0  0  0  0
   35.8300   32.0310   39.9820 H   0  0  0  0  0  0  0  0  0  0  0  0
  1  6  1  1  0  0  0
  1  2  1  0  0  0  0
  1 24  1  0  0  0  0
  2  7  1  0  0  0  0
  2  8  1  0  0  0  0
  3  2  1  0  0  0  0
  4  5  1  0  0  0  0
  4  3  1  0  0  0  0
  5 11  1  6  0  0  0
  5  1  1  0  0  0  0
  9  3  1  0  0  0  0
 10  3  1  0  0  0  0
 12 13  1  0  0  0  0
 13 14  2  0  0  0  0
 13  5  1  0  0  0  0
 14 15  1  0  0  0  0
 16 17  1  0  0  0  0
 16 14  1  0  0  0  0
 18 16  2  0  0  0  0
 19 18  1  0  0  0  0
 19 12  2  0  0  0  0
 21 20  1  0  0  0  0
 21 12  1  0  0  0  0
 21 22  2  0  0  0  0
 23 21  2  0  0  0  0
 24 25  1  0  0  0  0
 24 26  1  0  0  0  0
 28 27  2  0  0  0  0
 28 24  1  0  0  0  0
 29 35  1  0  0  0  0
 29 34  1  0  0  0  0
 30 31  1  0  0  0  0
 30 29  2  0  0  0  0
 31 32  2  0  0  0  0
 32 33  1  0  0  0  0
 33 27  1  0  0  0  0
 34 33  2  0  0  0  0
 36 30  1  0  0  0  0
 37 31  1  0  0  0  0
M  END
>  <minimizedAffinity>
-5.02534533

$$$$
