
 OpenBabel03252506123D

 39 41  0  0  0  0  0  0  0  0999 V2000
   45.1060   33.4300   41.2020 F   0  0  0  0  0  0  0  0  0  0  0  0
   46.2950   34.0150   41.0590 C   0  0  0  0  0  0  0  0  0  0  0  0
   46.8030   34.7880   42.1000 C   0  0  0  0  0  0  0  0  0  0  0  0
   48.0340   35.4310   42.0350 C   0  0  0  0  0  0  0  0  0  0  0  0
   48.8090   35.3050   40.8820 C   0  0  0  0  0  0  0  0  0  0  0  0
   48.2700   34.5280   39.8680 C   0  0  0  0  0  0  0  0  0  0  0  0
   47.0680   33.8940   39.9170 C   0  0  0  0  0  0  0  0  0  0  0  0
   48.3650   36.0220   42.8960 H   0  0  0  0  0  0  0  0  0  0  0  0
   49.7370   35.8190   40.8960 H   0  0  0  0  0  0  0  0  0  0  0  0
   48.9750   34.5120   39.0450 H   0  0  0  0  0  0  0  0  0  0  0  0
   45.4510   34.1730   45.4560 C   0  0  0  0  0  0  0  0  0  0  0  0
   44.5760   35.2610   45.6210 C   0  0  0  0  0  0  0  0  0  0  0  0
   44.4520   36.2040   44.5770 C   0  0  0  0  0  0  0  0  0  0  0  0
   45.2070   35.9910   43.4550 N   0  0  0  0  0  0  0  0  0  0  0  0
   46.0280   34.9480   43.3320 C   0  0  0  0  0  0  0  0  0  0  0  0
   46.1450   34.0500   44.3250 N   0  0  0  0  0  0  0  0  0  0  0  0
   43.9810   35.4250   46.5060 H   0  0  0  0  0  0  0  0  0  0  0  0
   43.7920   37.0560   44.6570 H   0  0  0  0  0  0  0  0  0  0  0  0
   45.5660   33.2320   46.5090 N   0  0  0  0  0  0  0  0  0  0  0  0
   44.8740   32.5040   46.8520 H   0  0  0  0  0  0  0  0  0  0  0  0
   46.4490   33.2140   47.0610 H   0  0  0  0  0  0  0  0  0  0  0  0
   46.6380   33.1530   38.8510 O   0  0  0  0  0  0  0  0  0  0  0  0
   47.8810   34.6220   37.0330 O   0  0  0  0  0  0  0  0  0  0  0  0
   46.9480   33.4460   37.2280 P   0  0  2  0  0  0  0  0  0  0  0  0
   45.4570   33.7500   36.4440 O   0  0  0  0  0  0  0  0  0  0  0  0
   45.5410   34.5330   35.8470 H   0  0  0  0  0  0  0  0  0  0  0  0
   47.6010   32.1170   36.4130 O   0  0  0  0  0  0  0  0  0  0  0  0
   47.4720   31.4750   34.1940 C   0  0  0  0  0  0  0  0  0  0  0  0
   46.9750   31.3230   35.4920 C   0  0  0  0  0  0  0  0  0  0  0  0
   45.9520   30.4210   35.6610 C   0  0  0  0  0  0  0  0  0  0  0  0
   45.6030   30.3390   36.6790 H   0  0  0  0  0  0  0  0  0  0  0  0
   45.4320   29.6960   34.6140 C   0  0  0  0  0  0  0  0  0  0  0  0
   44.6290   28.9960   34.7840 H   0  0  0  0  0  0  0  0  0  0  0  0
   45.9110   29.8320   33.3230 C   0  0  0  0  0  3  0  0  0  0  0  0
   46.9380   30.7390   33.1570 C   0  0  0  0  0  3  0  0  0  0  0  0
   48.9490   33.4270   34.8610 H   0  0  0  0  0  0  0  0  0  0  0  0
   48.7850   32.5940   33.8050 S   0  0  0  0  0  0  0  0  0  0  0  0
   50.0440   31.7810   33.5420 O   0  0  0  0  0  0  0  0  0  0  0  0
   48.4680   33.2930   32.5230 O   0  0  0  0  0  0  0  0  0  0  0  0
  2  1  1  0  0  0  0
  2  3  1  0  0  0  0
  3 15  1  0  0  0  0
  4  3  2  0  0  0  0
  4  8  1  0  0  0  0
  5  9  1  0  0  0  0
  5  4  1  0  0  0  0
  6  7  1  0  0  0  0
  6  5  2  0  0  0  0
  7  2  2  0  0  0  0
 10  6  1  0  0  0  0
 11 12  1  0  0  0  0
 11 19  1  0  0  0  0
 12 17  1  0  0  0  0
 13 18  1  0  0  0  0
 13 12  2  0  0  0  0
 14 13  1  0  0  0  0
 15 14  2  0  0  0  0
 15 16  1  0  0  0  0
 16 11  2  0  0  0  0
 19 20  1  0  0  0  0
 19 21  1  0  0  0  0
 22  7  1  0  0  0  0
 24 23  2  6  0  0  0
 24 22  1  0  0  0  0
 25 24  1  0  0  0  0
 26 25  1  0  0  0  0
 27 24  1  0  0  0  0
 28 29  1  0  0  0  0
 29 30  2  0  0  0  0
 29 27  1  0  0  0  0
 30 31  1  0  0  0  0
 32 33  1  0  0  0  0
 32 30  1  0  0  0  0
 34 32  2  0  0  0  0
 35 34  1  0  0  0  0
 35 28  2  0  0  0  0
 37 28  1  0  0  0  0
 37 36  1  0  0  0  0
 38 37  2  0  0  0  0
 39 37  2  0  0  0  0
M  END
>  <minimizedAffinity>
-6.83109951

>  <minimizedRMSD>
1.7580632

$$$$
