
 OpenBabel03242522483D

 44 47  0  0  0  0  0  0  0  0999 V2000
   36.4510   29.7020   40.4680 C   0  0  0  0  0  0  0  0  0  0  0  0
   37.7190   30.1460   40.0430 C   0  0  0  0  0  0  0  0  0  0  0  0
   38.6610   29.1820   39.6210 C   0  0  0  0  0  0  0  0  0  0  0  0
   38.2660   27.8770   39.6560 N   0  0  0  0  0  0  0  0  0  0  0  0
   37.0360   27.4900   40.0730 C   0  0  0  0  0  0  0  0  0  0  0  0
   36.1630   28.4010   40.4660 N   0  0  0  0  0  0  0  0  0  0  0  0
   35.5090   30.6750   40.8880 N   0  0  0  0  0  0  0  0  0  0  0  0
   39.6490   29.4680   39.2840 H   0  0  0  0  0  0  0  0  0  0  0  0
   35.6260   31.1060   41.8530 H   0  0  0  0  0  0  0  0  0  0  0  0
   34.6550   31.1030   40.4400 H   0  0  0  0  0  0  0  0  0  0  0  0
   38.1000   31.5390   40.0010 C   0  0  0  0  0  0  0  0  0  0  0  0
   37.3150   32.6370   39.7390 C   0  0  0  0  0  0  0  0  0  0  0  0
   37.8270   33.9130   39.7420 C   0  0  0  0  0  0  0  0  0  0  0  0
   39.1810   34.1440   40.0120 C   0  0  0  0  0  0  0  0  0  0  0  0
   39.6160   35.4070   39.9930 N   0  0  0  0  0  0  0  0  0  0  0  0
   40.9300   35.6560   40.2480 C   0  0  0  0  0  0  0  0  0  0  0  0
   41.7440   34.5650   40.5140 C   0  0  0  0  0  0  0  0  0  0  0  0
   41.3090   33.2620   40.5380 C   0  0  0  0  0  0  0  0  0  0  0  0
   39.9630   33.0400   40.2740 C   0  0  0  0  0  0  0  0  0  0  0  0
   39.4470   31.7520   40.2720 C   0  0  0  0  0  0  0  0  0  0  0  0
   36.2730   32.4040   39.5410 H   0  0  0  0  0  0  0  0  0  0  0  0
   37.1590   34.7560   39.5310 H   0  0  0  0  0  0  0  0  0  0  0  0
   41.3490   36.6560   40.2510 H   0  0  0  0  0  0  0  0  0  0  0  0
   42.8020   34.7620   40.7190 H   0  0  0  0  0  0  0  0  0  0  0  0
   41.9880   32.4290   40.7520 H   0  0  0  0  0  0  0  0  0  0  0  0
   40.1540   30.9640   40.4870 H   0  0  0  0  0  0  0  0  0  0  0  0
   36.7560   26.0450   40.0620 C   0  0  0  0  0  0  0  0  0  0  0  0
   35.7660   25.8380   39.5680 H   0  0  0  0  0  0  0  0  0  0  0  0
   37.4910   25.5490   39.4150 H   0  0  0  0  0  0  0  0  0  0  0  0
   36.7300   25.4710   41.4810 C   0  0  0  0  0  0  0  0  0  0  0  0
   36.2470   24.4710   41.4830 H   0  0  0  0  0  0  0  0  0  0  0  0
   35.9890   26.1600   42.0120 H   0  0  0  0  0  0  0  0  0  0  0  0
   38.2250   26.5320   43.1240 C   0  0  0  0  0  0  0  0  0  0  0  0
   38.0170   25.5180   42.1760 C   0  0  0  0  0  0  0  0  0  0  0  0
   39.0470   24.6240   41.9880 C   0  0  0  0  0  0  0  0  0  0  0  0
   38.9350   23.8260   41.2750 H   0  0  0  0  0  0  0  0  0  0  0  0
   40.2780   24.6290   42.6500 C   0  0  0  0  0  0  0  0  0  0  0  0
   41.0250   23.8840   42.4380 H   0  0  0  0  0  0  0  0  0  0  0  0
   40.4730   25.6410   43.5900 C   0  0  0  0  0  3  0  0  0  0  0  0
   39.4560   26.5460   43.7940 C   0  0  0  0  0  3  0  0  0  0  0  0
   36.1690   27.8240   42.4340 H   0  0  0  0  0  0  0  0  0  0  0  0
   37.0520   27.7560   43.5060 S   0  0  0  0  0  0  0  0  0  0  0  0
   36.1940   27.4250   44.6890 O   0  0  0  0  0  0  0  0  0  0  0  0
   37.6920   29.0800   43.7230 O   0  0  0  0  0  0  0  0  0  0  0  0
  1  7  1  0  0  0  0
  2  1  2  0  0  0  0
  3  4  2  0  0  0  0
  3  2  1  0  0  0  0
  4  5  1  0  0  0  0
  5  6  2  0  0  0  0
  6  1  1  0  0  0  0
  7  9  1  0  0  0  0
  8  3  1  0  0  0  0
 10  7  1  0  0  0  0
 11  2  1  0  0  0  0
 11 20  1  0  0  0  0
 12 13  1  0  0  0  0
 12 11  2  0  0  0  0
 13 14  2  0  0  0  0
 14 19  1  0  0  0  0
 15 14  1  0  0  0  0
 15 16  2  0  0  0  0
 16 23  1  0  0  0  0
 16 17  1  0  0  0  0
 17 18  2  0  0  0  0
 17 24  1  0  0  0  0
 18 25  1  0  0  0  0
 19 18  1  0  0  0  0
 20 19  2  0  0  0  0
 20 26  1  0  0  0  0
 21 12  1  0  0  0  0
 22 13  1  0  0  0  0
 27  5  1  0  0  0  0
 27 30  1  0  0  0  0
 28 27  1  0  0  0  0
 29 27  1  0  0  0  0
 30 31  1  0  0  0  0
 30 32  1  0  0  0  0
 30 34  1  0  0  0  0
 33 42  1  0  0  0  0
 33 40  1  0  0  0  0
 34 33  2  0  0  0  0
 35 34  1  0  0  0  0
 35 37  2  0  0  0  0
 36 35  1  0  0  0  0
 37 39  1  0  0  0  0
 38 37  1  0  0  0  0
 39 40  2  0  0  0  0
 41 42  1  0  0  0  0
 42 44  2  0  0  0  0
 42 43  2  0  0  0  0
M  END
>  <minimizedAffinity>
-7.09533978

$$$$

 OpenBabel03242522483D

 44 47  0  0  0  0  0  0  0  0999 V2000
   37.2650   31.5540   40.8980 C   0  0  0  0  0  0  0  0  0  0  0  0
   38.2330   30.6240   41.3260 C   0  0  0  0  0  0  0  0  0  0  0  0
   39.5920   31.0100   41.3030 C   0  0  0  0  0  0  0  0  0  0  0  0
   39.8670   32.2710   40.8620 N   0  0  0  0  0  0  0  0  0  0  0  0
   38.9060   33.1360   40.4580 C   0  0  0  0  0  0  0  0  0  0  0  0
   37.6380   32.7630   40.4830 N   0  0  0  0  0  0  0  0  0  0  0  0
   35.9030   31.1610   40.9260 N   0  0  0  0  0  0  0  0  0  0  0  0
   40.3760   30.3350   41.6210 H   0  0  0  0  0  0  0  0  0  0  0  0
   35.5490   30.5140   40.1600 H   0  0  0  0  0  0  0  0  0  0  0  0
   35.0970   31.3740   41.5730 H   0  0  0  0  0  0  0  0  0  0  0  0
   37.9060   29.3000   41.8050 C   0  0  0  0  0  0  0  0  0  0  0  0
   37.6970   28.8800   43.0970 C   0  0  0  0  0  0  0  0  0  0  0  0
   37.3840   27.5750   43.3960 C   0  0  0  0  0  0  0  0  0  0  0  0
   37.2670   26.6150   42.3840 C   0  0  0  0  0  0  0  0  0  0  0  0
   36.9660   25.3630   42.7410 N   0  0  0  0  0  0  0  0  0  0  0  0
   36.8520   24.4100   41.7760 C   0  0  0  0  0  0  0  0  0  0  0  0
   37.0590   24.8080   40.4630 C   0  0  0  0  0  0  0  0  0  0  0  0
   37.3670   26.0910   40.0820 C   0  0  0  0  0  0  0  0  0  0  0  0
   37.4770   27.0410   41.0910 C   0  0  0  0  0  0  0  0  0  0  0  0
   37.7930   28.3580   40.7890 C   0  0  0  0  0  0  0  0  0  0  0  0
   37.7950   29.6640   43.8420 H   0  0  0  0  0  0  0  0  0  0  0  0
   37.2230   27.2910   44.4420 H   0  0  0  0  0  0  0  0  0  0  0  0
   36.6080   23.3770   41.9950 H   0  0  0  0  0  0  0  0  0  0  0  0
   36.9690   24.0430   39.6840 H   0  0  0  0  0  0  0  0  0  0  0  0
   37.5250   26.3610   39.0320 H   0  0  0  0  0  0  0  0  0  0  0  0
   37.9400   28.5760   39.7410 H   0  0  0  0  0  0  0  0  0  0  0  0
   39.3550   34.4620   40.0010 C   0  0  0  0  0  0  0  0  0  0  0  0
   39.4200   34.4920   38.8780 H   0  0  0  0  0  0  0  0  0  0  0  0
   38.5800   35.2000   40.2470 H   0  0  0  0  0  0  0  0  0  0  0  0
   40.7230   34.8200   40.5860 C   0  0  0  0  0  0  0  0  0  0  0  0
   40.8150   34.4250   41.6200 H   0  0  0  0  0  0  0  0  0  0  0  0
   40.6510   35.9540   40.7070 H   0  0  0  0  0  0  0  0  0  0  0  0
   43.0830   34.1700   40.3150 C   0  0  0  0  0  0  0  0  0  0  0  0
   41.8560   34.4980   39.7170 C   0  0  0  0  0  0  0  0  0  0  0  0
   41.8100   34.4700   38.3410 C   0  0  0  0  0  0  0  0  0  0  0  0
   40.8910   34.7110   37.8350 H   0  0  0  0  0  0  0  0  0  0  0  0
   42.8660   34.1460   37.4850 C   0  0  0  0  0  0  0  0  0  0  0  0
   42.7340   34.1490   36.4160 H   0  0  0  0  0  0  0  0  0  0  0  0
   44.0790   33.8220   38.0910 C   0  0  0  0  0  3  0  0  0  0  0  0
   44.1480   33.8440   39.4650 C   0  0  0  0  0  3  0  0  0  0  0  0
   42.2120   33.5920   42.6130 H   0  0  0  0  0  0  0  0  0  0  0  0
   43.3470   34.1480   42.0330 S   0  0  0  0  0  0  0  0  0  0  0  0
   44.4720   33.2570   42.4620 O   0  0  0  0  0  0  0  0  0  0  0  0
   43.5750   35.5150   42.5700 O   0  0  0  0  0  0  0  0  0  0  0  0
  1  7  1  0  0  0  0
  1  2  1  0  0  0  0
  2 11  1  0  0  0  0
  3  2  2  0  0  0  0
  3  8  1  0  0  0  0
  4  3  1  0  0  0  0
  5  6  1  0  0  0  0
  5  4  2  0  0  0  0
  6  1  2  0  0  0  0
  7 10  1  0  0  0  0
  9  7  1  0  0  0  0
 11 12  1  0  0  0  0
 12 13  2  0  0  0  0
 12 21  1  0  0  0  0
 13 22  1  0  0  0  0
 14 15  1  0  0  0  0
 14 13  1  0  0  0  0
 16 23  1  0  0  0  0
 16 15  2  0  0  0  0
 17 16  1  0  0  0  0
 18 17  2  0  0  0  0
 18 19  1  0  0  0  0
 19 14  2  0  0  0  0
 20 19  1  0  0  0  0
 20 11  2  0  0  0  0
 24 17  1  0  0  0  0
 25 18  1  0  0  0  0
 26 20  1  0  0  0  0
 27 29  1  0  0  0  0
 27  5  1  0  0  0  0
 27 30  1  0  0  0  0
 28 27  1  0  0  0  0
 30 32  1  0  0  0  0
 30 31  1  0  0  0  0
 33 42  1  0  0  0  0
 34 33  1  0  0  0  0
 34 30  1  0  0  0  0
 35 34  2  0  0  0  0
 36 35  1  0  0  0  0
 37 39  2  0  0  0  0
 37 35  1  0  0  0  0
 38 37  1  0  0  0  0
 39 40  1  0  0  0  0
 40 33  2  0  0  0  0
 42 43  2  0  0  0  0
 42 44  2  0  0  0  0
 42 41  1  0  0  0  0
M  END
>  <minimizedAffinity>
-6.88721991

$$$$

 OpenBabel03242522483D

 44 47  0  0  0  0  0  0  0  0999 V2000
   35.6100   29.9930   39.7980 C   0  0  0  0  0  0  0  0  0  0  0  0
   36.6360   30.4350   38.9390 C   0  0  0  0  0  0  0  0  0  0  0  0
   36.5360   30.1320   37.5630 C   0  0  0  0  0  0  0  0  0  0  0  0
   35.4380   29.4270   37.1640 N   0  0  0  0  0  0  0  0  0  0  0  0
   34.4730   29.0190   38.0230 C   0  0  0  0  0  0  0  0  0  0  0  0
   34.5780   29.3070   39.3090 N   0  0  0  0  0  0  0  0  0  0  0  0
   35.7150   30.3020   41.1780 N   0  0  0  0  0  0  0  0  0  0  0  0
   37.2950   30.4480   36.8590 H   0  0  0  0  0  0  0  0  0  0  0  0
   36.3890   29.7330   41.7720 H   0  0  0  0  0  0  0  0  0  0  0  0
   35.2480   31.0120   41.8030 H   0  0  0  0  0  0  0  0  0  0  0  0
   37.7770   31.1960   39.3910 C   0  0  0  0  0  0  0  0  0  0  0  0
   39.0240   30.7430   39.7560 C   0  0  0  0  0  0  0  0  0  0  0  0
   40.0180   31.6010   40.1620 C   0  0  0  0  0  0  0  0  0  0  0  0
   39.7960   32.9830   40.2210 C   0  0  0  0  0  0  0  0  0  0  0  0
   40.8020   33.7610   40.6300 N   0  0  0  0  0  0  0  0  0  0  0  0
   40.6090   35.1060   40.7010 C   0  0  0  0  0  0  0  0  0  0  0  0
   39.3600   35.5890   40.3390 C   0  0  0  0  0  0  0  0  0  0  0  0
   38.3180   34.8000   39.9160 C   0  0  0  0  0  0  0  0  0  0  0  0
   38.5460   33.4310   39.8540 C   0  0  0  0  0  0  0  0  0  0  0  0
   37.5420   32.5650   39.4440 C   0  0  0  0  0  0  0  0  0  0  0  0
   39.1450   29.6660   39.6870 H   0  0  0  0  0  0  0  0  0  0  0  0
   40.9960   31.1920   40.4390 H   0  0  0  0  0  0  0  0  0  0  0  0
   41.3820   35.7950   41.0210 H   0  0  0  0  0  0  0  0  0  0  0  0
   39.2010   36.6720   40.3960 H   0  0  0  0  0  0  0  0  0  0  0  0
   37.3460   35.2240   39.6410 H   0  0  0  0  0  0  0  0  0  0  0  0
   36.6020   33.0290   39.1840 H   0  0  0  0  0  0  0  0  0  0  0  0
   33.3500   28.2590   37.4480 C   0  0  0  0  0  0  0  0  0  0  0  0
   33.7160   27.2970   36.9950 H   0  0  0  0  0  0  0  0  0  0  0  0
   32.6880   27.9400   38.2640 H   0  0  0  0  0  0  0  0  0  0  0  0
   32.6210   29.0690   36.3730 C   0  0  0  0  0  0  0  0  0  0  0  0
   32.3250   28.4090   35.5300 H   0  0  0  0  0  0  0  0  0  0  0  0
   33.4540   29.7300   35.9550 H   0  0  0  0  0  0  0  0  0  0  0  0
   31.0190   30.9070   36.0360 C   0  0  0  0  0  0  0  0  0  0  0  0
   31.5420   29.9160   36.8810 C   0  0  0  0  0  0  0  0  0  0  0  0
   30.9760   29.8050   38.1320 C   0  0  0  0  0  0  0  0  0  0  0  0
   31.3400   29.0580   38.8160 H   0  0  0  0  0  0  0  0  0  0  0  0
   29.9320   30.5830   38.6390 C   0  0  0  0  0  0  0  0  0  0  0  0
   29.5510   30.4210   39.6330 H   0  0  0  0  0  0  0  0  0  0  0  0
   29.4200   31.5640   37.7900 C   0  0  0  0  0  3  0  0  0  0  0  0
   29.9710   31.6930   36.5350 C   0  0  0  0  0  3  0  0  0  0  0  0
   32.8880   30.7020   34.3520 H   0  0  0  0  0  0  0  0  0  0  0  0
   31.5940   31.2070   34.4240 S   0  0  0  0  0  0  0  0  0  0  0  0
   30.8360   30.4710   33.3620 O   0  0  0  0  0  0  0  0  0  0  0  0
   31.5960   32.6590   34.1050 O   0  0  0  0  0  0  0  0  0  0  0  0
  1  7  1  0  0  0  0
  2 11  1  0  0  0  0
  2  1  2  0  0  0  0
  3  2  1  0  0  0  0
  4  3  2  0  0  0  0
  4  5  1  0  0  0  0
  5  6  2  0  0  0  0
  6  1  1  0  0  0  0
  7  9  1  0  0  0  0
  7 10  1  0  0  0  0
  8  3  1  0  0  0  0
 11 20  2  0  0  0  0
 11 12  1  0  0  0  0
 12 13  2  0  0  0  0
 13 14  1  0  0  0  0
 13 22  1  0  0  0  0
 14 15  1  0  0  0  0
 15 16  2  0  0  0  0
 16 23  1  0  0  0  0
 17 24  1  0  0  0  0
 17 16  1  0  0  0  0
 18 17  2  0  0  0  0
 19 18  1  0  0  0  0
 19 14  2  0  0  0  0
 20 19  1  0  0  0  0
 21 12  1  0  0  0  0
 25 18  1  0  0  0  0
 26 20  1  0  0  0  0
 27  5  1  0  0  0  0
 27 29  1  0  0  0  0
 28 27  1  0  0  0  0
 30 34  1  0  0  0  0
 30 27  1  0  0  0  0
 31 30  1  0  0  0  0
 32 30  1  0  0  0  0
 33 40  2  0  0  0  0
 33 34  1  0  0  0  0
 34 35  2  0  0  0  0
 35 37  1  0  0  0  0
 35 36  1  0  0  0  0
 37 38  1  0  0  0  0
 39 37  2  0  0  0  0
 40 39  1  0  0  0  0
 41 42  1  0  0  0  0
 42 33  1  0  0  0  0
 43 42  2  0  0  0  0
 44 42  2  0  0  0  0
M  END
>  <minimizedAffinity>
-6.84131098

$$$$

 OpenBabel03242522483D

 44 47  0  0  0  0  0  0  0  0999 V2000
   37.1980   31.4370   40.8810 C   0  0  0  0  0  0  0  0  0  0  0  0
   38.1340   30.4780   41.3160 C   0  0  0  0  0  0  0  0  0  0  0  0
   39.4940   30.8520   41.3910 C   0  0  0  0  0  0  0  0  0  0  0  0
   39.8020   32.1310   41.0320 N   0  0  0  0  0  0  0  0  0  0  0  0
   38.8710   33.0250   40.6180 C   0  0  0  0  0  0  0  0  0  0  0  0
   37.6020   32.6630   40.5520 N   0  0  0  0  0  0  0  0  0  0  0  0
   35.8340   31.0560   40.8120 N   0  0  0  0  0  0  0  0  0  0  0  0
   40.2540   30.1540   41.7190 H   0  0  0  0  0  0  0  0  0  0  0  0
   35.5200   30.4530   39.9940 H   0  0  0  0  0  0  0  0  0  0  0  0
   34.9930   31.2430   41.4210 H   0  0  0  0  0  0  0  0  0  0  0  0
   37.7710   29.1350   41.7070 C   0  0  0  0  0  0  0  0  0  0  0  0
   37.4070   28.6690   42.9480 C   0  0  0  0  0  0  0  0  0  0  0  0
   37.0800   27.3500   43.1620 C   0  0  0  0  0  0  0  0  0  0  0  0
   37.1090   26.4230   42.1130 C   0  0  0  0  0  0  0  0  0  0  0  0
   36.7870   25.1560   42.3900 N   0  0  0  0  0  0  0  0  0  0  0  0
   36.8130   24.2350   41.3870 C   0  0  0  0  0  0  0  0  0  0  0  0
   37.1780   24.6800   40.1260 C   0  0  0  0  0  0  0  0  0  0  0  0
   37.5100   25.9790   39.8280 C   0  0  0  0  0  0  0  0  0  0  0  0
   37.4750   26.8950   40.8720 C   0  0  0  0  0  0  0  0  0  0  0  0
   37.8040   28.2260   40.6550 C   0  0  0  0  0  0  0  0  0  0  0  0
   37.3960   29.4280   43.7240 H   0  0  0  0  0  0  0  0  0  0  0  0
   36.7920   27.0290   44.1690 H   0  0  0  0  0  0  0  0  0  0  0  0
   36.5610   23.1920   41.5410 H   0  0  0  0  0  0  0  0  0  0  0  0
   37.2010   23.9400   39.3170 H   0  0  0  0  0  0  0  0  0  0  0  0
   37.7960   26.2860   38.8160 H   0  0  0  0  0  0  0  0  0  0  0  0
   38.0790   28.4810   39.6420 H   0  0  0  0  0  0  0  0  0  0  0  0
   39.3550   34.3680   40.2570 C   0  0  0  0  0  0  0  0  0  0  0  0
   38.5900   34.9080   39.6320 H   0  0  0  0  0  0  0  0  0  0  0  0
   39.4320   34.9710   41.1710 H   0  0  0  0  0  0  0  0  0  0  0  0
   40.6710   34.2970   39.4780 C   0  0  0  0  0  0  0  0  0  0  0  0
   40.6150   34.9340   38.5700 H   0  0  0  0  0  0  0  0  0  0  0  0
   40.6680   33.2230   39.0880 H   0  0  0  0  0  0  0  0  0  0  0  0
   43.0190   33.7660   39.9930 C   0  0  0  0  0  0  0  0  0  0  0  0
   41.8680   34.5120   40.2920 C   0  0  0  0  0  0  0  0  0  0  0  0
   41.9640   35.4130   41.3280 C   0  0  0  0  0  0  0  0  0  0  0  0
   41.1100   36.0120   41.5940 H   0  0  0  0  0  0  0  0  0  0  0  0
   43.0970   35.6570   42.1090 C   0  0  0  0  0  0  0  0  0  0  0  0
   43.0790   36.3880   42.9000 H   0  0  0  0  0  0  0  0  0  0  0  0
   44.2340   34.9110   41.8030 C   0  0  0  0  0  3  0  0  0  0  0  0
   44.1610   34.0040   40.7710 C   0  0  0  0  0  3  0  0  0  0  0  0
   42.0400   32.8280   37.8640 H   0  0  0  0  0  0  0  0  0  0  0  0
   43.1020   32.5800   38.7260 S   0  0  0  0  0  0  0  0  0  0  0  0
   44.3260   32.6920   37.8690 O   0  0  0  0  0  0  0  0  0  0  0  0
   43.0090   31.1970   39.2640 O   0  0  0  0  0  0  0  0  0  0  0  0
  1  2  1  0  0  0  0
  2  3  2  0  0  0  0
  2 11  1  0  0  0  0
  3  8  1  0  0  0  0
  4  3  1  0  0  0  0
  5  4  2  0  0  0  0
  6  5  1  0  0  0  0
  6  1  2  0  0  0  0
  7  1  1  0  0  0  0
  7 10  1  0  0  0  0
  9  7  1  0  0  0  0
 11 12  1  0  0  0  0
 12 13  2  0  0  0  0
 12 21  1  0  0  0  0
 13 22  1  0  0  0  0
 14 15  1  0  0  0  0
 14 13  1  0  0  0  0
 16 23  1  0  0  0  0
 16 15  2  0  0  0  0
 17 16  1  0  0  0  0
 18 17  2  0  0  0  0
 18 19  1  0  0  0  0
 19 14  2  0  0  0  0
 20 19  1  0  0  0  0
 20 11  2  0  0  0  0
 24 17  1  0  0  0  0
 25 18  1  0  0  0  0
 26 20  1  0  0  0  0
 27  5  1  0  0  0  0
 27 29  1  0  0  0  0
 28 27  1  0  0  0  0
 30 27  1  0  0  0  0
 30 34  1  0  0  0  0
 31 30  1  0  0  0  0
 32 30  1  0  0  0  0
 33 34  2  0  0  0  0
 33 40  1  0  0  0  0
 34 35  1  0  0  0  0
 35 36  1  0  0  0  0
 35 37  2  0  0  0  0
 37 38  1  0  0  0  0
 39 37  1  0  0  0  0
 40 39  2  0  0  0  0
 41 42  1  0  0  0  0
 42 44  2  0  0  0  0
 42 33  1  0  0  0  0
 43 42  2  0  0  0  0
M  END
>  <minimizedAffinity>
-6.68582392

$$$$

 OpenBabel03242522483D

 44 47  0  0  0  0  0  0  0  0999 V2000
   36.1370   30.5160   40.0130 C   0  0  0  0  0  0  0  0  0  0  0  0
   37.0910   31.1180   39.1680 C   0  0  0  0  0  0  0  0  0  0  0  0
   37.3410   30.5280   37.9090 C   0  0  0  0  0  0  0  0  0  0  0  0
   36.6290   29.4060   37.6020 N   0  0  0  0  0  0  0  0  0  0  0  0
   35.7200   28.8580   38.4430 C   0  0  0  0  0  0  0  0  0  0  0  0
   35.4950   29.4180   39.6190 N   0  0  0  0  0  0  0  0  0  0  0  0
   35.8900   31.1140   41.2740 N   0  0  0  0  0  0  0  0  0  0  0  0
   38.0620   30.9500   37.2220 H   0  0  0  0  0  0  0  0  0  0  0  0
   36.5990   30.9640   42.0510 H   0  0  0  0  0  0  0  0  0  0  0  0
   35.1110   31.7160   41.6550 H   0  0  0  0  0  0  0  0  0  0  0  0
   37.8160   32.3190   39.5170 C   0  0  0  0  0  0  0  0  0  0  0  0
   37.3460   33.6070   39.6200 C   0  0  0  0  0  0  0  0  0  0  0  0
   38.1660   34.6530   39.9730 C   0  0  0  0  0  0  0  0  0  0  0  0
   39.5240   34.4430   40.2400 C   0  0  0  0  0  0  0  0  0  0  0  0
   40.2670   35.5030   40.5710 N   0  0  0  0  0  0  0  0  0  0  0  0
   41.5920   35.3250   40.8300 C   0  0  0  0  0  0  0  0  0  0  0  0
   42.0910   34.0350   40.7320 C   0  0  0  0  0  0  0  0  0  0  0  0
   41.3380   32.9370   40.3950 C   0  0  0  0  0  0  0  0  0  0  0  0
   39.9890   33.1510   40.1350 C   0  0  0  0  0  0  0  0  0  0  0  0
   39.1620   32.0950   39.7800 C   0  0  0  0  0  0  0  0  0  0  0  0
   36.2870   33.7140   39.4080 H   0  0  0  0  0  0  0  0  0  0  0  0
   37.7430   35.6610   40.0460 H   0  0  0  0  0  0  0  0  0  0  0  0
   42.2520   36.1390   41.1070 H   0  0  0  0  0  0  0  0  0  0  0  0
   43.1570   33.8880   40.9390 H   0  0  0  0  0  0  0  0  0  0  0  0
   41.7740   31.9340   40.3260 H   0  0  0  0  0  0  0  0  0  0  0  0
   39.6370   31.1260   39.7250 H   0  0  0  0  0  0  0  0  0  0  0  0
   35.0330   27.6410   37.9770 C   0  0  0  0  0  0  0  0  0  0  0  0
   34.2260   27.3410   38.7000 H   0  0  0  0  0  0  0  0  0  0  0  0
   34.4930   27.8750   37.0500 H   0  0  0  0  0  0  0  0  0  0  0  0
   36.0120   26.4750   37.8150 C   0  0  0  0  0  0  0  0  0  0  0  0
   36.9290   26.8130   37.2870 H   0  0  0  0  0  0  0  0  0  0  0  0
   35.4710   25.8000   37.0690 H   0  0  0  0  0  0  0  0  0  0  0  0
   35.8270   24.3950   39.1190 C   0  0  0  0  0  0  0  0  0  0  0  0
   36.2680   25.7250   39.0460 C   0  0  0  0  0  0  0  0  0  0  0  0
   36.9350   26.2190   40.1440 C   0  0  0  0  0  0  0  0  0  0  0  0
   37.2960   27.2330   40.1370 H   0  0  0  0  0  0  0  0  0  0  0  0
   37.2140   25.5240   41.3240 C   0  0  0  0  0  0  0  0  0  0  0  0
   37.7460   25.9940   42.1340 H   0  0  0  0  0  0  0  0  0  0  0  0
   36.7700   24.2030   41.3860 C   0  0  0  0  0  3  0  0  0  0  0  0
   36.1020   23.6880   40.2980 C   0  0  0  0  0  3  0  0  0  0  0  0
   35.6170   23.9000   36.6530 H   0  0  0  0  0  0  0  0  0  0  0  0
   34.9680   23.5880   37.8420 S   0  0  0  0  0  0  0  0  0  0  0  0
   35.0200   22.0930   37.9260 O   0  0  0  0  0  0  0  0  0  0  0  0
   33.5480   24.0230   37.7770 O   0  0  0  0  0  0  0  0  0  0  0  0
  1  7  1  0  0  0  0
  2 11  1  0  0  0  0
  2  1  2  0  0  0  0
  3  2  1  0  0  0  0
  4  3  2  0  0  0  0
  4  5  1  0  0  0  0
  5  6  2  0  0  0  0
  6  1  1  0  0  0  0
  7 10  1  0  0  0  0
  7  9  1  0  0  0  0
  8  3  1  0  0  0  0
 11 12  2  0  0  0  0
 11 20  1  0  0  0  0
 12 13  1  0  0  0  0
 13 22  1  0  0  0  0
 13 14  2  0  0  0  0
 14 15  1  0  0  0  0
 15 16  2  0  0  0  0
 16 23  1  0  0  0  0
 17 16  1  0  0  0  0
 17 24  1  0  0  0  0
 18 17  2  0  0  0  0
 19 14  1  0  0  0  0
 19 18  1  0  0  0  0
 20 19  2  0  0  0  0
 21 12  1  0  0  0  0
 25 18  1  0  0  0  0
 26 20  1  0  0  0  0
 27  5  1  0  0  0  0
 27 28  1  0  0  0  0
 29 27  1  0  0  0  0
 30 27  1  0  0  0  0
 30 34  1  0  0  0  0
 31 30  1  0  0  0  0
 32 30  1  0  0  0  0
 33 40  1  0  0  0  0
 34 33  2  0  0  0  0
 34 35  1  0  0  0  0
 35 37  2  0  0  0  0
 36 35  1  0  0  0  0
 37 39  1  0  0  0  0
 37 38  1  0  0  0  0
 40 39  2  0  0  0  0
 41 42  1  0  0  0  0
 42 43  2  0  0  0  0
 42 33  1  0  0  0  0
 44 42  2  0  0  0  0
M  END
>  <minimizedAffinity>
-6.64882088

$$$$

 OpenBabel03242522483D

 44 47  0  0  0  0  0  0  0  0999 V2000
   37.2850   30.8310   41.0020 C   0  0  0  0  0  0  0  0  0  0  0  0
   38.6360   31.1280   41.2740 C   0  0  0  0  0  0  0  0  0  0  0  0
   39.3360   30.3020   42.1810 C   0  0  0  0  0  0  0  0  0  0  0  0
   38.6420   29.2650   42.7320 N   0  0  0  0  0  0  0  0  0  0  0  0
   37.3430   29.0130   42.4450 C   0  0  0  0  0  0  0  0  0  0  0  0
   36.6980   29.7930   41.5950 N   0  0  0  0  0  0  0  0  0  0  0  0
   36.5890   31.6620   40.0880 N   0  0  0  0  0  0  0  0  0  0  0  0
   40.3740   30.4860   42.4250 H   0  0  0  0  0  0  0  0  0  0  0  0
   36.2600   32.6150   40.4240 H   0  0  0  0  0  0  0  0  0  0  0  0
   36.2960   31.5510   39.0810 H   0  0  0  0  0  0  0  0  0  0  0  0
   39.3470   32.2250   40.6580 C   0  0  0  0  0  0  0  0  0  0  0  0
   39.2120   33.5740   40.8890 C   0  0  0  0  0  0  0  0  0  0  0  0
   39.9730   34.5050   40.2210 C   0  0  0  0  0  0  0  0  0  0  0  0
   40.9230   34.1090   39.2720 C   0  0  0  0  0  0  0  0  0  0  0  0
   41.6260   35.0630   38.6550 N   0  0  0  0  0  0  0  0  0  0  0  0
   42.5510   34.7030   37.7230 C   0  0  0  0  0  0  0  0  0  0  0  0
   42.7050   33.3480   37.4720 C   0  0  0  0  0  0  0  0  0  0  0  0
   41.9910   32.3570   38.1000 C   0  0  0  0  0  0  0  0  0  0  0  0
   41.0540   32.7570   39.0450 C   0  0  0  0  0  0  0  0  0  0  0  0
   40.2860   31.8170   39.7180 C   0  0  0  0  0  0  0  0  0  0  0  0
   38.4670   33.8270   41.6370 H   0  0  0  0  0  0  0  0  0  0  0  0
   39.8310   35.5680   40.4440 H   0  0  0  0  0  0  0  0  0  0  0  0
   43.1570   35.4250   37.1870 H   0  0  0  0  0  0  0  0  0  0  0  0
   43.4490   33.0560   36.7220 H   0  0  0  0  0  0  0  0  0  0  0  0
   42.1450   31.2980   37.8690 H   0  0  0  0  0  0  0  0  0  0  0  0
   40.4720   30.7850   39.4570 H   0  0  0  0  0  0  0  0  0  0  0  0
   36.7240   27.8610   43.1230 C   0  0  0  0  0  0  0  0  0  0  0  0
   36.2160   28.1880   44.0720 H   0  0  0  0  0  0  0  0  0  0  0  0
   35.9070   27.4810   42.4950 H   0  0  0  0  0  0  0  0  0  0  0  0
   37.7630   26.7880   43.4610 C   0  0  0  0  0  0  0  0  0  0  0  0
   37.6460   26.4580   44.5150 H   0  0  0  0  0  0  0  0  0  0  0  0
   38.7410   27.3780   43.4410 H   0  0  0  0  0  0  0  0  0  0  0  0
   39.1060   25.2800   42.0530 C   0  0  0  0  0  0  0  0  0  0  0  0
   37.8390   25.6940   42.4920 C   0  0  0  0  0  0  0  0  0  0  0  0
   36.7540   25.0140   41.9860 C   0  0  0  0  0  0  0  0  0  0  0  0
   35.7610   25.2900   42.2950 H   0  0  0  0  0  0  0  0  0  0  0  0
   36.7940   23.9520   41.0780 C   0  0  0  0  0  0  0  0  0  0  0  0
   35.8890   23.4770   40.7390 H   0  0  0  0  0  0  0  0  0  0  0  0
   38.0590   23.5500   40.6490 C   0  0  0  0  0  3  0  0  0  0  0  0
   39.1570   24.2160   41.1420 C   0  0  0  0  0  3  0  0  0  0  0  0
   40.3370   26.6560   43.7750 H   0  0  0  0  0  0  0  0  0  0  0  0
   40.5960   26.0090   42.5710 S   0  0  0  0  0  0  0  0  0  0  0  0
   41.6750   25.0210   42.8920 O   0  0  0  0  0  0  0  0  0  0  0  0
   41.1080   26.9820   41.5700 O   0  0  0  0  0  0  0  0  0  0  0  0
  1  2  2  0  0  0  0
  1  6  1  0  0  0  0
  2  3  1  0  0  0  0
  3  8  1  0  0  0  0
  3  4  2  0  0  0  0
  5  4  1  0  0  0  0
  5 27  1  0  0  0  0
  6  5  2  0  0  0  0
  7  9  1  0  0  0  0
  7  1  1  0  0  0  0
 10  7  1  0  0  0  0
 11 12  1  0  0  0  0
 11  2  1  0  0  0  0
 12 21  1  0  0  0  0
 13 22  1  0  0  0  0
 13 12  2  0  0  0  0
 14 13  1  0  0  0  0
 15 14  2  0  0  0  0
 16 15  1  0  0  0  0
 17 16  2  0  0  0  0
 17 18  1  0  0  0  0
 18 19  2  0  0  0  0
 19 14  1  0  0  0  0
 19 20  1  0  0  0  0
 20 11  2  0  0  0  0
 23 16  1  0  0  0  0
 24 17  1  0  0  0  0
 25 18  1  0  0  0  0
 26 20  1  0  0  0  0
 27 30  1  0  0  0  0
 27 28  1  0  0  0  0
 29 27  1  0  0  0  0
 30 31  1  0  0  0  0
 32 30  1  0  0  0  0
 33 34  1  0  0  0  0
 33 42  1  0  0  0  0
 34 30  1  0  0  0  0
 35 36  1  0  0  0  0
 35 34  2  0  0  0  0
 37 35  1  0  0  0  0
 38 37  1  0  0  0  0
 39 37  2  0  0  0  0
 39 40  1  0  0  0  0
 40 33  2  0  0  0  0
 42 43  2  0  0  0  0
 42 41  1  0  0  0  0
 44 42  2  0  0  0  0
M  END
>  <minimizedAffinity>
-6.5240674

$$$$

 OpenBabel03242522483D

 44 47  0  0  0  0  0  0  0  0999 V2000
   36.0630   30.5180   39.9700 C   0  0  0  0  0  0  0  0  0  0  0  0
   36.9600   31.1650   39.0960 C   0  0  0  0  0  0  0  0  0  0  0  0
   37.1390   30.6300   37.8010 C   0  0  0  0  0  0  0  0  0  0  0  0
   36.4200   29.5140   37.4900 N   0  0  0  0  0  0  0  0  0  0  0  0
   35.5670   28.9210   38.3590 C   0  0  0  0  0  0  0  0  0  0  0  0
   35.4080   29.4290   39.5690 N   0  0  0  0  0  0  0  0  0  0  0  0
   35.8850   31.0610   41.2670 N   0  0  0  0  0  0  0  0  0  0  0  0
   37.8150   31.0880   37.0910 H   0  0  0  0  0  0  0  0  0  0  0  0
   36.6400   30.8860   41.9940 H   0  0  0  0  0  0  0  0  0  0  0  0
   35.1250   31.6380   41.7180 H   0  0  0  0  0  0  0  0  0  0  0  0
   37.6930   32.3580   39.4520 C   0  0  0  0  0  0  0  0  0  0  0  0
   37.2390   33.6530   39.5370 C   0  0  0  0  0  0  0  0  0  0  0  0
   38.0660   34.6900   39.8990 C   0  0  0  0  0  0  0  0  0  0  0  0
   39.4160   34.4640   40.1960 C   0  0  0  0  0  0  0  0  0  0  0  0
   40.1660   35.5160   40.5350 N   0  0  0  0  0  0  0  0  0  0  0  0
   41.4830   35.3220   40.8230 C   0  0  0  0  0  0  0  0  0  0  0  0
   41.9650   34.0240   40.7430 C   0  0  0  0  0  0  0  0  0  0  0  0
   41.2050   32.9340   40.3980 C   0  0  0  0  0  0  0  0  0  0  0  0
   39.8650   33.1650   40.1090 C   0  0  0  0  0  0  0  0  0  0  0  0
   39.0310   32.1170   39.7440 C   0  0  0  0  0  0  0  0  0  0  0  0
   36.1860   33.7730   39.3020 H   0  0  0  0  0  0  0  0  0  0  0  0
   37.6550   35.7040   39.9570 H   0  0  0  0  0  0  0  0  0  0  0  0
   42.1480   36.1290   41.1070 H   0  0  0  0  0  0  0  0  0  0  0  0
   43.0250   33.8650   40.9730 H   0  0  0  0  0  0  0  0  0  0  0  0
   41.6280   31.9250   40.3450 H   0  0  0  0  0  0  0  0  0  0  0  0
   39.4940   31.1420   39.7060 H   0  0  0  0  0  0  0  0  0  0  0  0
   34.8650   27.7170   37.8830 C   0  0  0  0  0  0  0  0  0  0  0  0
   34.1250   27.3620   38.6530 H   0  0  0  0  0  0  0  0  0  0  0  0
   34.2460   27.9900   37.0180 H   0  0  0  0  0  0  0  0  0  0  0  0
   35.8460   26.5820   37.5780 C   0  0  0  0  0  0  0  0  0  0  0  0
   36.8820   26.8910   37.8320 H   0  0  0  0  0  0  0  0  0  0  0  0
   35.8220   26.5360   36.4370 H   0  0  0  0  0  0  0  0  0  0  0  0
   36.1340   24.8020   39.2540 C   0  0  0  0  0  0  0  0  0  0  0  0
   35.4550   25.2810   38.1230 C   0  0  0  0  0  0  0  0  0  0  0  0
   34.4480   24.4890   37.6220 C   0  0  0  0  0  0  0  0  0  0  0  0
   33.8950   24.8130   36.7570 H   0  0  0  0  0  0  0  0  0  0  0  0
   34.0360   23.2530   38.1310 C   0  0  0  0  0  0  0  0  0  0  0  0
   33.2330   22.7030   37.6710 H   0  0  0  0  0  0  0  0  0  0  0  0
   34.7180   22.7870   39.2540 C   0  0  0  0  0  3  0  0  0  0  0  0
   35.7290   23.5640   39.7730 C   0  0  0  0  0  3  0  0  0  0  0  0
   38.1650   26.2850   39.0370 H   0  0  0  0  0  0  0  0  0  0  0  0
   37.4340   25.6500   40.0350 S   0  0  0  0  0  0  0  0  0  0  0  0
   36.9800   26.7560   40.9390 O   0  0  0  0  0  0  0  0  0  0  0  0
   38.3110   24.7250   40.7990 O   0  0  0  0  0  0  0  0  0  0  0  0
  1  7  1  0  0  0  0
  2 11  1  0  0  0  0
  2  1  2  0  0  0  0
  3  2  1  0  0  0  0
  4  3  2  0  0  0  0
  4  5  1  0  0  0  0
  5  6  2  0  0  0  0
  6  1  1  0  0  0  0
  7 10  1  0  0  0  0
  7  9  1  0  0  0  0
  8  3  1  0  0  0  0
 11 12  2  0  0  0  0
 11 20  1  0  0  0  0
 12 13  1  0  0  0  0
 13 22  1  0  0  0  0
 13 14  2  0  0  0  0
 14 15  1  0  0  0  0
 15 16  2  0  0  0  0
 16 23  1  0  0  0  0
 17 16  1  0  0  0  0
 17 24  1  0  0  0  0
 18 17  2  0  0  0  0
 19 14  1  0  0  0  0
 19 18  1  0  0  0  0
 20 19  2  0  0  0  0
 21 12  1  0  0  0  0
 25 18  1  0  0  0  0
 26 20  1  0  0  0  0
 27  5  1  0  0  0  0
 27 28  1  0  0  0  0
 29 27  1  0  0  0  0
 30 31  1  0  0  0  0
 30 27  1  0  0  0  0
 30 34  1  0  0  0  0
 32 30  1  0  0  0  0
 33 40  1  0  0  0  0
 33 42  1  0  0  0  0
 34 33  2  0  0  0  0
 35 34  1  0  0  0  0
 35 37  2  0  0  0  0
 36 35  1  0  0  0  0
 37 39  1  0  0  0  0
 38 37  1  0  0  0  0
 39 40  2  0  0  0  0
 41 42  1  0  0  0  0
 42 44  2  0  0  0  0
 42 43  2  0  0  0  0
M  END
>  <minimizedAffinity>
-6.47309971

$$$$

 OpenBabel03242522483D

 44 47  0  0  0  0  0  0  0  0999 V2000
   38.8040   31.9140   37.9440 C   0  0  0  0  0  0  0  0  0  0  0  0
   38.7180   32.4360   39.2510 C   0  0  0  0  0  0  0  0  0  0  0  0
   37.6450   32.0200   40.0700 C   0  0  0  0  0  0  0  0  0  0  0  0
   36.7630   31.1320   39.5290 N   0  0  0  0  0  0  0  0  0  0  0  0
   36.8810   30.6540   38.2670 C   0  0  0  0  0  0  0  0  0  0  0  0
   37.8880   31.0510   37.5080 N   0  0  0  0  0  0  0  0  0  0  0  0
   39.8840   32.3340   37.1270 N   0  0  0  0  0  0  0  0  0  0  0  0
   37.5320   32.3890   41.0820 H   0  0  0  0  0  0  0  0  0  0  0  0
   39.8350   33.2990   36.6850 H   0  0  0  0  0  0  0  0  0  0  0  0
   40.7900   31.8830   36.8300 H   0  0  0  0  0  0  0  0  0  0  0  0
   39.6800   33.3630   39.8010 C   0  0  0  0  0  0  0  0  0  0  0  0
   39.6610   34.7380   39.7750 C   0  0  0  0  0  0  0  0  0  0  0  0
   40.6570   35.4880   40.3540 C   0  0  0  0  0  0  0  0  0  0  0  0
   41.7390   34.8740   40.9970 C   0  0  0  0  0  0  0  0  0  0  0  0
   42.6760   35.6610   41.5340 N   0  0  0  0  0  0  0  0  0  0  0  0
   43.7410   35.0870   42.1580 C   0  0  0  0  0  0  0  0  0  0  0  0
   43.7840   33.7010   42.1960 C   0  0  0  0  0  0  0  0  0  0  0  0
   42.8270   32.8810   41.6500 C   0  0  0  0  0  0  0  0  0  0  0  0
   41.7530   33.4970   41.0190 C   0  0  0  0  0  0  0  0  0  0  0  0
   40.7480   32.7390   40.4350 C   0  0  0  0  0  0  0  0  0  0  0  0
   38.7990   35.1630   39.2710 H   0  0  0  0  0  0  0  0  0  0  0  0
   40.5950   36.5820   40.3110 H   0  0  0  0  0  0  0  0  0  0  0  0
   44.5350   35.6650   42.6170 H   0  0  0  0  0  0  0  0  0  0  0  0
   44.6400   33.2360   42.6980 H   0  0  0  0  0  0  0  0  0  0  0  0
   42.9020   31.7890   41.7020 H   0  0  0  0  0  0  0  0  0  0  0  0
   40.8660   31.6680   40.5110 H   0  0  0  0  0  0  0  0  0  0  0  0
   35.8480   29.7050   37.8170 C   0  0  0  0  0  0  0  0  0  0  0  0
   34.9920   30.2540   37.3350 H   0  0  0  0  0  0  0  0  0  0  0  0
   36.2640   29.0900   37.0090 H   0  0  0  0  0  0  0  0  0  0  0  0
   35.3090   28.8720   38.9830 C   0  0  0  0  0  0  0  0  0  0  0  0
   34.1990   28.8900   38.9880 H   0  0  0  0  0  0  0  0  0  0  0  0
   35.6210   29.4900   39.8920 H   0  0  0  0  0  0  0  0  0  0  0  0
   36.5120   27.1690   40.2930 C   0  0  0  0  0  0  0  0  0  0  0  0
   35.8900   27.5330   39.0880 C   0  0  0  0  0  0  0  0  0  0  0  0
   35.8570   26.5800   38.0940 C   0  0  0  0  0  0  0  0  0  0  0  0
   35.3890   26.8090   37.1530 H   0  0  0  0  0  0  0  0  0  0  0  0
   36.3830   25.2870   38.1710 C   0  0  0  0  0  0  0  0  0  0  0  0
   36.3070   24.6070   37.3390 H   0  0  0  0  0  0  0  0  0  0  0  0
   36.9980   24.9370   39.3720 C   0  0  0  0  0  3  0  0  0  0  0  0
   37.0420   25.8740   40.3790 C   0  0  0  0  0  3  0  0  0  0  0  0
   35.6830   29.2080   41.5280 H   0  0  0  0  0  0  0  0  0  0  0  0
   36.6570   28.2260   41.6640 S   0  0  0  0  0  0  0  0  0  0  0  0
   36.3540   27.5650   42.9740 O   0  0  0  0  0  0  0  0  0  0  0  0
   38.0040   28.8510   41.7340 O   0  0  0  0  0  0  0  0  0  0  0  0
  1  2  1  0  0  0  0
  2 11  1  0  0  0  0
  2  3  2  0  0  0  0
  3  8  1  0  0  0  0
  4  3  1  0  0  0  0
  5  4  2  0  0  0  0
  6  1  2  0  0  0  0
  6  5  1  0  0  0  0
  7  1  1  0  0  0  0
  9  7  1  0  0  0  0
 10  7  1  0  0  0  0
 11 20  1  0  0  0  0
 12 11  2  0  0  0  0
 12 13  1  0  0  0  0
 13 14  2  0  0  0  0
 14 19  1  0  0  0  0
 14 15  1  0  0  0  0
 15 16  2  0  0  0  0
 16 17  1  0  0  0  0
 16 23  1  0  0  0  0
 17 24  1  0  0  0  0
 18 25  1  0  0  0  0
 18 17  2  0  0  0  0
 19 18  1  0  0  0  0
 20 26  1  0  0  0  0
 20 19  2  0  0  0  0
 21 12  1  0  0  0  0
 22 13  1  0  0  0  0
 27  5  1  0  0  0  0
 27 30  1  0  0  0  0
 28 27  1  0  0  0  0
 29 27  1  0  0  0  0
 30 31  1  0  0  0  0
 30 34  1  0  0  0  0
 30 32  1  0  0  0  0
 33 40  1  0  0  0  0
 33 42  1  0  0  0  0
 34 33  2  0  0  0  0
 35 37  2  0  0  0  0
 35 34  1  0  0  0  0
 36 35  1  0  0  0  0
 37 39  1  0  0  0  0
 38 37  1  0  0  0  0
 39 40  2  0  0  0  0
 41 42  1  0  0  0  0
 42 44  2  0  0  0  0
 42 43  2  0  0  0  0
M  END
>  <minimizedAffinity>
-6.44459581

$$$$

 OpenBabel03242522483D

 44 47  0  0  0  0  0  0  0  0999 V2000
   36.2550   30.1610   40.1670 C   0  0  0  0  0  0  0  0  0  0  0  0
   37.2680   30.7260   39.3670 C   0  0  0  0  0  0  0  0  0  0  0  0
   37.7640   29.9720   38.2800 C   0  0  0  0  0  0  0  0  0  0  0  0
   37.2170   28.7390   38.0840 N   0  0  0  0  0  0  0  0  0  0  0  0
   36.2430   28.2310   38.8770 C   0  0  0  0  0  0  0  0  0  0  0  0
   35.7870   28.9450   39.8920 N   0  0  0  0  0  0  0  0  0  0  0  0
   35.7590   30.9240   41.2540 N   0  0  0  0  0  0  0  0  0  0  0  0
   38.5420   30.3590   37.6340 H   0  0  0  0  0  0  0  0  0  0  0  0
   36.3500   30.9880   42.1350 H   0  0  0  0  0  0  0  0  0  0  0  0
   34.8780   31.4830   41.4100 H   0  0  0  0  0  0  0  0  0  0  0  0
   37.8150   32.0450   39.5910 C   0  0  0  0  0  0  0  0  0  0  0  0
   37.1840   33.2640   39.5010 C   0  0  0  0  0  0  0  0  0  0  0  0
   37.8440   34.4430   39.7540 C   0  0  0  0  0  0  0  0  0  0  0  0
   39.1970   34.4470   40.1140 C   0  0  0  0  0  0  0  0  0  0  0  0
   39.7800   35.6280   40.3390 N   0  0  0  0  0  0  0  0  0  0  0  0
   41.0970   35.6580   40.6850 C   0  0  0  0  0  0  0  0  0  0  0  0
   41.7560   34.4410   40.7810 C   0  0  0  0  0  0  0  0  0  0  0  0
   41.1680   33.2210   40.5540 C   0  0  0  0  0  0  0  0  0  0  0  0
   39.8230   33.2240   40.2020 C   0  0  0  0  0  0  0  0  0  0  0  0
   39.1580   32.0330   39.9470 C   0  0  0  0  0  0  0  0  0  0  0  0
   36.1360   33.2040   39.2250 H   0  0  0  0  0  0  0  0  0  0  0  0
   37.2960   35.3890   39.6730 H   0  0  0  0  0  0  0  0  0  0  0  0
   41.6310   36.5790   40.8850 H   0  0  0  0  0  0  0  0  0  0  0  0
   42.8160   34.4630   41.0590 H   0  0  0  0  0  0  0  0  0  0  0  0
   41.7280   32.2840   40.6390 H   0  0  0  0  0  0  0  0  0  0  0  0
   39.7510   31.1350   40.0440 H   0  0  0  0  0  0  0  0  0  0  0  0
   35.7540   26.8810   38.5470 C   0  0  0  0  0  0  0  0  0  0  0  0
   35.0140   26.5300   39.3180 H   0  0  0  0  0  0  0  0  0  0  0  0
   35.1700   26.9370   37.6180 H   0  0  0  0  0  0  0  0  0  0  0  0
   36.9040   25.8750   38.4670 C   0  0  0  0  0  0  0  0  0  0  0  0
   37.6930   26.2460   37.7800 H   0  0  0  0  0  0  0  0  0  0  0  0
   36.4240   24.9950   37.9190 H   0  0  0  0  0  0  0  0  0  0  0  0
   38.7610   25.6100   40.0610 C   0  0  0  0  0  0  0  0  0  0  0  0
   37.4020   25.4210   39.7660 C   0  0  0  0  0  0  0  0  0  0  0  0
   36.6300   24.8350   40.7440 C   0  0  0  0  0  0  0  0  0  0  0  0
   35.5810   24.6710   40.5680 H   0  0  0  0  0  0  0  0  0  0  0  0
   37.0700   24.4110   42.0010 C   0  0  0  0  0  0  0  0  0  0  0  0
   36.3900   23.9630   42.7050 H   0  0  0  0  0  0  0  0  0  0  0  0
   38.4220   24.6030   42.2830 C   0  0  0  0  0  3  0  0  0  0  0  0
   39.2130   25.1880   41.3190 C   0  0  0  0  0  3  0  0  0  0  0  0
   39.2280   27.3370   38.2810 H   0  0  0  0  0  0  0  0  0  0  0  0
   39.9000   26.3290   38.9630 S   0  0  0  0  0  0  0  0  0  0  0  0
   41.0430   27.0210   39.6410 O   0  0  0  0  0  0  0  0  0  0  0  0
   40.4360   25.3320   37.9990 O   0  0  0  0  0  0  0  0  0  0  0  0
  1  7  1  0  0  0  0
  2 11  1  0  0  0  0
  2  1  2  0  0  0  0
  3  2  1  0  0  0  0
  4  3  2  0  0  0  0
  4  5  1  0  0  0  0
  5  6  2  0  0  0  0
  6  1  1  0  0  0  0
  7 10  1  0  0  0  0
  7  9  1  0  0  0  0
  8  3  1  0  0  0  0
 11 20  1  0  0  0  0
 12 11  2  0  0  0  0
 12 13  1  0  0  0  0
 13 14  2  0  0  0  0
 14 19  1  0  0  0  0
 14 15  1  0  0  0  0
 15 16  2  0  0  0  0
 16 17  1  0  0  0  0
 16 23  1  0  0  0  0
 17 24  1  0  0  0  0
 18 25  1  0  0  0  0
 18 17  2  0  0  0  0
 19 18  1  0  0  0  0
 20 26  1  0  0  0  0
 20 19  2  0  0  0  0
 21 12  1  0  0  0  0
 22 13  1  0  0  0  0
 27  5  1  0  0  0  0
 27 28  1  0  0  0  0
 29 27  1  0  0  0  0
 30 27  1  0  0  0  0
 30 34  1  0  0  0  0
 31 30  1  0  0  0  0
 32 30  1  0  0  0  0
 33 40  1  0  0  0  0
 34 33  2  0  0  0  0
 34 35  1  0  0  0  0
 35 37  2  0  0  0  0
 36 35  1  0  0  0  0
 37 39  1  0  0  0  0
 37 38  1  0  0  0  0
 40 39  2  0  0  0  0
 41 42  1  0  0  0  0
 42 43  2  0  0  0  0
 42 33  1  0  0  0  0
 44 42  2  0  0  0  0
M  END
>  <minimizedAffinity>
-6.31890917

$$$$
