
 OpenBabel03242518023D

 40 42  0  0  0  0  0  0  0  0999 V2000
   46.2790   31.6560   45.5700 C   0  0  0  0  0  0  0  0  0  0  0  0
   46.0580   30.7090   44.9890 H   0  0  0  0  0  0  0  0  0  0  0  0
   45.3000   31.9700   45.9490 H   0  0  0  0  0  0  0  0  0  0  0  0
   47.3060   32.0730   47.8040 C   0  0  0  0  0  0  0  0  0  0  0  0
   47.2050   31.2890   46.6200 C   0  0  0  0  0  0  0  0  0  0  0  0
   48.0390   30.1700   46.5410 C   0  0  0  0  0  0  0  0  0  0  0  0
   48.8820   29.9010   47.5780 N   0  0  0  0  0  0  0  0  0  0  0  0
   48.9450   30.6610   48.6650 C   0  0  0  0  0  0  0  0  0  0  0  0
   48.1710   31.7320   48.7810 N   0  0  0  0  0  0  0  0  0  0  0  0
   46.6960   32.9590   47.9490 H   0  0  0  0  0  0  0  0  0  0  0  0
   48.0110   29.5340   45.6710 H   0  0  0  0  0  0  0  0  0  0  0  0
   50.3670   29.0510   49.9290 C   0  0  0  0  0  0  0  0  0  0  0  0
   49.8680   30.3210   49.7410 C   0  0  0  0  0  0  0  0  0  0  0  0
   50.2920   31.2820   50.6400 C   0  0  0  0  0  0  0  0  0  0  0  0
   49.9520   32.3150   50.5700 H   0  0  0  0  0  0  0  0  0  0  0  0
   51.1640   31.0340   51.6800 C   0  0  0  0  0  0  0  0  0  0  0  0
   51.4940   31.7870   52.3810 H   0  0  0  0  0  0  0  0  0  0  0  0
   51.6570   29.7580   51.8600 C   0  0  0  0  0  0  0  0  0  0  0  0
   51.2350   28.7970   50.9650 C   0  0  0  0  0  0  0  0  0  0  0  0
   48.9020   28.1410   47.9710 H   0  0  0  0  0  0  0  0  0  0  0  0
   49.8860   27.7700   48.8420 S   0  0  0  0  0  0  0  0  0  0  0  0
   49.5780   26.4820   49.5680 O   0  0  0  0  0  0  0  0  0  0  0  0
   51.0660   27.4200   47.9440 O   0  0  0  0  0  0  0  0  0  0  0  0
   46.9660   32.6740   44.6810 C   0  0  0  0  0  0  0  0  0  0  0  0
   47.2520   32.1460   43.7500 H   0  0  0  0  0  0  0  0  0  0  0  0
   47.9550   33.0060   45.1170 H   0  0  0  0  0  0  0  0  0  0  0  0
   46.3860   34.6010   43.2730 C   0  0  0  0  0  0  0  0  0  0  0  0
   46.1960   33.8990   44.4450 C   0  0  0  0  0  0  0  0  0  0  0  0
   45.3090   34.2870   45.4120 C   0  0  0  0  0  0  0  0  0  0  0  0
   44.5700   35.4350   45.2050 C   0  0  0  0  0  0  0  0  0  0  0  0
   44.6980   36.1880   44.0720 C   0  0  0  0  0  0  0  0  0  0  0  0
   45.6190   35.7340   43.1310 C   0  0  0  0  0  0  0  0  0  0  0  0
   45.0960   33.8210   46.3380 H   0  0  0  0  0  0  0  0  0  0  0  0
   43.8390   35.8230   45.9180 H   0  0  0  0  0  0  0  0  0  0  0  0
   44.1510   37.0940   43.8490 H   0  0  0  0  0  0  0  0  0  0  0  0
   45.7390   36.3180   42.2200 H   0  0  0  0  0  0  0  0  0  0  0  0
   47.5130   34.1440   42.0130 S   0  0  0  0  0  0  0  0  0  0  0  0
   48.7800   34.9730   42.0520 O   0  0  0  0  0  0  0  0  0  0  0  0
   46.8950   34.4660   40.6730 O   0  0  0  0  0  0  0  0  0  0  0  0
   47.8030   32.8260   41.9870 H   0  0  0  0  0  0  0  0  0  0  0  0
  1  3  1  0  0  0  0
  1  5  1  0  0  0  0
  2  1  1  0  0  0  0
  4 10  1  0  0  0  0
  4  9  1  0  0  0  0
  5  4  2  0  0  0  0
  6  5  1  0  0  0  0
  6  7  2  0  0  0  0
  7  8  1  0  0  0  0
  8  9  2  0  0  0  0
  8 13  1  0  0  0  0
 11  6  1  0  0  0  0
 12 19  1  0  0  0  0
 13 12  2  0  0  0  0
 13 14  1  0  0  0  0
 14 16  2  0  0  0  0
 15 14  1  0  0  0  0
 16 18  1  0  0  0  0
 16 17  1  0  0  0  0
 19 18  2  0  0  0  0
 20 21  1  0  0  0  0
 21 22  2  0  0  0  0
 21 12  1  0  0  0  0
 23 21  2  0  0  0  0
 24 26  1  0  0  0  0
 24  1  1  0  0  0  0
 25 24  1  0  0  0  0
 27 28  1  0  0  0  0
 28 24  1  0  0  0  0
 28 29  2  0  0  0  0
 29 33  1  0  0  0  0
 30 29  1  0  0  0  0
 30 34  1  0  0  0  0
 31 30  2  0  0  0  0
 32 27  2  0  0  0  0
 32 31  1  0  0  0  0
 35 31  1  0  0  0  0
 36 32  1  0  0  0  0
 37 38  2  0  0  0  0
 37 27  1  0  0  0  0
 39 37  2  0  0  0  0
 40 37  1  0  0  0  0
M  END
>  <minimizedAffinity>
-5.80315208

>  <minimizedRMSD>
0.518945932

$$$$
