
 OpenBabel03242517483D

 46 49  0  0  0  0  0  0  0  0999 V2000
   38.5670   31.7340   41.2520 C   0  0  0  0  0  0  0  0  0  0  0  0
   39.9460   31.6640   41.0330 C   0  0  0  0  0  0  0  0  0  0  0  0
   40.4690   30.4320   40.6620 C   0  0  0  0  0  0  0  0  0  0  0  0
   39.6320   29.3810   40.5340 N   0  0  0  0  0  0  0  0  0  0  0  0
   38.2910   29.4940   40.7570 C   0  0  0  0  0  0  0  0  0  0  0  0
   37.7450   30.6500   41.1130 N   0  0  0  0  0  0  0  0  0  0  0  0
   38.1380   32.6720   41.5380 H   0  0  0  0  0  0  0  0  0  0  0  0
   41.5250   30.3330   40.4840 H   0  0  0  0  0  0  0  0  0  0  0  0
   37.4730   28.2640   40.5800 C   0  0  0  0  0  0  0  0  0  0  0  0
   37.2950   27.8950   41.6330 H   0  0  0  0  0  0  0  0  0  0  0  0
   38.0210   27.4620   40.0920 H   0  0  0  0  0  0  0  0  0  0  0  0
   36.1390   28.5920   39.9170 C   0  0  0  0  0  0  0  0  0  0  0  0
   35.3810   28.0270   40.5310 H   0  0  0  0  0  0  0  0  0  0  0  0
   35.8430   29.6330   40.0190 H   0  0  0  0  0  0  0  0  0  0  0  0
   34.8060   27.5030   38.2550 C   0  0  0  0  0  0  0  0  0  0  0  0
   36.0460   28.0180   38.5630 C   0  0  0  0  0  0  0  0  0  0  0  0
   37.0720   27.9800   37.6380 C   0  0  0  0  0  0  0  0  0  0  0  0
   38.0160   28.4140   37.9840 H   0  0  0  0  0  0  0  0  0  0  0  0
   36.9320   27.4360   36.3760 C   0  0  0  0  0  0  0  0  0  0  0  0
   37.7700   27.4320   35.6940 H   0  0  0  0  0  0  0  0  0  0  0  0
   35.6890   26.9150   36.0580 C   0  0  0  0  0  0  0  0  0  0  0  0
   34.6720   26.9540   36.9740 C   0  0  0  0  0  0  0  0  0  0  0  0
   32.3700   26.9420   38.3720 H   0  0  0  0  0  0  0  0  0  0  0  0
   33.3760   27.4200   39.2110 S   0  0  0  0  0  0  0  0  0  0  0  0
   33.4110   26.4750   40.3490 O   0  0  0  0  0  0  0  0  0  0  0  0
   32.8710   28.7900   39.6300 O   0  0  0  0  0  0  0  0  0  0  0  0
   40.9750   33.0840   41.2200 S   0  0  0  0  0  0  0  0  0  0  0  0
   40.9110   34.0830   39.7520 C   0  0  0  0  0  0  0  0  0  0  0  0
   39.8120   34.1200   38.9060 C   0  0  0  0  0  0  0  0  0  0  0  0
   39.8330   34.9330   37.7660 C   0  0  0  0  0  0  0  0  0  0  0  0
   40.9340   35.7010   37.4690 C   0  0  0  0  0  0  0  0  0  0  0  0
   42.0130   35.6500   38.3210 C   0  0  0  0  0  0  0  0  0  0  0  0
   42.0240   34.8570   39.4560 C   0  0  0  0  0  0  0  0  0  0  0  0
   38.9450   33.5110   39.1480 H   0  0  0  0  0  0  0  0  0  0  0  0
   38.9640   34.9460   37.1200 H   0  0  0  0  0  0  0  0  0  0  0  0
   40.9350   36.3230   36.5840 H   0  0  0  0  0  0  0  0  0  0  0  0
   42.9170   36.2370   38.1380 H   0  0  0  0  0  0  0  0  0  0  0  0
   43.1760   34.8250   40.3340 C   0  0  0  0  0  0  0  0  0  0  0  0
   44.2600   34.0210   40.1700 C   0  0  0  0  0  0  0  0  0  0  0  0
   45.3610   34.0040   41.0290 C   0  0  0  0  0  0  0  0  0  0  0  0
   45.3370   34.8440   42.0860 N   0  0  0  0  0  0  0  0  0  0  0  0
   44.2690   35.6450   42.2600 C   0  0  0  0  0  0  0  0  0  0  0  0
   43.2220   35.6430   41.4190 N   0  0  0  0  0  0  0  0  0  0  0  0
   44.2920   33.3370   39.3200 H   0  0  0  0  0  0  0  0  0  0  0  0
   46.1940   33.3420   40.8450 H   0  0  0  0  0  0  0  0  0  0  0  0
   44.2930   36.3060   43.1260 H   0  0  0  0  0  0  0  0  0  0  0  0
  1  7  1  0  0  0  0
  2 27  1  0  0  0  0
  2  1  2  0  0  0  0
  3  2  1  0  0  0  0
  4  3  2  0  0  0  0
  4  5  1  0  0  0  0
  5  6  2  0  0  0  0
  6  1  1  0  0  0  0
  8  3  1  0  0  0  0
  9  5  1  0  0  0  0
  9 10  1  0  0  0  0
 11  9  1  0  0  0  0
 12 14  1  0  0  0  0
 12 13  1  0  0  0  0
 12  9  1  0  0  0  0
 15 16  1  0  0  0  0
 15 24  1  0  0  0  0
 16 12  1  0  0  0  0
 17 18  1  0  0  0  0
 17 16  2  0  0  0  0
 19 17  1  0  0  0  0
 20 19  1  0  0  0  0
 21 19  2  0  0  0  0
 21 22  1  0  0  0  0
 22 15  2  0  0  0  0
 23 24  1  0  0  0  0
 24 26  2  0  0  0  0
 24 25  2  0  0  0  0
 28 27  1  0  0  0  0
 29 34  1  0  0  0  0
 29 28  2  0  0  0  0
 30 29  1  0  0  0  0
 31 30  2  0  0  0  0
 31 32  1  0  0  0  0
 32 33  2  0  0  0  0
 33 28  1  0  0  0  0
 33 38  1  0  0  0  0
 35 30  1  0  0  0  0
 36 31  1  0  0  0  0
 37 32  1  0  0  0  0
 38 43  1  0  0  0  0
 39 38  2  0  0  0  0
 39 40  1  0  0  0  0
 40 41  2  0  0  0  0
 41 42  1  0  0  0  0
 42 46  1  0  0  0  0
 43 42  2  0  0  0  0
 44 39  1  0  0  0  0
 45 40  1  0  0  0  0
M  END
>  <minimizedAffinity>
-5.63069439

>  <minimizedRMSD>
1.63540041

$$$$
