
 OpenBabel03252508363D

 34 36  0  0  0  0  0  0  0  0999 V2000
   46.5770   32.5040   41.1620 C   0  0  0  0  0  0  0  0  0  0  0  0
   45.8280   32.0220   42.2120 C   0  0  0  0  0  0  0  0  0  0  0  0
   45.2600   30.7790   42.0560 C   0  0  0  0  0  0  0  0  0  0  0  0
   45.4140   30.0130   40.9080 C   0  0  0  0  0  0  0  0  0  0  0  0
   46.1700   30.5340   39.8880 C   0  0  0  0  0  0  0  0  0  0  0  0
   46.7580   31.7810   40.0050 C   0  0  0  0  0  0  0  0  0  0  0  0
   44.6700   30.4110   42.8960 H   0  0  0  0  0  0  0  0  0  0  0  0
   44.9400   29.0570   40.8660 H   0  0  0  0  0  0  0  0  0  0  0  0
   46.2890   29.9360   38.9910 H   0  0  0  0  0  0  0  0  0  0  0  0
   44.7680   34.7620   44.5620 C   0  0  0  0  0  0  0  0  0  0  0  0
   44.8690   33.9810   43.4090 C   0  0  0  0  0  0  0  0  0  0  0  0
   45.6970   32.8580   43.3900 C   0  0  0  0  0  0  0  0  0  0  0  0
   46.3690   32.5940   44.5360 N   0  0  0  0  0  0  0  0  0  0  0  0
   46.2590   33.3520   45.6310 C   0  0  0  0  0  0  0  0  0  0  0  0
   45.4610   34.4340   45.6470 N   0  0  0  0  0  0  0  0  0  0  0  0
   43.9100   35.8950   44.5260 N   0  0  0  0  0  0  0  0  0  0  0  0
   44.3180   34.2110   42.4940 H   0  0  0  0  0  0  0  0  0  0  0  0
   46.8490   33.0460   46.5020 H   0  0  0  0  0  0  0  0  0  0  0  0
   43.0920   35.8690   45.1760 H   0  0  0  0  0  0  0  0  0  0  0  0
   44.0380   36.7200   43.9150 H   0  0  0  0  0  0  0  0  0  0  0  0
   48.8950   32.0610   38.7050 C   0  0  0  0  0  0  0  0  0  0  0  0
   47.5620   32.3390   38.9230 C   0  0  0  0  0  0  0  0  0  0  0  0
   46.8690   33.2080   38.0910 C   0  0  0  0  0  0  0  0  0  0  0  0
   45.8330   33.4940   38.1720 H   0  0  0  0  0  0  0  0  0  0  0  0
   47.5460   33.7880   37.0370 C   0  0  0  0  0  0  0  0  0  0  0  0
   47.0440   34.4830   36.3490 H   0  0  0  0  0  0  0  0  0  0  0  0
   48.8960   33.5170   36.8020 C   0  0  0  0  0  3  0  0  0  0  0  0
   49.5720   32.6400   37.6520 C   0  0  0  0  0  3  0  0  0  0  0  0
   51.0200   30.8400   39.4770 H   0  0  0  0  0  0  0  0  0  0  0  0
   49.6880   30.9480   39.8120 S   0  0  0  0  0  0  0  0  0  0  0  0
   49.0860   29.5830   39.7330 O   0  0  0  0  0  0  0  0  0  0  0  0
   49.6570   31.4940   41.2290 O   0  0  0  0  0  0  0  0  0  0  0  0
   47.7220   34.8560   41.3130 N   0  0  0  0  0  0  0  0  0  0  0  0
   47.2060   33.7990   41.2470 C   0  0  0  0  0  0  0  0  0  0  0  0
  1 34  1  0  0  0  0
  1  2  1  0  0  0  0
  2 12  1  0  0  0  0
  3  2  2  0  0  0  0
  3  7  1  0  0  0  0
  4  3  1  0  0  0  0
  5  6  1  0  0  0  0
  5  4  2  0  0  0  0
  6  1  2  0  0  0  0
  8  4  1  0  0  0  0
  9  5  1  0  0  0  0
 10 15  1  0  0  0  0
 11 10  2  0  0  0  0
 12 11  1  0  0  0  0
 12 13  2  0  0  0  0
 13 14  1  0  0  0  0
 14 15  2  0  0  0  0
 14 18  1  0  0  0  0
 16 10  1  0  0  0  0
 16 19  1  0  0  0  0
 17 11  1  0  0  0  0
 20 16  1  0  0  0  0
 21 22  1  0  0  0  0
 21 30  1  0  0  0  0
 22  6  1  0  0  0  0
 23 24  1  0  0  0  0
 23 22  2  0  0  0  0
 25 23  1  0  0  0  0
 26 25  1  0  0  0  0
 27 25  2  0  0  0  0
 27 28  1  0  0  0  0
 28 21  2  0  0  0  0
 29 30  1  0  0  0  0
 30 32  2  0  0  0  0
 31 30  2  0  0  0  0
 34 33  3  0  0  0  0
M  END
>  <minimizedAffinity>
-4.18372631

>  <minimizedRMSD>
3.22093773

$$$$
