
 OpenBabel03252505513D

 28 29  0  0  0  0  0  0  0  0999 V2000
   46.2070   32.5410   48.5920 C   0  0  0  0  0  0  0  0  0  0  0  0
   45.6470   32.3870   49.5340 H   0  0  0  0  0  0  0  0  0  0  0  0
   46.7190   33.5460   48.5930 H   0  0  0  0  0  0  0  0  0  0  0  0
   46.9150   30.2740   48.0410 C   0  0  0  0  0  0  0  0  0  0  0  0
   47.2900   31.5310   48.5030 C   0  0  0  0  0  0  0  0  0  0  0  0
   48.6040   31.7650   48.8500 C   0  0  0  0  0  0  0  0  0  0  0  0
   48.8070   32.7890   49.2030 H   0  0  0  0  0  0  0  0  0  0  0  0
   49.6000   30.8160   48.7690 C   0  0  0  0  0  0  0  0  0  0  0  0
   50.6160   31.0520   49.0540 H   0  0  0  0  0  0  0  0  0  0  0  0
   49.2520   29.5430   48.3080 C   0  0  0  0  0  3  0  0  0  0  0  0
   47.9320   29.3430   47.9700 C   0  0  0  0  0  3  0  0  0  0  0  0
   44.4130   30.6700   47.9250 H   0  0  0  0  0  0  0  0  0  0  0  0
   45.3380   29.7640   47.5500 S   0  0  0  0  0  0  0  0  0  0  0  0
   44.9510   28.4480   48.1680 O   0  0  0  0  0  0  0  0  0  0  0  0
   45.2930   29.5860   46.0370 O   0  0  0  0  0  0  0  0  0  0  0  0
   45.2760   32.4550   47.5300 O   0  0  0  0  0  0  0  0  0  0  0  0
   44.6630   35.2900   45.4690 C   0  0  0  0  0  0  0  0  0  0  0  0
   45.3900   35.0240   44.3140 C   0  0  0  0  0  0  0  0  0  0  0  0
   46.1130   33.8170   44.2620 C   0  0  0  0  0  0  0  0  0  0  0  0
   46.0680   32.9800   45.3250 N   0  0  0  0  0  0  0  0  0  0  0  0
   45.3420   33.2870   46.4270 C   0  0  0  0  0  0  0  0  0  0  0  0
   44.6510   34.4230   46.4990 N   0  0  0  0  0  0  0  0  0  0  0  0
   44.1040   36.1930   45.5440 H   0  0  0  0  0  0  0  0  0  0  0  0
   46.6740   33.6250   43.3580 H   0  0  0  0  0  0  0  0  0  0  0  0
   45.3570   36.0340   43.2090 C   0  0  0  0  0  0  0  0  0  0  0  0
   45.1450   37.2400   43.8410 F   0  0  0  0  0  0  0  0  0  0  0  0
   44.2940   35.7010   42.3980 F   0  0  0  0  0  0  0  0  0  0  0  0
   46.5560   35.9710   42.5330 F   0  0  0  0  0  0  0  0  0  0  0  0
  1  3  1  0  0  0  0
  1  2  1  0  0  0  0
  4  5  1  0  0  0  0
  5  1  1  0  0  0  0
  5  6  2  0  0  0  0
  6  7  1  0  0  0  0
  8  6  1  0  0  0  0
  8  9  1  0  0  0  0
 10  8  2  0  0  0  0
 11  4  2  0  0  0  0
 11 10  1  0  0  0  0
 13 12  1  0  0  0  0
 13  4  1  0  0  0  0
 13 14  2  0  0  0  0
 15 13  2  0  0  0  0
 16  1  1  0  0  0  0
 17 23  1  0  0  0  0
 17 22  1  0  0  0  0
 18 17  2  0  0  0  0
 19 18  1  0  0  0  0
 19 20  2  0  0  0  0
 20 21  1  0  0  0  0
 21 22  2  0  0  0  0
 21 16  1  0  0  0  0
 24 19  1  0  0  0  0
 25 26  1  0  0  0  0
 25 18  1  0  0  0  0
 27 25  1  0  0  0  0
 28 25  1  0  0  0  0
M  END
>  <minimizedAffinity>
-5.02350092

>  <minimizedRMSD>
1.55691373

$$$$
