
 OpenBabel03252502253D

 37 39  0  0  1  0  0  0  0  0999 V2000
   37.0700   28.2000   40.8760 N   0  0  0  0  0  0  0  0  0  0  0  0
   37.1200   26.8750   41.4680 C   0  0  0  0  0  0  0  0  0  0  0  0
   36.5720   27.0880   42.8930 C   0  0  0  0  0  0  0  0  0  0  0  0
   37.5160   27.9420   43.6790 C   0  0  0  0  0  0  0  0  0  0  0  0
   38.0940   29.0870   42.9180 C   0  0  0  0  0  0  0  0  0  0  0  0
   37.4540   29.3800   41.6070 C   0  0  1  0  0  0  0  0  0  0  0  0
   38.1800   26.5960   41.6120 H   0  0  0  0  0  0  0  0  0  0  0  0
   36.5200   26.1500   40.9190 H   0  0  0  0  0  0  0  0  0  0  0  0
   36.5280   26.0780   43.3600 H   0  0  0  0  0  0  0  0  0  0  0  0
   35.5440   27.4870   42.8420 H   0  0  0  0  0  0  0  0  0  0  0  0
   36.9400   28.2910   44.5810 H   0  0  0  0  0  0  0  0  0  0  0  0
   38.2910   27.2660   44.1120 H   0  0  0  0  0  0  0  0  0  0  0  0
   39.2020   28.9190   42.8640 H   0  0  0  0  0  0  0  0  0  0  0  0
   37.9880   29.9960   43.5450 H   0  0  0  0  0  0  0  0  0  0  0  0
   36.5320   29.9740   41.7630 H   0  0  0  0  0  0  0  0  0  0  0  0
   35.0890   29.1620   37.8560 C   0  0  0  0  0  0  0  0  0  0  0  0
   35.4240   29.0500   39.2180 C   0  0  0  0  0  0  0  0  0  0  0  0
   36.6330   28.3720   39.5250 C   0  0  0  0  0  0  0  0  0  0  0  0
   37.3800   27.8810   38.4970 N   0  0  0  0  0  0  0  0  0  0  0  0
   36.9970   28.0260   37.1970 C   0  0  0  0  0  0  0  0  0  0  0  0
   35.8470   28.6700   36.8930 N   0  0  0  0  0  0  0  0  0  0  0  0
   34.1630   29.6820   37.6480 H   0  0  0  0  0  0  0  0  0  0  0  0
   34.8240   29.4430   40.0300 H   0  0  0  0  0  0  0  0  0  0  0  0
   37.7020   27.5790   36.5050 H   0  0  0  0  0  0  0  0  0  0  0  0
   38.3390   30.1230   40.8330 O   0  0  0  0  0  0  0  0  0  0  0  0
   39.5020   32.0840   40.7930 C   0  0  0  0  0  0  0  0  0  0  0  0
   38.2830   31.4510   40.5200 C   0  0  0  0  0  0  0  0  0  0  0  0
   37.2480   32.2020   40.0030 C   0  0  0  0  0  0  0  0  0  0  0  0
   36.3500   31.6280   39.8260 H   0  0  0  0  0  0  0  0  0  0  0  0
   37.3760   33.5510   39.7480 C   0  0  0  0  0  0  0  0  0  0  0  0
   36.5120   34.0590   39.3430 H   0  0  0  0  0  0  0  0  0  0  0  0
   38.5990   34.1600   40.0270 C   0  0  0  0  0  3  0  0  0  0  0  0
   39.6640   33.4520   40.5440 C   0  0  0  0  0  3  0  0  0  0  0  0
   41.0980   30.0410   40.9370 H   0  0  0  0  0  0  0  0  0  0  0  0
   40.9270   31.2830   41.4530 S   0  0  0  0  0  0  0  0  0  0  0  0
   42.1340   32.0920   41.1700 O   0  0  0  0  0  0  0  0  0  0  0  0
   40.7410   31.2370   42.9550 O   0  0  0  0  0  0  0  0  0  0  0  0
  1  2  1  0  0  0  0
  1  6  1  0  0  0  0
  2  7  1  0  0  0  0
  2  3  1  0  0  0  0
  3  9  1  0  0  0  0
  3  4  1  0  0  0  0
  4 12  1  0  0  0  0
  4 11  1  0  0  0  0
  5 14  1  0  0  0  0
  5  4  1  0  0  0  0
  6 15  1  1  0  0  0
  6  5  1  0  0  0  0
  8  2  1  0  0  0  0
 10  3  1  0  0  0  0
 13  5  1  0  0  0  0
 16 17  1  0  0  0  0
 17 18  2  0  0  0  0
 17 23  1  0  0  0  0
 18  1  1  0  0  0  0
 19 18  1  0  0  0  0
 20 19  2  0  0  0  0
 21 20  1  0  0  0  0
 21 16  2  0  0  0  0
 22 16  1  0  0  0  0
 24 20  1  0  0  0  0
 25  6  1  0  0  0  0
 26 35  1  0  0  0  0
 27 26  2  0  0  0  0
 27 25  1  0  0  0  0
 28 27  1  0  0  0  0
 29 28  1  0  0  0  0
 30 28  2  0  0  0  0
 30 32  1  0  0  0  0
 31 30  1  0  0  0  0
 32 33  2  0  0  0  0
 33 26  1  0  0  0  0
 34 35  1  0  0  0  0
 35 37  2  0  0  0  0
 36 35  2  0  0  0  0
M  END
>  <minimizedAffinity>
-5.26634216

$$$$

 OpenBabel03252502253D

 37 39  0  0  1  0  0  0  0  0999 V2000
   36.5070   28.8740   40.0210 N   0  0  0  0  0  0  0  0  0  0  0  0
   35.0730   29.0090   39.8390 C   0  0  0  0  0  0  0  0  0  0  0  0
   34.8330   28.4910   38.4080 C   0  0  0  0  0  0  0  0  0  0  0  0
   35.4760   29.4110   37.4190 C   0  0  0  0  0  0  0  0  0  0  0  0
   36.8240   29.9070   37.8220 C   0  0  0  0  0  0  0  0  0  0  0  0
   37.4450   29.2150   38.9830 C   0  0  1  0  0  0  0  0  0  0  0  0
   34.8260   30.0860   39.7950 H   0  0  0  0  0  0  0  0  0  0  0  0
   34.5040   28.4320   40.5680 H   0  0  0  0  0  0  0  0  0  0  0  0
   33.7300   28.5130   38.2530 H   0  0  0  0  0  0  0  0  0  0  0  0
   35.1690   27.4430   38.3280 H   0  0  0  0  0  0  0  0  0  0  0  0
   35.5160   28.8430   36.4470 H   0  0  0  0  0  0  0  0  0  0  0  0
   34.7500   30.2320   37.2090 H   0  0  0  0  0  0  0  0  0  0  0  0
   36.7440   31.0200   37.9350 H   0  0  0  0  0  0  0  0  0  0  0  0
   37.5060   29.7720   36.9560 H   0  0  0  0  0  0  0  0  0  0  0  0
   37.9150   28.2690   38.6510 H   0  0  0  0  0  0  0  0  0  0  0  0
   37.8330   26.6460   42.7140 C   0  0  0  0  0  0  0  0  0  0  0  0
   37.3140   27.0120   41.4580 C   0  0  0  0  0  0  0  0  0  0  0  0
   37.0370   28.3900   41.2580 C   0  0  0  0  0  0  0  0  0  0  0  0
   37.2870   29.2560   42.2800 N   0  0  0  0  0  0  0  0  0  0  0  0
   37.7920   28.8340   43.4720 C   0  0  0  0  0  0  0  0  0  0  0  0
   38.0600   27.5230   43.6740 N   0  0  0  0  0  0  0  0  0  0  0  0
   38.0350   25.5900   42.8410 H   0  0  0  0  0  0  0  0  0  0  0  0
   37.1170   26.3170   40.6500 H   0  0  0  0  0  0  0  0  0  0  0  0
   37.9320   29.6480   44.1750 H   0  0  0  0  0  0  0  0  0  0  0  0
   38.4310   30.0390   39.5190 O   0  0  0  0  0  0  0  0  0  0  0  0
   39.4090   32.0720   39.1880 C   0  0  0  0  0  0  0  0  0  0  0  0
   39.4230   30.7100   38.8630 C   0  0  0  0  0  0  0  0  0  0  0  0
   40.3770   30.2500   37.9800 C   0  0  0  0  0  0  0  0  0  0  0  0
   40.3090   29.1880   37.7910 H   0  0  0  0  0  0  0  0  0  0  0  0
   41.3130   31.0860   37.4090 C   0  0  0  0  0  0  0  0  0  0  0  0
   42.0210   30.6390   36.7270 H   0  0  0  0  0  0  0  0  0  0  0  0
   41.2800   32.4390   37.7470 C   0  0  0  0  0  3  0  0  0  0  0  0
   40.3460   32.9470   38.6260 C   0  0  0  0  0  3  0  0  0  0  0  0
   37.8340   31.9710   41.2500 H   0  0  0  0  0  0  0  0  0  0  0  0
   38.2660   32.8310   40.2950 S   0  0  0  0  0  0  0  0  0  0  0  0
   38.9010   33.9970   40.9500 O   0  0  0  0  0  0  0  0  0  0  0  0
   37.1190   33.3410   39.4500 O   0  0  0  0  0  0  0  0  0  0  0  0
  1 18  1  0  0  0  0
  2  1  1  0  0  0  0
  2  8  1  0  0  0  0
  3  2  1  0  0  0  0
  4  5  1  0  0  0  0
  4  3  1  0  0  0  0
  5 13  1  0  0  0  0
  5  6  1  0  0  0  0
  6 15  1  6  0  0  0
  6 25  1  0  0  0  0
  6  1  1  0  0  0  0
  7  2  1  0  0  0  0
  9  3  1  0  0  0  0
 10  3  1  0  0  0  0
 11  4  1  0  0  0  0
 12  4  1  0  0  0  0
 14  5  1  0  0  0  0
 16 22  1  0  0  0  0
 16 21  1  0  0  0  0
 17 16  2  0  0  0  0
 18 17  1  0  0  0  0
 18 19  2  0  0  0  0
 19 20  1  0  0  0  0
 20 21  2  0  0  0  0
 20 24  1  0  0  0  0
 23 17  1  0  0  0  0
 26 35  1  0  0  0  0
 27 26  1  0  0  0  0
 27 25  1  0  0  0  0
 28 27  2  0  0  0  0
 29 28  1  0  0  0  0
 30 32  2  0  0  0  0
 30 28  1  0  0  0  0
 31 30  1  0  0  0  0
 32 33  1  0  0  0  0
 33 26  2  0  0  0  0
 35 36  2  0  0  0  0
 35 34  1  0  0  0  0
 37 35  2  0  0  0  0
M  END
>  <minimizedAffinity>
-5.07110596

$$$$

 OpenBabel03252502253D

 37 39  0  0  1  0  0  0  0  0999 V2000
   36.6260   29.1130   39.8700 N   0  0  0  0  0  0  0  0  0  0  0  0
   35.1820   29.1980   39.9960 C   0  0  0  0  0  0  0  0  0  0  0  0
   34.6610   28.5000   38.7240 C   0  0  0  0  0  0  0  0  0  0  0  0
   35.0320   29.3000   37.5160 C   0  0  0  0  0  0  0  0  0  0  0  0
   36.4100   29.8680   37.5490 C   0  0  0  0  0  0  0  0  0  0  0  0
   37.3000   29.3390   38.6180 C   0  0  1  0  0  0  0  0  0  0  0  0
   34.8830   30.2550   39.8800 H   0  0  0  0  0  0  0  0  0  0  0  0
   34.8120   28.7060   40.8950 H   0  0  0  0  0  0  0  0  0  0  0  0
   33.5520   28.4810   38.8160 H   0  0  0  0  0  0  0  0  0  0  0  0
   35.0200   27.4560   38.6970 H   0  0  0  0  0  0  0  0  0  0  0  0
   34.8860   28.6150   36.6340 H   0  0  0  0  0  0  0  0  0  0  0  0
   34.2400   30.0750   37.3760 H   0  0  0  0  0  0  0  0  0  0  0  0
   36.3060   30.9840   37.5450 H   0  0  0  0  0  0  0  0  0  0  0  0
   36.8940   29.6380   36.5770 H   0  0  0  0  0  0  0  0  0  0  0  0
   37.7290   28.3680   38.3040 H   0  0  0  0  0  0  0  0  0  0  0  0
   38.1850   29.1550   43.2670 C   0  0  0  0  0  0  0  0  0  0  0  0
   37.3450   29.5500   42.2100 C   0  0  0  0  0  0  0  0  0  0  0  0
   37.4340   28.7990   41.0080 C   0  0  0  0  0  0  0  0  0  0  0  0
   38.3140   27.7600   40.9570 N   0  0  0  0  0  0  0  0  0  0  0  0
   39.0990   27.4300   42.0200 C   0  0  0  0  0  0  0  0  0  0  0  0
   39.0230   28.1390   43.1700 N   0  0  0  0  0  0  0  0  0  0  0  0
   38.0990   29.7440   44.1720 H   0  0  0  0  0  0  0  0  0  0  0  0
   36.6470   30.3780   42.2590 H   0  0  0  0  0  0  0  0  0  0  0  0
   39.7410   26.5810   41.8140 H   0  0  0  0  0  0  0  0  0  0  0  0
   38.3400   30.2420   38.8210 O   0  0  0  0  0  0  0  0  0  0  0  0
   39.3610   31.8340   40.0940 C   0  0  0  0  0  0  0  0  0  0  0  0
   38.2680   31.5290   39.2740 C   0  0  0  0  0  0  0  0  0  0  0  0
   37.3210   32.5030   39.0420 C   0  0  0  0  0  0  0  0  0  0  0  0
   36.5170   32.1750   38.3980 H   0  0  0  0  0  0  0  0  0  0  0  0
   37.4160   33.7650   39.5900 C   0  0  0  0  0  0  0  0  0  0  0  0
   36.6270   34.4640   39.3550 H   0  0  0  0  0  0  0  0  0  0  0  0
   38.5130   34.0480   40.4040 C   0  0  0  0  0  3  0  0  0  0  0  0
   39.4870   33.1060   40.6660 C   0  0  0  0  0  3  0  0  0  0  0  0
   40.2690   29.4220   40.4020 H   0  0  0  0  0  0  0  0  0  0  0  0
   40.6620   30.7150   40.4980 S   0  0  0  0  0  0  0  0  0  0  0  0
   41.8130   30.9370   39.5950 O   0  0  0  0  0  0  0  0  0  0  0  0
   41.1030   31.0560   41.9060 O   0  0  0  0  0  0  0  0  0  0  0  0
  1  2  1  0  0  0  0
  1 18  1  0  0  0  0
  2  8  1  0  0  0  0
  3  9  1  0  0  0  0
  3  2  1  0  0  0  0
  4  5  1  0  0  0  0
  4  3  1  0  0  0  0
  5  6  1  0  0  0  0
  6 15  1  6  0  0  0
  6 25  1  0  0  0  0
  6  1  1  0  0  0  0
  7  2  1  0  0  0  0
 10  3  1  0  0  0  0
 11  4  1  0  0  0  0
 12  4  1  0  0  0  0
 13  5  1  0  0  0  0
 14  5  1  0  0  0  0
 16 22  1  0  0  0  0
 17 23  1  0  0  0  0
 17 16  2  0  0  0  0
 18 17  1  0  0  0  0
 19 18  2  0  0  0  0
 19 20  1  0  0  0  0
 20 21  2  0  0  0  0
 21 16  1  0  0  0  0
 24 20  1  0  0  0  0
 25 27  1  0  0  0  0
 26 35  1  0  0  0  0
 26 33  1  0  0  0  0
 27 26  2  0  0  0  0
 28 27  1  0  0  0  0
 28 30  2  0  0  0  0
 29 28  1  0  0  0  0
 30 32  1  0  0  0  0
 31 30  1  0  0  0  0
 32 33  2  0  0  0  0
 34 35  1  0  0  0  0
 35 37  2  0  0  0  0
 36 35  2  0  0  0  0
M  END
>  <minimizedAffinity>
-5.05534172

$$$$

 OpenBabel03252502253D

 37 39  0  0  1  0  0  0  0  0999 V2000
   37.4690   30.9770   39.6920 N   0  0  0  0  0  0  0  0  0  0  0  0
   37.2160   32.2780   40.2850 C   0  0  0  0  0  0  0  0  0  0  0  0
   38.3780   33.1490   39.7670 C   0  0  0  0  0  0  0  0  0  0  0  0
   39.6720   32.6640   40.3390 C   0  0  0  0  0  0  0  0  0  0  0  0
   39.8100   31.1800   40.3850 C   0  0  0  0  0  0  0  0  0  0  0  0
   38.7920   30.4130   39.6180 C   0  0  1  0  0  0  0  0  0  0  0  0
   37.3830   32.2040   41.3740 H   0  0  0  0  0  0  0  0  0  0  0  0
   36.2520   32.6910   39.9890 H   0  0  0  0  0  0  0  0  0  0  0  0
   38.1820   34.1790   40.1440 H   0  0  0  0  0  0  0  0  0  0  0  0
   38.3590   33.1800   38.6630 H   0  0  0  0  0  0  0  0  0  0  0  0
   40.4820   33.1380   39.7160 H   0  0  0  0  0  0  0  0  0  0  0  0
   39.7950   33.1490   41.3370 H   0  0  0  0  0  0  0  0  0  0  0  0
   39.8890   30.8920   41.4660 H   0  0  0  0  0  0  0  0  0  0  0  0
   40.8030   30.9200   39.9630 H   0  0  0  0  0  0  0  0  0  0  0  0
   39.0700   30.3860   38.5460 H   0  0  0  0  0  0  0  0  0  0  0  0
   35.2490   29.0660   37.3680 C   0  0  0  0  0  0  0  0  0  0  0  0
   36.3570   29.8250   37.7890 C   0  0  0  0  0  0  0  0  0  0  0  0
   36.3900   30.2050   39.1570 C   0  0  0  0  0  0  0  0  0  0  0  0
   35.3620   29.8160   39.9620 N   0  0  0  0  0  0  0  0  0  0  0  0
   34.3180   29.0800   39.4890 C   0  0  0  0  0  0  0  0  0  0  0  0
   34.2760   28.7120   38.1870 N   0  0  0  0  0  0  0  0  0  0  0  0
   35.2480   28.7900   36.3210 H   0  0  0  0  0  0  0  0  0  0  0  0
   37.1710   30.1310   37.1420 H   0  0  0  0  0  0  0  0  0  0  0  0
   33.5870   28.8550   40.2580 H   0  0  0  0  0  0  0  0  0  0  0  0
   38.7550   29.1090   40.1040 O   0  0  0  0  0  0  0  0  0  0  0  0
   37.7580   27.3680   41.1860 C   0  0  0  0  0  0  0  0  0  0  0  0
   38.2720   28.6650   41.3020 C   0  0  0  0  0  0  0  0  0  0  0  0
   38.2300   29.2870   42.5310 C   0  0  0  0  0  0  0  0  0  0  0  0
   38.6500   30.2830   42.5220 H   0  0  0  0  0  0  0  0  0  0  0  0
   37.6990   28.6750   43.6460 C   0  0  0  0  0  0  0  0  0  0  0  0
   37.7070   29.2380   44.5680 H   0  0  0  0  0  0  0  0  0  0  0  0
   37.1920   27.3820   43.5090 C   0  0  0  0  0  3  0  0  0  0  0  0
   37.2120   26.7180   42.3000 C   0  0  0  0  0  3  0  0  0  0  0  0
   38.3750   27.0510   38.6850 H   0  0  0  0  0  0  0  0  0  0  0  0
   37.7290   26.4240   39.6980 S   0  0  0  0  0  0  0  0  0  0  0  0
   38.3600   25.1050   39.9270 O   0  0  0  0  0  0  0  0  0  0  0  0
   36.2710   26.1900   39.3620 O   0  0  0  0  0  0  0  0  0  0  0  0
  1  2  1  0  0  0  0
  2  7  1  0  0  0  0
  3  9  1  0  0  0  0
  3  2  1  0  0  0  0
  3  4  1  0  0  0  0
  4  5  1  0  0  0  0
  4 12  1  0  0  0  0
  5 13  1  0  0  0  0
  6 15  1  6  0  0  0
  6  1  1  0  0  0  0
  6 25  1  0  0  0  0
  6  5  1  0  0  0  0
  8  2  1  0  0  0  0
 10  3  1  0  0  0  0
 11  4  1  0  0  0  0
 14  5  1  0  0  0  0
 16 17  2  0  0  0  0
 16 21  1  0  0  0  0
 17 18  1  0  0  0  0
 18  1  1  0  0  0  0
 18 19  2  0  0  0  0
 20 19  1  0  0  0  0
 20 24  1  0  0  0  0
 21 20  2  0  0  0  0
 22 16  1  0  0  0  0
 23 17  1  0  0  0  0
 25 27  1  0  0  0  0
 26 27  2  0  0  0  0
 26 33  1  0  0  0  0
 27 28  1  0  0  0  0
 28 30  2  0  0  0  0
 29 28  1  0  0  0  0
 30 31  1  0  0  0  0
 32 30  1  0  0  0  0
 33 32  2  0  0  0  0
 34 35  1  0  0  0  0
 35 36  2  0  0  0  0
 35 26  1  0  0  0  0
 37 35  2  0  0  0  0
M  END
>  <minimizedAffinity>
-5.0336833

$$$$

 OpenBabel03252502253D

 37 39  0  0  1  0  0  0  0  0999 V2000
   37.3510   25.6040   41.1820 N   0  0  0  0  0  0  0  0  0  0  0  0
   37.0680   24.3700   41.8940 C   0  0  0  0  0  0  0  0  0  0  0  0
   37.7900   23.2920   41.0620 C   0  0  0  0  0  0  0  0  0  0  0  0
   37.1430   23.1660   39.7190 C   0  0  0  0  0  0  0  0  0  0  0  0
   36.7590   24.4650   39.0940 C   0  0  0  0  0  0  0  0  0  0  0  0
   37.3140   25.6830   39.7440 C   0  0  1  0  0  0  0  0  0  0  0  0
   35.9940   24.1400   41.7820 H   0  0  0  0  0  0  0  0  0  0  0  0
   37.4350   24.3870   42.9190 H   0  0  0  0  0  0  0  0  0  0  0  0
   37.6560   22.3350   41.6150 H   0  0  0  0  0  0  0  0  0  0  0  0
   38.8710   23.5140   41.0190 H   0  0  0  0  0  0  0  0  0  0  0  0
   37.8700   22.5950   39.0770 H   0  0  0  0  0  0  0  0  0  0  0  0
   36.2850   22.4610   39.8300 H   0  0  0  0  0  0  0  0  0  0  0  0
   35.6430   24.4630   38.9920 H   0  0  0  0  0  0  0  0  0  0  0  0
   37.1260   24.4570   38.0470 H   0  0  0  0  0  0  0  0  0  0  0  0
   38.3550   25.8500   39.4050 H   0  0  0  0  0  0  0  0  0  0  0  0
   37.3410   28.3890   43.6730 C   0  0  0  0  0  0  0  0  0  0  0  0
   36.9330   27.2010   43.0410 C   0  0  0  0  0  0  0  0  0  0  0  0
   37.6770   26.7950   41.9010 C   0  0  0  0  0  0  0  0  0  0  0  0
   38.7210   27.5730   41.4990 N   0  0  0  0  0  0  0  0  0  0  0  0
   39.0630   28.7140   42.1590 C   0  0  0  0  0  0  0  0  0  0  0  0
   38.3610   29.1100   43.2470 N   0  0  0  0  0  0  0  0  0  0  0  0
   36.7570   28.6760   44.5390 H   0  0  0  0  0  0  0  0  0  0  0  0
   36.1010   26.5870   43.3670 H   0  0  0  0  0  0  0  0  0  0  0  0
   39.9150   29.2140   41.7110 H   0  0  0  0  0  0  0  0  0  0  0  0
   36.5420   26.7790   39.3720 O   0  0  0  0  0  0  0  0  0  0  0  0
   36.3240   28.9700   38.7800 C   0  0  0  0  0  0  0  0  0  0  0  0
   36.7980   27.7070   38.4040 C   0  0  0  0  0  0  0  0  0  0  0  0
   37.4240   27.5710   37.1830 C   0  0  0  0  0  0  0  0  0  0  0  0
   37.7550   26.5620   36.9810 H   0  0  0  0  0  0  0  0  0  0  0  0
   37.5970   28.6360   36.3240 C   0  0  0  0  0  0  0  0  0  0  0  0
   38.0990   28.4360   35.3880 H   0  0  0  0  0  0  0  0  0  0  0  0
   37.1180   29.8850   36.7190 C   0  0  0  0  0  3  0  0  0  0  0  0
   36.4840   30.0710   37.9300 C   0  0  0  0  0  3  0  0  0  0  0  0
   35.8370   28.4510   41.2760 H   0  0  0  0  0  0  0  0  0  0  0  0
   35.5020   29.3270   40.2980 S   0  0  0  0  0  0  0  0  0  0  0  0
   35.8420   30.6970   40.7430 O   0  0  0  0  0  0  0  0  0  0  0  0
   34.0180   29.2880   40.0050 O   0  0  0  0  0  0  0  0  0  0  0  0
  1  2  1  0  0  0  0
  1 18  1  0  0  0  0
  2  8  1  0  0  0  0
  3  9  1  0  0  0  0
  3  2  1  0  0  0  0
  4 12  1  0  0  0  0
  4  3  1  0  0  0  0
  5  4  1  0  0  0  0
  5  6  1  0  0  0  0
  6 15  1  6  0  0  0
  6  1  1  0  0  0  0
  7  2  1  0  0  0  0
 10  3  1  0  0  0  0
 11  4  1  0  0  0  0
 13  5  1  0  0  0  0
 14  5  1  0  0  0  0
 16 22  1  0  0  0  0
 17 23  1  0  0  0  0
 17 16  2  0  0  0  0
 18 17  1  0  0  0  0
 19 18  2  0  0  0  0
 19 20  1  0  0  0  0
 20 21  2  0  0  0  0
 21 16  1  0  0  0  0
 24 20  1  0  0  0  0
 25  6  1  0  0  0  0
 26 35  1  0  0  0  0
 27 26  1  0  0  0  0
 27 25  1  0  0  0  0
 28 27  2  0  0  0  0
 29 28  1  0  0  0  0
 30 32  2  0  0  0  0
 30 28  1  0  0  0  0
 31 30  1  0  0  0  0
 32 33  1  0  0  0  0
 33 26  2  0  0  0  0
 35 36  2  0  0  0  0
 35 34  1  0  0  0  0
 37 35  2  0  0  0  0
M  END
>  <minimizedAffinity>
-5.01782513

$$$$

 OpenBabel03252502253D

 37 39  0  0  1  0  0  0  0  0999 V2000
   36.7050   28.9450   40.1160 N   0  0  0  0  0  0  0  0  0  0  0  0
   35.2920   29.2650   40.0130 C   0  0  0  0  0  0  0  0  0  0  0  0
   34.9140   28.8020   38.5920 C   0  0  0  0  0  0  0  0  0  0  0  0
   35.6170   29.6450   37.5770 C   0  0  0  0  0  0  0  0  0  0  0  0
   37.0370   29.9600   37.9110 C   0  0  0  0  0  0  0  0  0  0  0  0
   37.6240   29.1780   39.0320 C   0  0  1  0  0  0  0  0  0  0  0  0
   35.1840   30.3640   39.9890 H   0  0  0  0  0  0  0  0  0  0  0  0
   34.6930   28.7550   40.7660 H   0  0  0  0  0  0  0  0  0  0  0  0
   33.8170   28.9660   38.4970 H   0  0  0  0  0  0  0  0  0  0  0  0
   35.1080   27.7200   38.4880 H   0  0  0  0  0  0  0  0  0  0  0  0
   35.5330   29.0900   36.6010 H   0  0  0  0  0  0  0  0  0  0  0  0
   34.9930   30.5550   37.4120 H   0  0  0  0  0  0  0  0  0  0  0  0
   37.1060   31.0720   38.0360 H   0  0  0  0  0  0  0  0  0  0  0  0
   37.6500   29.7500   37.0090 H   0  0  0  0  0  0  0  0  0  0  0  0
   37.9500   28.1850   38.6690 H   0  0  0  0  0  0  0  0  0  0  0  0
   38.2040   26.5910   42.6020 C   0  0  0  0  0  0  0  0  0  0  0  0
   37.7080   27.0440   41.3670 C   0  0  0  0  0  0  0  0  0  0  0  0
   37.2320   28.3810   41.3200 C   0  0  0  0  0  0  0  0  0  0  0  0
   37.2870   29.1280   42.4580 N   0  0  0  0  0  0  0  0  0  0  0  0
   37.7820   28.6260   43.6240 C   0  0  0  0  0  0  0  0  0  0  0  0
   38.2380   27.3530   43.6800 N   0  0  0  0  0  0  0  0  0  0  0  0
   38.5600   25.5680   42.6110 H   0  0  0  0  0  0  0  0  0  0  0  0
   37.6670   26.4430   40.4650 H   0  0  0  0  0  0  0  0  0  0  0  0
   37.7540   29.3490   44.4320 H   0  0  0  0  0  0  0  0  0  0  0  0
   38.7340   29.8620   39.5210 O   0  0  0  0  0  0  0  0  0  0  0  0
   39.9450   31.7180   38.9860 C   0  0  0  0  0  0  0  0  0  0  0  0
   38.8770   31.2040   39.7310 C   0  0  0  0  0  0  0  0  0  0  0  0
   38.1520   32.0630   40.5300 C   0  0  0  0  0  0  0  0  0  0  0  0
   37.3490   31.5750   41.0660 H   0  0  0  0  0  0  0  0  0  0  0  0
   38.4460   33.4070   40.6180 C   0  0  0  0  0  0  0  0  0  0  0  0
   37.8250   34.0040   41.2700 H   0  0  0  0  0  0  0  0  0  0  0  0
   39.5130   33.8980   39.8670 C   0  0  0  0  0  3  0  0  0  0  0  0
   40.2680   33.0790   39.0530 C   0  0  0  0  0  3  0  0  0  0  0  0
   40.2830   29.8010   37.2700 H   0  0  0  0  0  0  0  0  0  0  0  0
   40.9760   30.7700   37.9160 S   0  0  0  0  0  0  0  0  0  0  0  0
   41.6110   31.6560   36.9150 O   0  0  0  0  0  0  0  0  0  0  0  0
   42.0730   30.1840   38.7800 O   0  0  0  0  0  0  0  0  0  0  0  0
  1 18  1  0  0  0  0
  2  1  1  0  0  0  0
  2  8  1  0  0  0  0
  3  2  1  0  0  0  0
  4  5  1  0  0  0  0
  4  3  1  0  0  0  0
  5 13  1  0  0  0  0
  5  6  1  0  0  0  0
  6 15  1  6  0  0  0
  6 25  1  0  0  0  0
  6  1  1  0  0  0  0
  7  2  1  0  0  0  0
  9  3  1  0  0  0  0
 10  3  1  0  0  0  0
 11  4  1  0  0  0  0
 12  4  1  0  0  0  0
 14  5  1  0  0  0  0
 16 22  1  0  0  0  0
 16 21  1  0  0  0  0
 17 16  2  0  0  0  0
 18 17  1  0  0  0  0
 18 19  2  0  0  0  0
 19 20  1  0  0  0  0
 20 21  2  0  0  0  0
 20 24  1  0  0  0  0
 23 17  1  0  0  0  0
 25 27  1  0  0  0  0
 26 33  2  0  0  0  0
 26 27  1  0  0  0  0
 27 28  2  0  0  0  0
 28 30  1  0  0  0  0
 28 29  1  0  0  0  0
 30 31  1  0  0  0  0
 32 30  2  0  0  0  0
 33 32  1  0  0  0  0
 34 35  1  0  0  0  0
 35 37  2  0  0  0  0
 35 26  1  0  0  0  0
 36 35  2  0  0  0  0
M  END
>  <minimizedAffinity>
-4.92486238

$$$$

 OpenBabel03252502253D

 37 39  0  0  1  0  0  0  0  0999 V2000
   38.1440   30.6460   40.9850 N   0  0  0  0  0  0  0  0  0  0  0  0
   39.2000   31.6350   40.8680 C   0  0  0  0  0  0  0  0  0  0  0  0
   38.4440   32.9770   40.8200 C   0  0  0  0  0  0  0  0  0  0  0  0
   37.6380   33.0630   39.5620 C   0  0  0  0  0  0  0  0  0  0  0  0
   36.9470   31.7970   39.1840 C   0  0  0  0  0  0  0  0  0  0  0  0
   36.9220   30.7370   40.2280 C   0  0  1  0  0  0  0  0  0  0  0  0
   39.6630   31.5360   39.8690 H   0  0  0  0  0  0  0  0  0  0  0  0
   39.8950   31.6040   41.7070 H   0  0  0  0  0  0  0  0  0  0  0  0
   39.2250   33.7700   40.8000 H   0  0  0  0  0  0  0  0  0  0  0  0
   37.8490   33.1040   41.7410 H   0  0  0  0  0  0  0  0  0  0  0  0
   36.9070   33.9040   39.7190 H   0  0  0  0  0  0  0  0  0  0  0  0
   38.3130   33.4510   38.7630 H   0  0  0  0  0  0  0  0  0  0  0  0
   37.3770   31.4680   38.2020 H   0  0  0  0  0  0  0  0  0  0  0  0
   35.8920   32.0470   38.9460 H   0  0  0  0  0  0  0  0  0  0  0  0
   36.1100   30.9410   40.9530 H   0  0  0  0  0  0  0  0  0  0  0  0
   39.4570   27.6010   42.7100 C   0  0  0  0  0  0  0  0  0  0  0  0
   39.4130   28.6650   41.7910 C   0  0  0  0  0  0  0  0  0  0  0  0
   38.2910   29.5320   41.8710 C   0  0  0  0  0  0  0  0  0  0  0  0
   37.3440   29.2810   42.8180 N   0  0  0  0  0  0  0  0  0  0  0  0
   37.4490   28.2310   43.6790 C   0  0  0  0  0  0  0  0  0  0  0  0
   38.5140   27.3980   43.6120 N   0  0  0  0  0  0  0  0  0  0  0  0
   40.3220   26.9540   42.6290 H   0  0  0  0  0  0  0  0  0  0  0  0
   40.1700   28.8580   41.0410 H   0  0  0  0  0  0  0  0  0  0  0  0
   36.6130   28.1740   44.3670 H   0  0  0  0  0  0  0  0  0  0  0  0
   36.6780   29.5110   39.6160 O   0  0  0  0  0  0  0  0  0  0  0  0
   36.1240   28.7250   37.5490 C   0  0  0  0  0  0  0  0  0  0  0  0
   35.6470   29.1680   38.7890 C   0  0  0  0  0  0  0  0  0  0  0  0
   34.2850   29.1980   39.0010 C   0  0  0  0  0  0  0  0  0  0  0  0
   34.0130   29.5540   39.9860 H   0  0  0  0  0  0  0  0  0  0  0  0
   33.3820   28.8080   38.0360 C   0  0  0  0  0  0  0  0  0  0  0  0
   32.3340   28.8650   38.2900 H   0  0  0  0  0  0  0  0  0  0  0  0
   33.8790   28.3700   36.8080 C   0  0  0  0  0  3  0  0  0  0  0  0
   35.2330   28.3220   36.5470 C   0  0  0  0  0  3  0  0  0  0  0  0
   38.4890   29.7780   37.3490 H   0  0  0  0  0  0  0  0  0  0  0  0
   37.8270   28.6210   37.1030 S   0  0  0  0  0  0  0  0  0  0  0  0
   38.4770   27.5260   37.8560 O   0  0  0  0  0  0  0  0  0  0  0  0
   37.8680   28.2630   35.6330 O   0  0  0  0  0  0  0  0  0  0  0  0
  1 18  1  0  0  0  0
  2  1  1  0  0  0  0
  2  8  1  0  0  0  0
  3  2  1  0  0  0  0
  3 10  1  0  0  0  0
  4 11  1  0  0  0  0
  4  3  1  0  0  0  0
  5  4  1  0  0  0  0
  5  6  1  0  0  0  0
  6 15  1  1  0  0  0
  6  1  1  0  0  0  0
  7  2  1  0  0  0  0
  9  3  1  0  0  0  0
 12  4  1  0  0  0  0
 13  5  1  0  0  0  0
 14  5  1  0  0  0  0
 16 21  1  0  0  0  0
 17 18  1  0  0  0  0
 17 16  2  0  0  0  0
 18 19  2  0  0  0  0
 19 20  1  0  0  0  0
 20 24  1  0  0  0  0
 21 20  2  0  0  0  0
 22 16  1  0  0  0  0
 23 17  1  0  0  0  0
 25  6  1  0  0  0  0
 26 27  1  0  0  0  0
 27 28  2  0  0  0  0
 27 25  1  0  0  0  0
 28 29  1  0  0  0  0
 30 31  1  0  0  0  0
 30 28  1  0  0  0  0
 32 30  2  0  0  0  0
 33 32  1  0  0  0  0
 33 26  2  0  0  0  0
 35 34  1  0  0  0  0
 35 26  1  0  0  0  0
 35 36  2  0  0  0  0
 37 35  2  0  0  0  0
M  END
>  <minimizedAffinity>
-4.88683558

$$$$

 OpenBabel03252502253D

 37 39  0  0  1  0  0  0  0  0999 V2000
   37.9550   28.2410   40.9270 N   0  0  0  0  0  0  0  0  0  0  0  0
   38.7700   27.1230   41.3680 C   0  0  0  0  0  0  0  0  0  0  0  0
   37.9720   26.5280   42.5450 C   0  0  0  0  0  0  0  0  0  0  0  0
   37.9340   27.5020   43.6790 C   0  0  0  0  0  0  0  0  0  0  0  0
   37.7220   28.9200   43.2690 C   0  0  0  0  0  0  0  0  0  0  0  0
   37.3050   29.1280   41.8560 C   0  0  1  0  0  0  0  0  0  0  0  0
   39.6920   27.5240   41.8270 H   0  0  0  0  0  0  0  0  0  0  0  0
   38.9250   26.3850   40.5830 H   0  0  0  0  0  0  0  0  0  0  0  0
   38.5310   25.6220   42.8690 H   0  0  0  0  0  0  0  0  0  0  0  0
   36.9740   26.2080   42.1960 H   0  0  0  0  0  0  0  0  0  0  0  0
   37.1200   27.1430   44.3690 H   0  0  0  0  0  0  0  0  0  0  0  0
   38.8650   27.3520   44.2760 H   0  0  0  0  0  0  0  0  0  0  0  0
   38.6400   29.4890   43.5690 H   0  0  0  0  0  0  0  0  0  0  0  0
   36.9210   29.3410   43.9120 H   0  0  0  0  0  0  0  0  0  0  0  0
   36.2160   28.9570   41.7560 H   0  0  0  0  0  0  0  0  0  0  0  0
   38.5860   28.8700   37.2970 C   0  0  0  0  0  0  0  0  0  0  0  0
   38.8790   28.6180   38.6490 C   0  0  0  0  0  0  0  0  0  0  0  0
   37.7730   28.4960   39.5310 C   0  0  0  0  0  0  0  0  0  0  0  0
   36.5170   28.6290   39.0180 N   0  0  0  0  0  0  0  0  0  0  0  0
   36.3040   28.8720   37.6950 C   0  0  0  0  0  0  0  0  0  0  0  0
   37.3510   28.9900   36.8460 N   0  0  0  0  0  0  0  0  0  0  0  0
   39.4460   28.9590   36.6450 H   0  0  0  0  0  0  0  0  0  0  0  0
   39.8810   28.5140   39.0500 H   0  0  0  0  0  0  0  0  0  0  0  0
   35.2500   28.9500   37.4520 H   0  0  0  0  0  0  0  0  0  0  0  0
   37.5860   30.4430   41.4960 O   0  0  0  0  0  0  0  0  0  0  0  0
   38.7810   32.0270   40.3730 C   0  0  0  0  0  0  0  0  0  0  0  0
   38.8050   31.0450   41.3720 C   0  0  0  0  0  0  0  0  0  0  0  0
   39.9810   30.8280   42.0580 C   0  0  0  0  0  0  0  0  0  0  0  0
   39.9020   30.0540   42.8080 H   0  0  0  0  0  0  0  0  0  0  0  0
   41.1290   31.5430   41.7930 C   0  0  0  0  0  0  0  0  0  0  0  0
   42.0040   31.3050   42.3800 H   0  0  0  0  0  0  0  0  0  0  0  0
   41.0830   32.5160   40.7940 C   0  0  0  0  0  3  0  0  0  0  0  0
   39.9300   32.7710   40.0790 C   0  0  0  0  0  3  0  0  0  0  0  0
   36.2750   31.7280   39.7630 H   0  0  0  0  0  0  0  0  0  0  0  0
   37.3710   32.4380   39.3980 S   0  0  0  0  0  0  0  0  0  0  0  0
   37.0740   33.8820   39.5280 O   0  0  0  0  0  0  0  0  0  0  0  0
   37.7480   32.1690   37.9560 O   0  0  0  0  0  0  0  0  0  0  0  0
  1  2  1  0  0  0  0
  1  6  1  0  0  0  0
  2  7  1  0  0  0  0
  2  3  1  0  0  0  0
  3  9  1  0  0  0  0
  3  4  1  0  0  0  0
  4 12  1  0  0  0  0
  4 11  1  0  0  0  0
  5 13  1  0  0  0  0
  5  4  1  0  0  0  0
  5 14  1  0  0  0  0
  6 15  1  6  0  0  0
  6  5  1  0  0  0  0
  8  2  1  0  0  0  0
 10  3  1  0  0  0  0
 16 17  1  0  0  0  0
 17 23  1  0  0  0  0
 17 18  2  0  0  0  0
 18  1  1  0  0  0  0
 19 18  1  0  0  0  0
 20 19  2  0  0  0  0
 21 16  2  0  0  0  0
 21 20  1  0  0  0  0
 22 16  1  0  0  0  0
 24 20  1  0  0  0  0
 25  6  1  0  0  0  0
 26 27  1  0  0  0  0
 27 25  1  0  0  0  0
 27 28  2  0  0  0  0
 28 29  1  0  0  0  0
 30 28  1  0  0  0  0
 30 31  1  0  0  0  0
 32 30  2  0  0  0  0
 33 26  2  0  0  0  0
 33 32  1  0  0  0  0
 35 36  2  0  0  0  0
 35 34  1  0  0  0  0
 35 26  1  0  0  0  0
 37 35  2  0  0  0  0
M  END
>  <minimizedAffinity>
-4.81788254

$$$$

 OpenBabel03252502253D

 37 39  0  0  1  0  0  0  0  0999 V2000
   38.1370   30.5090   40.7810 N   0  0  0  0  0  0  0  0  0  0  0  0
   39.0320   31.6520   40.7390 C   0  0  0  0  0  0  0  0  0  0  0  0
   38.0850   32.8530   40.5430 C   0  0  0  0  0  0  0  0  0  0  0  0
   37.4320   32.7730   39.2000 C   0  0  0  0  0  0  0  0  0  0  0  0
   36.9970   31.4020   38.8040 C   0  0  0  0  0  0  0  0  0  0  0  0
   37.0150   30.3820   39.8870 C   0  0  1  0  0  0  0  0  0  0  0  0
   39.6190   31.6010   39.8040 H   0  0  0  0  0  0  0  0  0  0  0  0
   39.6180   31.7570   41.6510 H   0  0  0  0  0  0  0  0  0  0  0  0
   38.7290   33.7610   40.5750 H   0  0  0  0  0  0  0  0  0  0  0  0
   37.3730   32.9080   41.3840 H   0  0  0  0  0  0  0  0  0  0  0  0
   36.5650   33.4900   39.2330 H   0  0  0  0  0  0  0  0  0  0  0  0
   38.1290   33.2420   38.4640 H   0  0  0  0  0  0  0  0  0  0  0  0
   37.5880   31.1200   37.8940 H   0  0  0  0  0  0  0  0  0  0  0  0
   35.9520   31.4720   38.4380 H   0  0  0  0  0  0  0  0  0  0  0  0
   36.1000   30.4730   40.5050 H   0  0  0  0  0  0  0  0  0  0  0  0
   37.6760   28.0650   43.5710 C   0  0  0  0  0  0  0  0  0  0  0  0
   37.3610   29.1130   42.6870 C   0  0  0  0  0  0  0  0  0  0  0  0
   38.3500   29.4590   41.7280 C   0  0  0  0  0  0  0  0  0  0  0  0
   39.5220   28.7640   41.7260 N   0  0  0  0  0  0  0  0  0  0  0  0
   39.7610   27.7570   42.6120 C   0  0  0  0  0  0  0  0  0  0  0  0
   38.8260   27.4190   43.5300 N   0  0  0  0  0  0  0  0  0  0  0  0
   36.9060   27.8210   44.2930 H   0  0  0  0  0  0  0  0  0  0  0  0
   36.4270   29.6620   42.6950 H   0  0  0  0  0  0  0  0  0  0  0  0
   40.7390   27.3080   42.4750 H   0  0  0  0  0  0  0  0  0  0  0  0
   37.0400   29.1160   39.3090 O   0  0  0  0  0  0  0  0  0  0  0  0
   36.3200   27.1050   38.5130 C   0  0  0  0  0  0  0  0  0  0  0  0
   36.0400   28.4710   38.6390 C   0  0  0  0  0  0  0  0  0  0  0  0
   34.8660   28.9580   38.1060 C   0  0  0  0  0  0  0  0  0  0  0  0
   34.7370   30.0210   38.2530 H   0  0  0  0  0  0  0  0  0  0  0  0
   33.9620   28.1450   37.4550 C   0  0  0  0  0  0  0  0  0  0  0  0
   33.0680   28.6130   37.0690 H   0  0  0  0  0  0  0  0  0  0  0  0
   34.2610   26.7870   37.3410 C   0  0  0  0  0  3  0  0  0  0  0  0
   35.4230   26.2520   37.8580 C   0  0  0  0  0  3  0  0  0  0  0  0
   38.8680   27.0950   39.0090 H   0  0  0  0  0  0  0  0  0  0  0  0
   37.7690   26.3120   39.1310 S   0  0  0  0  0  0  0  0  0  0  0  0
   37.5810   25.9640   40.5570 O   0  0  0  0  0  0  0  0  0  0  0  0
   37.9200   25.0210   38.3540 O   0  0  0  0  0  0  0  0  0  0  0  0
  1 18  1  0  0  0  0
  2  1  1  0  0  0  0
  2  8  1  0  0  0  0
  3  9  1  0  0  0  0
  3  2  1  0  0  0  0
  3 10  1  0  0  0  0
  4 11  1  0  0  0  0
  4  3  1  0  0  0  0
  5  4  1  0  0  0  0
  5  6  1  0  0  0  0
  6 15  1  1  0  0  0
  6  1  1  0  0  0  0
  7  2  1  0  0  0  0
 12  4  1  0  0  0  0
 13  5  1  0  0  0  0
 14  5  1  0  0  0  0
 16 22  1  0  0  0  0
 17 23  1  0  0  0  0
 17 16  2  0  0  0  0
 18 17  1  0  0  0  0
 19 18  2  0  0  0  0
 19 20  1  0  0  0  0
 20 21  2  0  0  0  0
 21 16  1  0  0  0  0
 24 20  1  0  0  0  0
 25  6  1  0  0  0  0
 26 27  1  0  0  0  0
 26 35  1  0  0  0  0
 27 25  1  0  0  0  0
 28 29  1  0  0  0  0
 28 27  2  0  0  0  0
 30 28  1  0  0  0  0
 31 30  1  0  0  0  0
 32 30  2  0  0  0  0
 32 33  1  0  0  0  0
 33 26  2  0  0  0  0
 34 35  1  0  0  0  0
 35 36  2  0  0  0  0
 37 35  2  0  0  0  0
M  END
>  <minimizedAffinity>
-4.75974083

$$$$
