
 OpenBabel03242518373D

 38 41  0  0  1  0  0  0  0  0999 V2000
   37.4720   29.0450   39.4890 C   0  0  0  0  0  0  0  0  0  0  0  0
   36.1440   28.7930   39.8400 C   0  0  0  0  0  0  0  0  0  0  0  0
   36.0890   28.4790   41.1750 C   0  0  0  0  0  0  0  0  0  0  0  0
   37.3920   28.5500   41.5970 C   0  0  0  0  0  0  0  0  0  0  0  0
   38.1870   28.8800   40.6010 O   0  0  0  0  0  0  0  0  0  0  0  0
   35.3580   28.8650   39.0860 H   0  0  0  0  0  0  0  0  0  0  0  0
   35.1760   28.2420   41.6980 H   0  0  0  0  0  0  0  0  0  0  0  0
   37.8480   28.2980   42.9750 C   0  0  2  0  0  0  0  0  0  0  0  0
   39.2800   28.0600   43.2310 C   0  0  0  0  0  0  0  0  0  0  0  0
   38.3830   26.8820   43.2130 C   0  0  2  0  0  0  0  0  0  0  0  0
   37.2290   28.7090   43.8020 H   0  0  0  0  0  0  0  0  0  0  0  0
   39.7400   28.3810   44.2080 H   0  0  0  0  0  0  0  0  0  0  0  0
   39.9600   28.2620   42.3830 H   0  0  0  0  0  0  0  0  0  0  0  0
   38.1390   26.4860   44.2250 H   0  0  0  0  0  0  0  0  0  0  0  0
   39.1120   25.4910   41.1230 C   0  0  0  0  0  0  0  0  0  0  0  0
   38.2990   25.8900   42.1570 C   0  0  0  0  0  0  0  0  0  0  0  0
   37.0690   25.2160   42.2360 C   0  0  0  0  0  0  0  0  0  0  0  0
   36.2640   25.3660   42.9760 H   0  0  0  0  0  0  0  0  0  0  0  0
   36.7020   24.2160   41.3320 C   0  0  0  0  0  0  0  0  0  0  0  0
   35.7730   23.6750   41.3570 H   0  0  0  0  0  0  0  0  0  0  0  0
   37.5510   23.8590   40.3210 C   0  0  0  0  0  3  0  0  0  0  0  0
   38.7610   24.5070   40.2250 C   0  0  0  0  0  3  0  0  0  0  0  0
   40.9200   27.1050   42.0960 H   0  0  0  0  0  0  0  0  0  0  0  0
   40.6430   26.3100   41.0460 S   0  0  0  0  0  0  0  0  0  0  0  0
   41.6970   25.1970   41.0790 O   0  0  0  0  0  0  0  0  0  0  0  0
   40.8230   27.0000   39.7020 O   0  0  0  0  0  0  0  0  0  0  0  0
   38.0740   29.4060   38.2650 O   0  0  0  0  0  0  0  0  0  0  0  0
   37.7990   30.6830   37.7230 C   0  0  0  0  0  0  0  0  0  0  0  0
   37.2130   30.7140   36.6060 O   0  0  0  0  0  0  0  0  0  0  0  0
   38.2180   31.7940   38.5080 C   0  0  0  0  0  0  0  0  0  0  0  0
   37.2200   32.6010   38.9720 C   0  0  0  0  0  0  0  0  0  0  0  0
   37.5550   33.7090   39.7470 C   0  0  0  0  0  0  0  0  0  0  0  0
   38.8580   33.9210   39.9960 N   0  0  0  0  0  0  0  0  0  0  0  0
   39.8200   33.1230   39.5350 C   0  0  0  0  0  0  0  0  0  0  0  0
   39.4810   32.0570   38.7870 N   0  0  0  0  0  0  0  0  0  0  0  0
   36.1840   32.4550   38.7890 H   0  0  0  0  0  0  0  0  0  0  0  0
   36.7980   34.3750   40.1350 H   0  0  0  0  0  0  0  0  0  0  0  0
   40.8900   33.2600   39.7140 H   0  0  0  0  0  0  0  0  0  0  0  0
  1  2  2  0  0  0  0
  1  5  1  0  0  0  0
  2  3  1  0  0  0  0
  3  4  2  0  0  0  0
  3  7  1  0  0  0  0
  4  8  1  0  0  0  0
  5  4  1  0  0  0  0
  6  2  1  0  0  0  0
  8 10  1  0  0  0  0
  8  9  1  0  0  0  0
  8 11  1  1  0  0  0
  9 12  1  0  0  0  0
 10  9  1  0  0  0  0
 10 14  1  1  0  0  0
 13  9  1  0  0  0  0
 15 16  1  0  0  0  0
 16 17  2  0  0  0  0
 16 10  1  0  0  0  0
 17 18  1  0  0  0  0
 19 20  1  0  0  0  0
 19 17  1  0  0  0  0
 21 19  2  0  0  0  0
 22 21  1  0  0  0  0
 22 15  2  0  0  0  0
 24 25  2  0  0  0  0
 24 15  1  0  0  0  0
 24 23  1  0  0  0  0
 26 24  2  0  0  0  0
 27  1  1  0  0  0  0
 28 27  1  0  0  0  0
 28 30  1  0  0  0  0
 29 28  2  0  0  0  0
 30 35  2  0  0  0  0
 30 31  1  0  0  0  0
 31 32  2  0  0  0  0
 32 33  1  0  0  0  0
 32 37  1  0  0  0  0
 34 38  1  0  0  0  0
 34 33  2  0  0  0  0
 35 34  1  0  0  0  0
 36 31  1  0  0  0  0
M  END
>  <minimizedAffinity>
-5.63286877

$$$$

 OpenBabel03242518373D

 38 41  0  0  1  0  0  0  0  0999 V2000
   36.0480   28.4290   40.9100 C   0  0  0  0  0  0  0  0  0  0  0  0
   34.9490   29.0870   40.3540 C   0  0  0  0  0  0  0  0  0  0  0  0
   35.2270   29.3860   39.0430 C   0  0  0  0  0  0  0  0  0  0  0  0
   36.4920   28.8970   38.8420 C   0  0  0  0  0  0  0  0  0  0  0  0
   36.9580   28.3430   39.9420 O   0  0  0  0  0  0  0  0  0  0  0  0
   34.0630   29.2800   40.9610 H   0  0  0  0  0  0  0  0  0  0  0  0
   34.5400   29.8950   38.3850 H   0  0  0  0  0  0  0  0  0  0  0  0
   37.2350   28.9730   37.5720 C   0  0  2  0  0  0  0  0  0  0  0  0
   38.6830   28.6960   37.5620 C   0  0  0  0  0  0  0  0  0  0  0  0
   38.2570   30.1130   37.5060 C   0  0  2  0  0  0  0  0  0  0  0  0
   36.6630   28.8040   36.6340 H   0  0  0  0  0  0  0  0  0  0  0  0
   39.1630   28.2340   36.6540 H   0  0  0  0  0  0  0  0  0  0  0  0
   39.0970   28.2690   38.4940 H   0  0  0  0  0  0  0  0  0  0  0  0
   38.3400   30.5690   36.4940 H   0  0  0  0  0  0  0  0  0  0  0  0
   39.0750   31.1780   39.7500 C   0  0  0  0  0  0  0  0  0  0  0  0
   38.3410   31.0730   38.5920 C   0  0  0  0  0  0  0  0  0  0  0  0
   37.4230   32.1130   38.3780 C   0  0  0  0  0  0  0  0  0  0  0  0
   36.7320   32.2400   37.5250 H   0  0  0  0  0  0  0  0  0  0  0  0
   37.2680   33.1740   39.2740 C   0  0  0  0  0  0  0  0  0  0  0  0
   36.5790   33.9890   39.1490 H   0  0  0  0  0  0  0  0  0  0  0  0
   38.0240   33.2270   40.4120 C   0  0  0  0  0  3  0  0  0  0  0  0
   38.9310   32.2180   40.6420 C   0  0  0  0  0  3  0  0  0  0  0  0
   39.8430   28.6890   39.5550 H   0  0  0  0  0  0  0  0  0  0  0  0
   40.2290   29.9010   39.9960 S   0  0  0  0  0  0  0  0  0  0  0  0
   41.4430   30.2860   39.1440 O   0  0  0  0  0  0  0  0  0  0  0  0
   40.7290   29.8900   41.4340 O   0  0  0  0  0  0  0  0  0  0  0  0
   36.2840   27.9100   42.2010 O   0  0  0  0  0  0  0  0  0  0  0  0
   37.5810   28.0270   42.7530 C   0  0  0  0  0  0  0  0  0  0  0  0
   37.9450   29.1810   43.1140 O   0  0  0  0  0  0  0  0  0  0  0  0
   38.3320   26.8210   42.8390 C   0  0  0  0  0  0  0  0  0  0  0  0
   39.4930   26.8960   43.5530 C   0  0  0  0  0  0  0  0  0  0  0  0
   40.2800   25.7540   43.6800 C   0  0  0  0  0  0  0  0  0  0  0  0
   39.8450   24.6300   43.0850 N   0  0  0  0  0  0  0  0  0  0  0  0
   38.7090   24.5740   42.3920 C   0  0  0  0  0  0  0  0  0  0  0  0
   37.9590   25.6860   42.2780 N   0  0  0  0  0  0  0  0  0  0  0  0
   39.8580   27.7710   44.0310 H   0  0  0  0  0  0  0  0  0  0  0  0
   41.2070   25.7670   44.2350 H   0  0  0  0  0  0  0  0  0  0  0  0
   38.3190   23.6830   41.8940 H   0  0  0  0  0  0  0  0  0  0  0  0
  1 27  1  0  0  0  0
  2  1  2  0  0  0  0
  2  6  1  0  0  0  0
  3  2  1  0  0  0  0
  4  3  2  0  0  0  0
  4  5  1  0  0  0  0
  5  1  1  0  0  0  0
  7  3  1  0  0  0  0
  8 11  1  6  0  0  0
  8  4  1  0  0  0  0
  9  8  1  0  0  0  0
  9 13  1  0  0  0  0
 10 14  1  6  0  0  0
 10  9  1  0  0  0  0
 10  8  1  0  0  0  0
 10 16  1  0  0  0  0
 12  9  1  0  0  0  0
 15 24  1  0  0  0  0
 15 22  1  0  0  0  0
 16 15  2  0  0  0  0
 17 16  1  0  0  0  0
 17 19  2  0  0  0  0
 18 17  1  0  0  0  0
 19 21  1  0  0  0  0
 20 19  1  0  0  0  0
 21 22  2  0  0  0  0
 23 24  1  0  0  0  0
 24 26  2  0  0  0  0
 25 24  2  0  0  0  0
 27 28  1  0  0  0  0
 28 30  1  0  0  0  0
 28 29  2  0  0  0  0
 30 31  1  0  0  0  0
 31 32  2  0  0  0  0
 31 36  1  0  0  0  0
 32 37  1  0  0  0  0
 33 32  1  0  0  0  0
 34 33  2  0  0  0  0
 35 34  1  0  0  0  0
 35 30  2  0  0  0  0
 38 34  1  0  0  0  0
M  END
>  <minimizedAffinity>
-5.61923885

$$$$

 OpenBabel03242518373D

 38 41  0  0  1  0  0  0  0  0999 V2000
   36.6010   28.6060   39.5190 C   0  0  0  0  0  0  0  0  0  0  0  0
   37.3820   27.5370   39.0730 C   0  0  0  0  0  0  0  0  0  0  0  0
   37.6220   26.6920   40.1270 C   0  0  0  0  0  0  0  0  0  0  0  0
   36.9760   27.2750   41.1870 C   0  0  0  0  0  0  0  0  0  0  0  0
   36.3860   28.3920   40.8160 O   0  0  0  0  0  0  0  0  0  0  0  0
   37.6940   27.4880   38.0280 H   0  0  0  0  0  0  0  0  0  0  0  0
   38.2020   25.7860   40.0500 H   0  0  0  0  0  0  0  0  0  0  0  0
   36.9380   26.7310   42.5560 C   0  0  2  0  0  0  0  0  0  0  0  0
   36.5940   27.6210   43.6790 C   0  0  0  0  0  0  0  0  0  0  0  0
   38.0230   27.2850   43.4850 C   0  0  2  0  0  0  0  0  0  0  0  0
   36.7370   25.6440   42.6680 H   0  0  0  0  0  0  0  0  0  0  0  0
   36.0540   27.2120   44.5790 H   0  0  0  0  0  0  0  0  0  0  0  0
   36.2080   28.6190   43.4010 H   0  0  0  0  0  0  0  0  0  0  0  0
   38.4090   26.5290   44.2060 H   0  0  0  0  0  0  0  0  0  0  0  0
   40.3040   28.0080   42.4330 C   0  0  0  0  0  0  0  0  0  0  0  0
   39.0440   28.1710   42.9570 C   0  0  0  0  0  0  0  0  0  0  0  0
   38.6060   29.5030   43.0410 C   0  0  0  0  0  0  0  0  0  0  0  0
   37.6390   29.8730   43.4240 H   0  0  0  0  0  0  0  0  0  0  0  0
   39.3940   30.5790   42.6220 C   0  0  0  0  0  0  0  0  0  0  0  0
   39.0970   31.6120   42.6680 H   0  0  0  0  0  0  0  0  0  0  0  0
   40.6410   30.3590   42.1090 C   0  0  0  0  0  3  0  0  0  0  0  0
   41.0900   29.0610   42.0180 C   0  0  0  0  0  3  0  0  0  0  0  0
   39.9870   25.5360   41.6540 H   0  0  0  0  0  0  0  0  0  0  0  0
   40.8300   26.3560   42.3080 S   0  0  0  0  0  0  0  0  0  0  0  0
   42.1060   26.4030   41.4600 O   0  0  0  0  0  0  0  0  0  0  0  0
   41.2640   25.8190   43.6640 O   0  0  0  0  0  0  0  0  0  0  0  0
   36.0780   29.7360   38.8550 O   0  0  0  0  0  0  0  0  0  0  0  0
   36.9470   30.5180   38.0590 C   0  0  0  0  0  0  0  0  0  0  0  0
   36.9410   30.2920   36.8170 O   0  0  0  0  0  0  0  0  0  0  0  0
   37.7330   31.4780   38.7560 C   0  0  0  0  0  0  0  0  0  0  0  0
   39.0670   31.4740   38.4670 C   0  0  0  0  0  0  0  0  0  0  0  0
   39.8990   32.3860   39.1120 C   0  0  0  0  0  0  0  0  0  0  0  0
   39.3330   33.2280   39.9930 N   0  0  0  0  0  0  0  0  0  0  0  0
   38.0290   33.2190   40.2630 C   0  0  0  0  0  0  0  0  0  0  0  0
   37.2370   32.3320   39.6320 N   0  0  0  0  0  0  0  0  0  0  0  0
   39.5370   30.8190   37.7760 H   0  0  0  0  0  0  0  0  0  0  0  0
   40.9600   32.4180   38.9140 H   0  0  0  0  0  0  0  0  0  0  0  0
   37.5290   33.8860   40.9710 H   0  0  0  0  0  0  0  0  0  0  0  0
  1  5  1  0  0  0  0
  2  1  2  0  0  0  0
  2  3  1  0  0  0  0
  3  4  2  0  0  0  0
  4  8  1  0  0  0  0
  5  4  1  0  0  0  0
  6  2  1  0  0  0  0
  7  3  1  0  0  0  0
  8 11  1  1  0  0  0
  8 10  1  0  0  0  0
  8  9  1  0  0  0  0
  9 12  1  0  0  0  0
 10  9  1  0  0  0  0
 10 14  1  1  0  0  0
 13  9  1  0  0  0  0
 15 16  1  0  0  0  0
 16 17  2  0  0  0  0
 16 10  1  0  0  0  0
 17 18  1  0  0  0  0
 19 20  1  0  0  0  0
 19 17  1  0  0  0  0
 21 19  2  0  0  0  0
 22 21  1  0  0  0  0
 22 15  2  0  0  0  0
 23 24  1  0  0  0  0
 24 15  1  0  0  0  0
 24 26  2  0  0  0  0
 25 24  2  0  0  0  0
 27  1  1  0  0  0  0
 28 30  1  0  0  0  0
 28 27  1  0  0  0  0
 29 28  2  0  0  0  0
 30 35  1  0  0  0  0
 31 30  2  0  0  0  0
 31 32  1  0  0  0  0
 32 33  2  0  0  0  0
 33 34  1  0  0  0  0
 34 38  1  0  0  0  0
 35 34  2  0  0  0  0
 36 31  1  0  0  0  0
 37 32  1  0  0  0  0
M  END
>  <minimizedAffinity>
-5.52365589

$$$$

 OpenBabel03242518373D

 38 41  0  0  1  0  0  0  0  0999 V2000
   37.4520   29.4220   42.0240 C   0  0  0  0  0  0  0  0  0  0  0  0
   36.2040   29.5770   41.4160 C   0  0  0  0  0  0  0  0  0  0  0  0
   36.2070   30.7380   40.6850 C   0  0  0  0  0  0  0  0  0  0  0  0
   37.4630   31.2570   40.8720 C   0  0  0  0  0  0  0  0  0  0  0  0
   38.1770   30.4780   41.6580 O   0  0  0  0  0  0  0  0  0  0  0  0
   35.4260   28.8270   41.5700 H   0  0  0  0  0  0  0  0  0  0  0  0
   35.3610   31.0900   40.1150 H   0  0  0  0  0  0  0  0  0  0  0  0
   37.9550   32.5110   40.2770 C   0  0  2  0  0  0  0  0  0  0  0  0
   37.2020   33.1340   39.1740 C   0  0  0  0  0  0  0  0  0  0  0  0
   38.4270   32.3780   38.8250 C   0  0  2  0  0  0  0  0  0  0  0  0
   38.5870   33.1660   40.9150 H   0  0  0  0  0  0  0  0  0  0  0  0
   37.1990   34.2540   39.0540 H   0  0  0  0  0  0  0  0  0  0  0  0
   36.2020   32.7080   38.9740 H   0  0  0  0  0  0  0  0  0  0  0  0
   39.3020   33.0240   38.5890 H   0  0  0  0  0  0  0  0  0  0  0  0
   39.3560   30.0170   38.1950 C   0  0  0  0  0  0  0  0  0  0  0  0
   38.4730   31.0710   38.1960 C   0  0  0  0  0  0  0  0  0  0  0  0
   37.3360   30.8910   37.3910 C   0  0  0  0  0  0  0  0  0  0  0  0
   36.4990   31.5940   37.2380 H   0  0  0  0  0  0  0  0  0  0  0  0
   37.1210   29.7280   36.6460 C   0  0  0  0  0  0  0  0  0  0  0  0
   36.2660   29.5500   36.0190 H   0  0  0  0  0  0  0  0  0  0  0  0
   38.0330   28.7110   36.6820 C   0  0  0  0  0  3  0  0  0  0  0  0
   39.1550   28.8670   37.4650 C   0  0  0  0  0  3  0  0  0  0  0  0
   40.7070   31.3170   40.0130 H   0  0  0  0  0  0  0  0  0  0  0  0
   40.7470   30.2350   39.2140 S   0  0  0  0  0  0  0  0  0  0  0  0
   40.7500   29.0240   40.1540 O   0  0  0  0  0  0  0  0  0  0  0  0
   42.0330   30.1260   38.4080 O   0  0  0  0  0  0  0  0  0  0  0  0
   37.9740   28.4190   42.8690 O   0  0  0  0  0  0  0  0  0  0  0  0
   37.2740   27.1940   42.9810 C   0  0  0  0  0  0  0  0  0  0  0  0
   36.2230   27.2010   43.6790 O   0  0  0  0  0  0  0  0  0  0  0  0
   37.8420   26.0880   42.2880 C   0  0  0  0  0  0  0  0  0  0  0  0
   37.0210   25.0110   42.1190 C   0  0  0  0  0  0  0  0  0  0  0  0
   37.5090   23.8920   41.4490 C   0  0  0  0  0  0  0  0  0  0  0  0
   38.7760   23.9370   41.0050 N   0  0  0  0  0  0  0  0  0  0  0  0
   39.5650   24.9970   41.1780 C   0  0  0  0  0  0  0  0  0  0  0  0
   39.0790   26.0720   41.8270 N   0  0  0  0  0  0  0  0  0  0  0  0
   36.0180   24.9510   42.4610 H   0  0  0  0  0  0  0  0  0  0  0  0
   36.8950   23.0170   41.2930 H   0  0  0  0  0  0  0  0  0  0  0  0
   40.5980   25.0750   40.8330 H   0  0  0  0  0  0  0  0  0  0  0  0
  1 27  1  0  0  0  0
  2  6  1  0  0  0  0
  2  1  2  0  0  0  0
  3  4  2  0  0  0  0
  3  2  1  0  0  0  0
  4  5  1  0  0  0  0
  5  1  1  0  0  0  0
  7  3  1  0  0  0  0
  8  4  1  0  0  0  0
  8 11  1  1  0  0  0
  9  8  1  0  0  0  0
 10 14  1  6  0  0  0
 10  9  1  0  0  0  0
 10  8  1  0  0  0  0
 12  9  1  0  0  0  0
 13  9  1  0  0  0  0
 15 16  1  0  0  0  0
 15 24  1  0  0  0  0
 16 10  1  0  0  0  0
 17 16  2  0  0  0  0
 18 17  1  0  0  0  0
 19 21  2  0  0  0  0
 19 17  1  0  0  0  0
 20 19  1  0  0  0  0
 21 22  1  0  0  0  0
 22 15  2  0  0  0  0
 24 23  1  0  0  0  0
 24 25  2  0  0  0  0
 26 24  2  0  0  0  0
 27 28  1  0  0  0  0
 28 29  2  0  0  0  0
 30 28  1  0  0  0  0
 31 30  1  0  0  0  0
 31 36  1  0  0  0  0
 32 31  2  0  0  0  0
 33 34  2  0  0  0  0
 33 32  1  0  0  0  0
 34 35  1  0  0  0  0
 35 30  2  0  0  0  0
 37 32  1  0  0  0  0
 38 34  1  0  0  0  0
M  END
>  <minimizedAffinity>
-5.51047325

$$$$

 OpenBabel03242518373D

 38 41  0  0  1  0  0  0  0  0999 V2000
   36.7280   27.3110   38.7370 C   0  0  0  0  0  0  0  0  0  0  0  0
   38.0610   27.1730   38.3420 C   0  0  0  0  0  0  0  0  0  0  0  0
   38.6100   26.1020   39.0000 C   0  0  0  0  0  0  0  0  0  0  0  0
   37.5910   25.6190   39.7790 C   0  0  0  0  0  0  0  0  0  0  0  0
   36.4990   26.3370   39.6160 O   0  0  0  0  0  0  0  0  0  0  0  0
   38.4890   27.8670   37.6160 H   0  0  0  0  0  0  0  0  0  0  0  0
   39.6320   25.7790   38.8710 H   0  0  0  0  0  0  0  0  0  0  0  0
   37.6920   24.4550   40.6760 C   0  0  2  0  0  0  0  0  0  0  0  0
   36.6630   24.2470   41.7120 C   0  0  0  0  0  0  0  0  0  0  0  0
   37.9630   24.8100   42.1420 C   0  0  2  0  0  0  0  0  0  0  0  0
   38.2440   23.5670   40.3010 H   0  0  0  0  0  0  0  0  0  0  0  0
   36.3870   23.2030   42.0320 H   0  0  0  0  0  0  0  0  0  0  0  0
   35.7680   24.8920   41.6360 H   0  0  0  0  0  0  0  0  0  0  0  0
   38.6240   24.0750   42.6550 H   0  0  0  0  0  0  0  0  0  0  0  0
   39.3250   26.9950   42.5970 C   0  0  0  0  0  0  0  0  0  0  0  0
   38.2140   26.1890   42.5180 C   0  0  0  0  0  0  0  0  0  0  0  0
   37.0110   26.8020   42.9060 C   0  0  0  0  0  0  0  0  0  0  0  0
   36.0010   26.3550   42.9250 H   0  0  0  0  0  0  0  0  0  0  0  0
   36.9500   28.1290   43.3390 C   0  0  0  0  0  0  0  0  0  0  0  0
   36.0520   28.6360   43.6430 H   0  0  0  0  0  0  0  0  0  0  0  0
   38.0880   28.8850   43.3980 C   0  0  0  0  0  3  0  0  0  0  0  0
   39.2780   28.3040   43.0230 C   0  0  0  0  0  3  0  0  0  0  0  0
   40.7830   25.7060   40.8560 H   0  0  0  0  0  0  0  0  0  0  0  0
   40.8060   26.2400   42.0910 S   0  0  0  0  0  0  0  0  0  0  0  0
   41.8370   27.3730   42.0350 O   0  0  0  0  0  0  0  0  0  0  0  0
   41.3180   25.2780   43.1540 O   0  0  0  0  0  0  0  0  0  0  0  0
   35.7240   28.2330   38.3710 O   0  0  0  0  0  0  0  0  0  0  0  0
   35.4120   29.2880   39.2610 C   0  0  0  0  0  0  0  0  0  0  0  0
   34.3900   29.1380   39.9850 O   0  0  0  0  0  0  0  0  0  0  0  0
   36.2950   30.4040   39.2360 C   0  0  0  0  0  0  0  0  0  0  0  0
   36.5360   30.9950   40.4420 C   0  0  0  0  0  0  0  0  0  0  0  0
   37.3910   32.0940   40.4950 C   0  0  0  0  0  0  0  0  0  0  0  0
   37.9340   32.5140   39.3410 N   0  0  0  0  0  0  0  0  0  0  0  0
   37.6890   31.9250   38.1710 C   0  0  0  0  0  0  0  0  0  0  0  0
   36.8610   30.8640   38.1360 N   0  0  0  0  0  0  0  0  0  0  0  0
   36.1190   30.6820   41.3670 H   0  0  0  0  0  0  0  0  0  0  0  0
   37.6090   32.5930   41.4280 H   0  0  0  0  0  0  0  0  0  0  0  0
   38.1100   32.2340   37.2110 H   0  0  0  0  0  0  0  0  0  0  0  0
  1  5  1  0  0  0  0
  2  1  2  0  0  0  0
  2  3  1  0  0  0  0
  3  4  2  0  0  0  0
  4  8  1  0  0  0  0
  5  4  1  0  0  0  0
  6  2  1  0  0  0  0
  7  3  1  0  0  0  0
  8 11  1  6  0  0  0
  8  9  1  0  0  0  0
  8 10  1  0  0  0  0
  9 12  1  0  0  0  0
  9 10  1  0  0  0  0
 10 16  1  0  0  0  0
 10 14  1  1  0  0  0
 13  9  1  0  0  0  0
 15 22  1  0  0  0  0
 16 15  2  0  0  0  0
 16 17  1  0  0  0  0
 17 18  1  0  0  0  0
 17 19  2  0  0  0  0
 19 21  1  0  0  0  0
 19 20  1  0  0  0  0
 22 21  2  0  0  0  0
 23 24  1  0  0  0  0
 24 15  1  0  0  0  0
 24 26  2  0  0  0  0
 25 24  2  0  0  0  0
 27  1  1  0  0  0  0
 27 28  1  0  0  0  0
 28 29  2  0  0  0  0
 30 28  1  0  0  0  0
 30 31  1  0  0  0  0
 31 32  2  0  0  0  0
 31 36  1  0  0  0  0
 32 37  1  0  0  0  0
 33 32  1  0  0  0  0
 34 33  2  0  0  0  0
 35 34  1  0  0  0  0
 35 30  2  0  0  0  0
 38 34  1  0  0  0  0
M  END
>  <minimizedAffinity>
-5.5004158

$$$$

 OpenBabel03242518373D

 38 41  0  0  1  0  0  0  0  0999 V2000
   38.7540   29.9680   40.2290 C   0  0  0  0  0  0  0  0  0  0  0  0
   39.0640   30.4470   41.5040 C   0  0  0  0  0  0  0  0  0  0  0  0
   38.3000   29.7790   42.4280 C   0  0  0  0  0  0  0  0  0  0  0  0
   37.5450   28.9100   41.6830 C   0  0  0  0  0  0  0  0  0  0  0  0
   37.8210   29.0330   40.4010 O   0  0  0  0  0  0  0  0  0  0  0  0
   39.8130   31.2320   41.6240 H   0  0  0  0  0  0  0  0  0  0  0  0
   38.3480   29.9610   43.4900 H   0  0  0  0  0  0  0  0  0  0  0  0
   36.5620   27.9610   42.2330 C   0  0  2  0  0  0  0  0  0  0  0  0
   36.6210   27.6020   43.6610 C   0  0  0  0  0  0  0  0  0  0  0  0
   37.1580   26.6250   42.6870 C   0  0  2  0  0  0  0  0  0  0  0  0
   35.5820   27.8830   41.7140 H   0  0  0  0  0  0  0  0  0  0  0  0
   35.6760   27.3520   44.2210 H   0  0  0  0  0  0  0  0  0  0  0  0
   37.3040   28.2110   44.2820 H   0  0  0  0  0  0  0  0  0  0  0  0
   36.4840   25.7580   42.5000 H   0  0  0  0  0  0  0  0  0  0  0  0
   39.2960   25.8670   41.3860 C   0  0  0  0  0  0  0  0  0  0  0  0
   38.5620   26.3410   42.4470 C   0  0  0  0  0  0  0  0  0  0  0  0
   39.3050   26.6080   43.6090 C   0  0  0  0  0  0  0  0  0  0  0  0
   38.9330   26.9920   44.5750 H   0  0  0  0  0  0  0  0  0  0  0  0
   40.6860   26.4070   43.6780 C   0  0  0  0  0  0  0  0  0  0  0  0
   41.2920   26.5990   44.5460 H   0  0  0  0  0  0  0  0  0  0  0  0
   41.3670   25.9330   42.5920 C   0  0  0  0  0  3  0  0  0  0  0  0
   40.6580   25.6650   41.4430 C   0  0  0  0  0  3  0  0  0  0  0  0
   37.1050   26.0080   39.9720 H   0  0  0  0  0  0  0  0  0  0  0  0
   38.3750   25.5640   39.9440 S   0  0  0  0  0  0  0  0  0  0  0  0
   39.0740   26.3700   38.8430 O   0  0  0  0  0  0  0  0  0  0  0  0
   38.4960   24.1070   39.5190 O   0  0  0  0  0  0  0  0  0  0  0  0
   39.2410   30.3050   38.9490 O   0  0  0  0  0  0  0  0  0  0  0  0
   38.9980   31.6060   38.4500 C   0  0  0  0  0  0  0  0  0  0  0  0
   37.8070   31.8840   38.1390 O   0  0  0  0  0  0  0  0  0  0  0  0
   40.1340   32.4580   38.3560 C   0  0  0  0  0  0  0  0  0  0  0  0
   40.2410   33.4120   39.3270 C   0  0  0  0  0  0  0  0  0  0  0  0
   41.3280   34.2820   39.3000 C   0  0  0  0  0  0  0  0  0  0  0  0
   42.2190   34.1320   38.3060 N   0  0  0  0  0  0  0  0  0  0  0  0
   42.1000   33.1950   37.3660 C   0  0  0  0  0  0  0  0  0  0  0  0
   41.0440   32.3610   37.4060 N   0  0  0  0  0  0  0  0  0  0  0  0
   39.5500   33.5510   40.1220 H   0  0  0  0  0  0  0  0  0  0  0  0
   41.4520   35.0520   40.0470 H   0  0  0  0  0  0  0  0  0  0  0  0
   42.8010   33.0390   36.5420 H   0  0  0  0  0  0  0  0  0  0  0  0
  1  5  1  0  0  0  0
  1  2  2  0  0  0  0
  2  6  1  0  0  0  0
  2  3  1  0  0  0  0
  3  7  1  0  0  0  0
  4  8  1  0  0  0  0
  4  3  2  0  0  0  0
  5  4  1  0  0  0  0
  8 11  1  6  0  0  0
  8 10  1  0  0  0  0
  8  9  1  0  0  0  0
  9 12  1  0  0  0  0
  9 13  1  0  0  0  0
 10 14  1  6  0  0  0
 10  9  1  0  0  0  0
 15 22  2  0  0  0  0
 15 16  1  0  0  0  0
 16 10  1  0  0  0  0
 16 17  2  0  0  0  0
 17 19  1  0  0  0  0
 17 18  1  0  0  0  0
 19 20  1  0  0  0  0
 21 19  2  0  0  0  0
 22 21  1  0  0  0  0
 24 23  1  0  0  0  0
 24 15  1  0  0  0  0
 25 24  2  0  0  0  0
 26 24  2  0  0  0  0
 27  1  1  0  0  0  0
 28 27  1  0  0  0  0
 29 28  2  0  0  0  0
 30 28  1  0  0  0  0
 30 31  1  0  0  0  0
 31 36  1  0  0  0  0
 32 31  2  0  0  0  0
 32 37  1  0  0  0  0
 33 32  1  0  0  0  0
 34 35  1  0  0  0  0
 34 33  2  0  0  0  0
 35 30  2  0  0  0  0
 38 34  1  0  0  0  0
M  END
>  <minimizedAffinity>
-5.49341297

$$$$

 OpenBabel03242518373D

 38 41  0  0  1  0  0  0  0  0999 V2000
   39.4240   31.0420   41.5440 C   0  0  0  0  0  0  0  0  0  0  0  0
   40.3510   29.9990   41.4770 C   0  0  0  0  0  0  0  0  0  0  0  0
   39.8620   28.9250   42.1770 C   0  0  0  0  0  0  0  0  0  0  0  0
   38.6470   29.3490   42.6500 C   0  0  0  0  0  0  0  0  0  0  0  0
   38.4070   30.5870   42.2740 O   0  0  0  0  0  0  0  0  0  0  0  0
   41.2840   30.1330   40.9260 H   0  0  0  0  0  0  0  0  0  0  0  0
   40.3870   27.9870   42.2800 H   0  0  0  0  0  0  0  0  0  0  0  0
   37.7280   28.5360   43.4660 C   0  0  2  0  0  0  0  0  0  0  0  0
   37.7620   27.0670   43.3480 C   0  0  0  0  0  0  0  0  0  0  0  0
   36.6650   27.7840   42.6580 C   0  0  2  0  0  0  0  0  0  0  0  0
   37.3660   28.9760   44.4200 H   0  0  0  0  0  0  0  0  0  0  0  0
   37.5180   26.4230   44.2390 H   0  0  0  0  0  0  0  0  0  0  0  0
   38.6100   26.6500   42.7740 H   0  0  0  0  0  0  0  0  0  0  0  0
   35.6850   27.7160   43.1820 H   0  0  0  0  0  0  0  0  0  0  0  0
   37.0890   27.4150   40.1050 C   0  0  0  0  0  0  0  0  0  0  0  0
   36.5550   28.0020   41.2280 C   0  0  0  0  0  0  0  0  0  0  0  0
   35.7090   29.0940   40.9780 C   0  0  0  0  0  0  0  0  0  0  0  0
   35.1720   29.7150   41.7170 H   0  0  0  0  0  0  0  0  0  0  0  0
   35.4320   29.5490   39.6860 C   0  0  0  0  0  0  0  0  0  0  0  0
   34.7900   30.3790   39.4510 H   0  0  0  0  0  0  0  0  0  0  0  0
   35.9910   28.9280   38.6050 C   0  0  0  0  0  3  0  0  0  0  0  0
   36.8240   27.8540   38.8270 C   0  0  0  0  0  3  0  0  0  0  0  0
   38.0970   25.5990   41.6880 H   0  0  0  0  0  0  0  0  0  0  0  0
   38.1140   26.0470   40.4190 S   0  0  0  0  0  0  0  0  0  0  0  0
   37.5380   24.9090   39.5680 O   0  0  0  0  0  0  0  0  0  0  0  0
   39.5180   26.2850   39.8820 O   0  0  0  0  0  0  0  0  0  0  0  0
   39.4290   32.3460   41.0060 O   0  0  0  0  0  0  0  0  0  0  0  0
   39.2080   32.5090   39.6180 C   0  0  0  0  0  0  0  0  0  0  0  0
   38.0360   32.2970   39.1990 O   0  0  0  0  0  0  0  0  0  0  0  0
   40.3410   32.8970   38.8500 C   0  0  0  0  0  0  0  0  0  0  0  0
   40.7320   32.0150   37.8840 C   0  0  0  0  0  0  0  0  0  0  0  0
   41.8340   32.3280   37.0930 C   0  0  0  0  0  0  0  0  0  0  0  0
   42.4570   33.4940   37.3280 N   0  0  0  0  0  0  0  0  0  0  0  0
   42.0620   34.3450   38.2750 C   0  0  0  0  0  0  0  0  0  0  0  0
   40.9950   34.0290   39.0320 N   0  0  0  0  0  0  0  0  0  0  0  0
   40.2570   31.0870   37.6790 H   0  0  0  0  0  0  0  0  0  0  0  0
   42.1790   31.6590   36.3170 H   0  0  0  0  0  0  0  0  0  0  0  0
   42.5390   35.3030   38.4980 H   0  0  0  0  0  0  0  0  0  0  0  0
  1  5  1  0  0  0  0
  2  1  2  0  0  0  0
  2  3  1  0  0  0  0
  3  7  1  0  0  0  0
  3  4  2  0  0  0  0
  4  8  1  0  0  0  0
  5  4  1  0  0  0  0
  6  2  1  0  0  0  0
  8 11  1  1  0  0  0
  9  8  1  0  0  0  0
  9 12  1  0  0  0  0
 10 14  1  1  0  0  0
 10  9  1  0  0  0  0
 10  8  1  0  0  0  0
 13  9  1  0  0  0  0
 15 24  1  0  0  0  0
 15 16  1  0  0  0  0
 16 10  1  0  0  0  0
 17 16  2  0  0  0  0
 17 18  1  0  0  0  0
 19 17  1  0  0  0  0
 20 19  1  0  0  0  0
 21 22  1  0  0  0  0
 21 19  2  0  0  0  0
 22 15  2  0  0  0  0
 24 23  1  0  0  0  0
 25 24  2  0  0  0  0
 26 24  2  0  0  0  0
 27  1  1  0  0  0  0
 28 27  1  0  0  0  0
 29 28  2  0  0  0  0
 30 35  1  0  0  0  0
 30 28  1  0  0  0  0
 31 30  2  0  0  0  0
 32 33  2  0  0  0  0
 32 31  1  0  0  0  0
 33 34  1  0  0  0  0
 34 38  1  0  0  0  0
 34 35  2  0  0  0  0
 36 31  1  0  0  0  0
 37 32  1  0  0  0  0
M  END
>  <minimizedAffinity>
-5.47772169

$$$$

 OpenBabel03242518373D

 38 41  0  0  1  0  0  0  0  0999 V2000
   36.5140   29.8060   38.7570 C   0  0  0  0  0  0  0  0  0  0  0  0
   35.3090   29.1040   38.8370 C   0  0  0  0  0  0  0  0  0  0  0  0
   35.5820   27.7600   38.8960 C   0  0  0  0  0  0  0  0  0  0  0  0
   36.9500   27.6860   38.8500 C   0  0  0  0  0  0  0  0  0  0  0  0
   37.4790   28.8890   38.7680 O   0  0  0  0  0  0  0  0  0  0  0  0
   34.3610   29.6450   38.8430 H   0  0  0  0  0  0  0  0  0  0  0  0
   34.8230   26.9960   38.9640 H   0  0  0  0  0  0  0  0  0  0  0  0
   37.7300   26.4370   38.8910 C   0  0  2  0  0  0  0  0  0  0  0  0
   37.2260   25.2930   39.6710 C   0  0  0  0  0  0  0  0  0  0  0  0
   38.3130   26.1020   40.2680 C   0  0  2  0  0  0  0  0  0  0  0  0
   38.4070   26.2290   38.0340 H   0  0  0  0  0  0  0  0  0  0  0  0
   37.4480   24.2400   39.3390 H   0  0  0  0  0  0  0  0  0  0  0  0
   36.1880   25.3850   40.0420 H   0  0  0  0  0  0  0  0  0  0  0  0
   39.3150   25.6190   40.2130 H   0  0  0  0  0  0  0  0  0  0  0  0
   38.8630   28.1550   41.7890 C   0  0  0  0  0  0  0  0  0  0  0  0
   38.1740   27.0460   41.3620 C   0  0  0  0  0  0  0  0  0  0  0  0
   37.0730   26.6900   42.1580 C   0  0  0  0  0  0  0  0  0  0  0  0
   36.3780   25.8450   42.0110 H   0  0  0  0  0  0  0  0  0  0  0  0
   36.7080   27.4110   43.2980 C   0  0  0  0  0  0  0  0  0  0  0  0
   35.8740   27.1740   43.9340 H   0  0  0  0  0  0  0  0  0  0  0  0
   37.4310   28.5070   43.6780 C   0  0  0  0  0  3  0  0  0  0  0  0
   38.5140   28.8730   42.9120 C   0  0  0  0  0  3  0  0  0  0  0  0
   39.9490   28.6460   39.4650 H   0  0  0  0  0  0  0  0  0  0  0  0
   40.2090   28.6060   40.7850 S   0  0  0  0  0  0  0  0  0  0  0  0
   40.5460   30.0460   41.1870 O   0  0  0  0  0  0  0  0  0  0  0  0
   41.4440   27.7870   41.1320 O   0  0  0  0  0  0  0  0  0  0  0  0
   36.7990   31.1860   38.6780 O   0  0  0  0  0  0  0  0  0  0  0  0
   37.3900   31.8230   39.7940 C   0  0  0  0  0  0  0  0  0  0  0  0
   36.7810   31.7220   40.8950 O   0  0  0  0  0  0  0  0  0  0  0  0
   38.6120   32.5080   39.5440 C   0  0  0  0  0  0  0  0  0  0  0  0
   38.8300   33.6240   40.2990 C   0  0  0  0  0  0  0  0  0  0  0  0
   40.0050   34.3470   40.1090 C   0  0  0  0  0  0  0  0  0  0  0  0
   40.8670   33.8980   39.1820 N   0  0  0  0  0  0  0  0  0  0  0  0
   40.6400   32.8060   38.4530 C   0  0  0  0  0  0  0  0  0  0  0  0
   39.4990   32.1180   38.6480 N   0  0  0  0  0  0  0  0  0  0  0  0
   38.1640   33.9990   41.0370 H   0  0  0  0  0  0  0  0  0  0  0  0
   40.2190   35.2360   40.6840 H   0  0  0  0  0  0  0  0  0  0  0  0
   41.3130   32.4070   37.6910 H   0  0  0  0  0  0  0  0  0  0  0  0
  1  5  1  0  0  0  0
  1  2  2  0  0  0  0
  2  6  1  0  0  0  0
  2  3  1  0  0  0  0
  3  7  1  0  0  0  0
  4  8  1  0  0  0  0
  4  3  2  0  0  0  0
  5  4  1  0  0  0  0
  8 11  1  6  0  0  0
  8  9  1  0  0  0  0
  8 10  1  0  0  0  0
  9 13  1  0  0  0  0
  9 10  1  0  0  0  0
 10 14  1  6  0  0  0
 10 16  1  0  0  0  0
 12  9  1  0  0  0  0
 15 22  1  0  0  0  0
 16 15  2  0  0  0  0
 16 17  1  0  0  0  0
 17 19  2  0  0  0  0
 18 17  1  0  0  0  0
 19 21  1  0  0  0  0
 19 20  1  0  0  0  0
 22 21  2  0  0  0  0
 23 24  1  0  0  0  0
 24 26  2  0  0  0  0
 24 25  2  0  0  0  0
 24 15  1  0  0  0  0
 27  1  1  0  0  0  0
 27 28  1  0  0  0  0
 28 29  2  0  0  0  0
 30 28  1  0  0  0  0
 30 31  1  0  0  0  0
 31 36  1  0  0  0  0
 32 31  2  0  0  0  0
 32 37  1  0  0  0  0
 33 32  1  0  0  0  0
 34 35  1  0  0  0  0
 34 33  2  0  0  0  0
 35 30  2  0  0  0  0
 38 34  1  0  0  0  0
M  END
>  <minimizedAffinity>
-5.43094397

$$$$

 OpenBabel03242518373D

 38 41  0  0  1  0  0  0  0  0999 V2000
   38.3340   28.7660   41.0500 C   0  0  0  0  0  0  0  0  0  0  0  0
   37.2620   29.3920   41.6920 C   0  0  0  0  0  0  0  0  0  0  0  0
   36.4420   29.9500   40.7430 C   0  0  0  0  0  0  0  0  0  0  0  0
   37.0430   29.6450   39.5490 C   0  0  0  0  0  0  0  0  0  0  0  0
   38.1470   28.9550   39.7450 O   0  0  0  0  0  0  0  0  0  0  0  0
   37.1930   29.3750   42.7810 H   0  0  0  0  0  0  0  0  0  0  0  0
   35.5390   30.4930   40.9760 H   0  0  0  0  0  0  0  0  0  0  0  0
   36.5280   30.0300   38.2230 C   0  0  2  0  0  0  0  0  0  0  0  0
   37.4340   30.0060   37.0600 C   0  0  0  0  0  0  0  0  0  0  0  0
   37.1290   31.3230   37.6640 C   0  0  2  0  0  0  0  0  0  0  0  0
   35.4390   29.9030   38.0410 H   0  0  0  0  0  0  0  0  0  0  0  0
   37.0320   29.7690   36.0350 H   0  0  0  0  0  0  0  0  0  0  0  0
   38.4160   29.5250   37.2260 H   0  0  0  0  0  0  0  0  0  0  0  0
   36.3990   31.9280   37.0790 H   0  0  0  0  0  0  0  0  0  0  0  0
   39.3830   32.1290   38.7150 C   0  0  0  0  0  0  0  0  0  0  0  0
   38.0280   32.1160   38.4820 C   0  0  0  0  0  0  0  0  0  0  0  0
   37.2950   33.0700   39.2060 C   0  0  0  0  0  0  0  0  0  0  0  0
   36.2050   33.2440   39.1810 H   0  0  0  0  0  0  0  0  0  0  0  0
   37.8980   33.9640   40.0950 C   0  0  0  0  0  0  0  0  0  0  0  0
   37.3740   34.7080   40.6670 H   0  0  0  0  0  0  0  0  0  0  0  0
   39.2500   33.9320   40.2890 C   0  0  0  0  0  3  0  0  0  0  0  0
   39.9890   33.0050   39.5900 C   0  0  0  0  0  3  0  0  0  0  0  0
   39.5780   30.2790   36.8820 H   0  0  0  0  0  0  0  0  0  0  0  0
   40.2890   30.9640   37.7970 S   0  0  0  0  0  0  0  0  0  0  0  0
   41.3090   31.7860   36.9990 O   0  0  0  0  0  0  0  0  0  0  0  0
   41.1140   30.0720   38.7130 O   0  0  0  0  0  0  0  0  0  0  0  0
   39.4450   28.0510   41.5460 O   0  0  0  0  0  0  0  0  0  0  0  0
   39.2240   27.0270   42.4960 C   0  0  0  0  0  0  0  0  0  0  0  0
   39.5980   27.2570   43.6800 O   0  0  0  0  0  0  0  0  0  0  0  0
   38.6020   25.8460   42.0040 C   0  0  0  0  0  0  0  0  0  0  0  0
   39.3950   25.0280   41.2510 C   0  0  0  0  0  0  0  0  0  0  0  0
   38.8530   23.8540   40.7350 C   0  0  0  0  0  0  0  0  0  0  0  0
   37.5650   23.5900   41.0110 N   0  0  0  0  0  0  0  0  0  0  0  0
   36.8050   24.3980   41.7470 C   0  0  0  0  0  0  0  0  0  0  0  0
   37.3420   25.5300   42.2400 N   0  0  0  0  0  0  0  0  0  0  0  0
   40.4140   25.2150   41.0190 H   0  0  0  0  0  0  0  0  0  0  0  0
   39.4440   23.1780   40.1340 H   0  0  0  0  0  0  0  0  0  0  0  0
   35.7550   24.2210   41.9950 H   0  0  0  0  0  0  0  0  0  0  0  0
  1 27  1  0  0  0  0
  1  2  2  0  0  0  0
  2  6  1  0  0  0  0
  3  7  1  0  0  0  0
  3  2  1  0  0  0  0
  4  5  1  0  0  0  0
  4  3  2  0  0  0  0
  5  1  1  0  0  0  0
  8 11  1  6  0  0  0
  8  4  1  0  0  0  0
  9 13  1  0  0  0  0
  9 10  1  0  0  0  0
  9  8  1  0  0  0  0
 10 14  1  6  0  0  0
 10  8  1  0  0  0  0
 10 16  1  0  0  0  0
 12  9  1  0  0  0  0
 15 22  1  0  0  0  0
 16 15  2  0  0  0  0
 16 17  1  0  0  0  0
 17 19  2  0  0  0  0
 18 17  1  0  0  0  0
 19 21  1  0  0  0  0
 19 20  1  0  0  0  0
 22 21  2  0  0  0  0
 23 24  1  0  0  0  0
 24 26  2  0  0  0  0
 24 15  1  0  0  0  0
 25 24  2  0  0  0  0
 27 28  1  0  0  0  0
 28 29  2  0  0  0  0
 30 35  1  0  0  0  0
 30 28  1  0  0  0  0
 31 30  2  0  0  0  0
 32 33  2  0  0  0  0
 32 31  1  0  0  0  0
 33 34  1  0  0  0  0
 34 38  1  0  0  0  0
 34 35  2  0  0  0  0
 36 31  1  0  0  0  0
 37 32  1  0  0  0  0
M  END
>  <minimizedAffinity>
-5.35400629

$$$$
