
 OpenBabel03252504163D

 38 40  0  0  0  0  0  0  0  0999 V2000
   34.9980   29.6120   39.4150 F   0  0  0  0  0  0  0  0  0  0  0  0
   35.2430   28.3460   38.9600 C   0  0  0  0  0  0  0  0  0  0  0  0
   34.5620   27.8570   37.8670 C   0  0  0  0  0  0  0  0  0  0  0  0
   34.8720   26.5610   37.4740 C   0  0  0  0  0  0  0  0  0  0  0  0
   35.8080   25.8100   38.1400 C   0  0  0  0  0  0  0  0  0  0  0  0
   36.4660   26.3510   39.2370 C   0  0  0  0  0  0  0  0  0  0  0  0
   36.1910   27.6520   39.6750 C   0  0  0  0  0  0  0  0  0  0  0  0
   34.3470   26.1640   36.6180 H   0  0  0  0  0  0  0  0  0  0  0  0
   36.0320   24.8100   37.8180 H   0  0  0  0  0  0  0  0  0  0  0  0
   37.2150   25.8060   39.8040 H   0  0  0  0  0  0  0  0  0  0  0  0
   37.9510   29.0490   40.5800 C   0  0  0  0  0  0  0  0  0  0  0  0
   36.8880   28.2110   40.8290 C   0  0  0  0  0  0  0  0  0  0  0  0
   36.5220   27.9290   42.1500 C   0  0  0  0  0  0  0  0  0  0  0  0
   35.6740   27.2600   42.2650 H   0  0  0  0  0  0  0  0  0  0  0  0
   37.2250   28.4910   43.1960 C   0  0  0  0  0  0  0  0  0  0  0  0
   36.8780   28.2220   44.1860 H   0  0  0  0  0  0  0  0  0  0  0  0
   38.2990   29.3380   42.9710 C   0  0  0  0  0  3  0  0  0  0  0  0
   38.6300   29.5920   41.6510 C   0  0  0  0  0  3  0  0  0  0  0  0
   37.7520   28.9150   38.0010 H   0  0  0  0  0  0  0  0  0  0  0  0
   38.5270   29.4950   38.9880 S   0  0  0  0  0  0  0  0  0  0  0  0
   39.9640   29.0720   38.8910 O   0  0  0  0  0  0  0  0  0  0  0  0
   38.4810   31.0080   38.8380 O   0  0  0  0  0  0  0  0  0  0  0  0
   31.6720   30.0010   37.3240 C   0  0  0  0  0  0  0  0  0  0  0  0
   31.6450   30.2000   35.9480 C   0  0  0  0  0  0  0  0  0  0  0  0
   32.6600   29.5730   35.1820 C   0  0  0  0  0  0  0  0  0  0  0  0
   33.5880   28.8240   35.8230 N   0  0  0  0  0  0  0  0  0  0  0  0
   33.5660   28.6640   37.1620 C   0  0  0  0  0  0  0  0  0  0  0  0
   32.6090   29.2520   37.9070 N   0  0  0  0  0  0  0  0  0  0  0  0
   32.6640   29.7100   34.1070 H   0  0  0  0  0  0  0  0  0  0  0  0
   30.5940   31.0370   35.3280 C   0  0  0  0  0  0  0  0  0  0  0  0
   30.6410   32.3120   35.8740 F   0  0  0  0  0  0  0  0  0  0  0  0
   30.9010   31.1690   33.9850 F   0  0  0  0  0  0  0  0  0  0  0  0
   29.3310   30.5650   35.4550 F   0  0  0  0  0  0  0  0  0  0  0  0
   30.6920   30.6100   38.0430 O   0  0  0  0  0  0  0  0  0  0  0  0
   29.6550   29.9800   38.7620 C   0  0  0  0  0  0  0  0  0  0  0  0
   28.7020   30.9530   39.0470 F   0  0  0  0  0  0  0  0  0  0  0  0
   29.1420   28.9380   38.0290 F   0  0  0  0  0  0  0  0  0  0  0  0
   30.1240   29.5700   39.9900 F   0  0  0  0  0  0  0  0  0  0  0  0
  2  1  1  0  0  0  0
  2  7  1  0  0  0  0
  3  2  2  0  0  0  0
  4  3  1  0  0  0  0
  4  5  2  0  0  0  0
  5  6  1  0  0  0  0
  6  7  2  0  0  0  0
  6 10  1  0  0  0  0
  7 12  1  0  0  0  0
  8  4  1  0  0  0  0
  9  5  1  0  0  0  0
 11 12  2  0  0  0  0
 11 18  1  0  0  0  0
 12 13  1  0  0  0  0
 13 14  1  0  0  0  0
 13 15  2  0  0  0  0
 15 16  1  0  0  0  0
 17 15  1  0  0  0  0
 18 17  2  0  0  0  0
 19 20  1  0  0  0  0
 20 11  1  0  0  0  0
 21 20  2  0  0  0  0
 22 20  2  0  0  0  0
 23 28  1  0  0  0  0
 23 34  1  0  0  0  0
 24 23  2  0  0  0  0
 25 26  2  0  0  0  0
 25 24  1  0  0  0  0
 26 27  1  0  0  0  0
 27  3  1  0  0  0  0
 27 28  2  0  0  0  0
 29 25  1  0  0  0  0
 30 33  1  0  0  0  0
 30 31  1  0  0  0  0
 30 24  1  0  0  0  0
 32 30  1  0  0  0  0
 34 35  1  0  0  0  0
 35 36  1  0  0  0  0
 35 38  1  0  0  0  0
 37 35  1  0  0  0  0
M  END
>  <minimizedAffinity>
-6.23425388

$$$$

 OpenBabel03252504163D

 38 40  0  0  0  0  0  0  0  0999 V2000
   38.2990   27.4290   40.0120 F   0  0  0  0  0  0  0  0  0  0  0  0
   37.6990   27.4320   41.2410 C   0  0  0  0  0  0  0  0  0  0  0  0
   37.5920   28.6020   41.9600 C   0  0  0  0  0  0  0  0  0  0  0  0
   36.9690   28.5130   43.1980 C   0  0  0  0  0  0  0  0  0  0  0  0
   36.4870   27.3220   43.6800 C   0  0  0  0  0  0  0  0  0  0  0  0
   36.6210   26.1700   42.9140 C   0  0  0  0  0  0  0  0  0  0  0  0
   37.2410   26.2050   41.6590 C   0  0  0  0  0  0  0  0  0  0  0  0
   36.8780   29.4220   43.7730 H   0  0  0  0  0  0  0  0  0  0  0  0
   36.0090   27.2760   44.6400 H   0  0  0  0  0  0  0  0  0  0  0  0
   36.2600   25.1990   43.2400 H   0  0  0  0  0  0  0  0  0  0  0  0
   38.6200   24.4040   40.8080 C   0  0  0  0  0  0  0  0  0  0  0  0
   37.3760   24.9890   40.8630 C   0  0  0  0  0  0  0  0  0  0  0  0
   36.3060   24.4100   40.1700 C   0  0  0  0  0  0  0  0  0  0  0  0
   35.3570   24.9290   40.2630 H   0  0  0  0  0  0  0  0  0  0  0  0
   36.5020   23.2590   39.4350 C   0  0  0  0  0  0  0  0  0  0  0  0
   35.6250   22.8750   38.9290 H   0  0  0  0  0  0  0  0  0  0  0  0
   37.7460   22.6520   39.3640 C   0  0  0  0  0  3  0  0  0  0  0  0
   38.7780   23.2540   40.0630 C   0  0  0  0  0  3  0  0  0  0  0  0
   39.9570   26.3700   41.8380 H   0  0  0  0  0  0  0  0  0  0  0  0
   40.0500   25.0080   41.6180 S   0  0  0  0  0  0  0  0  0  0  0  0
   41.2350   24.6590   40.7650 O   0  0  0  0  0  0  0  0  0  0  0  0
   40.2160   24.2940   42.9510 O   0  0  0  0  0  0  0  0  0  0  0  0
   38.0290   31.4590   39.7480 C   0  0  0  0  0  0  0  0  0  0  0  0
   39.0010   32.2330   40.3730 C   0  0  0  0  0  0  0  0  0  0  0  0
   39.5220   31.7520   41.6010 C   0  0  0  0  0  0  0  0  0  0  0  0
   39.0530   30.5800   42.0910 N   0  0  0  0  0  0  0  0  0  0  0  0
   38.1090   29.8690   41.4410 C   0  0  0  0  0  0  0  0  0  0  0  0
   37.6010   30.3100   40.2740 N   0  0  0  0  0  0  0  0  0  0  0  0
   40.2810   32.3340   42.1100 H   0  0  0  0  0  0  0  0  0  0  0  0
   39.4570   33.5030   39.7680 C   0  0  0  0  0  0  0  0  0  0  0  0
   38.3690   34.3480   39.6010 F   0  0  0  0  0  0  0  0  0  0  0  0
   40.3020   34.1200   40.6730 F   0  0  0  0  0  0  0  0  0  0  0  0
   40.0880   33.3810   38.5760 F   0  0  0  0  0  0  0  0  0  0  0  0
   37.5400   31.9350   38.5730 O   0  0  0  0  0  0  0  0  0  0  0  0
   37.6680   31.3400   37.3000 C   0  0  0  0  0  0  0  0  0  0  0  0
   38.8960   30.6870   37.2730 F   0  0  0  0  0  0  0  0  0  0  0  0
   36.6130   30.4890   37.0720 F   0  0  0  0  0  0  0  0  0  0  0  0
   37.7630   32.3200   36.3370 F   0  0  0  0  0  0  0  0  0  0  0  0
  1  2  1  0  0  0  0
  2  7  2  0  0  0  0
  2  3  1  0  0  0  0
  3  4  2  0  0  0  0
  4  5  1  0  0  0  0
  4  8  1  0  0  0  0
  5  9  1  0  0  0  0
  6 10  1  0  0  0  0
  6  5  2  0  0  0  0
  7  6  1  0  0  0  0
 11 12  1  0  0  0  0
 11 20  1  0  0  0  0
 12  7  1  0  0  0  0
 13 14  1  0  0  0  0
 13 12  2  0  0  0  0
 15 13  1  0  0  0  0
 16 15  1  0  0  0  0
 17 15  2  0  0  0  0
 17 18  1  0  0  0  0
 18 11  2  0  0  0  0
 20 19  1  0  0  0  0
 20 22  2  0  0  0  0
 21 20  2  0  0  0  0
 23 28  2  0  0  0  0
 23 24  1  0  0  0  0
 24 25  2  0  0  0  0
 25 26  1  0  0  0  0
 25 29  1  0  0  0  0
 27  3  1  0  0  0  0
 27 26  2  0  0  0  0
 28 27  1  0  0  0  0
 30 24  1  0  0  0  0
 30 32  1  0  0  0  0
 31 30  1  0  0  0  0
 33 30  1  0  0  0  0
 34 23  1  0  0  0  0
 35 34  1  0  0  0  0
 36 35  1  0  0  0  0
 37 35  1  0  0  0  0
 38 35  1  0  0  0  0
M  END
>  <minimizedAffinity>
-6.05761814

$$$$

 OpenBabel03252504163D

 38 40  0  0  0  0  0  0  0  0999 V2000
   40.1200   30.0070   40.9030 F   0  0  0  0  0  0  0  0  0  0  0  0
   39.1320   30.8840   40.5480 C   0  0  0  0  0  0  0  0  0  0  0  0
   39.4430   32.0480   39.8800 C   0  0  0  0  0  0  0  0  0  0  0  0
   38.3780   32.8800   39.5580 C   0  0  0  0  0  0  0  0  0  0  0  0
   37.0850   32.5580   39.8900 C   0  0  0  0  0  0  0  0  0  0  0  0
   36.8260   31.3720   40.5640 C   0  0  0  0  0  0  0  0  0  0  0  0
   37.8640   30.4970   40.9120 C   0  0  0  0  0  0  0  0  0  0  0  0
   38.6060   33.7950   39.0340 H   0  0  0  0  0  0  0  0  0  0  0  0
   36.2780   33.2170   39.6310 H   0  0  0  0  0  0  0  0  0  0  0  0
   35.8260   31.0630   40.8520 H   0  0  0  0  0  0  0  0  0  0  0  0
   37.2710   28.1490   40.8590 C   0  0  0  0  0  0  0  0  0  0  0  0
   37.5800   29.2530   41.6200 C   0  0  0  0  0  0  0  0  0  0  0  0
   37.6100   29.1470   43.0160 C   0  0  0  0  0  0  0  0  0  0  0  0
   37.8620   30.0610   43.5460 H   0  0  0  0  0  0  0  0  0  0  0  0
   37.3320   27.9400   43.6220 C   0  0  0  0  0  0  0  0  0  0  0  0
   37.3760   27.9420   44.7040 H   0  0  0  0  0  0  0  0  0  0  0  0
   37.0180   26.8140   42.8770 C   0  0  0  0  0  3  0  0  0  0  0  0
   36.9980   26.9590   41.5010 C   0  0  0  0  0  3  0  0  0  0  0  0
   38.0860   29.0270   38.5620 H   0  0  0  0  0  0  0  0  0  0  0  0
   37.1940   28.1240   39.1110 S   0  0  0  0  0  0  0  0  0  0  0  0
   35.7780   28.4290   38.7150 O   0  0  0  0  0  0  0  0  0  0  0  0
   37.5210   26.7260   38.6080 O   0  0  0  0  0  0  0  0  0  0  0  0
   42.5220   32.2460   37.9500 C   0  0  0  0  0  0  0  0  0  0  0  0
   43.3940   32.9590   38.7660 C   0  0  0  0  0  0  0  0  0  0  0  0
   42.9010   33.3860   40.0250 C   0  0  0  0  0  0  0  0  0  0  0  0
   41.6260   33.0800   40.3610 N   0  0  0  0  0  0  0  0  0  0  0  0
   40.8230   32.3840   39.5300 C   0  0  0  0  0  0  0  0  0  0  0  0
   41.2730   31.9700   38.3290 N   0  0  0  0  0  0  0  0  0  0  0  0
   43.5580   33.9430   40.6820 H   0  0  0  0  0  0  0  0  0  0  0  0
   44.7740   33.2520   38.3200 C   0  0  0  0  0  0  0  0  0  0  0  0
   45.3280   34.2190   39.1470 F   0  0  0  0  0  0  0  0  0  0  0  0
   45.5240   32.1030   38.4970 F   0  0  0  0  0  0  0  0  0  0  0  0
   44.8890   33.6710   37.0370 F   0  0  0  0  0  0  0  0  0  0  0  0
   43.0100   31.8450   36.7470 O   0  0  0  0  0  0  0  0  0  0  0  0
   43.3640   30.5320   36.3730 C   0  0  0  0  0  0  0  0  0  0  0  0
   44.2240   30.6330   35.2840 F   0  0  0  0  0  0  0  0  0  0  0  0
   43.9360   29.8790   37.4380 F   0  0  0  0  0  0  0  0  0  0  0  0
   42.2560   29.8710   35.8920 F   0  0  0  0  0  0  0  0  0  0  0  0
  2  1  1  0  0  0  0
  2  7  1  0  0  0  0
  3  2  2  0  0  0  0
  4  3  1  0  0  0  0
  4  5  2  0  0  0  0
  5  6  1  0  0  0  0
  6 10  1  0  0  0  0
  6  7  2  0  0  0  0
  7 12  1  0  0  0  0
  8  4  1  0  0  0  0
  9  5  1  0  0  0  0
 11 18  2  0  0  0  0
 11 12  1  0  0  0  0
 12 13  2  0  0  0  0
 13 14  1  0  0  0  0
 13 15  1  0  0  0  0
 15 16  1  0  0  0  0
 17 15  2  0  0  0  0
 18 17  1  0  0  0  0
 19 20  1  0  0  0  0
 20 11  1  0  0  0  0
 21 20  2  0  0  0  0
 22 20  2  0  0  0  0
 23 28  2  0  0  0  0
 23 24  1  0  0  0  0
 24 25  2  0  0  0  0
 25 26  1  0  0  0  0
 25 29  1  0  0  0  0
 27  3  1  0  0  0  0
 27 26  2  0  0  0  0
 28 27  1  0  0  0  0
 30 32  1  0  0  0  0
 30 24  1  0  0  0  0
 30 31  1  0  0  0  0
 33 30  1  0  0  0  0
 34 23  1  0  0  0  0
 35 34  1  0  0  0  0
 35 37  1  0  0  0  0
 36 35  1  0  0  0  0
 38 35  1  0  0  0  0
M  END
>  <minimizedAffinity>
-5.95130014

$$$$

 OpenBabel03252504163D

 38 40  0  0  0  0  0  0  0  0999 V2000
   38.0010   27.4390   39.8820 F   0  0  0  0  0  0  0  0  0  0  0  0
   37.4810   27.2880   41.1380 C   0  0  0  0  0  0  0  0  0  0  0  0
   37.2310   28.3910   41.9240 C   0  0  0  0  0  0  0  0  0  0  0  0
   36.7040   28.1440   43.1860 C   0  0  0  0  0  0  0  0  0  0  0  0
   36.4480   26.8690   43.6250 C   0  0  0  0  0  0  0  0  0  0  0  0
   36.7200   25.7910   42.7920 C   0  0  0  0  0  0  0  0  0  0  0  0
   37.2520   25.9840   41.5110 C   0  0  0  0  0  0  0  0  0  0  0  0
   36.5010   28.9990   43.8130 H   0  0  0  0  0  0  0  0  0  0  0  0
   36.0410   26.7030   44.6040 H   0  0  0  0  0  0  0  0  0  0  0  0
   36.5400   24.7610   43.0830 H   0  0  0  0  0  0  0  0  0  0  0  0
   38.8450   24.4420   40.5350 C   0  0  0  0  0  0  0  0  0  0  0  0
   37.5340   24.8440   40.6440 C   0  0  0  0  0  0  0  0  0  0  0  0
   36.5370   24.1610   39.9360 C   0  0  0  0  0  0  0  0  0  0  0  0
   35.5280   24.5370   40.0740 H   0  0  0  0  0  0  0  0  0  0  0  0
   36.8730   23.0900   39.1340 C   0  0  0  0  0  0  0  0  0  0  0  0
   36.0450   22.6170   38.6210 H   0  0  0  0  0  0  0  0  0  0  0  0
   38.1860   22.6670   39.0070 C   0  0  0  0  0  3  0  0  0  0  0  0
   39.1420   23.3670   39.7230 C   0  0  0  0  0  3  0  0  0  0  0  0
   39.9780   26.5460   41.5360 H   0  0  0  0  0  0  0  0  0  0  0  0
   40.1970   25.1930   41.3550 S   0  0  0  0  0  0  0  0  0  0  0  0
   41.4270   24.9310   40.5350 O   0  0  0  0  0  0  0  0  0  0  0  0
   40.3980   24.5310   42.7110 O   0  0  0  0  0  0  0  0  0  0  0  0
   39.0490   31.4750   41.2750 C   0  0  0  0  0  0  0  0  0  0  0  0
   38.1340   32.2800   40.6060 C   0  0  0  0  0  0  0  0  0  0  0  0
   36.8450   31.7390   40.3710 C   0  0  0  0  0  0  0  0  0  0  0  0
   36.5780   30.4840   40.8050 N   0  0  0  0  0  0  0  0  0  0  0  0
   37.5050   29.7470   41.4500 C   0  0  0  0  0  0  0  0  0  0  0  0
   38.7360   30.2440   41.6830 N   0  0  0  0  0  0  0  0  0  0  0  0
   36.1110   32.3430   39.8520 H   0  0  0  0  0  0  0  0  0  0  0  0
   38.5090   33.6410   40.1640 C   0  0  0  0  0  0  0  0  0  0  0  0
   37.3850   34.2890   39.6710 F   0  0  0  0  0  0  0  0  0  0  0  0
   38.9150   34.3480   41.2820 F   0  0  0  0  0  0  0  0  0  0  0  0
   39.4800   33.6950   39.2210 F   0  0  0  0  0  0  0  0  0  0  0  0
   40.2800   32.0090   41.4920 O   0  0  0  0  0  0  0  0  0  0  0  0
   41.4700   31.7030   40.7970 C   0  0  0  0  0  0  0  0  0  0  0  0
   41.1060   31.0360   39.6320 F   0  0  0  0  0  0  0  0  0  0  0  0
   42.1760   32.8540   40.5470 F   0  0  0  0  0  0  0  0  0  0  0  0
   42.2050   30.7870   41.5170 F   0  0  0  0  0  0  0  0  0  0  0  0
  1  2  1  0  0  0  0
  2  7  2  0  0  0  0
  2  3  1  0  0  0  0
  3  4  2  0  0  0  0
  4  5  1  0  0  0  0
  4  8  1  0  0  0  0
  5  9  1  0  0  0  0
  6 10  1  0  0  0  0
  6  5  2  0  0  0  0
  7  6  1  0  0  0  0
 11 12  1  0  0  0  0
 11 20  1  0  0  0  0
 12  7  1  0  0  0  0
 13 14  1  0  0  0  0
 13 12  2  0  0  0  0
 15 13  1  0  0  0  0
 16 15  1  0  0  0  0
 17 15  2  0  0  0  0
 17 18  1  0  0  0  0
 18 11  2  0  0  0  0
 20 19  1  0  0  0  0
 20 22  2  0  0  0  0
 21 20  2  0  0  0  0
 23 34  1  0  0  0  0
 23 28  1  0  0  0  0
 24 23  2  0  0  0  0
 25 24  1  0  0  0  0
 25 26  2  0  0  0  0
 26 27  1  0  0  0  0
 27 28  2  0  0  0  0
 27  3  1  0  0  0  0
 29 25  1  0  0  0  0
 30 24  1  0  0  0  0
 30 32  1  0  0  0  0
 31 30  1  0  0  0  0
 33 30  1  0  0  0  0
 35 34  1  0  0  0  0
 35 38  1  0  0  0  0
 36 35  1  0  0  0  0
 37 35  1  0  0  0  0
M  END
>  <minimizedAffinity>
-5.91453457

$$$$

 OpenBabel03252504163D

 38 40  0  0  0  0  0  0  0  0999 V2000
   39.2880   28.1360   41.0890 F   0  0  0  0  0  0  0  0  0  0  0  0
   38.1490   28.8910   41.0210 C   0  0  0  0  0  0  0  0  0  0  0  0
   38.2280   30.2650   40.9760 C   0  0  0  0  0  0  0  0  0  0  0  0
   37.0220   30.9520   40.9090 C   0  0  0  0  0  0  0  0  0  0  0  0
   35.8170   30.2950   40.8900 C   0  0  0  0  0  0  0  0  0  0  0  0
   35.7940   28.9070   40.9380 C   0  0  0  0  0  0  0  0  0  0  0  0
   36.9810   28.1660   41.0070 C   0  0  0  0  0  0  0  0  0  0  0  0
   37.0680   32.0300   40.8720 H   0  0  0  0  0  0  0  0  0  0  0  0
   34.8980   30.8470   40.8380 H   0  0  0  0  0  0  0  0  0  0  0  0
   34.8740   28.3310   40.9260 H   0  0  0  0  0  0  0  0  0  0  0  0
   36.8390   26.0360   39.8610 C   0  0  0  0  0  0  0  0  0  0  0  0
   36.9440   26.7080   41.0570 C   0  0  0  0  0  0  0  0  0  0  0  0
   37.0100   25.9850   42.2540 C   0  0  0  0  0  0  0  0  0  0  0  0
   37.0920   26.5850   43.1550 H   0  0  0  0  0  0  0  0  0  0  0  0
   36.9700   24.6070   42.2310 C   0  0  0  0  0  0  0  0  0  0  0  0
   37.0260   24.1240   43.1980 H   0  0  0  0  0  0  0  0  0  0  0  0
   36.8650   23.9080   41.0380 C   0  0  0  0  0  3  0  0  0  0  0  0
   36.8030   24.6570   39.8770 C   0  0  0  0  0  3  0  0  0  0  0  0
   37.3930   28.0200   38.2890 H   0  0  0  0  0  0  0  0  0  0  0  0
   36.7470   26.7980   38.2870 S   0  0  0  0  0  0  0  0  0  0  0  0
   35.2950   26.9340   37.9330 O   0  0  0  0  0  0  0  0  0  0  0  0
   37.3910   25.8920   37.2470 O   0  0  0  0  0  0  0  0  0  0  0  0
   40.9880   32.3670   39.8790 C   0  0  0  0  0  0  0  0  0  0  0  0
   41.9030   32.3080   40.9240 C   0  0  0  0  0  0  0  0  0  0  0  0
   41.5540   31.5140   42.0470 C   0  0  0  0  0  0  0  0  0  0  0  0
   40.3650   30.8670   42.0390 N   0  0  0  0  0  0  0  0  0  0  0  0
   39.5150   30.9590   40.9960 C   0  0  0  0  0  0  0  0  0  0  0  0
   39.8300   31.7080   39.9210 N   0  0  0  0  0  0  0  0  0  0  0  0
   42.2480   31.4490   42.8760 H   0  0  0  0  0  0  0  0  0  0  0  0
   43.1810   33.0490   40.8510 C   0  0  0  0  0  0  0  0  0  0  0  0
   43.8110   33.0010   42.0870 F   0  0  0  0  0  0  0  0  0  0  0  0
   44.0040   32.3810   39.9610 F   0  0  0  0  0  0  0  0  0  0  0  0
   43.0750   34.3460   40.4770 F   0  0  0  0  0  0  0  0  0  0  0  0
   41.3390   33.1320   38.8110 O   0  0  0  0  0  0  0  0  0  0  0  0
   41.6740   32.6770   37.5180 C   0  0  0  0  0  0  0  0  0  0  0  0
   40.4830   32.3670   36.8700 F   0  0  0  0  0  0  0  0  0  0  0  0
   42.3990   33.6380   36.8570 F   0  0  0  0  0  0  0  0  0  0  0  0
   42.3530   31.4820   37.6070 F   0  0  0  0  0  0  0  0  0  0  0  0
  2  1  1  0  0  0  0
  3 27  1  0  0  0  0
  3  2  2  0  0  0  0
  4  3  1  0  0  0  0
  5  4  2  0  0  0  0
  5  6  1  0  0  0  0
  6  7  2  0  0  0  0
  7  2  1  0  0  0  0
  7 12  1  0  0  0  0
  8  4  1  0  0  0  0
  9  5  1  0  0  0  0
 10  6  1  0  0  0  0
 11 18  2  0  0  0  0
 11 12  1  0  0  0  0
 12 13  2  0  0  0  0
 13 14  1  0  0  0  0
 15 13  1  0  0  0  0
 15 16  1  0  0  0  0
 17 15  2  0  0  0  0
 18 17  1  0  0  0  0
 20 19  1  0  0  0  0
 20 11  1  0  0  0  0
 21 20  2  0  0  0  0
 22 20  2  0  0  0  0
 23 28  2  0  0  0  0
 23 24  1  0  0  0  0
 24 25  2  0  0  0  0
 25 29  1  0  0  0  0
 26 25  1  0  0  0  0
 27 26  2  0  0  0  0
 28 27  1  0  0  0  0
 30 24  1  0  0  0  0
 30 31  1  0  0  0  0
 32 30  1  0  0  0  0
 33 30  1  0  0  0  0
 34 23  1  0  0  0  0
 35 38  1  0  0  0  0
 35 34  1  0  0  0  0
 36 35  1  0  0  0  0
 37 35  1  0  0  0  0
M  END
>  <minimizedAffinity>
-5.83618212

$$$$

 OpenBabel03252504163D

 38 40  0  0  0  0  0  0  0  0999 V2000
   38.9600   28.7250   39.0980 F   0  0  0  0  0  0  0  0  0  0  0  0
   38.0000   29.4850   39.7070 C   0  0  0  0  0  0  0  0  0  0  0  0
   38.2180   30.8240   39.9430 C   0  0  0  0  0  0  0  0  0  0  0  0
   37.1890   31.5190   40.5660 C   0  0  0  0  0  0  0  0  0  0  0  0
   36.0180   30.9020   40.9290 C   0  0  0  0  0  0  0  0  0  0  0  0
   35.8480   29.5480   40.6690 C   0  0  0  0  0  0  0  0  0  0  0  0
   36.8540   28.8010   40.0430 C   0  0  0  0  0  0  0  0  0  0  0  0
   37.3460   32.5700   40.7570 H   0  0  0  0  0  0  0  0  0  0  0  0
   35.2360   31.4590   41.4100 H   0  0  0  0  0  0  0  0  0  0  0  0
   34.9460   29.0050   40.9320 H   0  0  0  0  0  0  0  0  0  0  0  0
   37.0420   26.4940   40.7580 C   0  0  0  0  0  0  0  0  0  0  0  0
   36.6650   27.3790   39.7740 C   0  0  0  0  0  0  0  0  0  0  0  0
   36.1270   26.8950   38.5760 C   0  0  0  0  0  0  0  0  0  0  0  0
   35.8540   27.6540   37.8490 H   0  0  0  0  0  0  0  0  0  0  0  0
   35.9750   25.5370   38.3860 C   0  0  0  0  0  0  0  0  0  0  0  0
   35.5520   25.2460   37.4330 H   0  0  0  0  0  0  0  0  0  0  0  0
   36.3470   24.6260   39.3620 C   0  0  0  0  0  3  0  0  0  0  0  0
   36.8750   25.1430   40.5330 C   0  0  0  0  0  3  0  0  0  0  0  0
   38.4710   28.1060   42.1980 H   0  0  0  0  0  0  0  0  0  0  0  0
   37.7280   26.9450   42.3050 S   0  0  0  0  0  0  0  0  0  0  0  0
   38.5600   25.7910   42.7850 O   0  0  0  0  0  0  0  0  0  0  0  0
   36.6080   27.1560   43.3130 O   0  0  0  0  0  0  0  0  0  0  0  0
   41.1700   31.6460   37.9800 C   0  0  0  0  0  0  0  0  0  0  0  0
   41.8150   32.6290   38.7220 C   0  0  0  0  0  0  0  0  0  0  0  0
   41.2080   33.0210   39.9430 C   0  0  0  0  0  0  0  0  0  0  0  0
   40.0510   32.4250   40.3140 N   0  0  0  0  0  0  0  0  0  0  0  0
   39.4690   31.4750   39.5540 C   0  0  0  0  0  0  0  0  0  0  0  0
   40.0300   31.0890   38.3910 N   0  0  0  0  0  0  0  0  0  0  0  0
   41.6890   33.7850   40.5420 H   0  0  0  0  0  0  0  0  0  0  0  0
   43.0780   33.2290   38.2420 C   0  0  0  0  0  0  0  0  0  0  0  0
   42.8280   33.9670   37.0930 F   0  0  0  0  0  0  0  0  0  0  0  0
   43.5090   34.1270   39.2030 F   0  0  0  0  0  0  0  0  0  0  0  0
   44.0710   32.3480   37.9740 F   0  0  0  0  0  0  0  0  0  0  0  0
   41.7640   31.2820   36.8130 O   0  0  0  0  0  0  0  0  0  0  0  0
   42.2990   30.0150   36.4950 C   0  0  0  0  0  0  0  0  0  0  0  0
   43.2120   29.6920   37.4930 F   0  0  0  0  0  0  0  0  0  0  0  0
   41.2870   29.0930   36.3870 F   0  0  0  0  0  0  0  0  0  0  0  0
   43.0480   30.1040   35.3420 F   0  0  0  0  0  0  0  0  0  0  0  0
  1  2  1  0  0  0  0
  2  3  2  0  0  0  0
  2  7  1  0  0  0  0
  3  4  1  0  0  0  0
  4  8  1  0  0  0  0
  4  5  2  0  0  0  0
  5  9  1  0  0  0  0
  6  5  1  0  0  0  0
  6 10  1  0  0  0  0
  7  6  2  0  0  0  0
 11 20  1  0  0  0  0
 12  7  1  0  0  0  0
 12 11  2  0  0  0  0
 13 12  1  0  0  0  0
 14 13  1  0  0  0  0
 15 13  2  0  0  0  0
 15 17  1  0  0  0  0
 16 15  1  0  0  0  0
 17 18  2  0  0  0  0
 18 11  1  0  0  0  0
 19 20  1  0  0  0  0
 20 21  2  0  0  0  0
 20 22  2  0  0  0  0
 23 28  2  0  0  0  0
 23 24  1  0  0  0  0
 24 25  2  0  0  0  0
 25 26  1  0  0  0  0
 25 29  1  0  0  0  0
 27  3  1  0  0  0  0
 27 26  2  0  0  0  0
 28 27  1  0  0  0  0
 30 24  1  0  0  0  0
 30 32  1  0  0  0  0
 31 30  1  0  0  0  0
 33 30  1  0  0  0  0
 34 23  1  0  0  0  0
 35 34  1  0  0  0  0
 35 36  1  0  0  0  0
 37 35  1  0  0  0  0
 38 35  1  0  0  0  0
M  END
>  <minimizedAffinity>
-5.81835794

$$$$

 OpenBabel03252504163D

 38 40  0  0  0  0  0  0  0  0999 V2000
   39.5030   27.2500   40.7610 F   0  0  0  0  0  0  0  0  0  0  0  0
   38.5970   27.5340   41.7440 C   0  0  0  0  0  0  0  0  0  0  0  0
   38.7260   28.6790   42.4980 C   0  0  0  0  0  0  0  0  0  0  0  0
   37.7610   28.8880   43.4760 C   0  0  0  0  0  0  0  0  0  0  0  0
   36.7350   27.9980   43.6790 C   0  0  0  0  0  0  0  0  0  0  0  0
   36.6510   26.8580   42.8910 C   0  0  0  0  0  0  0  0  0  0  0  0
   37.5980   26.5990   41.8910 C   0  0  0  0  0  0  0  0  0  0  0  0
   37.8480   29.7810   44.0750 H   0  0  0  0  0  0  0  0  0  0  0  0
   36.0000   28.1800   44.4410 H   0  0  0  0  0  0  0  0  0  0  0  0
   35.8650   26.1180   43.0030 H   0  0  0  0  0  0  0  0  0  0  0  0
   36.9420   25.5320   39.8180 C   0  0  0  0  0  0  0  0  0  0  0  0
   37.5010   25.3980   41.0680 C   0  0  0  0  0  0  0  0  0  0  0  0
   37.9460   24.1420   41.4990 C   0  0  0  0  0  0  0  0  0  0  0  0
   38.3740   24.1180   42.4960 H   0  0  0  0  0  0  0  0  0  0  0  0
   37.8240   23.0460   40.6700 C   0  0  0  0  0  0  0  0  0  0  0  0
   38.1910   22.1130   41.0770 H   0  0  0  0  0  0  0  0  0  0  0  0
   37.2640   23.1560   39.4070 C   0  0  0  0  0  3  0  0  0  0  0  0
   36.8370   24.4130   39.0180 C   0  0  0  0  0  3  0  0  0  0  0  0
   35.8240   27.8480   40.1300 H   0  0  0  0  0  0  0  0  0  0  0  0
   36.3420   27.0310   39.1420 S   0  0  0  0  0  0  0  0  0  0  0  0
   35.3100   26.6810   38.1090 O   0  0  0  0  0  0  0  0  0  0  0  0
   37.4750   27.7560   38.4320 O   0  0  0  0  0  0  0  0  0  0  0  0
   40.4670   31.7040   41.4710 C   0  0  0  0  0  0  0  0  0  0  0  0
   41.7950   31.4700   41.8140 C   0  0  0  0  0  0  0  0  0  0  0  0
   42.0980   30.2250   42.4210 C   0  0  0  0  0  0  0  0  0  0  0  0
   41.0920   29.3430   42.6310 N   0  0  0  0  0  0  0  0  0  0  0  0
   39.8210   29.6220   42.2770 C   0  0  0  0  0  0  0  0  0  0  0  0
   39.5140   30.8000   41.6990 N   0  0  0  0  0  0  0  0  0  0  0  0
   43.1240   30.0160   42.6990 H   0  0  0  0  0  0  0  0  0  0  0  0
   42.8320   32.4910   41.5490 C   0  0  0  0  0  0  0  0  0  0  0  0
   44.0080   32.1270   42.1920 F   0  0  0  0  0  0  0  0  0  0  0  0
   43.1020   32.4740   40.1930 F   0  0  0  0  0  0  0  0  0  0  0  0
   42.5120   33.7510   41.9280 F   0  0  0  0  0  0  0  0  0  0  0  0
   40.1940   32.9020   40.8900 O   0  0  0  0  0  0  0  0  0  0  0  0
   39.8530   33.1300   39.5400 C   0  0  0  0  0  0  0  0  0  0  0  0
   40.3910   32.0840   38.7970 F   0  0  0  0  0  0  0  0  0  0  0  0
   38.4880   33.2200   39.4110 F   0  0  0  0  0  0  0  0  0  0  0  0
   40.4940   34.2590   39.0830 F   0  0  0  0  0  0  0  0  0  0  0  0
  1  2  1  0  0  0  0
  2  7  2  0  0  0  0
  2  3  1  0  0  0  0
  3  4  2  0  0  0  0
  4  5  1  0  0  0  0
  4  8  1  0  0  0  0
  5  9  1  0  0  0  0
  6 10  1  0  0  0  0
  6  5  2  0  0  0  0
  7  6  1  0  0  0  0
 11 12  1  0  0  0  0
 12 13  2  0  0  0  0
 12  7  1  0  0  0  0
 13 14  1  0  0  0  0
 15 16  1  0  0  0  0
 15 13  1  0  0  0  0
 17 15  2  0  0  0  0
 18 17  1  0  0  0  0
 18 11  2  0  0  0  0
 20 11  1  0  0  0  0
 20 19  1  0  0  0  0
 21 20  2  0  0  0  0
 22 20  2  0  0  0  0
 23 28  2  0  0  0  0
 23 24  1  0  0  0  0
 24 25  2  0  0  0  0
 25 26  1  0  0  0  0
 25 29  1  0  0  0  0
 27  3  1  0  0  0  0
 27 26  2  0  0  0  0
 28 27  1  0  0  0  0
 30 24  1  0  0  0  0
 30 33  1  0  0  0  0
 30 31  1  0  0  0  0
 32 30  1  0  0  0  0
 34 23  1  0  0  0  0
 35 34  1  0  0  0  0
 36 35  1  0  0  0  0
 37 35  1  0  0  0  0
 38 35  1  0  0  0  0
M  END
>  <minimizedAffinity>
-5.77041626

$$$$

 OpenBabel03252504163D

 38 40  0  0  0  0  0  0  0  0999 V2000
   39.2870   28.3720   40.2480 F   0  0  0  0  0  0  0  0  0  0  0  0
   38.1980   29.1830   40.4090 C   0  0  0  0  0  0  0  0  0  0  0  0
   38.3100   30.5430   40.2190 C   0  0  0  0  0  0  0  0  0  0  0  0
   37.1540   31.2910   40.4040 C   0  0  0  0  0  0  0  0  0  0  0  0
   35.9640   30.7050   40.7590 C   0  0  0  0  0  0  0  0  0  0  0  0
   35.9060   29.3290   40.9380 C   0  0  0  0  0  0  0  0  0  0  0  0
   37.0420   28.5280   40.7640 C   0  0  0  0  0  0  0  0  0  0  0  0
   37.2260   32.3580   40.2590 H   0  0  0  0  0  0  0  0  0  0  0  0
   35.0830   31.3030   40.8960 H   0  0  0  0  0  0  0  0  0  0  0  0
   34.9950   28.8080   41.2170 H   0  0  0  0  0  0  0  0  0  0  0  0
   36.6510   26.3160   39.8580 C   0  0  0  0  0  0  0  0  0  0  0  0
   36.9690   27.0830   40.9540 C   0  0  0  0  0  0  0  0  0  0  0  0
   37.2060   26.4650   42.1880 C   0  0  0  0  0  0  0  0  0  0  0  0
   37.4510   27.1370   43.0050 H   0  0  0  0  0  0  0  0  0  0  0  0
   37.1200   25.0930   42.3000 C   0  0  0  0  0  0  0  0  0  0  0  0
   37.3170   24.6940   43.2870 H   0  0  0  0  0  0  0  0  0  0  0  0
   36.8010   24.2990   41.2090 C   0  0  0  0  0  3  0  0  0  0  0  0
   36.5740   24.9470   40.0080 C   0  0  0  0  0  3  0  0  0  0  0  0
   35.6510   28.1450   38.3190 H   0  0  0  0  0  0  0  0  0  0  0  0
   36.3280   26.9410   38.2540 S   0  0  0  0  0  0  0  0  0  0  0  0
   35.5450   25.8990   37.5100 O   0  0  0  0  0  0  0  0  0  0  0  0
   37.6430   27.1430   37.5150 O   0  0  0  0  0  0  0  0  0  0  0  0
   41.2340   31.3870   38.2250 C   0  0  0  0  0  0  0  0  0  0  0  0
   41.9580   32.2620   39.0280 C   0  0  0  0  0  0  0  0  0  0  0  0
   41.4170   32.5710   40.3020 C   0  0  0  0  0  0  0  0  0  0  0  0
   40.2410   32.0050   40.6620 N   0  0  0  0  0  0  0  0  0  0  0  0
   39.5810   31.1610   39.8430 C   0  0  0  0  0  0  0  0  0  0  0  0
   40.0800   30.8560   38.6280 N   0  0  0  0  0  0  0  0  0  0  0  0
   41.9590   33.2500   40.9490 H   0  0  0  0  0  0  0  0  0  0  0  0
   43.2360   32.8380   38.5550 C   0  0  0  0  0  0  0  0  0  0  0  0
   43.0260   33.4900   37.3480 F   0  0  0  0  0  0  0  0  0  0  0  0
   43.6240   33.8040   39.4650 F   0  0  0  0  0  0  0  0  0  0  0  0
   44.2430   31.9470   38.3890 F   0  0  0  0  0  0  0  0  0  0  0  0
   41.7670   31.1020   37.0080 O   0  0  0  0  0  0  0  0  0  0  0  0
   42.3240   29.8740   36.5940 C   0  0  0  0  0  0  0  0  0  0  0  0
   42.9500   30.0960   35.3720 F   0  0  0  0  0  0  0  0  0  0  0  0
   43.1910   29.4060   37.5520 F   0  0  0  0  0  0  0  0  0  0  0  0
   41.3170   28.9750   36.3210 F   0  0  0  0  0  0  0  0  0  0  0  0
  1  2  1  0  0  0  0
  2  7  1  0  0  0  0
  3  4  1  0  0  0  0
  3  2  2  0  0  0  0
  4  5  2  0  0  0  0
  5  9  1  0  0  0  0
  5  6  1  0  0  0  0
  6 10  1  0  0  0  0
  7  6  2  0  0  0  0
  7 12  1  0  0  0  0
  8  4  1  0  0  0  0
 11 18  2  0  0  0  0
 11 12  1  0  0  0  0
 12 13  2  0  0  0  0
 13 15  1  0  0  0  0
 13 14  1  0  0  0  0
 15 16  1  0  0  0  0
 17 15  2  0  0  0  0
 18 17  1  0  0  0  0
 20 19  1  0  0  0  0
 20 11  1  0  0  0  0
 21 20  2  0  0  0  0
 22 20  2  0  0  0  0
 23 28  2  0  0  0  0
 23 24  1  0  0  0  0
 24 25  2  0  0  0  0
 25 26  1  0  0  0  0
 25 29  1  0  0  0  0
 27  3  1  0  0  0  0
 27 26  2  0  0  0  0
 28 27  1  0  0  0  0
 30 24  1  0  0  0  0
 30 32  1  0  0  0  0
 31 30  1  0  0  0  0
 33 30  1  0  0  0  0
 34 23  1  0  0  0  0
 35 34  1  0  0  0  0
 35 37  1  0  0  0  0
 36 35  1  0  0  0  0
 38 35  1  0  0  0  0
M  END
>  <minimizedAffinity>
-5.73693943

$$$$

 OpenBabel03252504163D

 38 40  0  0  0  0  0  0  0  0999 V2000
   39.0260   28.4460   39.2860 F   0  0  0  0  0  0  0  0  0  0  0  0
   37.9890   29.2110   39.7400 C   0  0  0  0  0  0  0  0  0  0  0  0
   38.0720   30.5860   39.7070 C   0  0  0  0  0  0  0  0  0  0  0  0
   36.9720   31.2840   40.1900 C   0  0  0  0  0  0  0  0  0  0  0  0
   35.8620   30.6370   40.6740 C   0  0  0  0  0  0  0  0  0  0  0  0
   35.8300   29.2490   40.6850 C   0  0  0  0  0  0  0  0  0  0  0  0
   36.9120   28.4970   40.2110 C   0  0  0  0  0  0  0  0  0  0  0  0
   37.0220   32.3620   40.1700 H   0  0  0  0  0  0  0  0  0  0  0  0
   35.0230   31.1980   41.0420 H   0  0  0  0  0  0  0  0  0  0  0  0
   34.9810   28.6810   41.0550 H   0  0  0  0  0  0  0  0  0  0  0  0
   37.3760   26.4020   41.3350 C   0  0  0  0  0  0  0  0  0  0  0  0
   36.8670   27.0380   40.2270 C   0  0  0  0  0  0  0  0  0  0  0  0
   36.3350   26.2810   39.1760 C   0  0  0  0  0  0  0  0  0  0  0  0
   35.9530   26.8540   38.3370 H   0  0  0  0  0  0  0  0  0  0  0  0
   36.3230   24.9040   39.2550 C   0  0  0  0  0  0  0  0  0  0  0  0
   35.8960   24.3930   38.4020 H   0  0  0  0  0  0  0  0  0  0  0  0
   36.8310   24.2400   40.3610 C   0  0  0  0  0  3  0  0  0  0  0  0
   37.3470   25.0230   41.3790 C   0  0  0  0  0  3  0  0  0  0  0  0
   38.7860   28.3290   42.3410 H   0  0  0  0  0  0  0  0  0  0  0  0
   38.0720   27.2090   42.7240 S   0  0  0  0  0  0  0  0  0  0  0  0
   38.9380   26.2130   43.4400 O   0  0  0  0  0  0  0  0  0  0  0  0
   36.9620   27.6230   43.6790 O   0  0  0  0  0  0  0  0  0  0  0  0
   41.4370   31.9660   39.5960 C   0  0  0  0  0  0  0  0  0  0  0  0
   41.5370   32.5270   38.3270 C   0  0  0  0  0  0  0  0  0  0  0  0
   40.4030   32.4260   37.4820 C   0  0  0  0  0  0  0  0  0  0  0  0
   39.3000   31.7960   37.9500 N   0  0  0  0  0  0  0  0  0  0  0  0
   39.2570   31.2690   39.1900 C   0  0  0  0  0  0  0  0  0  0  0  0
   40.3250   31.3560   40.0080 N   0  0  0  0  0  0  0  0  0  0  0  0
   40.4520   32.8540   36.4890 H   0  0  0  0  0  0  0  0  0  0  0  0
   42.7830   33.1980   37.8960 C   0  0  0  0  0  0  0  0  0  0  0  0
   43.7950   32.2540   37.7820 F   0  0  0  0  0  0  0  0  0  0  0  0
   42.5700   33.7050   36.6270 F   0  0  0  0  0  0  0  0  0  0  0  0
   43.2160   34.1900   38.7090 F   0  0  0  0  0  0  0  0  0  0  0  0
   42.5330   32.0720   40.3930 O   0  0  0  0  0  0  0  0  0  0  0  0
   42.6460   32.8250   41.5800 C   0  0  0  0  0  0  0  0  0  0  0  0
   44.0030   32.9560   41.8570 F   0  0  0  0  0  0  0  0  0  0  0  0
   42.0180   34.0370   41.4280 F   0  0  0  0  0  0  0  0  0  0  0  0
   42.1350   32.1040   42.6370 F   0  0  0  0  0  0  0  0  0  0  0  0
  1  2  1  0  0  0  0
  2  7  1  0  0  0  0
  3  2  2  0  0  0  0
  3  4  1  0  0  0  0
  4  5  2  0  0  0  0
  5  6  1  0  0  0  0
  5  9  1  0  0  0  0
  6 10  1  0  0  0  0
  7 12  1  0  0  0  0
  7  6  2  0  0  0  0
  8  4  1  0  0  0  0
 11 18  1  0  0  0  0
 11 20  1  0  0  0  0
 12 11  2  0  0  0  0
 13 15  2  0  0  0  0
 13 12  1  0  0  0  0
 14 13  1  0  0  0  0
 15 17  1  0  0  0  0
 16 15  1  0  0  0  0
 17 18  2  0  0  0  0
 19 20  1  0  0  0  0
 20 21  2  0  0  0  0
 20 22  2  0  0  0  0
 23 28  1  0  0  0  0
 23 34  1  0  0  0  0
 24 23  2  0  0  0  0
 25 26  2  0  0  0  0
 25 24  1  0  0  0  0
 26 27  1  0  0  0  0
 27  3  1  0  0  0  0
 27 28  2  0  0  0  0
 29 25  1  0  0  0  0
 30 24  1  0  0  0  0
 30 33  1  0  0  0  0
 31 30  1  0  0  0  0
 32 30  1  0  0  0  0
 34 35  1  0  0  0  0
 35 36  1  0  0  0  0
 35 38  1  0  0  0  0
 37 35  1  0  0  0  0
M  END
>  <minimizedAffinity>
-5.70501375

$$$$
