
 OpenBabel03252506493D

 32 34  0  0  0  0  0  0  0  0999 V2000
   38.0430   31.1410   39.7960 C   0  0  0  0  0  0  0  0  0  0  0  0
   37.2360   32.2880   39.7470 C   0  0  0  0  0  0  0  0  0  0  0  0
   37.8490   33.5390   39.9190 C   0  0  0  0  0  0  0  0  0  0  0  0
   39.1950   33.5790   40.1250 N   0  0  0  0  0  0  0  0  0  0  0  0
   39.9340   32.4480   40.1660 C   0  0  0  0  0  0  0  0  0  0  0  0
   39.3850   31.2300   40.0060 N   0  0  0  0  0  0  0  0  0  0  0  0
   36.1780   32.2350   39.5830 H   0  0  0  0  0  0  0  0  0  0  0  0
   37.2140   34.4150   39.8770 H   0  0  0  0  0  0  0  0  0  0  0  0
   42.2570   32.9650   39.4020 C   0  0  0  0  0  0  0  0  0  0  0  0
   41.3660   32.6150   40.3950 C   0  0  0  0  0  0  0  0  0  0  0  0
   41.8650   32.4140   41.6650 C   0  0  0  0  0  0  0  0  0  0  0  0
   41.2380   32.1330   42.5220 H   0  0  0  0  0  0  0  0  0  0  0  0
   43.2120   32.5490   41.9760 C   0  0  0  0  0  0  0  0  0  0  0  0
   43.5900   32.3880   42.9790 H   0  0  0  0  0  0  0  0  0  0  0  0
   44.1170   32.8990   40.9960 C   0  0  0  0  0  3  0  0  0  0  0  0
   43.5970   33.0930   39.7460 C   0  0  0  0  0  3  0  0  0  0  0  0
   40.3990   33.7160   37.7390 H   0  0  0  0  0  0  0  0  0  0  0  0
   41.6790   33.2320   37.7740 S   0  0  0  0  0  0  0  0  0  0  0  0
   41.7640   31.8960   37.0500 O   0  0  0  0  0  0  0  0  0  0  0  0
   42.6360   34.1390   37.0120 O   0  0  0  0  0  0  0  0  0  0  0  0
   37.1940   29.5800   39.5680 S   0  0  0  0  0  0  0  0  0  0  0  0
   36.7830   26.4080   39.5550 Cl  0  0  0  0  0  0  0  0  0  0  0  0
   37.0270   27.2240   41.1040 C   0  0  0  0  0  0  0  0  0  0  0  0
   37.1900   28.5730   41.0120 C   0  0  0  0  0  0  0  0  0  0  0  0
   37.3830   29.2760   42.1970 C   0  0  0  0  0  0  0  0  0  0  0  0
   37.4030   28.5880   43.4130 C   0  0  0  0  0  0  0  0  0  0  0  0
   37.2350   27.2110   43.4990 C   0  0  0  0  0  0  0  0  0  0  0  0
   37.0450   26.5410   42.3000 C   0  0  0  0  0  0  0  0  0  0  0  0
   36.8260   24.7980   42.2560 Cl  0  0  0  0  0  0  0  0  0  0  0  0
   37.5240   30.3460   42.2540 H   0  0  0  0  0  0  0  0  0  0  0  0
   37.5520   29.1210   44.3480 H   0  0  0  0  0  0  0  0  0  0  0  0
   37.2510   26.6820   44.4400 H   0  0  0  0  0  0  0  0  0  0  0  0
  1  6  1  0  0  0  0
  2  1  2  0  0  0  0
  2  3  1  0  0  0  0
  3  4  2  0  0  0  0
  4  5  1  0  0  0  0
  5 10  1  0  0  0  0
  6  5  2  0  0  0  0
  7  2  1  0  0  0  0
  8  3  1  0  0  0  0
  9 16  2  0  0  0  0
  9 10  1  0  0  0  0
 10 11  2  0  0  0  0
 11 13  1  0  0  0  0
 11 12  1  0  0  0  0
 13 14  1  0  0  0  0
 15 13  2  0  0  0  0
 16 15  1  0  0  0  0
 17 18  1  0  0  0  0
 18  9  1  0  0  0  0
 19 18  2  0  0  0  0
 20 18  2  0  0  0  0
 21  1  1  0  0  0  0
 21 24  1  0  0  0  0
 22 23  1  0  0  0  0
 23 28  1  0  0  0  0
 24 23  2  0  0  0  0
 24 25  1  0  0  0  0
 25 30  1  0  0  0  0
 25 26  2  0  0  0  0
 26 27  1  0  0  0  0
 26 31  1  0  0  0  0
 27 32  1  0  0  0  0
 28 27  2  0  0  0  0
 29 28  1  0  0  0  0
M  END
>  <minimizedAffinity>
-5.62879419

$$$$

 OpenBabel03252506493D

 32 34  0  0  0  0  0  0  0  0999 V2000
   36.4290   28.7050   41.6310 C   0  0  0  0  0  0  0  0  0  0  0  0
   36.9070   30.0050   41.8630 C   0  0  0  0  0  0  0  0  0  0  0  0
   36.7510   30.9600   40.8460 C   0  0  0  0  0  0  0  0  0  0  0  0
   36.1450   30.5810   39.6870 N   0  0  0  0  0  0  0  0  0  0  0  0
   35.7000   29.3180   39.5070 C   0  0  0  0  0  0  0  0  0  0  0  0
   35.8310   28.3730   40.4560 N   0  0  0  0  0  0  0  0  0  0  0  0
   37.3820   30.2830   42.7830 H   0  0  0  0  0  0  0  0  0  0  0  0
   37.1240   31.9580   41.0390 H   0  0  0  0  0  0  0  0  0  0  0  0
   35.7770   28.7760   37.0680 C   0  0  0  0  0  0  0  0  0  0  0  0
   35.0680   29.0280   38.2240 C   0  0  0  0  0  0  0  0  0  0  0  0
   33.6900   29.0050   38.1500 C   0  0  0  0  0  0  0  0  0  0  0  0
   33.0370   29.1930   39.0130 H   0  0  0  0  0  0  0  0  0  0  0  0
   33.0020   28.7400   36.9730 C   0  0  0  0  0  0  0  0  0  0  0  0
   31.9190   28.7240   36.9310 H   0  0  0  0  0  0  0  0  0  0  0  0
   33.6950   28.4840   35.8090 C   0  0  0  0  0  3  0  0  0  0  0  0
   35.0590   28.5120   35.9080 C   0  0  0  0  0  3  0  0  0  0  0  0
   38.0360   28.2530   38.2530 H   0  0  0  0  0  0  0  0  0  0  0  0
   37.5240   28.7920   37.1040 S   0  0  0  0  0  0  0  0  0  0  0  0
   37.9560   30.2440   36.9580 O   0  0  0  0  0  0  0  0  0  0  0  0
   38.0890   28.1030   35.8680 O   0  0  0  0  0  0  0  0  0  0  0  0
   36.6620   27.5400   42.9720 S   0  0  0  0  0  0  0  0  0  0  0  0
   39.8240   27.5110   43.4560 Cl  0  0  0  0  0  0  0  0  0  0  0  0
   39.0660   26.0930   42.7200 C   0  0  0  0  0  0  0  0  0  0  0  0
   37.7190   26.1970   42.5500 C   0  0  0  0  0  0  0  0  0  0  0  0
   37.0620   25.1160   41.9710 C   0  0  0  0  0  0  0  0  0  0  0  0
   37.7910   23.9860   41.5930 C   0  0  0  0  0  0  0  0  0  0  0  0
   39.1670   23.8870   41.7690 C   0  0  0  0  0  0  0  0  0  0  0  0
   39.7910   24.9820   42.3490 C   0  0  0  0  0  0  0  0  0  0  0  0
   41.5240   24.9950   42.6370 Cl  0  0  0  0  0  0  0  0  0  0  0  0
   35.9980   25.0790   41.7850 H   0  0  0  0  0  0  0  0  0  0  0  0
   37.2950   23.1330   41.1400 H   0  0  0  0  0  0  0  0  0  0  0  0
   39.7290   23.0130   41.4760 H   0  0  0  0  0  0  0  0  0  0  0  0
  1  2  1  0  0  0  0
  1 21  1  0  0  0  0
  2  7  1  0  0  0  0
  3  8  1  0  0  0  0
  3  2  2  0  0  0  0
  4  3  1  0  0  0  0
  5  4  2  0  0  0  0
  5  6  1  0  0  0  0
  6  1  2  0  0  0  0
  9 18  1  0  0  0  0
  9 10  1  0  0  0  0
 10  5  1  0  0  0  0
 11 10  2  0  0  0  0
 11 12  1  0  0  0  0
 13 11  1  0  0  0  0
 14 13  1  0  0  0  0
 15 16  1  0  0  0  0
 15 13  2  0  0  0  0
 16  9  2  0  0  0  0
 18 17  1  0  0  0  0
 19 18  2  0  0  0  0
 20 18  2  0  0  0  0
 23 22  1  0  0  0  0
 24 23  1  0  0  0  0
 24 21  1  0  0  0  0
 25 24  2  0  0  0  0
 26 27  2  0  0  0  0
 26 25  1  0  0  0  0
 27 28  1  0  0  0  0
 28 29  1  0  0  0  0
 28 23  2  0  0  0  0
 30 25  1  0  0  0  0
 31 26  1  0  0  0  0
 32 27  1  0  0  0  0
M  END
>  <minimizedAffinity>
-5.61171103

$$$$

 OpenBabel03252506493D

 32 34  0  0  0  0  0  0  0  0999 V2000
   37.8860   31.2290   39.5180 C   0  0  0  0  0  0  0  0  0  0  0  0
   37.0930   32.3200   39.9060 C   0  0  0  0  0  0  0  0  0  0  0  0
   37.7000   33.5830   39.9990 C   0  0  0  0  0  0  0  0  0  0  0  0
   39.0270   33.6870   39.7090 N   0  0  0  0  0  0  0  0  0  0  0  0
   39.7530   32.6090   39.3390 C   0  0  0  0  0  0  0  0  0  0  0  0
   39.2090   31.3820   39.2380 N   0  0  0  0  0  0  0  0  0  0  0  0
   36.0500   32.2160   40.1310 H   0  0  0  0  0  0  0  0  0  0  0  0
   37.0760   34.4150   40.2990 H   0  0  0  0  0  0  0  0  0  0  0  0
   42.1720   32.6160   39.9670 C   0  0  0  0  0  0  0  0  0  0  0  0
   41.1650   32.8430   39.0530 C   0  0  0  0  0  0  0  0  0  0  0  0
   41.5230   33.3180   37.8080 C   0  0  0  0  0  0  0  0  0  0  0  0
   40.7960   33.5320   37.0120 H   0  0  0  0  0  0  0  0  0  0  0  0
   42.8390   33.5710   37.4470 C   0  0  0  0  0  0  0  0  0  0  0  0
   43.1060   33.9450   36.4650 H   0  0  0  0  0  0  0  0  0  0  0  0
   43.8600   33.3490   38.3480 C   0  0  0  0  0  3  0  0  0  0  0  0
   43.4790   32.8770   39.5750 C   0  0  0  0  0  3  0  0  0  0  0  0
   40.6290   32.5630   42.0640 H   0  0  0  0  0  0  0  0  0  0  0  0
   41.7760   32.0140   41.5590 S   0  0  0  0  0  0  0  0  0  0  0  0
   42.9610   32.3330   42.4600 O   0  0  0  0  0  0  0  0  0  0  0  0
   41.7060   30.4920   41.5520 O   0  0  0  0  0  0  0  0  0  0  0  0
   37.0450   29.6510   39.4200 S   0  0  0  0  0  0  0  0  0  0  0  0
   36.5820   26.4900   39.5830 Cl  0  0  0  0  0  0  0  0  0  0  0  0
   36.9970   27.3620   41.0630 C   0  0  0  0  0  0  0  0  0  0  0  0
   37.1720   28.7030   40.8980 C   0  0  0  0  0  0  0  0  0  0  0  0
   37.4960   29.4490   42.0270 C   0  0  0  0  0  0  0  0  0  0  0  0
   37.6280   28.8110   43.2620 C   0  0  0  0  0  0  0  0  0  0  0  0
   37.4480   27.4420   43.4240 C   0  0  0  0  0  0  0  0  0  0  0  0
   37.1260   26.7280   42.2800 C   0  0  0  0  0  0  0  0  0  0  0  0
   36.8740   24.9900   42.3310 Cl  0  0  0  0  0  0  0  0  0  0  0  0
   37.6600   30.5180   42.0240 H   0  0  0  0  0  0  0  0  0  0  0  0
   37.8810   29.3770   44.1540 H   0  0  0  0  0  0  0  0  0  0  0  0
   37.5510   26.9510   44.3800 H   0  0  0  0  0  0  0  0  0  0  0  0
  1  2  1  0  0  0  0
  2  3  2  0  0  0  0
  2  7  1  0  0  0  0
  3  8  1  0  0  0  0
  4  3  1  0  0  0  0
  5  4  2  0  0  0  0
  6  5  1  0  0  0  0
  6  1  2  0  0  0  0
  9 18  1  0  0  0  0
 10  5  1  0  0  0  0
 10  9  2  0  0  0  0
 11 10  1  0  0  0  0
 12 11  1  0  0  0  0
 13 11  2  0  0  0  0
 13 15  1  0  0  0  0
 14 13  1  0  0  0  0
 15 16  2  0  0  0  0
 16  9  1  0  0  0  0
 18 17  1  0  0  0  0
 18 19  2  0  0  0  0
 20 18  2  0  0  0  0
 21  1  1  0  0  0  0
 21 24  1  0  0  0  0
 22 23  1  0  0  0  0
 23 28  1  0  0  0  0
 24 23  2  0  0  0  0
 24 25  1  0  0  0  0
 25 26  2  0  0  0  0
 26 27  1  0  0  0  0
 26 31  1  0  0  0  0
 27 32  1  0  0  0  0
 28 29  1  0  0  0  0
 28 27  2  0  0  0  0
 30 25  1  0  0  0  0
M  END
>  <minimizedAffinity>
-5.52891016

$$$$

 OpenBabel03252506493D

 32 34  0  0  0  0  0  0  0  0999 V2000
   36.5970   28.8770   41.2500 C   0  0  0  0  0  0  0  0  0  0  0  0
   35.6670   28.6520   40.2220 C   0  0  0  0  0  0  0  0  0  0  0  0
   35.6910   29.5050   39.1080 C   0  0  0  0  0  0  0  0  0  0  0  0
   36.6130   30.5080   39.0780 N   0  0  0  0  0  0  0  0  0  0  0  0
   37.4890   30.6880   40.0910 C   0  0  0  0  0  0  0  0  0  0  0  0
   37.4980   29.8930   41.1760 N   0  0  0  0  0  0  0  0  0  0  0  0
   34.9500   27.8570   40.2660 H   0  0  0  0  0  0  0  0  0  0  0  0
   34.9700   29.3180   38.3230 H   0  0  0  0  0  0  0  0  0  0  0  0
   39.6870   31.6570   39.4010 C   0  0  0  0  0  0  0  0  0  0  0  0
   38.4280   31.7950   39.9480 C   0  0  0  0  0  0  0  0  0  0  0  0
   38.0500   33.0500   40.3800 C   0  0  0  0  0  0  0  0  0  0  0  0
   37.0710   33.2630   40.8300 H   0  0  0  0  0  0  0  0  0  0  0  0
   38.8780   34.1610   40.2860 C   0  0  0  0  0  0  0  0  0  0  0  0
   38.5670   35.1410   40.6300 H   0  0  0  0  0  0  0  0  0  0  0  0
   40.1390   34.0420   39.7410 C   0  0  0  0  0  3  0  0  0  0  0  0
   40.4890   32.7880   39.3190 C   0  0  0  0  0  3  0  0  0  0  0  0
   39.2390   29.1380   38.9170 H   0  0  0  0  0  0  0  0  0  0  0  0
   40.2180   30.0910   38.8360 S   0  0  0  0  0  0  0  0  0  0  0  0
   41.4170   29.6970   39.6870 O   0  0  0  0  0  0  0  0  0  0  0  0
   40.7750   30.1950   37.4220 O   0  0  0  0  0  0  0  0  0  0  0  0
   36.5080   27.7500   42.6400 S   0  0  0  0  0  0  0  0  0  0  0  0
   39.6270   27.7680   43.3520 Cl  0  0  0  0  0  0  0  0  0  0  0  0
   38.9030   26.2700   42.7530 C   0  0  0  0  0  0  0  0  0  0  0  0
   37.5730   26.3580   42.4740 C   0  0  0  0  0  0  0  0  0  0  0  0
   36.9440   25.2130   41.9950 C   0  0  0  0  0  0  0  0  0  0  0  0
   37.6820   24.0400   41.8220 C   0  0  0  0  0  0  0  0  0  0  0  0
   39.0400   23.9580   42.1080 C   0  0  0  0  0  0  0  0  0  0  0  0
   39.6360   25.1160   42.5840 C   0  0  0  0  0  0  0  0  0  0  0  0
   41.3450   25.1590   42.9930 Cl  0  0  0  0  0  0  0  0  0  0  0  0
   35.8950   25.1570   41.7390 H   0  0  0  0  0  0  0  0  0  0  0  0
   37.2070   23.1370   41.4490 H   0  0  0  0  0  0  0  0  0  0  0  0
   39.6090   23.0500   41.9730 H   0  0  0  0  0  0  0  0  0  0  0  0
  1 21  1  0  0  0  0
  2  7  1  0  0  0  0
  2  1  2  0  0  0  0
  3  2  1  0  0  0  0
  4  3  2  0  0  0  0
  4  5  1  0  0  0  0
  5  6  2  0  0  0  0
  6  1  1  0  0  0  0
  8  3  1  0  0  0  0
  9 10  1  0  0  0  0
 10  5  1  0  0  0  0
 10 11  2  0  0  0  0
 11 12  1  0  0  0  0
 13 11  1  0  0  0  0
 13 14  1  0  0  0  0
 15 13  2  0  0  0  0
 16  9  2  0  0  0  0
 16 15  1  0  0  0  0
 18 17  1  0  0  0  0
 18  9  1  0  0  0  0
 18 19  2  0  0  0  0
 20 18  2  0  0  0  0
 23 22  1  0  0  0  0
 24 21  1  0  0  0  0
 24 23  2  0  0  0  0
 25 24  1  0  0  0  0
 26 25  2  0  0  0  0
 26 27  1  0  0  0  0
 27 28  2  0  0  0  0
 28 23  1  0  0  0  0
 28 29  1  0  0  0  0
 30 25  1  0  0  0  0
 31 26  1  0  0  0  0
 32 27  1  0  0  0  0
M  END
>  <minimizedAffinity>
-5.52505589

$$$$

 OpenBabel03252506493D

 32 34  0  0  0  0  0  0  0  0999 V2000
   37.2900   29.1880   38.1840 C   0  0  0  0  0  0  0  0  0  0  0  0
   35.9430   29.4320   37.8730 C   0  0  0  0  0  0  0  0  0  0  0  0
   34.9800   28.5190   38.3330 C   0  0  0  0  0  0  0  0  0  0  0  0
   35.3990   27.4440   39.0570 N   0  0  0  0  0  0  0  0  0  0  0  0
   36.7070   27.2490   39.3330 C   0  0  0  0  0  0  0  0  0  0  0  0
   37.6610   28.0990   38.9100 N   0  0  0  0  0  0  0  0  0  0  0  0
   35.6340   30.2840   37.3010 H   0  0  0  0  0  0  0  0  0  0  0  0
   33.9450   28.7210   38.0870 H   0  0  0  0  0  0  0  0  0  0  0  0
   37.2440   26.0850   41.4790 C   0  0  0  0  0  0  0  0  0  0  0  0
   37.0360   26.0620   40.1160 C   0  0  0  0  0  0  0  0  0  0  0  0
   37.1500   24.8480   39.4700 C   0  0  0  0  0  0  0  0  0  0  0  0
   37.0040   24.7250   38.3880 H   0  0  0  0  0  0  0  0  0  0  0  0
   37.4600   23.6680   40.1310 C   0  0  0  0  0  0  0  0  0  0  0  0
   37.5460   22.7200   39.6100 H   0  0  0  0  0  0  0  0  0  0  0  0
   37.6700   23.6720   41.4940 C   0  0  0  0  0  3  0  0  0  0  0  0
   37.5510   24.8880   42.1120 C   0  0  0  0  0  3  0  0  0  0  0  0
   36.7200   28.6350   41.5500 H   0  0  0  0  0  0  0  0  0  0  0  0
   37.1120   27.5960   42.3490 S   0  0  0  0  0  0  0  0  0  0  0  0
   38.4800   27.8760   42.9560 O   0  0  0  0  0  0  0  0  0  0  0  0
   36.1900   27.4400   43.5500 O   0  0  0  0  0  0  0  0  0  0  0  0
   38.4610   30.3930   37.5650 S   0  0  0  0  0  0  0  0  0  0  0  0
   41.1910   31.4380   38.8660 Cl  0  0  0  0  0  0  0  0  0  0  0  0
   39.7040   32.3420   39.1760 C   0  0  0  0  0  0  0  0  0  0  0  0
   38.5930   31.8220   38.5850 C   0  0  0  0  0  0  0  0  0  0  0  0
   37.3880   32.4860   38.7940 C   0  0  0  0  0  0  0  0  0  0  0  0
   37.3600   33.6360   39.5850 C   0  0  0  0  0  0  0  0  0  0  0  0
   38.4980   34.1610   40.1860 C   0  0  0  0  0  0  0  0  0  0  0  0
   39.6820   33.4760   39.9580 C   0  0  0  0  0  0  0  0  0  0  0  0
   41.2010   34.0270   40.6500 Cl  0  0  0  0  0  0  0  0  0  0  0  0
   36.4400   32.1710   38.3780 H   0  0  0  0  0  0  0  0  0  0  0  0
   36.4290   34.1670   39.7590 H   0  0  0  0  0  0  0  0  0  0  0  0
   38.4750   35.0510   40.7980 H   0  0  0  0  0  0  0  0  0  0  0  0
  1  6  1  0  0  0  0
  2  1  2  0  0  0  0
  2  3  1  0  0  0  0
  3  4  2  0  0  0  0
  4  5  1  0  0  0  0
  5 10  1  0  0  0  0
  6  5  2  0  0  0  0
  7  2  1  0  0  0  0
  8  3  1  0  0  0  0
  9 16  1  0  0  0  0
  9 18  1  0  0  0  0
 10  9  2  0  0  0  0
 11 10  1  0  0  0  0
 11 13  2  0  0  0  0
 12 11  1  0  0  0  0
 13 15  1  0  0  0  0
 14 13  1  0  0  0  0
 15 16  2  0  0  0  0
 17 18  1  0  0  0  0
 18 19  2  0  0  0  0
 18 20  2  0  0  0  0
 21  1  1  0  0  0  0
 21 24  1  0  0  0  0
 22 23  1  0  0  0  0
 23 28  1  0  0  0  0
 24 25  1  0  0  0  0
 24 23  2  0  0  0  0
 25 26  2  0  0  0  0
 26 31  1  0  0  0  0
 26 27  1  0  0  0  0
 27 32  1  0  0  0  0
 28 27  2  0  0  0  0
 28 29  1  0  0  0  0
 30 25  1  0  0  0  0
M  END
>  <minimizedAffinity>
-5.50552225

$$$$

 OpenBabel03252506493D

 32 34  0  0  0  0  0  0  0  0999 V2000
   36.8180   28.5260   38.5140 C   0  0  0  0  0  0  0  0  0  0  0  0
   36.3710   28.5580   37.1830 C   0  0  0  0  0  0  0  0  0  0  0  0
   36.6210   29.7150   36.4270 C   0  0  0  0  0  0  0  0  0  0  0  0
   37.2830   30.7470   37.0210 N   0  0  0  0  0  0  0  0  0  0  0  0
   37.6940   30.6730   38.3060 C   0  0  0  0  0  0  0  0  0  0  0  0
   37.4740   29.5830   39.0640 N   0  0  0  0  0  0  0  0  0  0  0  0
   35.8520   27.7350   36.7350 H   0  0  0  0  0  0  0  0  0  0  0  0
   36.2720   29.7250   35.4030 H   0  0  0  0  0  0  0  0  0  0  0  0
   39.7520   32.0330   38.7080 C   0  0  0  0  0  0  0  0  0  0  0  0
   38.3920   31.8410   38.8330 C   0  0  0  0  0  0  0  0  0  0  0  0
   37.6650   32.8090   39.4950 C   0  0  0  0  0  0  0  0  0  0  0  0
   36.5790   32.7480   39.6480 H   0  0  0  0  0  0  0  0  0  0  0  0
   38.2430   33.9520   40.0310 C   0  0  0  0  0  0  0  0  0  0  0  0
   37.6580   34.7040   40.5490 H   0  0  0  0  0  0  0  0  0  0  0  0
   39.6010   34.1610   39.9150 C   0  0  0  0  0  3  0  0  0  0  0  0
   40.3000   33.1870   39.2540 C   0  0  0  0  0  3  0  0  0  0  0  0
   39.9680   29.8910   37.2440 H   0  0  0  0  0  0  0  0  0  0  0  0
   40.7220   30.8390   37.8790 S   0  0  0  0  0  0  0  0  0  0  0  0
   41.6200   30.1940   38.9260 O   0  0  0  0  0  0  0  0  0  0  0  0
   41.6900   31.5150   36.9160 O   0  0  0  0  0  0  0  0  0  0  0  0
   36.4650   27.0190   39.4160 S   0  0  0  0  0  0  0  0  0  0  0  0
   39.0190   25.2530   40.1890 Cl  0  0  0  0  0  0  0  0  0  0  0  0
   38.2810   26.2670   41.4350 C   0  0  0  0  0  0  0  0  0  0  0  0
   37.1990   26.9800   41.0160 C   0  0  0  0  0  0  0  0  0  0  0  0
   36.5690   27.7950   41.9520 C   0  0  0  0  0  0  0  0  0  0  0  0
   37.0580   27.8520   43.2580 C   0  0  0  0  0  0  0  0  0  0  0  0
   38.1630   27.1210   43.6800 C   0  0  0  0  0  0  0  0  0  0  0  0
   38.7670   26.3190   42.7230 C   0  0  0  0  0  0  0  0  0  0  0  0
   40.1770   25.3440   43.1110 Cl  0  0  0  0  0  0  0  0  0  0  0  0
   35.7040   28.4070   41.7400 H   0  0  0  0  0  0  0  0  0  0  0  0
   36.5790   28.4830   44.0020 H   0  0  0  0  0  0  0  0  0  0  0  0
   38.5400   27.1670   44.6900 H   0  0  0  0  0  0  0  0  0  0  0  0
  1  6  1  0  0  0  0
  1 21  1  0  0  0  0
  2  1  2  0  0  0  0
  3  4  2  0  0  0  0
  3  2  1  0  0  0  0
  4  5  1  0  0  0  0
  5 10  1  0  0  0  0
  5  6  2  0  0  0  0
  7  2  1  0  0  0  0
  8  3  1  0  0  0  0
  9 10  2  0  0  0  0
  9 16  1  0  0  0  0
 10 11  1  0  0  0  0
 11 12  1  0  0  0  0
 11 13  2  0  0  0  0
 13 14  1  0  0  0  0
 15 13  1  0  0  0  0
 16 15  2  0  0  0  0
 17 18  1  0  0  0  0
 18  9  1  0  0  0  0
 18 19  2  0  0  0  0
 20 18  2  0  0  0  0
 21 24  1  0  0  0  0
 22 23  1  0  0  0  0
 23 28  1  0  0  0  0
 24 23  2  0  0  0  0
 24 25  1  0  0  0  0
 25 26  2  0  0  0  0
 26 27  1  0  0  0  0
 26 31  1  0  0  0  0
 27 32  1  0  0  0  0
 28 29  1  0  0  0  0
 28 27  2  0  0  0  0
 30 25  1  0  0  0  0
M  END
>  <minimizedAffinity>
-5.4943428

$$$$

 OpenBabel03252506493D

 32 34  0  0  0  0  0  0  0  0999 V2000
   34.5160   28.4410   36.9870 C   0  0  0  0  0  0  0  0  0  0  0  0
   35.4540   29.2390   36.3120 C   0  0  0  0  0  0  0  0  0  0  0  0
   36.6990   29.4600   36.9220 C   0  0  0  0  0  0  0  0  0  0  0  0
   36.9360   28.8910   38.1380 N   0  0  0  0  0  0  0  0  0  0  0  0
   36.0030   28.1300   38.7510 C   0  0  0  0  0  0  0  0  0  0  0  0
   34.7980   27.8950   38.2000 N   0  0  0  0  0  0  0  0  0  0  0  0
   35.2480   29.6770   35.3560 H   0  0  0  0  0  0  0  0  0  0  0  0
   37.4120   30.0760   36.3900 H   0  0  0  0  0  0  0  0  0  0  0  0
   36.8580   26.2960   40.2170 C   0  0  0  0  0  0  0  0  0  0  0  0
   36.3690   27.5740   40.0500 C   0  0  0  0  0  0  0  0  0  0  0  0
   36.2220   28.3580   41.1760 C   0  0  0  0  0  0  0  0  0  0  0  0
   35.8400   29.3880   41.1480 H   0  0  0  0  0  0  0  0  0  0  0  0
   36.5430   27.9140   42.4510 C   0  0  0  0  0  0  0  0  0  0  0  0
   36.4220   28.5410   43.3280 H   0  0  0  0  0  0  0  0  0  0  0  0
   37.0340   26.6390   42.6380 C   0  0  0  0  0  3  0  0  0  0  0  0
   37.1720   25.8820   41.5060 C   0  0  0  0  0  3  0  0  0  0  0  0
   37.4570   25.9450   37.7080 H   0  0  0  0  0  0  0  0  0  0  0  0
   37.0670   25.2590   38.8260 S   0  0  0  0  0  0  0  0  0  0  0  0
   35.7320   24.5660   38.5870 O   0  0  0  0  0  0  0  0  0  0  0  0
   38.0300   24.1240   39.1460 O   0  0  0  0  0  0  0  0  0  0  0  0
   32.9520   28.2020   36.1480 S   0  0  0  0  0  0  0  0  0  0  0  0
   31.3370   29.6850   38.4780 Cl  0  0  0  0  0  0  0  0  0  0  0  0
   31.3330   30.3960   36.8590 C   0  0  0  0  0  0  0  0  0  0  0  0
   32.0430   29.6950   35.9330 C   0  0  0  0  0  0  0  0  0  0  0  0
   32.0770   30.2010   34.6370 C   0  0  0  0  0  0  0  0  0  0  0  0
   31.3960   31.3820   34.3380 C   0  0  0  0  0  0  0  0  0  0  0  0
   30.6710   32.0930   35.2890 C   0  0  0  0  0  0  0  0  0  0  0  0
   30.6590   31.5630   36.5700 C   0  0  0  0  0  0  0  0  0  0  0  0
   29.7900   32.3560   37.8750 Cl  0  0  0  0  0  0  0  0  0  0  0  0
   32.6050   29.7360   33.8160 H   0  0  0  0  0  0  0  0  0  0  0  0
   31.4110   31.7910   33.3320 H   0  0  0  0  0  0  0  0  0  0  0  0
   30.1460   33.0070   35.0560 H   0  0  0  0  0  0  0  0  0  0  0  0
  1  6  1  0  0  0  0
  2  3  1  0  0  0  0
  2  1  2  0  0  0  0
  3  4  2  0  0  0  0
  4  5  1  0  0  0  0
  5 10  1  0  0  0  0
  6  5  2  0  0  0  0
  7  2  1  0  0  0  0
  8  3  1  0  0  0  0
  9 16  1  0  0  0  0
 10  9  2  0  0  0  0
 10 11  1  0  0  0  0
 11 13  2  0  0  0  0
 12 11  1  0  0  0  0
 13 15  1  0  0  0  0
 13 14  1  0  0  0  0
 16 15  2  0  0  0  0
 17 18  1  0  0  0  0
 18 20  2  0  0  0  0
 18  9  1  0  0  0  0
 19 18  2  0  0  0  0
 21  1  1  0  0  0  0
 23 22  1  0  0  0  0
 24 21  1  0  0  0  0
 24 23  2  0  0  0  0
 25 24  1  0  0  0  0
 26 25  2  0  0  0  0
 26 27  1  0  0  0  0
 27 28  2  0  0  0  0
 28 23  1  0  0  0  0
 28 29  1  0  0  0  0
 30 25  1  0  0  0  0
 31 26  1  0  0  0  0
 32 27  1  0  0  0  0
M  END
>  <minimizedAffinity>
-5.41600752

$$$$

 OpenBabel03252506493D

 32 34  0  0  0  0  0  0  0  0999 V2000
   38.2780   30.7410   39.0040 C   0  0  0  0  0  0  0  0  0  0  0  0
   38.1940   32.0580   39.4830 C   0  0  0  0  0  0  0  0  0  0  0  0
   38.5840   32.3090   40.8080 C   0  0  0  0  0  0  0  0  0  0  0  0
   39.0230   31.2640   41.5640 N   0  0  0  0  0  0  0  0  0  0  0  0
   39.0870   30.0110   41.0620 C   0  0  0  0  0  0  0  0  0  0  0  0
   38.7230   29.7290   39.7970 N   0  0  0  0  0  0  0  0  0  0  0  0
   37.8460   32.8660   38.8720 H   0  0  0  0  0  0  0  0  0  0  0  0
   38.5150   33.3290   41.1630 H   0  0  0  0  0  0  0  0  0  0  0  0
   38.7410   28.1510   42.6950 C   0  0  0  0  0  0  0  0  0  0  0  0
   39.5730   28.9730   41.9650 C   0  0  0  0  0  0  0  0  0  0  0  0
   40.9350   28.7960   42.1060 C   0  0  0  0  0  0  0  0  0  0  0  0
   41.6800   29.4000   41.5700 H   0  0  0  0  0  0  0  0  0  0  0  0
   41.4880   27.8360   42.9430 C   0  0  0  0  0  0  0  0  0  0  0  0
   42.5600   27.7080   43.0430 H   0  0  0  0  0  0  0  0  0  0  0  0
   40.6700   27.0050   43.6790 C   0  0  0  0  0  3  0  0  0  0  0  0
   39.3250   27.1990   43.5210 C   0  0  0  0  0  3  0  0  0  0  0  0
   36.6000   29.6330   42.6490 H   0  0  0  0  0  0  0  0  0  0  0  0
   37.0070   28.3300   42.5540 S   0  0  0  0  0  0  0  0  0  0  0  0
   36.3850   27.4960   43.6650 O   0  0  0  0  0  0  0  0  0  0  0  0
   36.5070   27.6840   41.2700 O   0  0  0  0  0  0  0  0  0  0  0  0
   37.7660   30.4970   37.3060 S   0  0  0  0  0  0  0  0  0  0  0  0
   36.6310   29.2860   34.5700 Cl  0  0  0  0  0  0  0  0  0  0  0  0
   35.6750   29.0900   36.0450 C   0  0  0  0  0  0  0  0  0  0  0  0
   36.2350   29.6390   37.1580 C   0  0  0  0  0  0  0  0  0  0  0  0
   35.5300   29.5220   38.3520 C   0  0  0  0  0  0  0  0  0  0  0  0
   34.3010   28.8600   38.3670 C   0  0  0  0  0  0  0  0  0  0  0  0
   33.7340   28.3020   37.2270 C   0  0  0  0  0  0  0  0  0  0  0  0
   34.4620   28.4360   36.0540 C   0  0  0  0  0  0  0  0  0  0  0  0
   33.8730   27.7750   34.5360 Cl  0  0  0  0  0  0  0  0  0  0  0  0
   35.8700   29.9160   39.3000 H   0  0  0  0  0  0  0  0  0  0  0  0
   33.7370   28.7600   39.2900 H   0  0  0  0  0  0  0  0  0  0  0  0
   32.7840   27.7910   37.2400 H   0  0  0  0  0  0  0  0  0  0  0  0
  1  2  2  0  0  0  0
  1  6  1  0  0  0  0
  2  3  1  0  0  0  0
  3  8  1  0  0  0  0
  3  4  2  0  0  0  0
  5  4  1  0  0  0  0
  5 10  1  0  0  0  0
  6  5  2  0  0  0  0
  7  2  1  0  0  0  0
  9 16  1  0  0  0  0
 10 11  1  0  0  0  0
 10  9  2  0  0  0  0
 11 13  2  0  0  0  0
 12 11  1  0  0  0  0
 13 14  1  0  0  0  0
 13 15  1  0  0  0  0
 16 15  2  0  0  0  0
 18 17  1  0  0  0  0
 18  9  1  0  0  0  0
 18 19  2  0  0  0  0
 20 18  2  0  0  0  0
 21  1  1  0  0  0  0
 22 23  1  0  0  0  0
 23 28  2  0  0  0  0
 23 24  1  0  0  0  0
 24 21  1  0  0  0  0
 24 25  2  0  0  0  0
 25 26  1  0  0  0  0
 25 30  1  0  0  0  0
 26 31  1  0  0  0  0
 27 32  1  0  0  0  0
 27 26  2  0  0  0  0
 28 27  1  0  0  0  0
 29 28  1  0  0  0  0
M  END
>  <minimizedAffinity>
-5.34449863

$$$$

 OpenBabel03252506493D

 32 34  0  0  0  0  0  0  0  0999 V2000
   38.1280   30.0390   40.3420 C   0  0  0  0  0  0  0  0  0  0  0  0
   37.0050   30.6080   39.7190 C   0  0  0  0  0  0  0  0  0  0  0  0
   37.1290   31.0290   38.3860 C   0  0  0  0  0  0  0  0  0  0  0  0
   38.3290   30.8660   37.7620 N   0  0  0  0  0  0  0  0  0  0  0  0
   39.3840   30.3130   38.4010 C   0  0  0  0  0  0  0  0  0  0  0  0
   39.3070   29.8970   39.6780 N   0  0  0  0  0  0  0  0  0  0  0  0
   36.0700   30.7280   40.2280 H   0  0  0  0  0  0  0  0  0  0  0  0
   36.2550   31.4660   37.9180 H   0  0  0  0  0  0  0  0  0  0  0  0
   41.4740   31.2450   37.3970 C   0  0  0  0  0  0  0  0  0  0  0  0
   40.6180   30.1900   37.6320 C   0  0  0  0  0  0  0  0  0  0  0  0
   40.9550   28.9600   37.1050 C   0  0  0  0  0  0  0  0  0  0  0  0
   40.3390   28.0590   37.2350 H   0  0  0  0  0  0  0  0  0  0  0  0
   42.1070   28.7490   36.3600 C   0  0  0  0  0  0  0  0  0  0  0  0
   42.3590   27.7760   35.9520 H   0  0  0  0  0  0  0  0  0  0  0  0
   42.9760   29.7920   36.1160 C   0  0  0  0  0  3  0  0  0  0  0  0
   42.6190   31.0010   36.6490 C   0  0  0  0  0  3  0  0  0  0  0  0
   39.8030   33.1990   37.8030 H   0  0  0  0  0  0  0  0  0  0  0  0
   41.0970   32.8260   38.0410 S   0  0  0  0  0  0  0  0  0  0  0  0
   42.0630   33.8080   37.3930 O   0  0  0  0  0  0  0  0  0  0  0  0
   41.4300   32.8900   39.5250 O   0  0  0  0  0  0  0  0  0  0  0  0
   37.8960   29.5240   42.0420 S   0  0  0  0  0  0  0  0  0  0  0  0
   37.2680   26.3980   42.3100 Cl  0  0  0  0  0  0  0  0  0  0  0  0
   38.8910   26.9730   42.7080 C   0  0  0  0  0  0  0  0  0  0  0  0
   39.0650   28.3160   42.5670 C   0  0  0  0  0  0  0  0  0  0  0  0
   40.3210   28.8330   42.8690 C   0  0  0  0  0  0  0  0  0  0  0  0
   41.3370   27.9760   43.2960 C   0  0  0  0  0  0  0  0  0  0  0  0
   41.1530   26.6050   43.4380 C   0  0  0  0  0  0  0  0  0  0  0  0
   39.8900   26.1220   43.1290 C   0  0  0  0  0  0  0  0  0  0  0  0
   39.5130   24.4110   43.2570 Cl  0  0  0  0  0  0  0  0  0  0  0  0
   40.5820   29.8800   42.7960 H   0  0  0  0  0  0  0  0  0  0  0  0
   42.3240   28.3620   43.5360 H   0  0  0  0  0  0  0  0  0  0  0  0
   41.9400   25.9440   43.7680 H   0  0  0  0  0  0  0  0  0  0  0  0
  1 21  1  0  0  0  0
  2  7  1  0  0  0  0
  2  1  1  0  0  0  0
  3  2  2  0  0  0  0
  4  3  1  0  0  0  0
  4  5  2  0  0  0  0
  5  6  1  0  0  0  0
  6  1  2  0  0  0  0
  8  3  1  0  0  0  0
  9 10  1  0  0  0  0
  9 18  1  0  0  0  0
 10  5  1  0  0  0  0
 11 12  1  0  0  0  0
 11 10  2  0  0  0  0
 13 11  1  0  0  0  0
 14 13  1  0  0  0  0
 15 13  2  0  0  0  0
 15 16  1  0  0  0  0
 16  9  2  0  0  0  0
 17 18  1  0  0  0  0
 18 20  2  0  0  0  0
 19 18  2  0  0  0  0
 21 24  1  0  0  0  0
 22 23  1  0  0  0  0
 23 28  1  0  0  0  0
 24 23  2  0  0  0  0
 24 25  1  0  0  0  0
 25 26  2  0  0  0  0
 26 27  1  0  0  0  0
 26 31  1  0  0  0  0
 27 32  1  0  0  0  0
 28 29  1  0  0  0  0
 28 27  2  0  0  0  0
 30 25  1  0  0  0  0
M  END
>  <minimizedAffinity>
-5.26115656

$$$$
