
 OpenBabel03242515323D

 43 46  0  0  1  0  0  0  0  0999 V2000
   43.8510   35.4400   40.8550 F   0  0  0  0  0  0  0  0  0  0  0  0
   44.1330   34.1370   40.4950 C   0  0  0  0  0  0  0  0  0  0  0  0
   45.4370   33.7350   40.6190 C   0  0  0  0  0  0  0  0  0  0  0  0
   45.6760   32.4200   40.2560 C   0  0  0  0  0  0  0  0  0  0  0  0
   44.6610   31.6010   39.8080 C   0  0  0  0  0  0  0  0  0  0  0  0
   43.3440   32.0780   39.7060 C   0  0  0  0  0  0  0  0  0  0  0  0
   43.0760   33.4100   40.0680 C   0  0  0  0  0  0  0  0  0  0  0  0
   46.6510   31.9590   40.2990 H   0  0  0  0  0  0  0  0  0  0  0  0
   44.8480   30.5720   39.5250 H   0  0  0  0  0  0  0  0  0  0  0  0
   42.5380   31.4430   39.3550 H   0  0  0  0  0  0  0  0  0  0  0  0
   46.9700   34.3150   42.4410 N   0  0  0  0  0  0  0  0  0  0  0  0
   48.2900   33.7500   42.3460 C   0  0  0  0  0  0  0  0  0  0  0  0
   48.8670   34.6980   41.3090 C   0  0  0  0  0  0  0  0  0  0  0  0
   47.7860   34.5380   40.2380 C   0  0  0  0  0  0  0  0  0  0  0  0
   46.5460   34.5780   41.0630 C   0  0  1  0  0  0  0  0  0  0  0  0
   48.3160   32.7280   41.9310 H   0  0  0  0  0  0  0  0  0  0  0  0
   48.8570   33.8250   43.3000 H   0  0  0  0  0  0  0  0  0  0  0  0
   49.8440   34.3590   40.9320 H   0  0  0  0  0  0  0  0  0  0  0  0
   48.8530   35.7260   41.7180 H   0  0  0  0  0  0  0  0  0  0  0  0
   47.8430   35.3120   39.4600 H   0  0  0  0  0  0  0  0  0  0  0  0
   47.9610   33.5240   39.8080 H   0  0  0  0  0  0  0  0  0  0  0  0
   46.1690   35.6370   41.1260 H   0  0  0  0  0  0  0  0  0  0  0  0
   44.5480   35.9510   44.7470 C   0  0  0  0  0  0  0  0  0  0  0  0
   45.3170   35.7270   43.6140 C   0  0  0  0  0  0  0  0  0  0  0  0
   46.1530   34.6080   43.5600 C   0  0  0  0  0  0  0  0  0  0  0  0
   46.1670   33.7960   44.6290 N   0  0  0  0  0  0  0  0  0  0  0  0
   45.4170   34.0170   45.7300 C   0  0  0  0  0  0  0  0  0  0  0  0
   44.6060   35.0990   45.7860 N   0  0  0  0  0  0  0  0  0  0  0  0
   43.9170   36.8380   44.7310 H   0  0  0  0  0  0  0  0  0  0  0  0
   45.2960   36.3910   42.7620 H   0  0  0  0  0  0  0  0  0  0  0  0
   45.4890   33.3110   46.5460 H   0  0  0  0  0  0  0  0  0  0  0  0
   40.6620   33.1930   39.5750 C   0  0  0  0  0  0  0  0  0  0  0  0
   41.7290   33.9660   39.9840 C   0  0  0  0  0  0  0  0  0  0  0  0
   41.6110   35.2950   40.3380 C   0  0  0  0  0  0  0  0  0  0  0  0
   42.4830   35.8840   40.6600 H   0  0  0  0  0  0  0  0  0  0  0  0
   40.3900   35.9340   40.2990 C   0  0  0  0  0  0  0  0  0  0  0  0
   40.2220   36.9520   40.5570 H   0  0  0  0  0  0  0  0  0  0  0  0
   39.2880   35.1810   39.8900 C   0  0  0  0  0  0  0  0  0  0  0  0
   39.4200   33.8400   39.5360 C   0  0  0  0  0  0  0  0  0  0  0  0
   42.1440   31.1110   39.2950 H   0  0  0  0  0  0  0  0  0  0  0  0
   40.8580   31.5330   39.1420 S   0  0  0  0  0  0  0  0  0  0  0  0
   39.8680   30.6440   39.8750 O   0  0  0  0  0  0  0  0  0  0  0  0
   40.5090   31.4000   37.6700 O   0  0  0  0  0  0  0  0  0  0  0  0
  2  3  1  0  0  0  0
  2  1  1  0  0  0  0
  3 15  1  0  0  0  0
  4  8  1  0  0  0  0
  4  3  2  0  0  0  0
  5  4  1  0  0  0  0
  6  5  2  0  0  0  0
  6  7  1  0  0  0  0
  7  2  2  0  0  0  0
  9  5  1  0  0  0  0
 10  6  1  0  0  0  0
 11 25  1  0  0  0  0
 12 11  1  0  0  0  0
 12 17  1  0  0  0  0
 13 19  1  0  0  0  0
 13 12  1  0  0  0  0
 14 15  1  0  0  0  0
 14 13  1  0  0  0  0
 15 22  1  6  0  0  0
 15 11  1  0  0  0  0
 16 12  1  0  0  0  0
 18 13  1  0  0  0  0
 20 14  1  0  0  0  0
 21 14  1  0  0  0  0
 23 28  1  0  0  0  0
 24 23  2  0  0  0  0
 25 24  1  0  0  0  0
 25 26  2  0  0  0  0
 26 27  1  0  0  0  0
 27 28  2  0  0  0  0
 27 31  1  0  0  0  0
 29 23  1  0  0  0  0
 30 24  1  0  0  0  0
 32 33  1  0  0  0  0
 33  7  1  0  0  0  0
 33 34  2  0  0  0  0
 34 35  1  0  0  0  0
 36 34  1  0  0  0  0
 36 37  1  0  0  0  0
 38 36  2  0  0  0  0
 39 32  2  0  0  0  0
 39 38  1  0  0  0  0
 41 40  1  0  0  0  0
 41 32  1  0  0  0  0
 41 42  2  0  0  0  0
 43 41  2  0  0  0  0
M  END
>  <minimizedAffinity>
-6.77711058

>  <minimizedRMSD>
1.0216608

$$$$
