
 OpenBabel03252504503D

 37 39  0  0  0  0  0  0  0  0999 V2000
   47.6900   33.9510   42.8840 C   0  0  0  0  0  0  0  0  0  0  0  0
   48.3740   33.0100   42.0990 C   0  0  0  0  0  0  0  0  0  0  0  0
   48.4930   31.7250   42.6060 C   0  0  0  0  0  0  0  0  0  0  0  0
   47.9380   31.4700   43.8250 N   0  0  0  0  0  0  0  0  0  0  0  0
   47.2940   32.3800   44.5500 C   0  0  0  0  0  0  0  0  0  0  0  0
   47.1670   33.6350   44.0750 N   0  0  0  0  0  0  0  0  0  0  0  0
   47.5480   34.9850   42.5730 H   0  0  0  0  0  0  0  0  0  0  0  0
   49.0100   30.9680   42.0440 H   0  0  0  0  0  0  0  0  0  0  0  0
   45.2970   30.0650   44.4990 Cl  0  0  0  0  0  0  0  0  0  0  0  0
   45.8060   30.9930   45.9250 C   0  0  0  0  0  0  0  0  0  0  0  0
   46.7250   32.0320   45.8470 C   0  0  0  0  0  0  0  0  0  0  0  0
   47.0990   32.7290   46.9650 C   0  0  0  0  0  0  0  0  0  0  0  0
   46.5490   32.3880   48.1950 C   0  0  0  0  0  0  0  0  0  0  0  0
   45.6440   31.3570   48.2340 C   0  0  0  0  0  0  0  0  0  0  0  0
   44.9580   30.9420   49.7830 Cl  0  0  0  0  0  0  0  0  0  0  0  0
   45.2460   30.6380   47.1390 C   0  0  0  0  0  0  0  0  0  0  0  0
   47.8110   33.5430   46.9440 H   0  0  0  0  0  0  0  0  0  0  0  0
   46.8140   32.9130   49.1070 H   0  0  0  0  0  0  0  0  0  0  0  0
   44.5180   29.8260   47.2480 H   0  0  0  0  0  0  0  0  0  0  0  0
   48.9200   33.4210   40.8180 C   0  0  0  0  0  0  0  0  0  0  0  0
   49.8550   33.9970   40.9700 H   0  0  0  0  0  0  0  0  0  0  0  0
   49.1930   32.5300   40.2430 H   0  0  0  0  0  0  0  0  0  0  0  0
   47.9460   34.3440   40.1360 C   0  0  0  0  0  0  0  0  0  0  0  0
   48.5710   35.0580   39.5380 H   0  0  0  0  0  0  0  0  0  0  0  0
   47.5170   34.9820   40.9530 H   0  0  0  0  0  0  0  0  0  0  0  0
   47.2200   33.2660   38.0580 C   0  0  0  0  0  0  0  0  0  0  0  0
   46.9180   33.6630   39.3440 C   0  0  0  0  0  0  0  0  0  0  0  0
   45.6740   33.4170   39.8900 C   0  0  0  0  0  0  0  0  0  0  0  0
   45.4630   33.7460   40.9200 H   0  0  0  0  0  0  0  0  0  0  0  0
   44.6750   32.7710   39.2000 C   0  0  0  0  0  0  0  0  0  0  0  0
   43.7180   32.6040   39.6730 H   0  0  0  0  0  0  0  0  0  0  0  0
   45.0050   32.3830   37.9100 C   0  0  0  0  0  0  0  0  0  0  0  0
   46.2260   32.6060   37.3270 C   0  0  0  0  0  0  0  0  0  0  0  0
   49.1930   34.8280   37.4280 H   0  0  0  0  0  0  0  0  0  0  0  0
   48.7390   33.5280   37.2730 S   0  0  0  0  0  0  0  0  0  0  0  0
   49.7890   32.5160   37.6290 O   0  0  0  0  0  0  0  0  0  0  0  0
   48.5250   33.3660   35.7740 O   0  0  0  0  0  0  0  0  0  0  0  0
  1  6  1  0  0  0  0
  2  3  1  0  0  0  0
  2  1  2  0  0  0  0
  3  4  2  0  0  0  0
  4  5  1  0  0  0  0
  5 11  1  0  0  0  0
  6  5  2  0  0  0  0
  7  1  1  0  0  0  0
  8  3  1  0  0  0  0
  9 10  1  0  0  0  0
 10 16  1  0  0  0  0
 11 10  2  0  0  0  0
 11 12  1  0  0  0  0
 12 13  2  0  0  0  0
 13 14  1  0  0  0  0
 13 18  1  0  0  0  0
 14 15  1  0  0  0  0
 16 19  1  0  0  0  0
 16 14  2  0  0  0  0
 17 12  1  0  0  0  0
 20 21  1  0  0  0  0
 20  2  1  0  0  0  0
 22 20  1  0  0  0  0
 23 20  1  0  0  0  0
 23 25  1  0  0  0  0
 24 23  1  0  0  0  0
 26 27  1  0  0  0  0
 27 28  2  0  0  0  0
 27 23  1  0  0  0  0
 28 29  1  0  0  0  0
 30 31  1  0  0  0  0
 30 28  1  0  0  0  0
 32 30  2  0  0  0  0
 33 32  1  0  0  0  0
 33 26  2  0  0  0  0
 35 34  1  0  0  0  0
 35 36  2  0  0  0  0
 35 26  1  0  0  0  0
 37 35  2  0  0  0  0
M  END
>  <minimizedAffinity>
-4.90880489

>  <minimizedRMSD>
2.8007226

$$$$
