
 OpenBabel03242512593D

 31 33  0  0  0  0  0  0  0  0999 V2000
   38.0810   27.5940   39.6670 F   0  0  0  0  0  0  0  0  0  0  0  0
   37.8540   27.8480   40.9920 C   0  0  0  0  0  0  0  0  0  0  0  0
   37.7830   29.1210   41.4680 C   0  0  0  0  0  0  0  0  0  0  0  0
   37.5500   29.2630   42.8270 C   0  0  0  0  0  0  0  0  0  0  0  0
   37.3910   28.1960   43.6780 C   0  0  0  0  0  0  0  0  0  0  0  0
   37.4710   26.9310   43.1410 C   0  0  0  0  0  0  0  0  0  0  0  0
   37.7040   26.7410   41.7940 C   0  0  0  0  0  0  0  0  0  0  0  0
   37.4910   30.2770   43.2210 H   0  0  0  0  0  0  0  0  0  0  0  0
   37.2100   28.4190   44.7350 H   0  0  0  0  0  0  0  0  0  0  0  0
   37.3440   26.1150   43.8280 H   0  0  0  0  0  0  0  0  0  0  0  0
   37.0830   31.9990   39.1060 C   0  0  0  0  0  0  0  0  0  0  0  0
   36.8910   30.9400   39.9990 C   0  0  0  0  0  0  0  0  0  0  0  0
   37.9570   30.2260   40.5370 C   0  0  0  0  0  0  0  0  0  0  0  0
   39.1980   30.6220   40.1410 N   0  0  0  0  0  0  0  0  0  0  0  0
   39.3720   31.6450   39.2780 C   0  0  0  0  0  0  0  0  0  0  0  0
   38.3330   32.3210   38.7700 N   0  0  0  0  0  0  0  0  0  0  0  0
   36.1290   32.4180   38.8070 H   0  0  0  0  0  0  0  0  0  0  0  0
   35.9290   30.5860   40.3460 H   0  0  0  0  0  0  0  0  0  0  0  0
   40.3350   31.9960   38.9330 H   0  0  0  0  0  0  0  0  0  0  0  0
   38.9150   24.6300   41.1250 C   0  0  0  0  0  0  0  0  0  0  0  0
   37.7860   25.3850   41.2440 C   0  0  0  0  0  0  0  0  0  0  0  0
   36.5450   24.9040   40.8300 C   0  0  0  0  0  0  0  0  0  0  0  0
   35.6040   25.4580   40.8970 H   0  0  0  0  0  0  0  0  0  0  0  0
   36.4350   23.6310   40.2790 C   0  0  0  0  0  0  0  0  0  0  0  0
   35.4730   23.2500   39.9560 H   0  0  0  0  0  0  0  0  0  0  0  0
   37.5980   22.8770   40.1680 C   0  0  0  0  0  3  0  0  0  0  0  0
   38.8190   23.3660   40.5820 C   0  0  0  0  0  3  0  0  0  0  0  0
   40.2750   26.7440   41.7460 H   0  0  0  0  0  0  0  0  0  0  0  0
   40.4090   25.3640   41.6890 S   0  0  0  0  0  0  0  0  0  0  0  0
   41.4430   25.1120   40.6260 O   0  0  0  0  0  0  0  0  0  0  0  0
   40.8780   24.7940   42.9780 O   0  0  0  0  0  0  0  0  0  0  0  0
  1  2  1  0  0  0  0
  2  3  2  0  0  0  0
  2  7  1  0  0  0  0
  3  4  1  0  0  0  0
  4  8  1  0  0  0  0
  4  5  2  0  0  0  0
  5  9  1  0  0  0  0
  6  5  1  0  0  0  0
  6 10  1  0  0  0  0
  7  6  2  0  0  0  0
 11 12  1  0  0  0  0
 12 18  1  0  0  0  0
 12 13  2  0  0  0  0
 13  3  1  0  0  0  0
 14 13  1  0  0  0  0
 15 14  2  0  0  0  0
 16 11  2  0  0  0  0
 16 15  1  0  0  0  0
 17 11  1  0  0  0  0
 19 15  1  0  0  0  0
 20 21  1  0  0  0  0
 20 29  1  0  0  0  0
 21  7  1  0  0  0  0
 22 23  1  0  0  0  0
 22 21  2  0  0  0  0
 24 22  1  0  0  0  0
 25 24  1  0  0  0  0
 26 24  2  0  0  0  0
 26 27  1  0  0  0  0
 27 20  2  0  0  0  0
 29 28  1  0  0  0  0
 29 31  2  0  0  0  0
 30 29  2  0  0  0  0
M  END
>  <minimizedAffinity>
-5.30195713

$$$$

 OpenBabel03242512593D

 31 33  0  0  0  0  0  0  0  0999 V2000
   39.2050   27.6330   40.3740 F   0  0  0  0  0  0  0  0  0  0  0  0
   38.3720   27.5980   41.4600 C   0  0  0  0  0  0  0  0  0  0  0  0
   37.6220   26.4980   41.7420 C   0  0  0  0  0  0  0  0  0  0  0  0
   36.8120   26.5700   42.8640 C   0  0  0  0  0  0  0  0  0  0  0  0
   36.7480   27.6790   43.6740 C   0  0  0  0  0  0  0  0  0  0  0  0
   37.5290   28.7620   43.3400 C   0  0  0  0  0  0  0  0  0  0  0  0
   38.3490   28.7360   42.2310 C   0  0  0  0  0  0  0  0  0  0  0  0
   36.2070   25.6960   43.1010 H   0  0  0  0  0  0  0  0  0  0  0  0
   36.0750   27.6310   44.5370 H   0  0  0  0  0  0  0  0  0  0  0  0
   37.4590   29.6140   43.9890 H   0  0  0  0  0  0  0  0  0  0  0  0
   38.5010   23.0940   40.3290 C   0  0  0  0  0  0  0  0  0  0  0  0
   38.4250   24.1920   41.1920 C   0  0  0  0  0  0  0  0  0  0  0  0
   37.7170   25.3430   40.8620 C   0  0  0  0  0  0  0  0  0  0  0  0
   37.1020   25.3330   39.6460 N   0  0  0  0  0  0  0  0  0  0  0  0
   37.1830   24.2690   38.8210 C   0  0  0  0  0  0  0  0  0  0  0  0
   37.8690   23.1690   39.1570 N   0  0  0  0  0  0  0  0  0  0  0  0
   39.0990   22.3050   40.7740 H   0  0  0  0  0  0  0  0  0  0  0  0
   38.8930   24.2510   42.1670 H   0  0  0  0  0  0  0  0  0  0  0  0
   36.7140   24.2130   37.8480 H   0  0  0  0  0  0  0  0  0  0  0  0
   38.8430   30.8970   41.0250 C   0  0  0  0  0  0  0  0  0  0  0  0
   39.1720   29.9000   41.8950 C   0  0  0  0  0  0  0  0  0  0  0  0
   40.3880   29.9070   42.5780 C   0  0  0  0  0  0  0  0  0  0  0  0
   40.7120   29.1390   43.2860 H   0  0  0  0  0  0  0  0  0  0  0  0
   41.2980   30.9400   42.3790 C   0  0  0  0  0  0  0  0  0  0  0  0
   42.2450   30.9510   42.9060 H   0  0  0  0  0  0  0  0  0  0  0  0
   40.9420   31.9460   41.4880 C   0  0  0  0  0  3  0  0  0  0  0  0
   39.7360   31.9270   40.8200 C   0  0  0  0  0  3  0  0  0  0  0  0
   37.1300   29.4990   39.6770 H   0  0  0  0  0  0  0  0  0  0  0  0
   37.2780   30.7600   40.2360 S   0  0  0  0  0  0  0  0  0  0  0  0
   37.2970   31.7090   39.0690 O   0  0  0  0  0  0  0  0  0  0  0  0
   36.1490   31.1080   41.1370 O   0  0  0  0  0  0  0  0  0  0  0  0
  1  2  1  0  0  0  0
  2  3  2  0  0  0  0
  2  7  1  0  0  0  0
  3  4  1  0  0  0  0
  4  8  1  0  0  0  0
  4  5  2  0  0  0  0
  5  9  1  0  0  0  0
  6  5  1  0  0  0  0
  6 10  1  0  0  0  0
  7  6  2  0  0  0  0
 11 17  1  0  0  0  0
 11 12  1  0  0  0  0
 12 18  1  0  0  0  0
 13 12  2  0  0  0  0
 13  3  1  0  0  0  0
 14 13  1  0  0  0  0
 15 16  1  0  0  0  0
 15 14  2  0  0  0  0
 16 11  2  0  0  0  0
 19 15  1  0  0  0  0
 20 21  1  0  0  0  0
 21  7  1  0  0  0  0
 21 22  2  0  0  0  0
 22 23  1  0  0  0  0
 24 22  1  0  0  0  0
 24 25  1  0  0  0  0
 26 24  2  0  0  0  0
 27 20  2  0  0  0  0
 27 26  1  0  0  0  0
 28 29  1  0  0  0  0
 29 20  1  0  0  0  0
 29 31  2  0  0  0  0
 30 29  2  0  0  0  0
M  END
>  <minimizedAffinity>
-5.25753164

$$$$

 OpenBabel03242512593D

 31 33  0  0  0  0  0  0  0  0999 V2000
   39.9550   29.7100   40.3270 F   0  0  0  0  0  0  0  0  0  0  0  0
   39.0080   30.6840   40.1570 C   0  0  0  0  0  0  0  0  0  0  0  0
   39.2830   31.8270   39.4720 C   0  0  0  0  0  0  0  0  0  0  0  0
   38.2520   32.7460   39.3610 C   0  0  0  0  0  0  0  0  0  0  0  0
   37.0030   32.5440   39.8990 C   0  0  0  0  0  0  0  0  0  0  0  0
   36.7820   31.3680   40.5800 C   0  0  0  0  0  0  0  0  0  0  0  0
   37.7790   30.4250   40.7170 C   0  0  0  0  0  0  0  0  0  0  0  0
   38.4580   33.6660   38.8150 H   0  0  0  0  0  0  0  0  0  0  0  0
   36.2590   33.3350   39.7520 H   0  0  0  0  0  0  0  0  0  0  0  0
   35.7990   31.2360   40.9900 H   0  0  0  0  0  0  0  0  0  0  0  0
   42.2030   31.9760   37.0640 C   0  0  0  0  0  0  0  0  0  0  0  0
   40.9140   31.7970   37.5740 C   0  0  0  0  0  0  0  0  0  0  0  0
   40.6160   32.0070   38.9170 C   0  0  0  0  0  0  0  0  0  0  0  0
   41.6580   32.3970   39.7030 N   0  0  0  0  0  0  0  0  0  0  0  0
   42.8980   32.5660   39.1990 C   0  0  0  0  0  0  0  0  0  0  0  0
   43.1660   32.3600   37.9030 N   0  0  0  0  0  0  0  0  0  0  0  0
   42.2210   31.7610   36.0000 H   0  0  0  0  0  0  0  0  0  0  0  0
   40.0530   31.4890   36.9950 H   0  0  0  0  0  0  0  0  0  0  0  0
   43.7560   32.8740   39.7810 H   0  0  0  0  0  0  0  0  0  0  0  0
   37.1390   27.9910   40.9020 C   0  0  0  0  0  0  0  0  0  0  0  0
   37.5220   29.1810   41.4470 C   0  0  0  0  0  0  0  0  0  0  0  0
   37.7110   29.3210   42.8210 C   0  0  0  0  0  0  0  0  0  0  0  0
   38.0170   30.2460   43.3190 H   0  0  0  0  0  0  0  0  0  0  0  0
   37.5090   28.2380   43.6700 C   0  0  0  0  0  0  0  0  0  0  0  0
   37.6550   28.3400   44.7390 H   0  0  0  0  0  0  0  0  0  0  0  0
   37.1200   27.0340   43.0940 C   0  0  0  0  0  3  0  0  0  0  0  0
   36.9360   26.9100   41.7330 C   0  0  0  0  0  3  0  0  0  0  0  0
   36.3570   29.1400   38.7170 H   0  0  0  0  0  0  0  0  0  0  0  0
   36.9380   27.9600   39.1560 S   0  0  0  0  0  0  0  0  0  0  0  0
   35.9270   26.8860   38.8560 O   0  0  0  0  0  0  0  0  0  0  0  0
   38.2030   27.6590   38.4380 O   0  0  0  0  0  0  0  0  0  0  0  0
  2  1  1  0  0  0  0
  2  7  1  0  0  0  0
  3  2  2  0  0  0  0
  4  3  1  0  0  0  0
  4  5  2  0  0  0  0
  5  6  1  0  0  0  0
  6  7  2  0  0  0  0
  6 10  1  0  0  0  0
  7 21  1  0  0  0  0
  8  4  1  0  0  0  0
  9  5  1  0  0  0  0
 11 12  2  0  0  0  0
 11 16  1  0  0  0  0
 12 13  1  0  0  0  0
 13  3  1  0  0  0  0
 13 14  2  0  0  0  0
 15 14  1  0  0  0  0
 15 19  1  0  0  0  0
 16 15  2  0  0  0  0
 17 11  1  0  0  0  0
 18 12  1  0  0  0  0
 20 21  2  0  0  0  0
 20 27  1  0  0  0  0
 21 22  1  0  0  0  0
 22 23  1  0  0  0  0
 22 24  2  0  0  0  0
 24 25  1  0  0  0  0
 26 24  1  0  0  0  0
 27 26  2  0  0  0  0
 28 29  1  0  0  0  0
 29 20  1  0  0  0  0
 30 29  2  0  0  0  0
 31 29  2  0  0  0  0
M  END
>  <minimizedAffinity>
-5.20548391

$$$$

 OpenBabel03242512593D

 31 33  0  0  0  0  0  0  0  0999 V2000
   39.6960   28.1790   40.5870 F   0  0  0  0  0  0  0  0  0  0  0  0
   38.7430   27.9930   41.5520 C   0  0  0  0  0  0  0  0  0  0  0  0
   39.0640   27.4980   42.7780 C   0  0  0  0  0  0  0  0  0  0  0  0
   38.0210   27.3490   43.6790 C   0  0  0  0  0  0  0  0  0  0  0  0
   36.7200   27.6770   43.3830 C   0  0  0  0  0  0  0  0  0  0  0  0
   36.4540   28.1740   42.1270 C   0  0  0  0  0  0  0  0  0  0  0  0
   37.4600   28.3380   41.1970 C   0  0  0  0  0  0  0  0  0  0  0  0
   38.2640   26.9540   44.6640 H   0  0  0  0  0  0  0  0  0  0  0  0
   35.9720   27.5210   44.1680 H   0  0  0  0  0  0  0  0  0  0  0  0
   35.4300   28.4220   41.9220 H   0  0  0  0  0  0  0  0  0  0  0  0
   42.7620   27.7730   43.5530 C   0  0  0  0  0  0  0  0  0  0  0  0
   41.4340   28.1200   43.2880 C   0  0  0  0  0  0  0  0  0  0  0  0
   40.4520   27.1620   43.0550 C   0  0  0  0  0  0  0  0  0  0  0  0
   40.8660   25.8650   43.1010 N   0  0  0  0  0  0  0  0  0  0  0  0
   42.1500   25.5410   43.3570 C   0  0  0  0  0  0  0  0  0  0  0  0
   43.0810   26.4780   43.5790 N   0  0  0  0  0  0  0  0  0  0  0  0
   43.3620   28.6640   43.7040 H   0  0  0  0  0  0  0  0  0  0  0  0
   41.0530   29.1330   43.2410 H   0  0  0  0  0  0  0  0  0  0  0  0
   42.5270   24.5290   43.4040 H   0  0  0  0  0  0  0  0  0  0  0  0
   37.2530   30.1710   39.4750 C   0  0  0  0  0  0  0  0  0  0  0  0
   37.1540   28.8690   39.8660 C   0  0  0  0  0  0  0  0  0  0  0  0
   36.7310   27.8760   38.9830 C   0  0  0  0  0  0  0  0  0  0  0  0
   36.6310   26.8170   39.2340 H   0  0  0  0  0  0  0  0  0  0  0  0
   36.3970   28.2020   37.6720 C   0  0  0  0  0  0  0  0  0  0  0  0
   36.0670   27.4350   36.9800 H   0  0  0  0  0  0  0  0  0  0  0  0
   36.5050   29.5350   37.2940 C   0  0  0  0  0  3  0  0  0  0  0  0
   36.9250   30.5060   38.1780 C   0  0  0  0  0  3  0  0  0  0  0  0
   37.1710   31.0630   41.9040 H   0  0  0  0  0  0  0  0  0  0  0  0
   37.8000   31.3140   40.6930 S   0  0  0  0  0  0  0  0  0  0  0  0
   37.3080   32.6700   40.2660 O   0  0  0  0  0  0  0  0  0  0  0  0
   39.2790   31.3460   40.8270 O   0  0  0  0  0  0  0  0  0  0  0  0
  1  2  1  0  0  0  0
  2  3  1  0  0  0  0
  3 13  1  0  0  0  0
  3  4  2  0  0  0  0
  4  8  1  0  0  0  0
  5  4  1  0  0  0  0
  5  9  1  0  0  0  0
  6  5  2  0  0  0  0
  7  2  2  0  0  0  0
  7  6  1  0  0  0  0
 10  6  1  0  0  0  0
 11 16  1  0  0  0  0
 11 17  1  0  0  0  0
 12 11  2  0  0  0  0
 13 14  2  0  0  0  0
 13 12  1  0  0  0  0
 14 15  1  0  0  0  0
 15 19  1  0  0  0  0
 15 16  2  0  0  0  0
 18 12  1  0  0  0  0
 20 21  1  0  0  0  0
 20 29  1  0  0  0  0
 21  7  1  0  0  0  0
 22 23  1  0  0  0  0
 22 21  2  0  0  0  0
 24 22  1  0  0  0  0
 25 24  1  0  0  0  0
 26 24  2  0  0  0  0
 26 27  1  0  0  0  0
 27 20  2  0  0  0  0
 29 31  2  0  0  0  0
 29 28  1  0  0  0  0
 30 29  2  0  0  0  0
M  END
>  <minimizedAffinity>
-5.19880295

$$$$

 OpenBabel03242512593D

 31 33  0  0  0  0  0  0  0  0999 V2000
   38.3370   28.2070   39.8370 F   0  0  0  0  0  0  0  0  0  0  0  0
   37.8620   27.9700   41.0990 C   0  0  0  0  0  0  0  0  0  0  0  0
   37.5450   26.7120   41.5120 C   0  0  0  0  0  0  0  0  0  0  0  0
   37.0720   26.5870   42.8090 C   0  0  0  0  0  0  0  0  0  0  0  0
   36.9220   27.6550   43.6610 C   0  0  0  0  0  0  0  0  0  0  0  0
   37.2600   28.9030   43.1890 C   0  0  0  0  0  0  0  0  0  0  0  0
   37.7330   29.0760   41.9050 C   0  0  0  0  0  0  0  0  0  0  0  0
   36.8140   25.5860   43.1520 H   0  0  0  0  0  0  0  0  0  0  0  0
   36.5410   27.4450   44.6670 H   0  0  0  0  0  0  0  0  0  0  0  0
   37.1330   29.7190   43.8750 H   0  0  0  0  0  0  0  0  0  0  0  0
   36.8780   24.0560   38.8940 C   0  0  0  0  0  0  0  0  0  0  0  0
   36.6880   25.1200   39.7810 C   0  0  0  0  0  0  0  0  0  0  0  0
   37.7170   25.6070   40.5820 C   0  0  0  0  0  0  0  0  0  0  0  0
   38.9200   24.9810   40.4490 N   0  0  0  0  0  0  0  0  0  0  0  0
   39.0910   23.9550   39.5910 C   0  0  0  0  0  0  0  0  0  0  0  0
   38.0890   23.5010   38.8270 N   0  0  0  0  0  0  0  0  0  0  0  0
   35.9560   23.8340   38.3690 H   0  0  0  0  0  0  0  0  0  0  0  0
   35.7560   25.6510   39.9250 H   0  0  0  0  0  0  0  0  0  0  0  0
   40.0240   23.4270   39.4490 H   0  0  0  0  0  0  0  0  0  0  0  0
   39.2950   31.0300   41.5650 C   0  0  0  0  0  0  0  0  0  0  0  0
   38.0860   30.4150   41.4240 C   0  0  0  0  0  0  0  0  0  0  0  0
   37.0250   31.0420   40.7720 C   0  0  0  0  0  0  0  0  0  0  0  0
   36.0340   30.6040   40.6270 H   0  0  0  0  0  0  0  0  0  0  0  0
   37.1830   32.3220   40.2510 C   0  0  0  0  0  0  0  0  0  0  0  0
   36.3620   32.8160   39.7430 H   0  0  0  0  0  0  0  0  0  0  0  0
   38.4230   32.9310   40.4050 C   0  0  0  0  0  3  0  0  0  0  0  0
   39.4640   32.2980   41.0520 C   0  0  0  0  0  3  0  0  0  0  0  0
   39.9980   29.4570   43.4990 H   0  0  0  0  0  0  0  0  0  0  0  0
   40.5410   30.1190   42.4080 S   0  0  0  0  0  0  0  0  0  0  0  0
   41.4930   31.1280   42.9920 O   0  0  0  0  0  0  0  0  0  0  0  0
   41.2860   29.2010   41.5100 O   0  0  0  0  0  0  0  0  0  0  0  0
  1  2  1  0  0  0  0
  2  3  2  0  0  0  0
  2  7  1  0  0  0  0
  3  4  1  0  0  0  0
  4  8  1  0  0  0  0
  4  5  2  0  0  0  0
  5  9  1  0  0  0  0
  6  5  1  0  0  0  0
  6 10  1  0  0  0  0
  7  6  2  0  0  0  0
 11 12  1  0  0  0  0
 12 18  1  0  0  0  0
 12 13  2  0  0  0  0
 13  3  1  0  0  0  0
 14 13  1  0  0  0  0
 15 14  2  0  0  0  0
 16 11  2  0  0  0  0
 16 15  1  0  0  0  0
 17 11  1  0  0  0  0
 19 15  1  0  0  0  0
 20 29  1  0  0  0  0
 21 20  1  0  0  0  0
 21  7  1  0  0  0  0
 22 21  2  0  0  0  0
 23 22  1  0  0  0  0
 24 26  2  0  0  0  0
 24 22  1  0  0  0  0
 25 24  1  0  0  0  0
 26 27  1  0  0  0  0
 27 20  2  0  0  0  0
 29 30  2  0  0  0  0
 29 28  1  0  0  0  0
 31 29  2  0  0  0  0
M  END
>  <minimizedAffinity>
-5.15357351

$$$$

 OpenBabel03242512593D

 31 33  0  0  0  0  0  0  0  0999 V2000
   38.1030   27.4420   39.7530 F   0  0  0  0  0  0  0  0  0  0  0  0
   37.3400   26.3070   39.7020 C   0  0  0  0  0  0  0  0  0  0  0  0
   36.4460   26.0980   38.6980 C   0  0  0  0  0  0  0  0  0  0  0  0
   35.7250   24.9150   38.7460 C   0  0  0  0  0  0  0  0  0  0  0  0
   35.8820   23.9790   39.7390 C   0  0  0  0  0  0  0  0  0  0  0  0
   36.8010   24.2430   40.7280 C   0  0  0  0  0  0  0  0  0  0  0  0
   37.5410   25.4080   40.7230 C   0  0  0  0  0  0  0  0  0  0  0  0
   35.0060   24.7360   37.9470 H   0  0  0  0  0  0  0  0  0  0  0  0
   35.2620   23.0770   39.6810 H   0  0  0  0  0  0  0  0  0  0  0  0
   36.9040   23.4950   41.4920 H   0  0  0  0  0  0  0  0  0  0  0  0
   35.2820   29.1240   36.7380 C   0  0  0  0  0  0  0  0  0  0  0  0
   35.3960   28.1610   37.7450 C   0  0  0  0  0  0  0  0  0  0  0  0
   36.3070   27.1120   37.6640 C   0  0  0  0  0  0  0  0  0  0  0  0
   37.0790   27.0820   36.5420 N   0  0  0  0  0  0  0  0  0  0  0  0
   36.9600   28.0150   35.5760 C   0  0  0  0  0  0  0  0  0  0  0  0
   36.0770   29.0190   35.6720 N   0  0  0  0  0  0  0  0  0  0  0  0
   34.5170   29.8490   36.9940 H   0  0  0  0  0  0  0  0  0  0  0  0
   34.8090   28.1390   38.6540 H   0  0  0  0  0  0  0  0  0  0  0  0
   37.5480   28.0350   34.6690 H   0  0  0  0  0  0  0  0  0  0  0  0
   38.4240   26.6360   42.7440 C   0  0  0  0  0  0  0  0  0  0  0  0
   38.5140   25.6680   41.7870 C   0  0  0  0  0  0  0  0  0  0  0  0
   39.6000   24.7950   41.7390 C   0  0  0  0  0  0  0  0  0  0  0  0
   39.7310   24.0000   40.9990 H   0  0  0  0  0  0  0  0  0  0  0  0
   40.6240   24.8990   42.6750 C   0  0  0  0  0  0  0  0  0  0  0  0
   41.4710   24.2230   42.6440 H   0  0  0  0  0  0  0  0  0  0  0  0
   40.5120   25.8920   43.6420 C   0  0  0  0  0  3  0  0  0  0  0  0
   39.4320   26.7480   43.6780 C   0  0  0  0  0  3  0  0  0  0  0  0
   36.4950   27.7110   41.3920 H   0  0  0  0  0  0  0  0  0  0  0  0
   36.9990   27.6640   42.6830 S   0  0  0  0  0  0  0  0  0  0  0  0
   37.4640   29.0640   42.9780 O   0  0  0  0  0  0  0  0  0  0  0  0
   35.9650   27.2690   43.6740 O   0  0  0  0  0  0  0  0  0  0  0  0
  2  1  1  0  0  0  0
  2  7  1  0  0  0  0
  3  4  1  0  0  0  0
  3  2  2  0  0  0  0
  4  5  2  0  0  0  0
  5  6  1  0  0  0  0
  6 10  1  0  0  0  0
  7  6  2  0  0  0  0
  7 21  1  0  0  0  0
  8  4  1  0  0  0  0
  9  5  1  0  0  0  0
 11 17  1  0  0  0  0
 11 12  1  0  0  0  0
 12 18  1  0  0  0  0
 13 12  2  0  0  0  0
 13  3  1  0  0  0  0
 14 13  1  0  0  0  0
 15 16  1  0  0  0  0
 15 14  2  0  0  0  0
 16 11  2  0  0  0  0
 19 15  1  0  0  0  0
 20 27  1  0  0  0  0
 21 20  2  0  0  0  0
 22 21  1  0  0  0  0
 22 24  2  0  0  0  0
 23 22  1  0  0  0  0
 24 26  1  0  0  0  0
 25 24  1  0  0  0  0
 26 27  2  0  0  0  0
 28 29  1  0  0  0  0
 29 20  1  0  0  0  0
 29 30  2  0  0  0  0
 29 31  2  0  0  0  0
M  END
>  <minimizedAffinity>
-5.10085487

$$$$

 OpenBabel03242512593D

 31 33  0  0  0  0  0  0  0  0999 V2000
   38.5040   29.2590   40.2040 F   0  0  0  0  0  0  0  0  0  0  0  0
   38.0490   28.7400   41.3860 C   0  0  0  0  0  0  0  0  0  0  0  0
   38.7840   28.8280   42.5280 C   0  0  0  0  0  0  0  0  0  0  0  0
   38.2280   28.2670   43.6670 C   0  0  0  0  0  0  0  0  0  0  0  0
   37.0010   27.6500   43.6790 C   0  0  0  0  0  0  0  0  0  0  0  0
   36.3020   27.5910   42.4950 C   0  0  0  0  0  0  0  0  0  0  0  0
   36.8160   28.1340   41.3350 C   0  0  0  0  0  0  0  0  0  0  0  0
   38.8060   28.3310   44.5880 H   0  0  0  0  0  0  0  0  0  0  0  0
   36.6540   27.2410   44.6340 H   0  0  0  0  0  0  0  0  0  0  0  0
   35.3460   27.1020   42.5320 H   0  0  0  0  0  0  0  0  0  0  0  0
   41.4860   31.4830   42.5010 C   0  0  0  0  0  0  0  0  0  0  0  0
   40.2310   30.8700   42.5510 C   0  0  0  0  0  0  0  0  0  0  0  0
   40.0790   29.4890   42.4770 C   0  0  0  0  0  0  0  0  0  0  0  0
   41.2300   28.7710   42.3510 N   0  0  0  0  0  0  0  0  0  0  0  0
   42.4360   29.3730   42.3020 C   0  0  0  0  0  0  0  0  0  0  0  0
   42.5620   30.7040   42.3760 N   0  0  0  0  0  0  0  0  0  0  0  0
   41.3840   32.5600   42.5740 H   0  0  0  0  0  0  0  0  0  0  0  0
   39.2870   31.3920   42.6510 H   0  0  0  0  0  0  0  0  0  0  0  0
   43.3770   28.8490   42.2030 H   0  0  0  0  0  0  0  0  0  0  0  0
   36.2100   27.1290   39.1000 C   0  0  0  0  0  0  0  0  0  0  0  0
   36.0550   28.0590   40.0850 C   0  0  0  0  0  0  0  0  0  0  0  0
   35.1050   29.0740   39.9800 C   0  0  0  0  0  0  0  0  0  0  0  0
   34.9320   29.8490   40.7330 H   0  0  0  0  0  0  0  0  0  0  0  0
   34.2900   29.1580   38.8550 C   0  0  0  0  0  0  0  0  0  0  0  0
   33.5500   29.9440   38.7680 H   0  0  0  0  0  0  0  0  0  0  0  0
   34.4650   28.1990   37.8640 C   0  0  0  0  0  3  0  0  0  0  0  0
   35.4080   27.2010   37.9810 C   0  0  0  0  0  3  0  0  0  0  0  0
   38.6100   26.4960   39.8380 H   0  0  0  0  0  0  0  0  0  0  0  0
   37.4450   25.9070   39.3670 S   0  0  0  0  0  0  0  0  0  0  0  0
   37.8020   25.3500   38.0160 O   0  0  0  0  0  0  0  0  0  0  0  0
   36.9810   24.8040   40.2470 O   0  0  0  0  0  0  0  0  0  0  0  0
  1  2  1  0  0  0  0
  2  3  1  0  0  0  0
  3  4  2  0  0  0  0
  4  5  1  0  0  0  0
  4  8  1  0  0  0  0
  5  9  1  0  0  0  0
  6 10  1  0  0  0  0
  6  5  2  0  0  0  0
  7  2  2  0  0  0  0
  7  6  1  0  0  0  0
 11 12  1  0  0  0  0
 11 17  1  0  0  0  0
 12 18  1  0  0  0  0
 13  3  1  0  0  0  0
 13 12  2  0  0  0  0
 14 13  1  0  0  0  0
 15 14  2  0  0  0  0
 15 16  1  0  0  0  0
 16 11  2  0  0  0  0
 19 15  1  0  0  0  0
 20 29  1  0  0  0  0
 20 21  1  0  0  0  0
 21  7  1  0  0  0  0
 22 21  2  0  0  0  0
 22 23  1  0  0  0  0
 24 22  1  0  0  0  0
 25 24  1  0  0  0  0
 26 27  1  0  0  0  0
 26 24  2  0  0  0  0
 27 20  2  0  0  0  0
 29 28  1  0  0  0  0
 29 31  2  0  0  0  0
 30 29  2  0  0  0  0
M  END
>  <minimizedAffinity>
-5.07304096

$$$$

 OpenBabel03242512593D

 31 33  0  0  0  0  0  0  0  0999 V2000
   37.0780   30.8160   37.3120 F   0  0  0  0  0  0  0  0  0  0  0  0
   36.4530   30.2400   38.3840 C   0  0  0  0  0  0  0  0  0  0  0  0
   35.5190   29.2640   38.2200 C   0  0  0  0  0  0  0  0  0  0  0  0
   34.9490   28.7510   39.3750 C   0  0  0  0  0  0  0  0  0  0  0  0
   35.2870   29.1820   40.6360 C   0  0  0  0  0  0  0  0  0  0  0  0
   36.2380   30.1710   40.7410 C   0  0  0  0  0  0  0  0  0  0  0  0
   36.8320   30.7120   39.6190 C   0  0  0  0  0  0  0  0  0  0  0  0
   34.2000   27.9690   39.2580 H   0  0  0  0  0  0  0  0  0  0  0  0
   34.7760   28.7080   41.4810 H   0  0  0  0  0  0  0  0  0  0  0  0
   36.4830   30.4890   41.7370 H   0  0  0  0  0  0  0  0  0  0  0  0
   33.6790   28.7070   34.9560 C   0  0  0  0  0  0  0  0  0  0  0  0
   33.9750   29.1310   36.2550 C   0  0  0  0  0  0  0  0  0  0  0  0
   35.1870   28.8330   36.8710 C   0  0  0  0  0  0  0  0  0  0  0  0
   36.0660   28.1030   36.1300 N   0  0  0  0  0  0  0  0  0  0  0  0
   35.7690   27.6980   34.8780 C   0  0  0  0  0  0  0  0  0  0  0  0
   34.5980   27.9950   34.3010 N   0  0  0  0  0  0  0  0  0  0  0  0
   32.6890   29.0410   34.6670 H   0  0  0  0  0  0  0  0  0  0  0  0
   33.3140   29.7120   36.8860 H   0  0  0  0  0  0  0  0  0  0  0  0
   36.4320   27.1180   34.2500 H   0  0  0  0  0  0  0  0  0  0  0  0
   39.1920   31.5840   39.8220 C   0  0  0  0  0  0  0  0  0  0  0  0
   37.8420   31.7650   39.7550 C   0  0  0  0  0  0  0  0  0  0  0  0
   37.2780   33.0390   39.8130 C   0  0  0  0  0  0  0  0  0  0  0  0
   36.2060   33.2510   39.7650 H   0  0  0  0  0  0  0  0  0  0  0  0
   38.0910   34.1600   39.9430 C   0  0  0  0  0  0  0  0  0  0  0  0
   37.6590   35.1530   39.9880 H   0  0  0  0  0  0  0  0  0  0  0  0
   39.4640   33.9530   40.0080 C   0  0  0  0  0  3  0  0  0  0  0  0
   40.0090   32.6870   39.9500 C   0  0  0  0  0  3  0  0  0  0  0  0
   38.8380   29.1310   39.0710 H   0  0  0  0  0  0  0  0  0  0  0  0
   39.7630   29.9240   39.7360 S   0  0  0  0  0  0  0  0  0  0  0  0
   39.7880   29.4020   41.1470 O   0  0  0  0  0  0  0  0  0  0  0  0
   41.1210   29.8140   39.1460 O   0  0  0  0  0  0  0  0  0  0  0  0
  1  2  1  0  0  0  0
  2  7  1  0  0  0  0
  3  2  2  0  0  0  0
  3  4  1  0  0  0  0
  4  5  2  0  0  0  0
  5  6  1  0  0  0  0
  5  9  1  0  0  0  0
  6 10  1  0  0  0  0
  7 21  1  0  0  0  0
  7  6  2  0  0  0  0
  8  4  1  0  0  0  0
 11 12  1  0  0  0  0
 12 13  2  0  0  0  0
 12 18  1  0  0  0  0
 13  3  1  0  0  0  0
 14 13  1  0  0  0  0
 15 14  2  0  0  0  0
 16 15  1  0  0  0  0
 16 11  2  0  0  0  0
 17 11  1  0  0  0  0
 19 15  1  0  0  0  0
 20 27  1  0  0  0  0
 21 22  1  0  0  0  0
 21 20  2  0  0  0  0
 22 24  2  0  0  0  0
 23 22  1  0  0  0  0
 24 25  1  0  0  0  0
 24 26  1  0  0  0  0
 27 26  2  0  0  0  0
 28 29  1  0  0  0  0
 29 20  1  0  0  0  0
 29 30  2  0  0  0  0
 31 29  2  0  0  0  0
M  END
>  <minimizedAffinity>
-5.05964661

$$$$

 OpenBabel03242512593D

 31 33  0  0  0  0  0  0  0  0999 V2000
   39.1620   27.9400   39.6390 F   0  0  0  0  0  0  0  0  0  0  0  0
   37.9650   28.5990   39.5520 C   0  0  0  0  0  0  0  0  0  0  0  0
   37.8960   29.8880   39.1220 C   0  0  0  0  0  0  0  0  0  0  0  0
   36.6330   30.4580   39.0740 C   0  0  0  0  0  0  0  0  0  0  0  0
   35.4900   29.7850   39.4320 C   0  0  0  0  0  0  0  0  0  0  0  0
   35.6210   28.4830   39.8580 C   0  0  0  0  0  0  0  0  0  0  0  0
   36.8570   27.8740   39.9240 C   0  0  0  0  0  0  0  0  0  0  0  0
   36.5640   31.4900   38.7310 H   0  0  0  0  0  0  0  0  0  0  0  0
   34.5420   30.3290   39.3550 H   0  0  0  0  0  0  0  0  0  0  0  0
   34.7120   27.9800   40.1320 H   0  0  0  0  0  0  0  0  0  0  0  0
   41.2020   30.7350   37.4790 C   0  0  0  0  0  0  0  0  0  0  0  0
   40.0260   30.0610   37.8190 C   0  0  0  0  0  0  0  0  0  0  0  0
   39.1270   30.5690   38.7520 C   0  0  0  0  0  0  0  0  0  0  0  0
   39.4660   31.7630   39.3150 N   0  0  0  0  0  0  0  0  0  0  0  0
   40.6050   32.4030   38.9800 C   0  0  0  0  0  0  0  0  0  0  0  0
   41.4580   31.8990   38.0780 N   0  0  0  0  0  0  0  0  0  0  0  0
   41.7590   30.1710   36.7380 H   0  0  0  0  0  0  0  0  0  0  0  0
   39.7090   29.1130   37.4030 H   0  0  0  0  0  0  0  0  0  0  0  0
   40.9180   33.3510   39.3970 H   0  0  0  0  0  0  0  0  0  0  0  0
   37.2990   26.0770   41.6400 C   0  0  0  0  0  0  0  0  0  0  0  0
   36.9730   26.4870   40.3810 C   0  0  0  0  0  0  0  0  0  0  0  0
   36.7050   25.5690   39.3670 C   0  0  0  0  0  0  0  0  0  0  0  0
   36.4390   25.8320   38.3390 H   0  0  0  0  0  0  0  0  0  0  0  0
   36.7700   24.2030   39.6230 C   0  0  0  0  0  0  0  0  0  0  0  0
   36.5630   23.4840   38.8390 H   0  0  0  0  0  0  0  0  0  0  0  0
   37.1040   23.8070   40.9130 C   0  0  0  0  0  3  0  0  0  0  0  0
   37.3660   24.7260   41.9070 C   0  0  0  0  0  3  0  0  0  0  0  0
   38.0840   28.4840   42.1850 H   0  0  0  0  0  0  0  0  0  0  0  0
   37.6100   27.3440   42.8190 S   0  0  0  0  0  0  0  0  0  0  0  0
   38.7500   26.8670   43.6770 O   0  0  0  0  0  0  0  0  0  0  0  0
   36.4320   27.6300   43.6770 O   0  0  0  0  0  0  0  0  0  0  0  0
  2  1  1  0  0  0  0
  2  7  1  0  0  0  0
  3  2  2  0  0  0  0
  4  3  1  0  0  0  0
  4  5  2  0  0  0  0
  5  6  1  0  0  0  0
  6  7  2  0  0  0  0
  6 10  1  0  0  0  0
  7 21  1  0  0  0  0
  8  4  1  0  0  0  0
  9  5  1  0  0  0  0
 11 12  2  0  0  0  0
 11 16  1  0  0  0  0
 12 13  1  0  0  0  0
 13  3  1  0  0  0  0
 13 14  2  0  0  0  0
 15 14  1  0  0  0  0
 15 19  1  0  0  0  0
 16 15  2  0  0  0  0
 17 11  1  0  0  0  0
 18 12  1  0  0  0  0
 20 27  1  0  0  0  0
 20 29  1  0  0  0  0
 21 20  2  0  0  0  0
 22 24  2  0  0  0  0
 22 21  1  0  0  0  0
 23 22  1  0  0  0  0
 24 26  1  0  0  0  0
 25 24  1  0  0  0  0
 26 27  2  0  0  0  0
 28 29  1  0  0  0  0
 29 30  2  0  0  0  0
 29 31  2  0  0  0  0
M  END
>  <minimizedAffinity>
-5.04391432

$$$$
