
 OpenBabel03252502043D

 49 53  0  0  0  0  0  0  0  0999 V2000
   45.7050   33.6790   45.2020 C   0  0  0  0  0  0  0  0  0  0  0  0
   44.9620   34.7230   45.6570 N   0  0  0  0  0  0  0  0  0  0  0  0
   44.6530   35.8080   44.9540 C   0  0  0  0  0  0  0  0  0  0  0  0
   45.0960   35.9210   43.6810 N   0  0  0  0  0  0  0  0  0  0  0  0
   45.8350   34.9570   43.1310 C   0  0  0  0  0  0  0  0  0  0  0  0
   46.2740   35.0790   41.8280 C   0  0  0  0  0  0  0  0  0  0  0  0
   47.0310   34.0840   41.2490 C   0  0  0  0  0  0  0  0  0  0  0  0
   47.3350   32.9660   42.0160 C   0  0  0  0  0  0  0  0  0  0  0  0
   46.8640   32.9050   43.3140 C   0  0  0  0  0  0  0  0  0  0  0  0
   46.1170   33.8630   43.9150 C   0  0  0  0  0  0  0  0  0  0  0  0
   44.0620   36.5770   45.4000 H   0  0  0  0  0  0  0  0  0  0  0  0
   45.9820   36.0000   41.3060 H   0  0  0  0  0  0  0  0  0  0  0  0
   47.3030   34.3140   40.2230 H   0  0  0  0  0  0  0  0  0  0  0  0
   47.9280   32.3060   41.4030 H   0  0  0  0  0  0  0  0  0  0  0  0
   47.4760   31.8260   47.7230 C   0  0  0  0  0  0  0  0  0  0  0  0
   46.9210   30.5520   47.7530 C   0  0  0  0  0  0  0  0  0  0  0  0
   45.8970   30.3210   46.8940 C   0  0  0  0  0  0  0  0  0  0  0  0
   45.4700   31.2770   46.0690 N   0  0  0  0  0  0  0  0  0  0  0  0
   46.0000   32.5070   46.0250 C   0  0  0  0  0  0  0  0  0  0  0  0
   47.0090   32.7390   46.8810 N   0  0  0  0  0  0  0  0  0  0  0  0
   45.2530   29.0890   46.8690 N   0  0  0  0  0  0  0  0  0  0  0  0
   43.9810   28.8050   46.1680 C   0  0  0  0  0  0  0  0  0  0  0  0
   43.8140   27.3110   46.2140 C   0  0  0  0  0  0  0  0  0  0  0  0
   44.5670   26.9220   47.4550 C   0  0  0  0  0  0  0  0  0  0  0  0
   45.6990   27.8890   47.5220 C   0  0  0  0  0  0  0  0  0  0  0  0
   48.3020   32.0340   48.4170 H   0  0  0  0  0  0  0  0  0  0  0  0
   43.1540   29.3440   46.6680 H   0  0  0  0  0  0  0  0  0  0  0  0
   44.0880   29.0800   45.0990 H   0  0  0  0  0  0  0  0  0  0  0  0
   44.2220   26.7890   45.3410 H   0  0  0  0  0  0  0  0  0  0  0  0
   42.7200   27.1000   46.3110 H   0  0  0  0  0  0  0  0  0  0  0  0
   44.9050   25.8560   47.4470 H   0  0  0  0  0  0  0  0  0  0  0  0
   43.8350   26.9840   48.2860 H   0  0  0  0  0  0  0  0  0  0  0  0
   45.7880   27.9980   48.6470 H   0  0  0  0  0  0  0  0  0  0  0  0
   46.5870   27.4620   47.0610 H   0  0  0  0  0  0  0  0  0  0  0  0
   47.4850   29.5860   48.5760 N   0  0  0  0  0  0  0  0  0  0  0  0
   48.1180   28.7840   48.3530 H   0  0  0  0  0  0  0  0  0  0  0  0
   47.2680   29.6270   49.6130 H   0  0  0  0  0  0  0  0  0  0  0  0
   46.4450   30.5870   43.3200 C   0  0  0  0  0  0  0  0  0  0  0  0
   47.3290   31.5990   43.7620 C   0  0  0  0  0  0  0  0  0  0  0  0
   48.4420   31.1510   44.4550 C   0  0  0  0  0  0  0  0  0  0  0  0
   49.0360   32.0350   44.7370 H   0  0  0  0  0  0  0  0  0  0  0  0
   48.7230   29.8360   44.7250 C   0  0  0  0  0  0  0  0  0  0  0  0
   49.6420   29.7080   45.2780 H   0  0  0  0  0  0  0  0  0  0  0  0
   47.8670   28.8570   44.2960 C   0  0  0  0  0  0  0  0  0  0  0  0
   46.7240   29.2410   43.5900 C   0  0  0  0  0  0  0  0  0  0  0  0
   44.2690   29.5170   42.4490 H   0  0  0  0  0  0  0  0  0  0  0  0
   44.9450   30.7030   42.4180 S   0  0  0  0  0  0  0  0  0  0  0  0
   44.1340   31.8510   42.8780 O   0  0  0  0  0  0  0  0  0  0  0  0
   45.3620   30.9160   40.9690 O   0  0  0  0  0  0  0  0  0  0  0  0
  1  2  1  0  0  0  0
  1 19  1  0  0  0  0
  3 11  1  0  0  0  0
  3  2  2  0  0  0  0
  4  3  1  0  0  0  0
  5  4  2  0  0  0  0
  5 10  1  0  0  0  0
  6  5  1  0  0  0  0
  7  6  2  0  0  0  0
  7  8  1  0  0  0  0
  8  9  2  0  0  0  0
  9 39  1  0  0  0  0
  9 10  1  0  0  0  0
 10  1  2  0  0  0  0
 12  6  1  0  0  0  0
 13  7  1  0  0  0  0
 14  8  1  0  0  0  0
 15 16  1  0  0  0  0
 15 26  1  0  0  0  0
 16 35  1  0  0  0  0
 17 16  2  0  0  0  0
 18 17  1  0  0  0  0
 19 18  2  0  0  0  0
 19 20  1  0  0  0  0
 20 15  2  0  0  0  0
 21 17  1  0  0  0  0
 21 25  1  0  0  0  0
 22 23  1  0  0  0  0
 22 27  1  0  0  0  0
 22 21  1  0  0  0  0
 23 30  1  0  0  0  0
 23 24  1  0  0  0  0
 24 25  1  0  0  0  0
 24 32  1  0  0  0  0
 25 33  1  0  0  0  0
 28 22  1  0  0  0  0
 29 23  1  0  0  0  0
 31 24  1  0  0  0  0
 34 25  1  0  0  0  0
 35 37  1  0  0  0  0
 36 35  1  0  0  0  0
 38 45  2  0  0  0  0
 38 39  1  0  0  0  0
 39 40  2  0  0  0  0
 40 42  1  0  0  0  0
 40 41  1  0  0  0  0
 42 43  1  0  0  0  0
 44 42  2  0  0  0  0
 45 44  1  0  0  0  0
 47 46  1  0  0  0  0
 47 48  2  0  0  0  0
 47 38  1  0  0  0  0
 49 47  2  0  0  0  0
M  END
>  <minimizedAffinity>
-6.00450373

>  <minimizedRMSD>
0.837073505

$$$$
