
 OpenBabel03252502043D

 49 53  0  0  0  0  0  0  0  0999 V2000
   45.3650   33.4560   44.5070 C   0  0  0  0  0  0  0  0  0  0  0  0
   45.1800   34.3690   45.4990 N   0  0  0  0  0  0  0  0  0  0  0  0
   44.6610   35.5810   45.3370 C   0  0  0  0  0  0  0  0  0  0  0  0
   44.2740   35.9770   44.1030 N   0  0  0  0  0  0  0  0  0  0  0  0
   44.4100   35.1630   43.0540 C   0  0  0  0  0  0  0  0  0  0  0  0
   44.0040   35.5750   41.8010 C   0  0  0  0  0  0  0  0  0  0  0  0
   44.1330   34.7380   40.7140 C   0  0  0  0  0  0  0  0  0  0  0  0
   44.6830   33.4780   40.9230 C   0  0  0  0  0  0  0  0  0  0  0  0
   45.0680   33.1270   42.2030 C   0  0  0  0  0  0  0  0  0  0  0  0
   44.9550   33.9240   43.2930 C   0  0  0  0  0  0  0  0  0  0  0  0
   44.5550   36.2280   46.1780 H   0  0  0  0  0  0  0  0  0  0  0  0
   43.5830   36.5870   41.7390 H   0  0  0  0  0  0  0  0  0  0  0  0
   43.7720   35.1910   39.7970 H   0  0  0  0  0  0  0  0  0  0  0  0
   44.7050   32.9750   39.9700 H   0  0  0  0  0  0  0  0  0  0  0  0
   48.0200   31.0480   44.7970 C   0  0  0  0  0  0  0  0  0  0  0  0
   47.4270   29.8290   45.1030 C   0  0  0  0  0  0  0  0  0  0  0  0
   46.0770   29.8300   45.2290 C   0  0  0  0  0  0  0  0  0  0  0  0
   45.3770   30.9510   45.0560 N   0  0  0  0  0  0  0  0  0  0  0  0
   45.9340   32.1320   44.7550 C   0  0  0  0  0  0  0  0  0  0  0  0
   47.2720   32.1330   44.6370 N   0  0  0  0  0  0  0  0  0  0  0  0
   45.3920   28.6670   45.5640 N   0  0  0  0  0  0  0  0  0  0  0  0
   43.9720   28.6010   45.9730 C   0  0  0  0  0  0  0  0  0  0  0  0
   43.6190   27.1400   45.9900 C   0  0  0  0  0  0  0  0  0  0  0  0
   44.9380   26.4740   46.2660 C   0  0  0  0  0  0  0  0  0  0  0  0
   45.9410   27.3400   45.5830 C   0  0  0  0  0  0  0  0  0  0  0  0
   49.1140   31.0680   44.6980 H   0  0  0  0  0  0  0  0  0  0  0  0
   43.8470   29.0830   46.9620 H   0  0  0  0  0  0  0  0  0  0  0  0
   43.3470   29.0700   45.1860 H   0  0  0  0  0  0  0  0  0  0  0  0
   43.1950   26.7710   45.0490 H   0  0  0  0  0  0  0  0  0  0  0  0
   42.8930   26.9800   46.8260 H   0  0  0  0  0  0  0  0  0  0  0  0
   44.9730   25.4110   45.9210 H   0  0  0  0  0  0  0  0  0  0  0  0
   45.0250   26.4190   47.3700 H   0  0  0  0  0  0  0  0  0  0  0  0
   46.8100   27.2240   46.3030 H   0  0  0  0  0  0  0  0  0  0  0  0
   46.1550   26.9550   44.5890 H   0  0  0  0  0  0  0  0  0  0  0  0
   48.2190   28.6900   45.1750 N   0  0  0  0  0  0  0  0  0  0  0  0
   48.3560   27.9090   44.4940 H   0  0  0  0  0  0  0  0  0  0  0  0
   48.8020   28.5440   46.0480 H   0  0  0  0  0  0  0  0  0  0  0  0
   46.8630   31.7470   41.5560 C   0  0  0  0  0  0  0  0  0  0  0  0
   45.5320   31.7570   42.0330 C   0  0  0  0  0  0  0  0  0  0  0  0
   44.9840   30.5100   42.2840 C   0  0  0  0  0  0  0  0  0  0  0  0
   43.9540   30.6660   42.6470 H   0  0  0  0  0  0  0  0  0  0  0  0
   45.6320   29.3150   42.1040 C   0  0  0  0  0  0  0  0  0  0  0  0
   45.0210   28.4620   42.3600 H   0  0  0  0  0  0  0  0  0  0  0  0
   46.9210   29.3060   41.6410 C   0  0  0  0  0  3  0  0  0  0  0  0
   47.5340   30.5300   41.3680 C   0  0  0  0  0  3  0  0  0  0  0  0
   47.2670   33.9840   40.3450 H   0  0  0  0  0  0  0  0  0  0  0  0
   47.9240   33.0740   41.1220 S   0  0  0  0  0  0  0  0  0  0  0  0
   48.5480   33.6720   42.3230 O   0  0  0  0  0  0  0  0  0  0  0  0
   48.9990   32.4570   40.2370 O   0  0  0  0  0  0  0  0  0  0  0  0
  1 19  1  0  0  0  0
  1  2  1  0  0  0  0
  3  2  2  0  0  0  0
  3 11  1  0  0  0  0
  4  3  1  0  0  0  0
  5 10  1  0  0  0  0
  5  4  2  0  0  0  0
  6  5  1  0  0  0  0
  7  8  1  0  0  0  0
  7  6  2  0  0  0  0
  8  9  2  0  0  0  0
  9 10  1  0  0  0  0
 10  1  2  0  0  0  0
 12  6  1  0  0  0  0
 13  7  1  0  0  0  0
 14  8  1  0  0  0  0
 15 16  1  0  0  0  0
 16 35  1  0  0  0  0
 16 17  2  0  0  0  0
 17 21  1  0  0  0  0
 18 17  1  0  0  0  0
 19 18  2  0  0  0  0
 20 19  1  0  0  0  0
 20 15  2  0  0  0  0
 21 25  1  0  0  0  0
 21 22  1  0  0  0  0
 22 23  1  0  0  0  0
 22 27  1  0  0  0  0
 23 24  1  0  0  0  0
 23 30  1  0  0  0  0
 24 32  1  0  0  0  0
 25 24  1  0  0  0  0
 25 33  1  0  0  0  0
 26 15  1  0  0  0  0
 28 22  1  0  0  0  0
 29 23  1  0  0  0  0
 31 24  1  0  0  0  0
 34 25  1  0  0  0  0
 35 37  1  0  0  0  0
 36 35  1  0  0  0  0
 38 39  1  0  0  0  0
 39  9  1  0  0  0  0
 39 40  2  0  0  0  0
 40 41  1  0  0  0  0
 42 40  1  0  0  0  0
 42 43  1  0  0  0  0
 44 42  2  0  0  0  0
 45 38  2  0  0  0  0
 45 44  1  0  0  0  0
 46 47  1  0  0  0  0
 47 38  1  0  0  0  0
 47 48  2  0  0  0  0
 49 47  2  0  0  0  0
M  END
>  <minimizedAffinity>
-4.89451122

>  <minimizedRMSD>
2.8632946

$$$$
