
 OpenBabel03252506423D

 43 46  0  0  1  0  0  0  0  0999 V2000
   49.3600   32.9590   41.6050 N   0  0  1  0  0  0  0  0  0  0  0  0
   50.7510   33.0110   41.9320 C   0  0  0  0  0  0  0  0  0  0  0  0
   51.5140   31.7580   41.7160 C   0  0  0  0  0  0  0  0  0  0  0  0
   50.9820   30.6720   42.6020 C   0  0  0  0  0  0  0  0  0  0  0  0
   49.5140   30.8270   42.7900 C   0  0  0  0  0  0  0  0  0  0  0  0
   48.8690   31.5970   41.7110 C   0  0  2  0  0  0  0  0  0  0  0  0
   50.8700   33.2720   43.0220 H   0  0  0  0  0  0  0  0  0  0  0  0
   51.2940   33.8170   41.3580 H   0  0  0  0  0  0  0  0  0  0  0  0
   51.7230   31.4510   40.6970 H   0  0  0  0  0  0  0  0  0  0  0  0
   52.5550   31.9780   42.1390 H   0  0  0  0  0  0  0  0  0  0  0  0
   51.2460   29.6550   42.1860 H   0  0  0  0  0  0  0  0  0  0  0  0
   51.4710   30.7060   43.5990 H   0  0  0  0  0  0  0  0  0  0  0  0
   49.1100   29.8370   42.9240 H   0  0  0  0  0  0  0  0  0  0  0  0
   49.3040   31.3760   43.7510 H   0  0  0  0  0  0  0  0  0  0  0  0
   47.8250   31.8140   42.1230 H   0  0  0  0  0  0  0  0  0  0  0  0
   47.9410   31.7010   39.4390 C   0  0  0  0  0  0  0  0  0  0  0  0
   48.6060   30.9530   40.4270 C   0  0  0  0  0  0  0  0  0  0  0  0
   48.9790   29.6450   40.0770 C   0  0  0  0  0  0  0  0  0  0  0  0
   49.5040   29.0450   40.8080 H   0  0  0  0  0  0  0  0  0  0  0  0
   48.7540   29.0500   38.8780 C   0  0  0  0  0  0  0  0  0  0  0  0
   49.0700   28.0360   38.6750 H   0  0  0  0  0  0  0  0  0  0  0  0
   48.1100   29.7590   37.9020 C   0  0  0  0  0  3  0  0  0  0  0  0
   47.7280   31.0500   38.2120 C   0  0  0  0  0  3  0  0  0  0  0  0
   47.3240   33.7500   40.9300 H   0  0  0  0  0  0  0  0  0  0  0  0
   47.3770   33.3130   39.6070 S   0  0  0  0  0  0  0  0  0  0  0  0
   47.9470   34.3340   38.7060 O   0  0  0  0  0  0  0  0  0  0  0  0
   45.8870   33.3450   39.2420 O   0  0  0  0  0  0  0  0  0  0  0  0
   47.4050   34.5680   42.0580 C   0  0  1  0  0  0  0  0  0  0  0  0
   48.6530   35.2950   41.9720 C   0  0  0  0  0  0  0  0  0  0  0  0
   48.7020   33.8920   42.4810 C   0  0  2  0  0  0  0  0  0  0  0  0
   46.9600   34.0620   41.1640 H   0  0  0  0  0  0  0  0  0  0  0  0
   48.8050   36.1200   42.7230 H   0  0  0  0  0  0  0  0  0  0  0  0
   49.1290   35.5510   41.0150 H   0  0  0  0  0  0  0  0  0  0  0  0
   48.8620   33.7390   43.5620 H   0  0  0  0  0  0  0  0  0  0  0  0
   45.6230   36.0420   43.0710 C   0  0  0  0  0  0  0  0  0  0  0  0
   46.4060   34.8560   43.1190 C   0  0  0  0  0  0  0  0  0  0  0  0
   46.1970   34.0030   44.1860 C   0  0  0  0  0  0  0  0  0  0  0  0
   45.2620   34.3580   45.1050 N   0  0  0  0  0  0  0  0  0  0  0  0
   44.5330   35.4880   45.0350 C   0  0  0  0  0  0  0  0  0  0  0  0
   44.7080   36.3540   44.0020 N   0  0  0  0  0  0  0  0  0  0  0  0
   45.8340   36.6730   42.2070 H   0  0  0  0  0  0  0  0  0  0  0  0
   46.7630   33.0860   44.2760 H   0  0  0  0  0  0  0  0  0  0  0  0
   43.8000   35.7180   45.7990 H   0  0  0  0  0  0  0  0  0  0  0  0
  1  6  1  0  0  0  0
  1  2  1  1  0  0  0
  1 30  1  0  0  0  0
  2  7  1  0  0  0  0
  3  2  1  0  0  0  0
  3 10  1  0  0  0  0
  3  4  1  0  0  0  0
  4  5  1  0  0  0  0
  4 12  1  0  0  0  0
  5 13  1  0  0  0  0
  5 14  1  0  0  0  0
  6 15  1  1  0  0  0
  6  5  1  0  0  0  0
  8  2  1  0  0  0  0
  9  3  1  0  0  0  0
 11  4  1  0  0  0  0
 16 25  1  0  0  0  0
 16 17  1  0  0  0  0
 17  6  1  0  0  0  0
 18 17  2  0  0  0  0
 18 19  1  0  0  0  0
 20 18  1  0  0  0  0
 21 20  1  0  0  0  0
 22 23  1  0  0  0  0
 22 20  2  0  0  0  0
 23 16  2  0  0  0  0
 25 24  1  0  0  0  0
 26 25  2  0  0  0  0
 27 25  2  0  0  0  0
 28 31  1  6  0  0  0
 28 30  1  0  0  0  0
 28 36  1  0  0  0  0
 29 28  1  0  0  0  0
 29 30  1  0  0  0  0
 29 32  1  0  0  0  0
 30 34  1  1  0  0  0
 33 29  1  0  0  0  0
 35 36  2  0  0  0  0
 35 40  1  0  0  0  0
 36 37  1  0  0  0  0
 37 42  1  0  0  0  0
 37 38  2  0  0  0  0
 39 38  1  0  0  0  0
 39 43  1  0  0  0  0
 40 39  2  0  0  0  0
 41 35  1  0  0  0  0
M  END
>  <minimizedAffinity>
-4.77962255

>  <minimizedRMSD>
1.11456811

$$$$
