
 OpenBabel03252504463D

 30 31  0  0  0  0  0  0  0  0999 V2000
   45.5200   32.0510   49.2710 O   0  0  0  0  0  0  0  0  0  0  0  0
   45.8030   31.8940   47.7690 P   0  0  1  0  0  0  0  0  0  0  0  0
   44.9640   30.5470   47.2380 O   0  0  0  0  0  0  0  0  0  0  0  0
   44.1830   30.3400   47.8210 H   0  0  0  0  0  0  0  0  0  0  0  0
   45.2800   33.3370   47.0550 O   0  0  0  0  0  0  0  0  0  0  0  0
   45.4560   35.1380   43.9220 C   0  0  0  0  0  0  0  0  0  0  0  0
   46.4930   34.4690   43.2800 C   0  0  0  0  0  0  0  0  0  0  0  0
   47.1090   33.3960   43.9660 C   0  0  0  0  0  0  0  0  0  0  0  0
   46.6420   33.0980   45.2030 N   0  0  0  0  0  0  0  0  0  0  0  0
   45.6320   33.7780   45.7810 C   0  0  0  0  0  0  0  0  0  0  0  0
   45.0360   34.8080   45.1310 N   0  0  0  0  0  0  0  0  0  0  0  0
   46.8770   34.6960   42.2940 H   0  0  0  0  0  0  0  0  0  0  0  0
   47.9210   32.8430   43.5100 H   0  0  0  0  0  0  0  0  0  0  0  0
   44.8230   36.2680   43.1760 C   0  0  0  0  0  0  0  0  0  0  0  0
   43.9730   36.6540   43.7590 H   0  0  0  0  0  0  0  0  0  0  0  0
   44.4900   35.9000   42.1680 H   0  0  0  0  0  0  0  0  0  0  0  0
   45.5520   37.0900   42.9830 H   0  0  0  0  0  0  0  0  0  0  0  0
   47.4510   31.6860   47.5080 O   0  0  0  0  0  0  0  0  0  0  0  0
   48.7640   29.9510   48.2780 C   0  0  0  0  0  0  0  0  0  0  0  0
   47.9730   30.4280   47.2520 C   0  0  0  0  0  0  0  0  0  0  0  0
   47.7070   29.7530   46.0840 C   0  0  0  0  0  0  0  0  0  0  0  0
   47.0900   30.1640   45.3220 H   0  0  0  0  0  0  0  0  0  0  0  0
   48.3120   28.4940   45.9840 C   0  0  0  0  0  0  0  0  0  0  0  0
   48.1340   27.9230   45.0810 H   0  0  0  0  0  0  0  0  0  0  0  0
   49.1100   27.9740   46.9810 C   0  0  0  0  0  0  0  0  0  0  0  0
   49.3490   28.6900   48.1380 C   0  0  0  0  0  0  0  0  0  0  0  0
   47.9180   31.2730   50.3050 H   0  0  0  0  0  0  0  0  0  0  0  0
   49.0840   30.8250   49.7490 S   0  0  0  0  0  0  0  0  0  0  0  0
   50.0440   31.9290   49.4590 O   0  0  0  0  0  0  0  0  0  0  0  0
   49.7670   29.9060   50.7440 O   0  0  0  0  0  0  0  0  0  0  0  0
  2  1  2  1  0  0  0
  3  2  1  0  0  0  0
  3  4  1  0  0  0  0
  5  2  1  0  0  0  0
  6 11  1  0  0  0  0
  7  6  2  0  0  0  0
  7  8  1  0  0  0  0
  8  9  2  0  0  0  0
  9 10  1  0  0  0  0
 10  5  1  0  0  0  0
 11 10  2  0  0  0  0
 12  7  1  0  0  0  0
 13  8  1  0  0  0  0
 14 15  1  0  0  0  0
 14  6  1  0  0  0  0
 16 14  1  0  0  0  0
 17 14  1  0  0  0  0
 18  2  1  0  0  0  0
 19 28  1  0  0  0  0
 20 18  1  0  0  0  0
 20 19  2  0  0  0  0
 21 20  1  0  0  0  0
 22 21  1  0  0  0  0
 23 21  2  0  0  0  0
 23 25  1  0  0  0  0
 24 23  1  0  0  0  0
 25 26  2  0  0  0  0
 26 19  1  0  0  0  0
 28 27  1  0  0  0  0
 28 30  2  0  0  0  0
 29 28  2  0  0  0  0
M  END
>  <minimizedAffinity>
-5.07298326

>  <minimizedRMSD>
1.06468821

$$$$
