
 OpenBabel03252502503D

 37 39  0  0  0  0  0  0  0  0999 V2000
   44.6000   36.2470   43.9800 C   0  0  0  0  0  0  0  0  0  0  0  0
   44.7860   35.4410   45.1080 C   0  0  0  0  0  0  0  0  0  0  0  0
   45.4910   34.2580   44.9420 C   0  0  0  0  0  0  0  0  0  0  0  0
   45.9640   33.9360   43.7100 N   0  0  0  0  0  0  0  0  0  0  0  0
   45.7650   34.7440   42.6330 C   0  0  0  0  0  0  0  0  0  0  0  0
   45.0850   35.8900   42.7750 N   0  0  0  0  0  0  0  0  0  0  0  0
   44.0670   37.1860   44.0020 H   0  0  0  0  0  0  0  0  0  0  0  0
   44.3720   35.7960   46.0200 H   0  0  0  0  0  0  0  0  0  0  0  0
   48.5340   35.6710   42.0570 Cl  0  0  0  0  0  0  0  0  0  0  0  0
   47.5630   34.7030   40.9680 C   0  0  0  0  0  0  0  0  0  0  0  0
   46.3010   34.3330   41.3360 C   0  0  0  0  0  0  0  0  0  0  0  0
   45.4980   33.5580   40.4860 C   0  0  0  0  0  0  0  0  0  0  0  0
   46.0540   33.2040   39.2860 C   0  0  0  0  0  0  0  0  0  0  0  0
   47.3060   33.5710   38.9200 C   0  0  0  0  0  0  0  0  0  0  0  0
   48.0790   34.3210   39.7480 C   0  0  0  0  0  0  0  0  0  0  0  0
   44.4850   33.2720   40.8030 H   0  0  0  0  0  0  0  0  0  0  0  0
   45.3770   32.6010   38.6710 H   0  0  0  0  0  0  0  0  0  0  0  0
   47.6140   33.2200   37.9450 H   0  0  0  0  0  0  0  0  0  0  0  0
   49.0650   34.5820   39.4060 H   0  0  0  0  0  0  0  0  0  0  0  0
   45.6890   33.4010   46.1450 C   0  0  0  0  0  0  0  0  0  0  0  0
   44.7210   33.3380   46.6370 H   0  0  0  0  0  0  0  0  0  0  0  0
   46.4370   33.9050   46.7810 H   0  0  0  0  0  0  0  0  0  0  0  0
   46.2550   32.0340   45.7920 C   0  0  0  0  0  0  0  0  0  0  0  0
   45.3480   31.3680   45.7410 H   0  0  0  0  0  0  0  0  0  0  0  0
   46.7230   32.0330   44.7910 H   0  0  0  0  0  0  0  0  0  0  0  0
   47.4040   30.1410   46.7850 C   0  0  0  0  0  0  0  0  0  0  0  0
   47.0990   31.4820   46.8630 C   0  0  0  0  0  0  0  0  0  0  0  0
   47.5810   32.2580   47.9230 C   0  0  0  0  0  0  0  0  0  0  0  0
   47.3110   33.3030   47.9350 H   0  0  0  0  0  0  0  0  0  0  0  0
   48.3760   31.6900   48.9140 C   0  0  0  0  0  0  0  0  0  0  0  0
   48.7480   32.3060   49.7400 H   0  0  0  0  0  0  0  0  0  0  0  0
   48.6760   30.3310   48.8190 C   0  0  0  0  0  3  0  0  0  0  0  0
   48.1990   29.5740   47.7750 C   0  0  0  0  0  3  0  0  0  0  0  0
   46.6060   29.7090   44.3480 H   0  0  0  0  0  0  0  0  0  0  0  0
   46.8700   29.0780   45.5270 S   0  0  0  0  0  0  0  0  0  0  0  0
   47.9660   28.0740   45.2400 O   0  0  0  0  0  0  0  0  0  0  0  0
   45.6650   28.3330   45.9960 O   0  0  0  0  0  0  0  0  0  0  0  0
  1  7  1  0  0  0  0
  1  2  1  0  0  0  0
  2  8  1  0  0  0  0
  3  2  2  0  0  0  0
  3 20  1  0  0  0  0
  4  3  1  0  0  0  0
  5  6  1  0  0  0  0
  5  4  2  0  0  0  0
  6  1  2  0  0  0  0
 10 11  1  0  0  0  0
 10  9  1  0  0  0  0
 11  5  1  0  0  0  0
 12 16  1  0  0  0  0
 12 11  2  0  0  0  0
 13 12  1  0  0  0  0
 14 13  2  0  0  0  0
 14 15  1  0  0  0  0
 15 10  2  0  0  0  0
 17 13  1  0  0  0  0
 18 14  1  0  0  0  0
 19 15  1  0  0  0  0
 20 21  1  0  0  0  0
 20 22  1  0  0  0  0
 23 20  1  0  0  0  0
 23 27  1  0  0  0  0
 24 23  1  0  0  0  0
 25 23  1  0  0  0  0
 26 27  2  0  0  0  0
 26 33  1  0  0  0  0
 27 28  1  0  0  0  0
 28 29  1  0  0  0  0
 28 30  2  0  0  0  0
 30 31  1  0  0  0  0
 32 30  1  0  0  0  0
 33 32  2  0  0  0  0
 34 35  1  0  0  0  0
 35 37  2  0  0  0  0
 35 26  1  0  0  0  0
 36 35  2  0  0  0  0
M  END
>  <minimizedAffinity>
-5.75270796

>  <minimizedRMSD>
0.707583189

$$$$
