
 OpenBabel03252501063D

 43 46  0  0  1  0  0  0  0  0999 V2000
   46.7180   34.0310   37.3130 O   0  0  0  0  0  0  0  0  0  0  0  0
   45.6920   33.0920   37.1980 C   0  0  0  0  0  0  0  0  0  0  0  0
   45.4680   32.2240   36.1460 C   0  0  0  0  0  0  0  0  0  0  0  0
   44.4050   31.3510   36.1800 C   0  0  0  0  0  0  0  0  0  0  0  0
   43.5610   31.3370   37.2580 C   0  0  0  0  0  0  0  0  0  0  0  0
   43.8180   32.2280   38.3020 C   0  0  0  0  0  0  0  0  0  0  0  0
   44.8720   33.0810   38.2490 N   0  0  0  0  0  0  0  0  0  0  0  0
   46.1930   32.3180   35.3490 H   0  0  0  0  0  0  0  0  0  0  0  0
   44.3370   30.7280   35.3070 H   0  0  0  0  0  0  0  0  0  0  0  0
   42.7730   30.6320   37.1300 H   0  0  0  0  0  0  0  0  0  0  0  0
   41.8600   33.1580   39.6470 C   0  0  0  0  0  0  0  0  0  0  0  0
   42.9060   32.3100   39.4230 C   0  0  0  0  0  0  0  0  0  0  0  0
   43.0750   31.3820   40.4290 C   0  0  0  0  0  0  0  0  0  0  0  0
   43.8710   30.6360   40.3850 H   0  0  0  0  0  0  0  0  0  0  0  0
   42.2990   31.2890   41.5500 C   0  0  0  0  0  0  0  0  0  0  0  0
   42.4330   30.5630   42.3480 H   0  0  0  0  0  0  0  0  0  0  0  0
   41.2630   32.1580   41.7380 C   0  0  0  0  0  3  0  0  0  0  0  0
   41.0520   33.1050   40.7600 C   0  0  0  0  0  3  0  0  0  0  0  0
   41.0820   33.8470   37.2550 H   0  0  0  0  0  0  0  0  0  0  0  0
   41.3970   34.3550   38.4670 S   0  0  0  0  0  0  0  0  0  0  0  0
   42.3610   35.4790   38.3350 O   0  0  0  0  0  0  0  0  0  0  0  0
   40.0890   35.0390   38.9390 O   0  0  0  0  0  0  0  0  0  0  0  0
   48.5440   32.3710   37.9100 O   0  0  0  0  0  0  0  0  0  0  0  0
   48.1100   33.8040   38.2230 P   0  0  1  0  0  0  0  0  0  0  0  0
   49.3100   34.7940   37.5700 O   0  0  0  0  0  0  0  0  0  0  0  0
   49.7620   34.3690   36.7930 H   0  0  0  0  0  0  0  0  0  0  0  0
   47.8140   34.0250   39.8190 O   0  0  0  0  0  0  0  0  0  0  0  0
   47.9990   35.4340   41.7750 C   0  0  1  0  0  0  0  0  0  0  0  0
   49.2670   34.6940   41.7440 C   0  0  0  0  0  0  0  0  0  0  0  0
   48.4730   35.0150   40.4610 C   0  0  1  0  0  0  0  0  0  0  0  0
   48.0280   36.4990   42.0950 H   0  0  0  0  0  0  0  0  0  0  0  0
   50.2380   35.2050   41.8950 H   0  0  0  0  0  0  0  0  0  0  0  0
   49.3120   33.5950   41.9240 H   0  0  0  0  0  0  0  0  0  0  0  0
   49.0190   35.7320   39.8190 H   0  0  0  0  0  0  0  0  0  0  0  0
   45.9590   32.9680   43.8010 C   0  0  0  0  0  0  0  0  0  0  0  0
   47.0580   33.6640   43.3050 C   0  0  0  0  0  0  0  0  0  0  0  0
   46.8380   34.6700   42.3430 C   0  0  0  0  0  0  0  0  0  0  0  0
   45.5630   34.9290   41.9270 N   0  0  0  0  0  0  0  0  0  0  0  0
   44.5190   34.2220   42.4410 C   0  0  0  0  0  0  0  0  0  0  0  0
   44.7140   33.2540   43.3660 N   0  0  0  0  0  0  0  0  0  0  0  0
   46.0700   32.1960   44.5340 H   0  0  0  0  0  0  0  0  0  0  0  0
   48.0520   33.4370   43.6520 H   0  0  0  0  0  0  0  0  0  0  0  0
   43.6250   34.5960   41.9800 H   0  0  0  0  0  0  0  0  0  0  0  0
  1 24  1  0  0  0  0
  2  1  1  0  0  0  0
  2  7  1  0  0  0  0
  3  4  1  0  0  0  0
  3  2  2  0  0  0  0
  4  5  2  0  0  0  0
  5  6  1  0  0  0  0
  6 12  1  0  0  0  0
  7  6  2  0  0  0  0
  8  3  1  0  0  0  0
  9  4  1  0  0  0  0
 10  5  1  0  0  0  0
 11 18  1  0  0  0  0
 12 11  2  0  0  0  0
 12 13  1  0  0  0  0
 13 15  2  0  0  0  0
 14 13  1  0  0  0  0
 15 17  1  0  0  0  0
 15 16  1  0  0  0  0
 18 17  2  0  0  0  0
 19 20  1  0  0  0  0
 20 22  2  0  0  0  0
 20 11  1  0  0  0  0
 21 20  2  0  0  0  0
 24 23  2  6  0  0  0
 24 27  1  0  0  0  0
 25 24  1  0  0  0  0
 26 25  1  0  0  0  0
 27 30  1  0  0  0  0
 28 31  1  1  0  0  0
 28 37  1  0  0  0  0
 29 28  1  0  0  0  0
 29 32  1  0  0  0  0
 29 33  1  0  0  0  0
 30 34  1  6  0  0  0
 30 29  1  0  0  0  0
 30 28  1  0  0  0  0
 35 41  1  0  0  0  0
 36 42  1  0  0  0  0
 36 35  2  0  0  0  0
 37 36  1  0  0  0  0
 38 37  2  0  0  0  0
 38 39  1  0  0  0  0
 39 40  2  0  0  0  0
 40 35  1  0  0  0  0
 43 39  1  0  0  0  0
M  END
>  <minimizedAffinity>
-5.29828215

>  <minimizedRMSD>
0.502284408

$$$$
