
 OpenBabel03242519473D

 41 43  0  0  1  0  0  0  0  0999 V2000
   46.6910   32.8880   46.5660 C   0  0  2  0  0  0  0  0  0  0  0  0
   47.0920   32.8240   45.1440 C   0  0  1  0  0  0  0  0  0  0  0  0
   46.6200   31.4980   44.7120 O   0  0  0  0  0  0  0  0  0  0  0  0
   47.2840   30.7720   45.7250 C   0  0  0  0  0  0  0  0  0  0  0  0
   46.6410   31.4160   46.9630 C   0  0  2  0  0  0  0  0  0  0  0  0
   47.3570   33.4620   47.2200 H   0  0  0  0  0  0  0  0  0  0  0  0
   48.2020   32.7560   45.0680 H   0  0  0  0  0  0  0  0  0  0  0  0
   47.2560   29.7210   45.6560 H   0  0  0  0  0  0  0  0  0  0  0  0
   48.3270   31.1770   45.7330 H   0  0  0  0  0  0  0  0  0  0  0  0
   47.3030   31.1920   47.8290 H   0  0  0  0  0  0  0  0  0  0  0  0
   44.7040   35.2880   43.9170 C   0  0  0  0  0  0  0  0  0  0  0  0
   45.3190   35.8180   42.7810 C   0  0  0  0  0  0  0  0  0  0  0  0
   46.5880   35.3150   42.4160 C   0  0  0  0  0  0  0  0  0  0  0  0
   47.1490   34.3450   43.1820 N   0  0  0  0  0  0  0  0  0  0  0  0
   46.5330   33.8500   44.2750 C   0  0  0  0  0  0  0  0  0  0  0  0
   45.3110   34.3160   44.6500 N   0  0  0  0  0  0  0  0  0  0  0  0
   44.8390   36.5880   42.2000 H   0  0  0  0  0  0  0  0  0  0  0  0
   47.1020   35.6960   41.5410 H   0  0  0  0  0  0  0  0  0  0  0  0
   43.4460   35.7490   44.3290 O   0  0  0  0  0  0  0  0  0  0  0  0
   42.9950   36.4610   43.7600 H   0  0  0  0  0  0  0  0  0  0  0  0
   45.3500   33.4110   46.6520 O   0  0  0  0  0  0  0  0  0  0  0  0
   44.7680   32.6690   46.3130 H   0  0  0  0  0  0  0  0  0  0  0  0
   45.3730   30.9700   47.0720 O   0  0  0  0  0  0  0  0  0  0  0  0
   44.9470   30.4960   48.2780 C   0  0  0  0  0  0  0  0  0  0  0  0
   43.7780   30.5430   48.2780 H   0  0  0  0  0  0  0  0  0  0  0  0
   45.2970   31.0300   49.1170 H   0  0  0  0  0  0  0  0  0  0  0  0
   45.1070   28.9930   48.4380 C   0  0  0  0  0  0  0  0  0  0  0  0
   44.4300   28.5880   49.2100 H   0  0  0  0  0  0  0  0  0  0  0  0
   46.1160   28.6740   48.7330 H   0  0  0  0  0  0  0  0  0  0  0  0
   45.8280   27.5000   46.6160 C   0  0  0  0  0  0  0  0  0  0  0  0
   44.8800   28.3960   47.1030 C   0  0  0  0  0  0  0  0  0  0  0  0
   43.7940   28.6640   46.2990 C   0  0  0  0  0  0  0  0  0  0  0  0
   43.0320   29.3550   46.6180 H   0  0  0  0  0  0  0  0  0  0  0  0
   43.5760   28.1110   45.0550 C   0  0  0  0  0  0  0  0  0  0  0  0
   42.6960   28.3580   44.4600 H   0  0  0  0  0  0  0  0  0  0  0  0
   44.4890   27.2200   44.5400 C   0  0  0  0  0  3  0  0  0  0  0  0
   45.5880   26.9480   45.3500 C   0  0  0  0  0  3  0  0  0  0  0  0
   47.0650   26.3070   48.5610 H   0  0  0  0  0  0  0  0  0  0  0  0
   47.2930   26.9750   47.3830 S   0  0  0  0  0  0  0  0  0  0  0  0
   47.9550   25.9580   46.4560 O   0  0  0  0  0  0  0  0  0  0  0  0
   48.3010   28.0340   47.6050 O   0  0  0  0  0  0  0  0  0  0  0  0
  1 21  1  0  0  0  0
  1  5  1  0  0  0  0
  1  6  1  1  0  0  0
  2  7  1  6  0  0  0
  2  1  1  0  0  0  0
  3  2  1  0  0  0  0
  3  4  1  0  0  0  0
  4  9  1  0  0  0  0
  4  5  1  0  0  0  0
  5 23  1  0  0  0  0
  5 10  1  1  0  0  0
  8  4  1  0  0  0  0
 11 19  1  0  0  0  0
 11 16  1  0  0  0  0
 12 11  2  0  0  0  0
 13 12  1  0  0  0  0
 13 14  2  0  0  0  0
 14 15  1  0  0  0  0
 15 16  2  0  0  0  0
 15  2  1  0  0  0  0
 17 12  1  0  0  0  0
 18 13  1  0  0  0  0
 20 19  1  0  0  0  0
 22 21  1  0  0  0  0
 23 24  1  0  0  0  0
 24 27  1  0  0  0  0
 24 26  1  0  0  0  0
 25 24  1  0  0  0  0
 27 29  1  0  0  0  0
 27 28  1  0  0  0  0
 30 31  1  0  0  0  0
 30 39  1  0  0  0  0
 31 27  1  0  0  0  0
 32 33  1  0  0  0  0
 32 31  2  0  0  0  0
 34 32  1  0  0  0  0
 35 34  1  0  0  0  0
 36 34  2  0  0  0  0
 36 37  1  0  0  0  0
 37 30  2  0  0  0  0
 39 41  2  0  0  0  0
 39 38  1  0  0  0  0
 40 39  2  0  0  0  0
M  END
>  <minimizedAffinity>
-5.0774765

>  <minimizedRMSD>
1.34403086

$$$$
