
 OpenBabel03252509233D

 30 32  0  0  1  0  0  0  0  0999 V2000
   46.2970   34.9450   42.0470 C   0  0  1  0  0  0  0  0  0  0  0  0
   47.8160   35.1780   41.8670 C   0  0  0  0  0  0  0  0  0  0  0  0
   47.0090   33.9720   41.3010 C   0  0  2  0  0  0  0  0  0  0  0  0
   45.6790   35.7480   41.6350 H   0  0  0  0  0  0  0  0  0  0  0  0
   48.0380   35.9910   41.1830 H   0  0  0  0  0  0  0  0  0  0  0  0
   48.4960   35.0010   42.6970 H   0  0  0  0  0  0  0  0  0  0  0  0
   47.2840   33.0150   41.8540 H   0  0  0  0  0  0  0  0  0  0  0  0
   44.7580   35.0500   45.4770 C   0  0  0  0  0  0  0  0  0  0  0  0
   45.0340   35.4220   44.1360 C   0  0  0  0  0  0  0  0  0  0  0  0
   46.0000   34.6500   43.5090 C   0  0  0  0  0  0  0  0  0  0  0  0
   46.6280   33.6080   44.1650 N   0  0  0  0  0  0  0  0  0  0  0  0
   46.3220   33.3100   45.4300 C   0  0  0  0  0  0  0  0  0  0  0  0
   45.3790   34.0360   46.0930 N   0  0  0  0  0  0  0  0  0  0  0  0
   44.0130   35.6240   46.0010 H   0  0  0  0  0  0  0  0  0  0  0  0
   46.9060   32.4730   45.7800 H   0  0  0  0  0  0  0  0  0  0  0  0
   44.4020   36.5190   43.4750 N   0  0  0  0  0  0  0  0  0  0  0  0
   45.0080   37.3440   43.6840 H   0  0  0  0  0  0  0  0  0  0  0  0
   43.5310   36.4190   42.9300 H   0  0  0  0  0  0  0  0  0  0  0  0
   46.1840   33.2580   38.9250 C   0  0  0  0  0  0  0  0  0  0  0  0
   47.0320   33.8100   39.8280 C   0  0  0  0  0  0  0  0  0  0  0  0
   48.1960   34.3960   39.3100 C   0  0  0  0  0  0  0  0  0  0  0  0
   49.0010   34.8890   39.8720 H   0  0  0  0  0  0  0  0  0  0  0  0
   48.4680   34.4110   37.9490 C   0  0  0  0  0  0  0  0  0  0  0  0
   49.3470   34.8470   37.5020 H   0  0  0  0  0  0  0  0  0  0  0  0
   47.5860   33.8450   37.0770 C   0  0  0  0  0  3  0  0  0  0  0  0
   46.4380   33.2660   37.5720 C   0  0  0  0  0  3  0  0  0  0  0  0
   45.0390   31.7180   40.6410 H   0  0  0  0  0  0  0  0  0  0  0  0
   44.7610   32.5100   39.5610 S   0  0  0  0  0  0  0  0  0  0  0  0
   44.1890   31.5510   38.5210 O   0  0  0  0  0  0  0  0  0  0  0  0
   43.7240   33.5060   39.9720 O   0  0  0  0  0  0  0  0  0  0  0  0
  1  4  1  6  0  0  0
  1 10  1  0  0  0  0
  2  1  1  0  0  0  0
  2  6  1  0  0  0  0
  3  7  1  1  0  0  0
  3  2  1  0  0  0  0
  3  1  1  0  0  0  0
  5  2  1  0  0  0  0
  8 14  1  0  0  0  0
  8 13  1  0  0  0  0
  9  8  2  0  0  0  0
 10  9  1  0  0  0  0
 10 11  2  0  0  0  0
 11 12  1  0  0  0  0
 12 15  1  0  0  0  0
 12 13  2  0  0  0  0
 16 17  1  0  0  0  0
 16  9  1  0  0  0  0
 18 16  1  0  0  0  0
 19 28  1  0  0  0  0
 19 20  1  0  0  0  0
 20  3  1  0  0  0  0
 21 20  2  0  0  0  0
 21 22  1  0  0  0  0
 23 21  1  0  0  0  0
 24 23  1  0  0  0  0
 25 26  1  0  0  0  0
 25 23  2  0  0  0  0
 26 19  2  0  0  0  0
 28 30  2  0  0  0  0
 28 27  1  0  0  0  0
 29 28  2  0  0  0  0
M  END
>  <minimizedAffinity>
-5.4351058

>  <minimizedRMSD>
1.45186424

$$$$
