
 OpenBabel03252505053D

 37 39  0  0  1  0  0  0  0  0999 V2000
   37.8990   28.7390   43.5890 C   0  0  0  0  0  0  0  0  0  0  0  0
   37.9850   27.3660   43.3460 C   0  0  0  0  0  0  0  0  0  0  0  0
   37.9920   26.9150   42.0360 C   0  0  0  0  0  0  0  0  0  0  0  0
   37.9070   27.8710   41.0490 N   0  0  0  0  0  0  0  0  0  0  0  0
   37.8250   29.1750   41.3140 C   0  0  0  0  0  0  0  0  0  0  0  0
   37.8200   29.6310   42.5890 N   0  0  0  0  0  0  0  0  0  0  0  0
   37.9010   29.0260   44.6380 H   0  0  0  0  0  0  0  0  0  0  0  0
   38.0130   26.6670   44.1420 H   0  0  0  0  0  0  0  0  0  0  0  0
   37.7180   30.1230   40.1760 C   0  0  2  0  0  0  0  0  0  0  0  0
   39.0980   30.3720   39.6790 C   0  0  0  0  0  0  0  0  0  0  0  0
   39.6600   31.6860   40.0410 C   0  0  0  0  0  0  0  0  0  0  0  0
   38.6860   32.7180   39.5050 C   0  0  0  0  0  0  0  0  0  0  0  0
   37.3870   32.6710   40.2040 C   0  0  0  0  0  0  0  0  0  0  0  0
   36.9190   31.2870   40.5360 C   0  0  0  0  0  0  0  0  0  0  0  0
   37.1500   29.5410   39.3890 H   0  0  0  0  0  0  0  0  0  0  0  0
   39.8130   29.5680   40.0110 H   0  0  0  0  0  0  0  0  0  0  0  0
   39.0900   30.3050   38.5710 H   0  0  0  0  0  0  0  0  0  0  0  0
   40.6430   31.8350   39.6090 H   0  0  0  0  0  0  0  0  0  0  0  0
   39.6320   31.7900   41.1600 H   0  0  0  0  0  0  0  0  0  0  0  0
   38.5360   32.5190   38.4450 H   0  0  0  0  0  0  0  0  0  0  0  0
   39.1140   33.6950   39.7670 H   0  0  0  0  0  0  0  0  0  0  0  0
   36.6810   33.3840   40.5400 H   0  0  0  0  0  0  0  0  0  0  0  0
   35.6850   31.0920   41.2110 N   0  0  0  0  0  0  0  0  0  0  0  0
   35.0810   30.8020   40.3900 H   0  0  0  0  0  0  0  0  0  0  0  0
   35.2140   31.1320   42.1470 H   0  0  0  0  0  0  0  0  0  0  0  0
   39.1060   24.7730   41.2310 C   0  0  0  0  0  0  0  0  0  0  0  0
   38.0260   25.5560   41.5360 C   0  0  0  0  0  0  0  0  0  0  0  0
   36.8170   24.9260   41.2780 C   0  0  0  0  0  0  0  0  0  0  0  0
   35.8690   25.4450   41.4780 H   0  0  0  0  0  0  0  0  0  0  0  0
   36.6610   23.6570   40.7770 C   0  0  0  0  0  0  0  0  0  0  0  0
   35.6860   23.2280   40.6010 H   0  0  0  0  0  0  0  0  0  0  0  0
   37.7820   22.9160   40.4910 C   0  0  0  0  0  3  0  0  0  0  0  0
   39.0000   23.5090   40.7310 C   0  0  0  0  0  3  0  0  0  0  0  0
   40.7750   26.7050   41.3300 H   0  0  0  0  0  0  0  0  0  0  0  0
   40.7370   25.3600   41.3720 S   0  0  0  0  0  0  0  0  0  0  0  0
   41.3300   24.8560   42.6350 O   0  0  0  0  0  0  0  0  0  0  0  0
   41.5500   24.8650   40.1730 O   0  0  0  0  0  0  0  0  0  0  0  0
  1  7  1  0  0  0  0
  2  1  1  0  0  0  0
  2  8  1  0  0  0  0
  3  2  2  0  0  0  0
  4  5  2  0  0  0  0
  4  3  1  0  0  0  0
  5  6  1  0  0  0  0
  6  1  2  0  0  0  0
  9 15  1  6  0  0  0
  9 14  1  0  0  0  0
  9  5  1  0  0  0  0
 10 16  1  0  0  0  0
 10 11  1  0  0  0  0
 10  9  1  0  0  0  0
 11 19  1  0  0  0  0
 12 21  1  0  0  0  0
 12 11  1  0  0  0  0
 12 13  1  0  0  0  0
 13 14  2  0  0  0  0
 13 22  1  0  0  0  0
 14 23  1  0  0  0  0
 17 10  1  0  0  0  0
 18 11  1  0  0  0  0
 20 12  1  0  0  0  0
 23 25  1  0  0  0  0
 24 23  1  0  0  0  0
 26 35  1  0  0  0  0
 26 27  1  0  0  0  0
 27  3  1  0  0  0  0
 28 29  1  0  0  0  0
 28 27  2  0  0  0  0
 30 28  1  0  0  0  0
 31 30  1  0  0  0  0
 32 33  1  0  0  0  0
 32 30  2  0  0  0  0
 33 26  2  0  0  0  0
 34 35  1  0  0  0  0
 35 36  2  0  0  0  0
 37 35  2  0  0  0  0
M  END
>  <minimizedAffinity>
-5.98209667

$$$$

 OpenBabel03252505053D

 37 39  0  0  1  0  0  0  0  0999 V2000
   36.0390   26.7440   38.9940 C   0  0  0  0  0  0  0  0  0  0  0  0
   36.9910   26.2900   39.9100 C   0  0  0  0  0  0  0  0  0  0  0  0
   37.8150   27.2120   40.5350 C   0  0  0  0  0  0  0  0  0  0  0  0
   37.6360   28.5340   40.1980 N   0  0  0  0  0  0  0  0  0  0  0  0
   36.7180   28.9360   39.3190 C   0  0  0  0  0  0  0  0  0  0  0  0
   35.9030   28.0470   38.7020 N   0  0  0  0  0  0  0  0  0  0  0  0
   35.4240   25.9700   38.5410 H   0  0  0  0  0  0  0  0  0  0  0  0
   37.1140   25.2560   40.1090 H   0  0  0  0  0  0  0  0  0  0  0  0
   36.6180   30.3850   39.0110 C   0  0  2  0  0  0  0  0  0  0  0  0
   37.6820   30.6980   38.0180 C   0  0  0  0  0  0  0  0  0  0  0  0
   38.8420   31.4270   38.5620 C   0  0  0  0  0  0  0  0  0  0  0  0
   38.2840   32.6900   39.1900 C   0  0  0  0  0  0  0  0  0  0  0  0
   37.4480   32.4010   40.3710 C   0  0  0  0  0  0  0  0  0  0  0  0
   36.5900   31.1800   40.2300 C   0  0  0  0  0  0  0  0  0  0  0  0
   35.6110   30.4880   38.5050 H   0  0  0  0  0  0  0  0  0  0  0  0
   38.0490   29.7720   37.4930 H   0  0  0  0  0  0  0  0  0  0  0  0
   37.2400   31.3240   37.2150 H   0  0  0  0  0  0  0  0  0  0  0  0
   39.5590   31.6760   37.7870 H   0  0  0  0  0  0  0  0  0  0  0  0
   39.2740   30.8290   39.4100 H   0  0  0  0  0  0  0  0  0  0  0  0
   37.6860   33.2030   38.4370 H   0  0  0  0  0  0  0  0  0  0  0  0
   39.1530   33.2360   39.5830 H   0  0  0  0  0  0  0  0  0  0  0  0
   37.2940   32.8470   41.3180 H   0  0  0  0  0  0  0  0  0  0  0  0
   35.7360   30.7810   41.2920 N   0  0  0  0  0  0  0  0  0  0  0  0
   34.8110   31.1370   40.9150 H   0  0  0  0  0  0  0  0  0  0  0  0
   35.7070   30.3040   42.2250 H   0  0  0  0  0  0  0  0  0  0  0  0
   38.9310   27.2130   42.8230 C   0  0  0  0  0  0  0  0  0  0  0  0
   38.8950   26.9860   41.4730 C   0  0  0  0  0  0  0  0  0  0  0  0
   40.0990   26.5050   40.9790 C   0  0  0  0  0  0  0  0  0  0  0  0
   40.2070   26.2820   39.9070 H   0  0  0  0  0  0  0  0  0  0  0  0
   41.2330   26.2620   41.7140 C   0  0  0  0  0  0  0  0  0  0  0  0
   42.1380   25.8860   41.2620 H   0  0  0  0  0  0  0  0  0  0  0  0
   41.2090   26.5070   43.0660 C   0  0  0  0  0  3  0  0  0  0  0  0
   40.0330   26.9870   43.5930 C   0  0  0  0  0  3  0  0  0  0  0  0
   37.7440   27.8020   45.0070 H   0  0  0  0  0  0  0  0  0  0  0  0
   37.5820   27.9050   43.6740 S   0  0  0  0  0  0  0  0  0  0  0  0
   37.4240   29.3230   43.2710 O   0  0  0  0  0  0  0  0  0  0  0  0
   36.3170   27.1140   43.3300 O   0  0  0  0  0  0  0  0  0  0  0  0
  1  2  1  0  0  0  0
  2  8  1  0  0  0  0
  2  3  2  0  0  0  0
  3 27  1  0  0  0  0
  4  3  1  0  0  0  0
  5  4  2  0  0  0  0
  6  1  2  0  0  0  0
  6  5  1  0  0  0  0
  7  1  1  0  0  0  0
  9 15  1  6  0  0  0
  9  5  1  0  0  0  0
  9 14  1  0  0  0  0
 10 11  1  0  0  0  0
 10  9  1  0  0  0  0
 11 12  1  0  0  0  0
 11 19  1  0  0  0  0
 12 21  1  0  0  0  0
 12 13  1  0  0  0  0
 13 22  1  0  0  0  0
 14 13  2  0  0  0  0
 14 23  1  0  0  0  0
 16 10  1  0  0  0  0
 17 10  1  0  0  0  0
 18 11  1  0  0  0  0
 20 12  1  0  0  0  0
 23 25  1  0  0  0  0
 24 23  1  0  0  0  0
 26 33  1  0  0  0  0
 26 35  1  0  0  0  0
 27 26  2  0  0  0  0
 28 27  1  0  0  0  0
 28 30  2  0  0  0  0
 29 28  1  0  0  0  0
 30 32  1  0  0  0  0
 31 30  1  0  0  0  0
 32 33  2  0  0  0  0
 35 34  1  0  0  0  0
 36 35  2  0  0  0  0
 37 35  2  0  0  0  0
M  END
>  <minimizedAffinity>
-5.84773731

$$$$

 OpenBabel03252505053D

 37 39  0  0  1  0  0  0  0  0999 V2000
   36.7030   29.8080   38.1840 C   0  0  0  0  0  0  0  0  0  0  0  0
   37.6160   30.8070   37.8400 C   0  0  0  0  0  0  0  0  0  0  0  0
   38.7780   30.9410   38.5820 C   0  0  0  0  0  0  0  0  0  0  0  0
   38.9510   30.0640   39.6300 N   0  0  0  0  0  0  0  0  0  0  0  0
   38.0590   29.1210   39.9340 C   0  0  0  0  0  0  0  0  0  0  0  0
   36.9200   28.9770   39.2160 N   0  0  0  0  0  0  0  0  0  0  0  0
   35.8140   29.7560   37.5610 H   0  0  0  0  0  0  0  0  0  0  0  0
   37.4210   31.4810   37.0450 H   0  0  0  0  0  0  0  0  0  0  0  0
   38.3310   28.2380   41.0960 C   0  0  2  0  0  0  0  0  0  0  0  0
   38.4800   26.8530   40.5730 C   0  0  0  0  0  0  0  0  0  0  0  0
   37.3320   25.9660   40.8330 C   0  0  0  0  0  0  0  0  0  0  0  0
   37.1360   25.9680   42.3370 C   0  0  0  0  0  0  0  0  0  0  0  0
   36.6990   27.2860   42.8370 C   0  0  0  0  0  0  0  0  0  0  0  0
   37.3540   28.4490   42.1560 C   0  0  0  0  0  0  0  0  0  0  0  0
   39.3380   28.5910   41.4760 H   0  0  0  0  0  0  0  0  0  0  0  0
   38.7010   26.8460   39.4680 H   0  0  0  0  0  0  0  0  0  0  0  0
   39.3730   26.3930   41.0440 H   0  0  0  0  0  0  0  0  0  0  0  0
   37.5160   24.9570   40.4780 H   0  0  0  0  0  0  0  0  0  0  0  0
   36.4090   26.4410   40.4020 H   0  0  0  0  0  0  0  0  0  0  0  0
   38.0840   25.6990   42.7990 H   0  0  0  0  0  0  0  0  0  0  0  0
   36.2870   25.2970   42.5270 H   0  0  0  0  0  0  0  0  0  0  0  0
   36.0240   27.6310   43.5750 H   0  0  0  0  0  0  0  0  0  0  0  0
   37.0270   29.7770   42.5360 N   0  0  0  0  0  0  0  0  0  0  0  0
   37.8750   30.0020   43.1300 H   0  0  0  0  0  0  0  0  0  0  0  0
   36.3090   30.5350   42.4400 H   0  0  0  0  0  0  0  0  0  0  0  0
   40.0290   33.0880   39.1350 C   0  0  0  0  0  0  0  0  0  0  0  0
   39.8410   31.9160   38.4520 C   0  0  0  0  0  0  0  0  0  0  0  0
   40.8130   31.6970   37.4870 C   0  0  0  0  0  0  0  0  0  0  0  0
   40.7790   30.7920   36.8630 H   0  0  0  0  0  0  0  0  0  0  0  0
   41.8700   32.5260   37.2050 C   0  0  0  0  0  0  0  0  0  0  0  0
   42.5920   32.2920   36.4370 H   0  0  0  0  0  0  0  0  0  0  0  0
   42.0100   33.6880   37.9250 C   0  0  0  0  0  3  0  0  0  0  0  0
   41.0640   33.9410   38.8900 C   0  0  0  0  0  3  0  0  0  0  0  0
   39.2810   34.8290   40.8490 H   0  0  0  0  0  0  0  0  0  0  0  0
   38.9000   33.6440   40.3340 S   0  0  0  0  0  0  0  0  0  0  0  0
   37.5510   33.7440   39.7260 O   0  0  0  0  0  0  0  0  0  0  0  0
   38.8810   32.6520   41.5000 O   0  0  0  0  0  0  0  0  0  0  0  0
  1  6  1  0  0  0  0
  2  1  2  0  0  0  0
  2  3  1  0  0  0  0
  3  4  2  0  0  0  0
  4  5  1  0  0  0  0
  5  9  1  0  0  0  0
  6  5  2  0  0  0  0
  7  1  1  0  0  0  0
  8  2  1  0  0  0  0
  9 15  1  1  0  0  0
  9 14  1  0  0  0  0
 10 11  1  0  0  0  0
 10 17  1  0  0  0  0
 10  9  1  0  0  0  0
 11 12  1  0  0  0  0
 12 21  1  0  0  0  0
 12 20  1  0  0  0  0
 12 13  1  0  0  0  0
 13 22  1  0  0  0  0
 14 23  1  0  0  0  0
 14 13  2  0  0  0  0
 16 10  1  0  0  0  0
 18 11  1  0  0  0  0
 19 11  1  0  0  0  0
 23 24  1  0  0  0  0
 25 23  1  0  0  0  0
 26 35  1  0  0  0  0
 27  3  1  0  0  0  0
 27 26  2  0  0  0  0
 28 27  1  0  0  0  0
 29 28  1  0  0  0  0
 30 28  2  0  0  0  0
 30 32  1  0  0  0  0
 31 30  1  0  0  0  0
 32 33  2  0  0  0  0
 33 26  1  0  0  0  0
 35 34  1  0  0  0  0
 35 37  2  0  0  0  0
 36 35  2  0  0  0  0
M  END
>  <minimizedAffinity>
-5.68066263

$$$$

 OpenBabel03252505053D

 37 39  0  0  1  0  0  0  0  0999 V2000
   37.5510   29.2680   37.3960 C   0  0  0  0  0  0  0  0  0  0  0  0
   37.4130   28.5540   38.5890 C   0  0  0  0  0  0  0  0  0  0  0  0
   37.7090   29.1830   39.7870 C   0  0  0  0  0  0  0  0  0  0  0  0
   38.1320   30.4910   39.7150 N   0  0  0  0  0  0  0  0  0  0  0  0
   38.2550   31.1450   38.5590 C   0  0  0  0  0  0  0  0  0  0  0  0
   37.9660   30.5440   37.3810 N   0  0  0  0  0  0  0  0  0  0  0  0
   37.3010   28.7170   36.4930 H   0  0  0  0  0  0  0  0  0  0  0  0
   37.1170   27.5350   38.5900 H   0  0  0  0  0  0  0  0  0  0  0  0
   38.7380   32.5490   38.5890 C   0  0  2  0  0  0  0  0  0  0  0  0
   40.2150   32.5100   38.4100 C   0  0  0  0  0  0  0  0  0  0  0  0
   40.9940   32.7680   39.6350 C   0  0  0  0  0  0  0  0  0  0  0  0
   40.5350   34.1200   40.1450 C   0  0  0  0  0  0  0  0  0  0  0  0
   39.1320   34.0950   40.6030 C   0  0  0  0  0  0  0  0  0  0  0  0
   38.2260   33.2560   39.7540 C   0  0  0  0  0  0  0  0  0  0  0  0
   38.2750   33.0160   37.6670 H   0  0  0  0  0  0  0  0  0  0  0  0
   40.5560   31.5350   37.9620 H   0  0  0  0  0  0  0  0  0  0  0  0
   40.4990   33.2810   37.6640 H   0  0  0  0  0  0  0  0  0  0  0  0
   42.0600   32.7810   39.4370 H   0  0  0  0  0  0  0  0  0  0  0  0
   40.6830   32.0240   40.4190 H   0  0  0  0  0  0  0  0  0  0  0  0
   40.6390   34.8380   39.3320 H   0  0  0  0  0  0  0  0  0  0  0  0
   41.1260   34.3130   41.0500 H   0  0  0  0  0  0  0  0  0  0  0  0
   38.5870   34.5290   41.3990 H   0  0  0  0  0  0  0  0  0  0  0  0
   36.8490   33.1390   40.0800 N   0  0  0  0  0  0  0  0  0  0  0  0
   36.4430   33.8080   39.3660 H   0  0  0  0  0  0  0  0  0  0  0  0
   36.1640   32.6660   40.7180 H   0  0  0  0  0  0  0  0  0  0  0  0
   38.5990   28.8080   42.1420 C   0  0  0  0  0  0  0  0  0  0  0  0
   37.6890   28.6460   41.1330 C   0  0  0  0  0  0  0  0  0  0  0  0
   36.6370   27.8140   41.4870 C   0  0  0  0  0  0  0  0  0  0  0  0
   35.8350   27.5990   40.7660 H   0  0  0  0  0  0  0  0  0  0  0  0
   36.4730   27.1970   42.7020 C   0  0  0  0  0  0  0  0  0  0  0  0
   35.6260   26.5600   42.9100 H   0  0  0  0  0  0  0  0  0  0  0  0
   37.4170   27.3970   43.6800 C   0  0  0  0  0  3  0  0  0  0  0  0
   38.4770   28.2150   43.3640 C   0  0  0  0  0  3  0  0  0  0  0  0
   40.3720   29.8430   40.6220 H   0  0  0  0  0  0  0  0  0  0  0  0
   40.0590   29.7260   41.9260 S   0  0  0  0  0  0  0  0  0  0  0  0
   39.8930   31.0620   42.5490 O   0  0  0  0  0  0  0  0  0  0  0  0
   41.2210   28.9780   42.5850 O   0  0  0  0  0  0  0  0  0  0  0  0
  1  2  1  0  0  0  0
  2  8  1  0  0  0  0
  2  3  2  0  0  0  0
  3 27  1  0  0  0  0
  4  3  1  0  0  0  0
  5  9  1  0  0  0  0
  5  4  2  0  0  0  0
  6  1  2  0  0  0  0
  6  5  1  0  0  0  0
  7  1  1  0  0  0  0
  9 15  1  6  0  0  0
  9 14  1  0  0  0  0
 10  9  1  0  0  0  0
 10 11  1  0  0  0  0
 11 12  1  0  0  0  0
 11 19  1  0  0  0  0
 12 13  1  0  0  0  0
 12 21  1  0  0  0  0
 13 22  1  0  0  0  0
 14 23  1  0  0  0  0
 14 13  2  0  0  0  0
 16 10  1  0  0  0  0
 17 10  1  0  0  0  0
 18 11  1  0  0  0  0
 20 12  1  0  0  0  0
 23 25  1  0  0  0  0
 24 23  1  0  0  0  0
 26 33  1  0  0  0  0
 27 28  1  0  0  0  0
 27 26  2  0  0  0  0
 28 30  2  0  0  0  0
 29 28  1  0  0  0  0
 30 31  1  0  0  0  0
 30 32  1  0  0  0  0
 33 32  2  0  0  0  0
 34 35  1  0  0  0  0
 35 26  1  0  0  0  0
 35 36  2  0  0  0  0
 35 37  2  0  0  0  0
M  END
>  <minimizedAffinity>
-5.49106789

$$$$

 OpenBabel03252505053D

 37 39  0  0  1  0  0  0  0  0999 V2000
   36.0660   29.0820   37.7860 C   0  0  0  0  0  0  0  0  0  0  0  0
   36.3300   28.3370   38.9380 C   0  0  0  0  0  0  0  0  0  0  0  0
   37.1850   28.8600   39.8950 C   0  0  0  0  0  0  0  0  0  0  0  0
   37.7270   30.0980   39.6330 N   0  0  0  0  0  0  0  0  0  0  0  0
   37.4560   30.7830   38.5220 C   0  0  0  0  0  0  0  0  0  0  0  0
   36.6200   30.2860   37.5800 N   0  0  0  0  0  0  0  0  0  0  0  0
   35.3850   28.6160   37.0780 H   0  0  0  0  0  0  0  0  0  0  0  0
   35.9140   27.3710   39.0770 H   0  0  0  0  0  0  0  0  0  0  0  0
   38.1090   32.1020   38.3270 C   0  0  2  0  0  0  0  0  0  0  0  0
   39.4390   31.8490   37.7110 C   0  0  0  0  0  0  0  0  0  0  0  0
   40.5860   32.0030   38.6240 C   0  0  0  0  0  0  0  0  0  0  0  0
   40.4930   33.4130   39.1750 C   0  0  0  0  0  0  0  0  0  0  0  0
   39.3100   33.5950   40.0390 C   0  0  0  0  0  0  0  0  0  0  0  0
   38.0820   32.8880   39.5530 C   0  0  0  0  0  0  0  0  0  0  0  0
   37.4520   32.6220   37.5660 H   0  0  0  0  0  0  0  0  0  0  0  0
   39.4910   30.8300   37.2330 H   0  0  0  0  0  0  0  0  0  0  0  0
   39.5810   32.5630   36.8730 H   0  0  0  0  0  0  0  0  0  0  0  0
   41.5310   31.8590   38.1110 H   0  0  0  0  0  0  0  0  0  0  0  0
   40.4350   31.3200   39.5050 H   0  0  0  0  0  0  0  0  0  0  0  0
   40.4370   34.0990   38.3310 H   0  0  0  0  0  0  0  0  0  0  0  0
   41.3550   33.5270   39.8460 H   0  0  0  0  0  0  0  0  0  0  0  0
   39.1020   34.1120   40.9380 H   0  0  0  0  0  0  0  0  0  0  0  0
   36.8700   32.9750   40.2880 N   0  0  0  0  0  0  0  0  0  0  0  0
   36.3580   33.6890   39.6960 H   0  0  0  0  0  0  0  0  0  0  0  0
   36.3590   32.6130   41.1290 H   0  0  0  0  0  0  0  0  0  0  0  0
   38.8070   27.5890   41.3900 C   0  0  0  0  0  0  0  0  0  0  0  0
   37.6450   28.2670   41.1340 C   0  0  0  0  0  0  0  0  0  0  0  0
   36.8110   28.3380   42.2400 C   0  0  0  0  0  0  0  0  0  0  0  0
   35.8430   28.8550   42.1700 H   0  0  0  0  0  0  0  0  0  0  0  0
   37.0700   27.8080   43.4800 C   0  0  0  0  0  0  0  0  0  0  0  0
   36.3730   27.9020   44.2990 H   0  0  0  0  0  0  0  0  0  0  0  0
   38.2540   27.1400   43.6800 C   0  0  0  0  0  3  0  0  0  0  0  0
   39.1070   27.0470   42.6040 C   0  0  0  0  0  3  0  0  0  0  0  0
   39.3920   26.8530   39.0150 H   0  0  0  0  0  0  0  0  0  0  0  0
   39.9820   27.2770   40.1480 S   0  0  0  0  0  0  0  0  0  0  0  0
   40.7710   28.5090   39.9010 O   0  0  0  0  0  0  0  0  0  0  0  0
   40.9040   26.1440   40.6070 O   0  0  0  0  0  0  0  0  0  0  0  0
  1  2  1  0  0  0  0
  2  8  1  0  0  0  0
  2  3  2  0  0  0  0
  3 27  1  0  0  0  0
  4  3  1  0  0  0  0
  5  4  2  0  0  0  0
  6  1  2  0  0  0  0
  6  5  1  0  0  0  0
  7  1  1  0  0  0  0
  9 15  1  6  0  0  0
  9  5  1  0  0  0  0
  9 14  1  0  0  0  0
 10  9  1  0  0  0  0
 10 11  1  0  0  0  0
 11 12  1  0  0  0  0
 11 19  1  0  0  0  0
 12 21  1  0  0  0  0
 12 13  1  0  0  0  0
 13 22  1  0  0  0  0
 14 13  2  0  0  0  0
 14 23  1  0  0  0  0
 16 10  1  0  0  0  0
 17 10  1  0  0  0  0
 18 11  1  0  0  0  0
 20 12  1  0  0  0  0
 23 25  1  0  0  0  0
 24 23  1  0  0  0  0
 26 33  1  0  0  0  0
 27 26  2  0  0  0  0
 27 28  1  0  0  0  0
 28 30  2  0  0  0  0
 29 28  1  0  0  0  0
 30 32  1  0  0  0  0
 30 31  1  0  0  0  0
 33 32  2  0  0  0  0
 34 35  1  0  0  0  0
 35 37  2  0  0  0  0
 35 26  1  0  0  0  0
 36 35  2  0  0  0  0
M  END
>  <minimizedAffinity>
-5.45874119

$$$$

 OpenBabel03252505053D

 37 39  0  0  1  0  0  0  0  0999 V2000
   41.9010   29.5240   42.0440 C   0  0  0  0  0  0  0  0  0  0  0  0
   41.3390   30.1990   40.9570 C   0  0  0  0  0  0  0  0  0  0  0  0
   40.0100   29.9720   40.6410 C   0  0  0  0  0  0  0  0  0  0  0  0
   39.3260   29.0780   41.4320 N   0  0  0  0  0  0  0  0  0  0  0  0
   39.8920   28.4480   42.4620 C   0  0  0  0  0  0  0  0  0  0  0  0
   41.1890   28.6620   42.7860 N   0  0  0  0  0  0  0  0  0  0  0  0
   42.9470   29.7490   42.2400 H   0  0  0  0  0  0  0  0  0  0  0  0
   41.9180   30.8530   40.3560 H   0  0  0  0  0  0  0  0  0  0  0  0
   39.0720   27.4870   43.2420 C   0  0  2  0  0  0  0  0  0  0  0  0
   39.3120   26.1350   42.6660 C   0  0  0  0  0  0  0  0  0  0  0  0
   38.2070   25.6070   41.8440 C   0  0  0  0  0  0  0  0  0  0  0  0
   36.9820   25.6160   42.7370 C   0  0  0  0  0  0  0  0  0  0  0  0
   36.5570   26.9870   43.0830 C   0  0  0  0  0  0  0  0  0  0  0  0
   37.6890   27.9330   43.3390 C   0  0  0  0  0  0  0  0  0  0  0  0
   39.5230   27.5220   44.2790 H   0  0  0  0  0  0  0  0  0  0  0  0
   40.2610   26.1010   42.0610 H   0  0  0  0  0  0  0  0  0  0  0  0
   39.4790   25.4220   43.4990 H   0  0  0  0  0  0  0  0  0  0  0  0
   38.4120   24.6010   41.4950 H   0  0  0  0  0  0  0  0  0  0  0  0
   37.9920   26.3420   41.0210 H   0  0  0  0  0  0  0  0  0  0  0  0
   37.2260   25.0710   43.6480 H   0  0  0  0  0  0  0  0  0  0  0  0
   36.1640   25.2110   42.1250 H   0  0  0  0  0  0  0  0  0  0  0  0
   35.6310   27.4860   43.2000 H   0  0  0  0  0  0  0  0  0  0  0  0
   37.4260   29.2870   43.6800 N   0  0  0  0  0  0  0  0  0  0  0  0
   37.5940   29.2390   44.7250 H   0  0  0  0  0  0  0  0  0  0  0  0
   37.1520   30.2220   43.2930 H   0  0  0  0  0  0  0  0  0  0  0  0
   38.7670   31.7840   39.3560 C   0  0  0  0  0  0  0  0  0  0  0  0
   39.2250   30.5090   39.5480 C   0  0  0  0  0  0  0  0  0  0  0  0
   38.8230   29.6380   38.5450 C   0  0  0  0  0  0  0  0  0  0  0  0
   39.1220   28.5800   38.5780 H   0  0  0  0  0  0  0  0  0  0  0  0
   38.0540   29.9650   37.4550 C   0  0  0  0  0  0  0  0  0  0  0  0
   37.7790   29.2330   36.7100 H   0  0  0  0  0  0  0  0  0  0  0  0
   37.6250   31.2620   37.3130 C   0  0  0  0  0  3  0  0  0  0  0  0
   38.0010   32.1540   38.2890 C   0  0  0  0  0  3  0  0  0  0  0  0
   38.8720   32.6020   41.7740 H   0  0  0  0  0  0  0  0  0  0  0  0
   39.0500   33.0470   40.5160 S   0  0  0  0  0  0  0  0  0  0  0  0
   40.4230   33.5780   40.3350 O   0  0  0  0  0  0  0  0  0  0  0  0
   38.0220   34.1610   40.3010 O   0  0  0  0  0  0  0  0  0  0  0  0
  1  7  1  0  0  0  0
  1  6  1  0  0  0  0
  2  1  2  0  0  0  0
  3  2  1  0  0  0  0
  3  4  2  0  0  0  0
  4  5  1  0  0  0  0
  5  6  2  0  0  0  0
  5  9  1  0  0  0  0
  8  2  1  0  0  0  0
  9 14  1  0  0  0  0
  9 15  1  1  0  0  0
 10  9  1  0  0  0  0
 10 17  1  0  0  0  0
 11 10  1  0  0  0  0
 11 12  1  0  0  0  0
 12 13  1  0  0  0  0
 12 20  1  0  0  0  0
 13 22  1  0  0  0  0
 13 14  2  0  0  0  0
 14 23  1  0  0  0  0
 16 10  1  0  0  0  0
 18 11  1  0  0  0  0
 19 11  1  0  0  0  0
 21 12  1  0  0  0  0
 23 24  1  0  0  0  0
 25 23  1  0  0  0  0
 26 27  1  0  0  0  0
 26 35  1  0  0  0  0
 27  3  1  0  0  0  0
 28 29  1  0  0  0  0
 28 27  2  0  0  0  0
 30 28  1  0  0  0  0
 31 30  1  0  0  0  0
 32 30  2  0  0  0  0
 32 33  1  0  0  0  0
 33 26  2  0  0  0  0
 35 34  1  0  0  0  0
 36 35  2  0  0  0  0
 37 35  2  0  0  0  0
M  END
>  <minimizedAffinity>
-5.45653772

$$$$

 OpenBabel03252505053D

 37 39  0  0  1  0  0  0  0  0999 V2000
   36.0530   30.4840   40.1400 C   0  0  0  0  0  0  0  0  0  0  0  0
   35.8570   29.1580   40.5350 C   0  0  0  0  0  0  0  0  0  0  0  0
   36.9400   28.2940   40.5490 C   0  0  0  0  0  0  0  0  0  0  0  0
   38.1540   28.8130   40.1610 N   0  0  0  0  0  0  0  0  0  0  0  0
   38.3090   30.0840   39.7870 C   0  0  0  0  0  0  0  0  0  0  0  0
   37.2600   30.9400   39.7710 N   0  0  0  0  0  0  0  0  0  0  0  0
   35.1640   31.1090   40.1540 H   0  0  0  0  0  0  0  0  0  0  0  0
   34.8940   28.7970   40.7930 H   0  0  0  0  0  0  0  0  0  0  0  0
   39.6580   30.5390   39.3670 C   0  0  2  0  0  0  0  0  0  0  0  0
   40.0700   31.6180   40.3040 C   0  0  0  0  0  0  0  0  0  0  0  0
   40.0090   32.9810   39.7460 C   0  0  0  0  0  0  0  0  0  0  0  0
   40.8840   32.9630   38.5070 C   0  0  0  0  0  0  0  0  0  0  0  0
   40.3230   32.1070   37.4430 C   0  0  0  0  0  0  0  0  0  0  0  0
   39.6890   30.8450   37.9430 C   0  0  0  0  0  0  0  0  0  0  0  0
   40.3170   29.6360   39.5440 H   0  0  0  0  0  0  0  0  0  0  0  0
   39.4750   31.5920   41.2600 H   0  0  0  0  0  0  0  0  0  0  0  0
   41.1190   31.4310   40.6170 H   0  0  0  0  0  0  0  0  0  0  0  0
   40.3710   33.7210   40.4520 H   0  0  0  0  0  0  0  0  0  0  0  0
   38.9630   33.1710   39.3800 H   0  0  0  0  0  0  0  0  0  0  0  0
   41.8660   32.5900   38.7950 H   0  0  0  0  0  0  0  0  0  0  0  0
   40.8450   33.9830   38.1000 H   0  0  0  0  0  0  0  0  0  0  0  0
   40.2510   32.1570   36.3890 H   0  0  0  0  0  0  0  0  0  0  0  0
   39.1060   29.9270   37.0300 N   0  0  0  0  0  0  0  0  0  0  0  0
   39.8770   29.2010   36.9970 H   0  0  0  0  0  0  0  0  0  0  0  0
   38.2620   29.7400   36.4370 H   0  0  0  0  0  0  0  0  0  0  0  0
   37.4090   26.2670   42.0160 C   0  0  0  0  0  0  0  0  0  0  0  0
   36.9800   26.8820   40.8710 C   0  0  0  0  0  0  0  0  0  0  0  0
   36.5710   25.9800   39.9000 C   0  0  0  0  0  0  0  0  0  0  0  0
   36.2040   26.3420   38.9280 H   0  0  0  0  0  0  0  0  0  0  0  0
   36.5710   24.6120   40.0190 C   0  0  0  0  0  0  0  0  0  0  0  0
   36.2360   23.9690   39.2190 H   0  0  0  0  0  0  0  0  0  0  0  0
   37.0100   24.0510   41.1940 C   0  0  0  0  0  3  0  0  0  0  0  0
   37.4260   24.9140   42.1800 C   0  0  0  0  0  3  0  0  0  0  0  0
   38.1270   26.4090   44.4640 H   0  0  0  0  0  0  0  0  0  0  0  0
   38.0620   27.1660   43.3530 S   0  0  0  0  0  0  0  0  0  0  0  0
   39.4040   27.6810   42.9880 O   0  0  0  0  0  0  0  0  0  0  0  0
   37.1220   28.3300   43.6780 O   0  0  0  0  0  0  0  0  0  0  0  0
  1  7  1  0  0  0  0
  1  2  1  0  0  0  0
  2  3  2  0  0  0  0
  2  8  1  0  0  0  0
  3 27  1  0  0  0  0
  4  3  1  0  0  0  0
  5  4  2  0  0  0  0
  6  5  1  0  0  0  0
  6  1  2  0  0  0  0
  9 15  1  1  0  0  0
  9  5  1  0  0  0  0
  9 10  1  0  0  0  0
 10 17  1  0  0  0  0
 10 16  1  0  0  0  0
 11 10  1  0  0  0  0
 11 18  1  0  0  0  0
 12 20  1  0  0  0  0
 12 11  1  0  0  0  0
 13 14  2  0  0  0  0
 13 12  1  0  0  0  0
 14  9  1  0  0  0  0
 19 11  1  0  0  0  0
 21 12  1  0  0  0  0
 22 13  1  0  0  0  0
 23 14  1  0  0  0  0
 24 23  1  0  0  0  0
 25 23  1  0  0  0  0
 26 33  1  0  0  0  0
 26 35  1  0  0  0  0
 27 26  2  0  0  0  0
 28 30  2  0  0  0  0
 28 27  1  0  0  0  0
 29 28  1  0  0  0  0
 30 32  1  0  0  0  0
 31 30  1  0  0  0  0
 32 33  2  0  0  0  0
 35 37  2  0  0  0  0
 35 34  1  0  0  0  0
 36 35  2  0  0  0  0
M  END
>  <minimizedAffinity>
-5.4353714

$$$$

 OpenBabel03252505053D

 37 39  0  0  1  0  0  0  0  0999 V2000
   36.7220   27.2480   43.4350 C   0  0  0  0  0  0  0  0  0  0  0  0
   37.3340   28.4970   43.3060 C   0  0  0  0  0  0  0  0  0  0  0  0
   38.2170   28.7080   42.2600 C   0  0  0  0  0  0  0  0  0  0  0  0
   38.4360   27.6490   41.4080 N   0  0  0  0  0  0  0  0  0  0  0  0
   37.8360   26.4680   41.5590 C   0  0  0  0  0  0  0  0  0  0  0  0
   36.9690   26.2480   42.5750 N   0  0  0  0  0  0  0  0  0  0  0  0
   36.0390   27.1500   44.2750 H   0  0  0  0  0  0  0  0  0  0  0  0
   37.1590   29.2710   44.0100 H   0  0  0  0  0  0  0  0  0  0  0  0
   38.1560   25.3840   40.5960 C   0  0  2  0  0  0  0  0  0  0  0  0
   37.1910   25.4970   39.4690 C   0  0  0  0  0  0  0  0  0  0  0  0
   36.1270   24.4770   39.4590 C   0  0  0  0  0  0  0  0  0  0  0  0
   36.8340   23.1360   39.4470 C   0  0  0  0  0  0  0  0  0  0  0  0
   37.5700   22.8840   40.7020 C   0  0  0  0  0  0  0  0  0  0  0  0
   38.2480   24.0950   41.2670 C   0  0  0  0  0  0  0  0  0  0  0  0
   39.1880   25.6530   40.2160 H   0  0  0  0  0  0  0  0  0  0  0  0
   36.7160   26.5170   39.4260 H   0  0  0  0  0  0  0  0  0  0  0  0
   37.7520   25.4040   38.5150 H   0  0  0  0  0  0  0  0  0  0  0  0
   35.4860   24.5740   38.5900 H   0  0  0  0  0  0  0  0  0  0  0  0
   35.5780   24.5250   40.4400 H   0  0  0  0  0  0  0  0  0  0  0  0
   37.5310   23.1320   38.6100 H   0  0  0  0  0  0  0  0  0  0  0  0
   36.0380   22.3800   39.4290 H   0  0  0  0  0  0  0  0  0  0  0  0
   37.7470   22.0450   41.3210 H   0  0  0  0  0  0  0  0  0  0  0  0
   38.9910   23.9990   42.4740 N   0  0  0  0  0  0  0  0  0  0  0  0
   39.9720   23.9770   42.0730 H   0  0  0  0  0  0  0  0  0  0  0  0
   38.9120   23.9480   43.5180 H   0  0  0  0  0  0  0  0  0  0  0  0
   38.6870   30.9450   41.1380 C   0  0  0  0  0  0  0  0  0  0  0  0
   39.0010   29.8850   41.9470 C   0  0  0  0  0  0  0  0  0  0  0  0
   40.2740   29.9840   42.4890 C   0  0  0  0  0  0  0  0  0  0  0  0
   40.6530   29.1960   43.1570 H   0  0  0  0  0  0  0  0  0  0  0  0
   41.1630   31.0090   42.2780 C   0  0  0  0  0  0  0  0  0  0  0  0
   42.1410   31.0210   42.7350 H   0  0  0  0  0  0  0  0  0  0  0  0
   40.7930   32.0470   41.4580 C   0  0  0  0  0  3  0  0  0  0  0  0
   39.5380   31.9840   40.8990 C   0  0  0  0  0  3  0  0  0  0  0  0
   37.0570   29.9670   39.4310 H   0  0  0  0  0  0  0  0  0  0  0  0
   37.1890   31.0190   40.2610 S   0  0  0  0  0  0  0  0  0  0  0  0
   36.0610   31.0740   41.2240 O   0  0  0  0  0  0  0  0  0  0  0  0
   37.1900   32.2700   39.3790 O   0  0  0  0  0  0  0  0  0  0  0  0
  1  7  1  0  0  0  0
  2  1  1  0  0  0  0
  2  8  1  0  0  0  0
  3  2  2  0  0  0  0
  4  5  2  0  0  0  0
  4  3  1  0  0  0  0
  5  6  1  0  0  0  0
  6  1  2  0  0  0  0
  9 15  1  6  0  0  0
  9 14  1  0  0  0  0
  9  5  1  0  0  0  0
 10  9  1  0  0  0  0
 11 10  1  0  0  0  0
 11 19  1  0  0  0  0
 12 11  1  0  0  0  0
 12 13  1  0  0  0  0
 13 14  2  0  0  0  0
 13 22  1  0  0  0  0
 14 23  1  0  0  0  0
 16 10  1  0  0  0  0
 17 10  1  0  0  0  0
 18 11  1  0  0  0  0
 20 12  1  0  0  0  0
 21 12  1  0  0  0  0
 23 25  1  0  0  0  0
 24 23  1  0  0  0  0
 26 27  1  0  0  0  0
 27  3  1  0  0  0  0
 27 28  2  0  0  0  0
 28 29  1  0  0  0  0
 30 28  1  0  0  0  0
 30 31  1  0  0  0  0
 32 30  2  0  0  0  0
 33 26  2  0  0  0  0
 33 32  1  0  0  0  0
 34 35  1  0  0  0  0
 35 26  1  0  0  0  0
 35 36  2  0  0  0  0
 37 35  2  0  0  0  0
M  END
>  <minimizedAffinity>
-5.42762661

$$$$

 OpenBabel03252505053D

 37 39  0  0  1  0  0  0  0  0999 V2000
   40.0840   32.0870   39.7590 C   0  0  0  0  0  0  0  0  0  0  0  0
   39.6000   31.5300   38.5720 C   0  0  0  0  0  0  0  0  0  0  0  0
   38.7360   30.4490   38.6410 C   0  0  0  0  0  0  0  0  0  0  0  0
   38.4140   29.9900   39.8980 N   0  0  0  0  0  0  0  0  0  0  0  0
   38.8940   30.5430   41.0120 C   0  0  0  0  0  0  0  0  0  0  0  0
   39.7370   31.6010   40.9610 N   0  0  0  0  0  0  0  0  0  0  0  0
   40.7560   32.9320   39.6340 H   0  0  0  0  0  0  0  0  0  0  0  0
   39.9060   31.8980   37.6260 H   0  0  0  0  0  0  0  0  0  0  0  0
   38.5000   29.9590   42.3190 C   0  0  2  0  0  0  0  0  0  0  0  0
   39.5890   29.0330   42.7340 C   0  0  0  0  0  0  0  0  0  0  0  0
   39.2720   27.6000   42.5900 C   0  0  0  0  0  0  0  0  0  0  0  0
   38.0110   27.3680   43.4020 C   0  0  0  0  0  0  0  0  0  0  0  0
   36.8430   28.0610   42.8230 C   0  0  0  0  0  0  0  0  0  0  0  0
   37.1490   29.4180   42.2670 C   0  0  0  0  0  0  0  0  0  0  0  0
   38.4940   30.8460   43.0230 H   0  0  0  0  0  0  0  0  0  0  0  0
   40.5500   29.2470   42.1890 H   0  0  0  0  0  0  0  0  0  0  0  0
   39.8210   29.2180   43.8030 H   0  0  0  0  0  0  0  0  0  0  0  0
   40.0770   26.9720   42.9560 H   0  0  0  0  0  0  0  0  0  0  0  0
   38.9880   27.4030   41.5200 H   0  0  0  0  0  0  0  0  0  0  0  0
   38.1900   27.7370   44.4110 H   0  0  0  0  0  0  0  0  0  0  0  0
   37.7860   26.2980   43.3010 H   0  0  0  0  0  0  0  0  0  0  0  0
   35.8170   27.8390   42.6980 H   0  0  0  0  0  0  0  0  0  0  0  0
   36.1190   30.1970   41.6770 N   0  0  0  0  0  0  0  0  0  0  0  0
   35.9310   30.8700   42.4740 H   0  0  0  0  0  0  0  0  0  0  0  0
   35.5390   30.3240   40.8130 H   0  0  0  0  0  0  0  0  0  0  0  0
   38.6490   28.5970   36.8970 C   0  0  0  0  0  0  0  0  0  0  0  0
   38.1440   29.6800   37.5660 C   0  0  0  0  0  0  0  0  0  0  0  0
   36.9050   30.0770   37.0840 C   0  0  0  0  0  0  0  0  0  0  0  0
   36.3870   30.9380   37.5340 H   0  0  0  0  0  0  0  0  0  0  0  0
   36.2130   29.4870   36.0560 C   0  0  0  0  0  0  0  0  0  0  0  0
   35.2490   29.8500   35.7330 H   0  0  0  0  0  0  0  0  0  0  0  0
   36.7680   28.4020   35.4220 C   0  0  0  0  0  3  0  0  0  0  0  0
   37.9980   27.9790   35.8700 C   0  0  0  0  0  3  0  0  0  0  0  0
   40.4370   27.8670   38.5680 H   0  0  0  0  0  0  0  0  0  0  0  0
   40.2280   27.9580   37.2420 S   0  0  0  0  0  0  0  0  0  0  0  0
   40.3700   26.6310   36.5940 O   0  0  0  0  0  0  0  0  0  0  0  0
   41.2860   28.9240   36.7020 O   0  0  0  0  0  0  0  0  0  0  0  0
  1  6  1  0  0  0  0
  2  3  1  0  0  0  0
  2  1  2  0  0  0  0
  3  4  2  0  0  0  0
  4  5  1  0  0  0  0
  5  9  1  0  0  0  0
  6  5  2  0  0  0  0
  7  1  1  0  0  0  0
  8  2  1  0  0  0  0
  9 10  1  0  0  0  0
  9 15  1  1  0  0  0
 10 17  1  0  0  0  0
 11 10  1  0  0  0  0
 11 18  1  0  0  0  0
 11 12  1  0  0  0  0
 12 20  1  0  0  0  0
 13 12  1  0  0  0  0
 14  9  1  0  0  0  0
 14 13  2  0  0  0  0
 16 10  1  0  0  0  0
 19 11  1  0  0  0  0
 21 12  1  0  0  0  0
 22 13  1  0  0  0  0
 23 14  1  0  0  0  0
 23 24  1  0  0  0  0
 25 23  1  0  0  0  0
 26 35  1  0  0  0  0
 26 27  1  0  0  0  0
 27  3  1  0  0  0  0
 28 29  1  0  0  0  0
 28 27  2  0  0  0  0
 30 28  1  0  0  0  0
 31 30  1  0  0  0  0
 32 33  1  0  0  0  0
 32 30  2  0  0  0  0
 33 26  2  0  0  0  0
 35 34  1  0  0  0  0
 36 35  2  0  0  0  0
 37 35  2  0  0  0  0
M  END
>  <minimizedAffinity>
-5.35092163

$$$$
