
 OpenBabel03252504333D

 43 45  0  0  0  0  0  0  0  0999 V2000
   41.6070   35.6550   41.1850 C   0  0  0  0  0  0  0  0  0  0  0  0
   41.5140   35.8110   42.2740 H   0  0  0  0  0  0  0  0  0  0  0  0
   41.1440   36.5680   40.7120 H   0  0  0  0  0  0  0  0  0  0  0  0
   41.0860   33.2790   41.1950 C   0  0  0  0  0  0  0  0  0  0  0  0
   40.6140   34.5680   40.8970 C   0  0  0  0  0  0  0  0  0  0  0  0
   39.3610   34.7050   40.4140 C   0  0  0  0  0  0  0  0  0  0  0  0
   38.6600   33.5880   40.2570 N   0  0  0  0  0  0  0  0  0  0  0  0
   39.0750   32.3660   40.5290 C   0  0  0  0  0  0  0  0  0  0  0  0
   40.3660   32.1670   41.0310 N   0  0  0  0  0  0  0  0  0  0  0  0
   42.0790   33.1000   41.5840 H   0  0  0  0  0  0  0  0  0  0  0  0
   39.0440   35.6960   40.2000 H   0  0  0  0  0  0  0  0  0  0  0  0
   38.2320   30.6170   39.0700 C   0  0  0  0  0  0  0  0  0  0  0  0
   38.2670   31.1640   40.3400 C   0  0  0  0  0  0  0  0  0  0  0  0
   37.5550   30.5780   41.3740 C   0  0  0  0  0  0  0  0  0  0  0  0
   37.6020   31.0340   42.3670 H   0  0  0  0  0  0  0  0  0  0  0  0
   36.7870   29.4440   41.2140 C   0  0  0  0  0  0  0  0  0  0  0  0
   36.2490   29.0140   42.0320 H   0  0  0  0  0  0  0  0  0  0  0  0
   36.7240   28.8630   39.9630 C   0  0  0  0  0  3  0  0  0  0  0  0
   37.4420   29.4680   38.9530 C   0  0  0  0  0  3  0  0  0  0  0  0
   40.3950   31.6140   38.0060 H   0  0  0  0  0  0  0  0  0  0  0  0
   39.0920   31.2870   37.7260 S   0  0  0  0  0  0  0  0  0  0  0  0
   39.1850   30.2060   36.6590 O   0  0  0  0  0  0  0  0  0  0  0  0
   38.3260   32.4010   37.0810 O   0  0  0  0  0  0  0  0  0  0  0  0
   42.8360   35.4370   40.6550 O   0  0  0  0  0  0  0  0  0  0  0  0
   44.0490   35.3570   41.3160 C   0  0  0  0  0  3  0  0  0  0  0  0
   44.0180   35.5730   42.6290 C   0  0  0  0  0  3  0  0  0  0  0  0
   45.2490   35.5240   43.5250 C   0  0  0  0  0  0  0  0  0  0  0  0
   45.4340   36.5020   43.9750 H   0  0  0  0  0  0  0  0  0  0  0  0
   46.1270   35.2530   42.9040 H   0  0  0  0  0  0  0  0  0  0  0  0
   44.9830   34.5890   44.5080 O   0  0  0  0  0  0  0  0  0  0  0  0
   45.6070   32.4270   43.0840 O   0  0  0  0  0  0  0  0  0  0  0  0
   45.9680   33.2340   44.3100 P   0  0  1  0  0  0  0  0  0  0  0  0
   47.5940   33.7190   44.1290 O   0  0  0  0  0  0  0  0  0  0  0  0
   47.7820   34.3300   44.8720 H   0  0  0  0  0  0  0  0  0  0  0  0
   45.8970   32.2590   45.6840 O   0  0  0  0  0  0  0  0  0  0  0  0
   46.2120   32.9500   46.8380 C   0  0  0  0  0  0  0  0  0  0  0  0
   47.0800   32.3030   47.8690 C   0  0  0  0  0  0  0  0  0  0  0  0
   45.5830   32.4050   48.0990 C   0  0  0  0  0  0  0  0  0  0  0  0
   46.3310   34.0410   46.6920 H   0  0  0  0  0  0  0  0  0  0  0  0
   47.5380   31.3290   47.7020 H   0  0  0  0  0  0  0  0  0  0  0  0
   47.6640   33.0020   48.5010 H   0  0  0  0  0  0  0  0  0  0  0  0
   45.2040   33.2000   48.8020 H   0  0  0  0  0  0  0  0  0  0  0  0
   45.0620   31.4450   48.0780 H   0  0  0  0  0  0  0  0  0  0  0  0
  1  2  1  0  0  0  0
  3  1  1  0  0  0  0
  4 10  1  0  0  0  0
  5  1  1  0  0  0  0
  5  4  2  0  0  0  0
  6  5  1  0  0  0  0
  7  6  2  0  0  0  0
  7  8  1  0  0  0  0
  8  9  2  0  0  0  0
  9  4  1  0  0  0  0
 11  6  1  0  0  0  0
 12 13  1  0  0  0  0
 13  8  1  0  0  0  0
 13 14  2  0  0  0  0
 14 15  1  0  0  0  0
 16 14  1  0  0  0  0
 16 17  1  0  0  0  0
 18 16  2  0  0  0  0
 19 12  2  0  0  0  0
 19 18  1  0  0  0  0
 21 20  1  0  0  0  0
 21 12  1  0  0  0  0
 22 21  2  0  0  0  0
 23 21  2  0  0  0  0
 24  1  1  0  0  0  0
 24 25  1  0  0  0  0
 25 26  2  0  0  0  0
 26 27  1  0  0  0  0
 27 28  1  0  0  0  0
 27 30  1  0  0  0  0
 29 27  1  0  0  0  0
 32 31  2  6  0  0  0
 32 30  1  0  0  0  0
 32 35  1  0  0  0  0
 33 32  1  0  0  0  0
 33 34  1  0  0  0  0
 35 36  1  0  0  0  0
 36 37  1  0  0  0  0
 36 38  1  0  0  0  0
 37 38  1  0  0  0  0
 37 41  1  0  0  0  0
 38 42  1  0  0  0  0
 39 36  1  0  0  0  0
 40 37  1  0  0  0  0
 43 38  1  0  0  0  0
M  END
>  <minimizedAffinity>
-5.39044571

>  <minimizedRMSD>
0.879500687

$$$$
