
 OpenBabel03252505103D

 47 50  0  0  1  0  0  0  0  0999 V2000
   44.5460   35.5350   44.5860 C   0  0  0  0  0  0  0  0  0  0  0  0
   45.2580   35.6000   43.3690 C   0  0  0  0  0  0  0  0  0  0  0  0
   46.3910   34.7360   43.2150 C   0  0  0  0  0  0  0  0  0  0  0  0
   46.7200   33.9130   44.2290 N   0  0  0  0  0  0  0  0  0  0  0  0
   46.0160   33.8810   45.3740 C   0  0  0  0  0  0  0  0  0  0  0  0
   44.9250   34.6910   45.5610 N   0  0  0  0  0  0  0  0  0  0  0  0
   43.6840   36.1850   44.7170 H   0  0  0  0  0  0  0  0  0  0  0  0
   44.9920   36.2560   42.5690 H   0  0  0  0  0  0  0  0  0  0  0  0
   46.4190   32.9590   46.4590 C   0  0  2  0  0  0  0  0  0  0  0  0
   46.9310   31.7210   45.7540 C   0  0  0  0  0  0  0  0  0  0  0  0
   46.0280   30.5480   45.7750 C   0  0  0  0  0  0  0  0  0  0  0  0
   45.7680   30.2850   47.2530 C   0  0  0  0  0  0  0  0  0  0  0  0
   44.9860   31.3660   47.8740 C   0  0  0  0  0  0  0  0  0  0  0  0
   45.3750   32.7270   47.4170 C   0  0  0  0  0  0  0  0  0  0  0  0
   47.2930   33.4550   46.9550 H   0  0  0  0  0  0  0  0  0  0  0  0
   47.2150   31.9080   44.6970 H   0  0  0  0  0  0  0  0  0  0  0  0
   47.8770   31.4070   46.2420 H   0  0  0  0  0  0  0  0  0  0  0  0
   45.0980   30.6190   45.2130 H   0  0  0  0  0  0  0  0  0  0  0  0
   46.6130   29.6800   45.4250 H   0  0  0  0  0  0  0  0  0  0  0  0
   46.6870   30.0100   47.7710 H   0  0  0  0  0  0  0  0  0  0  0  0
   45.0920   29.4040   47.2600 H   0  0  0  0  0  0  0  0  0  0  0  0
   44.1950   31.3710   48.5860 H   0  0  0  0  0  0  0  0  0  0  0  0
   44.6950   33.8640   47.9310 N   0  0  0  0  0  0  0  0  0  0  0  0
   43.6950   34.0730   47.6880 H   0  0  0  0  0  0  0  0  0  0  0  0
   45.1710   34.5320   48.5700 H   0  0  0  0  0  0  0  0  0  0  0  0
   47.1370   34.7830   41.9680 C   0  0  0  0  0  0  0  0  0  0  0  0
   48.2660   35.5410   41.9330 C   0  0  0  0  0  0  0  0  0  0  0  0
   48.9520   35.5560   40.7050 C   0  0  0  0  0  0  0  0  0  0  0  0
   48.4040   34.8010   39.6750 C   0  0  0  0  0  0  0  0  0  0  0  0
   47.2700   34.0370   39.7080 C   0  0  0  0  0  0  0  0  0  0  0  0
   46.6430   34.0610   40.9300 N   0  0  0  0  0  0  0  0  0  0  0  0
   48.5860   36.0850   42.8100 H   0  0  0  0  0  0  0  0  0  0  0  0
   49.8440   36.1570   40.6820 H   0  0  0  0  0  0  0  0  0  0  0  0
   49.0500   34.9250   38.8210 H   0  0  0  0  0  0  0  0  0  0  0  0
   46.8050   33.3350   38.6620 O   0  0  0  0  0  0  0  0  0  0  0  0
   46.5690   31.5790   37.4400 C   0  0  0  0  0  0  0  0  0  0  0  0
   47.2030   32.8400   37.5140 C   0  0  0  0  0  0  0  0  0  0  0  0
   47.9870   33.1370   36.4360 C   0  0  0  0  0  0  0  0  0  0  0  0
   48.4520   34.0860   36.5150 H   0  0  0  0  0  0  0  0  0  0  0  0
   48.2100   32.3600   35.3290 C   0  0  0  0  0  0  0  0  0  0  0  0
   48.8580   32.7450   34.5680 H   0  0  0  0  0  0  0  0  0  0  0  0
   47.5620   31.1480   35.3230 C   0  0  0  0  0  3  0  0  0  0  0  0
   46.7320   30.7190   36.3570 C   0  0  0  0  0  3  0  0  0  0  0  0
   45.0030   29.6230   38.0680 H   0  0  0  0  0  0  0  0  0  0  0  0
   45.4800   30.7980   38.5950 S   0  0  0  0  0  0  0  0  0  0  0  0
   46.2010   30.5800   39.8740 O   0  0  0  0  0  0  0  0  0  0  0  0
   44.3030   31.6820   38.8310 O   0  0  0  0  0  0  0  0  0  0  0  0
  1  7  1  0  0  0  0
  1  6  1  0  0  0  0
  2  1  2  0  0  0  0
  3  2  1  0  0  0  0
  3  4  2  0  0  0  0
  4  5  1  0  0  0  0
  5  6  2  0  0  0  0
  5  9  1  0  0  0  0
  8  2  1  0  0  0  0
  9 15  1  1  0  0  0
  9 14  1  0  0  0  0
 10 11  1  0  0  0  0
 10 17  1  0  0  0  0
 10  9  1  0  0  0  0
 11 12  1  0  0  0  0
 12 21  1  0  0  0  0
 12 20  1  0  0  0  0
 12 13  1  0  0  0  0
 13 22  1  0  0  0  0
 14 13  2  0  0  0  0
 14 23  1  0  0  0  0
 16 10  1  0  0  0  0
 18 11  1  0  0  0  0
 19 11  1  0  0  0  0
 23 25  1  0  0  0  0
 24 23  1  0  0  0  0
 26  3  1  0  0  0  0
 27 26  1  0  0  0  0
 27 32  1  0  0  0  0
 28 27  2  0  0  0  0
 29 30  2  0  0  0  0
 29 28  1  0  0  0  0
 30 31  1  0  0  0  0
 31 26  2  0  0  0  0
 33 28  1  0  0  0  0
 34 29  1  0  0  0  0
 35 30  1  0  0  0  0
 36 37  1  0  0  0  0
 36 45  1  0  0  0  0
 37 35  1  0  0  0  0
 38 39  1  0  0  0  0
 38 37  2  0  0  0  0
 40 38  1  0  0  0  0
 41 40  1  0  0  0  0
 42 40  2  0  0  0  0
 42 43  1  0  0  0  0
 43 36  2  0  0  0  0
 44 45  1  0  0  0  0
 45 47  2  0  0  0  0
 45 46  2  0  0  0  0
M  END
>  <minimizedAffinity>
-6.98359394

>  <minimizedRMSD>
1.69097233

$$$$
