
 OpenBabel03252502503D

 37 39  0  0  0  0  0  0  0  0999 V2000
   44.5900   36.2530   43.9150 C   0  0  0  0  0  0  0  0  0  0  0  0
   44.7990   35.4710   45.0550 C   0  0  0  0  0  0  0  0  0  0  0  0
   45.5210   34.2960   44.9030 C   0  0  0  0  0  0  0  0  0  0  0  0
   45.9880   33.9600   43.6730 N   0  0  0  0  0  0  0  0  0  0  0  0
   45.7670   34.7460   42.5840 C   0  0  0  0  0  0  0  0  0  0  0  0
   45.0710   35.8840   42.7120 N   0  0  0  0  0  0  0  0  0  0  0  0
   44.0420   37.1850   43.9260 H   0  0  0  0  0  0  0  0  0  0  0  0
   44.3860   35.8340   45.9650 H   0  0  0  0  0  0  0  0  0  0  0  0
   48.5200   35.6990   41.9720 Cl  0  0  0  0  0  0  0  0  0  0  0  0
   47.5540   34.7020   40.9070 C   0  0  0  0  0  0  0  0  0  0  0  0
   46.3000   34.3220   41.2900 C   0  0  0  0  0  0  0  0  0  0  0  0
   45.5000   33.5230   40.4590 C   0  0  0  0  0  0  0  0  0  0  0  0
   46.0510   33.1560   39.2600 C   0  0  0  0  0  0  0  0  0  0  0  0
   47.2960   33.5330   38.8780 C   0  0  0  0  0  0  0  0  0  0  0  0
   48.0650   34.3070   39.6880 C   0  0  0  0  0  0  0  0  0  0  0  0
   44.4930   33.2290   40.7880 H   0  0  0  0  0  0  0  0  0  0  0  0
   45.3770   32.5350   38.6600 H   0  0  0  0  0  0  0  0  0  0  0  0
   47.6010   33.1710   37.9070 H   0  0  0  0  0  0  0  0  0  0  0  0
   49.0450   34.5750   39.3350 H   0  0  0  0  0  0  0  0  0  0  0  0
   45.7420   33.4630   46.1190 C   0  0  0  0  0  0  0  0  0  0  0  0
   44.7560   33.1740   46.4740 H   0  0  0  0  0  0  0  0  0  0  0  0
   46.2700   34.0960   46.8530 H   0  0  0  0  0  0  0  0  0  0  0  0
   46.6380   32.2660   45.8420 C   0  0  0  0  0  0  0  0  0  0  0  0
   46.8200   32.3130   44.7310 H   0  0  0  0  0  0  0  0  0  0  0  0
   47.6180   32.3650   46.3430 H   0  0  0  0  0  0  0  0  0  0  0  0
   45.8000   30.6010   47.3950 C   0  0  0  0  0  0  0  0  0  0  0  0
   45.9550   30.9850   46.0820 C   0  0  0  0  0  0  0  0  0  0  0  0
   45.4740   30.1780   45.0450 C   0  0  0  0  0  0  0  0  0  0  0  0
   45.6210   30.5270   44.0340 H   0  0  0  0  0  0  0  0  0  0  0  0
   44.8330   28.9740   45.3210 C   0  0  0  0  0  0  0  0  0  0  0  0
   44.4600   28.3490   44.5030 H   0  0  0  0  0  0  0  0  0  0  0  0
   44.6850   28.5990   46.6570 C   0  0  0  0  0  3  0  0  0  0  0  0
   45.1590   29.3980   47.6720 C   0  0  0  0  0  3  0  0  0  0  0  0
   46.6140   32.8180   48.4830 H   0  0  0  0  0  0  0  0  0  0  0  0
   46.3480   31.5100   48.7640 S   0  0  0  0  0  0  0  0  0  0  0  0
   45.2610   31.5090   49.8170 O   0  0  0  0  0  0  0  0  0  0  0  0
   47.5560   30.8460   49.3380 O   0  0  0  0  0  0  0  0  0  0  0  0
  1  7  1  0  0  0  0
  1  2  1  0  0  0  0
  2  8  1  0  0  0  0
  3  2  2  0  0  0  0
  3 20  1  0  0  0  0
  4  3  1  0  0  0  0
  5  6  1  0  0  0  0
  5  4  2  0  0  0  0
  6  1  2  0  0  0  0
 10 11  1  0  0  0  0
 10  9  1  0  0  0  0
 11  5  1  0  0  0  0
 12 16  1  0  0  0  0
 12 11  2  0  0  0  0
 13 12  1  0  0  0  0
 14 13  2  0  0  0  0
 14 15  1  0  0  0  0
 15 10  2  0  0  0  0
 17 13  1  0  0  0  0
 18 14  1  0  0  0  0
 19 15  1  0  0  0  0
 20 21  1  0  0  0  0
 20 22  1  0  0  0  0
 23 27  1  0  0  0  0
 23 20  1  0  0  0  0
 23 25  1  0  0  0  0
 24 23  1  0  0  0  0
 26 33  1  0  0  0  0
 26 35  1  0  0  0  0
 27 26  2  0  0  0  0
 28 30  2  0  0  0  0
 28 27  1  0  0  0  0
 29 28  1  0  0  0  0
 30 32  1  0  0  0  0
 31 30  1  0  0  0  0
 32 33  2  0  0  0  0
 34 35  1  0  0  0  0
 35 37  2  0  0  0  0
 35 36  2  0  0  0  0
M  END
>  <minimizedAffinity>
-6.18907642

>  <minimizedRMSD>
1.83805442

$$$$
