
 OpenBabel03252509083D

 44 47  0  0  0  0  0  0  0  0999 V2000
   47.7130   31.8410   38.8940 C   0  0  0  0  0  0  0  0  0  0  0  0
   47.2350   33.1180   38.8850 C   0  0  0  0  0  0  0  0  0  0  0  0
   47.8450   34.0710   38.0870 C   0  0  0  0  0  0  0  0  0  0  0  0
   48.9240   33.7520   37.3070 C   0  0  0  0  0  0  0  0  0  0  0  0
   49.4450   32.4640   37.2850 C   0  0  0  0  0  0  0  0  0  0  0  0
   48.8170   31.5160   38.0950 C   0  0  0  0  0  0  0  0  0  0  0  0
   47.4940   35.0830   38.0570 H   0  0  0  0  0  0  0  0  0  0  0  0
   49.4290   34.4410   36.6790 H   0  0  0  0  0  0  0  0  0  0  0  0
   50.2770   32.1160   36.7160 H   0  0  0  0  0  0  0  0  0  0  0  0
   49.1980   30.4830   38.1060 H   0  0  0  0  0  0  0  0  0  0  0  0
   45.3500   35.2580   43.1900 Cl  0  0  0  0  0  0  0  0  0  0  0  0
   45.1980   34.5170   41.6150 C   0  0  0  0  0  0  0  0  0  0  0  0
   46.2980   34.1360   40.9150 C   0  0  0  0  0  0  0  0  0  0  0  0
   46.0890   33.5680   39.6660 C   0  0  0  0  0  0  0  0  0  0  0  0
   44.8390   33.4070   39.1650 C   0  0  0  0  0  0  0  0  0  0  0  0
   43.7390   33.7860   39.8580 C   0  0  0  0  0  0  0  0  0  0  0  0
   43.9330   34.3480   41.1020 C   0  0  0  0  0  0  0  0  0  0  0  0
   44.7050   32.9730   38.1930 H   0  0  0  0  0  0  0  0  0  0  0  0
   42.7570   33.6420   39.4320 H   0  0  0  0  0  0  0  0  0  0  0  0
   43.0420   34.6480   41.6520 H   0  0  0  0  0  0  0  0  0  0  0  0
   49.5820   35.7450   41.9040 C   0  0  0  0  0  0  0  0  0  0  0  0
   48.3120   35.5480   41.3520 C   0  0  0  0  0  0  0  0  0  0  0  0
   47.6250   34.3500   41.4870 C   0  0  0  0  0  0  0  0  0  0  0  0
   48.2760   33.4110   42.1810 N   0  0  0  0  0  0  0  0  0  0  0  0
   49.4920   33.5880   42.7130 C   0  0  0  0  0  0  0  0  0  0  0  0
   50.1390   34.7440   42.5760 N   0  0  0  0  0  0  0  0  0  0  0  0
   50.0580   36.6870   41.7660 H   0  0  0  0  0  0  0  0  0  0  0  0
   47.8400   36.3600   40.7970 H   0  0  0  0  0  0  0  0  0  0  0  0
   49.8190   32.6880   43.2320 H   0  0  0  0  0  0  0  0  0  0  0  0
   47.0620   30.6480   39.8990 S   0  0  0  0  0  0  0  0  0  0  0  0
   47.3420   29.2600   39.2290 O   0  0  0  0  0  0  0  0  0  0  0  0
   47.8980   30.6020   41.1460 O   0  0  0  0  0  0  0  0  0  0  0  0
   44.7590   30.4550   41.4540 C   0  0  0  0  0  0  0  0  0  0  0  0
   45.3840   30.3990   40.1840 C   0  0  0  0  0  0  0  0  0  0  0  0
   44.4260   30.1190   39.2170 C   0  0  0  0  0  0  0  0  0  0  0  0
   44.7530   30.0640   38.1870 H   0  0  0  0  0  0  0  0  0  0  0  0
   43.0780   29.9160   39.3980 C   0  0  0  0  0  0  0  0  0  0  0  0
   42.4190   29.7040   38.5720 H   0  0  0  0  0  0  0  0  0  0  0  0
   42.6210   29.9990   40.6750 C   0  0  0  0  0  3  0  0  0  0  0  0
   43.4280   30.2680   41.7470 C   0  0  0  0  0  3  0  0  0  0  0  0
   47.0220   31.2740   42.4650 H   0  0  0  0  0  0  0  0  0  0  0  0
   45.7890   30.8750   42.8380 S   0  0  0  0  0  0  0  0  0  0  0  0
   45.9900   29.6420   43.7080 O   0  0  0  0  0  0  0  0  0  0  0  0
   45.0270   31.8410   43.6670 O   0  0  0  0  0  0  0  0  0  0  0  0
  1 30  1  0  0  0  0
  2  1  1  0  0  0  0
  2 14  1  0  0  0  0
  3  2  2  0  0  0  0
  4  3  1  0  0  0  0
  5  4  2  0  0  0  0
  5  6  1  0  0  0  0
  6 10  1  0  0  0  0
  6  1  2  0  0  0  0
  7  3  1  0  0  0  0
  8  4  1  0  0  0  0
  9  5  1  0  0  0  0
 12 11  1  0  0  0  0
 13 23  1  0  0  0  0
 13 12  2  0  0  0  0
 14 13  1  0  0  0  0
 15 14  2  0  0  0  0
 15 16  1  0  0  0  0
 16 17  2  0  0  0  0
 17 12  1  0  0  0  0
 17 20  1  0  0  0  0
 18 15  1  0  0  0  0
 19 16  1  0  0  0  0
 21 26  1  0  0  0  0
 22 23  1  0  0  0  0
 22 21  2  0  0  0  0
 23 24  2  0  0  0  0
 24 25  1  0  0  0  0
 25 29  1  0  0  0  0
 26 25  2  0  0  0  0
 27 21  1  0  0  0  0
 28 22  1  0  0  0  0
 30 34  1  0  0  0  0
 30 32  2  0  0  0  0
 31 30  2  0  0  0  0
 33 40  1  0  0  0  0
 33 42  1  0  0  0  0
 34 33  2  0  0  0  0
 35 37  2  0  0  0  0
 35 34  1  0  0  0  0
 36 35  1  0  0  0  0
 37 39  1  0  0  0  0
 38 37  1  0  0  0  0
 39 40  2  0  0  0  0
 41 42  1  0  0  0  0
 42 44  2  0  0  0  0
 42 43  2  0  0  0  0
M  END
>  <minimizedAffinity>
-4.59683466

>  <minimizedRMSD>
2.09635568

$$$$
