
 OpenBabel03252508593D

 48 50  0  0  1  0  0  0  0  0999 V2000
   47.2340   33.9940   43.2210 N   0  0  0  0  0  0  0  0  0  0  0  0
   46.8770   35.2540   42.6630 C   0  0  0  0  0  0  0  0  0  0  0  0
   45.4250   35.6170   42.7490 C   0  0  0  0  0  0  0  0  0  0  0  0
   44.7170   35.0820   43.9610 C   0  0  0  0  0  0  0  0  0  0  0  0
   45.6660   34.3690   44.8960 C   0  0  0  0  0  0  0  0  0  0  0  0
   46.3280   33.2760   43.9830 C   0  0  2  0  0  0  0  0  0  0  0  0
   47.1950   35.4370   41.6350 H   0  0  0  0  0  0  0  0  0  0  0  0
   47.4320   36.0330   43.2690 H   0  0  0  0  0  0  0  0  0  0  0  0
   45.3000   36.7170   42.7520 H   0  0  0  0  0  0  0  0  0  0  0  0
   44.9370   35.2820   41.7940 H   0  0  0  0  0  0  0  0  0  0  0  0
   44.0040   34.3060   43.6050 H   0  0  0  0  0  0  0  0  0  0  0  0
   44.1180   35.8490   44.4760 H   0  0  0  0  0  0  0  0  0  0  0  0
   45.0560   33.8460   45.6600 H   0  0  0  0  0  0  0  0  0  0  0  0
   46.4540   35.0140   45.3120 H   0  0  0  0  0  0  0  0  0  0  0  0
   45.4720   32.7860   43.4770 H   0  0  0  0  0  0  0  0  0  0  0  0
   48.2310   33.2800   42.4700 C   0  0  0  0  0  0  0  0  0  0  0  0
   48.8620   34.0510   41.9560 H   0  0  0  0  0  0  0  0  0  0  0  0
   48.9140   32.6740   43.0660 H   0  0  0  0  0  0  0  0  0  0  0  0
   47.5420   32.3970   41.4720 C   0  0  0  0  0  0  0  0  0  0  0  0
   46.4500   32.5960   41.4640 H   0  0  0  0  0  0  0  0  0  0  0  0
   47.6800   31.3130   41.6610 H   0  0  0  0  0  0  0  0  0  0  0  0
   49.4050   32.1990   38.2140 C   0  0  0  0  0  0  0  0  0  0  0  0
   48.9290   31.8960   39.5050 C   0  0  0  0  0  0  0  0  0  0  0  0
   48.0310   32.7330   40.1110 C   0  0  0  0  0  0  0  0  0  0  0  0
   47.6420   33.8180   39.4320 N   0  0  0  0  0  0  0  0  0  0  0  0
   48.0940   34.1110   38.1970 C   0  0  0  0  0  0  0  0  0  0  0  0
   48.9750   33.3060   37.5820 N   0  0  0  0  0  0  0  0  0  0  0  0
   50.1170   31.5370   37.7320 H   0  0  0  0  0  0  0  0  0  0  0  0
   49.3240   30.9890   39.9420 H   0  0  0  0  0  0  0  0  0  0  0  0
   47.7210   35.0150   37.7260 H   0  0  0  0  0  0  0  0  0  0  0  0
   46.9660   32.4740   44.9160 O   0  0  0  0  0  0  0  0  0  0  0  0
   45.0810   30.7780   44.1290 O   0  0  0  0  0  0  0  0  0  0  0  0
   46.1890   31.0100   45.1680 P   0  0  2  0  0  0  0  0  0  0  0  0
   45.3550   31.1580   46.6570 O   0  0  0  0  0  0  0  0  0  0  0  0
   44.9230   30.2610   46.7890 H   0  0  0  0  0  0  0  0  0  0  0  0
   47.2060   29.7130   45.2940 O   0  0  0  0  0  0  0  0  0  0  0  0
   49.2560   29.1880   46.1300 C   0  0  0  0  0  0  0  0  0  0  0  0
   48.5460   29.6070   44.9990 C   0  0  0  0  0  0  0  0  0  0  0  0
   49.2500   29.8350   43.8360 C   0  0  0  0  0  0  0  0  0  0  0  0
   48.5990   30.1520   43.0330 H   0  0  0  0  0  0  0  0  0  0  0  0
   50.6170   29.6530   43.7960 C   0  0  0  0  0  0  0  0  0  0  0  0
   51.0930   29.8550   42.8420 H   0  0  0  0  0  0  0  0  0  0  0  0
   51.3290   29.2410   44.9040 C   0  0  0  0  0  3  0  0  0  0  0  0
   50.6430   29.0070   46.0770 C   0  0  0  0  0  3  0  0  0  0  0  0
   49.5390   28.5300   48.6140 H   0  0  0  0  0  0  0  0  0  0  0  0
   48.5560   28.8430   47.7130 S   0  0  0  0  0  0  0  0  0  0  0  0
   47.8380   30.0540   48.2460 O   0  0  0  0  0  0  0  0  0  0  0  0
   47.5750   27.6970   47.5410 O   0  0  0  0  0  0  0  0  0  0  0  0
  1  6  1  0  0  0  0
  2  3  1  0  0  0  0
  2  1  1  0  0  0  0
  2  8  1  0  0  0  0
  3  9  1  0  0  0  0
  3  4  1  0  0  0  0
  4 12  1  0  0  0  0
  4  5  1  0  0  0  0
  5 14  1  0  0  0  0
  5 13  1  0  0  0  0
  6 15  1  6  0  0  0
  6  5  1  0  0  0  0
  6 31  1  0  0  0  0
  7  2  1  0  0  0  0
 10  3  1  0  0  0  0
 11  4  1  0  0  0  0
 16 18  1  0  0  0  0
 16  1  1  0  0  0  0
 17 16  1  0  0  0  0
 19 21  1  0  0  0  0
 19 16  1  0  0  0  0
 20 19  1  0  0  0  0
 22 23  1  0  0  0  0
 23 29  1  0  0  0  0
 23 24  2  0  0  0  0
 24 19  1  0  0  0  0
 25 24  1  0  0  0  0
 26 25  2  0  0  0  0
 27 26  1  0  0  0  0
 27 22  2  0  0  0  0
 28 22  1  0  0  0  0
 30 26  1  0  0  0  0
 31 33  1  0  0  0  0
 33 32  2  6  0  0  0
 33 36  1  0  0  0  0
 33 34  1  0  0  0  0
 34 35  1  0  0  0  0
 37 46  1  0  0  0  0
 38 36  1  0  0  0  0
 38 37  2  0  0  0  0
 39 38  1  0  0  0  0
 40 39  1  0  0  0  0
 41 39  2  0  0  0  0
 41 43  1  0  0  0  0
 42 41  1  0  0  0  0
 43 44  2  0  0  0  0
 44 37  1  0  0  0  0
 46 47  2  0  0  0  0
 46 45  1  0  0  0  0
 48 46  2  0  0  0  0
M  END
>  <minimizedAffinity>
-4.2025013

>  <minimizedRMSD>
0.941848695

$$$$
