
 OpenBabel03242513103D

 44 48  0  0  0  0  0  0  0  0999 V2000
   36.3010   28.0960   40.2310 C   0  0  0  0  0  0  0  0  0  0  0  0
   36.7770   28.5710   41.4490 C   0  0  0  0  0  0  0  0  0  0  0  0
   37.3710   27.6480   42.2830 C   0  0  0  0  0  0  0  0  0  0  0  0
   37.4480   26.3540   41.8570 N   0  0  0  0  0  0  0  0  0  0  0  0
   36.9880   25.9180   40.6910 C   0  0  0  0  0  0  0  0  0  0  0  0
   36.4020   26.8000   39.8560 N   0  0  0  0  0  0  0  0  0  0  0  0
   35.8160   28.7150   39.4890 H   0  0  0  0  0  0  0  0  0  0  0  0
   38.2610   23.8160   40.6220 C   0  0  0  0  0  0  0  0  0  0  0  0
   37.1160   24.5220   40.3270 C   0  0  0  0  0  0  0  0  0  0  0  0
   36.0150   23.9460   39.6650 C   0  0  0  0  0  0  0  0  0  0  0  0
   36.0760   22.6080   39.2880 C   0  0  0  0  0  0  0  0  0  0  0  0
   35.2410   21.7420   38.6560 N   0  0  0  0  0  0  0  0  0  0  0  0
   35.8840   20.5310   38.5770 C   0  0  0  0  0  0  0  0  0  0  0  0
   37.0890   20.6790   39.1560 N   0  0  0  0  0  0  0  0  0  0  0  0
   37.2320   21.9370   39.5990 C   0  0  0  0  0  0  0  0  0  0  0  0
   38.3340   22.4750   40.2510 C   0  0  0  0  0  0  0  0  0  0  0  0
   39.0970   24.2680   41.1290 H   0  0  0  0  0  0  0  0  0  0  0  0
   35.1210   24.4930   39.4320 H   0  0  0  0  0  0  0  0  0  0  0  0
   34.3070   22.0890   38.3470 H   0  0  0  0  0  0  0  0  0  0  0  0
   35.3090   19.7500   38.0870 H   0  0  0  0  0  0  0  0  0  0  0  0
   39.2110   21.8790   40.4600 H   0  0  0  0  0  0  0  0  0  0  0  0
   37.9020   28.0830   43.5980 C   0  0  0  0  0  0  0  0  0  0  0  0
   38.6340   29.2710   43.4620 F   0  0  0  0  0  0  0  0  0  0  0  0
   36.8720   28.3670   44.4640 F   0  0  0  0  0  0  0  0  0  0  0  0
   38.7180   27.0910   44.0830 F   0  0  0  0  0  0  0  0  0  0  0  0
   36.6380   29.8840   41.7500 O   0  0  0  0  0  0  0  0  0  0  0  0
   37.1540   30.8840   40.9610 C   0  0  0  0  0  0  0  0  0  0  0  0
   36.4210   30.7700   39.7780 C   0  0  0  0  0  0  0  0  0  0  0  0
   37.1210   32.1190   38.7260 S   0  0  0  0  0  0  0  0  0  0  0  0
   38.2990   32.6040   40.0980 C   0  0  0  0  0  0  0  0  0  0  0  0
   38.0040   31.8570   40.8540 N   0  0  0  0  0  0  0  0  0  0  0  0
   35.5970   30.2130   39.2000 H   0  0  0  0  0  0  0  0  0  0  0  0
   40.5240   33.4340   39.4800 C   0  0  0  0  0  0  0  0  0  0  0  0
   39.2780   33.7280   39.9680 C   0  0  0  0  0  0  0  0  0  0  0  0
   38.8480   34.9780   40.3530 C   0  0  0  0  0  0  0  0  0  0  0  0
   37.8530   35.1720   40.7350 H   0  0  0  0  0  0  0  0  0  0  0  0
   39.7260   36.0330   40.2450 C   0  0  0  0  0  0  0  0  0  0  0  0
   39.4110   37.0260   40.5410 H   0  0  0  0  0  0  0  0  0  0  0  0
   40.9960   35.7850   39.7570 C   0  0  0  0  0  3  0  0  0  0  0  0
   41.3910   34.5040   39.3790 C   0  0  0  0  0  3  0  0  0  0  0  0
   40.0160   30.9360   39.6910 H   0  0  0  0  0  0  0  0  0  0  0  0
   40.8980   31.7900   39.0420 S   0  0  0  0  0  0  0  0  0  0  0  0
   40.6950   31.5110   37.5780 O   0  0  0  0  0  0  0  0  0  0  0  0
   42.2910   31.4220   39.4830 O   0  0  0  0  0  0  0  0  0  0  0  0
  1  2  1  0  0  0  0
  2 26  1  0  0  0  0
  2  3  2  0  0  0  0
  3 22  1  0  0  0  0
  4  3  1  0  0  0  0
  5  4  2  0  0  0  0
  6  1  2  0  0  0  0
  6  5  1  0  0  0  0
  7  1  1  0  0  0  0
  8 17  1  0  0  0  0
  9  8  1  0  0  0  0
  9  5  1  0  0  0  0
 10  9  2  0  0  0  0
 11 15  2  0  0  0  0
 11 10  1  0  0  0  0
 12 11  1  0  0  0  0
 13 12  1  0  0  0  0
 13 14  2  0  0  0  0
 14 15  1  0  0  0  0
 15 16  1  0  0  0  0
 16 21  1  0  0  0  0
 16  8  2  0  0  0  0
 18 10  1  0  0  0  0
 19 12  1  0  0  0  0
 20 13  1  0  0  0  0
 22 25  1  0  0  0  0
 22 24  1  0  0  0  0
 23 22  1  0  0  0  0
 27 26  1  0  0  0  0
 28 27  2  0  0  0  0
 29 28  1  0  0  0  0
 29 30  1  0  0  0  0
 30 31  2  0  0  0  0
 31 27  1  0  0  0  0
 32 28  1  0  0  0  0
 33 34  1  0  0  0  0
 34 30  1  0  0  0  0
 34 35  2  0  0  0  0
 35 36  1  0  0  0  0
 37 35  1  0  0  0  0
 37 38  1  0  0  0  0
 39 37  2  0  0  0  0
 40 33  2  0  0  0  0
 40 39  1  0  0  0  0
 42 33  1  0  0  0  0
 42 44  2  0  0  0  0
 42 41  1  0  0  0  0
 43 42  2  0  0  0  0
M  END
>  <minimizedAffinity>
-7.49868059

$$$$

 OpenBabel03242513103D

 44 48  0  0  0  0  0  0  0  0999 V2000
   36.6280   28.3660   40.1270 C   0  0  0  0  0  0  0  0  0  0  0  0
   37.2510   28.7240   41.3200 C   0  0  0  0  0  0  0  0  0  0  0  0
   37.7300   27.6940   42.1000 C   0  0  0  0  0  0  0  0  0  0  0  0
   37.5610   26.4160   41.6500 N   0  0  0  0  0  0  0  0  0  0  0  0
   36.9650   26.0930   40.5100 C   0  0  0  0  0  0  0  0  0  0  0  0
   36.4870   27.0820   39.7270 N   0  0  0  0  0  0  0  0  0  0  0  0
   36.2110   29.0760   39.4280 H   0  0  0  0  0  0  0  0  0  0  0  0
   35.8440   24.3080   39.2450 C   0  0  0  0  0  0  0  0  0  0  0  0
   36.8330   24.7050   40.1180 C   0  0  0  0  0  0  0  0  0  0  0  0
   37.7620   23.8070   40.6760 C   0  0  0  0  0  0  0  0  0  0  0  0
   37.6870   22.4590   40.3390 C   0  0  0  0  0  0  0  0  0  0  0  0
   38.3850   21.3390   40.6670 N   0  0  0  0  0  0  0  0  0  0  0  0
   37.8160   20.2860   39.9940 C   0  0  0  0  0  0  0  0  0  0  0  0
   36.7910   20.7770   39.2740 N   0  0  0  0  0  0  0  0  0  0  0  0
   36.6900   22.1010   39.4660 C   0  0  0  0  0  0  0  0  0  0  0  0
   35.7600   22.9610   38.8990 C   0  0  0  0  0  0  0  0  0  0  0  0
   35.1390   25.0050   38.8240 H   0  0  0  0  0  0  0  0  0  0  0  0
   38.5330   24.1120   41.3580 H   0  0  0  0  0  0  0  0  0  0  0  0
   39.1870   21.4300   41.3280 H   0  0  0  0  0  0  0  0  0  0  0  0
   38.2930   19.3270   40.1780 H   0  0  0  0  0  0  0  0  0  0  0  0
   35.0020   22.6010   38.2180 H   0  0  0  0  0  0  0  0  0  0  0  0
   38.4060   27.9990   43.3850 C   0  0  0  0  0  0  0  0  0  0  0  0
   39.4990   28.8510   43.1720 F   0  0  0  0  0  0  0  0  0  0  0  0
   37.5550   28.6740   44.2280 F   0  0  0  0  0  0  0  0  0  0  0  0
   38.8410   26.8190   43.9350 F   0  0  0  0  0  0  0  0  0  0  0  0
   37.3540   30.0330   41.6480 O   0  0  0  0  0  0  0  0  0  0  0  0
   37.8460   30.9790   40.7800 C   0  0  0  0  0  0  0  0  0  0  0  0
   36.7070   31.7000   40.4130 C   0  0  0  0  0  0  0  0  0  0  0  0
   37.3790   32.9690   39.2490 S   0  0  0  0  0  0  0  0  0  0  0  0
   39.1080   32.2850   39.4720 C   0  0  0  0  0  0  0  0  0  0  0  0
   38.8840   31.4700   40.1790 N   0  0  0  0  0  0  0  0  0  0  0  0
   35.5700   31.8350   40.5230 H   0  0  0  0  0  0  0  0  0  0  0  0
   40.7530   34.0840   39.1850 C   0  0  0  0  0  0  0  0  0  0  0  0
   40.3030   32.8560   38.7740 C   0  0  0  0  0  0  0  0  0  0  0  0
   40.8590   32.1000   37.7680 C   0  0  0  0  0  0  0  0  0  0  0  0
   40.4740   31.1320   37.4700 H   0  0  0  0  0  0  0  0  0  0  0  0
   41.9600   32.5990   37.1070 C   0  0  0  0  0  0  0  0  0  0  0  0
   42.4150   32.0220   36.3120 H   0  0  0  0  0  0  0  0  0  0  0  0
   42.4510   33.8350   37.4870 C   0  0  0  0  0  3  0  0  0  0  0  0
   41.8570   34.5670   38.5120 C   0  0  0  0  0  3  0  0  0  0  0  0
   39.2840   33.9610   41.2760 H   0  0  0  0  0  0  0  0  0  0  0  0
   39.9240   34.9030   40.4790 S   0  0  0  0  0  0  0  0  0  0  0  0
   40.8570   35.6250   41.4110 O   0  0  0  0  0  0  0  0  0  0  0  0
   38.8660   35.8280   39.9370 O   0  0  0  0  0  0  0  0  0  0  0  0
  1  2  1  0  0  0  0
  2 26  1  0  0  0  0
  2  3  2  0  0  0  0
  3 22  1  0  0  0  0
  4  3  1  0  0  0  0
  5  4  2  0  0  0  0
  6  1  2  0  0  0  0
  6  5  1  0  0  0  0
  7  1  1  0  0  0  0
  8  9  1  0  0  0  0
  9  5  1  0  0  0  0
  9 10  2  0  0  0  0
 10 18  1  0  0  0  0
 11 12  1  0  0  0  0
 11 10  1  0  0  0  0
 12 19  1  0  0  0  0
 13 20  1  0  0  0  0
 13 12  1  0  0  0  0
 14 15  1  0  0  0  0
 14 13  2  0  0  0  0
 15 11  2  0  0  0  0
 16  8  2  0  0  0  0
 16 15  1  0  0  0  0
 17  8  1  0  0  0  0
 21 16  1  0  0  0  0
 22 25  1  0  0  0  0
 22 24  1  0  0  0  0
 23 22  1  0  0  0  0
 27 26  1  0  0  0  0
 28 32  1  0  0  0  0
 28 27  2  0  0  0  0
 29 30  1  0  0  0  0
 29 28  1  0  0  0  0
 30 31  2  0  0  0  0
 31 27  1  0  0  0  0
 33 42  1  0  0  0  0
 34 33  1  0  0  0  0
 34 30  1  0  0  0  0
 35 34  2  0  0  0  0
 36 35  1  0  0  0  0
 37 39  2  0  0  0  0
 37 35  1  0  0  0  0
 38 37  1  0  0  0  0
 39 40  1  0  0  0  0
 40 33  2  0  0  0  0
 42 41  1  0  0  0  0
 42 43  2  0  0  0  0
 44 42  2  0  0  0  0
M  END
>  <minimizedAffinity>
-7.29555416

$$$$

 OpenBabel03242513103D

 44 48  0  0  0  0  0  0  0  0999 V2000
   38.8420   27.7480   40.3380 C   0  0  0  0  0  0  0  0  0  0  0  0
   38.4000   27.2620   41.5650 C   0  0  0  0  0  0  0  0  0  0  0  0
   37.9160   28.1920   42.4600 C   0  0  0  0  0  0  0  0  0  0  0  0
   37.9050   29.5030   42.0800 N   0  0  0  0  0  0  0  0  0  0  0  0
   38.3300   29.9490   40.9060 C   0  0  0  0  0  0  0  0  0  0  0  0
   38.8090   29.0600   40.0110 N   0  0  0  0  0  0  0  0  0  0  0  0
   39.2420   27.1250   39.5510 H   0  0  0  0  0  0  0  0  0  0  0  0
   37.2220   31.8940   39.8890 C   0  0  0  0  0  0  0  0  0  0  0  0
   38.2790   31.3630   40.5940 C   0  0  0  0  0  0  0  0  0  0  0  0
   39.3590   32.1420   41.0500 C   0  0  0  0  0  0  0  0  0  0  0  0
   39.3690   33.5070   40.7820 C   0  0  0  0  0  0  0  0  0  0  0  0
   40.2100   34.5400   41.0530 N   0  0  0  0  0  0  0  0  0  0  0  0
   39.6580   35.6750   40.5130 C   0  0  0  0  0  0  0  0  0  0  0  0
   38.5000   35.3190   39.9280 N   0  0  0  0  0  0  0  0  0  0  0  0
   38.2990   34.0010   40.0780 C   0  0  0  0  0  0  0  0  0  0  0  0
   37.2200   33.2600   39.6150 C   0  0  0  0  0  0  0  0  0  0  0  0
   36.4010   31.2870   39.5450 H   0  0  0  0  0  0  0  0  0  0  0  0
   40.1850   31.7320   41.5990 H   0  0  0  0  0  0  0  0  0  0  0  0
   41.0840   34.3420   41.5880 H   0  0  0  0  0  0  0  0  0  0  0  0
   40.2460   36.5760   40.6660 H   0  0  0  0  0  0  0  0  0  0  0  0
   36.4140   33.7230   39.0650 H   0  0  0  0  0  0  0  0  0  0  0  0
   37.4270   27.7470   43.7880 C   0  0  0  0  0  0  0  0  0  0  0  0
   37.0670   28.8530   44.5710 F   0  0  0  0  0  0  0  0  0  0  0  0
   36.2900   26.9870   43.6540 F   0  0  0  0  0  0  0  0  0  0  0  0
   38.4360   27.0520   44.4080 F   0  0  0  0  0  0  0  0  0  0  0  0
   38.4640   25.9330   41.8150 O   0  0  0  0  0  0  0  0  0  0  0  0
   37.7530   25.0070   41.0900 C   0  0  0  0  0  0  0  0  0  0  0  0
   38.6240   23.9170   41.0200 C   0  0  0  0  0  0  0  0  0  0  0  0
   37.6570   22.6780   40.0460 S   0  0  0  0  0  0  0  0  0  0  0  0
   36.2260   23.8760   39.9060 C   0  0  0  0  0  0  0  0  0  0  0  0
   36.6520   24.7250   40.4660 N   0  0  0  0  0  0  0  0  0  0  0  0
   39.6490   23.4780   41.3010 H   0  0  0  0  0  0  0  0  0  0  0  0
   34.8310   23.9780   37.8890 C   0  0  0  0  0  0  0  0  0  0  0  0
   34.9580   23.5450   39.1840 C   0  0  0  0  0  0  0  0  0  0  0  0
   34.0120   22.8280   39.8800 C   0  0  0  0  0  0  0  0  0  0  0  0
   34.1470   22.5030   40.9050 H   0  0  0  0  0  0  0  0  0  0  0  0
   32.8340   22.5080   39.2420 C   0  0  0  0  0  0  0  0  0  0  0  0
   32.0740   21.9440   39.7690 H   0  0  0  0  0  0  0  0  0  0  0  0
   32.6600   22.9230   37.9340 C   0  0  0  0  0  3  0  0  0  0  0  0
   33.6450   23.6470   37.2660 C   0  0  0  0  0  3  0  0  0  0  0  0
   37.3280   24.5210   37.7780 H   0  0  0  0  0  0  0  0  0  0  0  0
   36.1340   24.8770   37.1630 S   0  0  0  0  0  0  0  0  0  0  0  0
   36.3380   24.5480   35.7110 O   0  0  0  0  0  0  0  0  0  0  0  0
   35.9430   26.3570   37.3690 O   0  0  0  0  0  0  0  0  0  0  0  0
  1  2  1  0  0  0  0
  2 26  1  0  0  0  0
  2  3  2  0  0  0  0
  3 22  1  0  0  0  0
  4  3  1  0  0  0  0
  5  4  2  0  0  0  0
  6  1  2  0  0  0  0
  6  5  1  0  0  0  0
  7  1  1  0  0  0  0
  8  9  1  0  0  0  0
  9  5  1  0  0  0  0
  9 10  2  0  0  0  0
 10 18  1  0  0  0  0
 11 10  1  0  0  0  0
 11 12  1  0  0  0  0
 12 19  1  0  0  0  0
 13 20  1  0  0  0  0
 13 12  1  0  0  0  0
 14 15  1  0  0  0  0
 14 13  2  0  0  0  0
 15 11  2  0  0  0  0
 16  8  2  0  0  0  0
 16 15  1  0  0  0  0
 17  8  1  0  0  0  0
 21 16  1  0  0  0  0
 22 25  1  0  0  0  0
 22 23  1  0  0  0  0
 24 22  1  0  0  0  0
 27 26  1  0  0  0  0
 28 27  2  0  0  0  0
 28 32  1  0  0  0  0
 29 28  1  0  0  0  0
 30 29  1  0  0  0  0
 30 31  2  0  0  0  0
 31 27  1  0  0  0  0
 33 34  1  0  0  0  0
 34 35  2  0  0  0  0
 34 30  1  0  0  0  0
 35 36  1  0  0  0  0
 37 38  1  0  0  0  0
 37 35  1  0  0  0  0
 39 37  2  0  0  0  0
 40 33  2  0  0  0  0
 40 39  1  0  0  0  0
 42 44  2  0  0  0  0
 42 41  1  0  0  0  0
 42 33  1  0  0  0  0
 43 42  2  0  0  0  0
M  END
>  <minimizedAffinity>
-7.17948341

$$$$

 OpenBabel03242513103D

 44 48  0  0  0  0  0  0  0  0999 V2000
   40.4030   31.0340   38.4150 C   0  0  0  0  0  0  0  0  0  0  0  0
   39.1240   31.5330   38.6430 C   0  0  0  0  0  0  0  0  0  0  0  0
   39.0330   32.6730   39.4130 C   0  0  0  0  0  0  0  0  0  0  0  0
   40.1900   33.2210   39.8870 N   0  0  0  0  0  0  0  0  0  0  0  0
   41.4010   32.7310   39.6600 C   0  0  0  0  0  0  0  0  0  0  0  0
   41.5190   31.6160   38.9100 N   0  0  0  0  0  0  0  0  0  0  0  0
   40.6100   30.1500   37.8300 H   0  0  0  0  0  0  0  0  0  0  0  0
   43.8020   33.2590   39.6000 C   0  0  0  0  0  0  0  0  0  0  0  0
   42.5720   33.3850   40.2080 C   0  0  0  0  0  0  0  0  0  0  0  0
   42.3740   34.1400   41.3790 C   0  0  0  0  0  0  0  0  0  0  0  0
   43.4600   34.7920   41.9560 C   0  0  0  0  0  0  0  0  0  0  0  0
   43.6480   35.5830   43.0450 N   0  0  0  0  0  0  0  0  0  0  0  0
   44.9770   35.9250   43.0840 C   0  0  0  0  0  0  0  0  0  0  0  0
   45.5720   35.3420   42.0280 N   0  0  0  0  0  0  0  0  0  0  0  0
   44.6690   34.6450   41.3220 C   0  0  0  0  0  0  0  0  0  0  0  0
   44.8970   33.9080   40.1670 C   0  0  0  0  0  0  0  0  0  0  0  0
   43.9400   32.6780   38.7040 H   0  0  0  0  0  0  0  0  0  0  0  0
   41.4180   34.2400   41.8570 H   0  0  0  0  0  0  0  0  0  0  0  0
   42.8240   35.8000   43.6480 H   0  0  0  0  0  0  0  0  0  0  0  0
   45.2510   36.5630   43.9200 H   0  0  0  0  0  0  0  0  0  0  0  0
   45.8810   33.8400   39.7280 H   0  0  0  0  0  0  0  0  0  0  0  0
   37.7010   33.2620   39.6970 C   0  0  0  0  0  0  0  0  0  0  0  0
   36.9260   33.3060   38.5300 F   0  0  0  0  0  0  0  0  0  0  0  0
   37.0070   32.4770   40.5870 F   0  0  0  0  0  0  0  0  0  0  0  0
   37.8860   34.5350   40.1760 F   0  0  0  0  0  0  0  0  0  0  0  0
   38.0560   30.8920   38.1120 O   0  0  0  0  0  0  0  0  0  0  0  0
   37.4390   29.8340   38.7370 C   0  0  0  0  0  0  0  0  0  0  0  0
   36.0840   30.1560   38.6490 C   0  0  0  0  0  0  0  0  0  0  0  0
   35.2640   28.7280   39.4900 S   0  0  0  0  0  0  0  0  0  0  0  0
   36.9310   27.9390   39.8140 C   0  0  0  0  0  0  0  0  0  0  0  0
   37.5790   28.7010   39.3510 N   0  0  0  0  0  0  0  0  0  0  0  0
   35.2880   30.9050   38.2900 H   0  0  0  0  0  0  0  0  0  0  0  0
   37.3020   26.6620   41.8770 C   0  0  0  0  0  0  0  0  0  0  0  0
   37.0850   26.6300   40.5240 C   0  0  0  0  0  0  0  0  0  0  0  0
   36.9970   25.4900   39.7580 C   0  0  0  0  0  0  0  0  0  0  0  0
   36.8240   25.5040   38.6890 H   0  0  0  0  0  0  0  0  0  0  0  0
   37.1340   24.2700   40.3840 C   0  0  0  0  0  0  0  0  0  0  0  0
   37.0690   23.3590   39.8020 H   0  0  0  0  0  0  0  0  0  0  0  0
   37.3550   24.2520   41.7490 C   0  0  0  0  0  3  0  0  0  0  0  0
   37.4370   25.4310   42.4860 C   0  0  0  0  0  3  0  0  0  0  0  0
   36.5280   29.0940   42.0560 H   0  0  0  0  0  0  0  0  0  0  0  0
   37.3860   28.2020   42.6870 S   0  0  0  0  0  0  0  0  0  0  0  0
   36.9020   28.1440   44.1090 O   0  0  0  0  0  0  0  0  0  0  0  0
   38.7760   28.7760   42.6030 O   0  0  0  0  0  0  0  0  0  0  0  0
  1  2  2  0  0  0  0
  1  6  1  0  0  0  0
  2  3  1  0  0  0  0
  3 22  1  0  0  0  0
  3  4  2  0  0  0  0
  5  4  1  0  0  0  0
  5  9  1  0  0  0  0
  6  5  2  0  0  0  0
  7  1  1  0  0  0  0
  8 16  2  0  0  0  0
  8  9  1  0  0  0  0
  9 10  2  0  0  0  0
 10 18  1  0  0  0  0
 10 11  1  0  0  0  0
 11 12  1  0  0  0  0
 12 13  1  0  0  0  0
 12 19  1  0  0  0  0
 13 20  1  0  0  0  0
 14 13  2  0  0  0  0
 15 11  2  0  0  0  0
 15 14  1  0  0  0  0
 16 15  1  0  0  0  0
 17  8  1  0  0  0  0
 21 16  1  0  0  0  0
 22 25  1  0  0  0  0
 22 24  1  0  0  0  0
 23 22  1  0  0  0  0
 26  2  1  0  0  0  0
 26 27  1  0  0  0  0
 27 31  1  0  0  0  0
 28 27  2  0  0  0  0
 28 29  1  0  0  0  0
 29 30  1  0  0  0  0
 30 34  1  0  0  0  0
 31 30  2  0  0  0  0
 32 28  1  0  0  0  0
 33 40  1  0  0  0  0
 33 42  1  0  0  0  0
 34 33  2  0  0  0  0
 35 37  2  0  0  0  0
 35 34  1  0  0  0  0
 36 35  1  0  0  0  0
 37 39  1  0  0  0  0
 38 37  1  0  0  0  0
 39 40  2  0  0  0  0
 41 42  1  0  0  0  0
 42 43  2  0  0  0  0
 44 42  2  0  0  0  0
M  END
>  <minimizedAffinity>
-7.04643774

$$$$

 OpenBabel03242513103D

 44 48  0  0  0  0  0  0  0  0999 V2000
   39.0330   27.9180   40.0030 C   0  0  0  0  0  0  0  0  0  0  0  0
   38.6050   27.3570   41.2030 C   0  0  0  0  0  0  0  0  0  0  0  0
   38.1120   28.2270   42.1510 C   0  0  0  0  0  0  0  0  0  0  0  0
   38.0800   29.5580   41.8460 N   0  0  0  0  0  0  0  0  0  0  0  0
   38.4920   30.0750   40.6970 C   0  0  0  0  0  0  0  0  0  0  0  0
   38.9790   29.2460   39.7510 N   0  0  0  0  0  0  0  0  0  0  0  0
   39.4380   27.3470   39.1800 H   0  0  0  0  0  0  0  0  0  0  0  0
   37.3220   32.0650   39.8500 C   0  0  0  0  0  0  0  0  0  0  0  0
   38.4180   31.5030   40.4660 C   0  0  0  0  0  0  0  0  0  0  0  0
   39.5190   32.2640   40.9040 C   0  0  0  0  0  0  0  0  0  0  0  0
   39.5090   33.6420   40.7110 C   0  0  0  0  0  0  0  0  0  0  0  0
   40.3600   34.6650   40.9900 N   0  0  0  0  0  0  0  0  0  0  0  0
   39.7740   35.8230   40.5440 C   0  0  0  0  0  0  0  0  0  0  0  0
   38.5870   35.4910   40.0060 N   0  0  0  0  0  0  0  0  0  0  0  0
   38.4000   34.1660   40.0940 C   0  0  0  0  0  0  0  0  0  0  0  0
   37.3000   33.4440   39.6520 C   0  0  0  0  0  0  0  0  0  0  0  0
   36.4850   31.4710   39.5190 H   0  0  0  0  0  0  0  0  0  0  0  0
   40.3760   31.8310   41.3830 H   0  0  0  0  0  0  0  0  0  0  0  0
   41.2620   34.4430   41.4640 H   0  0  0  0  0  0  0  0  0  0  0  0
   40.3660   36.7190   40.7130 H   0  0  0  0  0  0  0  0  0  0  0  0
   36.4620   33.9300   39.1730 H   0  0  0  0  0  0  0  0  0  0  0  0
   37.6380   27.7010   43.4540 C   0  0  0  0  0  0  0  0  0  0  0  0
   38.6770   27.0350   44.1200 F   0  0  0  0  0  0  0  0  0  0  0  0
   37.2550   28.7310   44.2800 F   0  0  0  0  0  0  0  0  0  0  0  0
   36.6070   26.8260   43.2170 F   0  0  0  0  0  0  0  0  0  0  0  0
   38.6910   26.0170   41.3770 O   0  0  0  0  0  0  0  0  0  0  0  0
   38.1290   25.1180   40.5020 C   0  0  0  0  0  0  0  0  0  0  0  0
   38.9960   25.1500   39.4080 C   0  0  0  0  0  0  0  0  0  0  0  0
   38.2330   23.9370   38.2400 S   0  0  0  0  0  0  0  0  0  0  0  0
   36.8550   23.5990   39.4620 C   0  0  0  0  0  0  0  0  0  0  0  0
   37.1670   24.2800   40.2710 N   0  0  0  0  0  0  0  0  0  0  0  0
   39.9490   25.5940   38.9410 H   0  0  0  0  0  0  0  0  0  0  0  0
   36.0700   21.3000   39.1160 C   0  0  0  0  0  0  0  0  0  0  0  0
   35.7480   22.6300   39.1880 C   0  0  0  0  0  0  0  0  0  0  0  0
   34.4850   23.1540   39.0290 C   0  0  0  0  0  0  0  0  0  0  0  0
   34.2690   24.2140   39.0920 H   0  0  0  0  0  0  0  0  0  0  0  0
   33.4450   22.2870   38.7760 C   0  0  0  0  0  0  0  0  0  0  0  0
   32.4430   22.6760   38.6470 H   0  0  0  0  0  0  0  0  0  0  0  0
   33.7210   20.9340   38.6950 C   0  0  0  0  0  3  0  0  0  0  0  0
   35.0140   20.4470   38.8630 C   0  0  0  0  0  3  0  0  0  0  0  0
   38.4950   21.9370   39.6240 H   0  0  0  0  0  0  0  0  0  0  0  0
   37.7270   20.8130   39.3440 S   0  0  0  0  0  0  0  0  0  0  0  0
   37.9160   19.9120   40.5320 O   0  0  0  0  0  0  0  0  0  0  0  0
   38.2790   20.1900   38.0880 O   0  0  0  0  0  0  0  0  0  0  0  0
  1  2  1  0  0  0  0
  2 26  1  0  0  0  0
  2  3  2  0  0  0  0
  3 22  1  0  0  0  0
  4  3  1  0  0  0  0
  5  4  2  0  0  0  0
  6  1  2  0  0  0  0
  6  5  1  0  0  0  0
  7  1  1  0  0  0  0
  8  9  1  0  0  0  0
  9  5  1  0  0  0  0
  9 10  2  0  0  0  0
 10 18  1  0  0  0  0
 11 10  1  0  0  0  0
 11 12  1  0  0  0  0
 12 19  1  0  0  0  0
 13 20  1  0  0  0  0
 13 12  1  0  0  0  0
 14 15  1  0  0  0  0
 14 13  2  0  0  0  0
 15 11  2  0  0  0  0
 16  8  2  0  0  0  0
 16 15  1  0  0  0  0
 17  8  1  0  0  0  0
 21 16  1  0  0  0  0
 22 23  1  0  0  0  0
 22 24  1  0  0  0  0
 25 22  1  0  0  0  0
 27 26  1  0  0  0  0
 28 27  2  0  0  0  0
 29 28  1  0  0  0  0
 29 30  1  0  0  0  0
 30 31  2  0  0  0  0
 31 27  1  0  0  0  0
 32 28  1  0  0  0  0
 33 34  1  0  0  0  0
 33 42  1  0  0  0  0
 34 30  1  0  0  0  0
 35 36  1  0  0  0  0
 35 34  2  0  0  0  0
 37 35  1  0  0  0  0
 38 37  1  0  0  0  0
 39 37  2  0  0  0  0
 39 40  1  0  0  0  0
 40 33  2  0  0  0  0
 42 41  1  0  0  0  0
 42 43  2  0  0  0  0
 44 42  2  0  0  0  0
M  END
>  <minimizedAffinity>
-6.98182487

$$$$

 OpenBabel03242513103D

 44 48  0  0  0  0  0  0  0  0999 V2000
   36.9960   29.8340   37.0310 C   0  0  0  0  0  0  0  0  0  0  0  0
   36.3040   29.1730   38.0420 C   0  0  0  0  0  0  0  0  0  0  0  0
   36.5580   29.5810   39.3340 C   0  0  0  0  0  0  0  0  0  0  0  0
   37.4580   30.5890   39.5230 N   0  0  0  0  0  0  0  0  0  0  0  0
   38.1090   31.2080   38.5480 C   0  0  0  0  0  0  0  0  0  0  0  0
   37.8800   30.8290   37.2740 N   0  0  0  0  0  0  0  0  0  0  0  0
   36.8880   29.6110   35.9800 H   0  0  0  0  0  0  0  0  0  0  0  0
   40.2440   32.3690   38.1730 C   0  0  0  0  0  0  0  0  0  0  0  0
   39.0480   32.2690   38.8500 C   0  0  0  0  0  0  0  0  0  0  0  0
   38.6670   33.1720   39.8590 C   0  0  0  0  0  0  0  0  0  0  0  0
   39.5260   34.2130   40.1960 C   0  0  0  0  0  0  0  0  0  0  0  0
   39.4990   35.2410   41.0850 N   0  0  0  0  0  0  0  0  0  0  0  0
   40.6680   35.9460   40.9380 C   0  0  0  0  0  0  0  0  0  0  0  0
   41.3810   35.3420   39.9700 N   0  0  0  0  0  0  0  0  0  0  0  0
   40.7070   34.2820   39.5000 C   0  0  0  0  0  0  0  0  0  0  0  0
   41.1120   33.4080   38.5000 C   0  0  0  0  0  0  0  0  0  0  0  0
   40.5250   31.6710   37.4010 H   0  0  0  0  0  0  0  0  0  0  0  0
   37.7370   33.0970   40.3900 H   0  0  0  0  0  0  0  0  0  0  0  0
   38.6630   35.3420   41.7020 H   0  0  0  0  0  0  0  0  0  0  0  0
   40.7620   36.8010   41.6020 H   0  0  0  0  0  0  0  0  0  0  0  0
   42.0610   33.5290   37.9980 H   0  0  0  0  0  0  0  0  0  0  0  0
   35.8560   28.9220   40.4620 C   0  0  0  0  0  0  0  0  0  0  0  0
   36.3320   29.4110   41.6870 F   0  0  0  0  0  0  0  0  0  0  0  0
   34.5130   29.2140   40.4320 F   0  0  0  0  0  0  0  0  0  0  0  0
   36.0870   27.5710   40.3850 F   0  0  0  0  0  0  0  0  0  0  0  0
   35.4350   28.1880   37.7160 O   0  0  0  0  0  0  0  0  0  0  0  0
   34.1330   28.4370   37.3490 C   0  0  0  0  0  0  0  0  0  0  0  0
   33.8440   27.3960   36.4650 C   0  0  0  0  0  0  0  0  0  0  0  0
   32.0940   27.7400   35.9790 S   0  0  0  0  0  0  0  0  0  0  0  0
   32.0670   29.2550   37.0780 C   0  0  0  0  0  0  0  0  0  0  0  0
   33.0950   29.2040   37.4730 N   0  0  0  0  0  0  0  0  0  0  0  0
   34.2180   26.4490   35.9280 H   0  0  0  0  0  0  0  0  0  0  0  0
   30.5220   30.9180   36.1440 C   0  0  0  0  0  0  0  0  0  0  0  0
   30.8650   30.1370   37.2170 C   0  0  0  0  0  0  0  0  0  0  0  0
   30.1950   30.0930   38.4180 C   0  0  0  0  0  0  0  0  0  0  0  0
   30.4970   29.4620   39.2450 H   0  0  0  0  0  0  0  0  0  0  0  0
   29.0850   30.8930   38.5760 C   0  0  0  0  0  0  0  0  0  0  0  0
   28.5410   30.8770   39.5120 H   0  0  0  0  0  0  0  0  0  0  0  0
   28.6990   31.7000   37.5200 C   0  0  0  0  0  3  0  0  0  0  0  0
   29.4070   31.7120   36.3210 C   0  0  0  0  0  3  0  0  0  0  0  0
   32.6640   30.1570   34.9700 H   0  0  0  0  0  0  0  0  0  0  0  0
   31.4880   30.8460   34.6970 S   0  0  0  0  0  0  0  0  0  0  0  0
   30.8340   30.0650   33.5920 O   0  0  0  0  0  0  0  0  0  0  0  0
   31.8710   32.2290   34.2390 O   0  0  0  0  0  0  0  0  0  0  0  0
  1  6  2  0  0  0  0
  1  2  1  0  0  0  0
  2  3  2  0  0  0  0
  3  4  1  0  0  0  0
  3 22  1  0  0  0  0
  5  9  1  0  0  0  0
  5  4  2  0  0  0  0
  6  5  1  0  0  0  0
  7  1  1  0  0  0  0
  8 16  2  0  0  0  0
  8  9  1  0  0  0  0
  9 10  2  0  0  0  0
 10 11  1  0  0  0  0
 10 18  1  0  0  0  0
 11 12  1  0  0  0  0
 12 19  1  0  0  0  0
 13 12  1  0  0  0  0
 13 20  1  0  0  0  0
 14 13  2  0  0  0  0
 15 14  1  0  0  0  0
 15 11  2  0  0  0  0
 16 15  1  0  0  0  0
 17  8  1  0  0  0  0
 21 16  1  0  0  0  0
 22 23  1  0  0  0  0
 24 22  1  0  0  0  0
 25 22  1  0  0  0  0
 26  2  1  0  0  0  0
 27 31  1  0  0  0  0
 27 26  1  0  0  0  0
 28 27  2  0  0  0  0
 29 28  1  0  0  0  0
 29 30  1  0  0  0  0
 30 34  1  0  0  0  0
 30 31  2  0  0  0  0
 32 28  1  0  0  0  0
 33 40  2  0  0  0  0
 33 34  1  0  0  0  0
 34 35  2  0  0  0  0
 35 37  1  0  0  0  0
 35 36  1  0  0  0  0
 37 38  1  0  0  0  0
 39 37  2  0  0  0  0
 40 39  1  0  0  0  0
 42 41  1  0  0  0  0
 42 33  1  0  0  0  0
 43 42  2  0  0  0  0
 44 42  2  0  0  0  0
M  END
>  <minimizedAffinity>
-6.83992529

$$$$

 OpenBabel03242513103D

 44 48  0  0  0  0  0  0  0  0999 V2000
   36.9080   30.3390   36.8590 C   0  0  0  0  0  0  0  0  0  0  0  0
   36.0820   29.5390   37.6440 C   0  0  0  0  0  0  0  0  0  0  0  0
   36.0710   29.8030   38.9960 C   0  0  0  0  0  0  0  0  0  0  0  0
   36.8610   30.8150   39.4600 N   0  0  0  0  0  0  0  0  0  0  0  0
   37.6420   31.5670   38.6960 C   0  0  0  0  0  0  0  0  0  0  0  0
   37.6720   31.3310   37.3690 N   0  0  0  0  0  0  0  0  0  0  0  0
   37.0070   30.2350   35.7880 H   0  0  0  0  0  0  0  0  0  0  0  0
   37.8600   33.7610   39.7850 C   0  0  0  0  0  0  0  0  0  0  0  0
   38.4460   32.6210   39.2820 C   0  0  0  0  0  0  0  0  0  0  0  0
   39.8370   32.4070   39.3010 C   0  0  0  0  0  0  0  0  0  0  0  0
   40.6640   33.3820   39.8500 C   0  0  0  0  0  0  0  0  0  0  0  0
   42.0030   33.5220   40.0370 N   0  0  0  0  0  0  0  0  0  0  0  0
   42.2110   34.7350   40.6470 C   0  0  0  0  0  0  0  0  0  0  0  0
   41.0070   35.3080   40.8190 N   0  0  0  0  0  0  0  0  0  0  0  0
   40.0450   34.5040   40.3420 C   0  0  0  0  0  0  0  0  0  0  0  0
   38.6780   34.7450   40.3380 C   0  0  0  0  0  0  0  0  0  0  0  0
   36.7930   33.9140   39.7640 H   0  0  0  0  0  0  0  0  0  0  0  0
   40.2980   31.5210   38.9090 H   0  0  0  0  0  0  0  0  0  0  0  0
   42.6320   32.7520   39.7190 H   0  0  0  0  0  0  0  0  0  0  0  0
   43.2550   34.9610   40.8510 H   0  0  0  0  0  0  0  0  0  0  0  0
   38.2650   35.6570   40.7450 H   0  0  0  0  0  0  0  0  0  0  0  0
   35.2150   28.9910   39.8950 C   0  0  0  0  0  0  0  0  0  0  0  0
   35.4520   29.3300   41.2350 F   0  0  0  0  0  0  0  0  0  0  0  0
   33.8860   29.2560   39.6650 F   0  0  0  0  0  0  0  0  0  0  0  0
   35.5140   27.6660   39.6960 F   0  0  0  0  0  0  0  0  0  0  0  0
   35.3470   28.5660   37.0560 O   0  0  0  0  0  0  0  0  0  0  0  0
   34.1870   28.8270   36.3650 C   0  0  0  0  0  0  0  0  0  0  0  0
   33.9890   27.6640   35.6200 C   0  0  0  0  0  0  0  0  0  0  0  0
   32.4280   28.0250   34.6960 S   0  0  0  0  0  0  0  0  0  0  0  0
   32.3230   29.7130   35.4980 C   0  0  0  0  0  0  0  0  0  0  0  0
   33.2310   29.6690   36.1210 N   0  0  0  0  0  0  0  0  0  0  0  0
   34.3700   26.6130   35.3450 H   0  0  0  0  0  0  0  0  0  0  0  0
   30.1390   30.6820   36.0580 C   0  0  0  0  0  0  0  0  0  0  0  0
   31.2170   30.6800   35.2120 C   0  0  0  0  0  0  0  0  0  0  0  0
   31.3690   31.4950   34.1140 C   0  0  0  0  0  0  0  0  0  0  0  0
   32.2370   31.4640   33.4660 H   0  0  0  0  0  0  0  0  0  0  0  0
   30.3680   32.3960   33.8250 C   0  0  0  0  0  0  0  0  0  0  0  0
   30.4640   33.0480   32.9660 H   0  0  0  0  0  0  0  0  0  0  0  0
   29.2590   32.4350   34.6510 C   0  0  0  0  0  3  0  0  0  0  0  0
   29.1460   31.5910   35.7530 C   0  0  0  0  0  3  0  0  0  0  0  0
   30.8510   28.4450   37.0760 H   0  0  0  0  0  0  0  0  0  0  0  0
   30.1130   29.5760   37.4040 S   0  0  0  0  0  0  0  0  0  0  0  0
   30.7830   30.1290   38.6310 O   0  0  0  0  0  0  0  0  0  0  0  0
   28.7060   29.1270   37.7010 O   0  0  0  0  0  0  0  0  0  0  0  0
  1  6  2  0  0  0  0
  1  2  1  0  0  0  0
  2  3  2  0  0  0  0
  3  4  1  0  0  0  0
  3 22  1  0  0  0  0
  5  9  1  0  0  0  0
  5  4  2  0  0  0  0
  6  5  1  0  0  0  0
  7  1  1  0  0  0  0
  8 16  1  0  0  0  0
  9 10  1  0  0  0  0
  9  8  2  0  0  0  0
 10 11  2  0  0  0  0
 11 12  1  0  0  0  0
 11 15  1  0  0  0  0
 12 13  1  0  0  0  0
 13 14  2  0  0  0  0
 13 20  1  0  0  0  0
 15 14  1  0  0  0  0
 16 15  2  0  0  0  0
 16 21  1  0  0  0  0
 17  8  1  0  0  0  0
 18 10  1  0  0  0  0
 19 12  1  0  0  0  0
 22 23  1  0  0  0  0
 24 22  1  0  0  0  0
 25 22  1  0  0  0  0
 26  2  1  0  0  0  0
 27 26  1  0  0  0  0
 28 27  2  0  0  0  0
 29 30  1  0  0  0  0
 29 28  1  0  0  0  0
 30 31  2  0  0  0  0
 31 27  1  0  0  0  0
 32 28  1  0  0  0  0
 33 42  1  0  0  0  0
 34 30  1  0  0  0  0
 34 33  2  0  0  0  0
 35 34  1  0  0  0  0
 36 35  1  0  0  0  0
 37 35  2  0  0  0  0
 37 39  1  0  0  0  0
 38 37  1  0  0  0  0
 39 40  2  0  0  0  0
 40 33  1  0  0  0  0
 41 42  1  0  0  0  0
 42 44  2  0  0  0  0
 42 43  2  0  0  0  0
M  END
>  <minimizedAffinity>
-6.79143524

$$$$

 OpenBabel03242513103D

 44 48  0  0  0  0  0  0  0  0999 V2000
   36.8300   28.4110   40.0580 C   0  0  0  0  0  0  0  0  0  0  0  0
   37.0960   28.7430   41.3830 C   0  0  0  0  0  0  0  0  0  0  0  0
   37.2690   27.6950   42.2610 C   0  0  0  0  0  0  0  0  0  0  0  0
   37.1680   26.4240   41.7710 N   0  0  0  0  0  0  0  0  0  0  0  0
   36.9140   26.1260   40.5040 C   0  0  0  0  0  0  0  0  0  0  0  0
   36.7400   27.1330   39.6240 N   0  0  0  0  0  0  0  0  0  0  0  0
   36.6760   29.1370   39.2730 H   0  0  0  0  0  0  0  0  0  0  0  0
   35.9250   24.3590   39.1100 C   0  0  0  0  0  0  0  0  0  0  0  0
   36.8250   24.7440   40.0790 C   0  0  0  0  0  0  0  0  0  0  0  0
   37.7000   23.8390   40.7080 C   0  0  0  0  0  0  0  0  0  0  0  0
   37.6630   22.4970   40.3440 C   0  0  0  0  0  0  0  0  0  0  0  0
   38.3310   21.3740   40.7190 N   0  0  0  0  0  0  0  0  0  0  0  0
   37.8330   20.3300   39.9780 C   0  0  0  0  0  0  0  0  0  0  0  0
   36.8790   20.8300   39.1730 N   0  0  0  0  0  0  0  0  0  0  0  0
   36.7550   22.1500   39.3750 C   0  0  0  0  0  0  0  0  0  0  0  0
   35.8790   23.0170   38.7360 C   0  0  0  0  0  0  0  0  0  0  0  0
   35.2600   25.0610   38.6350 H   0  0  0  0  0  0  0  0  0  0  0  0
   38.4020   24.1350   41.4650 H   0  0  0  0  0  0  0  0  0  0  0  0
   39.0670   21.4560   41.4540 H   0  0  0  0  0  0  0  0  0  0  0  0
   38.2950   19.3690   40.1910 H   0  0  0  0  0  0  0  0  0  0  0  0
   35.1910   22.6660   37.9810 H   0  0  0  0  0  0  0  0  0  0  0  0
   37.5560   27.9730   43.6890 C   0  0  0  0  0  0  0  0  0  0  0  0
   38.5390   27.0970   44.1700 F   0  0  0  0  0  0  0  0  0  0  0  0
   38.0660   29.2410   43.8410 F   0  0  0  0  0  0  0  0  0  0  0  0
   36.3960   27.8010   44.4040 F   0  0  0  0  0  0  0  0  0  0  0  0
   37.1720   30.0470   41.7380 O   0  0  0  0  0  0  0  0  0  0  0  0
   38.1270   30.8990   41.2360 C   0  0  0  0  0  0  0  0  0  0  0  0
   37.3760   31.9560   40.7200 C   0  0  0  0  0  0  0  0  0  0  0  0
   38.6700   33.0950   40.0500 S   0  0  0  0  0  0  0  0  0  0  0  0
   40.0170   31.9160   40.5980 C   0  0  0  0  0  0  0  0  0  0  0  0
   39.3890   31.1280   41.0470 N   0  0  0  0  0  0  0  0  0  0  0  0
   36.3320   32.4050   40.5410 H   0  0  0  0  0  0  0  0  0  0  0  0
   42.0030   31.8510   39.1570 C   0  0  0  0  0  0  0  0  0  0  0  0
   41.4720   32.1870   40.3750 C   0  0  0  0  0  0  0  0  0  0  0  0
   42.1670   32.7550   41.4180 C   0  0  0  0  0  0  0  0  0  0  0  0
   41.7130   33.0070   42.3690 H   0  0  0  0  0  0  0  0  0  0  0  0
   43.5090   33.0160   41.2440 C   0  0  0  0  0  0  0  0  0  0  0  0
   44.0770   33.4630   42.0500 H   0  0  0  0  0  0  0  0  0  0  0  0
   44.0890   32.6940   40.0310 C   0  0  0  0  0  3  0  0  0  0  0  0
   43.3480   32.1200   39.0010 C   0  0  0  0  0  3  0  0  0  0  0  0
   39.9180   30.4850   38.5790 H   0  0  0  0  0  0  0  0  0  0  0  0
   40.9720   31.1370   37.9490 S   0  0  0  0  0  0  0  0  0  0  0  0
   40.3160   32.1560   37.0600 O   0  0  0  0  0  0  0  0  0  0  0  0
   41.7220   30.1080   37.1440 O   0  0  0  0  0  0  0  0  0  0  0  0
  1  2  1  0  0  0  0
  2 26  1  0  0  0  0
  2  3  2  0  0  0  0
  3 22  1  0  0  0  0
  4  3  1  0  0  0  0
  5  4  2  0  0  0  0
  6  1  2  0  0  0  0
  6  5  1  0  0  0  0
  7  1  1  0  0  0  0
  8  9  1  0  0  0  0
  9  5  1  0  0  0  0
  9 10  2  0  0  0  0
 10 18  1  0  0  0  0
 11 10  1  0  0  0  0
 11 12  1  0  0  0  0
 12 19  1  0  0  0  0
 13 20  1  0  0  0  0
 13 12  1  0  0  0  0
 14 15  1  0  0  0  0
 14 13  2  0  0  0  0
 15 11  2  0  0  0  0
 16  8  2  0  0  0  0
 16 15  1  0  0  0  0
 17  8  1  0  0  0  0
 21 16  1  0  0  0  0
 22 24  1  0  0  0  0
 22 23  1  0  0  0  0
 22 25  1  0  0  0  0
 27 26  1  0  0  0  0
 28 27  2  0  0  0  0
 29 30  1  0  0  0  0
 29 28  1  0  0  0  0
 30 31  2  0  0  0  0
 31 27  1  0  0  0  0
 32 28  1  0  0  0  0
 33 34  1  0  0  0  0
 34 30  1  0  0  0  0
 34 35  2  0  0  0  0
 35 36  1  0  0  0  0
 37 35  1  0  0  0  0
 37 38  1  0  0  0  0
 39 37  2  0  0  0  0
 40 33  2  0  0  0  0
 40 39  1  0  0  0  0
 42 41  1  0  0  0  0
 42 33  1  0  0  0  0
 43 42  2  0  0  0  0
 44 42  2  0  0  0  0
M  END
>  <minimizedAffinity>
-6.7543993

$$$$

 OpenBabel03242513103D

 44 48  0  0  0  0  0  0  0  0999 V2000
   39.0090   31.1330   42.0410 C   0  0  0  0  0  0  0  0  0  0  0  0
   38.4880   31.8130   40.9440 C   0  0  0  0  0  0  0  0  0  0  0  0
   37.8450   31.0500   39.9930 C   0  0  0  0  0  0  0  0  0  0  0  0
   37.7680   29.7020   40.1960 N   0  0  0  0  0  0  0  0  0  0  0  0
   38.2710   29.0710   41.2480 C   0  0  0  0  0  0  0  0  0  0  0  0
   38.9060   29.7930   42.1940 N   0  0  0  0  0  0  0  0  0  0  0  0
   39.5340   31.6140   42.8540 H   0  0  0  0  0  0  0  0  0  0  0  0
   38.8250   26.9440   42.3510 C   0  0  0  0  0  0  0  0  0  0  0  0
   38.1390   27.6340   41.3750 C   0  0  0  0  0  0  0  0  0  0  0  0
   37.2830   27.0020   40.4540 C   0  0  0  0  0  0  0  0  0  0  0  0
   37.1150   25.6220   40.5230 C   0  0  0  0  0  0  0  0  0  0  0  0
   36.3970   24.6990   39.8300 N   0  0  0  0  0  0  0  0  0  0  0  0
   36.6530   23.4720   40.3900 C   0  0  0  0  0  0  0  0  0  0  0  0
   37.5140   23.6650   41.4040 N   0  0  0  0  0  0  0  0  0  0  0  0
   37.8120   24.9690   41.5080 C   0  0  0  0  0  0  0  0  0  0  0  0
   38.6640   25.5630   42.4310 C   0  0  0  0  0  0  0  0  0  0  0  0
   39.4780   27.4400   43.0500 H   0  0  0  0  0  0  0  0  0  0  0  0
   36.7480   27.5350   39.6910 H   0  0  0  0  0  0  0  0  0  0  0  0
   35.8020   25.0260   39.0380 H   0  0  0  0  0  0  0  0  0  0  0  0
   36.1300   22.6450   39.9150 H   0  0  0  0  0  0  0  0  0  0  0  0
   39.1790   24.9780   43.1780 H   0  0  0  0  0  0  0  0  0  0  0  0
   37.2640   31.7060   38.7960 C   0  0  0  0  0  0  0  0  0  0  0  0
   38.2800   32.0980   37.9120 F   0  0  0  0  0  0  0  0  0  0  0  0
   36.4730   30.8240   38.0990 F   0  0  0  0  0  0  0  0  0  0  0  0
   36.5600   32.8100   39.2070 F   0  0  0  0  0  0  0  0  0  0  0  0
   38.6320   33.1560   40.8650 O   0  0  0  0  0  0  0  0  0  0  0  0
   39.8060   33.7540   40.4710 C   0  0  0  0  0  0  0  0  0  0  0  0
   39.4510   35.0970   40.3310 C   0  0  0  0  0  0  0  0  0  0  0  0
   41.0350   35.8910   39.8040 S   0  0  0  0  0  0  0  0  0  0  0  0
   41.9080   34.2360   39.8690 C   0  0  0  0  0  0  0  0  0  0  0  0
   41.0620   33.6040   40.1850 N   0  0  0  0  0  0  0  0  0  0  0  0
   38.6220   35.8920   40.4010 H   0  0  0  0  0  0  0  0  0  0  0  0
   44.2620   34.1880   40.5600 C   0  0  0  0  0  0  0  0  0  0  0  0
   43.3580   34.0700   39.5370 C   0  0  0  0  0  0  0  0  0  0  0  0
   43.6720   33.8100   38.2230 C   0  0  0  0  0  0  0  0  0  0  0  0
   42.9280   33.7230   37.4400 H   0  0  0  0  0  0  0  0  0  0  0  0
   44.9980   33.6510   37.8860 C   0  0  0  0  0  0  0  0  0  0  0  0
   45.2700   33.4460   36.8590 H   0  0  0  0  0  0  0  0  0  0  0  0
   45.9480   33.7620   38.8860 C   0  0  0  0  0  3  0  0  0  0  0  0
   45.5860   34.0260   40.2040 C   0  0  0  0  0  3  0  0  0  0  0  0
   42.3910   34.0320   42.2970 H   0  0  0  0  0  0  0  0  0  0  0  0
   43.6850   34.5210   42.1700 S   0  0  0  0  0  0  0  0  0  0  0  0
   44.4720   33.8100   43.2350 O   0  0  0  0  0  0  0  0  0  0  0  0
   43.6340   36.0060   42.4230 O   0  0  0  0  0  0  0  0  0  0  0  0
  1  6  1  0  0  0  0
  1  7  1  0  0  0  0
  2  1  2  0  0  0  0
  3  4  2  0  0  0  0
  3  2  1  0  0  0  0
  4  5  1  0  0  0  0
  5  9  1  0  0  0  0
  5  6  2  0  0  0  0
  8 16  1  0  0  0  0
  8 17  1  0  0  0  0
  9  8  2  0  0  0  0
 10 11  2  0  0  0  0
 10  9  1  0  0  0  0
 11 15  1  0  0  0  0
 12 13  1  0  0  0  0
 12 11  1  0  0  0  0
 13 14  2  0  0  0  0
 14 15  1  0  0  0  0
 15 16  2  0  0  0  0
 16 21  1  0  0  0  0
 18 10  1  0  0  0  0
 19 12  1  0  0  0  0
 20 13  1  0  0  0  0
 22 25  1  0  0  0  0
 22  3  1  0  0  0  0
 23 22  1  0  0  0  0
 24 22  1  0  0  0  0
 26  2  1  0  0  0  0
 27 26  1  0  0  0  0
 28 32  1  0  0  0  0
 28 27  2  0  0  0  0
 29 30  1  0  0  0  0
 29 28  1  0  0  0  0
 30 31  2  0  0  0  0
 31 27  1  0  0  0  0
 33 42  1  0  0  0  0
 34 30  1  0  0  0  0
 34 33  2  0  0  0  0
 35 34  1  0  0  0  0
 36 35  1  0  0  0  0
 37 35  2  0  0  0  0
 37 39  1  0  0  0  0
 38 37  1  0  0  0  0
 39 40  2  0  0  0  0
 40 33  1  0  0  0  0
 42 41  1  0  0  0  0
 42 44  2  0  0  0  0
 42 43  2  0  0  0  0
M  END
>  <minimizedAffinity>
-6.72819233

$$$$
