
 OpenBabel03252506343D

 36 38  0  0  1  0  0  0  0  0999 V2000
   44.4710   35.7500   44.9660 C   0  0  0  0  0  0  0  0  0  0  0  0
   45.1380   35.7370   43.7300 C   0  0  0  0  0  0  0  0  0  0  0  0
   46.0580   34.7630   43.4960 C   0  0  0  0  0  0  0  0  0  0  0  0
   46.2660   33.8680   44.4850 N   0  0  0  0  0  0  0  0  0  0  0  0
   45.6360   33.8810   45.6560 C   0  0  0  0  0  0  0  0  0  0  0  0
   44.7190   34.8220   45.9320 N   0  0  0  0  0  0  0  0  0  0  0  0
   45.9530   32.8800   46.6110 N   0  0  0  0  0  0  0  0  0  0  0  0
   45.1480   32.5700   47.7900 C   0  0  0  0  0  0  0  0  0  0  0  0
   46.2360   32.2840   48.8180 C   0  0  0  0  0  0  0  0  0  0  0  0
   47.5370   32.1590   48.0710 C   0  0  0  0  0  0  0  0  0  0  0  0
   47.0880   31.9840   46.6370 C   0  0  1  0  0  0  0  0  0  0  0  0
   43.7190   36.4990   45.2290 H   0  0  0  0  0  0  0  0  0  0  0  0
   46.5390   34.7830   42.5540 H   0  0  0  0  0  0  0  0  0  0  0  0
   44.4830   31.7080   47.6270 H   0  0  0  0  0  0  0  0  0  0  0  0
   44.5910   33.4450   48.1570 H   0  0  0  0  0  0  0  0  0  0  0  0
   45.9880   31.3120   49.2860 H   0  0  0  0  0  0  0  0  0  0  0  0
   46.2490   33.0280   49.6290 H   0  0  0  0  0  0  0  0  0  0  0  0
   48.1420   31.2870   48.4250 H   0  0  0  0  0  0  0  0  0  0  0  0
   48.0780   33.1180   48.1890 H   0  0  0  0  0  0  0  0  0  0  0  0
   47.9140   32.3170   46.0000 H   0  0  0  0  0  0  0  0  0  0  0  0
   44.7430   36.7950   42.8520 N   0  0  0  0  0  0  0  0  0  0  0  0
   43.8010   37.0200   42.4990 H   0  0  0  0  0  0  0  0  0  0  0  0
   45.6640   37.2760   42.6670 H   0  0  0  0  0  0  0  0  0  0  0  0
   46.5990   30.2650   46.4090 S   0  0  0  0  0  0  0  0  0  0  0  0
   47.2910   29.0860   43.9230 C   0  0  0  0  0  0  0  0  0  0  0  0
   46.4250   29.8330   44.6880 C   0  0  0  0  0  0  0  0  0  0  0  0
   45.2590   30.3420   44.1080 C   0  0  0  0  0  0  0  0  0  0  0  0
   44.5190   30.9430   44.6350 H   0  0  0  0  0  0  0  0  0  0  0  0
   44.9960   30.0840   42.7740 C   0  0  0  0  0  0  0  0  0  0  0  0
   44.0980   30.4690   42.3100 H   0  0  0  0  0  0  0  0  0  0  0  0
   45.8520   29.3370   42.0000 C   0  0  0  0  0  3  0  0  0  0  0  0
   46.9960   28.8460   42.5940 C   0  0  0  0  0  3  0  0  0  0  0  0
   48.3790   28.0850   46.0130 H   0  0  0  0  0  0  0  0  0  0  0  0
   48.7110   28.5050   44.7560 S   0  0  0  0  0  0  0  0  0  0  0  0
   49.2460   27.2850   44.0200 O   0  0  0  0  0  0  0  0  0  0  0  0
   49.8330   29.4940   44.7570 O   0  0  0  0  0  0  0  0  0  0  0  0
  1 12  1  0  0  0  0
  1  6  1  0  0  0  0
  2  1  2  0  0  0  0
  3  2  1  0  0  0  0
  3  4  2  0  0  0  0
  4  5  1  0  0  0  0
  5  6  2  0  0  0  0
  5  7  1  0  0  0  0
  7 11  1  0  0  0  0
  7  8  1  0  0  0  0
  8 15  1  0  0  0  0
  8  9  1  0  0  0  0
  9 16  1  0  0  0  0
  9 17  1  0  0  0  0
 10 19  1  0  0  0  0
 10 18  1  0  0  0  0
 10  9  1  0  0  0  0
 11 20  1  6  0  0  0
 11 10  1  0  0  0  0
 13  3  1  0  0  0  0
 14  8  1  0  0  0  0
 21  2  1  0  0  0  0
 22 21  1  0  0  0  0
 23 21  1  0  0  0  0
 24 11  1  0  0  0  0
 25 26  1  0  0  0  0
 25 34  1  0  0  0  0
 26 24  1  0  0  0  0
 27 28  1  0  0  0  0
 27 26  2  0  0  0  0
 29 27  1  0  0  0  0
 30 29  1  0  0  0  0
 31 32  1  0  0  0  0
 31 29  2  0  0  0  0
 32 25  2  0  0  0  0
 34 36  2  0  0  0  0
 34 33  1  0  0  0  0
 35 34  2  0  0  0  0
M  END
>  <minimizedAffinity>
-4.70708799

>  <minimizedRMSD>
0.773134708

$$$$
