
 OpenBabel03252505513D

 28 29  0  0  0  0  0  0  0  0999 V2000
   46.1720   32.2130   48.2770 C   0  0  0  0  0  0  0  0  0  0  0  0
   46.0700   32.3120   49.3740 H   0  0  0  0  0  0  0  0  0  0  0  0
   47.1960   32.5450   47.9410 H   0  0  0  0  0  0  0  0  0  0  0  0
   47.2460   30.0460   47.9730 C   0  0  0  0  0  0  0  0  0  0  0  0
   46.0660   30.7790   47.9100 C   0  0  0  0  0  0  0  0  0  0  0  0
   44.8990   30.1600   47.5150 C   0  0  0  0  0  0  0  0  0  0  0  0
   44.0160   30.8190   47.4970 H   0  0  0  0  0  0  0  0  0  0  0  0
   44.8150   28.8290   47.1690 C   0  0  0  0  0  0  0  0  0  0  0  0
   43.8730   28.3920   46.8660 H   0  0  0  0  0  0  0  0  0  0  0  0
   45.9850   28.0650   47.2230 C   0  0  0  0  0  3  0  0  0  0  0  0
   47.1330   28.7150   47.6210 C   0  0  0  0  0  3  0  0  0  0  0  0
   49.0010   31.8740   48.0120 H   0  0  0  0  0  0  0  0  0  0  0  0
   48.8110   30.6120   48.4410 S   0  0  0  0  0  0  0  0  0  0  0  0
   49.9140   29.7700   47.8600 O   0  0  0  0  0  0  0  0  0  0  0  0
   48.9530   30.5620   49.9570 O   0  0  0  0  0  0  0  0  0  0  0  0
   45.1670   33.0160   47.6860 O   0  0  0  0  0  0  0  0  0  0  0  0
   44.7210   35.3660   45.0520 C   0  0  0  0  0  0  0  0  0  0  0  0
   45.5990   34.9300   44.0660 C   0  0  0  0  0  0  0  0  0  0  0  0
   46.3660   33.7800   44.3370 C   0  0  0  0  0  0  0  0  0  0  0  0
   46.2150   33.1600   45.5310 N   0  0  0  0  0  0  0  0  0  0  0  0
   45.3440   33.6260   46.4570 C   0  0  0  0  0  0  0  0  0  0  0  0
   44.6080   34.7110   46.2230 N   0  0  0  0  0  0  0  0  0  0  0  0
   44.1250   36.2310   44.8810 H   0  0  0  0  0  0  0  0  0  0  0  0
   47.0440   33.4540   43.5610 H   0  0  0  0  0  0  0  0  0  0  0  0
   45.6710   35.7070   42.7880 C   0  0  0  0  0  0  0  0  0  0  0  0
   45.2660   36.9800   43.1280 F   0  0  0  0  0  0  0  0  0  0  0  0
   44.7850   35.1180   41.9130 F   0  0  0  0  0  0  0  0  0  0  0  0
   46.9670   35.6490   42.3220 F   0  0  0  0  0  0  0  0  0  0  0  0
  1  2  1  0  0  0  0
  3  1  1  0  0  0  0
  4 13  1  0  0  0  0
  5  4  1  0  0  0  0
  5  1  1  0  0  0  0
  6  5  2  0  0  0  0
  7  6  1  0  0  0  0
  8 10  2  0  0  0  0
  8  6  1  0  0  0  0
  9  8  1  0  0  0  0
 10 11  1  0  0  0  0
 11  4  2  0  0  0  0
 12 13  1  0  0  0  0
 13 15  2  0  0  0  0
 14 13  2  0  0  0  0
 16  1  1  0  0  0  0
 17 22  1  0  0  0  0
 18 19  1  0  0  0  0
 18 17  2  0  0  0  0
 19 20  2  0  0  0  0
 20 21  1  0  0  0  0
 21 16  1  0  0  0  0
 22 21  2  0  0  0  0
 23 17  1  0  0  0  0
 24 19  1  0  0  0  0
 25 26  1  0  0  0  0
 25 18  1  0  0  0  0
 27 25  1  0  0  0  0
 28 25  1  0  0  0  0
M  END
>  <minimizedAffinity>
-5.27417088

>  <minimizedRMSD>
1.55151069

$$$$
