
 OpenBabel03252506093D

 33 35  0  0  0  0  0  0  0  0999 V2000
   45.3320   33.2020   41.1190 F   0  0  0  0  0  0  0  0  0  0  0  0
   46.4490   33.9050   40.9500 C   0  0  0  0  0  0  0  0  0  0  0  0
   46.8950   34.7590   41.9480 C   0  0  0  0  0  0  0  0  0  0  0  0
   48.0390   35.5100   41.8310 C   0  0  0  0  0  0  0  0  0  0  0  0
   48.8070   35.4330   40.6700 C   0  0  0  0  0  0  0  0  0  0  0  0
   48.3230   34.5650   39.6940 C   0  0  0  0  0  0  0  0  0  0  0  0
   47.1810   33.8030   39.7890 C   0  0  0  0  0  0  0  0  0  0  0  0
   48.3580   36.1680   42.6330 H   0  0  0  0  0  0  0  0  0  0  0  0
   49.6960   36.0040   40.5560 H   0  0  0  0  0  0  0  0  0  0  0  0
   48.9400   34.5240   38.8010 H   0  0  0  0  0  0  0  0  0  0  0  0
   45.4940   34.0210   45.2710 C   0  0  0  0  0  0  0  0  0  0  0  0
   44.6650   35.1320   45.4910 C   0  0  0  0  0  0  0  0  0  0  0  0
   44.5850   36.1420   44.4950 C   0  0  0  0  0  0  0  0  0  0  0  0
   45.3390   35.9530   43.3680 N   0  0  0  0  0  0  0  0  0  0  0  0
   46.1200   34.8760   43.1920 C   0  0  0  0  0  0  0  0  0  0  0  0
   46.1900   33.9280   44.1380 N   0  0  0  0  0  0  0  0  0  0  0  0
   44.0720   35.2730   46.3880 H   0  0  0  0  0  0  0  0  0  0  0  0
   43.9620   37.0150   44.6170 H   0  0  0  0  0  0  0  0  0  0  0  0
   45.5600   33.0310   46.2690 N   0  0  0  0  0  0  0  0  0  0  0  0
   44.8640   32.9810   47.0430 H   0  0  0  0  0  0  0  0  0  0  0  0
   46.2890   32.2980   46.3070 H   0  0  0  0  0  0  0  0  0  0  0  0
   47.1730   31.6130   38.5650 C   0  0  0  0  0  0  0  0  0  0  0  0
   46.7870   32.9300   38.6870 C   0  0  0  0  0  0  0  0  0  0  0  0
   45.9640   33.4630   37.6900 C   0  0  0  0  0  0  0  0  0  0  0  0
   45.6430   34.5120   37.7670 H   0  0  0  0  0  0  0  0  0  0  0  0
   45.5620   32.6810   36.6250 C   0  0  0  0  0  0  0  0  0  0  0  0
   44.9140   33.1200   35.8510 H   0  0  0  0  0  0  0  0  0  0  0  0
   45.9540   31.3570   36.5080 C   0  0  0  0  0  0  0  0  0  0  0  0
   46.7670   30.8530   37.5040 C   0  0  0  0  0  0  0  0  0  0  0  0
   47.9330   31.4550   41.0540 H   0  0  0  0  0  0  0  0  0  0  0  0
   48.1990   30.9680   39.8160 S   0  0  0  0  0  0  0  0  0  0  0  0
   48.0370   29.4690   39.8130 O   0  0  0  0  0  0  0  0  0  0  0  0
   49.6250   31.2410   39.3760 O   0  0  0  0  0  0  0  0  0  0  0  0
  2  1  1  0  0  0  0
  2  3  1  0  0  0  0
  3 15  1  0  0  0  0
  4  3  2  0  0  0  0
  4  8  1  0  0  0  0
  5  4  1  0  0  0  0
  6  7  1  0  0  0  0
  6  5  2  0  0  0  0
  7  2  2  0  0  0  0
  9  5  1  0  0  0  0
 10  6  1  0  0  0  0
 11 12  1  0  0  0  0
 11 19  1  0  0  0  0
 12 17  1  0  0  0  0
 13 18  1  0  0  0  0
 13 12  2  0  0  0  0
 14 13  1  0  0  0  0
 15 14  2  0  0  0  0
 15 16  1  0  0  0  0
 16 11  2  0  0  0  0
 19 21  1  0  0  0  0
 19 20  1  0  0  0  0
 22 23  1  0  0  0  0
 22 31  1  0  0  0  0
 23  7  1  0  0  0  0
 24 25  1  0  0  0  0
 24 23  2  0  0  0  0
 26 24  1  0  0  0  0
 27 26  1  0  0  0  0
 28 26  2  0  0  0  0
 28 29  1  0  0  0  0
 29 22  2  0  0  0  0
 31 30  1  0  0  0  0
 32 31  2  0  0  0  0
 33 31  2  0  0  0  0
M  END
>  <minimizedAffinity>
-5.73734856

>  <minimizedRMSD>
1.55613947

$$$$
