
 OpenBabel03242512593D

 38 41  0  0  0  0  0  0  0  0999 V2000
   45.0970   32.7930   41.3410 F   0  0  0  0  0  0  0  0  0  0  0  0
   46.1910   33.5290   40.9890 C   0  0  0  0  0  0  0  0  0  0  0  0
   46.6790   34.5160   41.8080 C   0  0  0  0  0  0  0  0  0  0  0  0
   47.7780   35.2030   41.3760 C   0  0  0  0  0  0  0  0  0  0  0  0
   48.4170   34.9600   40.1730 C   0  0  0  0  0  0  0  0  0  0  0  0
   47.8860   33.9670   39.4010 C   0  0  0  0  0  0  0  0  0  0  0  0
   46.7850   33.2450   39.7850 C   0  0  0  0  0  0  0  0  0  0  0  0
   48.1500   35.9830   42.0400 H   0  0  0  0  0  0  0  0  0  0  0  0
   49.2890   35.5330   39.8740 H   0  0  0  0  0  0  0  0  0  0  0  0
   48.3350   33.7220   38.4480 H   0  0  0  0  0  0  0  0  0  0  0  0
   44.5310   36.0380   44.5380 C   0  0  0  0  0  0  0  0  0  0  0  0
   45.1650   35.8470   43.3050 C   0  0  0  0  0  0  0  0  0  0  0  0
   45.9920   34.7620   43.0760 C   0  0  0  0  0  0  0  0  0  0  0  0
   46.1380   33.9030   44.1380 N   0  0  0  0  0  0  0  0  0  0  0  0
   45.5180   34.1030   45.3170 C   0  0  0  0  0  0  0  0  0  0  0  0
   44.7250   35.1550   45.5190 N   0  0  0  0  0  0  0  0  0  0  0  0
   43.8920   36.9000   44.6760 H   0  0  0  0  0  0  0  0  0  0  0  0
   45.0400   36.5380   42.4730 H   0  0  0  0  0  0  0  0  0  0  0  0
   45.7540   33.3190   46.0340 H   0  0  0  0  0  0  0  0  0  0  0  0
   46.2350   32.1850   38.9400 C   0  0  0  0  0  0  0  0  0  0  0  0
   46.7580   30.9150   38.7620 C   0  0  0  0  0  0  0  0  0  0  0  0
   45.9210   30.2300   37.8750 C   0  0  0  0  0  0  0  0  0  0  0  0
   44.9510   31.0910   37.5600 N   0  0  0  0  0  0  0  0  0  0  0  0
   45.1170   32.2560   38.1810 N   0  0  0  0  0  0  0  0  0  0  0  0
   47.6670   30.6080   39.2710 H   0  0  0  0  0  0  0  0  0  0  0  0
   46.1500   29.2240   37.6040 H   0  0  0  0  0  0  0  0  0  0  0  0
   43.9940   30.6620   35.2730 C   0  0  0  0  0  0  0  0  0  0  0  0
   43.9320   30.6710   36.6600 C   0  0  0  0  0  0  0  0  0  0  0  0
   42.7600   30.2280   37.2660 C   0  0  0  0  0  0  0  0  0  0  0  0
   42.6350   30.2060   38.3600 H   0  0  0  0  0  0  0  0  0  0  0  0
   41.6670   29.7840   36.5250 C   0  0  0  0  0  0  0  0  0  0  0  0
   40.7530   29.4390   37.0320 H   0  0  0  0  0  0  0  0  0  0  0  0
   41.7540   29.7840   35.1320 C   0  0  0  0  0  3  0  0  0  0  0  0
   42.9140   30.2230   34.5350 C   0  0  0  0  0  3  0  0  0  0  0  0
   46.5540   31.0200   35.4360 H   0  0  0  0  0  0  0  0  0  0  0  0
   45.4930   31.2310   34.5750 S   0  0  0  0  0  0  0  0  0  0  0  0
   45.3940   32.6700   34.1480 O   0  0  0  0  0  0  0  0  0  0  0  0
   45.7520   30.3730   33.3570 O   0  0  0  0  0  0  0  0  0  0  0  0
  2  1  1  0  0  0  0
  2  3  1  0  0  0  0
  3 13  1  0  0  0  0
  4  3  2  0  0  0  0
  4  8  1  0  0  0  0
  5  4  1  0  0  0  0
  6  7  1  0  0  0  0
  6  5  2  0  0  0  0
  7  2  2  0  0  0  0
  9  5  1  0  0  0  0
 10  6  1  0  0  0  0
 11 17  1  0  0  0  0
 11 16  1  0  0  0  0
 12 11  2  0  0  0  0
 13 12  1  0  0  0  0
 13 14  2  0  0  0  0
 14 15  1  0  0  0  0
 15 16  2  0  0  0  0
 15 19  1  0  0  0  0
 18 12  1  0  0  0  0
 20  7  1  0  0  0  0
 21 20  1  0  0  0  0
 21 25  1  0  0  0  0
 22 21  2  0  0  0  0
 23 22  1  0  0  0  0
 23 24  1  0  0  0  0
 24 20  2  0  0  0  0
 26 22  1  0  0  0  0
 27 28  1  0  0  0  0
 28 29  2  0  0  0  0
 28 23  1  0  0  0  0
 29 30  1  0  0  0  0
 31 32  1  0  0  0  0
 31 29  1  0  0  0  0
 33 31  2  0  0  0  0
 34 33  1  0  0  0  0
 34 27  2  0  0  0  0
 36 27  1  0  0  0  0
 36 35  1  0  0  0  0
 37 36  2  0  0  0  0
 38 36  2  0  0  0  0
M  END
>  <minimizedAffinity>
-5.73385

>  <minimizedRMSD>
1.02639949

$$$$
