
 OpenBabel03252509233D

 30 32  0  0  1  0  0  0  0  0999 V2000
   46.6890   34.7670   42.0210 C   0  0  1  0  0  0  0  0  0  0  0  0
   48.1760   35.1860   42.1100 C   0  0  0  0  0  0  0  0  0  0  0  0
   47.6520   33.7780   41.6970 C   0  0  2  0  0  0  0  0  0  0  0  0
   46.1100   35.3600   41.3070 H   0  0  0  0  0  0  0  0  0  0  0  0
   48.4710   35.8580   41.3110 H   0  0  0  0  0  0  0  0  0  0  0  0
   48.6530   35.2960   43.0810 H   0  0  0  0  0  0  0  0  0  0  0  0
   47.8820   33.0140   42.5110 H   0  0  0  0  0  0  0  0  0  0  0  0
   44.5450   35.5810   45.0010 C   0  0  0  0  0  0  0  0  0  0  0  0
   45.1150   35.6970   43.7070 C   0  0  0  0  0  0  0  0  0  0  0  0
   46.0840   34.7490   43.4160 C   0  0  0  0  0  0  0  0  0  0  0  0
   46.4450   33.7800   44.3330 N   0  0  0  0  0  0  0  0  0  0  0  0
   45.8680   33.7260   45.5370 C   0  0  0  0  0  0  0  0  0  0  0  0
   44.9090   34.6330   45.8750 N   0  0  0  0  0  0  0  0  0  0  0  0
   43.7870   36.2980   45.2680 H   0  0  0  0  0  0  0  0  0  0  0  0
   46.2690   32.9120   46.1190 H   0  0  0  0  0  0  0  0  0  0  0  0
   44.7580   36.7190   42.7760 N   0  0  0  0  0  0  0  0  0  0  0  0
   45.4080   37.5110   42.9840 H   0  0  0  0  0  0  0  0  0  0  0  0
   44.0020   36.6060   42.0820 H   0  0  0  0  0  0  0  0  0  0  0  0
   49.0500   32.5410   39.8660 C   0  0  0  0  0  0  0  0  0  0  0  0
   48.0410   33.3110   40.3460 C   0  0  0  0  0  0  0  0  0  0  0  0
   47.1140   33.7800   39.4030 C   0  0  0  0  0  0  0  0  0  0  0  0
   46.2350   34.4110   39.5900 H   0  0  0  0  0  0  0  0  0  0  0  0
   47.2210   33.4720   38.0540 C   0  0  0  0  0  0  0  0  0  0  0  0
   46.5350   33.8070   37.2910 H   0  0  0  0  0  0  0  0  0  0  0  0
   48.2510   32.6940   37.6160 C   0  0  0  0  0  3  0  0  0  0  0  0
   49.1690   32.2280   38.5320 C   0  0  0  0  0  3  0  0  0  0  0  0
   50.4850   32.9360   41.9670 H   0  0  0  0  0  0  0  0  0  0  0  0
   50.2110   31.9860   41.0200 S   0  0  0  0  0  0  0  0  0  0  0  0
   51.5460   31.7510   40.3190 O   0  0  0  0  0  0  0  0  0  0  0  0
   49.7720   30.7440   41.7260 O   0  0  0  0  0  0  0  0  0  0  0  0
  1  4  1  6  0  0  0
  1  2  1  0  0  0  0
  1 10  1  0  0  0  0
  2  6  1  0  0  0  0
  3  1  1  0  0  0  0
  3  2  1  0  0  0  0
  3  7  1  1  0  0  0
  5  2  1  0  0  0  0
  8 14  1  0  0  0  0
  8 13  1  0  0  0  0
  9  8  2  0  0  0  0
 10  9  1  0  0  0  0
 10 11  2  0  0  0  0
 11 12  1  0  0  0  0
 12 13  2  0  0  0  0
 12 15  1  0  0  0  0
 16 17  1  0  0  0  0
 16  9  1  0  0  0  0
 18 16  1  0  0  0  0
 19 20  1  0  0  0  0
 19 28  1  0  0  0  0
 20  3  1  0  0  0  0
 21 22  1  0  0  0  0
 21 20  2  0  0  0  0
 23 21  1  0  0  0  0
 24 23  1  0  0  0  0
 25 23  2  0  0  0  0
 25 26  1  0  0  0  0
 26 19  2  0  0  0  0
 28 30  2  0  0  0  0
 28 27  1  0  0  0  0
 29 28  2  0  0  0  0
M  END
>  <minimizedAffinity>
-5.06202126

>  <minimizedRMSD>
0.679329693

$$$$
