
 OpenBabel03252508593D

 48 50  0  0  1  0  0  0  0  0999 V2000
   47.1260   34.0950   43.2790 N   0  0  0  0  0  0  0  0  0  0  0  0
   46.7340   35.3330   42.6970 C   0  0  0  0  0  0  0  0  0  0  0  0
   45.2780   35.6740   42.8120 C   0  0  0  0  0  0  0  0  0  0  0  0
   44.6110   35.1610   44.0550 C   0  0  0  0  0  0  0  0  0  0  0  0
   45.5950   34.4890   44.9840 C   0  0  0  0  0  0  0  0  0  0  0  0
   46.2520   33.3830   44.0830 C   0  0  2  0  0  0  0  0  0  0  0  0
   47.0220   35.4930   41.6570 H   0  0  0  0  0  0  0  0  0  0  0  0
   47.2910   36.1370   43.2670 H   0  0  0  0  0  0  0  0  0  0  0  0
   45.1350   36.7720   42.7880 H   0  0  0  0  0  0  0  0  0  0  0  0
   44.7710   35.3050   41.8790 H   0  0  0  0  0  0  0  0  0  0  0  0
   43.9020   34.3640   43.7390 H   0  0  0  0  0  0  0  0  0  0  0  0
   44.0120   35.9320   44.5650 H   0  0  0  0  0  0  0  0  0  0  0  0
   45.0150   33.9770   45.7770 H   0  0  0  0  0  0  0  0  0  0  0  0
   46.3830   35.1570   45.3620 H   0  0  0  0  0  0  0  0  0  0  0  0
   45.3920   32.8650   43.6130 H   0  0  0  0  0  0  0  0  0  0  0  0
   48.1160   33.3760   42.5220 C   0  0  0  0  0  0  0  0  0  0  0  0
   48.7500   34.1450   42.0090 H   0  0  0  0  0  0  0  0  0  0  0  0
   48.7960   32.7630   43.1130 H   0  0  0  0  0  0  0  0  0  0  0  0
   47.4160   32.5030   41.5220 C   0  0  0  0  0  0  0  0  0  0  0  0
   46.3320   32.7370   41.4910 H   0  0  0  0  0  0  0  0  0  0  0  0
   47.5160   31.4170   41.7270 H   0  0  0  0  0  0  0  0  0  0  0  0
   49.3000   32.1820   38.2860 C   0  0  0  0  0  0  0  0  0  0  0  0
   48.7920   31.9120   39.5720 C   0  0  0  0  0  0  0  0  0  0  0  0
   47.9410   32.8050   40.1670 C   0  0  0  0  0  0  0  0  0  0  0  0
   47.6300   33.9110   39.4820 N   0  0  0  0  0  0  0  0  0  0  0  0
   48.1130   34.1730   38.2520 C   0  0  0  0  0  0  0  0  0  0  0  0
   48.9480   33.3130   37.6480 N   0  0  0  0  0  0  0  0  0  0  0  0
   49.9740   31.4760   37.8120 H   0  0  0  0  0  0  0  0  0  0  0  0
   49.1230   30.9820   40.0130 H   0  0  0  0  0  0  0  0  0  0  0  0
   47.8030   35.0980   37.7750 H   0  0  0  0  0  0  0  0  0  0  0  0
   46.9270   32.6170   45.0200 O   0  0  0  0  0  0  0  0  0  0  0  0
   45.2480   30.7600   44.1360 O   0  0  0  0  0  0  0  0  0  0  0  0
   46.2370   31.1080   45.2590 P   0  0  2  0  0  0  0  0  0  0  0  0
   45.2620   31.2410   46.6610 O   0  0  0  0  0  0  0  0  0  0  0  0
   44.8850   30.3190   46.7890 H   0  0  0  0  0  0  0  0  0  0  0  0
   47.3280   29.8950   45.5260 O   0  0  0  0  0  0  0  0  0  0  0  0
   49.4470   29.2280   46.0230 C   0  0  0  0  0  0  0  0  0  0  0  0
   48.5980   29.7210   45.0250 C   0  0  0  0  0  0  0  0  0  0  0  0
   49.1290   29.9440   43.7720 C   0  0  0  0  0  0  0  0  0  0  0  0
   48.3840   30.3230   43.0870 H   0  0  0  0  0  0  0  0  0  0  0  0
   50.4600   29.6860   43.5180 C   0  0  0  0  0  0  0  0  0  0  0  0
   50.7950   29.8900   42.5060 H   0  0  0  0  0  0  0  0  0  0  0  0
   51.3070   29.2000   44.4920 C   0  0  0  0  0  3  0  0  0  0  0  0
   50.7960   28.9700   45.7530 C   0  0  0  0  0  3  0  0  0  0  0  0
   50.0720   28.5140   48.4280 H   0  0  0  0  0  0  0  0  0  0  0  0
   48.9760   28.8730   47.6880 S   0  0  0  0  0  0  0  0  0  0  0  0
   48.3870   30.0960   48.3390 O   0  0  0  0  0  0  0  0  0  0  0  0
   47.9440   27.7610   47.6470 O   0  0  0  0  0  0  0  0  0  0  0  0
  1  6  1  0  0  0  0
  2  3  1  0  0  0  0
  2  8  1  0  0  0  0
  2  1  1  0  0  0  0
  3  4  1  0  0  0  0
  4 12  1  0  0  0  0
  4  5  1  0  0  0  0
  5 14  1  0  0  0  0
  5 13  1  0  0  0  0
  6 15  1  6  0  0  0
  6  5  1  0  0  0  0
  6 31  1  0  0  0  0
  7  2  1  0  0  0  0
  9  3  1  0  0  0  0
 10  3  1  0  0  0  0
 11  4  1  0  0  0  0
 16 18  1  0  0  0  0
 16  1  1  0  0  0  0
 17 16  1  0  0  0  0
 19 21  1  0  0  0  0
 19 16  1  0  0  0  0
 20 19  1  0  0  0  0
 22 23  1  0  0  0  0
 23 29  1  0  0  0  0
 23 24  2  0  0  0  0
 24 19  1  0  0  0  0
 25 24  1  0  0  0  0
 26 25  2  0  0  0  0
 27 26  1  0  0  0  0
 27 22  2  0  0  0  0
 28 22  1  0  0  0  0
 30 26  1  0  0  0  0
 31 33  1  0  0  0  0
 33 32  2  6  0  0  0
 33 36  1  0  0  0  0
 33 34  1  0  0  0  0
 34 35  1  0  0  0  0
 37 46  1  0  0  0  0
 38 36  1  0  0  0  0
 38 37  2  0  0  0  0
 39 38  1  0  0  0  0
 40 39  1  0  0  0  0
 41 39  2  0  0  0  0
 41 43  1  0  0  0  0
 42 41  1  0  0  0  0
 43 44  2  0  0  0  0
 44 37  1  0  0  0  0
 46 47  2  0  0  0  0
 46 45  1  0  0  0  0
 48 46  2  0  0  0  0
M  END
>  <minimizedAffinity>
-4.2464633

>  <minimizedRMSD>
1.08502412

$$$$
