
 OpenBabel03242520103D

 32 34  0  0  0  0  0  0  0  0999 V2000
   46.1320   32.6920   47.0570 C   0  0  0  0  0  0  0  0  0  0  0  0
   45.0640   32.4330   47.8640 C   0  0  0  0  0  0  0  0  0  0  0  0
   45.2400   31.7010   49.0160 C   0  0  0  0  0  0  0  0  0  0  0  0
   46.5280   31.2360   49.3350 C   0  0  0  0  0  0  0  0  0  0  0  0
   47.5840   31.5150   48.5000 C   0  0  0  0  0  0  0  0  0  0  0  0
   47.3410   32.2180   47.4170 N   0  0  0  0  0  0  0  0  0  0  0  0
   44.1040   32.8120   47.5740 H   0  0  0  0  0  0  0  0  0  0  0  0
   44.3820   31.5070   49.6430 H   0  0  0  0  0  0  0  0  0  0  0  0
   46.5700   30.6800   50.2450 H   0  0  0  0  0  0  0  0  0  0  0  0
   44.9160   35.0290   44.5160 C   0  0  0  0  0  0  0  0  0  0  0  0
   45.8670   34.8690   43.5070 C   0  0  0  0  0  0  0  0  0  0  0  0
   46.9180   33.9710   43.6850 C   0  0  0  0  0  0  0  0  0  0  0  0
   46.9390   33.3000   44.8620 N   0  0  0  0  0  0  0  0  0  0  0  0
   46.0320   33.4580   45.8180 C   0  0  0  0  0  0  0  0  0  0  0  0
   45.0190   34.3280   45.6350 N   0  0  0  0  0  0  0  0  0  0  0  0
   43.8450   35.9580   44.3070 N   0  0  0  0  0  0  0  0  0  0  0  0
   45.8100   35.4340   42.5690 H   0  0  0  0  0  0  0  0  0  0  0  0
   47.6810   33.8160   42.9260 H   0  0  0  0  0  0  0  0  0  0  0  0
   43.0670   35.5180   43.7400 H   0  0  0  0  0  0  0  0  0  0  0  0
   43.7180   36.9450   44.6090 H   0  0  0  0  0  0  0  0  0  0  0  0
   49.3730   29.7910   48.4510 C   0  0  0  0  0  0  0  0  0  0  0  0
   48.9130   31.0310   48.8360 C   0  0  0  0  0  0  0  0  0  0  0  0
   49.8290   31.7570   49.5630 C   0  0  0  0  0  0  0  0  0  0  0  0
   49.5920   32.7410   49.9230 H   0  0  0  0  0  0  0  0  0  0  0  0
   51.0980   31.3380   49.9040 C   0  0  0  0  0  0  0  0  0  0  0  0
   51.7870   31.9320   50.4720 H   0  0  0  0  0  0  0  0  0  0  0  0
   51.5110   30.0960   49.4970 C   0  0  0  0  0  0  0  0  0  0  0  0
   50.6530   29.3270   48.7750 C   0  0  0  0  0  0  0  0  0  0  0  0
   47.0590   28.9540   47.8750 H   0  0  0  0  0  0  0  0  0  0  0  0
   48.3490   28.7270   47.5180 S   0  0  0  0  0  0  0  0  0  0  0  0
   48.6290   27.2790   47.8570 O   0  0  0  0  0  0  0  0  0  0  0  0
   48.6060   28.8650   46.0460 O   0  0  0  0  0  0  0  0  0  0  0  0
  1  6  2  0  0  0  0
  1  2  1  0  0  0  0
  2  3  2  0  0  0  0
  3  4  1  0  0  0  0
  3  8  1  0  0  0  0
  4  9  1  0  0  0  0
  5 22  1  0  0  0  0
  5  4  2  0  0  0  0
  6  5  1  0  0  0  0
  7  2  1  0  0  0  0
 10 15  1  0  0  0  0
 11 12  1  0  0  0  0
 11 10  2  0  0  0  0
 12 13  2  0  0  0  0
 13 14  1  0  0  0  0
 14  1  1  0  0  0  0
 15 14  2  0  0  0  0
 16 10  1  0  0  0  0
 16 20  1  0  0  0  0
 17 11  1  0  0  0  0
 18 12  1  0  0  0  0
 19 16  1  0  0  0  0
 21 28  2  0  0  0  0
 21 22  1  0  0  0  0
 22 23  2  0  0  0  0
 23 25  1  0  0  0  0
 23 24  1  0  0  0  0
 25 26  1  0  0  0  0
 27 25  2  0  0  0  0
 28 27  1  0  0  0  0
 30 31  2  0  0  0  0
 30 29  1  0  0  0  0
 30 21  1  0  0  0  0
 32 30  2  0  0  0  0
M  END
>  <minimizedAffinity>
-6.30499458

>  <minimizedRMSD>
1.19386458

$$$$
