
 OpenBabel03252502513D

 37 39  0  0  0  0  0  0  0  0999 V2000
   32.8600   26.8060   36.2760 C   0  0  0  0  0  0  0  0  0  0  0  0
   33.9370   26.9130   37.1620 C   0  0  0  0  0  0  0  0  0  0  0  0
   34.2020   28.1630   37.7020 C   0  0  0  0  0  0  0  0  0  0  0  0
   33.4170   29.2150   37.3540 N   0  0  0  0  0  0  0  0  0  0  0  0
   32.3750   29.0760   36.4890 C   0  0  0  0  0  0  0  0  0  0  0  0
   32.1050   27.8750   35.9570 N   0  0  0  0  0  0  0  0  0  0  0  0
   32.5700   25.8800   35.8020 H   0  0  0  0  0  0  0  0  0  0  0  0
   34.4810   26.0210   37.3600 H   0  0  0  0  0  0  0  0  0  0  0  0
   30.5990   30.0510   38.6700 Cl  0  0  0  0  0  0  0  0  0  0  0  0
   30.7220   30.7840   37.0850 C   0  0  0  0  0  0  0  0  0  0  0  0
   31.5720   30.2520   36.1590 C   0  0  0  0  0  0  0  0  0  0  0  0
   31.6930   30.8160   34.8790 C   0  0  0  0  0  0  0  0  0  0  0  0
   30.9170   31.9160   34.6280 C   0  0  0  0  0  0  0  0  0  0  0  0
   30.0730   32.4450   35.5470 C   0  0  0  0  0  0  0  0  0  0  0  0
   29.9600   31.8930   36.7840 C   0  0  0  0  0  0  0  0  0  0  0  0
   32.3850   30.3710   34.1490 H   0  0  0  0  0  0  0  0  0  0  0  0
   31.0590   32.3070   33.6150 H   0  0  0  0  0  0  0  0  0  0  0  0
   29.5230   33.3120   35.2110 H   0  0  0  0  0  0  0  0  0  0  0  0
   29.2760   32.3540   37.4730 H   0  0  0  0  0  0  0  0  0  0  0  0
   35.3500   28.2740   38.6450 C   0  0  0  0  0  0  0  0  0  0  0  0
   36.1840   28.6650   38.0670 H   0  0  0  0  0  0  0  0  0  0  0  0
   35.5570   27.2590   39.0240 H   0  0  0  0  0  0  0  0  0  0  0  0
   35.0210   29.1390   39.8530 C   0  0  0  0  0  0  0  0  0  0  0  0
   35.0730   30.1920   39.4570 H   0  0  0  0  0  0  0  0  0  0  0  0
   33.9890   28.9680   40.2080 H   0  0  0  0  0  0  0  0  0  0  0  0
   36.9340   30.1070   40.9910 C   0  0  0  0  0  0  0  0  0  0  0  0
   36.0500   29.0540   40.9010 C   0  0  0  0  0  0  0  0  0  0  0  0
   36.1490   27.9680   41.7790 C   0  0  0  0  0  0  0  0  0  0  0  0
   35.4310   27.1710   41.6650 H   0  0  0  0  0  0  0  0  0  0  0  0
   37.1400   27.9340   42.7550 C   0  0  0  0  0  0  0  0  0  0  0  0
   37.2090   27.0790   43.4380 H   0  0  0  0  0  0  0  0  0  0  0  0
   38.0270   29.0070   42.8320 C   0  0  0  0  0  3  0  0  0  0  0  0
   37.9240   30.0720   41.9660 C   0  0  0  0  0  3  0  0  0  0  0  0
   35.6710   32.0310   39.7800 H   0  0  0  0  0  0  0  0  0  0  0  0
   36.9150   31.5030   39.9670 S   0  0  0  0  0  0  0  0  0  0  0  0
   37.7500   32.5890   40.6100 O   0  0  0  0  0  0  0  0  0  0  0  0
   37.5330   31.1530   38.6540 O   0  0  0  0  0  0  0  0  0  0  0  0
  1  2  1  0  0  0  0
  2  8  1  0  0  0  0
  2  3  2  0  0  0  0
  3 20  1  0  0  0  0
  4  3  1  0  0  0  0
  5  4  2  0  0  0  0
  6  1  2  0  0  0  0
  6  5  1  0  0  0  0
  7  1  1  0  0  0  0
 10  9  1  0  0  0  0
 11  5  1  0  0  0  0
 11 10  2  0  0  0  0
 12 11  1  0  0  0  0
 13 12  2  0  0  0  0
 13 14  1  0  0  0  0
 14 15  2  0  0  0  0
 15 10  1  0  0  0  0
 15 19  1  0  0  0  0
 16 12  1  0  0  0  0
 17 13  1  0  0  0  0
 18 14  1  0  0  0  0
 20 22  1  0  0  0  0
 20 23  1  0  0  0  0
 21 20  1  0  0  0  0
 23 25  1  0  0  0  0
 23 27  1  0  0  0  0
 24 23  1  0  0  0  0
 26 33  1  0  0  0  0
 27 26  2  0  0  0  0
 27 28  1  0  0  0  0
 28 30  2  0  0  0  0
 29 28  1  0  0  0  0
 30 32  1  0  0  0  0
 30 31  1  0  0  0  0
 33 32  2  0  0  0  0
 34 35  1  0  0  0  0
 35 36  2  0  0  0  0
 35 26  1  0  0  0  0
 37 35  2  0  0  0  0
M  END
>  <minimizedAffinity>
-5.98020315

$$$$

 OpenBabel03252502513D

 37 39  0  0  0  0  0  0  0  0999 V2000
   36.4660   27.6200   36.0620 C   0  0  0  0  0  0  0  0  0  0  0  0
   35.1140   27.5270   35.7150 C   0  0  0  0  0  0  0  0  0  0  0  0
   34.2330   28.4050   36.3300 C   0  0  0  0  0  0  0  0  0  0  0  0
   34.7110   29.3030   37.2290 N   0  0  0  0  0  0  0  0  0  0  0  0
   36.0340   29.3670   37.5430 C   0  0  0  0  0  0  0  0  0  0  0  0
   36.9000   28.5270   36.9590 N   0  0  0  0  0  0  0  0  0  0  0  0
   37.2320   26.9850   35.6410 H   0  0  0  0  0  0  0  0  0  0  0  0
   34.8560   26.7850   35.0000 H   0  0  0  0  0  0  0  0  0  0  0  0
   35.2170   28.8330   40.3550 Cl  0  0  0  0  0  0  0  0  0  0  0  0
   36.1600   30.2140   39.8390 C   0  0  0  0  0  0  0  0  0  0  0  0
   36.4790   30.3600   38.5190 C   0  0  0  0  0  0  0  0  0  0  0  0
   37.2330   31.4560   38.0740 C   0  0  0  0  0  0  0  0  0  0  0  0
   37.6220   32.3530   39.0330 C   0  0  0  0  0  0  0  0  0  0  0  0
   37.3060   32.2090   40.3440 C   0  0  0  0  0  0  0  0  0  0  0  0
   36.5750   31.1450   40.7680 C   0  0  0  0  0  0  0  0  0  0  0  0
   37.4780   31.5530   37.0060 H   0  0  0  0  0  0  0  0  0  0  0  0
   38.2050   33.1820   38.6210 H   0  0  0  0  0  0  0  0  0  0  0  0
   37.6780   32.9920   40.9880 H   0  0  0  0  0  0  0  0  0  0  0  0
   36.3540   31.0810   41.8190 H   0  0  0  0  0  0  0  0  0  0  0  0
   32.7930   28.3040   35.9600 C   0  0  0  0  0  0  0  0  0  0  0  0
   32.2620   28.0300   36.8690 H   0  0  0  0  0  0  0  0  0  0  0  0
   32.7120   27.5190   35.1880 H   0  0  0  0  0  0  0  0  0  0  0  0
   32.2660   29.5890   35.3400 C   0  0  0  0  0  0  0  0  0  0  0  0
   33.1810   30.2390   35.2400 H   0  0  0  0  0  0  0  0  0  0  0  0
   31.8680   29.4190   34.3240 H   0  0  0  0  0  0  0  0  0  0  0  0
   30.7410   31.4370   35.7290 C   0  0  0  0  0  0  0  0  0  0  0  0
   31.3560   30.3150   36.2400 C   0  0  0  0  0  0  0  0  0  0  0  0
   31.1080   29.9070   37.5550 C   0  0  0  0  0  0  0  0  0  0  0  0
   31.6160   29.0220   37.9040 H   0  0  0  0  0  0  0  0  0  0  0  0
   30.2380   30.6270   38.3680 C   0  0  0  0  0  0  0  0  0  0  0  0
   30.0500   30.2990   39.3980 H   0  0  0  0  0  0  0  0  0  0  0  0
   29.6250   31.7610   37.8360 C   0  0  0  0  0  3  0  0  0  0  0  0
   29.8720   32.1560   36.5420 C   0  0  0  0  0  3  0  0  0  0  0  0
   31.2710   31.0760   33.2090 H   0  0  0  0  0  0  0  0  0  0  0  0
   30.9650   32.0420   34.1220 S   0  0  0  0  0  0  0  0  0  0  0  0
   29.6730   32.6780   33.6570 O   0  0  0  0  0  0  0  0  0  0  0  0
   32.0250   33.0940   34.1400 O   0  0  0  0  0  0  0  0  0  0  0  0
  1  6  1  0  0  0  0
  2  1  2  0  0  0  0
  2  3  1  0  0  0  0
  3  4  2  0  0  0  0
  4  5  1  0  0  0  0
  5 11  1  0  0  0  0
  6  5  2  0  0  0  0
  7  1  1  0  0  0  0
  8  2  1  0  0  0  0
 10  9  1  0  0  0  0
 10 15  1  0  0  0  0
 11 10  2  0  0  0  0
 12 11  1  0  0  0  0
 12 13  2  0  0  0  0
 13 14  1  0  0  0  0
 14 15  2  0  0  0  0
 14 18  1  0  0  0  0
 15 19  1  0  0  0  0
 16 12  1  0  0  0  0
 17 13  1  0  0  0  0
 20  3  1  0  0  0  0
 20 21  1  0  0  0  0
 22 20  1  0  0  0  0
 23 20  1  0  0  0  0
 23 27  1  0  0  0  0
 24 23  1  0  0  0  0
 25 23  1  0  0  0  0
 26 27  2  0  0  0  0
 26 33  1  0  0  0  0
 27 28  1  0  0  0  0
 28 29  1  0  0  0  0
 28 30  2  0  0  0  0
 30 31  1  0  0  0  0
 32 30  1  0  0  0  0
 33 32  2  0  0  0  0
 34 35  1  0  0  0  0
 35 37  2  0  0  0  0
 35 26  1  0  0  0  0
 36 35  2  0  0  0  0
M  END
>  <minimizedAffinity>
-5.76137686

$$$$

 OpenBabel03252502513D

 37 39  0  0  0  0  0  0  0  0999 V2000
   36.6360   29.3430   36.6480 C   0  0  0  0  0  0  0  0  0  0  0  0
   35.3360   29.2210   36.1450 C   0  0  0  0  0  0  0  0  0  0  0  0
   34.4010   28.5690   36.9350 C   0  0  0  0  0  0  0  0  0  0  0  0
   34.7800   28.0840   38.1460 N   0  0  0  0  0  0  0  0  0  0  0  0
   36.0540   28.2210   38.6060 C   0  0  0  0  0  0  0  0  0  0  0  0
   36.9700   28.8480   37.8550 N   0  0  0  0  0  0  0  0  0  0  0  0
   37.4360   29.8330   36.1130 H   0  0  0  0  0  0  0  0  0  0  0  0
   35.1560   29.6390   35.1840 H   0  0  0  0  0  0  0  0  0  0  0  0
   35.8250   30.1370   40.8730 Cl  0  0  0  0  0  0  0  0  0  0  0  0
   36.3200   28.4650   41.0300 C   0  0  0  0  0  0  0  0  0  0  0  0
   36.3910   27.6750   39.9190 C   0  0  0  0  0  0  0  0  0  0  0  0
   36.7850   26.3310   40.0110 C   0  0  0  0  0  0  0  0  0  0  0  0
   37.0880   25.8750   41.2660 C   0  0  0  0  0  0  0  0  0  0  0  0
   37.0190   26.6590   42.3700 C   0  0  0  0  0  0  0  0  0  0  0  0
   36.6360   27.9590   42.2730 C   0  0  0  0  0  0  0  0  0  0  0  0
   36.8350   25.7130   39.1030 H   0  0  0  0  0  0  0  0  0  0  0  0
   37.3880   24.8210   41.2690 H   0  0  0  0  0  0  0  0  0  0  0  0
   37.2860   26.1670   43.2930 H   0  0  0  0  0  0  0  0  0  0  0  0
   36.5980   28.5340   43.1810 H   0  0  0  0  0  0  0  0  0  0  0  0
   33.0180   28.4390   36.3970 C   0  0  0  0  0  0  0  0  0  0  0  0
   32.7760   27.3790   36.4290 H   0  0  0  0  0  0  0  0  0  0  0  0
   33.0360   28.8220   35.3620 H   0  0  0  0  0  0  0  0  0  0  0  0
   32.0180   29.2890   37.1670 C   0  0  0  0  0  0  0  0  0  0  0  0
   31.1870   28.5720   37.4190 H   0  0  0  0  0  0  0  0  0  0  0  0
   32.4420   29.6550   38.1190 H   0  0  0  0  0  0  0  0  0  0  0  0
   30.3050   30.9790   36.8460 C   0  0  0  0  0  0  0  0  0  0  0  0
   31.4060   30.3320   36.3290 C   0  0  0  0  0  0  0  0  0  0  0  0
   31.8990   30.6730   35.0640 C   0  0  0  0  0  0  0  0  0  0  0  0
   32.7640   30.1360   34.7070 H   0  0  0  0  0  0  0  0  0  0  0  0
   31.2850   31.6670   34.3080 C   0  0  0  0  0  0  0  0  0  0  0  0
   31.6790   31.9270   33.3190 H   0  0  0  0  0  0  0  0  0  0  0  0
   30.1710   32.3110   34.8470 C   0  0  0  0  0  3  0  0  0  0  0  0
   29.6920   31.9720   36.0910 C   0  0  0  0  0  3  0  0  0  0  0  0
   30.5180   30.5280   39.3990 H   0  0  0  0  0  0  0  0  0  0  0  0
   29.6030   30.6490   38.3940 S   0  0  0  0  0  0  0  0  0  0  0  0
   28.7000   31.8030   38.7740 O   0  0  0  0  0  0  0  0  0  0  0  0
   28.7700   29.4140   38.3000 O   0  0  0  0  0  0  0  0  0  0  0  0
  1  6  1  0  0  0  0
  2  1  2  0  0  0  0
  2  3  1  0  0  0  0
  3  4  2  0  0  0  0
  4  5  1  0  0  0  0
  5 11  1  0  0  0  0
  6  5  2  0  0  0  0
  7  1  1  0  0  0  0
  8  2  1  0  0  0  0
  9 10  1  0  0  0  0
 10 15  1  0  0  0  0
 11 12  1  0  0  0  0
 11 10  2  0  0  0  0
 12 13  2  0  0  0  0
 13 17  1  0  0  0  0
 13 14  1  0  0  0  0
 14 18  1  0  0  0  0
 15 14  2  0  0  0  0
 15 19  1  0  0  0  0
 16 12  1  0  0  0  0
 20 21  1  0  0  0  0
 20  3  1  0  0  0  0
 20 23  1  0  0  0  0
 22 20  1  0  0  0  0
 23 24  1  0  0  0  0
 23 25  1  0  0  0  0
 26 35  1  0  0  0  0
 27 26  1  0  0  0  0
 27 23  1  0  0  0  0
 28 27  2  0  0  0  0
 29 28  1  0  0  0  0
 30 32  2  0  0  0  0
 30 28  1  0  0  0  0
 31 30  1  0  0  0  0
 32 33  1  0  0  0  0
 33 26  2  0  0  0  0
 35 36  2  0  0  0  0
 35 34  1  0  0  0  0
 37 35  2  0  0  0  0
M  END
>  <minimizedAffinity>
-5.75382566

$$$$

 OpenBabel03252502513D

 37 39  0  0  0  0  0  0  0  0999 V2000
   32.7060   26.8180   36.1640 C   0  0  0  0  0  0  0  0  0  0  0  0
   33.8080   26.8760   37.0230 C   0  0  0  0  0  0  0  0  0  0  0  0
   34.1210   28.1060   37.5840 C   0  0  0  0  0  0  0  0  0  0  0  0
   33.3550   29.1850   37.2810 N   0  0  0  0  0  0  0  0  0  0  0  0
   32.2880   29.0940   36.4410 C   0  0  0  0  0  0  0  0  0  0  0  0
   31.9710   27.9140   35.8900 N   0  0  0  0  0  0  0  0  0  0  0  0
   32.3790   25.9110   35.6770 H   0  0  0  0  0  0  0  0  0  0  0  0
   34.3330   25.9660   37.1860 H   0  0  0  0  0  0  0  0  0  0  0  0
   30.5580   30.0350   38.6750 Cl  0  0  0  0  0  0  0  0  0  0  0  0
   30.6800   30.8180   37.1140 C   0  0  0  0  0  0  0  0  0  0  0  0
   31.5080   30.2980   36.1600 C   0  0  0  0  0  0  0  0  0  0  0  0
   31.6270   30.9020   34.8990 C   0  0  0  0  0  0  0  0  0  0  0  0
   30.8730   32.0270   34.6940 C   0  0  0  0  0  0  0  0  0  0  0  0
   30.0510   32.5430   35.6400 C   0  0  0  0  0  0  0  0  0  0  0  0
   29.9400   31.9530   36.8590 C   0  0  0  0  0  0  0  0  0  0  0  0
   32.3000   30.4660   34.1460 H   0  0  0  0  0  0  0  0  0  0  0  0
   31.0120   32.4480   33.6920 H   0  0  0  0  0  0  0  0  0  0  0  0
   29.5180   33.4330   35.3390 H   0  0  0  0  0  0  0  0  0  0  0  0
   29.2740   32.4060   37.5710 H   0  0  0  0  0  0  0  0  0  0  0  0
   35.2960   28.1650   38.4980 C   0  0  0  0  0  0  0  0  0  0  0  0
   36.1220   28.5550   37.9080 H   0  0  0  0  0  0  0  0  0  0  0  0
   35.4910   27.1340   38.8410 H   0  0  0  0  0  0  0  0  0  0  0  0
   35.0180   29.0000   39.7390 C   0  0  0  0  0  0  0  0  0  0  0  0
   34.1860   29.6900   39.4230 H   0  0  0  0  0  0  0  0  0  0  0  0
   34.6370   28.3810   40.5710 H   0  0  0  0  0  0  0  0  0  0  0  0
   36.9100   29.4930   41.1790 C   0  0  0  0  0  0  0  0  0  0  0  0
   36.1490   29.8720   40.0940 C   0  0  0  0  0  0  0  0  0  0  0  0
   36.4610   31.0350   39.3800 C   0  0  0  0  0  0  0  0  0  0  0  0
   35.8330   31.2840   38.5400 H   0  0  0  0  0  0  0  0  0  0  0  0
   37.5420   31.8270   39.7540 C   0  0  0  0  0  0  0  0  0  0  0  0
   37.7780   32.7360   39.1890 H   0  0  0  0  0  0  0  0  0  0  0  0
   38.3010   31.4300   40.8550 C   0  0  0  0  0  3  0  0  0  0  0  0
   37.9890   30.2850   41.5510 C   0  0  0  0  0  3  0  0  0  0  0  0
   35.3060   27.7680   42.2830 H   0  0  0  0  0  0  0  0  0  0  0  0
   36.6270   28.0800   42.1390 S   0  0  0  0  0  0  0  0  0  0  0  0
   37.2760   26.8930   41.4600 O   0  0  0  0  0  0  0  0  0  0  0  0
   37.2650   28.2630   43.4760 O   0  0  0  0  0  0  0  0  0  0  0  0
  1  2  1  0  0  0  0
  2  8  1  0  0  0  0
  2  3  2  0  0  0  0
  3 20  1  0  0  0  0
  4  3  1  0  0  0  0
  5  4  2  0  0  0  0
  6  1  2  0  0  0  0
  6  5  1  0  0  0  0
  7  1  1  0  0  0  0
 10  9  1  0  0  0  0
 11  5  1  0  0  0  0
 11 10  2  0  0  0  0
 12 11  1  0  0  0  0
 13 12  2  0  0  0  0
 13 14  1  0  0  0  0
 14 15  2  0  0  0  0
 15 10  1  0  0  0  0
 15 19  1  0  0  0  0
 16 12  1  0  0  0  0
 17 13  1  0  0  0  0
 18 14  1  0  0  0  0
 20 22  1  0  0  0  0
 20 23  1  0  0  0  0
 21 20  1  0  0  0  0
 23 27  1  0  0  0  0
 23 25  1  0  0  0  0
 24 23  1  0  0  0  0
 26 33  1  0  0  0  0
 26 35  1  0  0  0  0
 27 26  2  0  0  0  0
 28 30  2  0  0  0  0
 28 27  1  0  0  0  0
 29 28  1  0  0  0  0
 30 32  1  0  0  0  0
 31 30  1  0  0  0  0
 32 33  2  0  0  0  0
 35 34  1  0  0  0  0
 35 37  2  0  0  0  0
 36 35  2  0  0  0  0
M  END
>  <minimizedAffinity>
-5.70387554

$$$$

 OpenBabel03252502513D

 37 39  0  0  0  0  0  0  0  0999 V2000
   38.1610   27.5510   43.2780 C   0  0  0  0  0  0  0  0  0  0  0  0
   37.2020   28.4270   42.7590 C   0  0  0  0  0  0  0  0  0  0  0  0
   36.5760   28.0640   41.5750 C   0  0  0  0  0  0  0  0  0  0  0  0
   36.9140   26.8920   40.9800 N   0  0  0  0  0  0  0  0  0  0  0  0
   37.8520   26.0620   41.5130 C   0  0  0  0  0  0  0  0  0  0  0  0
   38.4670   26.3960   42.6560 N   0  0  0  0  0  0  0  0  0  0  0  0
   38.7050   27.7400   44.1930 H   0  0  0  0  0  0  0  0  0  0  0  0
   37.0210   29.3160   43.3120 H   0  0  0  0  0  0  0  0  0  0  0  0
   40.0770   26.2340   39.5430 Cl  0  0  0  0  0  0  0  0  0  0  0  0
   39.1690   24.7790   39.8920 C   0  0  0  0  0  0  0  0  0  0  0  0
   38.1660   24.8150   40.8170 C   0  0  0  0  0  0  0  0  0  0  0  0
   37.4190   23.6650   41.1190 C   0  0  0  0  0  0  0  0  0  0  0  0
   37.7580   22.5280   40.4370 C   0  0  0  0  0  0  0  0  0  0  0  0
   38.7540   22.4920   39.5180 C   0  0  0  0  0  0  0  0  0  0  0  0
   39.4730   23.6090   39.2300 C   0  0  0  0  0  0  0  0  0  0  0  0
   36.6160   23.7170   41.8680 H   0  0  0  0  0  0  0  0  0  0  0  0
   37.1390   21.6690   40.7170 H   0  0  0  0  0  0  0  0  0  0  0  0
   38.9120   21.5270   39.0580 H   0  0  0  0  0  0  0  0  0  0  0  0
   40.2520   23.5220   38.4940 H   0  0  0  0  0  0  0  0  0  0  0  0
   35.5560   28.9990   41.0230 C   0  0  0  0  0  0  0  0  0  0  0  0
   34.7650   29.0620   41.7680 H   0  0  0  0  0  0  0  0  0  0  0  0
   35.1920   28.5600   40.0780 H   0  0  0  0  0  0  0  0  0  0  0  0
   36.1450   30.3590   40.6810 C   0  0  0  0  0  0  0  0  0  0  0  0
   35.2870   31.0730   40.8310 H   0  0  0  0  0  0  0  0  0  0  0  0
   36.9440   30.6470   41.3880 H   0  0  0  0  0  0  0  0  0  0  0  0
   37.3050   31.5410   38.9060 C   0  0  0  0  0  0  0  0  0  0  0  0
   36.5150   30.4700   39.2610 C   0  0  0  0  0  0  0  0  0  0  0  0
   36.0990   29.5450   38.2970 C   0  0  0  0  0  0  0  0  0  0  0  0
   35.4820   28.7250   38.6290 H   0  0  0  0  0  0  0  0  0  0  0  0
   36.4750   29.6920   36.9650 C   0  0  0  0  0  0  0  0  0  0  0  0
   36.1450   28.9620   36.2170 H   0  0  0  0  0  0  0  0  0  0  0  0
   37.2750   30.7830   36.6230 C   0  0  0  0  0  3  0  0  0  0  0  0
   37.6810   31.6880   37.5760 C   0  0  0  0  0  3  0  0  0  0  0  0
   37.6500   32.4570   41.3160 H   0  0  0  0  0  0  0  0  0  0  0  0
   37.8830   32.7490   40.0040 S   0  0  0  0  0  0  0  0  0  0  0  0
   39.3840   32.8660   39.8520 O   0  0  0  0  0  0  0  0  0  0  0  0
   37.2720   34.0640   39.6490 O   0  0  0  0  0  0  0  0  0  0  0  0
  1  7  1  0  0  0  0
  2  1  1  0  0  0  0
  2  8  1  0  0  0  0
  3  2  2  0  0  0  0
  4  5  2  0  0  0  0
  4  3  1  0  0  0  0
  5  6  1  0  0  0  0
  6  1  2  0  0  0  0
  9 10  1  0  0  0  0
 10 11  1  0  0  0  0
 11 12  2  0  0  0  0
 11  5  1  0  0  0  0
 12 16  1  0  0  0  0
 13 17  1  0  0  0  0
 13 12  1  0  0  0  0
 14 13  2  0  0  0  0
 15 14  1  0  0  0  0
 15 10  2  0  0  0  0
 18 14  1  0  0  0  0
 19 15  1  0  0  0  0
 20  3  1  0  0  0  0
 20 21  1  0  0  0  0
 22 20  1  0  0  0  0
 23 24  1  0  0  0  0
 23 20  1  0  0  0  0
 23 25  1  0  0  0  0
 26 27  1  0  0  0  0
 26 35  1  0  0  0  0
 27 23  1  0  0  0  0
 28 29  1  0  0  0  0
 28 27  2  0  0  0  0
 30 28  1  0  0  0  0
 31 30  1  0  0  0  0
 32 30  2  0  0  0  0
 32 33  1  0  0  0  0
 33 26  2  0  0  0  0
 35 34  1  0  0  0  0
 36 35  2  0  0  0  0
 37 35  2  0  0  0  0
M  END
>  <minimizedAffinity>
-5.68801403

$$$$

 OpenBabel03252502513D

 37 39  0  0  0  0  0  0  0  0999 V2000
   36.6430   29.2960   37.0390 C   0  0  0  0  0  0  0  0  0  0  0  0
   35.3190   29.1440   36.6150 C   0  0  0  0  0  0  0  0  0  0  0  0
   34.4210   28.5770   37.5080 C   0  0  0  0  0  0  0  0  0  0  0  0
   34.8580   28.2000   38.7360 N   0  0  0  0  0  0  0  0  0  0  0  0
   36.1550   28.3630   39.1170 C   0  0  0  0  0  0  0  0  0  0  0  0
   37.0360   28.9090   38.2680 N   0  0  0  0  0  0  0  0  0  0  0  0
   37.4190   29.7270   36.4220 H   0  0  0  0  0  0  0  0  0  0  0  0
   35.0930   29.4770   35.6310 H   0  0  0  0  0  0  0  0  0  0  0  0
   36.1230   30.4940   41.1960 Cl  0  0  0  0  0  0  0  0  0  0  0  0
   36.5760   28.8290   41.4860 C   0  0  0  0  0  0  0  0  0  0  0  0
   36.5550   27.9330   40.4560 C   0  0  0  0  0  0  0  0  0  0  0  0
   36.9130   26.5910   40.6560 C   0  0  0  0  0  0  0  0  0  0  0  0
   37.2780   26.2460   41.9300 C   0  0  0  0  0  0  0  0  0  0  0  0
   37.3000   27.1350   42.9540 C   0  0  0  0  0  0  0  0  0  0  0  0
   36.9520   28.4330   42.7530 C   0  0  0  0  0  0  0  0  0  0  0  0
   36.8880   25.8870   39.8120 H   0  0  0  0  0  0  0  0  0  0  0  0
   37.5460   25.1880   42.0190 H   0  0  0  0  0  0  0  0  0  0  0  0
   37.6090   26.7240   43.9040 H   0  0  0  0  0  0  0  0  0  0  0  0
   36.9870   29.0940   43.6010 H   0  0  0  0  0  0  0  0  0  0  0  0
   33.0110   28.4160   37.0540 C   0  0  0  0  0  0  0  0  0  0  0  0
   32.4060   28.3470   37.9560 H   0  0  0  0  0  0  0  0  0  0  0  0
   32.9670   27.4850   36.4620 H   0  0  0  0  0  0  0  0  0  0  0  0
   32.5680   29.5460   36.1370 C   0  0  0  0  0  0  0  0  0  0  0  0
   33.4230   30.2780   36.1750 H   0  0  0  0  0  0  0  0  0  0  0  0
   32.4680   29.2060   35.0910 H   0  0  0  0  0  0  0  0  0  0  0  0
   30.8070   31.1860   35.8200 C   0  0  0  0  0  0  0  0  0  0  0  0
   31.3980   30.2670   36.6610 C   0  0  0  0  0  0  0  0  0  0  0  0
   30.8880   30.0510   37.9460 C   0  0  0  0  0  0  0  0  0  0  0  0
   31.3880   29.3210   38.5620 H   0  0  0  0  0  0  0  0  0  0  0  0
   29.7780   30.7590   38.3960 C   0  0  0  0  0  0  0  0  0  0  0  0
   29.3850   30.5820   39.4050 H   0  0  0  0  0  0  0  0  0  0  0  0
   29.1920   31.6850   37.5330 C   0  0  0  0  0  3  0  0  0  0  0  0
   29.6980   31.8920   36.2710 C   0  0  0  0  0  3  0  0  0  0  0  0
   32.3720   30.7540   33.7890 H   0  0  0  0  0  0  0  0  0  0  0  0
   31.3420   31.5420   34.2130 S   0  0  0  0  0  0  0  0  0  0  0  0
   30.1960   31.3020   33.2540 O   0  0  0  0  0  0  0  0  0  0  0  0
   31.7250   32.9830   34.1340 O   0  0  0  0  0  0  0  0  0  0  0  0
  1  6  1  0  0  0  0
  2  1  2  0  0  0  0
  2  3  1  0  0  0  0
  3  4  2  0  0  0  0
  4  5  1  0  0  0  0
  5 11  1  0  0  0  0
  6  5  2  0  0  0  0
  7  1  1  0  0  0  0
  8  2  1  0  0  0  0
  9 10  1  0  0  0  0
 10 15  1  0  0  0  0
 11 12  1  0  0  0  0
 11 10  2  0  0  0  0
 12 13  2  0  0  0  0
 13 17  1  0  0  0  0
 13 14  1  0  0  0  0
 14 18  1  0  0  0  0
 15 14  2  0  0  0  0
 15 19  1  0  0  0  0
 16 12  1  0  0  0  0
 20  3  1  0  0  0  0
 20 21  1  0  0  0  0
 22 20  1  0  0  0  0
 23 24  1  0  0  0  0
 23 27  1  0  0  0  0
 23 20  1  0  0  0  0
 25 23  1  0  0  0  0
 26 33  2  0  0  0  0
 26 27  1  0  0  0  0
 27 28  2  0  0  0  0
 28 30  1  0  0  0  0
 28 29  1  0  0  0  0
 30 31  1  0  0  0  0
 32 30  2  0  0  0  0
 33 32  1  0  0  0  0
 34 35  1  0  0  0  0
 35 26  1  0  0  0  0
 36 35  2  0  0  0  0
 37 35  2  0  0  0  0
M  END
>  <minimizedAffinity>
-5.62461615

$$$$

 OpenBabel03252502513D

 37 39  0  0  0  0  0  0  0  0999 V2000
   36.8720   29.5780   36.3340 C   0  0  0  0  0  0  0  0  0  0  0  0
   36.4960   28.4700   37.1020 C   0  0  0  0  0  0  0  0  0  0  0  0
   36.6780   28.5510   38.4750 C   0  0  0  0  0  0  0  0  0  0  0  0
   37.2040   29.6840   39.0080 N   0  0  0  0  0  0  0  0  0  0  0  0
   37.5580   30.7440   38.2310 C   0  0  0  0  0  0  0  0  0  0  0  0
   37.3900   30.6840   36.9030 N   0  0  0  0  0  0  0  0  0  0  0  0
   36.7700   29.6170   35.2590 H   0  0  0  0  0  0  0  0  0  0  0  0
   36.0950   27.6390   36.5750 H   0  0  0  0  0  0  0  0  0  0  0  0
   40.5280   30.7910   38.4360 Cl  0  0  0  0  0  0  0  0  0  0  0  0
   39.4710   32.0580   39.0200 C   0  0  0  0  0  0  0  0  0  0  0  0
   38.1190   31.9310   38.8730 C   0  0  0  0  0  0  0  0  0  0  0  0
   37.2450   32.9290   39.3320 C   0  0  0  0  0  0  0  0  0  0  0  0
   37.8280   34.0170   39.9240 C   0  0  0  0  0  0  0  0  0  0  0  0
   39.1690   34.1440   40.0710 C   0  0  0  0  0  0  0  0  0  0  0  0
   40.0100   33.1740   39.6250 C   0  0  0  0  0  0  0  0  0  0  0  0
   36.1600   32.8060   39.2030 H   0  0  0  0  0  0  0  0  0  0  0  0
   37.0920   34.7570   40.2590 H   0  0  0  0  0  0  0  0  0  0  0  0
   39.4880   35.0550   40.5560 H   0  0  0  0  0  0  0  0  0  0  0  0
   41.0650   33.3270   39.7660 H   0  0  0  0  0  0  0  0  0  0  0  0
   36.2780   27.3710   39.2910 C   0  0  0  0  0  0  0  0  0  0  0  0
   36.8350   26.5230   38.8960 H   0  0  0  0  0  0  0  0  0  0  0  0
   35.1900   27.2400   39.1600 H   0  0  0  0  0  0  0  0  0  0  0  0
   36.5210   27.5890   40.7770 C   0  0  0  0  0  0  0  0  0  0  0  0
   37.2000   28.4870   40.8130 H   0  0  0  0  0  0  0  0  0  0  0  0
   35.5900   27.8550   41.3080 H   0  0  0  0  0  0  0  0  0  0  0  0
   38.3360   26.8380   42.2040 C   0  0  0  0  0  0  0  0  0  0  0  0
   37.2810   26.4870   41.3890 C   0  0  0  0  0  0  0  0  0  0  0  0
   36.9690   25.1400   41.1720 C   0  0  0  0  0  0  0  0  0  0  0  0
   36.1340   24.9220   40.5260 H   0  0  0  0  0  0  0  0  0  0  0  0
   37.7180   24.1340   41.7740 C   0  0  0  0  0  0  0  0  0  0  0  0
   37.4660   23.0820   41.5980 H   0  0  0  0  0  0  0  0  0  0  0  0
   38.7830   24.5060   42.5950 C   0  0  0  0  0  3  0  0  0  0  0  0
   39.0840   25.8320   42.8050 C   0  0  0  0  0  3  0  0  0  0  0  0
   38.6540   29.3220   41.5020 H   0  0  0  0  0  0  0  0  0  0  0  0
   38.8200   28.4640   42.5500 S   0  0  0  0  0  0  0  0  0  0  0  0
   37.9650   28.9960   43.6790 O   0  0  0  0  0  0  0  0  0  0  0  0
   40.2430   28.4650   42.9990 O   0  0  0  0  0  0  0  0  0  0  0  0
  1  6  2  0  0  0  0
  1  2  1  0  0  0  0
  2  3  2  0  0  0  0
  3  4  1  0  0  0  0
  3 20  1  0  0  0  0
  5 11  1  0  0  0  0
  5  4  2  0  0  0  0
  6  5  1  0  0  0  0
  7  1  1  0  0  0  0
  8  2  1  0  0  0  0
  9 10  1  0  0  0  0
 10 15  1  0  0  0  0
 11 10  2  0  0  0  0
 11 12  1  0  0  0  0
 12 13  2  0  0  0  0
 13 14  1  0  0  0  0
 13 17  1  0  0  0  0
 14 18  1  0  0  0  0
 15 19  1  0  0  0  0
 15 14  2  0  0  0  0
 16 12  1  0  0  0  0
 20 23  1  0  0  0  0
 21 20  1  0  0  0  0
 22 20  1  0  0  0  0
 23 24  1  0  0  0  0
 23 25  1  0  0  0  0
 23 27  1  0  0  0  0
 26 35  1  0  0  0  0
 26 33  1  0  0  0  0
 27 26  2  0  0  0  0
 28 27  1  0  0  0  0
 28 30  2  0  0  0  0
 29 28  1  0  0  0  0
 30 32  1  0  0  0  0
 31 30  1  0  0  0  0
 32 33  2  0  0  0  0
 34 35  1  0  0  0  0
 35 37  2  0  0  0  0
 35 36  2  0  0  0  0
M  END
>  <minimizedAffinity>
-5.60394096

$$$$

 OpenBabel03252502513D

 37 39  0  0  0  0  0  0  0  0999 V2000
   35.7640   29.7080   39.8960 C   0  0  0  0  0  0  0  0  0  0  0  0
   35.8950   28.9410   41.0580 C   0  0  0  0  0  0  0  0  0  0  0  0
   36.9810   29.2050   41.8810 C   0  0  0  0  0  0  0  0  0  0  0  0
   37.8570   30.1800   41.5290 N   0  0  0  0  0  0  0  0  0  0  0  0
   37.6990   30.9080   40.3900 C   0  0  0  0  0  0  0  0  0  0  0  0
   36.6560   30.6670   39.5830 N   0  0  0  0  0  0  0  0  0  0  0  0
   34.9550   29.5820   39.1900 H   0  0  0  0  0  0  0  0  0  0  0  0
   35.1480   28.2050   41.2300 H   0  0  0  0  0  0  0  0  0  0  0  0
   39.9520   30.0300   38.6530 Cl  0  0  0  0  0  0  0  0  0  0  0  0
   39.7570   31.6510   39.2840 C   0  0  0  0  0  0  0  0  0  0  0  0
   38.6810   31.9440   40.0730 C   0  0  0  0  0  0  0  0  0  0  0  0
   38.4970   33.2330   40.5950 C   0  0  0  0  0  0  0  0  0  0  0  0
   39.4490   34.1610   40.2650 C   0  0  0  0  0  0  0  0  0  0  0  0
   40.5160   33.8710   39.4820 C   0  0  0  0  0  0  0  0  0  0  0  0
   40.6890   32.6200   38.9800 C   0  0  0  0  0  0  0  0  0  0  0  0
   37.6230   33.4470   41.2280 H   0  0  0  0  0  0  0  0  0  0  0  0
   39.2460   35.1440   40.7030 H   0  0  0  0  0  0  0  0  0  0  0  0
   41.1860   34.7000   39.3040 H   0  0  0  0  0  0  0  0  0  0  0  0
   41.5530   32.4470   38.3640 H   0  0  0  0  0  0  0  0  0  0  0  0
   37.1190   28.3870   43.1180 C   0  0  0  0  0  0  0  0  0  0  0  0
   36.2350   27.7540   43.1670 H   0  0  0  0  0  0  0  0  0  0  0  0
   37.1640   29.0900   43.9680 H   0  0  0  0  0  0  0  0  0  0  0  0
   38.4130   27.5860   43.1380 C   0  0  0  0  0  0  0  0  0  0  0  0
   39.1010   28.1630   42.4580 H   0  0  0  0  0  0  0  0  0  0  0  0
   38.8710   27.5770   44.1430 H   0  0  0  0  0  0  0  0  0  0  0  0
   39.4190   25.6060   42.1590 C   0  0  0  0  0  0  0  0  0  0  0  0
   38.2610   26.2590   42.5230 C   0  0  0  0  0  0  0  0  0  0  0  0
   37.0130   25.6630   42.3070 C   0  0  0  0  0  0  0  0  0  0  0  0
   36.1390   26.2170   42.6100 H   0  0  0  0  0  0  0  0  0  0  0  0
   36.9200   24.4040   41.7210 C   0  0  0  0  0  0  0  0  0  0  0  0
   35.9380   23.9460   41.5550 H   0  0  0  0  0  0  0  0  0  0  0  0
   38.1020   23.7580   41.3580 C   0  0  0  0  0  3  0  0  0  0  0  0
   39.3250   24.3490   41.5740 C   0  0  0  0  0  3  0  0  0  0  0  0
   41.1720   26.9660   43.5160 H   0  0  0  0  0  0  0  0  0  0  0  0
   41.0170   26.2350   42.3740 S   0  0  0  0  0  0  0  0  0  0  0  0
   41.9870   25.0770   42.4720 O   0  0  0  0  0  0  0  0  0  0  0  0
   41.3840   27.0540   41.1810 O   0  0  0  0  0  0  0  0  0  0  0  0
  1  2  1  0  0  0  0
  2  8  1  0  0  0  0
  2  3  2  0  0  0  0
  3 20  1  0  0  0  0
  4  3  1  0  0  0  0
  5  4  2  0  0  0  0
  6  1  2  0  0  0  0
  6  5  1  0  0  0  0
  7  1  1  0  0  0  0
  9 10  1  0  0  0  0
 10 11  1  0  0  0  0
 11  5  1  0  0  0  0
 11 12  2  0  0  0  0
 12 16  1  0  0  0  0
 13 12  1  0  0  0  0
 13 17  1  0  0  0  0
 14 13  2  0  0  0  0
 15 10  2  0  0  0  0
 15 14  1  0  0  0  0
 18 14  1  0  0  0  0
 19 15  1  0  0  0  0
 20 23  1  0  0  0  0
 20 21  1  0  0  0  0
 20 22  1  0  0  0  0
 23 25  1  0  0  0  0
 24 23  1  0  0  0  0
 26 35  1  0  0  0  0
 26 27  1  0  0  0  0
 27 23  1  0  0  0  0
 28 27  2  0  0  0  0
 28 29  1  0  0  0  0
 30 28  1  0  0  0  0
 31 30  1  0  0  0  0
 32 33  1  0  0  0  0
 32 30  2  0  0  0  0
 33 26  2  0  0  0  0
 35 36  2  0  0  0  0
 35 34  1  0  0  0  0
 37 35  2  0  0  0  0
M  END
>  <minimizedAffinity>
-5.60297966

$$$$

 OpenBabel03252502513D

 37 39  0  0  0  0  0  0  0  0999 V2000
   33.0220   26.7660   36.1980 C   0  0  0  0  0  0  0  0  0  0  0  0
   34.1250   26.9300   37.0420 C   0  0  0  0  0  0  0  0  0  0  0  0
   34.4130   28.2150   37.4770 C   0  0  0  0  0  0  0  0  0  0  0  0
   33.6250   29.2440   37.0720 N   0  0  0  0  0  0  0  0  0  0  0  0
   32.5580   29.0480   36.2500 C   0  0  0  0  0  0  0  0  0  0  0  0
   32.2640   27.8140   35.8200 N   0  0  0  0  0  0  0  0  0  0  0  0
   32.7130   25.8080   35.8050 H   0  0  0  0  0  0  0  0  0  0  0  0
   34.6680   26.0520   37.2920 H   0  0  0  0  0  0  0  0  0  0  0  0
   30.7190   30.0910   38.3470 Cl  0  0  0  0  0  0  0  0  0  0  0  0
   30.8760   30.7630   36.7380 C   0  0  0  0  0  0  0  0  0  0  0  0
   31.7530   30.2030   35.8540 C   0  0  0  0  0  0  0  0  0  0  0  0
   31.9010   30.7180   34.5570 C   0  0  0  0  0  0  0  0  0  0  0  0
   31.1210   31.7990   34.2440 C   0  0  0  0  0  0  0  0  0  0  0  0
   30.2500   32.3550   35.1200 C   0  0  0  0  0  0  0  0  0  0  0  0
   30.1120   31.8520   36.3740 C   0  0  0  0  0  0  0  0  0  0  0  0
   32.6140   30.2510   33.8620 H   0  0  0  0  0  0  0  0  0  0  0  0
   31.2840   32.1510   33.2190 H   0  0  0  0  0  0  0  0  0  0  0  0
   29.7010   33.2030   34.7370 H   0  0  0  0  0  0  0  0  0  0  0  0
   29.4060   32.3330   37.0280 H   0  0  0  0  0  0  0  0  0  0  0  0
   35.5890   28.3890   38.3760 C   0  0  0  0  0  0  0  0  0  0  0  0
   35.2430   28.9800   39.2210 H   0  0  0  0  0  0  0  0  0  0  0  0
   36.3630   28.9200   37.7960 H   0  0  0  0  0  0  0  0  0  0  0  0
   36.1900   27.0580   38.8010 C   0  0  0  0  0  0  0  0  0  0  0  0
   35.3500   26.3210   38.6570 H   0  0  0  0  0  0  0  0  0  0  0  0
   37.0170   26.7520   38.1360 H   0  0  0  0  0  0  0  0  0  0  0  0
   36.9620   25.8200   40.7420 C   0  0  0  0  0  0  0  0  0  0  0  0
   36.5140   27.0210   40.2360 C   0  0  0  0  0  0  0  0  0  0  0  0
   36.3830   28.1370   41.0700 C   0  0  0  0  0  0  0  0  0  0  0  0
   36.0290   29.0520   40.6230 H   0  0  0  0  0  0  0  0  0  0  0  0
   36.7020   28.0530   42.4220 C   0  0  0  0  0  0  0  0  0  0  0  0
   36.5970   28.9330   43.0670 H   0  0  0  0  0  0  0  0  0  0  0  0
   37.1540   26.8300   42.9180 C   0  0  0  0  0  3  0  0  0  0  0  0
   37.2810   25.7360   42.0920 C   0  0  0  0  0  3  0  0  0  0  0  0
   37.4250   24.5960   38.4940 H   0  0  0  0  0  0  0  0  0  0  0  0
   37.1660   24.3720   39.8140 S   0  0  0  0  0  0  0  0  0  0  0  0
   38.3530   23.6080   40.3600 O   0  0  0  0  0  0  0  0  0  0  0  0
   35.9500   23.5200   39.9660 O   0  0  0  0  0  0  0  0  0  0  0  0
  1  2  1  0  0  0  0
  2  8  1  0  0  0  0
  2  3  2  0  0  0  0
  3 20  1  0  0  0  0
  4  3  1  0  0  0  0
  5  4  2  0  0  0  0
  6  1  2  0  0  0  0
  6  5  1  0  0  0  0
  7  1  1  0  0  0  0
 10  9  1  0  0  0  0
 11  5  1  0  0  0  0
 11 10  2  0  0  0  0
 12 11  1  0  0  0  0
 13 12  2  0  0  0  0
 13 14  1  0  0  0  0
 14 15  2  0  0  0  0
 15 10  1  0  0  0  0
 15 19  1  0  0  0  0
 16 12  1  0  0  0  0
 17 13  1  0  0  0  0
 18 14  1  0  0  0  0
 20 23  1  0  0  0  0
 20 21  1  0  0  0  0
 22 20  1  0  0  0  0
 23 27  1  0  0  0  0
 24 23  1  0  0  0  0
 25 23  1  0  0  0  0
 26 33  1  0  0  0  0
 27 26  2  0  0  0  0
 27 28  1  0  0  0  0
 28 30  2  0  0  0  0
 29 28  1  0  0  0  0
 30 32  1  0  0  0  0
 30 31  1  0  0  0  0
 33 32  2  0  0  0  0
 34 35  1  0  0  0  0
 35 37  2  0  0  0  0
 35 36  2  0  0  0  0
 35 26  1  0  0  0  0
M  END
>  <minimizedAffinity>
-5.59769726

$$$$
