
 OpenBabel03252508593D

 48 50  0  0  1  0  0  0  0  0999 V2000
   47.0570   34.0630   42.9600 N   0  0  0  0  0  0  0  0  0  0  0  0
   46.8000   35.4080   42.5730 C   0  0  0  0  0  0  0  0  0  0  0  0
   45.3740   35.8580   42.6910 C   0  0  0  0  0  0  0  0  0  0  0  0
   44.6070   35.2170   43.8120 C   0  0  0  0  0  0  0  0  0  0  0  0
   45.4850   34.3210   44.6530 C   0  0  0  0  0  0  0  0  0  0  0  0
   46.0890   33.3150   43.6080 C   0  0  2  0  0  0  0  0  0  0  0  0
   47.1500   35.7040   41.5820 H   0  0  0  0  0  0  0  0  0  0  0  0
   47.3940   36.0580   43.2830 H   0  0  0  0  0  0  0  0  0  0  0  0
   45.3250   36.9540   42.8400 H   0  0  0  0  0  0  0  0  0  0  0  0
   44.8840   35.6880   41.6940 H   0  0  0  0  0  0  0  0  0  0  0  0
   43.8500   34.5480   43.3470 H   0  0  0  0  0  0  0  0  0  0  0  0
   44.0510   35.9500   44.4190 H   0  0  0  0  0  0  0  0  0  0  0  0
   44.8260   33.7450   45.3330 H   0  0  0  0  0  0  0  0  0  0  0  0
   46.3070   34.8470   45.1610 H   0  0  0  0  0  0  0  0  0  0  0  0
   45.2120   32.9580   43.0320 H   0  0  0  0  0  0  0  0  0  0  0  0
   48.0180   33.3860   42.1310 C   0  0  0  0  0  0  0  0  0  0  0  0
   48.6860   34.1770   41.7010 H   0  0  0  0  0  0  0  0  0  0  0  0
   48.6700   32.6860   42.6540 H   0  0  0  0  0  0  0  0  0  0  0  0
   47.2860   32.6530   41.0460 C   0  0  0  0  0  0  0  0  0  0  0  0
   46.2380   33.0070   40.9750 H   0  0  0  0  0  0  0  0  0  0  0  0
   47.2560   31.5530   41.1890 H   0  0  0  0  0  0  0  0  0  0  0  0
   49.3460   32.3220   37.9200 C   0  0  0  0  0  0  0  0  0  0  0  0
   48.7390   32.0400   39.1590 C   0  0  0  0  0  0  0  0  0  0  0  0
   47.9170   32.9680   39.7390 C   0  0  0  0  0  0  0  0  0  0  0  0
   47.7270   34.1200   39.0850 N   0  0  0  0  0  0  0  0  0  0  0  0
   48.3060   34.3930   37.9000 C   0  0  0  0  0  0  0  0  0  0  0  0
   49.1150   33.4990   37.3110 N   0  0  0  0  0  0  0  0  0  0  0  0
   49.9980   31.5880   37.4580 H   0  0  0  0  0  0  0  0  0  0  0  0
   48.9760   31.0720   39.5800 H   0  0  0  0  0  0  0  0  0  0  0  0
   48.0910   35.3560   37.4450 H   0  0  0  0  0  0  0  0  0  0  0  0
   46.6510   32.3530   44.4320 O   0  0  0  0  0  0  0  0  0  0  0  0
   44.6370   30.9380   43.4370 O   0  0  0  0  0  0  0  0  0  0  0  0
   45.8990   30.8600   44.3100 P   0  0  2  0  0  0  0  0  0  0  0  0
   45.3140   30.4860   45.8760 O   0  0  0  0  0  0  0  0  0  0  0  0
   44.8930   29.5800   45.7740 H   0  0  0  0  0  0  0  0  0  0  0  0
   46.9010   29.6290   43.8470 O   0  0  0  0  0  0  0  0  0  0  0  0
   48.0160   29.0040   41.9640 C   0  0  0  0  0  0  0  0  0  0  0  0
   48.1100   29.6720   43.1910 C   0  0  0  0  0  0  0  0  0  0  0  0
   49.3220   30.2350   43.5330 C   0  0  0  0  0  0  0  0  0  0  0  0
   49.2740   30.7200   44.4970 H   0  0  0  0  0  0  0  0  0  0  0  0
   50.4040   30.1380   42.6860 C   0  0  0  0  0  0  0  0  0  0  0  0
   51.3200   30.6090   43.0320 H   0  0  0  0  0  0  0  0  0  0  0  0
   50.3260   29.4830   41.4730 C   0  0  0  0  0  3  0  0  0  0  0  0
   49.1230   28.9140   41.1120 C   0  0  0  0  0  3  0  0  0  0  0  0
   46.8990   27.3350   40.3360 H   0  0  0  0  0  0  0  0  0  0  0  0
   46.5690   28.2170   41.3330 S   0  0  0  0  0  0  0  0  0  0  0  0
   45.8880   27.4200   42.4150 O   0  0  0  0  0  0  0  0  0  0  0  0
   45.6360   29.3020   40.8270 O   0  0  0  0  0  0  0  0  0  0  0  0
  1  6  1  0  0  0  0
  2  3  1  0  0  0  0
  2  1  1  0  0  0  0
  2  8  1  0  0  0  0
  3  9  1  0  0  0  0
  3  4  1  0  0  0  0
  4 12  1  0  0  0  0
  4  5  1  0  0  0  0
  5 14  1  0  0  0  0
  5 13  1  0  0  0  0
  6 15  1  6  0  0  0
  6 31  1  0  0  0  0
  6  5  1  0  0  0  0
  7  2  1  0  0  0  0
 10  3  1  0  0  0  0
 11  4  1  0  0  0  0
 16 18  1  0  0  0  0
 16  1  1  0  0  0  0
 17 16  1  0  0  0  0
 19 21  1  0  0  0  0
 19 16  1  0  0  0  0
 20 19  1  0  0  0  0
 22 23  1  0  0  0  0
 23 29  1  0  0  0  0
 23 24  2  0  0  0  0
 24 19  1  0  0  0  0
 25 24  1  0  0  0  0
 26 25  2  0  0  0  0
 27 26  1  0  0  0  0
 27 22  2  0  0  0  0
 28 22  1  0  0  0  0
 30 26  1  0  0  0  0
 33 32  2  6  0  0  0
 33 31  1  0  0  0  0
 33 34  1  0  0  0  0
 35 34  1  0  0  0  0
 36 33  1  0  0  0  0
 37 38  1  0  0  0  0
 38 39  2  0  0  0  0
 38 36  1  0  0  0  0
 39 40  1  0  0  0  0
 41 42  1  0  0  0  0
 41 39  1  0  0  0  0
 43 41  2  0  0  0  0
 44 43  1  0  0  0  0
 44 37  2  0  0  0  0
 45 46  1  0  0  0  0
 46 37  1  0  0  0  0
 46 47  2  0  0  0  0
 48 46  2  0  0  0  0
M  END
>  <minimizedAffinity>
-3.54180551

>  <minimizedRMSD>
2.24597502

$$$$
