
 OpenBabel03242513043D

 38 41  0  0  0  0  0  0  0  0999 V2000
   45.8030   32.6610   41.7630 C   0  0  0  0  0  0  0  0  0  0  0  0
   46.8310   33.4720   41.3000 C   0  0  0  0  0  0  0  0  0  0  0  0
   47.8370   33.7770   42.2100 C   0  0  0  0  0  0  0  0  0  0  0  0
   47.7360   33.2610   43.4720 N   0  0  0  0  0  0  0  0  0  0  0  0
   46.7250   32.4800   43.8810 C   0  0  0  0  0  0  0  0  0  0  0  0
   45.7470   32.1760   43.0170 N   0  0  0  0  0  0  0  0  0  0  0  0
   44.9690   32.3470   41.1510 H   0  0  0  0  0  0  0  0  0  0  0  0
   47.3900   30.8130   45.5700 C   0  0  0  0  0  0  0  0  0  0  0  0
   46.7110   31.9840   45.2410 C   0  0  0  0  0  0  0  0  0  0  0  0
   45.9990   32.7250   46.1780 C   0  0  0  0  0  0  0  0  0  0  0  0
   45.9540   32.2900   47.5040 C   0  0  0  0  0  0  0  0  0  0  0  0
   45.3710   32.7540   48.6500 N   0  0  0  0  0  0  0  0  0  0  0  0
   45.7070   31.8540   49.6520 C   0  0  0  0  0  0  0  0  0  0  0  0
   46.4800   30.8730   49.0950 N   0  0  0  0  0  0  0  0  0  0  0  0
   46.6390   31.1270   47.7880 C   0  0  0  0  0  0  0  0  0  0  0  0
   47.3460   30.3780   46.8910 C   0  0  0  0  0  0  0  0  0  0  0  0
   47.9220   30.2890   44.7890 H   0  0  0  0  0  0  0  0  0  0  0  0
   45.4740   33.6340   45.9170 H   0  0  0  0  0  0  0  0  0  0  0  0
   44.8220   33.6180   48.6050 H   0  0  0  0  0  0  0  0  0  0  0  0
   45.3390   32.0420   50.6520 H   0  0  0  0  0  0  0  0  0  0  0  0
   47.8630   29.4850   47.1450 H   0  0  0  0  0  0  0  0  0  0  0  0
   48.9750   34.6350   41.8070 C   0  0  0  0  0  0  0  0  0  0  0  0
   48.5080   35.8140   41.2130 F   0  0  0  0  0  0  0  0  0  0  0  0
   49.7130   35.0120   42.8900 F   0  0  0  0  0  0  0  0  0  0  0  0
   49.7450   33.9440   40.9040 F   0  0  0  0  0  0  0  0  0  0  0  0
   46.8450   33.9390   40.0260 O   0  0  0  0  0  0  0  0  0  0  0  0
   46.9650   32.9150   37.9710 C   0  0  0  0  0  0  0  0  0  0  0  0
   46.1600   33.3580   39.0000 C   0  0  0  0  0  0  0  0  0  0  0  0
   44.7980   33.1720   38.8870 C   0  0  0  0  0  0  0  0  0  0  0  0
   44.2420   33.5500   39.7430 H   0  0  0  0  0  0  0  0  0  0  0  0
   44.1820   32.5750   37.8210 C   0  0  0  0  0  0  0  0  0  0  0  0
   43.0920   32.4790   37.8330 H   0  0  0  0  0  0  0  0  0  0  0  0
   44.9880   32.1330   36.7910 C   0  0  0  0  0  3  0  0  0  0  0  0
   46.3730   32.3000   36.8610 C   0  0  0  0  0  3  0  0  0  0  0  0
   49.3850   32.7380   38.9320 H   0  0  0  0  0  0  0  0  0  0  0  0
   48.7060   32.9560   37.7900 S   0  0  0  0  0  0  0  0  0  0  0  0
   49.1340   31.9440   36.7420 O   0  0  0  0  0  0  0  0  0  0  0  0
   49.1330   34.3000   37.2410 O   0  0  0  0  0  0  0  0  0  0  0  0
  1  6  1  0  0  0  0
  2  1  2  0  0  0  0
  2  3  1  0  0  0  0
  3  4  2  0  0  0  0
  4  5  1  0  0  0  0
  5  9  1  0  0  0  0
  6  5  2  0  0  0  0
  7  1  1  0  0  0  0
  8 16  1  0  0  0  0
  9  8  2  0  0  0  0
  9 10  1  0  0  0  0
 10 11  2  0  0  0  0
 11 15  1  0  0  0  0
 11 12  1  0  0  0  0
 12 13  1  0  0  0  0
 13 20  1  0  0  0  0
 14 13  2  0  0  0  0
 15 14  1  0  0  0  0
 16 21  1  0  0  0  0
 16 15  2  0  0  0  0
 17  8  1  0  0  0  0
 18 10  1  0  0  0  0
 19 12  1  0  0  0  0
 22  3  1  0  0  0  0
 22 24  1  0  0  0  0
 23 22  1  0  0  0  0
 25 22  1  0  0  0  0
 26  2  1  0  0  0  0
 27 28  1  0  0  0  0
 28 26  1  0  0  0  0
 29 28  2  0  0  0  0
 29 30  1  0  0  0  0
 31 32  1  0  0  0  0
 31 29  1  0  0  0  0
 33 34  1  0  0  0  0
 33 31  2  0  0  0  0
 34 27  2  0  0  0  0
 36 27  1  0  0  0  0
 36 35  1  0  0  0  0
 37 36  2  0  0  0  0
 38 36  2  0  0  0  0
M  END
>  <minimizedAffinity>
-5.70570755

>  <minimizedRMSD>
1.08669889

$$$$
