
 OpenBabel03242515553D

 40 43  0  0  0  0  0  0  0  0999 V2000
   46.4910   32.4770   46.1400 C   0  0  0  0  0  0  0  0  0  0  0  0
   47.1460   32.7270   47.3750 C   0  0  0  0  0  0  0  0  0  0  0  0
   47.5200   31.7400   48.2540 C   0  0  0  0  0  0  0  0  0  0  0  0
   47.2700   30.4470   47.9710 C   0  0  0  0  0  0  0  0  0  0  0  0
   46.6290   30.1380   46.7740 C   0  0  0  0  0  0  0  0  0  0  0  0
   46.3920   28.8200   46.5250 C   0  0  0  0  0  0  0  0  0  0  0  0
   45.7620   28.4420   45.3650 C   0  0  0  0  0  0  0  0  0  0  0  0
   45.3950   29.4640   44.4940 C   0  0  0  0  0  0  0  0  0  0  0  0
   45.6650   30.7440   44.8180 C   0  0  0  0  0  0  0  0  0  0  0  0
   46.2730   31.1560   45.9240 C   0  0  0  0  0  0  0  0  0  0  0  0
   47.3730   33.7470   47.6550 H   0  0  0  0  0  0  0  0  0  0  0  0
   48.0150   32.0060   49.1750 H   0  0  0  0  0  0  0  0  0  0  0  0
   47.5760   29.6980   48.6820 H   0  0  0  0  0  0  0  0  0  0  0  0
   46.7130   28.0570   47.2630 H   0  0  0  0  0  0  0  0  0  0  0  0
   45.6180   27.3520   45.2560 H   0  0  0  0  0  0  0  0  0  0  0  0
   44.9280   28.9730   43.6350 H   0  0  0  0  0  0  0  0  0  0  0  0
   44.6190   35.3540   45.0800 C   0  0  0  0  0  0  0  0  0  0  0  0
   45.2160   35.6750   43.8220 C   0  0  0  0  0  0  0  0  0  0  0  0
   46.2860   34.8750   43.3290 C   0  0  0  0  0  0  0  0  0  0  0  0
   46.6620   33.8550   44.1050 N   0  0  0  0  0  0  0  0  0  0  0  0
   46.1410   33.5440   45.2440 C   0  0  0  0  0  0  0  0  0  0  0  0
   45.1150   34.3100   45.7170 N   0  0  0  0  0  0  0  0  0  0  0  0
   43.8080   35.9670   45.4440 H   0  0  0  0  0  0  0  0  0  0  0  0
   46.6930   35.1660   42.3800 H   0  0  0  0  0  0  0  0  0  0  0  0
   44.6700   36.8020   43.1560 N   0  0  0  0  0  0  0  0  0  0  0  0
   44.2190   36.7080   42.2080 H   0  0  0  0  0  0  0  0  0  0  0  0
   44.6810   37.7800   43.5590 H   0  0  0  0  0  0  0  0  0  0  0  0
   45.1870   31.5040   43.7890 O   0  0  0  0  0  0  0  0  0  0  0  0
   45.2890   30.9670   41.4320 C   0  0  0  0  0  0  0  0  0  0  0  0
   44.5640   31.0330   42.6280 C   0  0  0  0  0  0  0  0  0  0  0  0
   43.2460   30.6100   42.5790 C   0  0  0  0  0  0  0  0  0  0  0  0
   42.6680   30.6520   43.4920 H   0  0  0  0  0  0  0  0  0  0  0  0
   42.6580   30.1470   41.4250 C   0  0  0  0  0  0  0  0  0  0  0  0
   41.6280   29.8240   41.4170 H   0  0  0  0  0  0  0  0  0  0  0  0
   43.3940   30.0940   40.2660 C   0  0  0  0  0  3  0  0  0  0  0  0
   44.7060   30.4990   40.2500 C   0  0  0  0  0  3  0  0  0  0  0  0
   47.1840   32.7080   41.7640 H   0  0  0  0  0  0  0  0  0  0  0  0
   46.9720   31.4320   41.3120 S   0  0  0  0  0  0  0  0  0  0  0  0
   47.8940   30.4330   41.9560 O   0  0  0  0  0  0  0  0  0  0  0  0
   47.3490   31.4520   39.8470 O   0  0  0  0  0  0  0  0  0  0  0  0
  1  2  1  0  0  0  0
  2 11  1  0  0  0  0
  2  3  2  0  0  0  0
  3 12  1  0  0  0  0
  4  3  1  0  0  0  0
  4 13  1  0  0  0  0
  5  4  2  0  0  0  0
  6  5  1  0  0  0  0
  6 14  1  0  0  0  0
  7  6  2  0  0  0  0
  8  9  2  0  0  0  0
  8  7  1  0  0  0  0
  9 10  1  0  0  0  0
 10  1  2  0  0  0  0
 10  5  1  0  0  0  0
 15  7  1  0  0  0  0
 16  8  1  0  0  0  0
 17 23  1  0  0  0  0
 17 22  1  0  0  0  0
 18 17  2  0  0  0  0
 19 18  1  0  0  0  0
 19 20  2  0  0  0  0
 20 21  1  0  0  0  0
 21 22  2  0  0  0  0
 21  1  1  0  0  0  0
 24 19  1  0  0  0  0
 25 27  1  0  0  0  0
 25 18  1  0  0  0  0
 26 25  1  0  0  0  0
 28  9  1  0  0  0  0
 29 30  1  0  0  0  0
 30 28  1  0  0  0  0
 31 30  2  0  0  0  0
 31 32  1  0  0  0  0
 33 31  1  0  0  0  0
 34 33  1  0  0  0  0
 35 33  2  0  0  0  0
 36 35  1  0  0  0  0
 36 29  2  0  0  0  0
 38 29  1  0  0  0  0
 38 37  1  0  0  0  0
 38 39  2  0  0  0  0
 40 38  2  0  0  0  0
M  END
>  <minimizedAffinity>
-4.94576073

>  <minimizedRMSD>
2.82094121

$$$$
