
 OpenBabel03252509233D

 30 32  0  0  1  0  0  0  0  0999 V2000
   46.5690   34.7660   42.0440 C   0  0  1  0  0  0  0  0  0  0  0  0
   48.0240   35.2900   42.0930 C   0  0  0  0  0  0  0  0  0  0  0  0
   47.5960   33.8290   41.7620 C   0  0  2  0  0  0  0  0  0  0  0  0
   45.9450   35.2790   41.3060 H   0  0  0  0  0  0  0  0  0  0  0  0
   48.2670   35.9370   41.2570 H   0  0  0  0  0  0  0  0  0  0  0  0
   48.5000   35.4840   43.0520 H   0  0  0  0  0  0  0  0  0  0  0  0
   47.8840   33.1280   42.6120 H   0  0  0  0  0  0  0  0  0  0  0  0
   44.4920   35.6890   45.0400 C   0  0  0  0  0  0  0  0  0  0  0  0
   45.0550   35.7730   43.7400 C   0  0  0  0  0  0  0  0  0  0  0  0
   45.9770   34.7820   43.4440 C   0  0  0  0  0  0  0  0  0  0  0  0
   46.3040   33.8020   44.3630 N   0  0  0  0  0  0  0  0  0  0  0  0
   45.7370   33.7800   45.5720 C   0  0  0  0  0  0  0  0  0  0  0  0
   44.8220   34.7300   45.9150 N   0  0  0  0  0  0  0  0  0  0  0  0
   43.7700   36.4410   45.3110 H   0  0  0  0  0  0  0  0  0  0  0  0
   46.1070   32.9510   46.1550 H   0  0  0  0  0  0  0  0  0  0  0  0
   44.7350   36.8060   42.8070 N   0  0  0  0  0  0  0  0  0  0  0  0
   45.4210   37.5690   43.0040 H   0  0  0  0  0  0  0  0  0  0  0  0
   43.9680   36.7240   42.1210 H   0  0  0  0  0  0  0  0  0  0  0  0
   49.0470   32.5720   39.9870 C   0  0  0  0  0  0  0  0  0  0  0  0
   48.0050   33.3180   40.4330 C   0  0  0  0  0  0  0  0  0  0  0  0
   47.0590   33.7000   39.4710 C   0  0  0  0  0  0  0  0  0  0  0  0
   46.1520   34.3000   39.6300 H   0  0  0  0  0  0  0  0  0  0  0  0
   47.1800   33.3360   38.1380 C   0  0  0  0  0  0  0  0  0  0  0  0
   46.4800   33.6040   37.3600 H   0  0  0  0  0  0  0  0  0  0  0  0
   48.2420   32.5850   37.7340 C   0  0  0  0  0  3  0  0  0  0  0  0
   49.1810   32.2030   38.6690 C   0  0  0  0  0  3  0  0  0  0  0  0
   50.5260   33.1550   42.0130 H   0  0  0  0  0  0  0  0  0  0  0  0
   50.2320   32.1220   41.1640 S   0  0  0  0  0  0  0  0  0  0  0  0
   51.5520   31.8210   40.4600 O   0  0  0  0  0  0  0  0  0  0  0  0
   49.8060   30.9520   41.9900 O   0  0  0  0  0  0  0  0  0  0  0  0
  1  4  1  6  0  0  0
  1  2  1  0  0  0  0
  1 10  1  0  0  0  0
  2  6  1  0  0  0  0
  3  1  1  0  0  0  0
  3  2  1  0  0  0  0
  3  7  1  1  0  0  0
  5  2  1  0  0  0  0
  8 14  1  0  0  0  0
  8 13  1  0  0  0  0
  9  8  2  0  0  0  0
 10  9  1  0  0  0  0
 10 11  2  0  0  0  0
 11 12  1  0  0  0  0
 12 13  2  0  0  0  0
 12 15  1  0  0  0  0
 16 17  1  0  0  0  0
 16  9  1  0  0  0  0
 18 16  1  0  0  0  0
 19 20  1  0  0  0  0
 19 28  1  0  0  0  0
 20  3  1  0  0  0  0
 21 22  1  0  0  0  0
 21 20  2  0  0  0  0
 23 21  1  0  0  0  0
 24 23  1  0  0  0  0
 25 23  2  0  0  0  0
 25 26  1  0  0  0  0
 26 19  2  0  0  0  0
 28 30  2  0  0  0  0
 28 27  1  0  0  0  0
 29 28  2  0  0  0  0
M  END
>  <minimizedAffinity>
-5.07179022

>  <minimizedRMSD>
0.828857005

$$$$
