
 OpenBabel03252503533D

 39 41  0  0  1  0  0  0  0  0999 V2000
   46.3980   31.9700   46.1960 N   0  0  0  0  0  0  0  0  0  0  0  0
   45.5810   32.5820   47.2490 C   0  0  0  0  0  0  0  0  0  0  0  0
   46.3270   32.3530   48.5510 C   0  0  0  0  0  0  0  0  0  0  0  0
   46.2910   30.8870   48.8780 C   0  0  0  0  0  0  0  0  0  0  0  0
   46.7780   30.1120   47.6980 C   0  0  0  0  0  0  0  0  0  0  0  0
   47.2990   30.9470   46.5780 C   0  0  1  0  0  0  0  0  0  0  0  0
   45.5550   33.6770   47.0410 H   0  0  0  0  0  0  0  0  0  0  0  0
   44.5880   32.1400   47.3290 H   0  0  0  0  0  0  0  0  0  0  0  0
   47.3590   32.7580   48.5090 H   0  0  0  0  0  0  0  0  0  0  0  0
   45.8150   32.8820   49.3620 H   0  0  0  0  0  0  0  0  0  0  0  0
   45.2580   30.6460   49.1890 H   0  0  0  0  0  0  0  0  0  0  0  0
   46.9460   30.6780   49.7660 H   0  0  0  0  0  0  0  0  0  0  0  0
   47.5200   29.3270   47.9670 H   0  0  0  0  0  0  0  0  0  0  0  0
   45.8630   29.5840   47.2890 H   0  0  0  0  0  0  0  0  0  0  0  0
   48.2610   31.3890   46.8770 H   0  0  0  0  0  0  0  0  0  0  0  0
   47.0500   33.5810   42.9340 C   0  0  0  0  0  0  0  0  0  0  0  0
   47.1880   33.2300   44.2790 C   0  0  0  0  0  0  0  0  0  0  0  0
   46.2610   32.3880   44.8640 C   0  0  0  0  0  0  0  0  0  0  0  0
   45.2380   31.9360   44.0980 N   0  0  0  0  0  0  0  0  0  0  0  0
   45.1000   32.2790   42.7880 C   0  0  0  0  0  0  0  0  0  0  0  0
   46.0100   33.1020   42.2090 N   0  0  0  0  0  0  0  0  0  0  0  0
   48.0140   33.6910   44.7850 H   0  0  0  0  0  0  0  0  0  0  0  0
   44.2700   31.8990   42.2050 H   0  0  0  0  0  0  0  0  0  0  0  0
   48.1020   34.4580   42.3340 C   0  0  0  0  0  0  0  0  0  0  0  0
   48.6070   33.9270   41.1520 F   0  0  0  0  0  0  0  0  0  0  0  0
   47.5320   35.6950   42.1170 F   0  0  0  0  0  0  0  0  0  0  0  0
   49.1410   34.6210   43.2410 F   0  0  0  0  0  0  0  0  0  0  0  0
   46.6140   28.9220   45.2250 C   0  0  0  0  0  0  0  0  0  0  0  0
   47.5740   29.9090   45.5080 C   0  0  0  0  0  0  0  0  0  0  0  0
   48.7410   29.8870   44.7370 C   0  0  0  0  0  0  0  0  0  0  0  0
   49.4870   30.6400   44.9410 H   0  0  0  0  0  0  0  0  0  0  0  0
   48.8990   28.9280   43.7600 C   0  0  0  0  0  0  0  0  0  0  0  0
   49.8350   28.9860   43.2100 H   0  0  0  0  0  0  0  0  0  0  0  0
   47.9340   27.9740   43.5100 C   0  0  0  0  0  3  0  0  0  0  0  0
   46.7800   27.9780   44.2560 C   0  0  0  0  0  3  0  0  0  0  0  0
   45.0290   29.7590   47.1200 H   0  0  0  0  0  0  0  0  0  0  0  0
   45.1110   28.8310   46.1160 S   0  0  0  0  0  0  0  0  0  0  0  0
   43.9290   29.0490   45.2130 O   0  0  0  0  0  0  0  0  0  0  0  0
   44.9920   27.4610   46.7640 O   0  0  0  0  0  0  0  0  0  0  0  0
  1  6  1  0  0  0  0
  1  2  1  0  0  0  0
  2  8  1  0  0  0  0
  2  3  1  0  0  0  0
  3  4  1  0  0  0  0
  3 10  1  0  0  0  0
  4 11  1  0  0  0  0
  4 12  1  0  0  0  0
  5 13  1  0  0  0  0
  5  4  1  0  0  0  0
  6 15  1  1  0  0  0
  6  5  1  0  0  0  0
  7  2  1  0  0  0  0
  9  3  1  0  0  0  0
 14  5  1  0  0  0  0
 16 17  1  0  0  0  0
 17 22  1  0  0  0  0
 17 18  2  0  0  0  0
 18  1  1  0  0  0  0
 19 18  1  0  0  0  0
 20 19  2  0  0  0  0
 21 20  1  0  0  0  0
 21 16  2  0  0  0  0
 23 20  1  0  0  0  0
 24 16  1  0  0  0  0
 24 27  1  0  0  0  0
 25 24  1  0  0  0  0
 26 24  1  0  0  0  0
 28 29  1  0  0  0  0
 28 37  1  0  0  0  0
 29  6  1  0  0  0  0
 30 31  1  0  0  0  0
 30 29  2  0  0  0  0
 32 30  1  0  0  0  0
 33 32  1  0  0  0  0
 34 32  2  0  0  0  0
 34 35  1  0  0  0  0
 35 28  2  0  0  0  0
 37 39  2  0  0  0  0
 37 36  1  0  0  0  0
 38 37  2  0  0  0  0
M  END
>  <minimizedAffinity>
-4.40928173

>  <minimizedRMSD>
2.13375449

$$$$
