
 OpenBabel03242512573D

 31 33  0  0  0  0  0  0  0  0999 V2000
   45.4040   33.1370   41.1780 F   0  0  0  0  0  0  0  0  0  0  0  0
   46.5210   33.9120   41.0210 C   0  0  0  0  0  0  0  0  0  0  0  0
   46.9410   34.7570   42.0020 C   0  0  0  0  0  0  0  0  0  0  0  0
   48.0840   35.4950   41.7370 C   0  0  0  0  0  0  0  0  0  0  0  0
   48.7820   35.4020   40.5570 C   0  0  0  0  0  0  0  0  0  0  0  0
   48.3120   34.5300   39.6010 C   0  0  0  0  0  0  0  0  0  0  0  0
   47.1770   33.7760   39.8200 C   0  0  0  0  0  0  0  0  0  0  0  0
   48.4310   36.1750   42.5140 H   0  0  0  0  0  0  0  0  0  0  0  0
   49.6740   36.0300   40.4500 H   0  0  0  0  0  0  0  0  0  0  0  0
   48.8760   34.4770   38.6890 H   0  0  0  0  0  0  0  0  0  0  0  0
   44.5100   35.8680   44.6870 C   0  0  0  0  0  0  0  0  0  0  0  0
   45.2340   35.8200   43.4910 C   0  0  0  0  0  0  0  0  0  0  0  0
   46.1760   34.8290   43.2380 C   0  0  0  0  0  0  0  0  0  0  0  0
   46.3510   33.9080   44.2270 N   0  0  0  0  0  0  0  0  0  0  0  0
   45.6480   33.9650   45.3770 C   0  0  0  0  0  0  0  0  0  0  0  0
   44.7440   34.9270   45.6030 N   0  0  0  0  0  0  0  0  0  0  0  0
   43.8320   36.7140   44.6840 H   0  0  0  0  0  0  0  0  0  0  0  0
   45.1330   36.5240   42.6750 H   0  0  0  0  0  0  0  0  0  0  0  0
   45.7510   33.2600   46.1900 H   0  0  0  0  0  0  0  0  0  0  0  0
   47.0450   31.5440   38.6480 C   0  0  0  0  0  0  0  0  0  0  0  0
   46.6940   32.8550   38.7880 C   0  0  0  0  0  0  0  0  0  0  0  0
   45.7950   33.4620   37.9130 C   0  0  0  0  0  0  0  0  0  0  0  0
   45.4730   34.5050   37.9710 H   0  0  0  0  0  0  0  0  0  0  0  0
   45.2350   32.7340   36.8680 C   0  0  0  0  0  0  0  0  0  0  0  0
   44.5350   33.1990   36.1840 H   0  0  0  0  0  0  0  0  0  0  0  0
   45.6060   31.3990   36.7440 C   0  0  0  0  0  0  0  0  0  0  0  0
   46.4960   30.8120   37.6170 C   0  0  0  0  0  0  0  0  0  0  0  0
   49.1930   31.8370   40.0640 H   0  0  0  0  0  0  0  0  0  0  0  0
   48.1880   30.9120   39.8250 S   0  0  0  0  0  0  0  0  0  0  0  0
   48.8750   29.7420   39.1740 O   0  0  0  0  0  0  0  0  0  0  0  0
   47.5310   30.4620   41.0780 O   0  0  0  0  0  0  0  0  0  0  0  0
  2  1  1  0  0  0  0
  2  3  1  0  0  0  0
  3 13  1  0  0  0  0
  4  3  2  0  0  0  0
  4  8  1  0  0  0  0
  5  4  1  0  0  0  0
  6  7  1  0  0  0  0
  6  5  2  0  0  0  0
  7  2  2  0  0  0  0
  9  5  1  0  0  0  0
 10  6  1  0  0  0  0
 11 16  1  0  0  0  0
 12 11  2  0  0  0  0
 13 12  1  0  0  0  0
 13 14  2  0  0  0  0
 14 15  1  0  0  0  0
 15 16  2  0  0  0  0
 15 19  1  0  0  0  0
 17 11  1  0  0  0  0
 18 12  1  0  0  0  0
 20 21  1  0  0  0  0
 20 29  1  0  0  0  0
 21  7  1  0  0  0  0
 22 23  1  0  0  0  0
 22 21  2  0  0  0  0
 24 22  1  0  0  0  0
 25 24  1  0  0  0  0
 26 24  2  0  0  0  0
 26 27  1  0  0  0  0
 27 20  2  0  0  0  0
 29 28  1  0  0  0  0
 29 31  2  0  0  0  0
 30 29  2  0  0  0  0
M  END
>  <minimizedAffinity>
-5.24361086

>  <minimizedRMSD>
0.491969854

$$$$
