
 OpenBabel03252506423D

 43 46  0  0  1  0  0  0  0  0999 V2000
   49.5800   33.4020   41.5130 N   0  0  1  0  0  0  0  0  0  0  0  0
   50.7120   32.9990   42.2870 C   0  0  0  0  0  0  0  0  0  0  0  0
   51.2560   31.6520   41.9870 C   0  0  0  0  0  0  0  0  0  0  0  0
   50.2290   30.6030   42.2870 C   0  0  0  0  0  0  0  0  0  0  0  0
   48.8620   31.1190   42.0090 C   0  0  0  0  0  0  0  0  0  0  0  0
   48.8480   32.2370   41.0480 C   0  0  2  0  0  0  0  0  0  0  0  0
   50.4360   32.9930   43.3790 H   0  0  0  0  0  0  0  0  0  0  0  0
   51.5750   33.7200   42.1880 H   0  0  0  0  0  0  0  0  0  0  0  0
   51.7920   31.5090   41.0540 H   0  0  0  0  0  0  0  0  0  0  0  0
   52.0660   31.4850   42.7780 H   0  0  0  0  0  0  0  0  0  0  0  0
   50.4460   29.6570   41.7080 H   0  0  0  0  0  0  0  0  0  0  0  0
   50.2810   30.2990   43.3550 H   0  0  0  0  0  0  0  0  0  0  0  0
   48.2650   30.2740   41.7070 H   0  0  0  0  0  0  0  0  0  0  0  0
   48.3920   31.5010   42.9580 H   0  0  0  0  0  0  0  0  0  0  0  0
   47.7840   32.6490   41.1300 H   0  0  0  0  0  0  0  0  0  0  0  0
   47.8370   31.8730   38.8400 C   0  0  0  0  0  0  0  0  0  0  0  0
   49.0010   31.9620   39.6220 C   0  0  0  0  0  0  0  0  0  0  0  0
   50.2220   31.7980   38.9480 C   0  0  0  0  0  0  0  0  0  0  0  0
   51.1390   31.8740   39.5160 H   0  0  0  0  0  0  0  0  0  0  0  0
   50.3700   31.5640   37.6190 C   0  0  0  0  0  0  0  0  0  0  0  0
   51.3440   31.4470   37.1640 H   0  0  0  0  0  0  0  0  0  0  0  0
   49.2500   31.4730   36.8390 C   0  0  0  0  0  3  0  0  0  0  0  0
   48.0310   31.6310   37.4690 C   0  0  0  0  0  3  0  0  0  0  0  0
   46.0220   31.4660   40.6700 H   0  0  0  0  0  0  0  0  0  0  0  0
   46.2260   32.0320   39.4110 S   0  0  0  0  0  0  0  0  0  0  0  0
   45.5850   33.3550   39.2860 O   0  0  0  0  0  0  0  0  0  0  0  0
   45.3170   31.1420   38.5530 O   0  0  0  0  0  0  0  0  0  0  0  0
   47.3770   34.6450   41.9810 C   0  0  1  0  0  0  0  0  0  0  0  0
   48.4430   35.5840   41.7070 C   0  0  0  0  0  0  0  0  0  0  0  0
   48.8110   34.2860   42.3470 C   0  0  2  0  0  0  0  0  0  0  0  0
   46.9810   33.9610   41.1880 H   0  0  0  0  0  0  0  0  0  0  0  0
   48.4790   36.5050   42.3530 H   0  0  0  0  0  0  0  0  0  0  0  0
   48.7890   35.8130   40.6890 H   0  0  0  0  0  0  0  0  0  0  0  0
   49.0760   34.2950   43.4190 H   0  0  0  0  0  0  0  0  0  0  0  0
   45.5900   36.0120   43.1250 C   0  0  0  0  0  0  0  0  0  0  0  0
   46.4200   34.8570   43.0950 C   0  0  0  0  0  0  0  0  0  0  0  0
   46.2930   33.9610   44.1400 C   0  0  0  0  0  0  0  0  0  0  0  0
   45.3890   34.2470   45.1120 N   0  0  0  0  0  0  0  0  0  0  0  0
   44.6150   35.3490   45.1160 C   0  0  0  0  0  0  0  0  0  0  0  0
   44.7080   36.2560   44.1080 N   0  0  0  0  0  0  0  0  0  0  0  0
   45.7360   36.6790   42.2760 H   0  0  0  0  0  0  0  0  0  0  0  0
   46.8970   33.0650   44.1720 H   0  0  0  0  0  0  0  0  0  0  0  0
   43.9110   35.5240   45.9200 H   0  0  0  0  0  0  0  0  0  0  0  0
  1  2  1  1  0  0  0
  1 30  1  0  0  0  0
  2  7  1  0  0  0  0
  3  2  1  0  0  0  0
  3  4  1  0  0  0  0
  3 10  1  0  0  0  0
  4 12  1  0  0  0  0
  5  4  1  0  0  0  0
  5 14  1  0  0  0  0
  6 15  1  1  0  0  0
  6  1  1  0  0  0  0
  6  5  1  0  0  0  0
  8  2  1  0  0  0  0
  9  3  1  0  0  0  0
 11  4  1  0  0  0  0
 13  5  1  0  0  0  0
 16 25  1  0  0  0  0
 16 17  1  0  0  0  0
 17  6  1  0  0  0  0
 18 19  1  0  0  0  0
 18 17  2  0  0  0  0
 20 18  1  0  0  0  0
 21 20  1  0  0  0  0
 22 23  1  0  0  0  0
 22 20  2  0  0  0  0
 23 16  2  0  0  0  0
 25 24  1  0  0  0  0
 26 25  2  0  0  0  0
 27 25  2  0  0  0  0
 28 31  1  6  0  0  0
 28 30  1  0  0  0  0
 28 36  1  0  0  0  0
 29 28  1  0  0  0  0
 29 30  1  0  0  0  0
 29 32  1  0  0  0  0
 30 34  1  1  0  0  0
 33 29  1  0  0  0  0
 35 40  1  0  0  0  0
 36 35  2  0  0  0  0
 36 37  1  0  0  0  0
 37 42  1  0  0  0  0
 37 38  2  0  0  0  0
 38 39  1  0  0  0  0
 39 43  1  0  0  0  0
 40 39  2  0  0  0  0
 41 35  1  0  0  0  0
M  END
>  <minimizedAffinity>
-5.11378622

>  <minimizedRMSD>
1.77723324

$$$$
