
 OpenBabel03252509233D

 30 32  0  0  1  0  0  0  0  0999 V2000
   46.3000   34.9360   42.0430 C   0  0  1  0  0  0  0  0  0  0  0  0
   47.8160   35.1850   41.8650 C   0  0  0  0  0  0  0  0  0  0  0  0
   47.0240   33.9670   41.3030 C   0  0  2  0  0  0  0  0  0  0  0  0
   45.6740   35.7300   41.6250 H   0  0  0  0  0  0  0  0  0  0  0  0
   48.0310   35.9970   41.1780 H   0  0  0  0  0  0  0  0  0  0  0  0
   48.4970   35.0200   42.6980 H   0  0  0  0  0  0  0  0  0  0  0  0
   47.3090   33.0160   41.8610 H   0  0  0  0  0  0  0  0  0  0  0  0
   44.7600   35.0500   45.4720 C   0  0  0  0  0  0  0  0  0  0  0  0
   45.0360   35.4180   44.1300 C   0  0  0  0  0  0  0  0  0  0  0  0
   46.0020   34.6450   43.5060 C   0  0  0  0  0  0  0  0  0  0  0  0
   46.6310   33.6060   44.1640 N   0  0  0  0  0  0  0  0  0  0  0  0
   46.3250   33.3110   45.4310 C   0  0  0  0  0  0  0  0  0  0  0  0
   45.3800   34.0380   46.0910 N   0  0  0  0  0  0  0  0  0  0  0  0
   44.0140   35.6250   45.9940 H   0  0  0  0  0  0  0  0  0  0  0  0
   46.9090   32.4750   45.7830 H   0  0  0  0  0  0  0  0  0  0  0  0
   44.4020   36.5130   43.4650 N   0  0  0  0  0  0  0  0  0  0  0  0
   45.0080   37.3390   43.6720 H   0  0  0  0  0  0  0  0  0  0  0  0
   43.5320   36.4100   42.9200 H   0  0  0  0  0  0  0  0  0  0  0  0
   46.2260   33.2080   38.9310 C   0  0  0  0  0  0  0  0  0  0  0  0
   47.0530   33.7980   39.8310 C   0  0  0  0  0  0  0  0  0  0  0  0
   48.1940   34.4260   39.3090 C   0  0  0  0  0  0  0  0  0  0  0  0
   48.9790   34.9540   39.8680 H   0  0  0  0  0  0  0  0  0  0  0  0
   48.4630   34.4440   37.9480 C   0  0  0  0  0  0  0  0  0  0  0  0
   49.3230   34.9120   37.4970 H   0  0  0  0  0  0  0  0  0  0  0  0
   47.6030   33.8400   37.0800 C   0  0  0  0  0  3  0  0  0  0  0  0
   46.4800   33.2180   37.5790 C   0  0  0  0  0  3  0  0  0  0  0  0
   45.1380   31.6570   40.6750 H   0  0  0  0  0  0  0  0  0  0  0  0
   44.8330   32.4100   39.5730 S   0  0  0  0  0  0  0  0  0  0  0  0
   44.3180   31.3990   38.5520 O   0  0  0  0  0  0  0  0  0  0  0  0
   43.7470   33.3630   39.9510 O   0  0  0  0  0  0  0  0  0  0  0  0
  1  4  1  6  0  0  0
  1 10  1  0  0  0  0
  2  1  1  0  0  0  0
  2  6  1  0  0  0  0
  3  7  1  1  0  0  0
  3  2  1  0  0  0  0
  3  1  1  0  0  0  0
  5  2  1  0  0  0  0
  8 14  1  0  0  0  0
  8 13  1  0  0  0  0
  9  8  2  0  0  0  0
 10  9  1  0  0  0  0
 10 11  2  0  0  0  0
 11 12  1  0  0  0  0
 12 15  1  0  0  0  0
 12 13  2  0  0  0  0
 16 17  1  0  0  0  0
 16  9  1  0  0  0  0
 18 16  1  0  0  0  0
 19 28  1  0  0  0  0
 19 20  1  0  0  0  0
 20  3  1  0  0  0  0
 21 20  2  0  0  0  0
 21 22  1  0  0  0  0
 23 21  1  0  0  0  0
 24 23  1  0  0  0  0
 25 26  1  0  0  0  0
 25 23  2  0  0  0  0
 26 19  2  0  0  0  0
 28 30  2  0  0  0  0
 28 27  1  0  0  0  0
 29 28  2  0  0  0  0
M  END
>  <minimizedAffinity>
-5.43829489

>  <minimizedRMSD>
0.82693541

$$$$
