
 OpenBabel03252500223D

 39 41  0  0  1  0  0  0  0  0999 V2000
   45.4420   32.4480   42.3000 C   0  0  1  0  0  0  0  0  0  0  0  0
   43.9130   32.5240   42.3460 C   0  0  0  0  0  0  0  0  0  0  0  0
   43.2100   33.0770   41.1840 C   0  0  0  0  0  0  0  0  0  0  0  0
   44.0900   33.5780   40.0650 C   0  0  0  0  0  0  0  0  0  0  0  0
   45.2260   34.3520   40.7960 C   0  0  0  0  0  0  0  0  0  0  0  0
   46.1120   33.3060   41.3210 C   0  0  1  0  0  0  0  0  0  0  0  0
   45.4940   31.3210   42.1230 H   0  0  0  0  0  0  0  0  0  0  0  0
   43.3920   32.1820   43.2020 H   0  0  0  0  0  0  0  0  0  0  0  0
   42.1570   33.1050   41.2600 H   0  0  0  0  0  0  0  0  0  0  0  0
   43.4720   34.3310   39.5560 H   0  0  0  0  0  0  0  0  0  0  0  0
   44.4930   32.7770   39.4430 H   0  0  0  0  0  0  0  0  0  0  0  0
   44.6430   34.9000   41.5730 H   0  0  0  0  0  0  0  0  0  0  0  0
   45.5780   34.9560   39.9820 H   0  0  0  0  0  0  0  0  0  0  0  0
   46.1830   32.6180   40.3840 H   0  0  0  0  0  0  0  0  0  0  0  0
   45.6060   33.7100   44.4580 C   0  0  0  0  0  0  0  0  0  0  0  0
   45.8800   32.5670   43.7100 C   0  0  0  0  0  0  0  0  0  0  0  0
   46.6500   31.5720   44.3430 C   0  0  0  0  0  0  0  0  0  0  0  0
   47.0850   31.7520   45.6110 N   0  0  0  0  0  0  0  0  0  0  0  0
   46.7780   32.8970   46.2800 C   0  0  0  0  0  0  0  0  0  0  0  0
   46.0410   33.8670   45.6950 N   0  0  0  0  0  0  0  0  0  0  0  0
   47.2140   33.0910   47.6030 N   0  0  0  0  0  0  0  0  0  0  0  0
   45.0110   34.5210   44.0880 H   0  0  0  0  0  0  0  0  0  0  0  0
   47.3000   34.0210   48.0400 H   0  0  0  0  0  0  0  0  0  0  0  0
   47.4760   32.2600   48.2080 H   0  0  0  0  0  0  0  0  0  0  0  0
   46.9100   30.3790   43.6090 N   0  0  0  0  0  0  0  0  0  0  0  0
   47.7670   30.3420   43.0110 H   0  0  0  0  0  0  0  0  0  0  0  0
   46.1770   29.6670   43.7690 H   0  0  0  0  0  0  0  0  0  0  0  0
   48.5870   32.6360   41.3600 C   0  0  0  0  0  0  0  0  0  0  0  0
   47.5050   33.4500   41.6350 C   0  0  0  0  0  0  0  0  0  0  0  0
   47.7600   34.6560   42.3180 C   0  0  0  0  0  0  0  0  0  0  0  0
   47.0000   35.4040   42.6060 H   0  0  0  0  0  0  0  0  0  0  0  0
   49.0120   35.0420   42.7090 C   0  0  0  0  0  0  0  0  0  0  0  0
   49.2420   35.9590   43.2340 H   0  0  0  0  0  0  0  0  0  0  0  0
   50.0860   34.2330   42.4360 C   0  0  0  0  0  0  0  0  0  0  0  0
   49.8420   33.0540   41.7690 C   0  0  0  0  0  0  0  0  0  0  0  0
   47.4880   30.2860   41.2800 H   0  0  0  0  0  0  0  0  0  0  0  0
   48.2960   31.1720   40.5760 S   0  0  0  0  0  0  0  0  0  0  0  0
   48.1910   31.1140   39.1190 O   0  0  0  0  0  0  0  0  0  0  0  0
   49.5990   30.3500   40.7230 O   0  0  0  0  0  0  0  0  0  0  0  0
  1  7  1  6  0  0  0
  1  2  1  0  0  0  0
  1 16  1  0  0  0  0
  2  8  1  0  0  0  0
  3  9  1  0  0  0  0
  3  2  2  0  0  0  0
  4  5  1  0  0  0  0
  4  3  1  0  0  0  0
  5  6  1  0  0  0  0
  5 12  1  0  0  0  0
  6 14  1  6  0  0  0
  6 29  1  0  0  0  0
  6  1  1  0  0  0  0
 10  4  1  0  0  0  0
 11  4  1  0  0  0  0
 13  5  1  0  0  0  0
 15 20  1  0  0  0  0
 16 17  1  0  0  0  0
 16 15  2  0  0  0  0
 17 18  2  0  0  0  0
 18 19  1  0  0  0  0
 19 21  1  0  0  0  0
 20 19  2  0  0  0  0
 21 23  1  0  0  0  0
 21 24  1  0  0  0  0
 22 15  1  0  0  0  0
 25 27  1  0  0  0  0
 25 17  1  0  0  0  0
 26 25  1  0  0  0  0
 28 29  2  0  0  0  0
 28 35  1  0  0  0  0
 29 30  1  0  0  0  0
 30 31  1  0  0  0  0
 30 32  2  0  0  0  0
 32 33  1  0  0  0  0
 34 32  1  0  0  0  0
 35 34  2  0  0  0  0
 37 39  2  0  0  0  0
 37 36  1  0  0  0  0
 37 28  1  0  0  0  0
 38 37  2  0  0  0  0
M  END
>  <minimizedAffinity>
-5.12943792

>  <minimizedRMSD>
4.03593159

$$$$
