
 OpenBabel03252505343D

 33 35  0  0  0  0  0  0  0  0999 V2000
   46.3500   34.3220   42.0810 C   0  0  0  0  0  0  0  0  0  0  0  0
   47.4650   35.0380   41.7030 C   0  0  0  0  0  0  0  0  0  0  0  0
   48.1240   34.8360   40.4900 C   0  0  0  0  0  0  0  0  0  0  0  0
   47.6430   33.8740   39.6160 C   0  0  0  0  0  0  0  0  0  0  0  0
   46.5250   33.1640   40.0060 C   0  0  0  0  0  0  0  0  0  0  0  0
   45.8930   33.3770   41.2040 C   0  0  0  0  0  0  0  0  0  0  0  0
   47.8680   35.7860   42.3410 H   0  0  0  0  0  0  0  0  0  0  0  0
   48.9890   35.4070   40.2200 H   0  0  0  0  0  0  0  0  0  0  0  0
   48.1820   33.7470   38.6820 H   0  0  0  0  0  0  0  0  0  0  0  0
   46.1490   32.4050   39.3120 H   0  0  0  0  0  0  0  0  0  0  0  0
   44.3490   35.8740   44.8650 C   0  0  0  0  0  0  0  0  0  0  0  0
   44.8700   35.6710   43.5730 C   0  0  0  0  0  0  0  0  0  0  0  0
   45.7590   34.6190   43.3530 C   0  0  0  0  0  0  0  0  0  0  0  0
   46.0820   33.8360   44.4070 N   0  0  0  0  0  0  0  0  0  0  0  0
   45.5630   34.0580   45.6410 C   0  0  0  0  0  0  0  0  0  0  0  0
   44.6920   35.0830   45.8640 N   0  0  0  0  0  0  0  0  0  0  0  0
   45.9180   33.2150   46.7450 N   0  0  0  0  0  0  0  0  0  0  0  0
   43.6540   36.6900   45.0480 H   0  0  0  0  0  0  0  0  0  0  0  0
   44.5980   36.3090   42.7450 H   0  0  0  0  0  0  0  0  0  0  0  0
   46.3180   33.7200   47.5750 H   0  0  0  0  0  0  0  0  0  0  0  0
   45.8110   32.1780   46.7760 H   0  0  0  0  0  0  0  0  0  0  0  0
   43.4330   32.8530   41.1210 C   0  0  0  0  0  0  0  0  0  0  0  0
   44.7130   32.6000   41.5670 C   0  0  0  0  0  0  0  0  0  0  0  0
   44.8970   31.5290   42.4250 C   0  0  0  0  0  0  0  0  0  0  0  0
   45.8710   31.2390   42.8390 H   0  0  0  0  0  0  0  0  0  0  0  0
   43.8020   30.7590   42.8020 C   0  0  0  0  0  0  0  0  0  0  0  0
   43.8430   29.8920   43.4770 H   0  0  0  0  0  0  0  0  0  0  0  0
   42.5280   31.0320   42.3430 C   0  0  0  0  0  3  0  0  0  0  0  0
   42.3400   32.1020   41.4830 C   0  0  0  0  0  3  0  0  0  0  0  0
   41.8280   34.3190   39.8380 H   0  0  0  0  0  0  0  0  0  0  0  0
   43.1940   34.2030   40.0350 S   0  0  0  0  0  0  0  0  0  0  0  0
   43.7980   33.9060   38.6820 O   0  0  0  0  0  0  0  0  0  0  0  0
   43.7350   35.4760   40.6140 O   0  0  0  0  0  0  0  0  0  0  0  0
  1 13  1  0  0  0  0
  2  1  1  0  0  0  0
  2  7  1  0  0  0  0
  3  2  2  0  0  0  0
  4  5  2  0  0  0  0
  4  3  1  0  0  0  0
  5  6  1  0  0  0  0
  6 23  1  0  0  0  0
  6  1  2  0  0  0  0
  8  3  1  0  0  0  0
  9  4  1  0  0  0  0
 10  5  1  0  0  0  0
 11 18  1  0  0  0  0
 11 16  1  0  0  0  0
 12 11  2  0  0  0  0
 13 12  1  0  0  0  0
 13 14  2  0  0  0  0
 14 15  1  0  0  0  0
 15 16  2  0  0  0  0
 15 17  1  0  0  0  0
 17 21  1  0  0  0  0
 17 20  1  0  0  0  0
 19 12  1  0  0  0  0
 22 29  2  0  0  0  0
 22 23  1  0  0  0  0
 23 24  2  0  0  0  0
 24 26  1  0  0  0  0
 24 25  1  0  0  0  0
 26 27  1  0  0  0  0
 28 26  2  0  0  0  0
 29 28  1  0  0  0  0
 30 31  1  0  0  0  0
 31 33  2  0  0  0  0
 31 22  1  0  0  0  0
 32 31  2  0  0  0  0
M  END
>  <minimizedAffinity>
-5.67289066

>  <minimizedRMSD>
0.950823247

$$$$
