
 OpenBabel03252508273D

 44 48  0  0  1  0  0  0  0  0999 V2000
   36.4420   26.6950   38.0410 C   0  0  1  0  0  0  0  0  0  0  0  0
   35.1470   26.9260   37.3870 C   0  0  0  0  0  0  0  0  0  0  0  0
   35.8680   28.0010   38.2960 C   0  0  2  0  0  0  0  0  0  0  0  0
   37.1640   26.4380   37.1840 H   0  0  0  0  0  0  0  0  0  0  0  0
   35.0210   27.3100   36.3630 H   0  0  0  0  0  0  0  0  0  0  0  0
   34.2160   26.4940   37.7880 H   0  0  0  0  0  0  0  0  0  0  0  0
   35.0860   28.2050   39.0950 H   0  0  0  0  0  0  0  0  0  0  0  0
   36.3260   29.2570   37.7020 C   0  0  0  0  0  0  0  0  0  0  0  0
   36.5780   29.5090   36.3890 C   0  0  0  0  0  0  0  0  0  0  0  0
   37.1350   30.6720   35.8730 C   0  0  0  0  0  0  0  0  0  0  0  0
   37.4620   31.6720   36.8110 C   0  0  0  0  0  0  0  0  0  0  0  0
   37.2110   31.4390   38.1550 C   0  0  0  0  0  0  0  0  0  0  0  0
   37.4940   32.4730   39.0270 C   0  0  0  0  0  0  0  0  0  0  0  0
   37.1990   32.3190   40.3840 C   0  0  0  0  0  0  0  0  0  0  0  0
   36.6280   31.1500   40.8460 C   0  0  0  0  0  0  0  0  0  0  0  0
   36.3700   30.1550   39.9330 C   0  0  0  0  0  0  0  0  0  0  0  0
   36.6520   30.2560   38.5850 C   0  0  0  0  0  0  0  0  0  0  0  0
   36.3070   28.7010   35.7060 H   0  0  0  0  0  0  0  0  0  0  0  0
   37.2880   30.7600   34.8250 H   0  0  0  0  0  0  0  0  0  0  0  0
   37.8930   32.5600   36.3950 H   0  0  0  0  0  0  0  0  0  0  0  0
   37.9440   33.3890   38.6390 H   0  0  0  0  0  0  0  0  0  0  0  0
   37.4690   33.1990   40.9750 H   0  0  0  0  0  0  0  0  0  0  0  0
   36.4750   31.2230   41.8990 H   0  0  0  0  0  0  0  0  0  0  0  0
   35.8700   29.4220   40.5000 H   0  0  0  0  0  0  0  0  0  0  0  0
   35.9370   23.7530   40.2060 C   0  0  0  0  0  0  0  0  0  0  0  0
   36.8490   23.9950   41.2810 C   0  0  0  0  0  0  0  0  0  0  0  0
   37.6190   25.1710   41.2230 C   0  0  0  0  0  0  0  0  0  0  0  0
   37.4610   25.9920   40.1730 N   0  0  0  0  0  0  0  0  0  0  0  0
   36.5820   25.7270   39.1660 C   0  0  0  0  0  0  0  0  0  0  0  0
   35.8360   24.6290   39.1850 N   0  0  0  0  0  0  0  0  0  0  0  0
   35.3470   22.8660   40.2410 H   0  0  0  0  0  0  0  0  0  0  0  0
   36.9500   23.2820   42.0630 H   0  0  0  0  0  0  0  0  0  0  0  0
   38.6500   26.6250   43.0430 C   0  0  0  0  0  0  0  0  0  0  0  0
   38.6310   25.5670   42.1750 C   0  0  0  0  0  0  0  0  0  0  0  0
   39.7900   24.7790   42.2050 C   0  0  0  0  0  0  0  0  0  0  0  0
   39.8800   23.9100   41.5490 H   0  0  0  0  0  0  0  0  0  0  0  0
   40.8860   24.9830   43.0060 C   0  0  0  0  0  0  0  0  0  0  0  0
   41.7460   24.3420   42.9820 H   0  0  0  0  0  0  0  0  0  0  0  0
   40.8770   26.0460   43.8670 C   0  0  0  0  0  3  0  0  0  0  0  0
   39.7610   26.8440   43.8670 C   0  0  0  0  0  3  0  0  0  0  0  0
   36.9270   27.9140   41.7490 H   0  0  0  0  0  0  0  0  0  0  0  0
   37.3650   27.7640   43.0890 S   0  0  0  0  0  0  0  0  0  0  0  0
   36.1180   27.2630   43.7750 O   0  0  0  0  0  0  0  0  0  0  0  0
   37.7450   29.1520   43.4760 O   0  0  0  0  0  0  0  0  0  0  0  0
  1  4  1  6  0  0  0
  1  3  1  0  0  0  0
  1 29  1  0  0  0  0
  2  6  1  0  0  0  0
  2  1  1  0  0  0  0
  2  3  1  0  0  0  0
  3  7  1  1  0  0  0
  5  2  1  0  0  0  0
  8  3  1  0  0  0  0
  8 17  1  0  0  0  0
  9  8  2  0  0  0  0
 10  9  1  0  0  0  0
 10 11  2  0  0  0  0
 11 12  1  0  0  0  0
 12 17  2  0  0  0  0
 12 13  1  0  0  0  0
 13 14  2  0  0  0  0
 14 15  1  0  0  0  0
 14 22  1  0  0  0  0
 15 23  1  0  0  0  0
 16 24  1  0  0  0  0
 16 15  2  0  0  0  0
 17 16  1  0  0  0  0
 18  9  1  0  0  0  0
 19 10  1  0  0  0  0
 20 11  1  0  0  0  0
 21 13  1  0  0  0  0
 25 31  1  0  0  0  0
 25 26  1  0  0  0  0
 26 32  1  0  0  0  0
 27 26  2  0  0  0  0
 27 34  1  0  0  0  0
 28 27  1  0  0  0  0
 29 30  1  0  0  0  0
 29 28  2  0  0  0  0
 30 25  2  0  0  0  0
 33 42  1  0  0  0  0
 33 40  1  0  0  0  0
 34 35  1  0  0  0  0
 34 33  2  0  0  0  0
 35 37  2  0  0  0  0
 36 35  1  0  0  0  0
 37 39  1  0  0  0  0
 38 37  1  0  0  0  0
 39 40  2  0  0  0  0
 41 42  1  0  0  0  0
 42 44  2  0  0  0  0
 42 43  2  0  0  0  0
M  END
>  <minimizedAffinity>
-6.93613243

$$$$

 OpenBabel03252508273D

 44 48  0  0  1  0  0  0  0  0999 V2000
   33.8920   29.0540   35.1410 C   0  0  1  0  0  0  0  0  0  0  0  0
   32.8520   28.0180   35.2020 C   0  0  0  0  0  0  0  0  0  0  0  0
   32.7540   29.3970   35.9700 C   0  0  2  0  0  0  0  0  0  0  0  0
   34.0010   29.2960   34.0220 H   0  0  0  0  0  0  0  0  0  0  0  0
   32.0230   27.9170   34.4840 H   0  0  0  0  0  0  0  0  0  0  0  0
   32.9730   27.1190   35.8280 H   0  0  0  0  0  0  0  0  0  0  0  0
   32.6330   29.0640   37.0500 H   0  0  0  0  0  0  0  0  0  0  0  0
   31.7020   30.3490   35.6120 C   0  0  0  0  0  0  0  0  0  0  0  0
   31.5930   31.0690   34.4630 C   0  0  0  0  0  0  0  0  0  0  0  0
   30.6540   32.0600   34.2060 C   0  0  0  0  0  0  0  0  0  0  0  0
   29.7380   32.3300   35.2430 C   0  0  0  0  0  0  0  0  0  0  0  0
   29.8290   31.6070   36.4220 C   0  0  0  0  0  0  0  0  0  0  0  0
   28.8720   31.8680   37.3850 C   0  0  0  0  0  0  0  0  0  0  0  0
   28.8730   31.1220   38.5660 C   0  0  0  0  0  0  0  0  0  0  0  0
   29.8160   30.1340   38.7670 C   0  0  0  0  0  0  0  0  0  0  0  0
   30.7450   29.9200   37.7770 C   0  0  0  0  0  0  0  0  0  0  0  0
   30.7900   30.6370   36.5970 C   0  0  0  0  0  0  0  0  0  0  0  0
   32.3270   30.8200   33.6930 H   0  0  0  0  0  0  0  0  0  0  0  0
   30.6620   32.5590   33.2680 H   0  0  0  0  0  0  0  0  0  0  0  0
   29.0250   33.0990   35.0280 H   0  0  0  0  0  0  0  0  0  0  0  0
   28.1340   32.6520   37.2030 H   0  0  0  0  0  0  0  0  0  0  0  0
   28.0740   31.4190   39.2520 H   0  0  0  0  0  0  0  0  0  0  0  0
   29.6540   29.6780   39.7180 H   0  0  0  0  0  0  0  0  0  0  0  0
   31.2840   29.0820   38.1190 H   0  0  0  0  0  0  0  0  0  0  0  0
   37.2440   27.7130   35.8880 C   0  0  0  0  0  0  0  0  0  0  0  0
   37.6540   28.5000   37.0090 C   0  0  0  0  0  0  0  0  0  0  0  0
   36.7570   29.4790   37.4730 C   0  0  0  0  0  0  0  0  0  0  0  0
   35.5800   29.6240   36.8440 N   0  0  0  0  0  0  0  0  0  0  0  0
   35.2240   28.8540   35.7770 C   0  0  0  0  0  0  0  0  0  0  0  0
   36.0430   27.9180   35.3100 N   0  0  0  0  0  0  0  0  0  0  0  0
   37.9160   26.9660   35.5300 H   0  0  0  0  0  0  0  0  0  0  0  0
   38.6180   28.3570   37.4350 H   0  0  0  0  0  0  0  0  0  0  0  0
   36.5910   30.3700   39.8550 C   0  0  0  0  0  0  0  0  0  0  0  0
   37.0040   30.4100   38.5500 C   0  0  0  0  0  0  0  0  0  0  0  0
   37.7500   31.5500   38.2200 C   0  0  0  0  0  0  0  0  0  0  0  0
   38.1270   31.6840   37.2030 H   0  0  0  0  0  0  0  0  0  0  0  0
   38.0810   32.5750   39.0710 C   0  0  0  0  0  0  0  0  0  0  0  0
   38.6570   33.4240   38.7570 H   0  0  0  0  0  0  0  0  0  0  0  0
   37.6580   32.5070   40.3710 C   0  0  0  0  0  3  0  0  0  0  0  0
   36.9230   31.4070   40.7340 C   0  0  0  0  0  3  0  0  0  0  0  0
   35.3770   29.3650   41.8100 H   0  0  0  0  0  0  0  0  0  0  0  0
   35.5850   29.1030   40.4320 S   0  0  0  0  0  0  0  0  0  0  0  0
   34.1770   29.1330   39.8890 O   0  0  0  0  0  0  0  0  0  0  0  0
   36.1960   27.7430   40.4370 O   0  0  0  0  0  0  0  0  0  0  0  0
  1  4  1  6  0  0  0
  1  2  1  0  0  0  0
  1 29  1  0  0  0  0
  1  3  1  0  0  0  0
  2  6  1  0  0  0  0
  2  3  1  0  0  0  0
  3  7  1  1  0  0  0
  5  2  1  0  0  0  0
  8  3  1  0  0  0  0
  8 17  1  0  0  0  0
  9  8  2  0  0  0  0
 10  9  1  0  0  0  0
 10 11  2  0  0  0  0
 11 12  1  0  0  0  0
 12 17  2  0  0  0  0
 12 13  1  0  0  0  0
 13 14  2  0  0  0  0
 14 15  1  0  0  0  0
 14 22  1  0  0  0  0
 15 23  1  0  0  0  0
 16 24  1  0  0  0  0
 16 15  2  0  0  0  0
 17 16  1  0  0  0  0
 18  9  1  0  0  0  0
 19 10  1  0  0  0  0
 20 11  1  0  0  0  0
 21 13  1  0  0  0  0
 25 26  1  0  0  0  0
 26 32  1  0  0  0  0
 26 27  2  0  0  0  0
 27 34  1  0  0  0  0
 28 27  1  0  0  0  0
 29 28  2  0  0  0  0
 30 29  1  0  0  0  0
 30 25  2  0  0  0  0
 31 25  1  0  0  0  0
 33 42  1  0  0  0  0
 33 40  1  0  0  0  0
 34 33  2  0  0  0  0
 35 34  1  0  0  0  0
 35 37  2  0  0  0  0
 36 35  1  0  0  0  0
 37 39  1  0  0  0  0
 38 37  1  0  0  0  0
 39 40  2  0  0  0  0
 42 44  2  0  0  0  0
 42 41  1  0  0  0  0
 43 42  2  0  0  0  0
M  END
>  <minimizedAffinity>
-6.84870386

$$$$

 OpenBabel03252508273D

 44 48  0  0  1  0  0  0  0  0999 V2000
   34.2670   28.6490   36.2330 C   0  0  1  0  0  0  0  0  0  0  0  0
   33.2400   27.6830   36.6460 C   0  0  0  0  0  0  0  0  0  0  0  0
   33.0880   29.2470   36.8260 C   0  0  2  0  0  0  0  0  0  0  0  0
   34.4240   28.4520   35.1110 H   0  0  0  0  0  0  0  0  0  0  0  0
   32.4460   27.2930   35.9890 H   0  0  0  0  0  0  0  0  0  0  0  0
   33.3440   27.0930   37.5700 H   0  0  0  0  0  0  0  0  0  0  0  0
   32.9220   29.3460   37.9460 H   0  0  0  0  0  0  0  0  0  0  0  0
   32.0400   29.9590   36.0940 C   0  0  0  0  0  0  0  0  0  0  0  0
   32.0670   30.3650   34.7960 C   0  0  0  0  0  0  0  0  0  0  0  0
   31.1110   31.1530   34.1660 C   0  0  0  0  0  0  0  0  0  0  0  0
   30.0210   31.5590   34.9620 C   0  0  0  0  0  0  0  0  0  0  0  0
   29.9710   31.1550   36.2870 C   0  0  0  0  0  0  0  0  0  0  0  0
   28.8530   31.5290   37.0080 C   0  0  0  0  0  0  0  0  0  0  0  0
   28.7160   31.0940   38.3280 C   0  0  0  0  0  0  0  0  0  0  0  0
   29.6850   30.2970   38.9040 C   0  0  0  0  0  0  0  0  0  0  0  0
   30.7760   29.9580   38.1410 C   0  0  0  0  0  0  0  0  0  0  0  0
   30.9600   30.3700   36.8350 C   0  0  0  0  0  0  0  0  0  0  0  0
   32.9340   30.0240   34.2250 H   0  0  0  0  0  0  0  0  0  0  0  0
   31.2350   31.4090   33.1420 H   0  0  0  0  0  0  0  0  0  0  0  0
   29.2970   32.1670   34.4600 H   0  0  0  0  0  0  0  0  0  0  0  0
   28.0980   32.1580   36.5310 H   0  0  0  0  0  0  0  0  0  0  0  0
   27.7960   31.4550   38.7960 H   0  0  0  0  0  0  0  0  0  0  0  0
   29.4040   30.0670   39.9070 H   0  0  0  0  0  0  0  0  0  0  0  0
   31.3140   29.2940   38.7570 H   0  0  0  0  0  0  0  0  0  0  0  0
   37.7490   29.5480   37.0460 C   0  0  0  0  0  0  0  0  0  0  0  0
   37.9700   28.8610   38.2810 C   0  0  0  0  0  0  0  0  0  0  0  0
   36.9020   28.1080   38.8010 C   0  0  0  0  0  0  0  0  0  0  0  0
   35.7440   28.0770   38.1210 N   0  0  0  0  0  0  0  0  0  0  0  0
   35.5710   28.7460   36.9460 C   0  0  0  0  0  0  0  0  0  0  0  0
   36.5560   29.4660   36.4210 N   0  0  0  0  0  0  0  0  0  0  0  0
   38.5530   30.1200   36.6420 H   0  0  0  0  0  0  0  0  0  0  0  0
   38.9000   28.9610   38.7850 H   0  0  0  0  0  0  0  0  0  0  0  0
   36.9040   27.8730   41.3380 C   0  0  0  0  0  0  0  0  0  0  0  0
   36.9040   27.3930   40.0560 C   0  0  0  0  0  0  0  0  0  0  0  0
   36.9450   25.9940   39.9670 C   0  0  0  0  0  0  0  0  0  0  0  0
   36.9510   25.5060   38.9910 H   0  0  0  0  0  0  0  0  0  0  0  0
   36.9810   25.1180   41.0240 C   0  0  0  0  0  0  0  0  0  0  0  0
   37.0110   24.0530   40.8900 H   0  0  0  0  0  0  0  0  0  0  0  0
   36.9760   25.6250   42.2940 C   0  0  0  0  0  3  0  0  0  0  0  0
   36.9380   26.9900   42.4240 C   0  0  0  0  0  3  0  0  0  0  0  0
   36.6790   29.7040   43.0420 H   0  0  0  0  0  0  0  0  0  0  0  0
   36.9530   29.5600   41.6580 S   0  0  0  0  0  0  0  0  0  0  0  0
   38.3270   30.1730   41.5420 O   0  0  0  0  0  0  0  0  0  0  0  0
   35.8790   30.3710   41.0170 O   0  0  0  0  0  0  0  0  0  0  0  0
  1  4  1  6  0  0  0
  1  2  1  0  0  0  0
  1  3  1  0  0  0  0
  1 29  1  0  0  0  0
  2  3  1  0  0  0  0
  2  6  1  0  0  0  0
  3  7  1  1  0  0  0
  5  2  1  0  0  0  0
  8  3  1  0  0  0  0
  8 17  1  0  0  0  0
  9  8  2  0  0  0  0
 10  9  1  0  0  0  0
 10 11  2  0  0  0  0
 11 12  1  0  0  0  0
 12 17  2  0  0  0  0
 12 13  1  0  0  0  0
 13 14  2  0  0  0  0
 14 22  1  0  0  0  0
 14 15  1  0  0  0  0
 15 23  1  0  0  0  0
 16 24  1  0  0  0  0
 16 15  2  0  0  0  0
 17 16  1  0  0  0  0
 18  9  1  0  0  0  0
 19 10  1  0  0  0  0
 20 11  1  0  0  0  0
 21 13  1  0  0  0  0
 25 26  1  0  0  0  0
 26 32  1  0  0  0  0
 26 27  2  0  0  0  0
 27 34  1  0  0  0  0
 28 27  1  0  0  0  0
 29 28  2  0  0  0  0
 30 29  1  0  0  0  0
 30 25  2  0  0  0  0
 31 25  1  0  0  0  0
 33 42  1  0  0  0  0
 33 40  1  0  0  0  0
 34 33  2  0  0  0  0
 35 34  1  0  0  0  0
 35 37  2  0  0  0  0
 36 35  1  0  0  0  0
 37 39  1  0  0  0  0
 38 37  1  0  0  0  0
 39 40  2  0  0  0  0
 42 41  1  0  0  0  0
 43 42  2  0  0  0  0
 44 42  2  0  0  0  0
M  END
>  <minimizedAffinity>
-6.7280283

$$$$

 OpenBabel03252508273D

 44 48  0  0  1  0  0  0  0  0999 V2000
   34.6720   29.2110   37.4720 C   0  0  1  0  0  0  0  0  0  0  0  0
   34.1540   27.8830   37.1190 C   0  0  0  0  0  0  0  0  0  0  0  0
   33.2280   29.1030   37.5110 C   0  0  2  0  0  0  0  0  0  0  0  0
   35.2940   29.5370   36.5620 H   0  0  0  0  0  0  0  0  0  0  0  0
   33.9350   27.5470   36.0930 H   0  0  0  0  0  0  0  0  0  0  0  0
   34.1860   27.0450   37.8340 H   0  0  0  0  0  0  0  0  0  0  0  0
   32.6460   28.6900   38.3950 H   0  0  0  0  0  0  0  0  0  0  0  0
   32.3100   29.6610   36.5170 C   0  0  0  0  0  0  0  0  0  0  0  0
   32.5320   29.8230   35.1840 C   0  0  0  0  0  0  0  0  0  0  0  0
   31.6920   30.4740   34.2900 C   0  0  0  0  0  0  0  0  0  0  0  0
   30.5050   31.0090   34.8310 C   0  0  0  0  0  0  0  0  0  0  0  0
   30.2570   30.8530   36.1860 C   0  0  0  0  0  0  0  0  0  0  0  0
   29.0530   31.3440   36.6560 C   0  0  0  0  0  0  0  0  0  0  0  0
   28.7190   31.1560   37.9990 C   0  0  0  0  0  0  0  0  0  0  0  0
   29.5790   30.4850   38.8460 C   0  0  0  0  0  0  0  0  0  0  0  0
   30.7640   30.0220   38.3240 C   0  0  0  0  0  0  0  0  0  0  0  0
   31.1420   30.1910   37.0060 C   0  0  0  0  0  0  0  0  0  0  0  0
   33.4660   29.3900   34.8180 H   0  0  0  0  0  0  0  0  0  0  0  0
   31.9670   30.5400   33.2660 H   0  0  0  0  0  0  0  0  0  0  0  0
   29.8730   31.5090   34.1270 H   0  0  0  0  0  0  0  0  0  0  0  0
   28.3870   31.8690   35.9680 H   0  0  0  0  0  0  0  0  0  0  0  0
   27.7470   31.5880   38.2550 H   0  0  0  0  0  0  0  0  0  0  0  0
   29.1520   30.4400   39.8220 H   0  0  0  0  0  0  0  0  0  0  0  0
   31.1940   29.4860   39.1220 H   0  0  0  0  0  0  0  0  0  0  0  0
   35.8110   28.9000   40.9650 C   0  0  0  0  0  0  0  0  0  0  0  0
   36.8010   29.9270   41.0660 C   0  0  0  0  0  0  0  0  0  0  0  0
   37.0500   30.6980   39.9160 C   0  0  0  0  0  0  0  0  0  0  0  0
   36.3560   30.4290   38.7980 N   0  0  0  0  0  0  0  0  0  0  0  0
   35.4210   29.4400   38.7400 C   0  0  0  0  0  0  0  0  0  0  0  0
   35.1550   28.6910   39.8050 N   0  0  0  0  0  0  0  0  0  0  0  0
   35.6130   28.3110   41.8320 H   0  0  0  0  0  0  0  0  0  0  0  0
   37.3390   30.0600   41.9730 H   0  0  0  0  0  0  0  0  0  0  0  0
   39.3600   31.6560   39.4310 C   0  0  0  0  0  0  0  0  0  0  0  0
   38.0430   31.7400   39.7950 C   0  0  0  0  0  0  0  0  0  0  0  0
   37.6220   33.0340   40.1290 C   0  0  0  0  0  0  0  0  0  0  0  0
   36.5890   33.2130   40.4370 H   0  0  0  0  0  0  0  0  0  0  0  0
   38.3980   34.1670   40.1140 C   0  0  0  0  0  0  0  0  0  0  0  0
   38.0150   35.1330   40.3810 H   0  0  0  0  0  0  0  0  0  0  0  0
   39.7100   34.0540   39.7420 C   0  0  0  0  0  3  0  0  0  0  0  0
   40.1630   32.8030   39.4090 C   0  0  0  0  0  3  0  0  0  0  0  0
   41.4510   30.4250   38.7860 H   0  0  0  0  0  0  0  0  0  0  0  0
   40.0930   30.1430   39.0780 S   0  0  0  0  0  0  0  0  0  0  0  0
   40.2090   29.2190   40.2650 O   0  0  0  0  0  0  0  0  0  0  0  0
   39.6160   29.4670   37.8380 O   0  0  0  0  0  0  0  0  0  0  0  0
  1  4  1  6  0  0  0
  1  3  1  0  0  0  0
  1 29  1  0  0  0  0
  2  1  1  0  0  0  0
  2  3  1  0  0  0  0
  2  6  1  0  0  0  0
  3  7  1  1  0  0  0
  5  2  1  0  0  0  0
  8 17  1  0  0  0  0
  8  3  1  0  0  0  0
  9  8  2  0  0  0  0
 10 11  2  0  0  0  0
 10  9  1  0  0  0  0
 11 12  1  0  0  0  0
 12 13  2  0  0  0  0
 12 17  1  0  0  0  0
 13 14  1  0  0  0  0
 14 22  1  0  0  0  0
 14 15  2  0  0  0  0
 15 23  1  0  0  0  0
 16 15  1  0  0  0  0
 16 24  1  0  0  0  0
 17 16  2  0  0  0  0
 18  9  1  0  0  0  0
 19 10  1  0  0  0  0
 20 11  1  0  0  0  0
 21 13  1  0  0  0  0
 25 26  1  0  0  0  0
 25 31  1  0  0  0  0
 26 32  1  0  0  0  0
 27 26  2  0  0  0  0
 28 27  1  0  0  0  0
 29 28  2  0  0  0  0
 29 30  1  0  0  0  0
 30 25  2  0  0  0  0
 33 34  1  0  0  0  0
 34 27  1  0  0  0  0
 34 35  2  0  0  0  0
 35 36  1  0  0  0  0
 37 35  1  0  0  0  0
 37 38  1  0  0  0  0
 39 37  2  0  0  0  0
 40 33  2  0  0  0  0
 40 39  1  0  0  0  0
 41 42  1  0  0  0  0
 42 33  1  0  0  0  0
 42 43  2  0  0  0  0
 44 42  2  0  0  0  0
M  END
>  <minimizedAffinity>
-6.55197859

$$$$

 OpenBabel03252508273D

 44 48  0  0  1  0  0  0  0  0999 V2000
   39.4740   29.3900   41.1420 C   0  0  1  0  0  0  0  0  0  0  0  0
   39.5740   29.8740   42.5260 C   0  0  0  0  0  0  0  0  0  0  0  0
   38.6950   28.6300   42.0990 C   0  0  2  0  0  0  0  0  0  0  0  0
   40.5570   29.1620   40.8300 H   0  0  0  0  0  0  0  0  0  0  0  0
   40.3530   29.5670   43.2430 H   0  0  0  0  0  0  0  0  0  0  0  0
   39.0240   30.7670   42.8630 H   0  0  0  0  0  0  0  0  0  0  0  0
   37.6600   28.9320   42.4570 H   0  0  0  0  0  0  0  0  0  0  0  0
   39.0370   27.2990   42.6010 C   0  0  0  0  0  0  0  0  0  0  0  0
   39.9990   26.9780   43.5080 C   0  0  0  0  0  0  0  0  0  0  0  0
   40.3860   25.6930   43.8670 C   0  0  0  0  0  0  0  0  0  0  0  0
   39.7080   24.6380   43.2230 C   0  0  0  0  0  0  0  0  0  0  0  0
   38.7210   24.9420   42.2980 C   0  0  0  0  0  0  0  0  0  0  0  0
   38.0460   23.8740   41.7390 C   0  0  0  0  0  0  0  0  0  0  0  0
   36.9960   24.1210   40.8510 C   0  0  0  0  0  0  0  0  0  0  0  0
   36.6360   25.4170   40.5390 C   0  0  0  0  0  0  0  0  0  0  0  0
   37.3450   26.4400   41.1230 C   0  0  0  0  0  0  0  0  0  0  0  0
   38.3950   26.2460   41.9990 C   0  0  0  0  0  0  0  0  0  0  0  0
   40.4930   27.8320   43.9760 H   0  0  0  0  0  0  0  0  0  0  0  0
   41.1530   25.5600   44.5910 H   0  0  0  0  0  0  0  0  0  0  0  0
   40.0220   23.6560   43.5110 H   0  0  0  0  0  0  0  0  0  0  0  0
   38.3460   22.8570   42.0020 H   0  0  0  0  0  0  0  0  0  0  0  0
   36.5410   23.2010   40.4710 H   0  0  0  0  0  0  0  0  0  0  0  0
   35.8190   25.4020   39.8530 H   0  0  0  0  0  0  0  0  0  0  0  0
   36.8390   27.3060   40.8030 H   0  0  0  0  0  0  0  0  0  0  0  0
   38.5750   32.1280   38.8420 C   0  0  0  0  0  0  0  0  0  0  0  0
   37.4150   31.6140   38.1800 C   0  0  0  0  0  0  0  0  0  0  0  0
   36.9800   30.3280   38.5470 C   0  0  0  0  0  0  0  0  0  0  0  0
   37.6690   29.6580   39.4850 N   0  0  0  0  0  0  0  0  0  0  0  0
   38.7710   30.1810   40.0930 C   0  0  0  0  0  0  0  0  0  0  0  0
   39.2130   31.3930   39.7750 N   0  0  0  0  0  0  0  0  0  0  0  0
   38.9120   33.1030   38.5720 H   0  0  0  0  0  0  0  0  0  0  0  0
   36.9410   32.1840   37.4190 H   0  0  0  0  0  0  0  0  0  0  0  0
   35.7440   29.0610   36.7140 C   0  0  0  0  0  0  0  0  0  0  0  0
   35.8710   29.6110   37.9610 C   0  0  0  0  0  0  0  0  0  0  0  0
   34.7300   29.4780   38.7650 C   0  0  0  0  0  0  0  0  0  0  0  0
   34.7220   29.8840   39.7790 H   0  0  0  0  0  0  0  0  0  0  0  0
   33.5560   28.8630   38.4070 C   0  0  0  0  0  0  0  0  0  0  0  0
   32.7150   28.7930   39.0710 H   0  0  0  0  0  0  0  0  0  0  0  0
   33.4590   28.3180   37.1560 C   0  0  0  0  0  3  0  0  0  0  0  0
   34.5530   28.4290   36.3370 C   0  0  0  0  0  3  0  0  0  0  0  0
   37.7260   30.3680   35.8950 H   0  0  0  0  0  0  0  0  0  0  0  0
   36.9960   29.2030   35.5460 S   0  0  0  0  0  0  0  0  0  0  0  0
   38.0520   28.1290   35.6360 O   0  0  0  0  0  0  0  0  0  0  0  0
   36.5510   29.4910   34.1530 O   0  0  0  0  0  0  0  0  0  0  0  0
  1  4  1  6  0  0  0
  1  3  1  0  0  0  0
  1  2  1  0  0  0  0
  2  6  1  0  0  0  0
  2  5  1  0  0  0  0
  3  7  1  6  0  0  0
  3  2  1  0  0  0  0
  3  8  1  0  0  0  0
  8  9  1  0  0  0  0
  9 10  2  0  0  0  0
  9 18  1  0  0  0  0
 10 19  1  0  0  0  0
 11 20  1  0  0  0  0
 11 10  1  0  0  0  0
 12 11  2  0  0  0  0
 13 21  1  0  0  0  0
 13 12  1  0  0  0  0
 14 13  2  0  0  0  0
 15 14  1  0  0  0  0
 15 16  2  0  0  0  0
 16 17  1  0  0  0  0
 17 12  1  0  0  0  0
 17  8  2  0  0  0  0
 22 14  1  0  0  0  0
 23 15  1  0  0  0  0
 24 16  1  0  0  0  0
 25 30  1  0  0  0  0
 26 27  1  0  0  0  0
 26 25  2  0  0  0  0
 27 28  2  0  0  0  0
 28 29  1  0  0  0  0
 29  1  1  0  0  0  0
 30 29  2  0  0  0  0
 31 25  1  0  0  0  0
 32 26  1  0  0  0  0
 33 34  1  0  0  0  0
 34 27  1  0  0  0  0
 34 35  2  0  0  0  0
 35 36  1  0  0  0  0
 37 35  1  0  0  0  0
 37 38  1  0  0  0  0
 39 37  2  0  0  0  0
 40 33  2  0  0  0  0
 40 39  1  0  0  0  0
 42 43  2  0  0  0  0
 42 41  1  0  0  0  0
 42 33  1  0  0  0  0
 44 42  2  0  0  0  0
M  END
>  <minimizedAffinity>
-6.49224615

$$$$

 OpenBabel03252508273D

 44 48  0  0  1  0  0  0  0  0999 V2000
   36.0660   28.6670   39.0260 C   0  0  1  0  0  0  0  0  0  0  0  0
   35.1670   27.6580   38.4490 C   0  0  0  0  0  0  0  0  0  0  0  0
   36.6200   27.3280   38.9820 C   0  0  2  0  0  0  0  0  0  0  0  0
   35.4780   29.1180   39.9050 H   0  0  0  0  0  0  0  0  0  0  0  0
   34.4110   27.0930   39.0170 H   0  0  0  0  0  0  0  0  0  0  0  0
   35.0180   27.5780   37.3610 H   0  0  0  0  0  0  0  0  0  0  0  0
   37.1160   26.8770   38.0650 H   0  0  0  0  0  0  0  0  0  0  0  0
   36.7810   26.4410   40.1340 C   0  0  0  0  0  0  0  0  0  0  0  0
   36.6320   25.0890   40.1650 C   0  0  0  0  0  0  0  0  0  0  0  0
   36.6640   24.2890   41.3010 C   0  0  0  0  0  0  0  0  0  0  0  0
   36.8720   24.9580   42.5240 C   0  0  0  0  0  0  0  0  0  0  0  0
   37.0290   26.3350   42.5160 C   0  0  0  0  0  0  0  0  0  0  0  0
   37.2890   26.9370   43.7330 C   0  0  0  0  0  0  0  0  0  0  0  0
   37.5230   28.3130   43.7770 C   0  0  0  0  0  0  0  0  0  0  0  0
   37.4990   29.0630   42.6180 C   0  0  0  0  0  0  0  0  0  0  0  0
   37.2330   28.4120   41.4360 C   0  0  0  0  0  0  0  0  0  0  0  0
   36.9860   27.0560   41.3440 C   0  0  0  0  0  0  0  0  0  0  0  0
   36.4730   24.6210   39.1900 H   0  0  0  0  0  0  0  0  0  0  0  0
   36.5360   23.2390   41.2060 H   0  0  0  0  0  0  0  0  0  0  0  0
   36.8910   24.3260   43.3870 H   0  0  0  0  0  0  0  0  0  0  0  0
   37.3060   26.3240   44.6370 H   0  0  0  0  0  0  0  0  0  0  0  0
   37.7130   28.6750   44.7920 H   0  0  0  0  0  0  0  0  0  0  0  0
   37.7020   30.0830   42.8520 H   0  0  0  0  0  0  0  0  0  0  0  0
   37.3520   29.1620   40.7070 H   0  0  0  0  0  0  0  0  0  0  0  0
   36.9850   30.7180   36.1040 C   0  0  0  0  0  0  0  0  0  0  0  0
   37.8520   31.7040   36.6720 C   0  0  0  0  0  0  0  0  0  0  0  0
   38.0910   31.6320   38.0560 C   0  0  0  0  0  0  0  0  0  0  0  0
   37.4960   30.6570   38.7630 N   0  0  0  0  0  0  0  0  0  0  0  0
   36.6750   29.7360   38.1850 C   0  0  0  0  0  0  0  0  0  0  0  0
   36.4260   29.7680   36.8810 N   0  0  0  0  0  0  0  0  0  0  0  0
   36.7990   30.7620   35.0540 H   0  0  0  0  0  0  0  0  0  0  0  0
   38.2590   32.4710   36.0580 H   0  0  0  0  0  0  0  0  0  0  0  0
   40.2440   32.6330   38.9800 C   0  0  0  0  0  0  0  0  0  0  0  0
   38.8860   32.5610   38.8260 C   0  0  0  0  0  0  0  0  0  0  0  0
   38.1730   33.5200   39.5590 C   0  0  0  0  0  0  0  0  0  0  0  0
   37.0830   33.5500   39.5100 H   0  0  0  0  0  0  0  0  0  0  0  0
   38.7160   34.4800   40.3770 C   0  0  0  0  0  0  0  0  0  0  0  0
   38.1150   35.1890   40.9130 H   0  0  0  0  0  0  0  0  0  0  0  0
   40.0770   34.5320   40.5100 C   0  0  0  0  0  3  0  0  0  0  0  0
   40.8110   33.6080   39.8100 C   0  0  0  0  0  3  0  0  0  0  0  0
   40.5070   30.3170   38.0470 H   0  0  0  0  0  0  0  0  0  0  0  0
   41.2870   31.4850   38.2420 S   0  0  0  0  0  0  0  0  0  0  0  0
   41.6920   31.8350   36.8310 O   0  0  0  0  0  0  0  0  0  0  0  0
   42.4150   30.9990   39.0860 O   0  0  0  0  0  0  0  0  0  0  0  0
  1  4  1  1  0  0  0
  2  3  1  0  0  0  0
  2  5  1  0  0  0  0
  2  1  1  0  0  0  0
  3  7  1  6  0  0  0
  3  1  1  0  0  0  0
  3  8  1  0  0  0  0
  6  2  1  0  0  0  0
  8  9  2  0  0  0  0
  8 17  1  0  0  0  0
  9 10  1  0  0  0  0
 10 11  2  0  0  0  0
 11 20  1  0  0  0  0
 12 11  1  0  0  0  0
 12 13  1  0  0  0  0
 13 14  2  0  0  0  0
 13 21  1  0  0  0  0
 14 22  1  0  0  0  0
 15 23  1  0  0  0  0
 15 14  1  0  0  0  0
 16 15  2  0  0  0  0
 17 16  1  0  0  0  0
 17 12  2  0  0  0  0
 18  9  1  0  0  0  0
 19 10  1  0  0  0  0
 24 16  1  0  0  0  0
 25 26  2  0  0  0  0
 25 30  1  0  0  0  0
 26 27  1  0  0  0  0
 27 28  2  0  0  0  0
 27 34  1  0  0  0  0
 29 28  1  0  0  0  0
 29  1  1  0  0  0  0
 30 29  2  0  0  0  0
 31 25  1  0  0  0  0
 32 26  1  0  0  0  0
 33 40  1  0  0  0  0
 34 33  2  0  0  0  0
 34 35  1  0  0  0  0
 35 37  2  0  0  0  0
 36 35  1  0  0  0  0
 37 39  1  0  0  0  0
 37 38  1  0  0  0  0
 40 39  2  0  0  0  0
 41 42  1  0  0  0  0
 42 33  1  0  0  0  0
 42 44  2  0  0  0  0
 43 42  2  0  0  0  0
M  END
>  <minimizedAffinity>
-6.45270777

$$$$

 OpenBabel03252508273D

 44 48  0  0  1  0  0  0  0  0999 V2000
   34.0730   29.0300   35.0500 C   0  0  1  0  0  0  0  0  0  0  0  0
   33.0140   28.0110   35.0620 C   0  0  0  0  0  0  0  0  0  0  0  0
   32.9380   29.3580   35.8890 C   0  0  2  0  0  0  0  0  0  0  0  0
   34.1920   29.3190   33.9440 H   0  0  0  0  0  0  0  0  0  0  0  0
   32.1870   27.9580   34.3370 H   0  0  0  0  0  0  0  0  0  0  0  0
   33.1160   27.0840   35.6490 H   0  0  0  0  0  0  0  0  0  0  0  0
   32.8050   28.9810   36.9520 H   0  0  0  0  0  0  0  0  0  0  0  0
   31.9050   30.3430   35.5680 C   0  0  0  0  0  0  0  0  0  0  0  0
   31.8100   31.1080   34.4460 C   0  0  0  0  0  0  0  0  0  0  0  0
   30.8910   32.1270   34.2280 C   0  0  0  0  0  0  0  0  0  0  0  0
   29.9820   32.3770   35.2760 C   0  0  0  0  0  0  0  0  0  0  0  0
   30.0590   31.6080   36.4270 C   0  0  0  0  0  0  0  0  0  0  0  0
   29.1080   31.8530   37.4010 C   0  0  0  0  0  0  0  0  0  0  0  0
   29.0950   31.0640   38.5540 C   0  0  0  0  0  0  0  0  0  0  0  0
   30.0180   30.0500   38.7160 C   0  0  0  0  0  0  0  0  0  0  0  0
   30.9410   29.8540   37.7170 C   0  0  0  0  0  0  0  0  0  0  0  0
   31.0000   30.6130   36.5640 C   0  0  0  0  0  0  0  0  0  0  0  0
   32.5370   30.8730   33.6660 H   0  0  0  0  0  0  0  0  0  0  0  0
   30.9080   32.6600   33.3090 H   0  0  0  0  0  0  0  0  0  0  0  0
   29.2840   33.1670   35.0900 H   0  0  0  0  0  0  0  0  0  0  0  0
   28.3860   32.6590   37.2490 H   0  0  0  0  0  0  0  0  0  0  0  0
   28.3030   31.3520   39.2510 H   0  0  0  0  0  0  0  0  0  0  0  0
   29.8470   29.5620   39.6490 H   0  0  0  0  0  0  0  0  0  0  0  0
   31.4640   28.9940   38.0270 H   0  0  0  0  0  0  0  0  0  0  0  0
   37.5850   28.0110   35.5230 C   0  0  0  0  0  0  0  0  0  0  0  0
   37.8110   28.2970   36.9060 C   0  0  0  0  0  0  0  0  0  0  0  0
   36.7390   28.8410   37.6360 C   0  0  0  0  0  0  0  0  0  0  0  0
   35.5760   29.0630   37.0040 N   0  0  0  0  0  0  0  0  0  0  0  0
   35.3980   28.7780   35.6820 C   0  0  0  0  0  0  0  0  0  0  0  0
   36.3860   28.2630   34.9590 N   0  0  0  0  0  0  0  0  0  0  0  0
   38.3910   27.5970   34.9600 H   0  0  0  0  0  0  0  0  0  0  0  0
   38.7700   28.1310   37.3330 H   0  0  0  0  0  0  0  0  0  0  0  0
   37.3580   30.3510   39.5930 C   0  0  0  0  0  0  0  0  0  0  0  0
   36.7800   29.2500   39.0220 C   0  0  0  0  0  0  0  0  0  0  0  0
   36.1700   28.3820   39.9380 C   0  0  0  0  0  0  0  0  0  0  0  0
   35.6810   27.4700   39.5880 H   0  0  0  0  0  0  0  0  0  0  0  0
   36.1120   28.5540   41.2990 C   0  0  0  0  0  0  0  0  0  0  0  0
   35.6280   27.8500   41.9490 H   0  0  0  0  0  0  0  0  0  0  0  0
   36.6950   29.6650   41.8420 C   0  0  0  0  0  3  0  0  0  0  0  0
   37.3050   30.5400   40.9790 C   0  0  0  0  0  3  0  0  0  0  0  0
   38.4900   32.5910   39.5020 H   0  0  0  0  0  0  0  0  0  0  0  0
   38.2390   31.4850   38.6500 S   0  0  0  0  0  0  0  0  0  0  0  0
   39.6350   31.0400   38.2900 O   0  0  0  0  0  0  0  0  0  0  0  0
   37.4940   32.0990   37.5140 O   0  0  0  0  0  0  0  0  0  0  0  0
  1  4  1  6  0  0  0
  1  2  1  0  0  0  0
  1 29  1  0  0  0  0
  1  3  1  0  0  0  0
  2  6  1  0  0  0  0
  2  3  1  0  0  0  0
  3  7  1  1  0  0  0
  5  2  1  0  0  0  0
  8  3  1  0  0  0  0
  8 17  1  0  0  0  0
  9  8  2  0  0  0  0
 10  9  1  0  0  0  0
 10 11  2  0  0  0  0
 11 12  1  0  0  0  0
 12 17  2  0  0  0  0
 12 13  1  0  0  0  0
 13 14  2  0  0  0  0
 14 15  1  0  0  0  0
 14 22  1  0  0  0  0
 15 23  1  0  0  0  0
 16 24  1  0  0  0  0
 16 15  2  0  0  0  0
 17 16  1  0  0  0  0
 18  9  1  0  0  0  0
 19 10  1  0  0  0  0
 20 11  1  0  0  0  0
 21 13  1  0  0  0  0
 25 26  1  0  0  0  0
 26 32  1  0  0  0  0
 26 27  2  0  0  0  0
 27 34  1  0  0  0  0
 28 27  1  0  0  0  0
 29 28  2  0  0  0  0
 30 25  2  0  0  0  0
 30 29  1  0  0  0  0
 31 25  1  0  0  0  0
 33 40  1  0  0  0  0
 34 33  2  0  0  0  0
 34 35  1  0  0  0  0
 35 37  2  0  0  0  0
 36 35  1  0  0  0  0
 37 39  1  0  0  0  0
 37 38  1  0  0  0  0
 40 39  2  0  0  0  0
 42 41  1  0  0  0  0
 42 33  1  0  0  0  0
 43 42  2  0  0  0  0
 44 42  2  0  0  0  0
M  END
>  <minimizedAffinity>
-6.44903183

$$$$

 OpenBabel03252508273D

 44 48  0  0  1  0  0  0  0  0999 V2000
   34.4250   28.4760   37.3730 C   0  0  1  0  0  0  0  0  0  0  0  0
   33.6600   27.3550   36.8100 C   0  0  0  0  0  0  0  0  0  0  0  0
   32.9910   28.6840   37.3470 C   0  0  2  0  0  0  0  0  0  0  0  0
   35.1590   28.7790   36.5420 H   0  0  0  0  0  0  0  0  0  0  0  0
   33.4410   27.2200   35.7390 H   0  0  0  0  0  0  0  0  0  0  0  0
   33.4660   26.4410   37.3940 H   0  0  0  0  0  0  0  0  0  0  0  0
   32.2780   28.2920   38.1400 H   0  0  0  0  0  0  0  0  0  0  0  0
   32.2800   29.5610   36.4150 C   0  0  0  0  0  0  0  0  0  0  0  0
   32.6230   29.8590   35.1330 C   0  0  0  0  0  0  0  0  0  0  0  0
   31.9990   30.7950   34.3170 C   0  0  0  0  0  0  0  0  0  0  0  0
   30.9140   31.4890   34.8880 C   0  0  0  0  0  0  0  0  0  0  0  0
   30.5450   31.2000   36.1930 C   0  0  0  0  0  0  0  0  0  0  0  0
   29.4380   31.8650   36.6860 C   0  0  0  0  0  0  0  0  0  0  0  0
   28.9790   31.5650   37.9710 C   0  0  0  0  0  0  0  0  0  0  0  0
   29.6220   30.6120   38.7370 C   0  0  0  0  0  0  0  0  0  0  0  0
   30.7190   29.9850   38.1960 C   0  0  0  0  0  0  0  0  0  0  0  0
   31.2150   30.2540   36.9350 C   0  0  0  0  0  0  0  0  0  0  0  0
   33.4700   29.2920   34.7400 H   0  0  0  0  0  0  0  0  0  0  0  0
   32.3530   30.9450   33.3270 H   0  0  0  0  0  0  0  0  0  0  0  0
   30.4480   32.2080   34.2460 H   0  0  0  0  0  0  0  0  0  0  0  0
   28.9440   32.6130   36.0620 H   0  0  0  0  0  0  0  0  0  0  0  0
   28.1020   32.1550   38.2530 H   0  0  0  0  0  0  0  0  0  0  0  0
   29.1270   30.5220   39.6770 H   0  0  0  0  0  0  0  0  0  0  0  0
   30.9730   29.2620   38.9180 H   0  0  0  0  0  0  0  0  0  0  0  0
   35.5910   29.2190   40.7900 C   0  0  0  0  0  0  0  0  0  0  0  0
   36.4570   28.1160   41.0730 C   0  0  0  0  0  0  0  0  0  0  0  0
   36.6080   27.1400   40.0710 C   0  0  0  0  0  0  0  0  0  0  0  0
   35.9380   27.2930   38.9170 N   0  0  0  0  0  0  0  0  0  0  0  0
   35.1210   28.3590   38.6850 C   0  0  0  0  0  0  0  0  0  0  0  0
   34.9530   29.3010   39.6050 N   0  0  0  0  0  0  0  0  0  0  0  0
   35.4710   29.9650   41.5430 H   0  0  0  0  0  0  0  0  0  0  0  0
   36.9270   28.0390   42.0240 H   0  0  0  0  0  0  0  0  0  0  0  0
   38.6920   25.6930   39.8410 C   0  0  0  0  0  0  0  0  0  0  0  0
   37.3870   25.9290   40.1810 C   0  0  0  0  0  0  0  0  0  0  0  0
   36.7110   24.8050   40.6770 C   0  0  0  0  0  0  0  0  0  0  0  0
   35.6640   24.8820   40.9750 H   0  0  0  0  0  0  0  0  0  0  0  0
   37.2420   23.5500   40.8410 C   0  0  0  0  0  0  0  0  0  0  0  0
   36.6710   22.7270   41.2280 H   0  0  0  0  0  0  0  0  0  0  0  0
   38.5500   23.3430   40.4970 C   0  0  0  0  0  3  0  0  0  0  0  0
   39.2470   24.4180   40.0050 C   0  0  0  0  0  3  0  0  0  0  0  0
   40.9310   26.3260   38.8960 H   0  0  0  0  0  0  0  0  0  0  0  0
   39.6620   26.9160   39.1260 S   0  0  0  0  0  0  0  0  0  0  0  0
   39.2380   27.3070   37.7310 O   0  0  0  0  0  0  0  0  0  0  0  0
   39.9870   28.0790   40.0010 O   0  0  0  0  0  0  0  0  0  0  0  0
  1  4  1  6  0  0  0
  1 29  1  0  0  0  0
  2  3  1  0  0  0  0
  2  1  1  0  0  0  0
  2  6  1  0  0  0  0
  3  1  1  0  0  0  0
  3  7  1  1  0  0  0
  5  2  1  0  0  0  0
  8 17  1  0  0  0  0
  8  3  1  0  0  0  0
  9  8  2  0  0  0  0
 10 11  2  0  0  0  0
 10  9  1  0  0  0  0
 11 12  1  0  0  0  0
 12 13  2  0  0  0  0
 12 17  1  0  0  0  0
 13 14  1  0  0  0  0
 14 22  1  0  0  0  0
 14 15  2  0  0  0  0
 15 23  1  0  0  0  0
 16 15  1  0  0  0  0
 16 24  1  0  0  0  0
 17 16  2  0  0  0  0
 18  9  1  0  0  0  0
 19 10  1  0  0  0  0
 20 11  1  0  0  0  0
 21 13  1  0  0  0  0
 25 26  1  0  0  0  0
 25 31  1  0  0  0  0
 26 32  1  0  0  0  0
 27 34  1  0  0  0  0
 27 26  2  0  0  0  0
 28 27  1  0  0  0  0
 29 28  2  0  0  0  0
 29 30  1  0  0  0  0
 30 25  2  0  0  0  0
 33 40  2  0  0  0  0
 33 34  1  0  0  0  0
 34 35  2  0  0  0  0
 35 37  1  0  0  0  0
 35 36  1  0  0  0  0
 37 38  1  0  0  0  0
 39 37  2  0  0  0  0
 40 39  1  0  0  0  0
 41 42  1  0  0  0  0
 42 33  1  0  0  0  0
 42 44  2  0  0  0  0
 43 42  2  0  0  0  0
M  END
>  <minimizedAffinity>
-6.41295528

$$$$

 OpenBabel03252508273D

 44 48  0  0  1  0  0  0  0  0999 V2000
   35.9480   28.9700   39.4810 C   0  0  1  0  0  0  0  0  0  0  0  0
   35.6100   30.0460   40.4220 C   0  0  0  0  0  0  0  0  0  0  0  0
   35.8270   28.5420   40.8600 C   0  0  2  0  0  0  0  0  0  0  0  0
   36.9190   29.3170   38.9710 H   0  0  0  0  0  0  0  0  0  0  0  0
   36.3450   30.7010   40.9160 H   0  0  0  0  0  0  0  0  0  0  0  0
   34.5820   30.4340   40.5050 H   0  0  0  0  0  0  0  0  0  0  0  0
   34.8400   28.2910   41.3620 H   0  0  0  0  0  0  0  0  0  0  0  0
   36.9450   28.2020   41.7420 C   0  0  0  0  0  0  0  0  0  0  0  0
   37.7120   29.0550   42.4720 C   0  0  0  0  0  0  0  0  0  0  0  0
   38.8470   28.7150   43.1980 C   0  0  0  0  0  0  0  0  0  0  0  0
   39.2220   27.3570   43.1620 C   0  0  0  0  0  0  0  0  0  0  0  0
   38.4530   26.4680   42.4260 C   0  0  0  0  0  0  0  0  0  0  0  0
   38.8280   25.1390   42.4710 C   0  0  0  0  0  0  0  0  0  0  0  0
   38.0510   24.1890   41.8040 C   0  0  0  0  0  0  0  0  0  0  0  0
   36.9200   24.5740   41.1110 C   0  0  0  0  0  0  0  0  0  0  0  0
   36.5970   25.9100   41.0990 C   0  0  0  0  0  0  0  0  0  0  0  0
   37.3380   26.8870   41.7350 C   0  0  0  0  0  0  0  0  0  0  0  0
   37.3780   30.0950   42.4660 H   0  0  0  0  0  0  0  0  0  0  0  0
   39.3710   29.4680   43.7350 H   0  0  0  0  0  0  0  0  0  0  0  0
   40.1000   27.1150   43.7250 H   0  0  0  0  0  0  0  0  0  0  0  0
   39.7250   24.8570   43.0280 H   0  0  0  0  0  0  0  0  0  0  0  0
   38.4460   23.1740   41.9070 H   0  0  0  0  0  0  0  0  0  0  0  0
   36.4630   23.7150   40.6750 H   0  0  0  0  0  0  0  0  0  0  0  0
   35.6740   25.9380   40.5920 H   0  0  0  0  0  0  0  0  0  0  0  0
   34.3540   26.9370   36.8500 C   0  0  0  0  0  0  0  0  0  0  0  0
   33.1320   27.6390   36.6080 C   0  0  0  0  0  0  0  0  0  0  0  0
   32.8920   28.7980   37.3690 C   0  0  0  0  0  0  0  0  0  0  0  0
   33.8100   29.1760   38.2730 N   0  0  0  0  0  0  0  0  0  0  0  0
   34.9630   28.4790   38.4760 C   0  0  0  0  0  0  0  0  0  0  0  0
   35.2280   27.3820   37.7770 N   0  0  0  0  0  0  0  0  0  0  0  0
   34.5470   26.0580   36.2780 H   0  0  0  0  0  0  0  0  0  0  0  0
   32.4320   27.2610   35.9030 H   0  0  0  0  0  0  0  0  0  0  0  0
   31.1390   30.2760   36.2590 C   0  0  0  0  0  0  0  0  0  0  0  0
   31.7000   29.6120   37.3160 C   0  0  0  0  0  0  0  0  0  0  0  0
   31.0190   29.7860   38.5290 C   0  0  0  0  0  0  0  0  0  0  0  0
   31.3830   29.3020   39.4370 H   0  0  0  0  0  0  0  0  0  0  0  0
   29.8850   30.5370   38.7190 C   0  0  0  0  0  0  0  0  0  0  0  0
   29.4090   30.6310   39.6770 H   0  0  0  0  0  0  0  0  0  0  0  0
   29.3440   31.1870   37.6440 C   0  0  0  0  0  3  0  0  0  0  0  0
   29.9820   31.0440   36.4380 C   0  0  0  0  0  3  0  0  0  0  0  0
   33.2410   29.9440   34.9250 H   0  0  0  0  0  0  0  0  0  0  0  0
   31.8770   30.2670   34.7080 S   0  0  0  0  0  0  0  0  0  0  0  0
   31.4240   29.1410   33.8120 O   0  0  0  0  0  0  0  0  0  0  0  0
   31.9510   31.5870   34.0190 O   0  0  0  0  0  0  0  0  0  0  0  0
  1  4  1  6  0  0  0
  1  2  1  0  0  0  0
  1  3  1  0  0  0  0
  2  6  1  0  0  0  0
  2  3  1  0  0  0  0
  2  5  1  0  0  0  0
  3  7  1  1  0  0  0
  3  8  1  0  0  0  0
  8  9  1  0  0  0  0
  9 10  2  0  0  0  0
 10 19  1  0  0  0  0
 11 10  1  0  0  0  0
 11 20  1  0  0  0  0
 12 13  1  0  0  0  0
 12 11  2  0  0  0  0
 13 21  1  0  0  0  0
 14 22  1  0  0  0  0
 14 13  2  0  0  0  0
 15 14  1  0  0  0  0
 16 15  2  0  0  0  0
 16 17  1  0  0  0  0
 17  8  2  0  0  0  0
 17 12  1  0  0  0  0
 18  9  1  0  0  0  0
 23 15  1  0  0  0  0
 24 16  1  0  0  0  0
 25 30  1  0  0  0  0
 26 25  2  0  0  0  0
 26 27  1  0  0  0  0
 27 28  2  0  0  0  0
 28 29  1  0  0  0  0
 29  1  1  0  0  0  0
 30 29  2  0  0  0  0
 31 25  1  0  0  0  0
 32 26  1  0  0  0  0
 33 40  2  0  0  0  0
 33 34  1  0  0  0  0
 34 27  1  0  0  0  0
 34 35  2  0  0  0  0
 35 37  1  0  0  0  0
 35 36  1  0  0  0  0
 37 38  1  0  0  0  0
 39 37  2  0  0  0  0
 40 39  1  0  0  0  0
 42 41  1  0  0  0  0
 42 33  1  0  0  0  0
 43 42  2  0  0  0  0
 44 42  2  0  0  0  0
M  END
>  <minimizedAffinity>
-6.38340187

$$$$
