
 OpenBabel03252508263D

 44 48  0  0  1  0  0  0  0  0999 V2000
   46.3010   32.3710   46.2940 C   0  0  1  0  0  0  0  0  0  0  0  0
   46.7050   32.5510   47.6950 C   0  0  0  0  0  0  0  0  0  0  0  0
   45.3530   31.8550   47.2600 C   0  0  2  0  0  0  0  0  0  0  0  0
   47.1580   31.7740   45.8140 H   0  0  0  0  0  0  0  0  0  0  0  0
   47.3360   31.8470   48.2610 H   0  0  0  0  0  0  0  0  0  0  0  0
   46.6110   33.5260   48.1990 H   0  0  0  0  0  0  0  0  0  0  0  0
   44.5730   32.4920   47.7870 H   0  0  0  0  0  0  0  0  0  0  0  0
   45.1410   30.4390   47.5640 C   0  0  0  0  0  0  0  0  0  0  0  0
   45.0450   29.8610   48.7920 C   0  0  0  0  0  0  0  0  0  0  0  0
   44.9730   28.4980   49.0500 C   0  0  0  0  0  0  0  0  0  0  0  0
   45.0040   27.6520   47.9230 C   0  0  0  0  0  0  0  0  0  0  0  0
   45.0990   28.2190   46.6620 C   0  0  0  0  0  0  0  0  0  0  0  0
   45.0660   27.3490   45.5870 C   0  0  0  0  0  0  0  0  0  0  0  0
   45.0900   27.8680   44.2900 C   0  0  0  0  0  0  0  0  0  0  0  0
   45.1430   29.2330   44.0850 C   0  0  0  0  0  0  0  0  0  0  0  0
   45.1760   30.0490   45.1910 C   0  0  0  0  0  0  0  0  0  0  0  0
   45.1630   29.5830   46.4910 C   0  0  0  0  0  0  0  0  0  0  0  0
   45.0250   30.5620   49.6300 H   0  0  0  0  0  0  0  0  0  0  0  0
   44.8990   28.1580   50.0540 H   0  0  0  0  0  0  0  0  0  0  0  0
   44.9500   26.6050   48.1420 H   0  0  0  0  0  0  0  0  0  0  0  0
   45.0220   26.2740   45.7730 H   0  0  0  0  0  0  0  0  0  0  0  0
   45.0640   27.0880   43.5250 H   0  0  0  0  0  0  0  0  0  0  0  0
   45.1510   29.4330   43.0380 H   0  0  0  0  0  0  0  0  0  0  0  0
   45.1280   31.0190   44.7850 H   0  0  0  0  0  0  0  0  0  0  0  0
   44.6750   35.4710   45.1370 C   0  0  0  0  0  0  0  0  0  0  0  0
   45.2080   35.6320   43.8190 C   0  0  0  0  0  0  0  0  0  0  0  0
   46.1220   34.6630   43.3700 C   0  0  0  0  0  0  0  0  0  0  0  0
   46.4440   33.6510   44.1920 N   0  0  0  0  0  0  0  0  0  0  0  0
   45.9160   33.5320   45.4430 C   0  0  0  0  0  0  0  0  0  0  0  0
   45.0480   34.4260   45.9030 N   0  0  0  0  0  0  0  0  0  0  0  0
   43.9790   36.2000   45.4870 H   0  0  0  0  0  0  0  0  0  0  0  0
   44.9370   36.4790   43.2360 H   0  0  0  0  0  0  0  0  0  0  0  0
   46.4790   34.0740   40.9170 C   0  0  0  0  0  0  0  0  0  0  0  0
   46.8120   34.6750   42.1000 C   0  0  0  0  0  0  0  0  0  0  0  0
   48.0250   35.3760   42.0660 C   0  0  0  0  0  0  0  0  0  0  0  0
   48.3860   35.8920   42.9590 H   0  0  0  0  0  0  0  0  0  0  0  0
   48.8590   35.4990   40.9820 C   0  0  0  0  0  0  0  0  0  0  0  0
   49.7780   36.0530   41.0210 H   0  0  0  0  0  0  0  0  0  0  0  0
   48.5000   34.8920   39.8120 C   0  0  0  0  0  3  0  0  0  0  0  0
   47.3200   34.1930   39.8020 C   0  0  0  0  0  3  0  0  0  0  0  0
   45.0490   32.6380   39.4340 H   0  0  0  0  0  0  0  0  0  0  0  0
   45.0800   33.0880   40.7790 S   0  0  0  0  0  0  0  0  0  0  0  0
   45.1600   31.7890   41.5450 O   0  0  0  0  0  0  0  0  0  0  0  0
   43.7750   33.7930   40.9290 O   0  0  0  0  0  0  0  0  0  0  0  0
  1  4  1  6  0  0  0
  1  3  1  0  0  0  0
  1  2  1  0  0  0  0
  2  6  1  0  0  0  0
  2  5  1  0  0  0  0
  3  8  1  0  0  0  0
  3  2  1  0  0  0  0
  3  7  1  1  0  0  0
  8  9  1  0  0  0  0
  9 10  2  0  0  0  0
  9 18  1  0  0  0  0
 10 19  1  0  0  0  0
 11 20  1  0  0  0  0
 11 10  1  0  0  0  0
 12 11  2  0  0  0  0
 13 21  1  0  0  0  0
 13 12  1  0  0  0  0
 14 13  2  0  0  0  0
 15 14  1  0  0  0  0
 15 16  2  0  0  0  0
 16 17  1  0  0  0  0
 17 12  1  0  0  0  0
 17  8  2  0  0  0  0
 22 14  1  0  0  0  0
 23 15  1  0  0  0  0
 24 16  1  0  0  0  0
 25 31  1  0  0  0  0
 25 30  1  0  0  0  0
 26 25  2  0  0  0  0
 27 26  1  0  0  0  0
 27 28  2  0  0  0  0
 28 29  1  0  0  0  0
 29 30  2  0  0  0  0
 29  1  1  0  0  0  0
 32 26  1  0  0  0  0
 33 34  1  0  0  0  0
 34 27  1  0  0  0  0
 35 34  2  0  0  0  0
 35 36  1  0  0  0  0
 37 38  1  0  0  0  0
 37 35  1  0  0  0  0
 39 37  2  0  0  0  0
 40 39  1  0  0  0  0
 40 33  2  0  0  0  0
 41 42  1  0  0  0  0
 42 33  1  0  0  0  0
 42 44  2  0  0  0  0
 42 43  2  0  0  0  0
M  END
>  <minimizedAffinity>
-6.22853041

>  <minimizedRMSD>
0.71170485

$$$$
