
 OpenBabel03252502113D

 31 33  0  0  0  0  0  0  0  0999 V2000
   45.2830   35.3010   43.1200 Cl  0  0  0  0  0  0  0  0  0  0  0  0
   45.1620   34.5390   41.5600 C   0  0  0  0  0  0  0  0  0  0  0  0
   46.2670   34.1440   40.8810 C   0  0  0  0  0  0  0  0  0  0  0  0
   46.0650   33.5430   39.6460 C   0  0  0  0  0  0  0  0  0  0  0  0
   44.8210   33.3510   39.1230 C   0  0  0  0  0  0  0  0  0  0  0  0
   43.7130   33.7550   39.8140 C   0  0  0  0  0  0  0  0  0  0  0  0
   43.8990   34.3520   41.0450 C   0  0  0  0  0  0  0  0  0  0  0  0
   44.6810   32.8840   38.1630 H   0  0  0  0  0  0  0  0  0  0  0  0
   42.6950   33.6300   39.4500 H   0  0  0  0  0  0  0  0  0  0  0  0
   43.0310   34.6700   41.5950 H   0  0  0  0  0  0  0  0  0  0  0  0
   49.5480   35.7460   41.8850 C   0  0  0  0  0  0  0  0  0  0  0  0
   48.2860   35.5450   41.3120 C   0  0  0  0  0  0  0  0  0  0  0  0
   47.5760   34.3630   41.4720 C   0  0  0  0  0  0  0  0  0  0  0  0
   48.1930   33.4230   42.2220 N   0  0  0  0  0  0  0  0  0  0  0  0
   49.4030   33.6170   42.7720 C   0  0  0  0  0  0  0  0  0  0  0  0
   50.0720   34.7600   42.6070 N   0  0  0  0  0  0  0  0  0  0  0  0
   50.0470   36.7110   41.7110 H   0  0  0  0  0  0  0  0  0  0  0  0
   47.8830   36.3490   40.7380 H   0  0  0  0  0  0  0  0  0  0  0  0
   49.8670   32.8250   43.3740 H   0  0  0  0  0  0  0  0  0  0  0  0
   47.8320   31.8920   38.9460 C   0  0  0  0  0  0  0  0  0  0  0  0
   47.2290   33.1020   38.8810 C   0  0  0  0  0  0  0  0  0  0  0  0
   47.7670   34.0310   37.9860 C   0  0  0  0  0  0  0  0  0  0  0  0
   47.3760   35.0350   37.8400 H   0  0  0  0  0  0  0  0  0  0  0  0
   48.8580   33.7140   37.2140 C   0  0  0  0  0  0  0  0  0  0  0  0
   49.3140   34.4040   36.5010 H   0  0  0  0  0  0  0  0  0  0  0  0
   49.4740   32.4600   37.2870 C   0  0  0  0  0  0  0  0  0  0  0  0
   48.9260   31.5370   38.1870 C   0  0  0  0  0  0  0  0  0  0  0  0
   46.2690   31.1840   40.9100 H   0  0  0  0  0  0  0  0  0  0  0  0
   47.2000   30.7210   40.0440 S   0  0  0  0  0  0  0  0  0  0  0  0
   46.7580   29.4420   39.3410 O   0  0  0  0  0  0  0  0  0  0  0  0
   48.3710   30.2660   40.9070 O   0  0  0  0  0  0  0  0  0  0  0  0
  2  1  1  0  0  0  0
  3 13  1  0  0  0  0
  3  2  2  0  0  0  0
  4  3  1  0  0  0  0
  5  4  2  0  0  0  0
  5  6  1  0  0  0  0
  6  7  2  0  0  0  0
  7  2  1  0  0  0  0
  7 10  1  0  0  0  0
  8  5  1  0  0  0  0
  9  6  1  0  0  0  0
 11 16  1  0  0  0  0
 12 13  1  0  0  0  0
 12 11  2  0  0  0  0
 13 14  2  0  0  0  0
 14 15  1  0  0  0  0
 15 19  1  0  0  0  0
 16 15  2  0  0  0  0
 17 11  1  0  0  0  0
 18 12  1  0  0  0  0
 20 29  1  0  0  0  0
 21 20  1  0  0  0  0
 21  4  1  0  0  0  0
 22 21  2  0  0  0  0
 23 22  1  0  0  0  0
 24 26  2  0  0  0  0
 24 22  1  0  0  0  0
 25 24  1  0  0  0  0
 26 27  1  0  0  0  0
 27 20  2  0  0  0  0
 29 31  2  0  0  0  0
 29 28  1  0  0  0  0
 30 29  2  0  0  0  0
M  END
>  <minimizedAffinity>
-4.58671999

>  <minimizedRMSD>
5.43416786

$$$$
