
 OpenBabel03242523033D

 35 37  0  0  0  0  0  0  0  0999 V2000
   43.5990   35.3960   42.7450 C   0  0  0  0  0  0  0  0  0  0  0  0
   44.3080   34.7280   41.7550 C   0  0  0  0  0  0  0  0  0  0  0  0
   45.6100   34.4230   42.0550 C   0  0  0  0  0  0  0  0  0  0  0  0
   46.1770   34.7470   43.2430 N   0  0  0  0  0  0  0  0  0  0  0  0
   45.4330   35.4050   44.1860 C   0  0  0  0  0  0  0  0  0  0  0  0
   44.1470   35.7270   43.9280 N   0  0  0  0  0  0  0  0  0  0  0  0
   42.5740   35.7200   42.6870 H   0  0  0  0  0  0  0  0  0  0  0  0
   45.8180   35.7010   45.1600 H   0  0  0  0  0  0  0  0  0  0  0  0
   43.6610   34.3620   40.5650 N   0  0  0  0  0  0  0  0  0  0  0  0
   42.7660   35.1940   39.9000 C   0  0  0  0  0  0  0  0  0  0  0  0
   42.3920   34.8090   38.4980 C   0  0  0  0  0  0  0  0  0  0  0  0
   43.3790   34.1870   37.7330 N   0  0  0  0  0  0  0  0  0  0  0  0
   44.1680   33.2480   38.4100 C   0  0  0  0  0  0  0  0  0  0  0  0
   43.8260   33.1150   39.8880 C   0  0  0  0  0  0  0  0  0  0  0  0
   41.7350   35.1300   40.3790 H   0  0  0  0  0  0  0  0  0  0  0  0
   43.1730   36.1960   39.8100 H   0  0  0  0  0  0  0  0  0  0  0  0
   42.0100   35.7210   37.9840 H   0  0  0  0  0  0  0  0  0  0  0  0
   41.4940   34.1180   38.5040 H   0  0  0  0  0  0  0  0  0  0  0  0
   43.2940   34.1760   36.7310 H   0  0  0  0  0  0  0  0  0  0  0  0
   43.9840   32.2400   37.9830 H   0  0  0  0  0  0  0  0  0  0  0  0
   45.2630   33.4010   38.3360 H   0  0  0  0  0  0  0  0  0  0  0  0
   44.6070   32.4520   40.2920 H   0  0  0  0  0  0  0  0  0  0  0  0
   42.8780   32.5220   39.9820 H   0  0  0  0  0  0  0  0  0  0  0  0
   47.0770   32.4460   41.5070 C   0  0  0  0  0  0  0  0  0  0  0  0
   46.6030   33.7580   41.2800 C   0  0  0  0  0  0  0  0  0  0  0  0
   47.3380   34.3350   40.2220 C   0  0  0  0  0  0  0  0  0  0  0  0
   46.9920   35.3680   40.0320 H   0  0  0  0  0  0  0  0  0  0  0  0
   48.3570   33.7900   39.4800 C   0  0  0  0  0  0  0  0  0  0  0  0
   48.7560   34.4390   38.7250 H   0  0  0  0  0  0  0  0  0  0  0  0
   48.7160   32.5130   39.8020 C   0  0  0  0  0  0  0  0  0  0  0  0
   48.0850   31.8390   40.8080 C   0  0  0  0  0  0  0  0  0  0  0  0
   46.5780   30.2040   42.6360 H   0  0  0  0  0  0  0  0  0  0  0  0
   46.2870   31.5340   42.8030 S   0  0  0  0  0  0  0  0  0  0  0  0
   44.8020   31.7490   42.7840 O   0  0  0  0  0  0  0  0  0  0  0  0
   46.8610   32.0230   44.1080 O   0  0  0  0  0  0  0  0  0  0  0  0
  1  6  1  0  0  0  0
  2  3  1  0  0  0  0
  2  1  2  0  0  0  0
  3  4  2  0  0  0  0
  4  5  1  0  0  0  0
  5  8  1  0  0  0  0
  6  5  2  0  0  0  0
  7  1  1  0  0  0  0
  9  2  1  0  0  0  0
 10 15  1  0  0  0  0
 10  9  1  0  0  0  0
 11 18  1  0  0  0  0
 11 10  1  0  0  0  0
 12 13  1  0  0  0  0
 12 11  1  0  0  0  0
 13 14  1  0  0  0  0
 14 23  1  0  0  0  0
 14 22  1  0  0  0  0
 14  9  1  0  0  0  0
 16 10  1  0  0  0  0
 17 11  1  0  0  0  0
 19 12  1  0  0  0  0
 20 13  1  0  0  0  0
 21 13  1  0  0  0  0
 24 33  1  0  0  0  0
 25 24  1  0  0  0  0
 25  3  1  0  0  0  0
 26 25  2  0  0  0  0
 27 26  1  0  0  0  0
 28 30  2  0  0  0  0
 28 26  1  0  0  0  0
 29 28  1  0  0  0  0
 30 31  1  0  0  0  0
 31 24  2  0  0  0  0
 32 33  1  0  0  0  0
 33 35  2  0  0  0  0
 34 33  2  0  0  0  0
M  END
>  <minimizedAffinity>
-4.34127092

>  <minimizedRMSD>
3.04866195

$$$$
