
 OpenBabel03252506563D

 41 45  0  0  0  0  0  0  0  0999 V2000
   47.0620   31.3060   45.1110 C   0  0  0  0  0  0  0  0  0  0  0  0
   46.8020   32.6680   45.1740 C   0  0  0  0  0  0  0  0  0  0  0  0
   46.2780   33.2800   46.2900 C   0  0  0  0  0  0  0  0  0  0  0  0
   45.9860   32.5240   47.4220 C   0  0  0  0  0  0  0  0  0  0  0  0
   45.4790   32.7730   48.6620 N   0  0  0  0  0  0  0  0  0  0  0  0
   45.4280   31.6040   49.3400 C   0  0  0  0  0  0  0  0  0  0  0  0
   45.9030   30.6420   48.5160 N   0  0  0  0  0  0  0  0  0  0  0  0
   46.2510   31.1810   47.3360 C   0  0  0  0  0  0  0  0  0  0  0  0
   46.7750   30.5420   46.2340 C   0  0  0  0  0  0  0  0  0  0  0  0
   47.4770   30.8520   44.2100 H   0  0  0  0  0  0  0  0  0  0  0  0
   46.0690   34.3420   46.3570 H   0  0  0  0  0  0  0  0  0  0  0  0
   45.2180   33.7510   48.9050 H   0  0  0  0  0  0  0  0  0  0  0  0
   45.0590   31.5480   50.3520 H   0  0  0  0  0  0  0  0  0  0  0  0
   46.4770   35.1910   42.5230 C   0  0  0  0  0  0  0  0  0  0  0  0
   47.6610   35.0310   41.8020 C   0  0  0  0  0  0  0  0  0  0  0  0
   48.5640   34.0620   42.2220 C   0  0  0  0  0  0  0  0  0  0  0  0
   48.2630   33.3020   43.3250 N   0  0  0  0  0  0  0  0  0  0  0  0
   47.0980   33.4940   43.9980 C   0  0  0  0  0  0  0  0  0  0  0  0
   46.2010   34.4340   43.6050 N   0  0  0  0  0  0  0  0  0  0  0  0
   45.7960   35.9520   42.1720 H   0  0  0  0  0  0  0  0  0  0  0  0
   47.9330   35.6090   40.9290 H   0  0  0  0  0  0  0  0  0  0  0  0
   49.5070   33.8510   41.7420 H   0  0  0  0  0  0  0  0  0  0  0  0
   47.0170   29.1030   46.2540 C   0  0  0  0  0  0  0  0  0  0  0  0
   48.2640   28.5130   46.3580 C   0  0  0  0  0  0  0  0  0  0  0  0
   48.0200   27.1440   46.3370 C   0  0  0  0  0  0  0  0  0  0  0  0
   46.6580   26.9760   46.2230 C   0  0  0  0  0  0  0  0  0  0  0  0
   46.1140   28.1730   46.1780 O   0  0  0  0  0  0  0  0  0  0  0  0
   49.2000   29.0270   46.4370 H   0  0  0  0  0  0  0  0  0  0  0  0
   48.7770   26.3510   46.4000 H   0  0  0  0  0  0  0  0  0  0  0  0
   45.6850   25.0100   47.3260 C   0  0  0  0  0  0  0  0  0  0  0  0
   45.9400   25.7070   46.1620 C   0  0  0  0  0  0  0  0  0  0  0  0
   45.5270   25.2190   44.9390 C   0  0  0  0  0  0  0  0  0  0  0  0
   45.7260   25.7650   44.0060 H   0  0  0  0  0  0  0  0  0  0  0  0
   44.8470   24.0310   44.8080 C   0  0  0  0  0  0  0  0  0  0  0  0
   44.5120   23.6260   43.8640 H   0  0  0  0  0  0  0  0  0  0  0  0
   44.5870   23.3250   45.9860 C   0  0  0  0  0  3  0  0  0  0  0  0
   45.0020   23.8170   47.1970 C   0  0  0  0  0  3  0  0  0  0  0  0
   46.1800   26.9660   48.9750 H   0  0  0  0  0  0  0  0  0  0  0  0
   46.1980   25.6060   48.8890 S   0  0  0  0  0  0  0  0  0  0  0  0
   45.2370   25.0590   49.9300 O   0  0  0  0  0  0  0  0  0  0  0  0
   47.5620   25.0300   49.2340 O   0  0  0  0  0  0  0  0  0  0  0  0
  1  2  2  0  0  0  0
  1  9  1  0  0  0  0
  2  3  1  0  0  0  0
  3 11  1  0  0  0  0
  3  4  2  0  0  0  0
  4  5  1  0  0  0  0
  5 12  1  0  0  0  0
  5  6  1  0  0  0  0
  6 13  1  0  0  0  0
  7  6  2  0  0  0  0
  8  4  1  0  0  0  0
  8  7  1  0  0  0  0
  9 23  1  0  0  0  0
  9  8  2  0  0  0  0
 10  1  1  0  0  0  0
 14 19  1  0  0  0  0
 15 16  1  0  0  0  0
 15 14  2  0  0  0  0
 16 17  2  0  0  0  0
 17 18  1  0  0  0  0
 18  2  1  0  0  0  0
 19 18  2  0  0  0  0
 20 14  1  0  0  0  0
 21 15  1  0  0  0  0
 22 16  1  0  0  0  0
 23 24  2  0  0  0  0
 24 28  1  0  0  0  0
 25 24  1  0  0  0  0
 25 29  1  0  0  0  0
 26 25  2  0  0  0  0
 27 26  1  0  0  0  0
 27 23  1  0  0  0  0
 30 39  1  0  0  0  0
 31 26  1  0  0  0  0
 31 30  2  0  0  0  0
 32 31  1  0  0  0  0
 33 32  1  0  0  0  0
 34 32  2  0  0  0  0
 34 36  1  0  0  0  0
 35 34  1  0  0  0  0
 36 37  2  0  0  0  0
 37 30  1  0  0  0  0
 39 38  1  0  0  0  0
 39 41  2  0  0  0  0
 39 40  2  0  0  0  0
M  END
>  <minimizedAffinity>
-5.6686101

>  <minimizedRMSD>
0.742372155

$$$$
