
 OpenBabel03252506563D

 41 45  0  0  0  0  0  0  0  0999 V2000
   47.2240   31.3640   45.1900 C   0  0  0  0  0  0  0  0  0  0  0  0
   46.8610   32.7040   45.1780 C   0  0  0  0  0  0  0  0  0  0  0  0
   46.2580   33.3270   46.2470 C   0  0  0  0  0  0  0  0  0  0  0  0
   45.9910   32.6050   47.4070 C   0  0  0  0  0  0  0  0  0  0  0  0
   45.4280   32.8730   48.6190 N   0  0  0  0  0  0  0  0  0  0  0  0
   45.4450   31.7380   49.3530 C   0  0  0  0  0  0  0  0  0  0  0  0
   46.0160   30.7770   48.5920 N   0  0  0  0  0  0  0  0  0  0  0  0
   46.3580   31.2840   47.3960 C   0  0  0  0  0  0  0  0  0  0  0  0
   46.9610   30.6350   46.3410 C   0  0  0  0  0  0  0  0  0  0  0  0
   47.7000   30.9010   44.3240 H   0  0  0  0  0  0  0  0  0  0  0  0
   45.9680   34.3710   46.2550 H   0  0  0  0  0  0  0  0  0  0  0  0
   45.0870   33.8390   48.8060 H   0  0  0  0  0  0  0  0  0  0  0  0
   45.0510   31.7020   50.3570 H   0  0  0  0  0  0  0  0  0  0  0  0
   46.4850   35.1590   42.4710 C   0  0  0  0  0  0  0  0  0  0  0  0
   47.6410   34.9600   41.7150 C   0  0  0  0  0  0  0  0  0  0  0  0
   48.5440   33.9900   42.1310 C   0  0  0  0  0  0  0  0  0  0  0  0
   48.2690   33.2650   43.2650 N   0  0  0  0  0  0  0  0  0  0  0  0
   47.1290   33.4930   43.9700 C   0  0  0  0  0  0  0  0  0  0  0  0
   46.2340   34.4360   43.5810 N   0  0  0  0  0  0  0  0  0  0  0  0
   45.8030   35.9210   42.1210 H   0  0  0  0  0  0  0  0  0  0  0  0
   47.8920   35.5110   40.8180 H   0  0  0  0  0  0  0  0  0  0  0  0
   49.4670   33.7510   41.6270 H   0  0  0  0  0  0  0  0  0  0  0  0
   47.3110   29.2210   46.4400 C   0  0  0  0  0  0  0  0  0  0  0  0
   48.3370   28.6110   45.7420 C   0  0  0  0  0  0  0  0  0  0  0  0
   48.3040   27.2780   46.1410 C   0  0  0  0  0  0  0  0  0  0  0  0
   47.2740   27.1510   47.0450 C   0  0  0  0  0  0  0  0  0  0  0  0
   46.7200   28.3370   47.1840 O   0  0  0  0  0  0  0  0  0  0  0  0
   49.0000   29.0880   45.0500 H   0  0  0  0  0  0  0  0  0  0  0  0
   48.9760   26.4830   45.7940 H   0  0  0  0  0  0  0  0  0  0  0  0
   45.6940   25.2980   47.3600 C   0  0  0  0  0  0  0  0  0  0  0  0
   46.8640   25.9290   47.7320 C   0  0  0  0  0  0  0  0  0  0  0  0
   47.6520   25.4230   48.7440 C   0  0  0  0  0  0  0  0  0  0  0  0
   48.5850   25.9190   49.0480 H   0  0  0  0  0  0  0  0  0  0  0  0
   47.3270   24.2790   49.4320 C   0  0  0  0  0  0  0  0  0  0  0  0
   47.9260   23.8590   50.2280 H   0  0  0  0  0  0  0  0  0  0  0  0
   46.1430   23.6360   49.0570 C   0  0  0  0  0  3  0  0  0  0  0  0
   45.3650   24.1470   48.0490 C   0  0  0  0  0  3  0  0  0  0  0  0
   45.3840   26.4580   45.0470 H   0  0  0  0  0  0  0  0  0  0  0  0
   44.6760   25.9190   46.0800 S   0  0  0  0  0  0  0  0  0  0  0  0
   43.8630   24.7600   45.5330 O   0  0  0  0  0  0  0  0  0  0  0  0
   43.6690   26.9000   46.6560 O   0  0  0  0  0  0  0  0  0  0  0  0
  1  9  1  0  0  0  0
  2  1  2  0  0  0  0
  2  3  1  0  0  0  0
  3 11  1  0  0  0  0
  3  4  2  0  0  0  0
  4  5  1  0  0  0  0
  5 12  1  0  0  0  0
  5  6  1  0  0  0  0
  6 13  1  0  0  0  0
  7  6  2  0  0  0  0
  8  4  1  0  0  0  0
  8  7  1  0  0  0  0
  9 23  1  0  0  0  0
  9  8  2  0  0  0  0
 10  1  1  0  0  0  0
 14 19  1  0  0  0  0
 15 16  1  0  0  0  0
 15 14  2  0  0  0  0
 16 17  2  0  0  0  0
 17 18  1  0  0  0  0
 18  2  1  0  0  0  0
 19 18  2  0  0  0  0
 20 14  1  0  0  0  0
 21 15  1  0  0  0  0
 22 16  1  0  0  0  0
 23 27  1  0  0  0  0
 24 25  1  0  0  0  0
 24 23  2  0  0  0  0
 25 26  2  0  0  0  0
 26 27  1  0  0  0  0
 26 31  1  0  0  0  0
 28 24  1  0  0  0  0
 29 25  1  0  0  0  0
 30 31  2  0  0  0  0
 30 37  1  0  0  0  0
 31 32  1  0  0  0  0
 32 33  1  0  0  0  0
 32 34  2  0  0  0  0
 34 35  1  0  0  0  0
 36 34  1  0  0  0  0
 37 36  2  0  0  0  0
 38 39  1  0  0  0  0
 39 41  2  0  0  0  0
 39 30  1  0  0  0  0
 40 39  2  0  0  0  0
M  END
>  <minimizedAffinity>
-5.96072674

>  <minimizedRMSD>
2.20524454

$$$$
