
 OpenBabel03242514063D

 46 49  0  0  1  0  0  0  0  0999 V2000
   46.4240   34.6970   42.1620 C   0  0  1  0  0  0  0  0  0  0  0  0
   47.9560   34.9150   42.2360 C   0  0  0  0  0  0  0  0  0  0  0  0
   48.3520   35.2150   40.7740 C   0  0  0  0  0  0  0  0  0  0  0  0
   48.2250   33.8850   40.0860 C   0  0  0  0  0  0  0  0  0  0  0  0
   46.8210   33.3620   40.1060 C   0  0  0  0  0  0  0  0  0  0  0  0
   46.0170   33.5980   41.3270 C   0  0  2  0  0  0  0  0  0  0  0  0
   46.1730   35.6720   41.6850 H   0  0  0  0  0  0  0  0  0  0  0  0
   48.1600   35.8200   42.8110 H   0  0  0  0  0  0  0  0  0  0  0  0
   48.4890   34.0100   42.5210 H   0  0  0  0  0  0  0  0  0  0  0  0
   47.6660   35.9780   40.3480 H   0  0  0  0  0  0  0  0  0  0  0  0
   49.4010   35.5400   40.7420 H   0  0  0  0  0  0  0  0  0  0  0  0
   48.5920   33.9500   39.0650 H   0  0  0  0  0  0  0  0  0  0  0  0
   48.8900   33.1700   40.6160 H   0  0  0  0  0  0  0  0  0  0  0  0
   46.9480   32.2950   39.8160 H   0  0  0  0  0  0  0  0  0  0  0  0
   46.3430   33.8240   39.2070 H   0  0  0  0  0  0  0  0  0  0  0  0
   46.0460   32.5900   41.8550 H   0  0  0  0  0  0  0  0  0  0  0  0
   45.7000   33.8460   45.6540 C   0  0  0  0  0  0  0  0  0  0  0  0
   44.8060   34.8450   45.9900 C   0  0  0  0  0  0  0  0  0  0  0  0
   44.3800   35.8280   45.1230 C   0  0  0  0  0  0  0  0  0  0  0  0
   44.9330   35.7390   43.8450 C   0  0  0  0  0  0  0  0  0  0  0  0
   45.8430   34.7350   43.4910 C   0  0  0  0  0  0  0  0  0  0  0  0
   46.2170   33.8000   44.3990 N   0  0  0  0  0  0  0  0  0  0  0  0
   44.4310   34.8320   47.0060 H   0  0  0  0  0  0  0  0  0  0  0  0
   43.6780   36.6010   45.4000 H   0  0  0  0  0  0  0  0  0  0  0  0
   44.5850   36.5160   43.1820 H   0  0  0  0  0  0  0  0  0  0  0  0
   47.3900   31.0730   47.3220 C   0  0  0  0  0  0  0  0  0  0  0  0
   46.6970   30.9100   48.5090 C   0  0  0  0  0  0  0  0  0  0  0  0
   45.6340   31.7810   48.7200 C   0  0  0  0  0  0  0  0  0  0  0  0
   45.3460   32.7200   47.7670 N   0  0  0  0  0  0  0  0  0  0  0  0
   46.0670   32.8280   46.6210 C   0  0  0  0  0  0  0  0  0  0  0  0
   47.0730   32.0190   46.4010 N   0  0  0  0  0  0  0  0  0  0  0  0
   48.2240   30.3970   47.1470 H   0  0  0  0  0  0  0  0  0  0  0  0
   46.9380   30.1670   49.2440 H   0  0  0  0  0  0  0  0  0  0  0  0
   45.0350   31.7200   49.6290 H   0  0  0  0  0  0  0  0  0  0  0  0
   43.7190   32.6420   41.0820 C   0  0  0  0  0  0  0  0  0  0  0  0
   44.5980   33.7340   40.9080 C   0  0  0  0  0  0  0  0  0  0  0  0
   44.0730   34.8860   40.3580 C   0  0  0  0  0  0  0  0  0  0  0  0
   44.6330   35.7710   40.1750 H   0  0  0  0  0  0  0  0  0  0  0  0
   42.7630   35.0420   39.9700 C   0  0  0  0  0  0  0  0  0  0  0  0
   42.3490   35.9510   39.5360 H   0  0  0  0  0  0  0  0  0  0  0  0
   41.8660   34.0010   40.1220 C   0  0  0  0  0  0  0  0  0  0  0  0
   42.3890   32.8500   40.6710 C   0  0  0  0  0  0  0  0  0  0  0  0
   43.1290   30.2200   41.8470 H   0  0  0  0  0  0  0  0  0  0  0  0
   44.1790   31.1100   41.7330 S   0  0  0  0  0  0  0  0  0  0  0  0
   45.3920   30.4870   41.1630 O   0  0  0  0  0  0  0  0  0  0  0  0
   44.5610   31.3500   43.1990 O   0  0  0  0  0  0  0  0  0  0  0  0
  1  7  1  6  0  0  0
  1  2  1  0  0  0  0
  1 21  1  0  0  0  0
  2  9  1  0  0  0  0
  2  8  1  0  0  0  0
  3  2  1  0  0  0  0
  4  5  1  0  0  0  0
  4 13  1  0  0  0  0
  4  3  1  0  0  0  0
  5  6  1  0  0  0  0
  6 16  1  1  0  0  0
  6  1  1  0  0  0  0
 10  3  1  0  0  0  0
 11  3  1  0  0  0  0
 12  4  1  0  0  0  0
 14  5  1  0  0  0  0
 15  5  1  0  0  0  0
 17 18  1  0  0  0  0
 17 30  1  0  0  0  0
 18 23  1  0  0  0  0
 19 24  1  0  0  0  0
 19 18  2  0  0  0  0
 20 19  1  0  0  0  0
 21 20  2  0  0  0  0
 21 22  1  0  0  0  0
 22 17  2  0  0  0  0
 25 20  1  0  0  0  0
 26 27  1  0  0  0  0
 27 28  2  0  0  0  0
 27 33  1  0  0  0  0
 28 34  1  0  0  0  0
 29 28  1  0  0  0  0
 30 29  2  0  0  0  0
 31 30  1  0  0  0  0
 31 26  2  0  0  0  0
 32 26  1  0  0  0  0
 35 44  1  0  0  0  0
 36 35  1  0  0  0  0
 36  6  1  0  0  0  0
 37 36  2  0  0  0  0
 38 37  1  0  0  0  0
 39 41  2  0  0  0  0
 39 37  1  0  0  0  0
 40 39  1  0  0  0  0
 41 42  1  0  0  0  0
 42 35  2  0  0  0  0
 44 43  1  0  0  0  0
 44 46  2  0  0  0  0
 45 44  2  0  0  0  0
M  END
>  <minimizedAffinity>
-6.5792737

>  <minimizedRMSD>
5.4101963

$$$$
