
 OpenBabel03242516503D

 46 49  0  0  1  0  0  0  0  0999 V2000
   47.6570   32.7240   41.7340 C   0  0  1  0  0  0  0  0  0  0  0  0
   47.1400   32.0900   40.5040 C   0  0  0  0  0  0  0  0  0  0  0  0
   48.1020   32.4940   39.3910 C   0  0  0  0  0  0  0  0  0  0  0  0
   47.8710   33.9870   39.1660 C   0  0  0  0  0  0  0  0  0  0  0  0
   47.9890   34.8170   40.3810 C   0  0  0  0  0  0  0  0  0  0  0  0
   47.5970   34.2380   41.6780 C   0  0  1  0  0  0  0  0  0  0  0  0
   48.7670   32.5150   41.8030 H   0  0  0  0  0  0  0  0  0  0  0  0
   46.1210   32.3660   40.2210 H   0  0  0  0  0  0  0  0  0  0  0  0
   47.1890   30.9760   40.6630 H   0  0  0  0  0  0  0  0  0  0  0  0
   47.7850   31.9720   38.4800 H   0  0  0  0  0  0  0  0  0  0  0  0
   49.1480   32.3050   39.6820 H   0  0  0  0  0  0  0  0  0  0  0  0
   48.6460   34.2950   38.4240 H   0  0  0  0  0  0  0  0  0  0  0  0
   46.9090   34.0460   38.6290 H   0  0  0  0  0  0  0  0  0  0  0  0
   49.0240   35.2300   40.4300 H   0  0  0  0  0  0  0  0  0  0  0  0
   47.3540   35.7380   40.2170 H   0  0  0  0  0  0  0  0  0  0  0  0
   48.3050   34.5890   42.4640 H   0  0  0  0  0  0  0  0  0  0  0  0
   45.4250   30.8710   44.1530 C   0  0  0  0  0  0  0  0  0  0  0  0
   46.0160   31.3570   42.9900 C   0  0  0  0  0  0  0  0  0  0  0  0
   47.0850   32.2400   42.9850 C   0  0  0  0  0  0  0  0  0  0  0  0
   47.5350   32.6130   44.1950 N   0  0  0  0  0  0  0  0  0  0  0  0
   46.9740   32.1510   45.3380 C   0  0  0  0  0  0  0  0  0  0  0  0
   45.9420   31.2990   45.3290 N   0  0  0  0  0  0  0  0  0  0  0  0
   44.5910   30.1810   44.0430 H   0  0  0  0  0  0  0  0  0  0  0  0
   45.6300   31.0360   42.0220 H   0  0  0  0  0  0  0  0  0  0  0  0
   47.3360   32.4530   46.3170 H   0  0  0  0  0  0  0  0  0  0  0  0
   46.2740   34.7300   42.1330 C   0  0  0  0  0  0  0  0  0  0  0  0
   46.0260   35.4950   43.2750 C   0  0  0  0  0  0  0  0  0  0  0  0
   44.6900   35.8520   43.4720 C   0  0  0  0  0  0  0  0  0  0  0  0
   43.7550   35.4380   42.5620 C   0  0  0  0  0  0  0  0  0  0  0  0
   44.0050   34.6890   41.4520 C   0  0  0  0  0  0  0  0  0  0  0  0
   45.3030   34.3440   41.2600 N   0  0  0  0  0  0  0  0  0  0  0  0
   46.8680   35.7200   43.8620 H   0  0  0  0  0  0  0  0  0  0  0  0
   44.5100   36.4420   44.3540 H   0  0  0  0  0  0  0  0  0  0  0  0
   42.7910   35.8110   42.8220 H   0  0  0  0  0  0  0  0  0  0  0  0
   42.2190   33.1840   40.4060 C   0  0  0  0  0  0  0  0  0  0  0  0
   43.0160   34.2940   40.4550 C   0  0  0  0  0  0  0  0  0  0  0  0
   42.8990   35.1570   39.3760 C   0  0  0  0  0  0  0  0  0  0  0  0
   43.4780   36.0660   39.3160 H   0  0  0  0  0  0  0  0  0  0  0  0
   42.0670   34.9830   38.3030 C   0  0  0  0  0  0  0  0  0  0  0  0
   41.9980   35.6750   37.4760 H   0  0  0  0  0  0  0  0  0  0  0  0
   41.2600   33.8690   38.2510 C   0  0  0  0  0  3  0  0  0  0  0  0
   41.3630   32.9990   39.3130 C   0  0  0  0  0  3  0  0  0  0  0  0
   42.7460   32.5100   42.8490 H   0  0  0  0  0  0  0  0  0  0  0  0
   42.3340   32.0060   41.6480 S   0  0  0  0  0  0  0  0  0  0  0  0
   43.0150   30.7300   41.2480 O   0  0  0  0  0  0  0  0  0  0  0  0
   40.8840   31.5630   41.9350 O   0  0  0  0  0  0  0  0  0  0  0  0
  1  7  1  1  0  0  0
  1 19  1  0  0  0  0
  2  9  1  0  0  0  0
  2  1  1  0  0  0  0
  3 11  1  0  0  0  0
  3  2  1  0  0  0  0
  4  3  1  0  0  0  0
  4  5  1  0  0  0  0
  5 14  1  0  0  0  0
  5  6  1  0  0  0  0
  6  1  1  0  0  0  0
  6 26  1  0  0  0  0
  6 16  1  1  0  0  0
  8  2  1  0  0  0  0
 10  3  1  0  0  0  0
 12  4  1  0  0  0  0
 13  4  1  0  0  0  0
 15  5  1  0  0  0  0
 17 22  1  0  0  0  0
 18 17  2  0  0  0  0
 19 18  1  0  0  0  0
 19 20  2  0  0  0  0
 20 21  1  0  0  0  0
 21 25  1  0  0  0  0
 22 21  2  0  0  0  0
 23 17  1  0  0  0  0
 24 18  1  0  0  0  0
 26 27  1  0  0  0  0
 27 28  2  0  0  0  0
 27 32  1  0  0  0  0
 28 33  1  0  0  0  0
 29 34  1  0  0  0  0
 29 28  1  0  0  0  0
 30 29  2  0  0  0  0
 31 30  1  0  0  0  0
 31 26  2  0  0  0  0
 35 36  1  0  0  0  0
 35 44  1  0  0  0  0
 36 30  1  0  0  0  0
 37 36  2  0  0  0  0
 38 37  1  0  0  0  0
 39 37  1  0  0  0  0
 40 39  1  0  0  0  0
 41 39  2  0  0  0  0
 41 42  1  0  0  0  0
 42 35  2  0  0  0  0
 44 46  2  0  0  0  0
 44 43  1  0  0  0  0
 45 44  2  0  0  0  0
M  END
>  <minimizedAffinity>
-5.51326418

>  <minimizedRMSD>
1.75213933

$$$$
