
 OpenBabel03252502473D

 48 51  0  0  1  0  0  0  0  0999 V2000
   47.5430   35.4460   41.9590 C   0  0  0  0  0  0  0  0  0  0  0  0
   47.6160   36.0480   42.9140 H   0  0  0  0  0  0  0  0  0  0  0  0
   47.1830   36.1960   41.2180 H   0  0  0  0  0  0  0  0  0  0  0  0
   48.8380   34.8270   41.5820 C   0  0  1  0  0  0  0  0  0  0  0  0
   50.0070   34.9670   42.5150 C   0  0  0  0  0  0  0  0  0  0  0  0
   49.2940   33.6820   42.3510 C   0  0  2  0  0  0  0  0  0  0  0  0
   49.1080   34.9610   40.5340 H   0  0  0  0  0  0  0  0  0  0  0  0
   49.8120   35.6080   43.4010 H   0  0  0  0  0  0  0  0  0  0  0  0
   51.0290   35.1300   42.1060 H   0  0  0  0  0  0  0  0  0  0  0  0
   48.8570   33.2920   43.2570 H   0  0  0  0  0  0  0  0  0  0  0  0
   50.0350   32.7050   41.5470 N   0  0  0  0  0  0  0  0  0  0  0  0
   49.3790   32.2440   40.4020 C   0  0  0  0  0  0  0  0  0  0  0  0
   50.3290   31.2440   39.7650 C   0  0  0  0  0  0  0  0  0  0  0  0
   50.5610   30.1120   40.6080 N   0  0  0  0  0  0  0  0  0  0  0  0
   50.4290   30.3950   42.0250 C   0  0  0  0  0  0  0  0  0  0  0  0
   50.8550   31.8320   42.3000 C   0  0  0  0  0  0  0  0  0  0  0  0
   49.1910   33.0690   39.7110 H   0  0  0  0  0  0  0  0  0  0  0  0
   48.4400   31.6910   40.6580 H   0  0  0  0  0  0  0  0  0  0  0  0
   51.2870   31.8030   39.5740 H   0  0  0  0  0  0  0  0  0  0  0  0
   49.9130   30.9450   38.7910 H   0  0  0  0  0  0  0  0  0  0  0  0
   49.8810   29.3680   40.3510 H   0  0  0  0  0  0  0  0  0  0  0  0
   51.0950   29.6930   42.5600 H   0  0  0  0  0  0  0  0  0  0  0  0
   49.3660   30.2540   42.2890 H   0  0  0  0  0  0  0  0  0  0  0  0
   51.9000   31.9280   41.9760 H   0  0  0  0  0  0  0  0  0  0  0  0
   50.8190   32.0340   43.3730 H   0  0  0  0  0  0  0  0  0  0  0  0
   46.5480   34.3340   42.1170 C   0  0  0  0  0  0  0  0  0  0  0  0
   45.6690   34.5520   41.4370 H   0  0  0  0  0  0  0  0  0  0  0  0
   46.8620   33.3420   41.8290 H   0  0  0  0  0  0  0  0  0  0  0  0
   44.6090   35.5780   45.0710 C   0  0  0  0  0  0  0  0  0  0  0  0
   45.1700   35.5140   43.7770 C   0  0  0  0  0  0  0  0  0  0  0  0
   45.9390   34.4330   43.4820 C   0  0  0  0  0  0  0  0  0  0  0  0
   46.1310   33.4830   44.4210 N   0  0  0  0  0  0  0  0  0  0  0  0
   45.6160   33.5310   45.6240 C   0  0  0  0  0  0  0  0  0  0  0  0
   44.8470   34.5910   45.9520 N   0  0  0  0  0  0  0  0  0  0  0  0
   43.9870   36.4150   45.3660 H   0  0  0  0  0  0  0  0  0  0  0  0
   44.9480   36.3290   43.1120 H   0  0  0  0  0  0  0  0  0  0  0  0
   46.1450   31.2390   46.5300 C   0  0  0  0  0  0  0  0  0  0  0  0
   45.7680   32.5490   46.6920 C   0  0  0  0  0  0  0  0  0  0  0  0
   45.5290   32.8720   48.0240 C   0  0  0  0  0  0  0  0  0  0  0  0
   45.2180   33.8980   48.2830 H   0  0  0  0  0  0  0  0  0  0  0  0
   45.6390   32.0300   49.0890 C   0  0  0  0  0  0  0  0  0  0  0  0
   45.4390   32.3430   50.0980 H   0  0  0  0  0  0  0  0  0  0  0  0
   46.0200   30.7290   48.8700 C   0  0  0  0  0  0  0  0  0  0  0  0
   46.2670   30.3570   47.5840 C   0  0  0  0  0  0  0  0  0  0  0  0
   45.8820   31.4410   43.9950 H   0  0  0  0  0  0  0  0  0  0  0  0
   46.4920   30.6630   44.9230 S   0  0  0  0  0  0  0  0  0  0  0  0
   46.0220   29.2280   44.7980 O   0  0  0  0  0  0  0  0  0  0  0  0
   47.9980   30.6050   44.7580 O   0  0  0  0  0  0  0  0  0  0  0  0
  1 26  1  0  0  0  0
  1  2  1  0  0  0  0
  3  1  1  0  0  0  0
  4  7  1  6  0  0  0
  4  1  1  0  0  0  0
  4  6  1  0  0  0  0
  4  5  1  0  0  0  0
  5  8  1  0  0  0  0
  6  5  1  0  0  0  0
  6 10  1  1  0  0  0
  9  5  1  0  0  0  0
 11 16  1  0  0  0  0
 11  6  1  0  0  0  0
 12 18  1  0  0  0  0
 12 11  1  0  0  0  0
 13 12  1  0  0  0  0
 13 14  1  0  0  0  0
 14 15  1  0  0  0  0
 15 23  1  0  0  0  0
 15 16  1  0  0  0  0
 15 22  1  0  0  0  0
 16 25  1  0  0  0  0
 17 12  1  0  0  0  0
 19 13  1  0  0  0  0
 20 13  1  0  0  0  0
 21 14  1  0  0  0  0
 24 16  1  0  0  0  0
 26 31  1  0  0  0  0
 27 26  1  0  0  0  0
 28 26  1  0  0  0  0
 29 35  1  0  0  0  0
 29 34  1  0  0  0  0
 30 29  2  0  0  0  0
 31 30  1  0  0  0  0
 31 32  2  0  0  0  0
 32 33  1  0  0  0  0
 33 34  2  0  0  0  0
 33 38  1  0  0  0  0
 36 30  1  0  0  0  0
 37 38  2  0  0  0  0
 37 44  1  0  0  0  0
 38 39  1  0  0  0  0
 39 40  1  0  0  0  0
 39 41  2  0  0  0  0
 41 42  1  0  0  0  0
 43 41  1  0  0  0  0
 44 43  2  0  0  0  0
 45 46  1  0  0  0  0
 46 37  1  0  0  0  0
 47 46  2  0  0  0  0
 48 46  2  0  0  0  0
M  END
>  <minimizedAffinity>
-5.84394312

>  <minimizedRMSD>
0.71689266

$$$$
