
 OpenBabel03242516493D

 46 49  0  0  1  0  0  0  0  0999 V2000
   47.9160   32.8150   41.8230 C   0  0  1  0  0  0  0  0  0  0  0  0
   47.6850   31.8710   40.7120 C   0  0  0  0  0  0  0  0  0  0  0  0
   48.7330   32.2070   39.6540 C   0  0  0  0  0  0  0  0  0  0  0  0
   48.3230   33.5630   39.0830 C   0  0  0  0  0  0  0  0  0  0  0  0
   48.1380   34.6240   40.0920 C   0  0  0  0  0  0  0  0  0  0  0  0
   47.6460   34.2540   41.4310 C   0  0  1  0  0  0  0  0  0  0  0  0
   49.0220   32.8190   42.0630 H   0  0  0  0  0  0  0  0  0  0  0  0
   46.6900   31.9040   40.2600 H   0  0  0  0  0  0  0  0  0  0  0  0
   47.8710   30.8360   41.1150 H   0  0  0  0  0  0  0  0  0  0  0  0
   48.6330   31.4680   38.8500 H   0  0  0  0  0  0  0  0  0  0  0  0
   49.7400   32.2640   40.0980 H   0  0  0  0  0  0  0  0  0  0  0  0
   49.1470   33.8480   38.3860 H   0  0  0  0  0  0  0  0  0  0  0  0
   47.4530   33.3470   38.4400 H   0  0  0  0  0  0  0  0  0  0  0  0
   49.0830   35.2120   40.1680 H   0  0  0  0  0  0  0  0  0  0  0  0
   47.4070   35.3710   39.6590 H   0  0  0  0  0  0  0  0  0  0  0  0
   48.1710   34.8710   42.1970 H   0  0  0  0  0  0  0  0  0  0  0  0
   45.6540   31.1080   44.3220 C   0  0  0  0  0  0  0  0  0  0  0  0
   46.3340   31.4510   43.1560 C   0  0  0  0  0  0  0  0  0  0  0  0
   47.2410   32.4960   43.0760 C   0  0  0  0  0  0  0  0  0  0  0  0
   47.4360   33.1820   44.2150 N   0  0  0  0  0  0  0  0  0  0  0  0
   46.7850   32.8640   45.3600 C   0  0  0  0  0  0  0  0  0  0  0  0
   45.9120   31.8530   45.4230 N   0  0  0  0  0  0  0  0  0  0  0  0
   44.9640   30.2680   44.2730 H   0  0  0  0  0  0  0  0  0  0  0  0
   46.1550   30.8750   42.2460 H   0  0  0  0  0  0  0  0  0  0  0  0
   46.9420   33.4190   46.2810 H   0  0  0  0  0  0  0  0  0  0  0  0
   46.2130   34.5890   41.6130 C   0  0  0  0  0  0  0  0  0  0  0  0
   45.6950   35.5640   42.4690 C   0  0  0  0  0  0  0  0  0  0  0  0
   44.3050   35.7020   42.4400 C   0  0  0  0  0  0  0  0  0  0  0  0
   43.5790   34.8970   41.6040 C   0  0  0  0  0  0  0  0  0  0  0  0
   44.0910   33.9470   40.7730 C   0  0  0  0  0  0  0  0  0  0  0  0
   45.4420   33.8150   40.8010 N   0  0  0  0  0  0  0  0  0  0  0  0
   46.4030   36.0880   43.0410 H   0  0  0  0  0  0  0  0  0  0  0  0
   43.9170   36.4550   43.1030 H   0  0  0  0  0  0  0  0  0  0  0  0
   42.5420   35.1370   41.6640 H   0  0  0  0  0  0  0  0  0  0  0  0
   43.6830   32.6090   38.6310 C   0  0  0  0  0  0  0  0  0  0  0  0
   43.3220   33.1280   39.8430 C   0  0  0  0  0  0  0  0  0  0  0  0
   42.0160   32.8730   40.2330 C   0  0  0  0  0  0  0  0  0  0  0  0
   41.6290   33.2310   41.1750 H   0  0  0  0  0  0  0  0  0  0  0  0
   41.0960   32.1600   39.5140 C   0  0  0  0  0  0  0  0  0  0  0  0
   40.0840   31.9770   39.8460 H   0  0  0  0  0  0  0  0  0  0  0  0
   41.4550   31.6330   38.2940 C   0  0  0  0  0  3  0  0  0  0  0  0
   42.7470   31.8780   37.8890 C   0  0  0  0  0  3  0  0  0  0  0  0
   46.1180   33.4360   38.9340 H   0  0  0  0  0  0  0  0  0  0  0  0
   45.2510   32.9270   38.0100 S   0  0  0  0  0  0  0  0  0  0  0  0
   45.2750   33.6350   36.6860 O   0  0  0  0  0  0  0  0  0  0  0  0
   45.8570   31.5440   37.6880 O   0  0  0  0  0  0  0  0  0  0  0  0
  1  7  1  1  0  0  0
  1 19  1  0  0  0  0
  2  9  1  0  0  0  0
  2  1  1  0  0  0  0
  3 11  1  0  0  0  0
  3  2  1  0  0  0  0
  4  3  1  0  0  0  0
  4  5  1  0  0  0  0
  5 14  1  0  0  0  0
  5  6  1  0  0  0  0
  6 26  1  0  0  0  0
  6  1  1  0  0  0  0
  6 16  1  1  0  0  0
  8  2  1  0  0  0  0
 10  3  1  0  0  0  0
 12  4  1  0  0  0  0
 13  4  1  0  0  0  0
 15  5  1  0  0  0  0
 17 22  1  0  0  0  0
 18 17  2  0  0  0  0
 19 18  1  0  0  0  0
 19 20  2  0  0  0  0
 20 21  1  0  0  0  0
 21 22  2  0  0  0  0
 21 25  1  0  0  0  0
 23 17  1  0  0  0  0
 24 18  1  0  0  0  0
 26 27  1  0  0  0  0
 27 32  1  0  0  0  0
 28 27  2  0  0  0  0
 28 33  1  0  0  0  0
 29 34  1  0  0  0  0
 29 28  1  0  0  0  0
 30 31  1  0  0  0  0
 30 29  2  0  0  0  0
 31 26  2  0  0  0  0
 35 36  1  0  0  0  0
 36 37  2  0  0  0  0
 36 30  1  0  0  0  0
 37 38  1  0  0  0  0
 39 40  1  0  0  0  0
 39 37  1  0  0  0  0
 41 39  2  0  0  0  0
 42 41  1  0  0  0  0
 42 35  2  0  0  0  0
 44 35  1  0  0  0  0
 44 43  1  0  0  0  0
 45 44  2  0  0  0  0
 46 44  2  0  0  0  0
M  END
>  <minimizedAffinity>
-5.16969013

>  <minimizedRMSD>
1.36523128

$$$$
