
 OpenBabel03242516203D

 31 33  0  0  0  0  0  0  0  0999 V2000
   46.0410   32.8200   46.9960 C   0  0  0  0  0  0  0  0  0  0  0  0
   47.2700   32.3050   47.2950 C   0  0  0  0  0  0  0  0  0  0  0  0
   47.5120   31.5060   48.3920 C   0  0  0  0  0  0  0  0  0  0  0  0
   46.4610   31.1990   49.2480 C   0  0  0  0  0  0  0  0  0  0  0  0
   45.2230   31.6970   48.9770 C   0  0  0  0  0  0  0  0  0  0  0  0
   45.0310   32.4950   47.8640 C   0  0  0  0  0  0  0  0  0  0  0  0
   48.1100   32.5270   46.6530 H   0  0  0  0  0  0  0  0  0  0  0  0
   46.5970   30.5760   50.1220 H   0  0  0  0  0  0  0  0  0  0  0  0
   44.3680   31.4830   49.6200 H   0  0  0  0  0  0  0  0  0  0  0  0
   44.0320   32.8790   47.6730 H   0  0  0  0  0  0  0  0  0  0  0  0
   44.6490   35.4290   44.8550 C   0  0  0  0  0  0  0  0  0  0  0  0
   45.3660   35.3180   43.6660 C   0  0  0  0  0  0  0  0  0  0  0  0
   46.3490   34.3280   43.5930 C   0  0  0  0  0  0  0  0  0  0  0  0
   46.5530   33.5280   44.6830 N   0  0  0  0  0  0  0  0  0  0  0  0
   45.8400   33.6610   45.8220 C   0  0  0  0  0  0  0  0  0  0  0  0
   44.8800   34.6280   45.8970 N   0  0  0  0  0  0  0  0  0  0  0  0
   43.8760   36.1820   44.9600 H   0  0  0  0  0  0  0  0  0  0  0  0
   45.1950   35.9490   42.8280 H   0  0  0  0  0  0  0  0  0  0  0  0
   46.9430   34.1850   42.7010 H   0  0  0  0  0  0  0  0  0  0  0  0
   49.2700   29.6830   48.3920 C   0  0  0  0  0  0  0  0  0  0  0  0
   48.7960   30.9240   48.7620 C   0  0  0  0  0  0  0  0  0  0  0  0
   49.6120   31.7050   49.5620 C   0  0  0  0  0  0  0  0  0  0  0  0
   49.3470   32.7040   49.9200 H   0  0  0  0  0  0  0  0  0  0  0  0
   50.8610   31.2660   49.9790 C   0  0  0  0  0  0  0  0  0  0  0  0
   51.5390   31.8370   50.6040 H   0  0  0  0  0  0  0  0  0  0  0  0
   51.3020   30.0200   49.5880 C   0  0  0  0  0  3  0  0  0  0  0  0
   50.5080   29.2200   48.7900 C   0  0  0  0  0  3  0  0  0  0  0  0
   46.9260   28.8760   47.6120 H   0  0  0  0  0  0  0  0  0  0  0  0
   48.2540   28.6870   47.3940 S   0  0  0  0  0  0  0  0  0  0  0  0
   48.5350   28.8660   45.9160 O   0  0  0  0  0  0  0  0  0  0  0  0
   48.5320   27.2230   47.7140 O   0  0  0  0  0  0  0  0  0  0  0  0
  1  2  2  0  0  0  0
  1  6  1  0  0  0  0
  2  3  1  0  0  0  0
  3 21  1  0  0  0  0
  3  4  2  0  0  0  0
  4  8  1  0  0  0  0
  5  4  1  0  0  0  0
  5  9  1  0  0  0  0
  6  5  2  0  0  0  0
  7  2  1  0  0  0  0
 10  6  1  0  0  0  0
 11 17  1  0  0  0  0
 11 16  1  0  0  0  0
 12 11  2  0  0  0  0
 13 12  1  0  0  0  0
 13 14  2  0  0  0  0
 14 15  1  0  0  0  0
 15 16  2  0  0  0  0
 15  1  1  0  0  0  0
 18 12  1  0  0  0  0
 19 13  1  0  0  0  0
 20 21  2  0  0  0  0
 20 27  1  0  0  0  0
 21 22  1  0  0  0  0
 22 23  1  0  0  0  0
 22 24  2  0  0  0  0
 24 25  1  0  0  0  0
 26 24  1  0  0  0  0
 27 26  2  0  0  0  0
 29 28  1  0  0  0  0
 29 31  2  0  0  0  0
 29 20  1  0  0  0  0
 30 29  2  0  0  0  0
M  END
>  <minimizedAffinity>
-5.8791604

>  <minimizedRMSD>
0.6005705

$$$$
