
 OpenBabel03242513153D

 33 35  0  0  0  0  0  0  0  0999 V2000
   39.2660   28.1440   39.7870 Cl  0  0  0  0  0  0  0  0  0  0  0  0
   38.4130   28.1840   41.3390 C   0  0  0  0  0  0  0  0  0  0  0  0
   38.4470   29.3040   42.0910 C   0  0  0  0  0  0  0  0  0  0  0  0
   37.7500   29.2790   43.2690 C   0  0  0  0  0  0  0  0  0  0  0  0
   37.0490   28.1800   43.6800 C   0  0  0  0  0  0  0  0  0  0  0  0
   37.0200   27.0320   42.9010 C   0  0  0  0  0  0  0  0  0  0  0  0
   37.7210   27.0520   41.7130 C   0  0  0  0  0  0  0  0  0  0  0  0
   37.6370   30.0580   43.9900 H   0  0  0  0  0  0  0  0  0  0  0  0
   36.4650   28.0610   44.5970 H   0  0  0  0  0  0  0  0  0  0  0  0
   36.4980   26.1230   43.1450 H   0  0  0  0  0  0  0  0  0  0  0  0
   38.6920   24.9110   40.8540 C   0  0  0  0  0  0  0  0  0  0  0  0
   37.7220   25.8670   40.8550 C   0  0  0  0  0  0  0  0  0  0  0  0
   36.6460   25.7280   39.9900 C   0  0  0  0  0  0  0  0  0  0  0  0
   35.8440   26.4580   39.9470 H   0  0  0  0  0  0  0  0  0  0  0  0
   36.5320   24.6560   39.1320 C   0  0  0  0  0  0  0  0  0  0  0  0
   35.6840   24.5680   38.4650 H   0  0  0  0  0  0  0  0  0  0  0  0
   37.5390   23.6940   39.1510 C   0  0  0  0  0  3  0  0  0  0  0  0
   38.6240   23.8230   40.0170 C   0  0  0  0  0  3  0  0  0  0  0  0
   39.9310   26.3410   42.4950 H   0  0  0  0  0  0  0  0  0  0  0  0
   40.0420   25.0810   41.9360 S   0  0  0  0  0  0  0  0  0  0  0  0
   39.9030   24.0270   43.0100 O   0  0  0  0  0  0  0  0  0  0  0  0
   41.3280   25.0180   41.2070 O   0  0  0  0  0  0  0  0  0  0  0  0
   39.2140   30.4550   41.6600 C   0  0  0  0  0  0  0  0  0  0  0  0
   40.4470   30.4410   41.9490 O   0  0  0  0  0  0  0  0  0  0  0  0
   36.9940   32.3020   39.4700 C   0  0  0  0  0  0  0  0  0  0  0  0
   37.4150   33.6240   39.5390 C   0  0  0  0  0  0  0  0  0  0  0  0
   38.5060   33.8570   40.3810 C   0  0  0  0  0  0  0  0  0  0  0  0
   39.0680   32.8060   41.0550 N   0  0  0  0  0  0  0  0  0  0  0  0
   38.6160   31.5540   40.9450 C   0  0  0  0  0  0  0  0  0  0  0  0
   37.5780   31.3140   40.1490 N   0  0  0  0  0  0  0  0  0  0  0  0
   36.1380   32.1330   38.8070 H   0  0  0  0  0  0  0  0  0  0  0  0
   36.9920   34.4610   39.0230 H   0  0  0  0  0  0  0  0  0  0  0  0
   38.9460   34.8260   40.5400 H   0  0  0  0  0  0  0  0  0  0  0  0
  1  2  1  0  0  0  0
  2  7  2  0  0  0  0
  2  3  1  0  0  0  0
  3  4  2  0  0  0  0
  4  5  1  0  0  0  0
  4  8  1  0  0  0  0
  5  9  1  0  0  0  0
  6 10  1  0  0  0  0
  6  5  2  0  0  0  0
  7  6  1  0  0  0  0
 11 12  1  0  0  0  0
 11 20  1  0  0  0  0
 12  7  1  0  0  0  0
 13 12  2  0  0  0  0
 14 13  1  0  0  0  0
 15 17  2  0  0  0  0
 15 13  1  0  0  0  0
 16 15  1  0  0  0  0
 17 18  1  0  0  0  0
 18 11  2  0  0  0  0
 20 19  1  0  0  0  0
 20 21  2  0  0  0  0
 22 20  2  0  0  0  0
 23 24  2  0  0  0  0
 23  3  1  0  0  0  0
 25 26  2  0  0  0  0
 25 30  1  0  0  0  0
 26 27  1  0  0  0  0
 27 33  1  0  0  0  0
 27 28  2  0  0  0  0
 29 28  1  0  0  0  0
 29 23  1  0  0  0  0
 30 29  2  0  0  0  0
 31 25  1  0  0  0  0
 32 26  1  0  0  0  0
M  END
>  <minimizedAffinity>
-5.65913677

$$$$

 OpenBabel03242513153D

 33 35  0  0  0  0  0  0  0  0999 V2000
   38.6030   29.9820   42.5030 Cl  0  0  0  0  0  0  0  0  0  0  0  0
   37.6190   29.3730   41.1620 C   0  0  0  0  0  0  0  0  0  0  0  0
   36.9520   28.2080   41.2990 C   0  0  0  0  0  0  0  0  0  0  0  0
   36.1910   27.8020   40.2360 C   0  0  0  0  0  0  0  0  0  0  0  0
   36.1010   28.5300   39.0820 C   0  0  0  0  0  0  0  0  0  0  0  0
   36.7920   29.7260   38.9490 C   0  0  0  0  0  0  0  0  0  0  0  0
   37.5590   30.1400   40.0180 C   0  0  0  0  0  0  0  0  0  0  0  0
   35.5810   26.9310   40.1500 H   0  0  0  0  0  0  0  0  0  0  0  0
   35.5250   28.2930   38.1830 H   0  0  0  0  0  0  0  0  0  0  0  0
   36.7810   30.3610   38.0800 H   0  0  0  0  0  0  0  0  0  0  0  0
   39.6120   31.4950   39.5540 C   0  0  0  0  0  0  0  0  0  0  0  0
   38.3060   31.3940   39.9280 C   0  0  0  0  0  0  0  0  0  0  0  0
   37.6130   32.5520   40.2500 C   0  0  0  0  0  0  0  0  0  0  0  0
   36.5700   32.5330   40.5560 H   0  0  0  0  0  0  0  0  0  0  0  0
   38.2050   33.7950   40.2050 C   0  0  0  0  0  0  0  0  0  0  0  0
   37.6450   34.6850   40.4620 H   0  0  0  0  0  0  0  0  0  0  0  0
   39.5410   33.8690   39.8200 C   0  0  0  0  0  3  0  0  0  0  0  0
   40.2480   32.7120   39.4930 C   0  0  0  0  0  3  0  0  0  0  0  0
   39.9330   29.0370   39.9150 H   0  0  0  0  0  0  0  0  0  0  0  0
   40.4850   30.0470   39.1480 S   0  0  0  0  0  0  0  0  0  0  0  0
   40.2500   29.7670   37.6820 O   0  0  0  0  0  0  0  0  0  0  0  0
   41.9160   30.1620   39.5080 O   0  0  0  0  0  0  0  0  0  0  0  0
   37.0720   27.4310   42.5160 C   0  0  0  0  0  0  0  0  0  0  0  0
   36.2090   27.6660   43.4120 O   0  0  0  0  0  0  0  0  0  0  0  0
   38.9530   24.3490   42.2050 C   0  0  0  0  0  0  0  0  0  0  0  0
   40.0710   24.5100   43.0140 C   0  0  0  0  0  0  0  0  0  0  0  0
   40.1510   25.7360   43.6790 C   0  0  0  0  0  0  0  0  0  0  0  0
   39.1610   26.6630   43.4970 N   0  0  0  0  0  0  0  0  0  0  0  0
   38.1090   26.4480   42.7030 C   0  0  0  0  0  0  0  0  0  0  0  0
   38.0160   25.2870   42.0610 N   0  0  0  0  0  0  0  0  0  0  0  0
   38.9030   23.3830   41.6890 H   0  0  0  0  0  0  0  0  0  0  0  0
   40.8570   23.8000   43.1720 H   0  0  0  0  0  0  0  0  0  0  0  0
   40.9560   26.0090   44.3410 H   0  0  0  0  0  0  0  0  0  0  0  0
  2  3  1  0  0  0  0
  2  1  1  0  0  0  0
  3 23  1  0  0  0  0
  4  3  2  0  0  0  0
  5  4  1  0  0  0  0
  6  5  2  0  0  0  0
  6  7  1  0  0  0  0
  7  2  2  0  0  0  0
  8  4  1  0  0  0  0
  9  5  1  0  0  0  0
 10  6  1  0  0  0  0
 11 12  1  0  0  0  0
 12  7  1  0  0  0  0
 12 13  2  0  0  0  0
 13 14  1  0  0  0  0
 15 13  1  0  0  0  0
 15 16  1  0  0  0  0
 17 15  2  0  0  0  0
 18 11  2  0  0  0  0
 18 17  1  0  0  0  0
 20 22  2  0  0  0  0
 20 11  1  0  0  0  0
 20 19  1  0  0  0  0
 21 20  2  0  0  0  0
 23 29  1  0  0  0  0
 23 24  2  0  0  0  0
 25 26  1  0  0  0  0
 26 32  1  0  0  0  0
 26 27  2  0  0  0  0
 27 33  1  0  0  0  0
 28 27  1  0  0  0  0
 29 28  2  0  0  0  0
 30 25  2  0  0  0  0
 30 29  1  0  0  0  0
 31 25  1  0  0  0  0
M  END
>  <minimizedAffinity>
-5.62947655

$$$$

 OpenBabel03242513153D

 33 35  0  0  0  0  0  0  0  0999 V2000
   36.3030   26.8170   38.7660 Cl  0  0  0  0  0  0  0  0  0  0  0  0
   36.6000   27.0350   40.4980 C   0  0  0  0  0  0  0  0  0  0  0  0
   36.2050   28.1740   41.1050 C   0  0  0  0  0  0  0  0  0  0  0  0
   36.4420   28.2730   42.4490 C   0  0  0  0  0  0  0  0  0  0  0  0
   37.0520   27.2760   43.1590 C   0  0  0  0  0  0  0  0  0  0  0  0
   37.4560   26.1080   42.5270 C   0  0  0  0  0  0  0  0  0  0  0  0
   37.2180   26.0040   41.1730 C   0  0  0  0  0  0  0  0  0  0  0  0
   36.1950   29.0740   43.1100 H   0  0  0  0  0  0  0  0  0  0  0  0
   37.2850   27.2590   44.2270 H   0  0  0  0  0  0  0  0  0  0  0  0
   37.9430   25.2750   43.0040 H   0  0  0  0  0  0  0  0  0  0  0  0
   38.8450   24.6040   39.8840 C   0  0  0  0  0  0  0  0  0  0  0  0
   37.6250   24.7930   40.4590 C   0  0  0  0  0  0  0  0  0  0  0  0
   36.6840   23.7770   40.3780 C   0  0  0  0  0  0  0  0  0  0  0  0
   35.6950   23.8710   40.8180 H   0  0  0  0  0  0  0  0  0  0  0  0
   36.9460   22.5880   39.7330 C   0  0  0  0  0  0  0  0  0  0  0  0
   36.1970   21.8090   39.6810 H   0  0  0  0  0  0  0  0  0  0  0  0
   38.2010   22.4220   39.1530 C   0  0  0  0  0  3  0  0  0  0  0  0
   39.1550   23.4360   39.2290 C   0  0  0  0  0  3  0  0  0  0  0  0
   39.7570   26.5610   41.1530 H   0  0  0  0  0  0  0  0  0  0  0  0
   40.0280   25.8750   39.9830 S   0  0  0  0  0  0  0  0  0  0  0  0
   41.3900   25.2260   40.0690 O   0  0  0  0  0  0  0  0  0  0  0  0
   39.8940   26.8250   38.8570 O   0  0  0  0  0  0  0  0  0  0  0  0
   35.5820   29.2360   40.3410 C   0  0  0  0  0  0  0  0  0  0  0  0
   34.3380   29.1180   40.1370 O   0  0  0  0  0  0  0  0  0  0  0  0
   37.3370   32.4050   40.2530 C   0  0  0  0  0  0  0  0  0  0  0  0
   37.7630   32.5610   38.9400 C   0  0  0  0  0  0  0  0  0  0  0  0
   37.4180   31.5180   38.0760 C   0  0  0  0  0  0  0  0  0  0  0  0
   36.7090   30.4530   38.5620 N   0  0  0  0  0  0  0  0  0  0  0  0
   36.3280   30.3620   39.8380 C   0  0  0  0  0  0  0  0  0  0  0  0
   36.6480   31.3450   40.6750 N   0  0  0  0  0  0  0  0  0  0  0  0
   37.6150   33.2300   40.9200 H   0  0  0  0  0  0  0  0  0  0  0  0
   38.3190   33.3830   38.5380 H   0  0  0  0  0  0  0  0  0  0  0  0
   37.6760   31.4930   37.0310 H   0  0  0  0  0  0  0  0  0  0  0  0
  1  2  1  0  0  0  0
  2  3  2  0  0  0  0
  2  7  1  0  0  0  0
  3  4  1  0  0  0  0
  4  8  1  0  0  0  0
  4  5  2  0  0  0  0
  5  9  1  0  0  0  0
  6 10  1  0  0  0  0
  6  5  1  0  0  0  0
  7  6  2  0  0  0  0
 11 20  1  0  0  0  0
 11 12  1  0  0  0  0
 12  7  1  0  0  0  0
 13 12  2  0  0  0  0
 13 14  1  0  0  0  0
 15 13  1  0  0  0  0
 16 15  1  0  0  0  0
 17 18  1  0  0  0  0
 17 15  2  0  0  0  0
 18 11  2  0  0  0  0
 20 21  2  0  0  0  0
 20 19  1  0  0  0  0
 22 20  2  0  0  0  0
 23  3  1  0  0  0  0
 24 23  2  0  0  0  0
 25 30  1  0  0  0  0
 25 31  1  0  0  0  0
 26 25  2  0  0  0  0
 27 28  2  0  0  0  0
 27 26  1  0  0  0  0
 28 29  1  0  0  0  0
 29 23  1  0  0  0  0
 29 30  2  0  0  0  0
 32 26  1  0  0  0  0
 33 27  1  0  0  0  0
M  END
>  <minimizedAffinity>
-5.53438091

$$$$

 OpenBabel03242513153D

 33 35  0  0  0  0  0  0  0  0999 V2000
   39.1840   28.7120   39.4510 Cl  0  0  0  0  0  0  0  0  0  0  0  0
   38.4450   28.6150   41.0580 C   0  0  0  0  0  0  0  0  0  0  0  0
   38.9370   29.3660   42.0660 C   0  0  0  0  0  0  0  0  0  0  0  0
   38.3090   29.2630   43.2770 C   0  0  0  0  0  0  0  0  0  0  0  0
   37.2330   28.4420   43.4750 C   0  0  0  0  0  0  0  0  0  0  0  0
   36.7330   27.6730   42.4330 C   0  0  0  0  0  0  0  0  0  0  0  0
   37.3630   27.7740   41.2100 C   0  0  0  0  0  0  0  0  0  0  0  0
   38.5290   29.7780   44.1860 H   0  0  0  0  0  0  0  0  0  0  0  0
   36.6660   28.2910   44.3980 H   0  0  0  0  0  0  0  0  0  0  0  0
   35.8960   27.0020   42.4980 H   0  0  0  0  0  0  0  0  0  0  0  0
   36.0350   27.4480   39.1140 C   0  0  0  0  0  0  0  0  0  0  0  0
   36.8750   26.9840   40.0800 C   0  0  0  0  0  0  0  0  0  0  0  0
   37.3160   25.6700   40.0070 C   0  0  0  0  0  0  0  0  0  0  0  0
   37.9860   25.2460   40.7490 H   0  0  0  0  0  0  0  0  0  0  0  0
   36.9280   24.8240   38.9920 C   0  0  0  0  0  0  0  0  0  0  0  0
   37.2840   23.8030   38.9550 H   0  0  0  0  0  0  0  0  0  0  0  0
   36.0680   25.3250   38.0170 C   0  0  0  0  0  3  0  0  0  0  0  0
   35.6190   26.6440   38.0800 C   0  0  0  0  0  3  0  0  0  0  0  0
   36.4250   29.7790   39.9430 H   0  0  0  0  0  0  0  0  0  0  0  0
   35.4810   29.0940   39.2000 S   0  0  0  0  0  0  0  0  0  0  0  0
   35.4390   29.6370   37.7910 O   0  0  0  0  0  0  0  0  0  0  0  0
   34.1860   29.1900   39.9110 O   0  0  0  0  0  0  0  0  0  0  0  0
   40.0930   30.2130   41.8540 C   0  0  0  0  0  0  0  0  0  0  0  0
   41.2130   29.7140   42.1710 O   0  0  0  0  0  0  0  0  0  0  0  0
   41.0390   33.4300   40.4810 C   0  0  0  0  0  0  0  0  0  0  0  0
   39.8480   34.1120   40.2710 C   0  0  0  0  0  0  0  0  0  0  0  0
   38.6920   33.4120   40.6260 C   0  0  0  0  0  0  0  0  0  0  0  0
   38.8060   32.1470   41.1380 N   0  0  0  0  0  0  0  0  0  0  0  0
   39.9840   31.5450   41.3160 C   0  0  0  0  0  0  0  0  0  0  0  0
   41.0940   32.1960   40.9830 N   0  0  0  0  0  0  0  0  0  0  0  0
   41.9380   33.9910   40.1990 H   0  0  0  0  0  0  0  0  0  0  0  0
   39.7330   35.1000   39.8730 H   0  0  0  0  0  0  0  0  0  0  0  0
   37.6950   33.8050   40.5230 H   0  0  0  0  0  0  0  0  0  0  0  0
  1  2  1  0  0  0  0
  2  7  2  0  0  0  0
  2  3  1  0  0  0  0
  3  4  2  0  0  0  0
  4  5  1  0  0  0  0
  4  8  1  0  0  0  0
  5  9  1  0  0  0  0
  6 10  1  0  0  0  0
  6  5  2  0  0  0  0
  7  6  1  0  0  0  0
 11 20  1  0  0  0  0
 11 12  1  0  0  0  0
 12  7  1  0  0  0  0
 13 12  2  0  0  0  0
 13 14  1  0  0  0  0
 15 13  1  0  0  0  0
 16 15  1  0  0  0  0
 17 18  1  0  0  0  0
 17 15  2  0  0  0  0
 18 11  2  0  0  0  0
 20 22  2  0  0  0  0
 20 19  1  0  0  0  0
 21 20  2  0  0  0  0
 23  3  1  0  0  0  0
 23 24  2  0  0  0  0
 25 30  1  0  0  0  0
 26 25  2  0  0  0  0
 26 27  1  0  0  0  0
 27 28  2  0  0  0  0
 28 29  1  0  0  0  0
 29 23  1  0  0  0  0
 30 29  2  0  0  0  0
 31 25  1  0  0  0  0
 32 26  1  0  0  0  0
 33 27  1  0  0  0  0
M  END
>  <minimizedAffinity>
-5.37533092

$$$$

 OpenBabel03242513153D

 33 35  0  0  0  0  0  0  0  0999 V2000
   39.6460   27.6010   40.1250 Cl  0  0  0  0  0  0  0  0  0  0  0  0
   38.5470   27.6040   41.5140 C   0  0  0  0  0  0  0  0  0  0  0  0
   37.8770   26.4780   41.8370 C   0  0  0  0  0  0  0  0  0  0  0  0
   37.0610   26.5370   42.9350 C   0  0  0  0  0  0  0  0  0  0  0  0
   36.9180   27.6760   43.6780 C   0  0  0  0  0  0  0  0  0  0  0  0
   37.6100   28.8300   43.3390 C   0  0  0  0  0  0  0  0  0  0  0  0
   38.4350   28.7740   42.2340 C   0  0  0  0  0  0  0  0  0  0  0  0
   36.4640   25.7620   43.3620 H   0  0  0  0  0  0  0  0  0  0  0  0
   36.2960   27.8240   44.5650 H   0  0  0  0  0  0  0  0  0  0  0  0
   37.5590   29.7680   43.8630 H   0  0  0  0  0  0  0  0  0  0  0  0
   38.7570   30.8860   40.9290 C   0  0  0  0  0  0  0  0  0  0  0  0
   39.1870   29.9630   41.8340 C   0  0  0  0  0  0  0  0  0  0  0  0
   40.4240   30.1440   42.4340 C   0  0  0  0  0  0  0  0  0  0  0  0
   40.8200   29.4410   43.1620 H   0  0  0  0  0  0  0  0  0  0  0  0
   41.2290   31.2240   42.1420 C   0  0  0  0  0  0  0  0  0  0  0  0
   42.1910   31.3440   42.6220 H   0  0  0  0  0  0  0  0  0  0  0  0
   40.7640   32.1510   41.2120 C   0  0  0  0  0  3  0  0  0  0  0  0
   39.5210   31.9810   40.6030 C   0  0  0  0  0  3  0  0  0  0  0  0
   37.0810   29.3060   39.9440 H   0  0  0  0  0  0  0  0  0  0  0  0
   37.2060   30.6640   40.1740 S   0  0  0  0  0  0  0  0  0  0  0  0
   36.1510   31.1210   41.1540 O   0  0  0  0  0  0  0  0  0  0  0  0
   37.1390   31.3550   38.8670 O   0  0  0  0  0  0  0  0  0  0  0  0
   38.0140   25.2830   41.0290 C   0  0  0  0  0  0  0  0  0  0  0  0
   39.0760   24.6160   41.2010 O   0  0  0  0  0  0  0  0  0  0  0  0
   35.7790   25.3440   38.1780 C   0  0  0  0  0  0  0  0  0  0  0  0
   35.0780   24.1460   38.2250 C   0  0  0  0  0  0  0  0  0  0  0  0
   35.4110   23.3060   39.2920 C   0  0  0  0  0  0  0  0  0  0  0  0
   36.3680   23.7050   40.1850 N   0  0  0  0  0  0  0  0  0  0  0  0
   37.0070   24.8730   40.0840 C   0  0  0  0  0  0  0  0  0  0  0  0
   36.7040   25.6840   39.0750 N   0  0  0  0  0  0  0  0  0  0  0  0
   35.5080   25.9930   37.3360 H   0  0  0  0  0  0  0  0  0  0  0  0
   34.3270   23.8120   37.5390 H   0  0  0  0  0  0  0  0  0  0  0  0
   34.9560   22.3450   39.4640 H   0  0  0  0  0  0  0  0  0  0  0  0
  1  2  1  0  0  0  0
  2  3  2  0  0  0  0
  2  7  1  0  0  0  0
  3  4  1  0  0  0  0
  4  8  1  0  0  0  0
  4  5  2  0  0  0  0
  5  9  1  0  0  0  0
  6  5  1  0  0  0  0
  6 10  1  0  0  0  0
  7  6  2  0  0  0  0
 11 12  1  0  0  0  0
 12  7  1  0  0  0  0
 12 13  2  0  0  0  0
 13 14  1  0  0  0  0
 15 13  1  0  0  0  0
 15 16  1  0  0  0  0
 17 15  2  0  0  0  0
 18 11  2  0  0  0  0
 18 17  1  0  0  0  0
 19 20  1  0  0  0  0
 20 11  1  0  0  0  0
 20 21  2  0  0  0  0
 22 20  2  0  0  0  0
 23 24  2  0  0  0  0
 23  3  1  0  0  0  0
 25 26  2  0  0  0  0
 25 30  1  0  0  0  0
 26 27  1  0  0  0  0
 27 33  1  0  0  0  0
 27 28  2  0  0  0  0
 29 28  1  0  0  0  0
 29 23  1  0  0  0  0
 30 29  2  0  0  0  0
 31 25  1  0  0  0  0
 32 26  1  0  0  0  0
M  END
>  <minimizedAffinity>
-5.30916643

$$$$

 OpenBabel03242513153D

 33 35  0  0  0  0  0  0  0  0999 V2000
   39.4380   29.2150   41.1590 Cl  0  0  0  0  0  0  0  0  0  0  0  0
   37.9120   29.2620   40.2600 C   0  0  0  0  0  0  0  0  0  0  0  0
   36.8660   28.5210   40.6810 C   0  0  0  0  0  0  0  0  0  0  0  0
   35.7080   28.6180   39.9580 C   0  0  0  0  0  0  0  0  0  0  0  0
   35.6000   29.4210   38.8570 C   0  0  0  0  0  0  0  0  0  0  0  0
   36.6800   30.1800   38.4300 C   0  0  0  0  0  0  0  0  0  0  0  0
   37.8490   30.0860   39.1560 C   0  0  0  0  0  0  0  0  0  0  0  0
   34.7730   28.1330   40.1320 H   0  0  0  0  0  0  0  0  0  0  0  0
   34.7250   29.5670   38.2160 H   0  0  0  0  0  0  0  0  0  0  0  0
   36.6860   30.8360   37.5770 H   0  0  0  0  0  0  0  0  0  0  0  0
   39.2600   32.1530   39.1170 C   0  0  0  0  0  0  0  0  0  0  0  0
   39.0180   30.8650   38.7480 C   0  0  0  0  0  0  0  0  0  0  0  0
   39.9330   30.2230   37.9250 C   0  0  0  0  0  0  0  0  0  0  0  0
   39.7920   29.1970   37.5980 H   0  0  0  0  0  0  0  0  0  0  0  0
   41.0730   30.8490   37.4720 C   0  0  0  0  0  0  0  0  0  0  0  0
   41.7730   30.3290   36.8310 H   0  0  0  0  0  0  0  0  0  0  0  0
   41.2950   32.1670   37.8650 C   0  0  0  0  0  3  0  0  0  0  0  0
   40.3830   32.8220   38.6920 C   0  0  0  0  0  3  0  0  0  0  0  0
   37.5270   31.9750   40.9170 H   0  0  0  0  0  0  0  0  0  0  0  0
   38.1170   32.9620   40.1480 S   0  0  0  0  0  0  0  0  0  0  0  0
   38.8900   33.9110   41.0330 O   0  0  0  0  0  0  0  0  0  0  0  0
   37.0520   33.6210   39.3590 O   0  0  0  0  0  0  0  0  0  0  0  0
   36.9970   27.6520   41.8340 C   0  0  0  0  0  0  0  0  0  0  0  0
   36.6390   28.1450   42.9440 O   0  0  0  0  0  0  0  0  0  0  0  0
   37.3230   24.1940   40.8020 C   0  0  0  0  0  0  0  0  0  0  0  0
   38.4280   23.7020   41.4840 C   0  0  0  0  0  0  0  0  0  0  0  0
   39.0650   24.6210   42.3230 C   0  0  0  0  0  0  0  0  0  0  0  0
   38.5750   25.8960   42.4150 N   0  0  0  0  0  0  0  0  0  0  0  0
   37.5050   26.3080   41.7310 C   0  0  0  0  0  0  0  0  0  0  0  0
   36.8870   25.4480   40.9270 N   0  0  0  0  0  0  0  0  0  0  0  0
   36.8330   23.4640   40.1470 H   0  0  0  0  0  0  0  0  0  0  0  0
   38.8300   22.7110   41.4280 H   0  0  0  0  0  0  0  0  0  0  0  0
   39.9330   24.3910   42.9170 H   0  0  0  0  0  0  0  0  0  0  0  0
  2  3  1  0  0  0  0
  2  1  1  0  0  0  0
  3 23  1  0  0  0  0
  4  8  1  0  0  0  0
  4  3  2  0  0  0  0
  5  4  1  0  0  0  0
  6  5  2  0  0  0  0
  6  7  1  0  0  0  0
  7  2  2  0  0  0  0
  9  5  1  0  0  0  0
 10  6  1  0  0  0  0
 11 20  1  0  0  0  0
 12 11  1  0  0  0  0
 12  7  1  0  0  0  0
 13 12  2  0  0  0  0
 14 13  1  0  0  0  0
 15 17  2  0  0  0  0
 15 13  1  0  0  0  0
 16 15  1  0  0  0  0
 17 18  1  0  0  0  0
 18 11  2  0  0  0  0
 20 19  1  0  0  0  0
 20 21  2  0  0  0  0
 22 20  2  0  0  0  0
 23 24  2  0  0  0  0
 25 30  2  0  0  0  0
 25 26  1  0  0  0  0
 26 27  2  0  0  0  0
 27 28  1  0  0  0  0
 27 33  1  0  0  0  0
 29 23  1  0  0  0  0
 29 28  2  0  0  0  0
 30 29  1  0  0  0  0
 31 25  1  0  0  0  0
 32 26  1  0  0  0  0
M  END
>  <minimizedAffinity>
-5.28435278

$$$$

 OpenBabel03242513153D

 33 35  0  0  0  0  0  0  0  0999 V2000
   38.6810   28.2090   39.5300 Cl  0  0  0  0  0  0  0  0  0  0  0  0
   38.0180   27.9590   41.1540 C   0  0  0  0  0  0  0  0  0  0  0  0
   37.7570   26.7060   41.5830 C   0  0  0  0  0  0  0  0  0  0  0  0
   37.2680   26.5770   42.8550 C   0  0  0  0  0  0  0  0  0  0  0  0
   37.0460   27.6560   43.6650 C   0  0  0  0  0  0  0  0  0  0  0  0
   37.3160   28.9410   43.2160 C   0  0  0  0  0  0  0  0  0  0  0  0
   37.8100   29.0760   41.9350 C   0  0  0  0  0  0  0  0  0  0  0  0
   37.0160   25.6840   43.3820 H   0  0  0  0  0  0  0  0  0  0  0  0
   36.6600   27.6580   44.6880 H   0  0  0  0  0  0  0  0  0  0  0  0
   37.1720   29.8450   43.7810 H   0  0  0  0  0  0  0  0  0  0  0  0
   39.3120   31.0390   41.5390 C   0  0  0  0  0  0  0  0  0  0  0  0
   38.1110   30.4090   41.4140 C   0  0  0  0  0  0  0  0  0  0  0  0
   37.0830   31.0590   40.7460 C   0  0  0  0  0  0  0  0  0  0  0  0
   36.1040   30.6060   40.6160 H   0  0  0  0  0  0  0  0  0  0  0  0
   37.2400   32.3180   40.2100 C   0  0  0  0  0  0  0  0  0  0  0  0
   36.4240   32.8060   39.6930 H   0  0  0  0  0  0  0  0  0  0  0  0
   38.4790   32.9390   40.3530 C   0  0  0  0  0  3  0  0  0  0  0  0
   39.5200   32.2950   41.0210 C   0  0  0  0  0  3  0  0  0  0  0  0
   40.0030   29.4400   43.3390 H   0  0  0  0  0  0  0  0  0  0  0  0
   40.6040   30.2290   42.3750 S   0  0  0  0  0  0  0  0  0  0  0  0
   41.3230   29.3580   41.3710 O   0  0  0  0  0  0  0  0  0  0  0  0
   41.4890   31.1940   43.0640 O   0  0  0  0  0  0  0  0  0  0  0  0
   37.9710   25.5710   40.7090 C   0  0  0  0  0  0  0  0  0  0  0  0
   39.1470   25.1020   40.6850 O   0  0  0  0  0  0  0  0  0  0  0  0
   35.3740   23.3010   39.5970 C   0  0  0  0  0  0  0  0  0  0  0  0
   34.8720   23.8520   38.4250 C   0  0  0  0  0  0  0  0  0  0  0  0
   35.4700   25.0510   38.0290 C   0  0  0  0  0  0  0  0  0  0  0  0
   36.4750   25.5830   38.7920 N   0  0  0  0  0  0  0  0  0  0  0  0
   36.9140   25.0030   39.9110 C   0  0  0  0  0  0  0  0  0  0  0  0
   36.3550   23.8620   40.3040 N   0  0  0  0  0  0  0  0  0  0  0  0
   34.8950   22.3620   39.8970 H   0  0  0  0  0  0  0  0  0  0  0  0
   34.0880   23.4560   37.8120 H   0  0  0  0  0  0  0  0  0  0  0  0
   35.1920   25.5990   37.1440 H   0  0  0  0  0  0  0  0  0  0  0  0
  1  2  1  0  0  0  0
  2  3  2  0  0  0  0
  2  7  1  0  0  0  0
  3  4  1  0  0  0  0
  4  8  1  0  0  0  0
  4  5  2  0  0  0  0
  5  9  1  0  0  0  0
  6  5  1  0  0  0  0
  6 10  1  0  0  0  0
  7  6  2  0  0  0  0
 11 20  1  0  0  0  0
 12 11  1  0  0  0  0
 12  7  1  0  0  0  0
 13 12  2  0  0  0  0
 14 13  1  0  0  0  0
 15 17  2  0  0  0  0
 15 13  1  0  0  0  0
 16 15  1  0  0  0  0
 17 18  1  0  0  0  0
 18 11  2  0  0  0  0
 20 22  2  0  0  0  0
 20 19  1  0  0  0  0
 21 20  2  0  0  0  0
 23  3  1  0  0  0  0
 24 23  2  0  0  0  0
 25 31  1  0  0  0  0
 25 30  1  0  0  0  0
 26 25  2  0  0  0  0
 27 26  1  0  0  0  0
 27 28  2  0  0  0  0
 28 29  1  0  0  0  0
 29 30  2  0  0  0  0
 29 23  1  0  0  0  0
 32 26  1  0  0  0  0
 33 27  1  0  0  0  0
M  END
>  <minimizedAffinity>
-5.28164959

$$$$

 OpenBabel03242513153D

 33 35  0  0  0  0  0  0  0  0999 V2000
   37.0400   27.8760   39.3200 Cl  0  0  0  0  0  0  0  0  0  0  0  0
   37.4490   28.0070   41.0390 C   0  0  0  0  0  0  0  0  0  0  0  0
   37.3950   29.2110   41.6480 C   0  0  0  0  0  0  0  0  0  0  0  0
   37.7000   29.2420   42.9820 C   0  0  0  0  0  0  0  0  0  0  0  0
   38.0460   28.1190   43.6790 C   0  0  0  0  0  0  0  0  0  0  0  0
   38.1000   26.8850   43.0450 C   0  0  0  0  0  0  0  0  0  0  0  0
   37.7930   26.8480   41.7010 C   0  0  0  0  0  0  0  0  0  0  0  0
   37.7000   30.0800   43.6430 H   0  0  0  0  0  0  0  0  0  0  0  0
   38.3060   28.0400   44.7390 H   0  0  0  0  0  0  0  0  0  0  0  0
   38.3640   25.9530   43.5120 H   0  0  0  0  0  0  0  0  0  0  0  0
   38.9220   25.0890   40.3240 C   0  0  0  0  0  0  0  0  0  0  0  0
   37.8350   25.5730   40.9860 C   0  0  0  0  0  0  0  0  0  0  0  0
   36.6710   24.8170   40.9990 C   0  0  0  0  0  0  0  0  0  0  0  0
   35.7730   25.1520   41.5100 H   0  0  0  0  0  0  0  0  0  0  0  0
   36.5830   23.5980   40.3620 C   0  0  0  0  0  0  0  0  0  0  0  0
   35.6650   23.0270   40.3850 H   0  0  0  0  0  0  0  0  0  0  0  0
   37.7110   23.1290   39.6920 C   0  0  0  0  0  3  0  0  0  0  0  0
   38.8860   23.8790   39.6730 C   0  0  0  0  0  3  0  0  0  0  0  0
   40.3840   26.7640   41.4780 H   0  0  0  0  0  0  0  0  0  0  0  0
   40.3830   26.0320   40.3050 S   0  0  0  0  0  0  0  0  0  0  0  0
   41.5480   25.0700   40.2970 O   0  0  0  0  0  0  0  0  0  0  0  0
   40.3950   26.9860   39.1730 O   0  0  0  0  0  0  0  0  0  0  0  0
   37.0510   30.4000   40.8960 C   0  0  0  0  0  0  0  0  0  0  0  0
   35.8140   30.6210   40.7410 O   0  0  0  0  0  0  0  0  0  0  0  0
   38.9660   33.4100   40.2580 C   0  0  0  0  0  0  0  0  0  0  0  0
   39.9500   33.0420   39.3490 C   0  0  0  0  0  0  0  0  0  0  0  0
   39.9270   31.7000   38.9600 C   0  0  0  0  0  0  0  0  0  0  0  0
   38.9720   30.8680   39.4800 N   0  0  0  0  0  0  0  0  0  0  0  0
   38.0510   31.2840   40.3530 C   0  0  0  0  0  0  0  0  0  0  0  0
   38.0580   32.5570   40.7350 N   0  0  0  0  0  0  0  0  0  0  0  0
   38.9960   34.4650   40.5550 H   0  0  0  0  0  0  0  0  0  0  0  0
   40.7060   33.6730   38.9290 H   0  0  0  0  0  0  0  0  0  0  0  0
   40.6230   31.2640   38.2630 H   0  0  0  0  0  0  0  0  0  0  0  0
  1  2  1  0  0  0  0
  2  3  2  0  0  0  0
  2  7  1  0  0  0  0
  3  4  1  0  0  0  0
  4  8  1  0  0  0  0
  4  5  2  0  0  0  0
  5  9  1  0  0  0  0
  6 10  1  0  0  0  0
  6  5  1  0  0  0  0
  7  6  2  0  0  0  0
 11 12  1  0  0  0  0
 12 13  2  0  0  0  0
 12  7  1  0  0  0  0
 13 14  1  0  0  0  0
 15 16  1  0  0  0  0
 15 13  1  0  0  0  0
 17 15  2  0  0  0  0
 18 17  1  0  0  0  0
 18 11  2  0  0  0  0
 20 11  1  0  0  0  0
 20 19  1  0  0  0  0
 21 20  2  0  0  0  0
 22 20  2  0  0  0  0
 23  3  1  0  0  0  0
 24 23  2  0  0  0  0
 25 31  1  0  0  0  0
 25 30  1  0  0  0  0
 26 25  2  0  0  0  0
 27 26  1  0  0  0  0
 27 28  2  0  0  0  0
 28 29  1  0  0  0  0
 29 30  2  0  0  0  0
 29 23  1  0  0  0  0
 32 26  1  0  0  0  0
 33 27  1  0  0  0  0
M  END
>  <minimizedAffinity>
-5.2813673

$$$$

 OpenBabel03242513153D

 33 35  0  0  0  0  0  0  0  0999 V2000
   38.9460   28.5030   38.4670 Cl  0  0  0  0  0  0  0  0  0  0  0  0
   37.8330   29.4370   39.4810 C   0  0  0  0  0  0  0  0  0  0  0  0
   37.5830   30.7290   39.1830 C   0  0  0  0  0  0  0  0  0  0  0  0
   36.6970   31.3900   39.9910 C   0  0  0  0  0  0  0  0  0  0  0  0
   36.0870   30.7850   41.0540 C   0  0  0  0  0  0  0  0  0  0  0  0
   36.3500   29.4560   41.3540 C   0  0  0  0  0  0  0  0  0  0  0  0
   37.2410   28.7860   40.5430 C   0  0  0  0  0  0  0  0  0  0  0  0
   36.3550   32.3980   39.9160 H   0  0  0  0  0  0  0  0  0  0  0  0
   35.3700   31.2230   41.7540 H   0  0  0  0  0  0  0  0  0  0  0  0
   35.9190   28.9010   42.1690 H   0  0  0  0  0  0  0  0  0  0  0  0
   38.5210   26.9560   41.6740 C   0  0  0  0  0  0  0  0  0  0  0  0
   37.5530   27.3830   40.8160 C   0  0  0  0  0  0  0  0  0  0  0  0
   36.7930   26.4370   40.1430 C   0  0  0  0  0  0  0  0  0  0  0  0
   36.0080   26.7190   39.4470 H   0  0  0  0  0  0  0  0  0  0  0  0
   36.9900   25.0840   40.3140 C   0  0  0  0  0  0  0  0  0  0  0  0
   36.3850   24.3650   39.7780 H   0  0  0  0  0  0  0  0  0  0  0  0
   37.9870   24.6760   41.1970 C   0  0  0  0  0  3  0  0  0  0  0  0
   38.7570   25.6170   41.8800 C   0  0  0  0  0  3  0  0  0  0  0  0
   40.2660   27.4290   43.4080 H   0  0  0  0  0  0  0  0  0  0  0  0
   39.4760   28.1370   42.5200 S   0  0  0  0  0  0  0  0  0  0  0  0
   40.3450   28.8380   41.5020 O   0  0  0  0  0  0  0  0  0  0  0  0
   38.6230   29.0570   43.3050 O   0  0  0  0  0  0  0  0  0  0  0  0
   38.2530   31.3690   38.0700 C   0  0  0  0  0  0  0  0  0  0  0  0
   37.6980   31.2410   36.9390 O   0  0  0  0  0  0  0  0  0  0  0  0
   41.5760   32.6600   37.4140 C   0  0  0  0  0  0  0  0  0  0  0  0
   41.8640   33.5070   38.4760 C   0  0  0  0  0  0  0  0  0  0  0  0
   40.8570   33.6180   39.4380 C   0  0  0  0  0  0  0  0  0  0  0  0
   39.6960   32.9100   39.2770 N   0  0  0  0  0  0  0  0  0  0  0  0
   39.4790   32.1100   38.2310 C   0  0  0  0  0  0  0  0  0  0  0  0
   40.4270   31.9930   37.3050 N   0  0  0  0  0  0  0  0  0  0  0  0
   42.3740   32.5820   36.6670 H   0  0  0  0  0  0  0  0  0  0  0  0
   42.7630   34.0710   38.6230 H   0  0  0  0  0  0  0  0  0  0  0  0
   40.9310   34.2350   40.3180 H   0  0  0  0  0  0  0  0  0  0  0  0
  1  2  1  0  0  0  0
  2  7  1  0  0  0  0
  3  2  2  0  0  0  0
  3  4  1  0  0  0  0
  4  5  2  0  0  0  0
  5  6  1  0  0  0  0
  5  9  1  0  0  0  0
  6 10  1  0  0  0  0
  7 12  1  0  0  0  0
  7  6  2  0  0  0  0
  8  4  1  0  0  0  0
 11 18  1  0  0  0  0
 11 20  1  0  0  0  0
 12 11  2  0  0  0  0
 13 15  2  0  0  0  0
 13 12  1  0  0  0  0
 14 13  1  0  0  0  0
 15 17  1  0  0  0  0
 16 15  1  0  0  0  0
 17 18  2  0  0  0  0
 20 22  2  0  0  0  0
 20 19  1  0  0  0  0
 21 20  2  0  0  0  0
 23 29  1  0  0  0  0
 23  3  1  0  0  0  0
 24 23  2  0  0  0  0
 25 26  1  0  0  0  0
 26 32  1  0  0  0  0
 26 27  2  0  0  0  0
 27 33  1  0  0  0  0
 28 27  1  0  0  0  0
 29 28  2  0  0  0  0
 30 25  2  0  0  0  0
 30 29  1  0  0  0  0
 31 25  1  0  0  0  0
M  END
>  <minimizedAffinity>
-5.27579546

$$$$
