
 OpenBabel03242523043D

 35 37  0  0  0  0  0  0  0  0999 V2000
   38.3420   29.6000   42.8000 C   0  0  0  0  0  0  0  0  0  0  0  0
   37.7320   29.8470   41.5770 C   0  0  0  0  0  0  0  0  0  0  0  0
   36.8190   28.9110   41.1660 C   0  0  0  0  0  0  0  0  0  0  0  0
   36.5210   27.8120   41.9030 N   0  0  0  0  0  0  0  0  0  0  0  0
   37.1510   27.6170   43.1020 C   0  0  0  0  0  0  0  0  0  0  0  0
   38.0600   28.5140   43.5420 N   0  0  0  0  0  0  0  0  0  0  0  0
   39.0830   30.2160   43.2790 H   0  0  0  0  0  0  0  0  0  0  0  0
   36.9680   26.7610   43.7480 H   0  0  0  0  0  0  0  0  0  0  0  0
   38.0290   31.0270   40.8790 N   0  0  0  0  0  0  0  0  0  0  0  0
   39.3270   31.4230   40.5750 C   0  0  0  0  0  0  0  0  0  0  0  0
   39.4840   32.5280   39.5700 C   0  0  0  0  0  0  0  0  0  0  0  0
   38.5410   32.5810   38.5440 N   0  0  0  0  0  0  0  0  0  0  0  0
   37.2170   32.3140   38.9230 C   0  0  0  0  0  0  0  0  0  0  0  0
   37.0640   31.9630   40.3960 C   0  0  0  0  0  0  0  0  0  0  0  0
   39.8050   31.9360   41.4740 H   0  0  0  0  0  0  0  0  0  0  0  0
   39.8910   30.5940   40.1620 H   0  0  0  0  0  0  0  0  0  0  0  0
   40.5160   32.4670   39.1550 H   0  0  0  0  0  0  0  0  0  0  0  0
   39.4690   33.5360   40.0860 H   0  0  0  0  0  0  0  0  0  0  0  0
   38.7520   33.0910   37.7040 H   0  0  0  0  0  0  0  0  0  0  0  0
   36.6050   33.2280   38.7820 H   0  0  0  0  0  0  0  0  0  0  0  0
   36.7040   31.5250   38.3390 H   0  0  0  0  0  0  0  0  0  0  0  0
   36.0100   31.6580   40.4970 H   0  0  0  0  0  0  0  0  0  0  0  0
   37.1410   32.9080   40.9980 H   0  0  0  0  0  0  0  0  0  0  0  0
   36.5210   28.6320   38.6770 C   0  0  0  0  0  0  0  0  0  0  0  0
   36.0280   28.8530   39.9830 C   0  0  0  0  0  0  0  0  0  0  0  0
   34.6390   29.0990   39.9140 C   0  0  0  0  0  0  0  0  0  0  0  0
   34.2310   29.2870   40.9240 H   0  0  0  0  0  0  0  0  0  0  0  0
   33.8220   29.1370   38.8100 C   0  0  0  0  0  0  0  0  0  0  0  0
   32.7920   29.3470   39.0250 H   0  0  0  0  0  0  0  0  0  0  0  0
   34.4260   28.9050   37.6090 C   0  0  0  0  0  3  0  0  0  0  0  0
   35.7670   28.6530   37.5340 C   0  0  0  0  0  3  0  0  0  0  0  0
   38.7720   28.1490   39.7920 H   0  0  0  0  0  0  0  0  0  0  0  0
   38.2540   28.3030   38.5320 S   0  0  0  0  0  0  0  0  0  0  0  0
   38.9560   29.4170   37.8130 O   0  0  0  0  0  0  0  0  0  0  0  0
   38.4020   27.0180   37.7570 O   0  0  0  0  0  0  0  0  0  0  0  0
  1  7  1  0  0  0  0
  1  6  1  0  0  0  0
  2  1  2  0  0  0  0
  3  2  1  0  0  0  0
  3  4  2  0  0  0  0
  4  5  1  0  0  0  0
  5  6  2  0  0  0  0
  5  8  1  0  0  0  0
  9  2  1  0  0  0  0
 10  9  1  0  0  0  0
 10 15  1  0  0  0  0
 11 18  1  0  0  0  0
 11 10  1  0  0  0  0
 12 13  1  0  0  0  0
 12 11  1  0  0  0  0
 13 14  1  0  0  0  0
 14 22  1  0  0  0  0
 14  9  1  0  0  0  0
 14 23  1  0  0  0  0
 16 10  1  0  0  0  0
 17 11  1  0  0  0  0
 19 12  1  0  0  0  0
 20 13  1  0  0  0  0
 21 13  1  0  0  0  0
 24 25  1  0  0  0  0
 25  3  1  0  0  0  0
 26 25  2  0  0  0  0
 26 27  1  0  0  0  0
 28 29  1  0  0  0  0
 28 26  1  0  0  0  0
 30 28  2  0  0  0  0
 31 30  1  0  0  0  0
 31 24  2  0  0  0  0
 33 24  1  0  0  0  0
 33 32  1  0  0  0  0
 34 33  2  0  0  0  0
 35 33  2  0  0  0  0
M  END
>  <minimizedAffinity>
-5.17213488

$$$$

 OpenBabel03242523043D

 35 37  0  0  0  0  0  0  0  0999 V2000
   39.8040   30.3360   38.0620 C   0  0  0  0  0  0  0  0  0  0  0  0
   39.1510   30.2230   39.2820 C   0  0  0  0  0  0  0  0  0  0  0  0
   39.0640   28.9570   39.7980 C   0  0  0  0  0  0  0  0  0  0  0  0
   39.5840   27.8760   39.1640 N   0  0  0  0  0  0  0  0  0  0  0  0
   40.2190   28.0430   37.9630 C   0  0  0  0  0  0  0  0  0  0  0  0
   40.3230   29.2750   37.4190 N   0  0  0  0  0  0  0  0  0  0  0  0
   39.9630   31.2440   37.5050 H   0  0  0  0  0  0  0  0  0  0  0  0
   40.6590   27.2270   37.3940 H   0  0  0  0  0  0  0  0  0  0  0  0
   38.6820   31.3770   39.9280 N   0  0  0  0  0  0  0  0  0  0  0  0
   39.4970   32.2030   40.6940 C   0  0  0  0  0  0  0  0  0  0  0  0
   38.9450   33.5500   41.0650 C   0  0  0  0  0  0  0  0  0  0  0  0
   38.1040   34.1610   40.1350 N   0  0  0  0  0  0  0  0  0  0  0  0
   37.1970   33.3110   39.4870 C   0  0  0  0  0  0  0  0  0  0  0  0
   37.3340   31.8500   39.8910 C   0  0  0  0  0  0  0  0  0  0  0  0
   39.6250   31.7730   41.7420 H   0  0  0  0  0  0  0  0  0  0  0  0
   40.4200   32.4220   40.1680 H   0  0  0  0  0  0  0  0  0  0  0  0
   39.8030   34.2130   41.3180 H   0  0  0  0  0  0  0  0  0  0  0  0
   38.3690   33.4860   42.0390 H   0  0  0  0  0  0  0  0  0  0  0  0
   37.9480   35.1530   40.1870 H   0  0  0  0  0  0  0  0  0  0  0  0
   36.1630   33.5920   39.7760 H   0  0  0  0  0  0  0  0  0  0  0  0
   37.2120   33.3510   38.3800 H   0  0  0  0  0  0  0  0  0  0  0  0
   36.6570   31.3120   39.2090 H   0  0  0  0  0  0  0  0  0  0  0  0
   36.8740   31.7170   40.9070 H   0  0  0  0  0  0  0  0  0  0  0  0
   37.0910   28.2390   41.1950 C   0  0  0  0  0  0  0  0  0  0  0  0
   38.4680   28.4920   41.0050 C   0  0  0  0  0  0  0  0  0  0  0  0
   39.1440   28.2990   42.2290 C   0  0  0  0  0  0  0  0  0  0  0  0
   40.2250   28.5020   42.1090 H   0  0  0  0  0  0  0  0  0  0  0  0
   38.6330   27.9280   43.4500 C   0  0  0  0  0  0  0  0  0  0  0  0
   39.3610   27.8500   44.2330 H   0  0  0  0  0  0  0  0  0  0  0  0
   37.2860   27.7130   43.4940 C   0  0  0  0  0  3  0  0  0  0  0  0
   36.5130   27.8650   42.3790 C   0  0  0  0  0  3  0  0  0  0  0  0
   36.6750   29.2610   38.8870 H   0  0  0  0  0  0  0  0  0  0  0  0
   36.0500   28.4240   39.7750 S   0  0  0  0  0  0  0  0  0  0  0  0
   34.7100   28.9790   40.1590 O   0  0  0  0  0  0  0  0  0  0  0  0
   35.8840   27.0580   39.1610 O   0  0  0  0  0  0  0  0  0  0  0  0
  1  2  1  0  0  0  0
  2  3  2  0  0  0  0
  2  9  1  0  0  0  0
  3 25  1  0  0  0  0
  4  3  1  0  0  0  0
  5  4  2  0  0  0  0
  6  5  1  0  0  0  0
  6  1  2  0  0  0  0
  7  1  1  0  0  0  0
  8  5  1  0  0  0  0
  9 10  1  0  0  0  0
 10 11  1  0  0  0  0
 10 15  1  0  0  0  0
 11 17  1  0  0  0  0
 11 18  1  0  0  0  0
 12 19  1  0  0  0  0
 12 11  1  0  0  0  0
 13 20  1  0  0  0  0
 13 14  1  0  0  0  0
 13 12  1  0  0  0  0
 14  9  1  0  0  0  0
 14 23  1  0  0  0  0
 16 10  1  0  0  0  0
 21 13  1  0  0  0  0
 22 14  1  0  0  0  0
 24 31  1  0  0  0  0
 25 24  2  0  0  0  0
 25 26  1  0  0  0  0
 26 28  2  0  0  0  0
 27 26  1  0  0  0  0
 28 30  1  0  0  0  0
 28 29  1  0  0  0  0
 31 30  2  0  0  0  0
 32 33  1  0  0  0  0
 33 34  2  0  0  0  0
 33 24  1  0  0  0  0
 35 33  2  0  0  0  0
M  END
>  <minimizedAffinity>
-4.98699093

$$$$

 OpenBabel03242523043D

 35 37  0  0  0  0  0  0  0  0999 V2000
   36.3100   29.5630   37.8020 C   0  0  0  0  0  0  0  0  0  0  0  0
   36.9130   29.5780   39.0530 C   0  0  0  0  0  0  0  0  0  0  0  0
   36.8180   28.4180   39.7750 C   0  0  0  0  0  0  0  0  0  0  0  0
   36.1810   27.3170   39.3030 N   0  0  0  0  0  0  0  0  0  0  0  0
   35.6050   27.3550   38.0620 C   0  0  0  0  0  0  0  0  0  0  0  0
   35.6730   28.4810   37.3200 N   0  0  0  0  0  0  0  0  0  0  0  0
   36.2780   30.3780   37.0990 H   0  0  0  0  0  0  0  0  0  0  0  0
   35.0760   26.5150   37.6170 H   0  0  0  0  0  0  0  0  0  0  0  0
   37.6110   30.7200   39.4740 N   0  0  0  0  0  0  0  0  0  0  0  0
   38.9680   30.9100   39.2390 C   0  0  0  0  0  0  0  0  0  0  0  0
   39.5120   32.2920   39.4650 C   0  0  0  0  0  0  0  0  0  0  0  0
   38.6560   33.3560   39.1810 N   0  0  0  0  0  0  0  0  0  0  0  0
   37.3190   33.1790   39.5650 C   0  0  0  0  0  0  0  0  0  0  0  0
   37.0390   31.8180   40.1860 C   0  0  0  0  0  0  0  0  0  0  0  0
   39.5870   30.3510   40.0160 H   0  0  0  0  0  0  0  0  0  0  0  0
   39.2110   30.6860   38.2060 H   0  0  0  0  0  0  0  0  0  0  0  0
   40.4610   32.3840   38.8900 H   0  0  0  0  0  0  0  0  0  0  0  0
   39.8450   32.4140   40.5400 H   0  0  0  0  0  0  0  0  0  0  0  0
   39.0410   34.2730   39.0290 H   0  0  0  0  0  0  0  0  0  0  0  0
   37.0670   33.9130   40.3580 H   0  0  0  0  0  0  0  0  0  0  0  0
   36.5680   33.3410   38.7670 H   0  0  0  0  0  0  0  0  0  0  0  0
   35.9440   31.7920   40.3060 H   0  0  0  0  0  0  0  0  0  0  0  0
   37.4360   31.8170   41.2360 H   0  0  0  0  0  0  0  0  0  0  0  0
   38.5760   27.5340   41.3530 C   0  0  0  0  0  0  0  0  0  0  0  0
   37.3100   28.0970   41.0730 C   0  0  0  0  0  0  0  0  0  0  0  0
   36.5780   28.2030   42.2750 C   0  0  0  0  0  0  0  0  0  0  0  0
   35.5780   28.6320   42.0800 H   0  0  0  0  0  0  0  0  0  0  0  0
   36.9510   27.8460   43.5490 C   0  0  0  0  0  0  0  0  0  0  0  0
   36.2070   28.0290   44.2990 H   0  0  0  0  0  0  0  0  0  0  0  0
   38.2010   27.3150   43.6800 C   0  0  0  0  0  3  0  0  0  0  0  0
   39.0150   27.1560   42.5940 C   0  0  0  0  0  3  0  0  0  0  0  0
   39.3970   28.2850   39.0490 H   0  0  0  0  0  0  0  0  0  0  0  0
   39.6640   27.3090   39.9750 S   0  0  0  0  0  0  0  0  0  0  0  0
   39.4860   25.9500   39.3640 O   0  0  0  0  0  0  0  0  0  0  0  0
   41.0730   27.4620   40.4880 O   0  0  0  0  0  0  0  0  0  0  0  0
  1  2  1  0  0  0  0
  2  9  1  0  0  0  0
  2  3  2  0  0  0  0
  3 25  1  0  0  0  0
  4  3  1  0  0  0  0
  5  4  2  0  0  0  0
  6  1  2  0  0  0  0
  6  5  1  0  0  0  0
  7  1  1  0  0  0  0
  8  5  1  0  0  0  0
  9 14  1  0  0  0  0
 10 11  1  0  0  0  0
 10  9  1  0  0  0  0
 10 15  1  0  0  0  0
 11 18  1  0  0  0  0
 12 11  1  0  0  0  0
 12 13  1  0  0  0  0
 13 14  1  0  0  0  0
 13 20  1  0  0  0  0
 14 22  1  0  0  0  0
 14 23  1  0  0  0  0
 16 10  1  0  0  0  0
 17 11  1  0  0  0  0
 19 12  1  0  0  0  0
 21 13  1  0  0  0  0
 24 31  1  0  0  0  0
 25 24  2  0  0  0  0
 25 26  1  0  0  0  0
 26 28  2  0  0  0  0
 27 26  1  0  0  0  0
 28 30  1  0  0  0  0
 28 29  1  0  0  0  0
 31 30  2  0  0  0  0
 32 33  1  0  0  0  0
 33 35  2  0  0  0  0
 33 24  1  0  0  0  0
 34 33  2  0  0  0  0
M  END
>  <minimizedAffinity>
-4.90277004

$$$$

 OpenBabel03242523043D

 35 37  0  0  0  0  0  0  0  0999 V2000
   40.2750   29.7130   37.6380 C   0  0  0  0  0  0  0  0  0  0  0  0
   39.4830   29.9230   38.7590 C   0  0  0  0  0  0  0  0  0  0  0  0
   39.3500   28.8530   39.6050 C   0  0  0  0  0  0  0  0  0  0  0  0
   39.9540   27.6620   39.3710 N   0  0  0  0  0  0  0  0  0  0  0  0
   40.7260   27.5080   38.2510 C   0  0  0  0  0  0  0  0  0  0  0  0
   40.8790   28.5380   37.3900 N   0  0  0  0  0  0  0  0  0  0  0  0
   40.4890   30.4310   36.8650 H   0  0  0  0  0  0  0  0  0  0  0  0
   41.2400   26.5840   37.9930 H   0  0  0  0  0  0  0  0  0  0  0  0
   38.9270   31.1900   38.9890 N   0  0  0  0  0  0  0  0  0  0  0  0
   37.7030   31.5890   38.4620 C   0  0  0  0  0  0  0  0  0  0  0  0
   37.0900   32.8360   39.0320 C   0  0  0  0  0  0  0  0  0  0  0  0
   37.3170   33.0840   40.3850 N   0  0  0  0  0  0  0  0  0  0  0  0
   38.6110   32.8010   40.8460 C   0  0  0  0  0  0  0  0  0  0  0  0
   39.5250   32.2220   39.7750 C   0  0  0  0  0  0  0  0  0  0  0  0
   37.8300   31.9360   37.3840 H   0  0  0  0  0  0  0  0  0  0  0  0
   36.9540   30.8210   38.6160 H   0  0  0  0  0  0  0  0  0  0  0  0
   35.9990   32.8110   38.8120 H   0  0  0  0  0  0  0  0  0  0  0  0
   37.4500   33.7480   38.4640 H   0  0  0  0  0  0  0  0  0  0  0  0
   36.7110   33.7160   40.8810 H   0  0  0  0  0  0  0  0  0  0  0  0
   39.1010   33.7450   41.1600 H   0  0  0  0  0  0  0  0  0  0  0  0
   38.6690   32.1330   41.7270 H   0  0  0  0  0  0  0  0  0  0  0  0
   40.4400   31.9380   40.3200 H   0  0  0  0  0  0  0  0  0  0  0  0
   39.8510   33.0550   39.0960 H   0  0  0  0  0  0  0  0  0  0  0  0
   39.1340   28.9680   42.1150 C   0  0  0  0  0  0  0  0  0  0  0  0
   38.6200   28.7250   40.8210 C   0  0  0  0  0  0  0  0  0  0  0  0
   37.2970   28.2450   40.9350 C   0  0  0  0  0  0  0  0  0  0  0  0
   36.8760   28.0370   39.9340 H   0  0  0  0  0  0  0  0  0  0  0  0
   36.5540   28.0210   42.0690 C   0  0  0  0  0  0  0  0  0  0  0  0
   35.5640   27.6510   41.8870 H   0  0  0  0  0  0  0  0  0  0  0  0
   37.1700   28.2990   43.2540 C   0  0  0  0  0  3  0  0  0  0  0  0
   38.4520   28.7690   43.2860 C   0  0  0  0  0  3  0  0  0  0  0  0
   41.2680   29.7300   40.9270 H   0  0  0  0  0  0  0  0  0  0  0  0
   40.7930   29.5780   42.2050 S   0  0  0  0  0  0  0  0  0  0  0  0
   41.6720   28.6390   42.9780 O   0  0  0  0  0  0  0  0  0  0  0  0
   40.7410   30.9180   42.8930 O   0  0  0  0  0  0  0  0  0  0  0  0
  1  2  1  0  0  0  0
  2  9  1  0  0  0  0
  2  3  2  0  0  0  0
  3 25  1  0  0  0  0
  4  3  1  0  0  0  0
  5  4  2  0  0  0  0
  6  1  2  0  0  0  0
  6  5  1  0  0  0  0
  7  1  1  0  0  0  0
  8  5  1  0  0  0  0
  9 14  1  0  0  0  0
 10 16  1  0  0  0  0
 10  9  1  0  0  0  0
 10 11  1  0  0  0  0
 11 12  1  0  0  0  0
 12 13  1  0  0  0  0
 12 19  1  0  0  0  0
 13 20  1  0  0  0  0
 13 21  1  0  0  0  0
 14 22  1  0  0  0  0
 14 13  1  0  0  0  0
 15 10  1  0  0  0  0
 17 11  1  0  0  0  0
 18 11  1  0  0  0  0
 23 14  1  0  0  0  0
 24 33  1  0  0  0  0
 24 31  1  0  0  0  0
 25 26  1  0  0  0  0
 25 24  2  0  0  0  0
 26 28  2  0  0  0  0
 27 26  1  0  0  0  0
 28 30  1  0  0  0  0
 29 28  1  0  0  0  0
 30 31  2  0  0  0  0
 32 33  1  0  0  0  0
 33 35  2  0  0  0  0
 33 34  2  0  0  0  0
M  END
>  <minimizedAffinity>
-4.79174995

$$$$

 OpenBabel03242523043D

 35 37  0  0  0  0  0  0  0  0999 V2000
   40.3830   27.7050   39.2160 C   0  0  0  0  0  0  0  0  0  0  0  0
   39.6310   28.7570   39.7220 C   0  0  0  0  0  0  0  0  0  0  0  0
   39.7250   29.9400   39.0390 C   0  0  0  0  0  0  0  0  0  0  0  0
   40.4990   30.0830   37.9340 N   0  0  0  0  0  0  0  0  0  0  0  0
   41.2200   29.0130   37.4760 C   0  0  0  0  0  0  0  0  0  0  0  0
   41.1570   27.8300   38.1230 N   0  0  0  0  0  0  0  0  0  0  0  0
   40.4390   26.7080   39.6200 H   0  0  0  0  0  0  0  0  0  0  0  0
   41.8640   29.0500   36.6000 H   0  0  0  0  0  0  0  0  0  0  0  0
   38.8000   28.5450   40.8330 N   0  0  0  0  0  0  0  0  0  0  0  0
   39.2560   28.6130   42.1450 C   0  0  0  0  0  0  0  0  0  0  0  0
   38.2140   28.6730   43.2250 C   0  0  0  0  0  0  0  0  0  0  0  0
   37.0320   29.3490   42.9200 N   0  0  0  0  0  0  0  0  0  0  0  0
   36.5300   29.1390   41.6280 C   0  0  0  0  0  0  0  0  0  0  0  0
   37.4070   28.2360   40.7720 C   0  0  0  0  0  0  0  0  0  0  0  0
   39.7570   27.6340   42.4420 H   0  0  0  0  0  0  0  0  0  0  0  0
   39.8560   29.5040   42.2940 H   0  0  0  0  0  0  0  0  0  0  0  0
   38.6900   29.1020   44.1350 H   0  0  0  0  0  0  0  0  0  0  0  0
   37.9220   27.6280   43.5500 H   0  0  0  0  0  0  0  0  0  0  0  0
   36.4410   29.6730   43.6660 H   0  0  0  0  0  0  0  0  0  0  0  0
   35.5570   28.6100   41.6960 H   0  0  0  0  0  0  0  0  0  0  0  0
   36.3240   30.0550   41.0400 H   0  0  0  0  0  0  0  0  0  0  0  0
   36.9510   28.2800   39.7700 H   0  0  0  0  0  0  0  0  0  0  0  0
   37.2550   27.1740   41.1020 H   0  0  0  0  0  0  0  0  0  0  0  0
   39.6060   32.2130   40.1270 C   0  0  0  0  0  0  0  0  0  0  0  0
   39.1020   31.1980   39.2830 C   0  0  0  0  0  0  0  0  0  0  0  0
   37.8370   31.5930   38.7950 C   0  0  0  0  0  0  0  0  0  0  0  0
   37.4150   30.8080   38.1390 H   0  0  0  0  0  0  0  0  0  0  0  0
   37.1370   32.7490   39.0430 C   0  0  0  0  0  0  0  0  0  0  0  0
   36.1880   32.8100   38.5480 H   0  0  0  0  0  0  0  0  0  0  0  0
   37.7400   33.6470   39.8750 C   0  0  0  0  0  3  0  0  0  0  0  0
   38.9670   33.3880   40.4180 C   0  0  0  0  0  3  0  0  0  0  0  0
   41.8390   30.9620   40.1120 H   0  0  0  0  0  0  0  0  0  0  0  0
   41.1940   31.9200   40.8520 S   0  0  0  0  0  0  0  0  0  0  0  0
   41.0600   31.4730   42.2790 O   0  0  0  0  0  0  0  0  0  0  0  0
   41.9600   33.2170   40.7900 O   0  0  0  0  0  0  0  0  0  0  0  0
  1  7  1  0  0  0  0
  1  2  1  0  0  0  0
  2  9  1  0  0  0  0
  3 25  1  0  0  0  0
  3  2  2  0  0  0  0
  4  3  1  0  0  0  0
  5  4  2  0  0  0  0
  5  6  1  0  0  0  0
  6  1  2  0  0  0  0
  8  5  1  0  0  0  0
  9 10  1  0  0  0  0
 10 16  1  0  0  0  0
 10 15  1  0  0  0  0
 10 11  1  0  0  0  0
 11 18  1  0  0  0  0
 11 17  1  0  0  0  0
 12 11  1  0  0  0  0
 12 19  1  0  0  0  0
 13 20  1  0  0  0  0
 13 12  1  0  0  0  0
 14  9  1  0  0  0  0
 14 23  1  0  0  0  0
 14 13  1  0  0  0  0
 21 13  1  0  0  0  0
 22 14  1  0  0  0  0
 24 31  1  0  0  0  0
 24 33  1  0  0  0  0
 25 24  2  0  0  0  0
 26 28  2  0  0  0  0
 26 25  1  0  0  0  0
 27 26  1  0  0  0  0
 28 30  1  0  0  0  0
 29 28  1  0  0  0  0
 30 31  2  0  0  0  0
 32 33  1  0  0  0  0
 33 34  2  0  0  0  0
 35 33  2  0  0  0  0
M  END
>  <minimizedAffinity>
-4.69687986

$$$$

 OpenBabel03242523043D

 35 37  0  0  0  0  0  0  0  0999 V2000
   35.5800   26.5940   37.9670 C   0  0  0  0  0  0  0  0  0  0  0  0
   36.3160   26.5980   39.1450 C   0  0  0  0  0  0  0  0  0  0  0  0
   36.1930   27.7200   39.9210 C   0  0  0  0  0  0  0  0  0  0  0  0
   35.4020   28.7650   39.5710 N   0  0  0  0  0  0  0  0  0  0  0  0
   34.6960   28.7090   38.3990 C   0  0  0  0  0  0  0  0  0  0  0  0
   34.7930   27.6220   37.6030 N   0  0  0  0  0  0  0  0  0  0  0  0
   35.5550   25.8070   37.2330 H   0  0  0  0  0  0  0  0  0  0  0  0
   34.0440   29.5060   38.0490 H   0  0  0  0  0  0  0  0  0  0  0  0
   37.0740   25.4710   39.4940 N   0  0  0  0  0  0  0  0  0  0  0  0
   38.4120   25.3180   39.1440 C   0  0  0  0  0  0  0  0  0  0  0  0
   39.1760   24.2260   39.8360 C   0  0  0  0  0  0  0  0  0  0  0  0
   38.8230   23.9540   41.1580 N   0  0  0  0  0  0  0  0  0  0  0  0
   37.4490   23.9790   41.4360 C   0  0  0  0  0  0  0  0  0  0  0  0
   36.5900   24.3500   40.2350 C   0  0  0  0  0  0  0  0  0  0  0  0
   38.5010   24.9400   38.0730 H   0  0  0  0  0  0  0  0  0  0  0  0
   38.9680   26.2230   39.3640 H   0  0  0  0  0  0  0  0  0  0  0  0
   40.2610   24.4660   39.7590 H   0  0  0  0  0  0  0  0  0  0  0  0
   39.0820   23.2540   39.2630 H   0  0  0  0  0  0  0  0  0  0  0  0
   39.4690   23.4630   41.7520 H   0  0  0  0  0  0  0  0  0  0  0  0
   37.1160   22.9590   41.7210 H   0  0  0  0  0  0  0  0  0  0  0  0
   37.1430   24.6320   42.2770 H   0  0  0  0  0  0  0  0  0  0  0  0
   35.5730   24.4520   40.6460 H   0  0  0  0  0  0  0  0  0  0  0  0
   36.5290   23.4610   39.5520 H   0  0  0  0  0  0  0  0  0  0  0  0
   37.9710   28.8240   41.3300 C   0  0  0  0  0  0  0  0  0  0  0  0
   36.8000   28.0500   41.1680 C   0  0  0  0  0  0  0  0  0  0  0  0
   36.3810   27.5800   42.4310 C   0  0  0  0  0  0  0  0  0  0  0  0
   35.4700   26.9610   42.3290 H   0  0  0  0  0  0  0  0  0  0  0  0
   36.9520   27.7880   43.6630 C   0  0  0  0  0  0  0  0  0  0  0  0
   36.4380   27.3180   44.4780 H   0  0  0  0  0  0  0  0  0  0  0  0
   38.0800   28.5560   43.6790 C   0  0  0  0  0  3  0  0  0  0  0  0
   38.5930   29.0740   42.5230 C   0  0  0  0  0  3  0  0  0  0  0  0
   38.2480   28.7720   38.7870 H   0  0  0  0  0  0  0  0  0  0  0  0
   38.6710   29.5160   39.8580 S   0  0  0  0  0  0  0  0  0  0  0  0
   40.1700   29.5240   39.9280 O   0  0  0  0  0  0  0  0  0  0  0  0
   38.1550   30.9270   39.7380 O   0  0  0  0  0  0  0  0  0  0  0  0
  1  2  1  0  0  0  0
  2  9  1  0  0  0  0
  2  3  2  0  0  0  0
  3 25  1  0  0  0  0
  4  3  1  0  0  0  0
  5  4  2  0  0  0  0
  6  1  2  0  0  0  0
  6  5  1  0  0  0  0
  7  1  1  0  0  0  0
  8  5  1  0  0  0  0
  9 14  1  0  0  0  0
 10 16  1  0  0  0  0
 10  9  1  0  0  0  0
 10 11  1  0  0  0  0
 11 12  1  0  0  0  0
 12 13  1  0  0  0  0
 12 19  1  0  0  0  0
 13 20  1  0  0  0  0
 13 21  1  0  0  0  0
 14 22  1  0  0  0  0
 14 13  1  0  0  0  0
 15 10  1  0  0  0  0
 17 11  1  0  0  0  0
 18 11  1  0  0  0  0
 23 14  1  0  0  0  0
 24 31  1  0  0  0  0
 25 24  2  0  0  0  0
 25 26  1  0  0  0  0
 26 28  2  0  0  0  0
 27 26  1  0  0  0  0
 28 30  1  0  0  0  0
 28 29  1  0  0  0  0
 31 30  2  0  0  0  0
 32 33  1  0  0  0  0
 33 34  2  0  0  0  0
 33 24  1  0  0  0  0
 35 33  2  0  0  0  0
M  END
>  <minimizedAffinity>
-4.666471

$$$$

 OpenBabel03242523043D

 35 37  0  0  0  0  0  0  0  0999 V2000
   40.1140   28.0040   41.5480 C   0  0  0  0  0  0  0  0  0  0  0  0
   39.8900   29.1540   40.8020 C   0  0  0  0  0  0  0  0  0  0  0  0
   38.9810   30.0360   41.3240 C   0  0  0  0  0  0  0  0  0  0  0  0
   38.3380   29.8100   42.4960 N   0  0  0  0  0  0  0  0  0  0  0  0
   38.5970   28.6600   43.1930 C   0  0  0  0  0  0  0  0  0  0  0  0
   39.4840   27.7630   42.7110 N   0  0  0  0  0  0  0  0  0  0  0  0
   40.7850   27.2000   41.2950 H   0  0  0  0  0  0  0  0  0  0  0  0
   38.1210   28.4070   44.1380 H   0  0  0  0  0  0  0  0  0  0  0  0
   40.6220   29.3710   39.6250 N   0  0  0  0  0  0  0  0  0  0  0  0
   40.3840   28.6760   38.4440 C   0  0  0  0  0  0  0  0  0  0  0  0
   41.0190   29.2180   37.1950 C   0  0  0  0  0  0  0  0  0  0  0  0
   41.1510   30.6040   37.1090 N   0  0  0  0  0  0  0  0  0  0  0  0
   41.5320   31.2520   38.2920 C   0  0  0  0  0  0  0  0  0  0  0  0
   41.6870   30.3110   39.4790 C   0  0  0  0  0  0  0  0  0  0  0  0
   40.8970   27.6590   38.4720 H   0  0  0  0  0  0  0  0  0  0  0  0
   39.3220   28.6530   38.2230 H   0  0  0  0  0  0  0  0  0  0  0  0
   40.4520   28.8200   36.3240 H   0  0  0  0  0  0  0  0  0  0  0  0
   42.0540   28.7790   37.0560 H   0  0  0  0  0  0  0  0  0  0  0  0
   41.2860   31.0320   36.2090 H   0  0  0  0  0  0  0  0  0  0  0  0
   42.5360   31.7040   38.1540 H   0  0  0  0  0  0  0  0  0  0  0  0
   40.8770   32.0850   38.6130 H   0  0  0  0  0  0  0  0  0  0  0  0
   41.8550   30.9800   40.3390 H   0  0  0  0  0  0  0  0  0  0  0  0
   42.6540   29.7520   39.3670 H   0  0  0  0  0  0  0  0  0  0  0  0
   37.4620   31.4650   39.9050 C   0  0  0  0  0  0  0  0  0  0  0  0
   38.5200   31.2880   40.8250 C   0  0  0  0  0  0  0  0  0  0  0  0
   39.1060   32.5430   41.0970 C   0  0  0  0  0  0  0  0  0  0  0  0
   39.9460   32.4290   41.8080 H   0  0  0  0  0  0  0  0  0  0  0  0
   38.7720   33.7790   40.6000 C   0  0  0  0  0  0  0  0  0  0  0  0
   39.3770   34.5860   40.9660 H   0  0  0  0  0  0  0  0  0  0  0  0
   37.7290   33.8090   39.7210 C   0  0  0  0  0  3  0  0  0  0  0  0
   37.0730   32.6640   39.3700 C   0  0  0  0  0  3  0  0  0  0  0  0
   37.4260   28.9320   39.5470 H   0  0  0  0  0  0  0  0  0  0  0  0
   36.5830   30.0060   39.4210 S   0  0  0  0  0  0  0  0  0  0  0  0
   36.0890   30.1190   38.0090 O   0  0  0  0  0  0  0  0  0  0  0  0
   35.4160   29.8540   40.3640 O   0  0  0  0  0  0  0  0  0  0  0  0
  1  6  1  0  0  0  0
  2  3  1  0  0  0  0
  2  1  2  0  0  0  0
  3  4  2  0  0  0  0
  4  5  1  0  0  0  0
  5  8  1  0  0  0  0
  6  5  2  0  0  0  0
  7  1  1  0  0  0  0
  9  2  1  0  0  0  0
 10 15  1  0  0  0  0
 10  9  1  0  0  0  0
 11 10  1  0  0  0  0
 12 11  1  0  0  0  0
 12 13  1  0  0  0  0
 13 21  1  0  0  0  0
 13 14  1  0  0  0  0
 14  9  1  0  0  0  0
 14 22  1  0  0  0  0
 16 10  1  0  0  0  0
 17 11  1  0  0  0  0
 18 11  1  0  0  0  0
 19 12  1  0  0  0  0
 20 13  1  0  0  0  0
 23 14  1  0  0  0  0
 24 25  1  0  0  0  0
 25 26  2  0  0  0  0
 25  3  1  0  0  0  0
 26 27  1  0  0  0  0
 28 29  1  0  0  0  0
 28 26  1  0  0  0  0
 30 28  2  0  0  0  0
 31 30  1  0  0  0  0
 31 24  2  0  0  0  0
 33 32  1  0  0  0  0
 33 24  1  0  0  0  0
 33 35  2  0  0  0  0
 34 33  2  0  0  0  0
M  END
>  <minimizedAffinity>
-4.6655755

$$$$

 OpenBabel03242523043D

 35 37  0  0  0  0  0  0  0  0999 V2000
   36.9310   28.3050   38.9520 C   0  0  0  0  0  0  0  0  0  0  0  0
   37.6220   29.3430   39.5620 C   0  0  0  0  0  0  0  0  0  0  0  0
   37.7290   30.4980   38.8330 C   0  0  0  0  0  0  0  0  0  0  0  0
   37.1920   30.6300   37.5950 N   0  0  0  0  0  0  0  0  0  0  0  0
   36.5190   29.5750   37.0400 C   0  0  0  0  0  0  0  0  0  0  0  0
   36.3940   28.4170   37.7240 N   0  0  0  0  0  0  0  0  0  0  0  0
   36.7510   27.3270   39.3670 H   0  0  0  0  0  0  0  0  0  0  0  0
   36.0630   29.6020   36.0520 H   0  0  0  0  0  0  0  0  0  0  0  0
   38.1090   29.1800   40.8680 N   0  0  0  0  0  0  0  0  0  0  0  0
   37.3580   29.4760   42.0010 C   0  0  0  0  0  0  0  0  0  0  0  0
   37.8790   28.9700   43.3150 C   0  0  0  0  0  0  0  0  0  0  0  0
   38.5550   27.7500   43.2930 N   0  0  0  0  0  0  0  0  0  0  0  0
   39.4140   27.5510   42.2030 C   0  0  0  0  0  0  0  0  0  0  0  0
   39.4110   28.7030   41.2070 C   0  0  0  0  0  0  0  0  0  0  0  0
   37.3930   30.5940   42.2190 H   0  0  0  0  0  0  0  0  0  0  0  0
   36.3630   29.0520   41.9190 H   0  0  0  0  0  0  0  0  0  0  0  0
   37.0270   28.9370   44.0300 H   0  0  0  0  0  0  0  0  0  0  0  0
   38.5810   29.7280   43.7790 H   0  0  0  0  0  0  0  0  0  0  0  0
   38.6620   27.2290   44.1470 H   0  0  0  0  0  0  0  0  0  0  0  0
   40.4600   27.4920   42.5680 H   0  0  0  0  0  0  0  0  0  0  0  0
   39.2500   26.6170   41.6300 H   0  0  0  0  0  0  0  0  0  0  0  0
   40.0210   28.3390   40.3650 H   0  0  0  0  0  0  0  0  0  0  0  0
   40.0080   29.5500   41.6400 H   0  0  0  0  0  0  0  0  0  0  0  0
   39.6950   32.0790   38.8240 C   0  0  0  0  0  0  0  0  0  0  0  0
   38.3640   31.7330   39.1510 C   0  0  0  0  0  0  0  0  0  0  0  0
   37.7960   32.7700   39.9230 C   0  0  0  0  0  0  0  0  0  0  0  0
   36.7560   32.5180   40.2010 H   0  0  0  0  0  0  0  0  0  0  0  0
   38.3650   33.9520   40.3340 C   0  0  0  0  0  0  0  0  0  0  0  0
   37.7190   34.5780   40.9180 H   0  0  0  0  0  0  0  0  0  0  0  0
   39.6570   34.1610   39.9480 C   0  0  0  0  0  3  0  0  0  0  0  0
   40.3240   33.2350   39.1970 C   0  0  0  0  0  3  0  0  0  0  0  0
   39.7050   30.1850   37.1030 H   0  0  0  0  0  0  0  0  0  0  0  0
   40.5990   30.9080   37.8520 S   0  0  0  0  0  0  0  0  0  0  0  0
   41.4070   29.9930   38.7250 O   0  0  0  0  0  0  0  0  0  0  0  0
   41.5120   31.6910   36.9430 O   0  0  0  0  0  0  0  0  0  0  0  0
  1  7  1  0  0  0  0
  1  2  1  0  0  0  0
  2  9  1  0  0  0  0
  3 25  1  0  0  0  0
  3  2  2  0  0  0  0
  4  3  1  0  0  0  0
  5  4  2  0  0  0  0
  5  6  1  0  0  0  0
  6  1  2  0  0  0  0
  8  5  1  0  0  0  0
  9 14  1  0  0  0  0
  9 10  1  0  0  0  0
 10 15  1  0  0  0  0
 10 11  1  0  0  0  0
 11 18  1  0  0  0  0
 11 17  1  0  0  0  0
 12 11  1  0  0  0  0
 12 19  1  0  0  0  0
 13 20  1  0  0  0  0
 13 12  1  0  0  0  0
 14 23  1  0  0  0  0
 14 13  1  0  0  0  0
 16 10  1  0  0  0  0
 21 13  1  0  0  0  0
 22 14  1  0  0  0  0
 24 25  2  0  0  0  0
 24 31  1  0  0  0  0
 25 26  1  0  0  0  0
 26 27  1  0  0  0  0
 26 28  2  0  0  0  0
 28 29  1  0  0  0  0
 30 28  1  0  0  0  0
 31 30  2  0  0  0  0
 32 33  1  0  0  0  0
 33 34  2  0  0  0  0
 33 24  1  0  0  0  0
 35 33  2  0  0  0  0
M  END
>  <minimizedAffinity>
-4.6453476

$$$$

 OpenBabel03242523043D

 35 37  0  0  0  0  0  0  0  0999 V2000
   41.1020   29.6220   39.1160 C   0  0  0  0  0  0  0  0  0  0  0  0
   39.8990   29.4600   39.7900 C   0  0  0  0  0  0  0  0  0  0  0  0
   39.8980   28.5300   40.7960 C   0  0  0  0  0  0  0  0  0  0  0  0
   41.0010   27.8120   41.1230 N   0  0  0  0  0  0  0  0  0  0  0  0
   42.1630   28.0120   40.4280 C   0  0  0  0  0  0  0  0  0  0  0  0
   42.2040   28.9170   39.4260 N   0  0  0  0  0  0  0  0  0  0  0  0
   41.2900   30.2980   38.2990 H   0  0  0  0  0  0  0  0  0  0  0  0
   43.0880   27.4740   40.6290 H   0  0  0  0  0  0  0  0  0  0  0  0
   38.8010   30.2670   39.4550 N   0  0  0  0  0  0  0  0  0  0  0  0
   38.4730   31.4280   40.1480 C   0  0  0  0  0  0  0  0  0  0  0  0
   37.4760   32.3470   39.5020 C   0  0  0  0  0  0  0  0  0  0  0  0
   37.4960   32.4150   38.1090 N   0  0  0  0  0  0  0  0  0  0  0  0
   37.6880   31.1950   37.4450 C   0  0  0  0  0  0  0  0  0  0  0  0
   37.8890   30.0150   38.3850 C   0  0  0  0  0  0  0  0  0  0  0  0
   37.8880   31.1740   41.0920 H   0  0  0  0  0  0  0  0  0  0  0  0
   39.3540   32.0430   40.2990 H   0  0  0  0  0  0  0  0  0  0  0  0
   37.6060   33.3590   39.9490 H   0  0  0  0  0  0  0  0  0  0  0  0
   36.4220   32.0620   39.8040 H   0  0  0  0  0  0  0  0  0  0  0  0
   37.0770   33.2030   37.6460 H   0  0  0  0  0  0  0  0  0  0  0  0
   36.7740   30.9470   36.8670 H   0  0  0  0  0  0  0  0  0  0  0  0
   38.5150   31.1770   36.7090 H   0  0  0  0  0  0  0  0  0  0  0  0
   38.1530   29.1770   37.7210 H   0  0  0  0  0  0  0  0  0  0  0  0
   36.8930   29.7280   38.8160 H   0  0  0  0  0  0  0  0  0  0  0  0
   38.0030   27.0070   41.4650 C   0  0  0  0  0  0  0  0  0  0  0  0
   38.8520   28.1180   41.6700 C   0  0  0  0  0  0  0  0  0  0  0  0
   38.4360   28.8050   42.8310 C   0  0  0  0  0  0  0  0  0  0  0  0
   39.0800   29.6870   43.0070 H   0  0  0  0  0  0  0  0  0  0  0  0
   37.3950   28.5170   43.6800 C   0  0  0  0  0  0  0  0  0  0  0  0
   37.2850   29.2010   44.4990 H   0  0  0  0  0  0  0  0  0  0  0  0
   36.6540   27.4140   43.3660 C   0  0  0  0  0  3  0  0  0  0  0  0
   36.9500   26.6590   42.2680 C   0  0  0  0  0  3  0  0  0  0  0  0
   39.7070   25.9720   39.8600 H   0  0  0  0  0  0  0  0  0  0  0  0
   38.3490   25.9980   40.0520 S   0  0  0  0  0  0  0  0  0  0  0  0
   37.6610   26.5310   38.8290 O   0  0  0  0  0  0  0  0  0  0  0  0
   37.8480   24.6100   40.3590 O   0  0  0  0  0  0  0  0  0  0  0  0
  1  6  2  0  0  0  0
  1  2  1  0  0  0  0
  2  3  2  0  0  0  0
  3  4  1  0  0  0  0
  3 25  1  0  0  0  0
  5  8  1  0  0  0  0
  5  4  2  0  0  0  0
  6  5  1  0  0  0  0
  7  1  1  0  0  0  0
  9  2  1  0  0  0  0
  9 10  1  0  0  0  0
 10 16  1  0  0  0  0
 10 15  1  0  0  0  0
 11 18  1  0  0  0  0
 11 17  1  0  0  0  0
 11 10  1  0  0  0  0
 12 11  1  0  0  0  0
 13 12  1  0  0  0  0
 13 14  1  0  0  0  0
 14 23  1  0  0  0  0
 14  9  1  0  0  0  0
 19 12  1  0  0  0  0
 20 13  1  0  0  0  0
 21 13  1  0  0  0  0
 22 14  1  0  0  0  0
 24 25  2  0  0  0  0
 24 31  1  0  0  0  0
 25 26  1  0  0  0  0
 26 27  1  0  0  0  0
 26 28  2  0  0  0  0
 28 29  1  0  0  0  0
 30 28  1  0  0  0  0
 31 30  2  0  0  0  0
 32 33  1  0  0  0  0
 33 35  2  0  0  0  0
 33 24  1  0  0  0  0
 34 33  2  0  0  0  0
M  END
>  <minimizedAffinity>
-4.62075138

$$$$
