
 OpenBabel03252506563D

 41 45  0  0  0  0  0  0  0  0999 V2000
   47.2620   31.3510   45.1110 C   0  0  0  0  0  0  0  0  0  0  0  0
   46.9130   32.6940   45.0580 C   0  0  0  0  0  0  0  0  0  0  0  0
   46.3000   33.3510   46.1000 C   0  0  0  0  0  0  0  0  0  0  0  0
   46.0060   32.6640   47.2750 C   0  0  0  0  0  0  0  0  0  0  0  0
   45.4270   32.9700   48.4700 N   0  0  0  0  0  0  0  0  0  0  0  0
   45.4210   31.8540   49.2340 C   0  0  0  0  0  0  0  0  0  0  0  0
   45.9940   30.8680   48.5080 N   0  0  0  0  0  0  0  0  0  0  0  0
   46.3600   31.3390   47.3040 C   0  0  0  0  0  0  0  0  0  0  0  0
   46.9730   30.6560   46.2770 C   0  0  0  0  0  0  0  0  0  0  0  0
   47.7470   30.8600   44.2660 H   0  0  0  0  0  0  0  0  0  0  0  0
   46.0200   34.3980   46.0760 H   0  0  0  0  0  0  0  0  0  0  0  0
   45.0930   33.9440   48.6250 H   0  0  0  0  0  0  0  0  0  0  0  0
   45.0100   31.8490   50.2320 H   0  0  0  0  0  0  0  0  0  0  0  0
   46.6570   35.1470   42.3350 C   0  0  0  0  0  0  0  0  0  0  0  0
   47.7710   34.8480   41.5490 C   0  0  0  0  0  0  0  0  0  0  0  0
   48.6040   33.8110   41.9500 C   0  0  0  0  0  0  0  0  0  0  0  0
   48.3040   33.1210   43.0990 N   0  0  0  0  0  0  0  0  0  0  0  0
   47.2080   33.4470   43.8330 C   0  0  0  0  0  0  0  0  0  0  0  0
   46.3820   34.4570   43.4600 N   0  0  0  0  0  0  0  0  0  0  0  0
   46.0300   35.9580   41.9960 H   0  0  0  0  0  0  0  0  0  0  0  0
   48.0390   35.3680   40.6380 H   0  0  0  0  0  0  0  0  0  0  0  0
   49.4890   33.4930   41.4220 H   0  0  0  0  0  0  0  0  0  0  0  0
   47.3070   29.2420   46.4190 C   0  0  0  0  0  0  0  0  0  0  0  0
   48.5930   28.7330   46.4490 C   0  0  0  0  0  0  0  0  0  0  0  0
   48.4330   27.3580   46.5950 C   0  0  0  0  0  0  0  0  0  0  0  0
   47.0800   27.1090   46.6440 C   0  0  0  0  0  0  0  0  0  0  0  0
   46.4610   28.2640   46.5350 O   0  0  0  0  0  0  0  0  0  0  0  0
   49.4970   29.3000   46.3750 H   0  0  0  0  0  0  0  0  0  0  0  0
   49.2410   26.6170   46.6580 H   0  0  0  0  0  0  0  0  0  0  0  0
   47.2070   24.6580   46.7290 C   0  0  0  0  0  0  0  0  0  0  0  0
   46.4410   25.8050   46.7920 C   0  0  0  0  0  0  0  0  0  0  0  0
   45.0780   25.7370   46.9900 C   0  0  0  0  0  0  0  0  0  0  0  0
   44.4590   26.6430   47.0410 H   0  0  0  0  0  0  0  0  0  0  0  0
   44.4110   24.5430   47.1350 C   0  0  0  0  0  0  0  0  0  0  0  0
   43.3440   24.4600   47.2920 H   0  0  0  0  0  0  0  0  0  0  0  0
   45.1850   23.3810   47.0730 C   0  0  0  0  0  3  0  0  0  0  0  0
   46.5400   23.4590   46.8740 C   0  0  0  0  0  3  0  0  0  0  0  0
   49.4400   25.9840   46.5120 H   0  0  0  0  0  0  0  0  0  0  0  0
   48.9380   24.7170   46.4780 S   0  0  0  0  0  0  0  0  0  0  0  0
   49.5930   23.9250   47.5960 O   0  0  0  0  0  0  0  0  0  0  0  0
   49.2940   23.9940   45.1890 O   0  0  0  0  0  0  0  0  0  0  0  0
  1  9  1  0  0  0  0
  2  1  2  0  0  0  0
  2  3  1  0  0  0  0
  3  4  2  0  0  0  0
  4  8  1  0  0  0  0
  4  5  1  0  0  0  0
  5 12  1  0  0  0  0
  5  6  1  0  0  0  0
  6 13  1  0  0  0  0
  7  6  2  0  0  0  0
  8  7  1  0  0  0  0
  9 23  1  0  0  0  0
  9  8  2  0  0  0  0
 10  1  1  0  0  0  0
 11  3  1  0  0  0  0
 14 19  1  0  0  0  0
 15 16  1  0  0  0  0
 15 14  2  0  0  0  0
 16 17  2  0  0  0  0
 17 18  1  0  0  0  0
 18  2  1  0  0  0  0
 19 18  2  0  0  0  0
 20 14  1  0  0  0  0
 21 15  1  0  0  0  0
 22 16  1  0  0  0  0
 23 24  2  0  0  0  0
 23 27  1  0  0  0  0
 24 25  1  0  0  0  0
 25 26  2  0  0  0  0
 25 29  1  0  0  0  0
 26 31  1  0  0  0  0
 27 26  1  0  0  0  0
 28 24  1  0  0  0  0
 30 31  2  0  0  0  0
 30 37  1  0  0  0  0
 31 32  1  0  0  0  0
 32 33  1  0  0  0  0
 32 34  2  0  0  0  0
 34 35  1  0  0  0  0
 36 34  1  0  0  0  0
 37 36  2  0  0  0  0
 39 38  1  0  0  0  0
 39 30  1  0  0  0  0
 39 40  2  0  0  0  0
 41 39  2  0  0  0  0
M  END
>  <minimizedAffinity>
-5.42906809

>  <minimizedRMSD>
0.464979559

$$$$
