
 OpenBabel03242516493D

 46 49  0  0  1  0  0  0  0  0999 V2000
   47.7150   32.7320   41.5890 C   0  0  1  0  0  0  0  0  0  0  0  0
   47.2030   32.0090   40.4080 C   0  0  0  0  0  0  0  0  0  0  0  0
   48.1430   32.3670   39.2600 C   0  0  0  0  0  0  0  0  0  0  0  0
   47.8700   33.8370   38.9450 C   0  0  0  0  0  0  0  0  0  0  0  0
   47.9790   34.7430   40.1050 C   0  0  0  0  0  0  0  0  0  0  0  0
   47.6150   34.2370   41.4400 C   0  0  1  0  0  0  0  0  0  0  0  0
   48.8310   32.5550   41.6580 H   0  0  0  0  0  0  0  0  0  0  0  0
   46.1750   32.2400   40.1200 H   0  0  0  0  0  0  0  0  0  0  0  0
   47.2820   30.9090   40.6340 H   0  0  0  0  0  0  0  0  0  0  0  0
   47.8310   31.7800   38.3870 H   0  0  0  0  0  0  0  0  0  0  0  0
   49.1960   32.2230   39.5510 H   0  0  0  0  0  0  0  0  0  0  0  0
   48.6310   34.1170   38.1770 H   0  0  0  0  0  0  0  0  0  0  0  0
   46.9020   33.8370   38.4170 H   0  0  0  0  0  0  0  0  0  0  0  0
   49.0030   35.1850   40.1160 H   0  0  0  0  0  0  0  0  0  0  0  0
   47.3190   35.6360   39.8910 H   0  0  0  0  0  0  0  0  0  0  0  0
   48.3220   34.6540   42.1940 H   0  0  0  0  0  0  0  0  0  0  0  0
   45.5620   30.9700   44.1450 C   0  0  0  0  0  0  0  0  0  0  0  0
   46.1290   31.3980   42.9470 C   0  0  0  0  0  0  0  0  0  0  0  0
   47.1680   32.3120   42.8740 C   0  0  0  0  0  0  0  0  0  0  0  0
   47.6140   32.7780   44.0530 N   0  0  0  0  0  0  0  0  0  0  0  0
   47.0760   32.3740   45.2290 C   0  0  0  0  0  0  0  0  0  0  0  0
   46.0730   31.4910   45.2850 N   0  0  0  0  0  0  0  0  0  0  0  0
   44.7500   30.2480   44.0880 H   0  0  0  0  0  0  0  0  0  0  0  0
   45.7460   31.0020   42.0050 H   0  0  0  0  0  0  0  0  0  0  0  0
   47.4360   32.7500   46.1830 H   0  0  0  0  0  0  0  0  0  0  0  0
   46.2850   34.7220   41.8790 C   0  0  0  0  0  0  0  0  0  0  0  0
   46.0220   35.5120   43.0010 C   0  0  0  0  0  0  0  0  0  0  0  0
   44.6810   35.8560   43.1840 C   0  0  0  0  0  0  0  0  0  0  0  0
   43.7550   35.4080   42.2810 C   0  0  0  0  0  0  0  0  0  0  0  0
   44.0180   34.6350   41.1910 C   0  0  0  0  0  0  0  0  0  0  0  0
   45.3220   34.3030   41.0120 N   0  0  0  0  0  0  0  0  0  0  0  0
   46.8590   35.7620   43.5840 H   0  0  0  0  0  0  0  0  0  0  0  0
   44.4900   36.4650   44.0510 H   0  0  0  0  0  0  0  0  0  0  0  0
   42.7850   35.7740   42.5290 H   0  0  0  0  0  0  0  0  0  0  0  0
   42.5600   32.9520   39.9330 C   0  0  0  0  0  0  0  0  0  0  0  0
   43.0390   34.2040   40.2000 C   0  0  0  0  0  0  0  0  0  0  0  0
   42.5510   35.2130   39.3830 C   0  0  0  0  0  0  0  0  0  0  0  0
   42.8590   36.2390   39.5110 H   0  0  0  0  0  0  0  0  0  0  0  0
   41.6530   35.0480   38.3630 C   0  0  0  0  0  0  0  0  0  0  0  0
   41.2920   35.8550   37.7440 H   0  0  0  0  0  0  0  0  0  0  0  0
   41.1660   33.7890   38.0920 C   0  0  0  0  0  3  0  0  0  0  0  0
   41.6390   32.7730   38.8930 C   0  0  0  0  0  3  0  0  0  0  0  0
   44.4600   31.7280   41.1940 H   0  0  0  0  0  0  0  0  0  0  0  0
   43.1500   31.6120   40.8290 S   0  0  0  0  0  0  0  0  0  0  0  0
   42.7790   30.2670   40.2740 O   0  0  0  0  0  0  0  0  0  0  0  0
   42.4070   31.6590   42.1820 O   0  0  0  0  0  0  0  0  0  0  0  0
  1  7  1  1  0  0  0
  1 19  1  0  0  0  0
  2  9  1  0  0  0  0
  2  1  1  0  0  0  0
  3 11  1  0  0  0  0
  3  2  1  0  0  0  0
  4  3  1  0  0  0  0
  4  5  1  0  0  0  0
  5 14  1  0  0  0  0
  5  6  1  0  0  0  0
  6  1  1  0  0  0  0
  6 26  1  0  0  0  0
  6 16  1  1  0  0  0
  8  2  1  0  0  0  0
 10  3  1  0  0  0  0
 12  4  1  0  0  0  0
 13  4  1  0  0  0  0
 15  5  1  0  0  0  0
 17 22  1  0  0  0  0
 18 17  2  0  0  0  0
 19 18  1  0  0  0  0
 19 20  2  0  0  0  0
 20 21  1  0  0  0  0
 21 22  2  0  0  0  0
 21 25  1  0  0  0  0
 23 17  1  0  0  0  0
 24 18  1  0  0  0  0
 26 27  1  0  0  0  0
 27 28  2  0  0  0  0
 27 32  1  0  0  0  0
 28 33  1  0  0  0  0
 29 34  1  0  0  0  0
 29 28  1  0  0  0  0
 30 29  2  0  0  0  0
 31 30  1  0  0  0  0
 31 26  2  0  0  0  0
 35 36  1  0  0  0  0
 35 44  1  0  0  0  0
 36 30  1  0  0  0  0
 37 38  1  0  0  0  0
 37 36  2  0  0  0  0
 39 37  1  0  0  0  0
 40 39  1  0  0  0  0
 41 39  2  0  0  0  0
 41 42  1  0  0  0  0
 42 35  2  0  0  0  0
 44 43  1  0  0  0  0
 44 46  2  0  0  0  0
 45 44  2  0  0  0  0
M  END
>  <minimizedAffinity>
-5.63994026

>  <minimizedRMSD>
1.77255201

$$$$
