
 OpenBabel03252506563D

 41 45  0  0  0  0  0  0  0  0999 V2000
   46.9620   31.2980   45.1050 C   0  0  0  0  0  0  0  0  0  0  0  0
   46.7590   32.6690   45.1740 C   0  0  0  0  0  0  0  0  0  0  0  0
   46.2770   33.3000   46.2990 C   0  0  0  0  0  0  0  0  0  0  0  0
   45.9710   32.5540   47.4340 C   0  0  0  0  0  0  0  0  0  0  0  0
   45.4930   32.8210   48.6810 N   0  0  0  0  0  0  0  0  0  0  0  0
   45.4040   31.6540   49.3580 C   0  0  0  0  0  0  0  0  0  0  0  0
   45.8280   30.6750   48.5260 N   0  0  0  0  0  0  0  0  0  0  0  0
   46.1800   31.2010   47.3420 C   0  0  0  0  0  0  0  0  0  0  0  0
   46.6600   30.5440   46.2310 C   0  0  0  0  0  0  0  0  0  0  0  0
   47.3450   30.8290   44.1980 H   0  0  0  0  0  0  0  0  0  0  0  0
   46.1120   34.3690   46.3700 H   0  0  0  0  0  0  0  0  0  0  0  0
   45.2750   33.8090   48.9300 H   0  0  0  0  0  0  0  0  0  0  0  0
   45.0480   31.6110   50.3760 H   0  0  0  0  0  0  0  0  0  0  0  0
   46.4830   35.1870   42.5130 C   0  0  0  0  0  0  0  0  0  0  0  0
   47.6640   35.0020   41.7940 C   0  0  0  0  0  0  0  0  0  0  0  0
   48.5490   34.0190   42.2180 C   0  0  0  0  0  0  0  0  0  0  0  0
   48.2330   33.2690   43.3240 N   0  0  0  0  0  0  0  0  0  0  0  0
   47.0710   33.4850   43.9950 C   0  0  0  0  0  0  0  0  0  0  0  0
   46.1920   34.4400   43.5970 N   0  0  0  0  0  0  0  0  0  0  0  0
   45.8160   35.9590   42.1580 H   0  0  0  0  0  0  0  0  0  0  0  0
   47.9480   35.5720   40.9180 H   0  0  0  0  0  0  0  0  0  0  0  0
   49.4890   33.7890   41.7400 H   0  0  0  0  0  0  0  0  0  0  0  0
   46.8440   29.0960   46.2460 C   0  0  0  0  0  0  0  0  0  0  0  0
   48.0480   28.4550   46.4770 C   0  0  0  0  0  0  0  0  0  0  0  0
   47.7550   27.0970   46.3970 C   0  0  0  0  0  0  0  0  0  0  0  0
   46.4100   26.9870   46.1250 C   0  0  0  0  0  0  0  0  0  0  0  0
   45.9210   28.2050   46.0460 O   0  0  0  0  0  0  0  0  0  0  0  0
   48.9870   28.9290   46.6730 H   0  0  0  0  0  0  0  0  0  0  0  0
   48.4690   26.2740   46.5270 H   0  0  0  0  0  0  0  0  0  0  0  0
   44.9740   25.2100   47.0270 C   0  0  0  0  0  0  0  0  0  0  0  0
   45.6560   25.7480   45.9540 C   0  0  0  0  0  0  0  0  0  0  0  0
   45.6370   25.1310   44.7200 C   0  0  0  0  0  0  0  0  0  0  0  0
   46.1750   25.5500   43.8590 H   0  0  0  0  0  0  0  0  0  0  0  0
   44.9480   23.9650   44.4890 C   0  0  0  0  0  0  0  0  0  0  0  0
   44.9150   23.4600   43.5330 H   0  0  0  0  0  0  0  0  0  0  0  0
   44.2570   23.4180   45.5740 C   0  0  0  0  0  3  0  0  0  0  0  0
   44.2820   24.0380   46.7970 C   0  0  0  0  0  3  0  0  0  0  0  0
   45.4250   27.2630   48.5690 H   0  0  0  0  0  0  0  0  0  0  0  0
   44.9840   25.9730   48.6020 S   0  0  0  0  0  0  0  0  0  0  0  0
   43.5560   25.9810   49.1190 O   0  0  0  0  0  0  0  0  0  0  0  0
   45.7790   25.1210   49.5800 O   0  0  0  0  0  0  0  0  0  0  0  0
  1  2  2  0  0  0  0
  1  9  1  0  0  0  0
  2  3  1  0  0  0  0
  3 11  1  0  0  0  0
  3  4  2  0  0  0  0
  4  5  1  0  0  0  0
  5 12  1  0  0  0  0
  5  6  1  0  0  0  0
  6 13  1  0  0  0  0
  7  6  2  0  0  0  0
  8  4  1  0  0  0  0
  8  7  1  0  0  0  0
  9 23  1  0  0  0  0
  9  8  2  0  0  0  0
 10  1  1  0  0  0  0
 14 19  1  0  0  0  0
 15 16  1  0  0  0  0
 15 14  2  0  0  0  0
 16 17  2  0  0  0  0
 17 18  1  0  0  0  0
 18  2  1  0  0  0  0
 19 18  2  0  0  0  0
 20 14  1  0  0  0  0
 21 15  1  0  0  0  0
 22 16  1  0  0  0  0
 23 24  2  0  0  0  0
 24 28  1  0  0  0  0
 25 24  1  0  0  0  0
 25 29  1  0  0  0  0
 26 25  2  0  0  0  0
 27 26  1  0  0  0  0
 27 23  1  0  0  0  0
 30 39  1  0  0  0  0
 31 26  1  0  0  0  0
 31 30  2  0  0  0  0
 32 31  1  0  0  0  0
 33 32  1  0  0  0  0
 34 32  2  0  0  0  0
 34 36  1  0  0  0  0
 35 34  1  0  0  0  0
 36 37  2  0  0  0  0
 37 30  1  0  0  0  0
 38 39  1  0  0  0  0
 39 40  2  0  0  0  0
 39 41  2  0  0  0  0
M  END
>  <minimizedAffinity>
-5.74912024

>  <minimizedRMSD>
1.75729978

$$$$
