
 OpenBabel03252506563D

 41 45  0  0  0  0  0  0  0  0999 V2000
   47.0810   31.3110   45.1210 C   0  0  0  0  0  0  0  0  0  0  0  0
   46.8120   32.6710   45.1780 C   0  0  0  0  0  0  0  0  0  0  0  0
   46.2810   33.2850   46.2900 C   0  0  0  0  0  0  0  0  0  0  0  0
   45.9910   32.5320   47.4240 C   0  0  0  0  0  0  0  0  0  0  0  0
   45.4780   32.7830   48.6610 N   0  0  0  0  0  0  0  0  0  0  0  0
   45.4330   31.6170   49.3440 C   0  0  0  0  0  0  0  0  0  0  0  0
   45.9170   30.6550   48.5260 N   0  0  0  0  0  0  0  0  0  0  0  0
   46.2650   31.1900   47.3450 C   0  0  0  0  0  0  0  0  0  0  0  0
   46.7950   30.5500   46.2470 C   0  0  0  0  0  0  0  0  0  0  0  0
   47.5020   30.8550   44.2240 H   0  0  0  0  0  0  0  0  0  0  0  0
   46.0650   34.3450   46.3510 H   0  0  0  0  0  0  0  0  0  0  0  0
   45.2100   33.7610   48.8990 H   0  0  0  0  0  0  0  0  0  0  0  0
   45.0620   31.5630   50.3560 H   0  0  0  0  0  0  0  0  0  0  0  0
   46.4870   35.1920   42.5250 C   0  0  0  0  0  0  0  0  0  0  0  0
   47.6660   35.0240   41.7980 C   0  0  0  0  0  0  0  0  0  0  0  0
   48.5660   34.0520   42.2140 C   0  0  0  0  0  0  0  0  0  0  0  0
   48.2670   33.2950   43.3200 N   0  0  0  0  0  0  0  0  0  0  0  0
   47.1060   33.4940   43.9980 C   0  0  0  0  0  0  0  0  0  0  0  0
   46.2130   34.4390   43.6090 N   0  0  0  0  0  0  0  0  0  0  0  0
   45.8080   35.9570   42.1760 H   0  0  0  0  0  0  0  0  0  0  0  0
   47.9360   35.6000   40.9220 H   0  0  0  0  0  0  0  0  0  0  0  0
   49.5050   33.8340   41.7290 H   0  0  0  0  0  0  0  0  0  0  0  0
   47.0470   29.1120   46.2740 C   0  0  0  0  0  0  0  0  0  0  0  0
   47.5810   28.3840   45.2260 C   0  0  0  0  0  0  0  0  0  0  0  0
   47.6410   27.0730   45.6910 C   0  0  0  0  0  0  0  0  0  0  0  0
   47.1480   27.0750   46.9760 C   0  0  0  0  0  0  0  0  0  0  0  0
   46.8100   28.3130   47.2690 O   0  0  0  0  0  0  0  0  0  0  0  0
   47.8750   28.7730   44.2740 H   0  0  0  0  0  0  0  0  0  0  0  0
   48.0130   26.2060   45.1310 H   0  0  0  0  0  0  0  0  0  0  0  0
   48.0530   25.5980   48.7170 C   0  0  0  0  0  0  0  0  0  0  0  0
   47.0190   25.9200   47.8600 C   0  0  0  0  0  0  0  0  0  0  0  0
   45.8650   25.1650   47.8250 C   0  0  0  0  0  0  0  0  0  0  0  0
   45.0370   25.4130   47.1470 H   0  0  0  0  0  0  0  0  0  0  0  0
   45.6770   24.0650   48.6280 C   0  0  0  0  0  0  0  0  0  0  0  0
   44.7850   23.4550   48.6220 H   0  0  0  0  0  0  0  0  0  0  0  0
   46.7220   23.7380   49.4970 C   0  0  0  0  0  3  0  0  0  0  0  0
   47.8670   24.4940   49.5230 C   0  0  0  0  0  3  0  0  0  0  0  0
   49.3050   27.8830   48.7430 H   0  0  0  0  0  0  0  0  0  0  0  0
   49.5270   26.5390   48.7790 S   0  0  0  0  0  0  0  0  0  0  0  0
   50.2240   26.2160   50.0880 O   0  0  0  0  0  0  0  0  0  0  0  0
   50.4720   26.0850   47.6780 O   0  0  0  0  0  0  0  0  0  0  0  0
  1  2  2  0  0  0  0
  1  9  1  0  0  0  0
  2  3  1  0  0  0  0
  3 11  1  0  0  0  0
  3  4  2  0  0  0  0
  4  5  1  0  0  0  0
  5 12  1  0  0  0  0
  5  6  1  0  0  0  0
  6 13  1  0  0  0  0
  7  6  2  0  0  0  0
  8  4  1  0  0  0  0
  8  7  1  0  0  0  0
  9 23  1  0  0  0  0
  9  8  2  0  0  0  0
 10  1  1  0  0  0  0
 14 19  1  0  0  0  0
 15 16  1  0  0  0  0
 15 14  2  0  0  0  0
 16 17  2  0  0  0  0
 17 18  1  0  0  0  0
 18  2  1  0  0  0  0
 19 18  2  0  0  0  0
 20 14  1  0  0  0  0
 21 15  1  0  0  0  0
 22 16  1  0  0  0  0
 23 27  1  0  0  0  0
 24 25  1  0  0  0  0
 24 23  2  0  0  0  0
 25 26  2  0  0  0  0
 26 27  1  0  0  0  0
 26 31  1  0  0  0  0
 28 24  1  0  0  0  0
 29 25  1  0  0  0  0
 30 39  1  0  0  0  0
 30 37  1  0  0  0  0
 31 30  2  0  0  0  0
 32 31  1  0  0  0  0
 32 34  2  0  0  0  0
 33 32  1  0  0  0  0
 34 36  1  0  0  0  0
 35 34  1  0  0  0  0
 36 37  2  0  0  0  0
 38 39  1  0  0  0  0
 39 40  2  0  0  0  0
 41 39  2  0  0  0  0
M  END
>  <minimizedAffinity>
-5.93003368

>  <minimizedRMSD>
1.54912865

$$$$
