
 OpenBabel03252506563D

 41 45  0  0  0  0  0  0  0  0999 V2000
   47.1030   31.2920   45.1040 C   0  0  0  0  0  0  0  0  0  0  0  0
   46.8620   32.6580   45.1180 C   0  0  0  0  0  0  0  0  0  0  0  0
   46.3330   33.3160   46.2060 C   0  0  0  0  0  0  0  0  0  0  0  0
   46.0180   32.6020   47.3590 C   0  0  0  0  0  0  0  0  0  0  0  0
   45.5000   32.9000   48.5830 N   0  0  0  0  0  0  0  0  0  0  0  0
   45.4250   31.7560   49.3000 C   0  0  0  0  0  0  0  0  0  0  0  0
   45.8960   30.7600   48.5160 N   0  0  0  0  0  0  0  0  0  0  0  0
   46.2650   31.2540   47.3220 C   0  0  0  0  0  0  0  0  0  0  0  0
   46.7920   30.5700   46.2490 C   0  0  0  0  0  0  0  0  0  0  0  0
   47.5230   30.8020   44.2240 H   0  0  0  0  0  0  0  0  0  0  0  0
   46.1380   34.3810   46.2340 H   0  0  0  0  0  0  0  0  0  0  0  0
   45.2500   33.8900   48.7900 H   0  0  0  0  0  0  0  0  0  0  0  0
   45.0430   31.7400   50.3090 H   0  0  0  0  0  0  0  0  0  0  0  0
   46.6310   35.1330   42.4120 C   0  0  0  0  0  0  0  0  0  0  0  0
   47.7930   34.8920   41.6770 C   0  0  0  0  0  0  0  0  0  0  0  0
   48.6500   33.8870   42.1080 C   0  0  0  0  0  0  0  0  0  0  0  0
   48.3260   33.1700   43.2330 N   0  0  0  0  0  0  0  0  0  0  0  0
   47.1830   33.4400   43.9170 C   0  0  0  0  0  0  0  0  0  0  0  0
   46.3320   34.4170   43.5150 N   0  0  0  0  0  0  0  0  0  0  0  0
   45.9860   35.9210   42.0520 H   0  0  0  0  0  0  0  0  0  0  0  0
   48.0820   35.4340   40.7870 H   0  0  0  0  0  0  0  0  0  0  0  0
   49.5730   33.6140   41.6200 H   0  0  0  0  0  0  0  0  0  0  0  0
   47.0140   29.1290   46.3210 C   0  0  0  0  0  0  0  0  0  0  0  0
   47.5060   28.3540   45.2870 C   0  0  0  0  0  0  0  0  0  0  0  0
   47.5510   27.0590   45.7960 C   0  0  0  0  0  0  0  0  0  0  0  0
   47.0900   27.1170   47.0920 C   0  0  0  0  0  0  0  0  0  0  0  0
   46.7860   28.3700   47.3490 O   0  0  0  0  0  0  0  0  0  0  0  0
   47.7850   28.7030   44.3140 H   0  0  0  0  0  0  0  0  0  0  0  0
   47.8910   26.1650   45.2580 H   0  0  0  0  0  0  0  0  0  0  0  0
   45.7140   25.4600   48.2710 C   0  0  0  0  0  0  0  0  0  0  0  0
   46.9600   25.9960   48.0190 C   0  0  0  0  0  0  0  0  0  0  0  0
   48.0880   25.4870   48.6290 C   0  0  0  0  0  0  0  0  0  0  0  0
   49.0860   25.9060   48.4360 H   0  0  0  0  0  0  0  0  0  0  0  0
   48.0390   24.4350   49.5120 C   0  0  0  0  0  0  0  0  0  0  0  0
   48.9050   24.0160   50.0050 H   0  0  0  0  0  0  0  0  0  0  0  0
   46.7770   23.8900   49.7690 C   0  0  0  0  0  0  0  0  0  0  0  0
   45.6620   24.4030   49.1570 C   0  0  0  0  0  0  0  0  0  0  0  0
   44.3220   27.4310   47.2860 H   0  0  0  0  0  0  0  0  0  0  0  0
   44.2690   26.0880   47.5090 S   0  0  0  0  0  0  0  0  0  0  0  0
   44.1210   25.3980   46.1640 O   0  0  0  0  0  0  0  0  0  0  0  0
   43.0460   25.6890   48.3200 O   0  0  0  0  0  0  0  0  0  0  0  0
  1  2  2  0  0  0  0
  1  9  1  0  0  0  0
  2  3  1  0  0  0  0
  3 11  1  0  0  0  0
  3  4  2  0  0  0  0
  4  5  1  0  0  0  0
  5 12  1  0  0  0  0
  5  6  1  0  0  0  0
  6 13  1  0  0  0  0
  7  6  2  0  0  0  0
  8  4  1  0  0  0  0
  8  7  1  0  0  0  0
  9 23  1  0  0  0  0
  9  8  2  0  0  0  0
 10  1  1  0  0  0  0
 14 19  1  0  0  0  0
 15 16  1  0  0  0  0
 15 14  2  0  0  0  0
 16 17  2  0  0  0  0
 17 18  1  0  0  0  0
 18  2  1  0  0  0  0
 19 18  2  0  0  0  0
 20 14  1  0  0  0  0
 21 15  1  0  0  0  0
 22 16  1  0  0  0  0
 23 27  1  0  0  0  0
 24 25  1  0  0  0  0
 24 23  2  0  0  0  0
 25 26  2  0  0  0  0
 26 27  1  0  0  0  0
 26 31  1  0  0  0  0
 28 24  1  0  0  0  0
 29 25  1  0  0  0  0
 30 37  1  0  0  0  0
 31 30  2  0  0  0  0
 31 32  1  0  0  0  0
 32 34  2  0  0  0  0
 33 32  1  0  0  0  0
 34 36  1  0  0  0  0
 34 35  1  0  0  0  0
 37 36  2  0  0  0  0
 38 39  1  0  0  0  0
 39 30  1  0  0  0  0
 39 41  2  0  0  0  0
 40 39  2  0  0  0  0
M  END
>  <minimizedAffinity>
-6.14876032

>  <minimizedRMSD>
1.59706604

$$$$
