
 OpenBabel03242513143D

 33 35  0  0  0  0  0  0  0  0999 V2000
   44.7200   30.2420   47.7360 Cl  0  0  0  0  0  0  0  0  0  0  0  0
   46.1920   29.5870   46.9990 C   0  0  0  0  0  0  0  0  0  0  0  0
   47.2260   30.4110   46.7280 C   0  0  0  0  0  0  0  0  0  0  0  0
   48.3430   29.8410   46.1800 C   0  0  0  0  0  0  0  0  0  0  0  0
   48.4240   28.5030   45.9110 C   0  0  0  0  0  0  0  0  0  0  0  0
   47.3560   27.6630   46.1930 C   0  0  0  0  0  0  0  0  0  0  0  0
   46.2280   28.2320   46.7460 C   0  0  0  0  0  0  0  0  0  0  0  0
   49.2640   30.3100   45.9100 H   0  0  0  0  0  0  0  0  0  0  0  0
   49.2660   27.9560   45.4770 H   0  0  0  0  0  0  0  0  0  0  0  0
   47.3310   26.6020   46.0140 H   0  0  0  0  0  0  0  0  0  0  0  0
   44.0820   27.0730   46.1840 C   0  0  0  0  0  0  0  0  0  0  0  0
   45.0740   27.3900   47.0610 C   0  0  0  0  0  0  0  0  0  0  0  0
   45.0090   26.8880   48.3530 C   0  0  0  0  0  0  0  0  0  0  0  0
   45.7720   27.1070   49.0950 H   0  0  0  0  0  0  0  0  0  0  0  0
   43.9730   26.0830   48.7730 C   0  0  0  0  0  0  0  0  0  0  0  0
   43.9430   25.7030   49.7850 H   0  0  0  0  0  0  0  0  0  0  0  0
   42.9720   25.7760   47.8550 C   0  0  0  0  0  0  0  0  0  0  0  0
   43.0270   26.2740   46.5540 C   0  0  0  0  0  0  0  0  0  0  0  0
   43.0560   27.1930   43.9020 H   0  0  0  0  0  0  0  0  0  0  0  0
   44.1590   27.7000   44.5640 S   0  0  0  0  0  0  0  0  0  0  0  0
   44.0620   29.2050   44.6500 O   0  0  0  0  0  0  0  0  0  0  0  0
   45.3710   27.2240   43.8590 O   0  0  0  0  0  0  0  0  0  0  0  0
   47.1220   31.8320   46.9920 C   0  0  0  0  0  0  0  0  0  0  0  0
   47.5040   32.2130   48.1370 O   0  0  0  0  0  0  0  0  0  0  0  0
   45.1000   34.4270   45.4730 C   0  0  0  0  0  0  0  0  0  0  0  0
   45.5920   34.5780   44.1830 C   0  0  0  0  0  0  0  0  0  0  0  0
   46.6600   33.7410   43.8530 C   0  0  0  0  0  0  0  0  0  0  0  0
   47.1340   32.8590   44.7880 N   0  0  0  0  0  0  0  0  0  0  0  0
   46.6160   32.7620   46.0150 C   0  0  0  0  0  0  0  0  0  0  0  0
   45.5990   33.5520   46.3460 N   0  0  0  0  0  0  0  0  0  0  0  0
   44.2620   35.0910   45.7190 H   0  0  0  0  0  0  0  0  0  0  0  0
   45.2390   35.2600   43.4360 H   0  0  0  0  0  0  0  0  0  0  0  0
   47.1490   33.7390   42.8930 H   0  0  0  0  0  0  0  0  0  0  0  0
  2  1  1  0  0  0  0
  3 23  1  0  0  0  0
  3  2  2  0  0  0  0
  4  3  1  0  0  0  0
  5  4  2  0  0  0  0
  5  6  1  0  0  0  0
  6  7  2  0  0  0  0
  7  2  1  0  0  0  0
  7 12  1  0  0  0  0
  8  4  1  0  0  0  0
  9  5  1  0  0  0  0
 10  6  1  0  0  0  0
 11 18  2  0  0  0  0
 11 12  1  0  0  0  0
 12 13  2  0  0  0  0
 13 15  1  0  0  0  0
 13 14  1  0  0  0  0
 15 16  1  0  0  0  0
 17 15  2  0  0  0  0
 18 17  1  0  0  0  0
 19 20  1  0  0  0  0
 20 21  2  0  0  0  0
 20 11  1  0  0  0  0
 22 20  2  0  0  0  0
 23 24  2  0  0  0  0
 25 31  1  0  0  0  0
 25 30  1  0  0  0  0
 26 25  2  0  0  0  0
 27 26  1  0  0  0  0
 27 28  2  0  0  0  0
 28 29  1  0  0  0  0
 29 30  2  0  0  0  0
 29 23  1  0  0  0  0
 32 26  1  0  0  0  0
 33 27  1  0  0  0  0
M  END
>  <minimizedAffinity>
-4.8472333

>  <minimizedRMSD>
2.44000816

$$$$
