
 OpenBabel03242516493D

 46 49  0  0  1  0  0  0  0  0999 V2000
   47.8680   32.9440   41.8780 C   0  0  1  0  0  0  0  0  0  0  0  0
   47.6420   32.1000   40.6880 C   0  0  0  0  0  0  0  0  0  0  0  0
   48.6650   32.5580   39.6520 C   0  0  0  0  0  0  0  0  0  0  0  0
   48.2150   33.9500   39.2130 C   0  0  0  0  0  0  0  0  0  0  0  0
   48.0210   34.9090   40.3180 C   0  0  0  0  0  0  0  0  0  0  0  0
   47.5590   34.4060   41.6240 C   0  0  1  0  0  0  0  0  0  0  0  0
   48.9780   32.9530   42.1030 H   0  0  0  0  0  0  0  0  0  0  0  0
   46.6400   32.1510   40.2550 H   0  0  0  0  0  0  0  0  0  0  0  0
   47.8580   31.0380   40.9910 H   0  0  0  0  0  0  0  0  0  0  0  0
   48.5700   31.8930   38.7840 H   0  0  0  0  0  0  0  0  0  0  0  0
   49.6770   32.5980   40.0850 H   0  0  0  0  0  0  0  0  0  0  0  0
   49.0210   34.3180   38.5340 H   0  0  0  0  0  0  0  0  0  0  0  0
   47.3410   33.7730   38.5650 H   0  0  0  0  0  0  0  0  0  0  0  0
   48.9540   35.5100   40.4350 H   0  0  0  0  0  0  0  0  0  0  0  0
   47.2670   35.6740   39.9650 H   0  0  0  0  0  0  0  0  0  0  0  0
   48.0820   34.9630   42.4360 H   0  0  0  0  0  0  0  0  0  0  0  0
   45.6580   30.9850   44.2330 C   0  0  0  0  0  0  0  0  0  0  0  0
   46.3120   31.4480   43.0950 C   0  0  0  0  0  0  0  0  0  0  0  0
   47.2210   32.4950   43.1050 C   0  0  0  0  0  0  0  0  0  0  0  0
   47.4440   33.0570   44.3050 N   0  0  0  0  0  0  0  0  0  0  0  0
   46.8180   32.6210   45.4250 C   0  0  0  0  0  0  0  0  0  0  0  0
   45.9430   31.6090   45.4000 N   0  0  0  0  0  0  0  0  0  0  0  0
   44.9630   30.1560   44.1120 H   0  0  0  0  0  0  0  0  0  0  0  0
   46.1110   30.9720   42.1340 H   0  0  0  0  0  0  0  0  0  0  0  0
   46.9970   33.0750   46.3960 H   0  0  0  0  0  0  0  0  0  0  0  0
   46.1220   34.6880   41.8550 C   0  0  0  0  0  0  0  0  0  0  0  0
   45.5940   35.5460   42.8240 C   0  0  0  0  0  0  0  0  0  0  0  0
   44.2020   35.6580   42.8220 C   0  0  0  0  0  0  0  0  0  0  0  0
   43.4830   34.9410   41.9030 C   0  0  0  0  0  0  0  0  0  0  0  0
   44.0050   34.1050   40.9630 C   0  0  0  0  0  0  0  0  0  0  0  0
   45.3580   33.9980   40.9640 N   0  0  0  0  0  0  0  0  0  0  0  0
   46.2980   36.0140   43.4460 H   0  0  0  0  0  0  0  0  0  0  0  0
   43.8060   36.3210   43.5710 H   0  0  0  0  0  0  0  0  0  0  0  0
   42.4420   35.1510   41.9990 H   0  0  0  0  0  0  0  0  0  0  0  0
   42.2740   33.8400   39.0980 C   0  0  0  0  0  0  0  0  0  0  0  0
   43.2420   33.3850   39.9500 C   0  0  0  0  0  0  0  0  0  0  0  0
   43.5150   32.0280   39.8690 C   0  0  0  0  0  0  0  0  0  0  0  0
   44.2660   31.5670   40.4920 H   0  0  0  0  0  0  0  0  0  0  0  0
   42.9060   31.1420   39.0220 C   0  0  0  0  0  0  0  0  0  0  0  0
   43.1400   30.0890   38.9820 H   0  0  0  0  0  0  0  0  0  0  0  0
   41.9320   31.5960   38.1600 C   0  0  0  0  0  3  0  0  0  0  0  0
   41.6450   32.9410   38.2270 C   0  0  0  0  0  3  0  0  0  0  0  0
   42.8190   36.3460   39.4480 H   0  0  0  0  0  0  0  0  0  0  0  0
   41.7970   35.4880   39.1630 S   0  0  0  0  0  0  0  0  0  0  0  0
   40.5360   35.7500   39.9340 O   0  0  0  0  0  0  0  0  0  0  0  0
   41.4160   35.8660   37.7160 O   0  0  0  0  0  0  0  0  0  0  0  0
  1  7  1  1  0  0  0
  1 19  1  0  0  0  0
  2  9  1  0  0  0  0
  2  1  1  0  0  0  0
  3 11  1  0  0  0  0
  3  2  1  0  0  0  0
  4  3  1  0  0  0  0
  4  5  1  0  0  0  0
  5 14  1  0  0  0  0
  5  6  1  0  0  0  0
  6 26  1  0  0  0  0
  6  1  1  0  0  0  0
  6 16  1  1  0  0  0
  8  2  1  0  0  0  0
 10  3  1  0  0  0  0
 12  4  1  0  0  0  0
 13  4  1  0  0  0  0
 15  5  1  0  0  0  0
 17 22  1  0  0  0  0
 18 19  1  0  0  0  0
 18 17  2  0  0  0  0
 19 20  2  0  0  0  0
 20 21  1  0  0  0  0
 21 25  1  0  0  0  0
 22 21  2  0  0  0  0
 23 17  1  0  0  0  0
 24 18  1  0  0  0  0
 26 27  1  0  0  0  0
 27 32  1  0  0  0  0
 28 27  2  0  0  0  0
 28 33  1  0  0  0  0
 29 34  1  0  0  0  0
 29 28  1  0  0  0  0
 30 31  1  0  0  0  0
 30 29  2  0  0  0  0
 31 26  2  0  0  0  0
 35 44  1  0  0  0  0
 35 36  1  0  0  0  0
 36 30  1  0  0  0  0
 37 36  2  0  0  0  0
 37 38  1  0  0  0  0
 39 37  1  0  0  0  0
 40 39  1  0  0  0  0
 41 42  1  0  0  0  0
 41 39  2  0  0  0  0
 42 35  2  0  0  0  0
 44 43  1  0  0  0  0
 44 45  2  0  0  0  0
 46 44  2  0  0  0  0
M  END
>  <minimizedAffinity>
-5.57443142

>  <minimizedRMSD>
1.17882288

$$$$
