
 OpenBabel03242516493D

 46 49  0  0  1  0  0  0  0  0999 V2000
   47.9170   32.8160   41.8250 C   0  0  1  0  0  0  0  0  0  0  0  0
   47.6870   31.8710   40.7130 C   0  0  0  0  0  0  0  0  0  0  0  0
   48.7340   32.2070   39.6560 C   0  0  0  0  0  0  0  0  0  0  0  0
   48.3240   33.5640   39.0840 C   0  0  0  0  0  0  0  0  0  0  0  0
   48.1390   34.6240   40.0930 C   0  0  0  0  0  0  0  0  0  0  0  0
   47.6470   34.2540   41.4320 C   0  0  1  0  0  0  0  0  0  0  0  0
   49.0230   32.8190   42.0650 H   0  0  0  0  0  0  0  0  0  0  0  0
   46.6920   31.9050   40.2620 H   0  0  0  0  0  0  0  0  0  0  0  0
   47.8730   30.8360   41.1160 H   0  0  0  0  0  0  0  0  0  0  0  0
   48.6350   31.4680   38.8510 H   0  0  0  0  0  0  0  0  0  0  0  0
   49.7410   32.2640   40.1000 H   0  0  0  0  0  0  0  0  0  0  0  0
   49.1490   33.8480   38.3870 H   0  0  0  0  0  0  0  0  0  0  0  0
   47.4550   33.3480   38.4410 H   0  0  0  0  0  0  0  0  0  0  0  0
   49.0840   35.2120   40.1690 H   0  0  0  0  0  0  0  0  0  0  0  0
   47.4090   35.3710   39.6600 H   0  0  0  0  0  0  0  0  0  0  0  0
   48.1720   34.8710   42.1980 H   0  0  0  0  0  0  0  0  0  0  0  0
   45.6580   31.1060   44.3240 C   0  0  0  0  0  0  0  0  0  0  0  0
   46.3380   31.4490   43.1580 C   0  0  0  0  0  0  0  0  0  0  0  0
   47.2430   32.4960   43.0770 C   0  0  0  0  0  0  0  0  0  0  0  0
   47.4350   33.1850   44.2150 N   0  0  0  0  0  0  0  0  0  0  0  0
   46.7840   32.8670   45.3600 C   0  0  0  0  0  0  0  0  0  0  0  0
   45.9130   31.8540   45.4240 N   0  0  0  0  0  0  0  0  0  0  0  0
   44.9700   30.2650   44.2770 H   0  0  0  0  0  0  0  0  0  0  0  0
   46.1610   30.8720   42.2490 H   0  0  0  0  0  0  0  0  0  0  0  0
   46.9390   33.4240   46.2810 H   0  0  0  0  0  0  0  0  0  0  0  0
   46.2140   34.5900   41.6140 C   0  0  0  0  0  0  0  0  0  0  0  0
   45.6960   35.5650   42.4700 C   0  0  0  0  0  0  0  0  0  0  0  0
   44.3060   35.7030   42.4410 C   0  0  0  0  0  0  0  0  0  0  0  0
   43.5810   34.8980   41.6050 C   0  0  0  0  0  0  0  0  0  0  0  0
   44.0930   33.9470   40.7740 C   0  0  0  0  0  0  0  0  0  0  0  0
   45.4430   33.8150   40.8020 N   0  0  0  0  0  0  0  0  0  0  0  0
   46.4050   36.0890   43.0420 H   0  0  0  0  0  0  0  0  0  0  0  0
   43.9180   36.4560   43.1040 H   0  0  0  0  0  0  0  0  0  0  0  0
   42.5430   35.1380   41.6650 H   0  0  0  0  0  0  0  0  0  0  0  0
   43.6840   32.6110   38.6330 C   0  0  0  0  0  0  0  0  0  0  0  0
   43.3230   33.1290   39.8450 C   0  0  0  0  0  0  0  0  0  0  0  0
   42.0180   32.8730   40.2350 C   0  0  0  0  0  0  0  0  0  0  0  0
   41.6310   33.2310   41.1770 H   0  0  0  0  0  0  0  0  0  0  0  0
   41.0970   32.1600   39.5150 C   0  0  0  0  0  0  0  0  0  0  0  0
   40.0850   31.9770   39.8480 H   0  0  0  0  0  0  0  0  0  0  0  0
   41.4560   31.6330   38.2960 C   0  0  0  0  0  3  0  0  0  0  0  0
   42.7490   31.8780   37.8900 C   0  0  0  0  0  3  0  0  0  0  0  0
   46.1190   33.4370   38.9350 H   0  0  0  0  0  0  0  0  0  0  0  0
   45.2520   32.9280   38.0110 S   0  0  0  0  0  0  0  0  0  0  0  0
   45.2760   33.6340   36.6860 O   0  0  0  0  0  0  0  0  0  0  0  0
   45.8590   31.5450   37.6900 O   0  0  0  0  0  0  0  0  0  0  0  0
  1  7  1  1  0  0  0
  1 19  1  0  0  0  0
  2  9  1  0  0  0  0
  2  1  1  0  0  0  0
  3 11  1  0  0  0  0
  3  2  1  0  0  0  0
  4  3  1  0  0  0  0
  4  5  1  0  0  0  0
  5 14  1  0  0  0  0
  5  6  1  0  0  0  0
  6 26  1  0  0  0  0
  6  1  1  0  0  0  0
  6 16  1  1  0  0  0
  8  2  1  0  0  0  0
 10  3  1  0  0  0  0
 12  4  1  0  0  0  0
 13  4  1  0  0  0  0
 15  5  1  0  0  0  0
 17 22  1  0  0  0  0
 18 17  2  0  0  0  0
 19 18  1  0  0  0  0
 19 20  2  0  0  0  0
 20 21  1  0  0  0  0
 21 22  2  0  0  0  0
 21 25  1  0  0  0  0
 23 17  1  0  0  0  0
 24 18  1  0  0  0  0
 26 27  1  0  0  0  0
 27 32  1  0  0  0  0
 28 27  2  0  0  0  0
 28 33  1  0  0  0  0
 29 34  1  0  0  0  0
 29 28  1  0  0  0  0
 30 31  1  0  0  0  0
 30 29  2  0  0  0  0
 31 26  2  0  0  0  0
 35 36  1  0  0  0  0
 36 37  2  0  0  0  0
 36 30  1  0  0  0  0
 37 38  1  0  0  0  0
 39 40  1  0  0  0  0
 39 37  1  0  0  0  0
 41 39  2  0  0  0  0
 42 41  1  0  0  0  0
 42 35  2  0  0  0  0
 44 35  1  0  0  0  0
 44 43  1  0  0  0  0
 45 44  2  0  0  0  0
 46 44  2  0  0  0  0
M  END
>  <minimizedAffinity>
-5.17083979

>  <minimizedRMSD>
1.29228973

$$$$
