
 OpenBabel03252504053D

 22 23  0  0  0  0  0  0  0  0999 V2000
   46.1970   34.0730   40.9820 C   0  0  0  0  0  0  0  0  0  0  0  0
   46.6520   34.6880   42.1350 C   0  0  0  0  0  0  0  0  0  0  0  0
   47.8770   35.3000   42.2150 C   0  0  0  0  0  0  0  0  0  0  0  0
   48.3260   35.8070   43.0510 H   0  0  0  0  0  0  0  0  0  0  0  0
   48.7050   35.3100   41.0930 C   0  0  0  0  0  0  0  0  0  0  0  0
   49.7000   35.7770   41.0520 H   0  0  0  0  0  0  0  0  0  0  0  0
   48.2580   34.6950   39.9240 C   0  0  0  0  0  0  0  0  0  0  0  0
   47.0270   34.0940   39.8870 C   0  0  0  0  0  0  0  0  0  0  0  0
   44.4600   35.7580   45.0070 C   0  0  0  0  0  0  0  0  0  0  0  0
   45.0460   35.7700   43.7390 C   0  0  0  0  0  0  0  0  0  0  0  0
   45.9750   34.7690   43.4410 C   0  0  0  0  0  0  0  0  0  0  0  0
   46.2700   33.8280   44.3910 N   0  0  0  0  0  0  0  0  0  0  0  0
   45.6860   33.8460   45.6090 C   0  0  0  0  0  0  0  0  0  0  0  0
   44.7850   34.8040   45.9110 N   0  0  0  0  0  0  0  0  0  0  0  0
   43.7550   36.5760   45.1290 H   0  0  0  0  0  0  0  0  0  0  0  0
   45.8650   33.1340   46.4070 H   0  0  0  0  0  0  0  0  0  0  0  0
   44.7590   36.7110   42.7630 O   0  0  0  0  0  0  0  0  0  0  0  0
   44.2110   37.5370   43.0250 H   0  0  0  0  0  0  0  0  0  0  0  0
   44.4190   32.8220   42.3730 H   0  0  0  0  0  0  0  0  0  0  0  0
   44.5900   33.4010   41.1440 S   0  0  0  0  0  0  0  0  0  0  0  0
   43.5830   34.4600   40.8660 O   0  0  0  0  0  0  0  0  0  0  0  0
   44.3700   32.3160   40.0970 O   0  0  0  0  0  0  0  0  0  0  0  0
  1 20  1  0  0  0  0
  1  2  1  0  0  0  0
  2  3  2  0  0  0  0
  2 11  1  0  0  0  0
  3  4  1  0  0  0  0
  5  3  1  0  0  0  0
  6  5  1  0  0  0  0
  7  5  2  0  0  0  0
  8  7  1  0  0  0  0
  8  1  2  0  0  0  0
  9 15  1  0  0  0  0
  9 14  1  0  0  0  0
 10  9  2  0  0  0  0
 11 10  1  0  0  0  0
 11 12  2  0  0  0  0
 12 13  1  0  0  0  0
 13 14  2  0  0  0  0
 13 16  1  0  0  0  0
 17 18  1  0  0  0  0
 17 10  1  0  0  0  0
 20 19  1  0  0  0  0
 21 20  2  0  0  0  0
 22 20  2  0  0  0  0
M  END
>  <minimizedAffinity>
-5.3676281

>  <minimizedRMSD>
0.913733542

$$$$
