
 OpenBabel03252508253D

 44 48  0  0  1  0  0  0  0  0999 V2000
   46.4840   32.3940   45.6780 C   0  0  1  0  0  0  0  0  0  0  0  0
   46.9600   32.6950   47.0360 C   0  0  0  0  0  0  0  0  0  0  0  0
   45.5560   32.0320   46.7320 C   0  0  2  0  0  0  0  0  0  0  0  0
   47.2870   31.7050   45.2300 H   0  0  0  0  0  0  0  0  0  0  0  0
   47.5800   32.0190   47.6470 H   0  0  0  0  0  0  0  0  0  0  0  0
   46.9390   33.7200   47.4380 H   0  0  0  0  0  0  0  0  0  0  0  0
   44.8350   32.7610   47.2200 H   0  0  0  0  0  0  0  0  0  0  0  0
   45.2880   30.6690   47.1910 C   0  0  0  0  0  0  0  0  0  0  0  0
   45.1860   30.2330   48.4760 C   0  0  0  0  0  0  0  0  0  0  0  0
   45.0590   28.9100   48.8820 C   0  0  0  0  0  0  0  0  0  0  0  0
   45.0350   27.9460   47.8540 C   0  0  0  0  0  0  0  0  0  0  0  0
   45.1350   28.3680   46.5370 C   0  0  0  0  0  0  0  0  0  0  0  0
   45.0480   27.3890   45.5640 C   0  0  0  0  0  0  0  0  0  0  0  0
   45.0740   27.7620   44.2180 C   0  0  0  0  0  0  0  0  0  0  0  0
   45.1830   29.0930   43.8650 C   0  0  0  0  0  0  0  0  0  0  0  0
   45.2690   30.0220   44.8740 C   0  0  0  0  0  0  0  0  0  0  0  0
   45.2560   29.7010   46.2180 C   0  0  0  0  0  0  0  0  0  0  0  0
   45.2100   31.0210   49.2320 H   0  0  0  0  0  0  0  0  0  0  0  0
   44.9860   28.6850   49.9180 H   0  0  0  0  0  0  0  0  0  0  0  0
   44.9400   26.9330   48.1870 H   0  0  0  0  0  0  0  0  0  0  0  0
   44.9600   26.3440   45.8670 H   0  0  0  0  0  0  0  0  0  0  0  0
   45.0010   26.9050   43.5430 H   0  0  0  0  0  0  0  0  0  0  0  0
   45.1830   29.1770   42.8020 H   0  0  0  0  0  0  0  0  0  0  0  0
   45.2560   30.9440   44.3650 H   0  0  0  0  0  0  0  0  0  0  0  0
   45.0700   35.5090   44.3040 C   0  0  0  0  0  0  0  0  0  0  0  0
   45.4360   35.4380   42.9230 C   0  0  0  0  0  0  0  0  0  0  0  0
   46.1680   34.3110   42.5070 C   0  0  0  0  0  0  0  0  0  0  0  0
   46.4840   33.3760   43.4180 N   0  0  0  0  0  0  0  0  0  0  0  0
   46.1180   33.4810   44.7270 C   0  0  0  0  0  0  0  0  0  0  0  0
   45.4250   34.5280   45.1580 N   0  0  0  0  0  0  0  0  0  0  0  0
   44.5120   36.3580   44.6300 H   0  0  0  0  0  0  0  0  0  0  0  0
   45.1840   36.2340   42.2650 H   0  0  0  0  0  0  0  0  0  0  0  0
   47.9250   34.3190   40.6620 C   0  0  0  0  0  0  0  0  0  0  0  0
   46.6790   34.0790   41.1760 C   0  0  0  0  0  0  0  0  0  0  0  0
   45.7650   33.5620   40.2470 C   0  0  0  0  0  0  0  0  0  0  0  0
   44.7410   33.3370   40.5520 H   0  0  0  0  0  0  0  0  0  0  0  0
   46.0210   33.2900   38.9260 C   0  0  0  0  0  0  0  0  0  0  0  0
   45.2760   32.8930   38.2640 H   0  0  0  0  0  0  0  0  0  0  0  0
   47.2760   33.5360   38.4400 C   0  0  0  0  0  3  0  0  0  0  0  0
   48.2010   34.0450   39.3160 C   0  0  0  0  0  3  0  0  0  0  0  0
   50.3450   34.9650   40.8410 H   0  0  0  0  0  0  0  0  0  0  0  0
   49.1580   35.0420   41.6150 S   0  0  0  0  0  0  0  0  0  0  0  0
   49.0010   36.5310   41.8050 O   0  0  0  0  0  0  0  0  0  0  0  0
   49.5230   34.3120   42.8620 O   0  0  0  0  0  0  0  0  0  0  0  0
  1  4  1  6  0  0  0
  1  3  1  0  0  0  0
  1  2  1  0  0  0  0
  2  6  1  0  0  0  0
  2  5  1  0  0  0  0
  3  2  1  0  0  0  0
  3  8  1  0  0  0  0
  3  7  1  1  0  0  0
  8  9  1  0  0  0  0
  9 10  2  0  0  0  0
  9 18  1  0  0  0  0
 10 19  1  0  0  0  0
 11 20  1  0  0  0  0
 11 10  1  0  0  0  0
 12 11  2  0  0  0  0
 13 21  1  0  0  0  0
 13 12  1  0  0  0  0
 14 13  2  0  0  0  0
 15 14  1  0  0  0  0
 15 16  2  0  0  0  0
 16 17  1  0  0  0  0
 17 12  1  0  0  0  0
 17  8  2  0  0  0  0
 22 14  1  0  0  0  0
 23 15  1  0  0  0  0
 24 16  1  0  0  0  0
 25 31  1  0  0  0  0
 25 30  1  0  0  0  0
 26 25  2  0  0  0  0
 27 26  1  0  0  0  0
 27 28  2  0  0  0  0
 28 29  1  0  0  0  0
 29 30  2  0  0  0  0
 29  1  1  0  0  0  0
 32 26  1  0  0  0  0
 33 34  1  0  0  0  0
 33 42  1  0  0  0  0
 34 27  1  0  0  0  0
 35 36  1  0  0  0  0
 35 34  2  0  0  0  0
 37 35  1  0  0  0  0
 38 37  1  0  0  0  0
 39 37  2  0  0  0  0
 39 40  1  0  0  0  0
 40 33  2  0  0  0  0
 41 42  1  0  0  0  0
 42 43  2  0  0  0  0
 42 44  2  0  0  0  0
M  END
>  <minimizedAffinity>
-5.76452017

>  <minimizedRMSD>
1.3570888

$$$$
