
 OpenBabel03252508253D

 44 48  0  0  1  0  0  0  0  0999 V2000
   46.3010   32.3730   46.2940 C   0  0  1  0  0  0  0  0  0  0  0  0
   46.7050   32.5530   47.6950 C   0  0  0  0  0  0  0  0  0  0  0  0
   45.3530   31.8560   47.2600 C   0  0  2  0  0  0  0  0  0  0  0  0
   47.1590   31.7760   45.8140 H   0  0  0  0  0  0  0  0  0  0  0  0
   47.3350   31.8500   48.2620 H   0  0  0  0  0  0  0  0  0  0  0  0
   46.6100   33.5280   48.1990 H   0  0  0  0  0  0  0  0  0  0  0  0
   44.5730   32.4930   47.7870 H   0  0  0  0  0  0  0  0  0  0  0  0
   45.1410   30.4410   47.5640 C   0  0  0  0  0  0  0  0  0  0  0  0
   45.0440   29.8630   48.7930 C   0  0  0  0  0  0  0  0  0  0  0  0
   44.9720   28.5000   49.0500 C   0  0  0  0  0  0  0  0  0  0  0  0
   45.0050   27.6530   47.9240 C   0  0  0  0  0  0  0  0  0  0  0  0
   45.1000   28.2200   46.6620 C   0  0  0  0  0  0  0  0  0  0  0  0
   45.0690   27.3510   45.5880 C   0  0  0  0  0  0  0  0  0  0  0  0
   45.0940   27.8690   44.2910 C   0  0  0  0  0  0  0  0  0  0  0  0
   45.1460   29.2340   44.0860 C   0  0  0  0  0  0  0  0  0  0  0  0
   45.1780   30.0500   45.1910 C   0  0  0  0  0  0  0  0  0  0  0  0
   45.1640   29.5850   46.4920 C   0  0  0  0  0  0  0  0  0  0  0  0
   45.0230   30.5640   49.6300 H   0  0  0  0  0  0  0  0  0  0  0  0
   44.8980   28.1600   50.0540 H   0  0  0  0  0  0  0  0  0  0  0  0
   44.9520   26.6070   48.1430 H   0  0  0  0  0  0  0  0  0  0  0  0
   45.0250   26.2750   45.7740 H   0  0  0  0  0  0  0  0  0  0  0  0
   45.0680   27.0880   43.5260 H   0  0  0  0  0  0  0  0  0  0  0  0
   45.1550   29.4340   43.0380 H   0  0  0  0  0  0  0  0  0  0  0  0
   45.1300   31.0210   44.7850 H   0  0  0  0  0  0  0  0  0  0  0  0
   44.6740   35.4720   45.1360 C   0  0  0  0  0  0  0  0  0  0  0  0
   45.2070   35.6340   43.8190 C   0  0  0  0  0  0  0  0  0  0  0  0
   46.1220   34.6640   43.3690 C   0  0  0  0  0  0  0  0  0  0  0  0
   46.4440   33.6530   44.1920 N   0  0  0  0  0  0  0  0  0  0  0  0
   45.9150   33.5330   45.4430 C   0  0  0  0  0  0  0  0  0  0  0  0
   45.0470   34.4270   45.9030 N   0  0  0  0  0  0  0  0  0  0  0  0
   43.9780   36.2010   45.4860 H   0  0  0  0  0  0  0  0  0  0  0  0
   44.9360   36.4800   43.2360 H   0  0  0  0  0  0  0  0  0  0  0  0
   46.4790   34.0760   40.9160 C   0  0  0  0  0  0  0  0  0  0  0  0
   46.8120   34.6760   42.1000 C   0  0  0  0  0  0  0  0  0  0  0  0
   48.0250   35.3770   42.0670 C   0  0  0  0  0  0  0  0  0  0  0  0
   48.3860   35.8920   42.9610 H   0  0  0  0  0  0  0  0  0  0  0  0
   48.8590   35.4990   40.9830 C   0  0  0  0  0  0  0  0  0  0  0  0
   49.7780   36.0520   41.0220 H   0  0  0  0  0  0  0  0  0  0  0  0
   48.5010   34.8920   39.8120 C   0  0  0  0  0  3  0  0  0  0  0  0
   47.3200   34.1940   39.8020 C   0  0  0  0  0  3  0  0  0  0  0  0
   45.0490   32.6390   39.4340 H   0  0  0  0  0  0  0  0  0  0  0  0
   45.0790   33.0900   40.7790 S   0  0  0  0  0  0  0  0  0  0  0  0
   45.1570   31.7930   41.5460 O   0  0  0  0  0  0  0  0  0  0  0  0
   43.7750   33.7970   40.9260 O   0  0  0  0  0  0  0  0  0  0  0  0
  1  4  1  6  0  0  0
  1  3  1  0  0  0  0
  1  2  1  0  0  0  0
  2  6  1  0  0  0  0
  2  5  1  0  0  0  0
  3  8  1  0  0  0  0
  3  2  1  0  0  0  0
  3  7  1  1  0  0  0
  8  9  1  0  0  0  0
  9 10  2  0  0  0  0
  9 18  1  0  0  0  0
 10 19  1  0  0  0  0
 11 20  1  0  0  0  0
 11 10  1  0  0  0  0
 12 11  2  0  0  0  0
 13 21  1  0  0  0  0
 13 12  1  0  0  0  0
 14 13  2  0  0  0  0
 15 14  1  0  0  0  0
 15 16  2  0  0  0  0
 16 17  1  0  0  0  0
 17 12  1  0  0  0  0
 17  8  2  0  0  0  0
 22 14  1  0  0  0  0
 23 15  1  0  0  0  0
 24 16  1  0  0  0  0
 25 31  1  0  0  0  0
 25 30  1  0  0  0  0
 26 25  2  0  0  0  0
 27 26  1  0  0  0  0
 27 28  2  0  0  0  0
 28 29  1  0  0  0  0
 29 30  2  0  0  0  0
 29  1  1  0  0  0  0
 32 26  1  0  0  0  0
 33 34  1  0  0  0  0
 34 27  1  0  0  0  0
 35 34  2  0  0  0  0
 35 36  1  0  0  0  0
 37 38  1  0  0  0  0
 37 35  1  0  0  0  0
 39 37  2  0  0  0  0
 40 39  1  0  0  0  0
 40 33  2  0  0  0  0
 41 42  1  0  0  0  0
 42 33  1  0  0  0  0
 42 44  2  0  0  0  0
 42 43  2  0  0  0  0
M  END
>  <minimizedAffinity>
-6.23071384

>  <minimizedRMSD>
1.16100836

$$$$
