
 OpenBabel03242516493D

 46 49  0  0  1  0  0  0  0  0999 V2000
   47.4450   32.3930   41.1160 C   0  0  1  0  0  0  0  0  0  0  0  0
   46.7220   31.7620   39.9930 C   0  0  0  0  0  0  0  0  0  0  0  0
   47.5770   32.0110   38.7540 C   0  0  0  0  0  0  0  0  0  0  0  0
   47.4700   33.5090   38.4720 C   0  0  0  0  0  0  0  0  0  0  0  0
   47.8170   34.3750   39.6150 C   0  0  0  0  0  0  0  0  0  0  0  0
   47.5300   33.9000   40.9800 C   0  0  1  0  0  0  0  0  0  0  0  0
   48.5290   32.0700   41.0670 H   0  0  0  0  0  0  0  0  0  0  0  0
   45.7090   32.1310   39.8150 H   0  0  0  0  0  0  0  0  0  0  0  0
   46.6780   30.6570   40.2090 H   0  0  0  0  0  0  0  0  0  0  0  0
   47.1010   31.4840   37.9180 H   0  0  0  0  0  0  0  0  0  0  0  0
   48.6260   31.7260   38.9330 H   0  0  0  0  0  0  0  0  0  0  0  0
   48.1760   33.6990   37.6290 H   0  0  0  0  0  0  0  0  0  0  0  0
   46.4610   33.6450   38.0480 H   0  0  0  0  0  0  0  0  0  0  0  0
   48.8860   34.6780   39.5200 H   0  0  0  0  0  0  0  0  0  0  0  0
   47.2620   35.3500   39.4740 H   0  0  0  0  0  0  0  0  0  0  0  0
   48.3600   34.2090   41.6570 H   0  0  0  0  0  0  0  0  0  0  0  0
   45.2790   31.0200   43.8900 C   0  0  0  0  0  0  0  0  0  0  0  0
   45.7720   31.3820   42.6390 C   0  0  0  0  0  0  0  0  0  0  0  0
   46.9840   32.0280   42.4510 C   0  0  0  0  0  0  0  0  0  0  0  0
   47.6780   32.2960   43.5690 N   0  0  0  0  0  0  0  0  0  0  0  0
   47.2160   31.9520   44.7950 C   0  0  0  0  0  0  0  0  0  0  0  0
   46.0440   31.3290   44.9630 N   0  0  0  0  0  0  0  0  0  0  0  0
   44.3150   30.5160   43.9240 H   0  0  0  0  0  0  0  0  0  0  0  0
   45.1860   31.1520   41.7480 H   0  0  0  0  0  0  0  0  0  0  0  0
   47.7770   32.1690   45.7010 H   0  0  0  0  0  0  0  0  0  0  0  0
   46.3280   34.5490   41.5570 C   0  0  0  0  0  0  0  0  0  0  0  0
   46.2910   35.3530   42.6990 C   0  0  0  0  0  0  0  0  0  0  0  0
   45.0330   35.8670   43.0240 C   0  0  0  0  0  0  0  0  0  0  0  0
   43.9670   35.5530   42.2260 C   0  0  0  0  0  0  0  0  0  0  0  0
   44.0100   34.7650   41.1150 C   0  0  0  0  0  0  0  0  0  0  0  0
   45.2320   34.2680   40.7990 N   0  0  0  0  0  0  0  0  0  0  0  0
   47.2100   35.4860   43.1900 H   0  0  0  0  0  0  0  0  0  0  0  0
   45.0160   36.4850   43.9040 H   0  0  0  0  0  0  0  0  0  0  0  0
   43.0840   36.0390   42.5750 H   0  0  0  0  0  0  0  0  0  0  0  0
   42.0040   33.4290   40.2560 C   0  0  0  0  0  0  0  0  0  0  0  0
   42.8830   34.4760   40.2360 C   0  0  0  0  0  0  0  0  0  0  0  0
   42.7030   35.3820   39.2020 C   0  0  0  0  0  0  0  0  0  0  0  0
   43.3360   36.2490   39.0960 H   0  0  0  0  0  0  0  0  0  0  0  0
   41.7380   35.3040   38.2330 C   0  0  0  0  0  0  0  0  0  0  0  0
   41.6230   36.0280   37.4390 H   0  0  0  0  0  0  0  0  0  0  0  0
   40.8490   34.2530   38.2510 C   0  0  0  0  0  3  0  0  0  0  0  0
   41.0130   33.3420   39.2710 C   0  0  0  0  0  3  0  0  0  0  0  0
   42.8340   32.6150   42.5700 H   0  0  0  0  0  0  0  0  0  0  0  0
   42.1780   32.2030   41.4450 S   0  0  0  0  0  0  0  0  0  0  0  0
   42.6310   30.8720   40.9190 O   0  0  0  0  0  0  0  0  0  0  0  0
   40.7510   31.9180   41.9590 O   0  0  0  0  0  0  0  0  0  0  0  0
  1  7  1  6  0  0  0
  1 19  1  0  0  0  0
  2  9  1  0  0  0  0
  2  1  1  0  0  0  0
  3 11  1  0  0  0  0
  3  2  1  0  0  0  0
  4  3  1  0  0  0  0
  4  5  1  0  0  0  0
  5  6  1  0  0  0  0
  6  1  1  0  0  0  0
  6 26  1  0  0  0  0
  6 16  1  1  0  0  0
  8  2  1  0  0  0  0
 10  3  1  0  0  0  0
 12  4  1  0  0  0  0
 13  4  1  0  0  0  0
 14  5  1  0  0  0  0
 15  5  1  0  0  0  0
 17 23  1  0  0  0  0
 17 22  1  0  0  0  0
 18 17  2  0  0  0  0
 19 18  1  0  0  0  0
 19 20  2  0  0  0  0
 20 21  1  0  0  0  0
 21 22  2  0  0  0  0
 21 25  1  0  0  0  0
 24 18  1  0  0  0  0
 26 27  1  0  0  0  0
 27 28  2  0  0  0  0
 27 32  1  0  0  0  0
 28 33  1  0  0  0  0
 29 34  1  0  0  0  0
 29 28  1  0  0  0  0
 30 29  2  0  0  0  0
 31 30  1  0  0  0  0
 31 26  2  0  0  0  0
 35 44  1  0  0  0  0
 36 35  1  0  0  0  0
 36 30  1  0  0  0  0
 37 36  2  0  0  0  0
 38 37  1  0  0  0  0
 39 41  2  0  0  0  0
 39 37  1  0  0  0  0
 40 39  1  0  0  0  0
 41 42  1  0  0  0  0
 42 35  2  0  0  0  0
 44 46  2  0  0  0  0
 44 43  1  0  0  0  0
 45 44  2  0  0  0  0
M  END
>  <minimizedAffinity>
-5.6194706

>  <minimizedRMSD>
1.05985284

$$$$
