
 OpenBabel03242521033D

 30 32  0  0  0  0  0  0  0  0999 V2000
   37.5520   28.1080   41.5510 C   0  0  0  0  0  0  0  0  0  0  0  0
   36.2340   27.9370   41.2210 C   0  0  0  0  0  0  0  0  0  0  0  0
   35.4140   28.9010   40.6940 C   0  0  0  0  0  0  0  0  0  0  0  0
   35.9480   30.1580   40.4710 C   0  0  0  0  0  0  0  0  0  0  0  0
   37.2630   30.3330   40.7990 C   0  0  0  0  0  0  0  0  0  0  0  0
   37.9830   29.3450   41.3040 N   0  0  0  0  0  0  0  0  0  0  0  0
   35.7670   26.9580   41.3800 H   0  0  0  0  0  0  0  0  0  0  0  0
   34.3720   28.6910   40.4560 H   0  0  0  0  0  0  0  0  0  0  0  0
   35.2850   30.8890   40.0590 H   0  0  0  0  0  0  0  0  0  0  0  0
   39.2570   24.8330   42.3310 C   0  0  0  0  0  0  0  0  0  0  0  0
   38.3910   25.7280   41.7060 C   0  0  0  0  0  0  0  0  0  0  0  0
   38.3980   27.0630   42.1100 C   0  0  0  0  0  0  0  0  0  0  0  0
   39.2550   27.4250   43.0970 N   0  0  0  0  0  0  0  0  0  0  0  0
   40.0820   26.5280   43.6800 C   0  0  0  0  0  0  0  0  0  0  0  0
   40.0830   25.2520   43.3010 N   0  0  0  0  0  0  0  0  0  0  0  0
   39.1910   23.8230   41.9640 H   0  0  0  0  0  0  0  0  0  0  0  0
   37.6840   25.5210   40.9220 H   0  0  0  0  0  0  0  0  0  0  0  0
   40.7480   26.8860   44.4680 H   0  0  0  0  0  0  0  0  0  0  0  0
   39.1870   31.8820   40.9750 C   0  0  0  0  0  0  0  0  0  0  0  0
   37.8890   31.6300   40.5900 C   0  0  0  0  0  0  0  0  0  0  0  0
   37.2480   32.6980   40.0000 C   0  0  0  0  0  0  0  0  0  0  0  0
   36.2250   32.6060   39.6620 H   0  0  0  0  0  0  0  0  0  0  0  0
   37.7890   33.9470   39.7770 C   0  0  0  0  0  0  0  0  0  0  0  0
   37.2400   34.7510   39.3090 H   0  0  0  0  0  0  0  0  0  0  0  0
   39.0910   34.1600   40.1760 C   0  0  0  0  0  3  0  0  0  0  0  0
   39.7690   33.1370   40.7640 C   0  0  0  0  0  3  0  0  0  0  0  0
   39.4200   29.5570   42.0710 H   0  0  0  0  0  0  0  0  0  0  0  0
   40.1690   30.6560   41.7390 S   0  0  0  0  0  0  0  0  0  0  0  0
   41.2260   30.1510   40.7620 O   0  0  0  0  0  0  0  0  0  0  0  0
   40.9500   31.1840   42.9100 O   0  0  0  0  0  0  0  0  0  0  0  0
  1 12  1  0  0  0  0
  2  7  1  0  0  0  0
  2  1  2  0  0  0  0
  3  2  1  0  0  0  0
  4  3  2  0  0  0  0
  4  5  1  0  0  0  0
  5  6  2  0  0  0  0
  6  1  1  0  0  0  0
  8  3  1  0  0  0  0
  9  4  1  0  0  0  0
 10 15  1  0  0  0  0
 11 12  1  0  0  0  0
 11 10  2  0  0  0  0
 12 13  2  0  0  0  0
 13 14  1  0  0  0  0
 14 18  1  0  0  0  0
 15 14  2  0  0  0  0
 16 10  1  0  0  0  0
 17 11  1  0  0  0  0
 19 28  1  0  0  0  0
 20  5  1  0  0  0  0
 20 19  2  0  0  0  0
 21 20  1  0  0  0  0
 22 21  1  0  0  0  0
 23 21  2  0  0  0  0
 23 25  1  0  0  0  0
 24 23  1  0  0  0  0
 25 26  2  0  0  0  0
 26 19  1  0  0  0  0
 28 27  1  0  0  0  0
 28 30  2  0  0  0  0
 29 28  2  0  0  0  0
M  END
>  <minimizedAffinity>
-5.40160561

$$$$

 OpenBabel03242521033D

 30 32  0  0  0  0  0  0  0  0999 V2000
   39.2780   31.6370   39.1200 C   0  0  0  0  0  0  0  0  0  0  0  0
   38.3820   32.6730   39.1150 C   0  0  0  0  0  0  0  0  0  0  0  0
   37.2260   32.7280   39.8500 C   0  0  0  0  0  0  0  0  0  0  0  0
   36.9250   31.6550   40.6700 C   0  0  0  0  0  0  0  0  0  0  0  0
   37.8160   30.6200   40.6780 C   0  0  0  0  0  0  0  0  0  0  0  0
   38.9110   30.6490   39.9360 N   0  0  0  0  0  0  0  0  0  0  0  0
   38.5780   33.5450   38.4800 H   0  0  0  0  0  0  0  0  0  0  0  0
   36.5590   33.5880   39.7940 H   0  0  0  0  0  0  0  0  0  0  0  0
   36.0170   31.7270   41.2310 H   0  0  0  0  0  0  0  0  0  0  0  0
   42.3200   30.5700   37.1580 C   0  0  0  0  0  0  0  0  0  0  0  0
   41.1570   30.4490   37.9160 C   0  0  0  0  0  0  0  0  0  0  0  0
   40.4990   31.6080   38.3270 C   0  0  0  0  0  0  0  0  0  0  0  0
   41.0270   32.8030   37.9640 N   0  0  0  0  0  0  0  0  0  0  0  0
   42.1590   32.8820   37.2260 C   0  0  0  0  0  0  0  0  0  0  0  0
   42.7940   31.7810   36.8300 N   0  0  0  0  0  0  0  0  0  0  0  0
   42.7680   29.6310   36.8810 H   0  0  0  0  0  0  0  0  0  0  0  0
   40.6770   29.5440   38.2440 H   0  0  0  0  0  0  0  0  0  0  0  0
   42.5300   33.8760   36.9680 H   0  0  0  0  0  0  0  0  0  0  0  0
   36.8720   28.3620   41.0550 C   0  0  0  0  0  0  0  0  0  0  0  0
   37.5630   29.4590   41.5190 C   0  0  0  0  0  0  0  0  0  0  0  0
   37.9850   29.3610   42.8270 C   0  0  0  0  0  0  0  0  0  0  0  0
   38.5360   30.1690   43.2880 H   0  0  0  0  0  0  0  0  0  0  0  0
   37.7750   28.2900   43.6700 C   0  0  0  0  0  0  0  0  0  0  0  0
   38.1290   28.2650   44.6900 H   0  0  0  0  0  0  0  0  0  0  0  0
   37.0790   27.2100   43.1690 C   0  0  0  0  0  3  0  0  0  0  0  0
   36.6390   27.2570   41.8820 C   0  0  0  0  0  3  0  0  0  0  0  0
   37.1940   28.7160   38.5200 H   0  0  0  0  0  0  0  0  0  0  0  0
   36.2540   28.2920   39.4230 S   0  0  0  0  0  0  0  0  0  0  0  0
   35.9460   26.8470   39.0440 O   0  0  0  0  0  0  0  0  0  0  0  0
   34.9480   29.0180   39.2640 O   0  0  0  0  0  0  0  0  0  0  0  0
  1  6  1  0  0  0  0
  2  1  2  0  0  0  0
  2  3  1  0  0  0  0
  3  4  2  0  0  0  0
  4  5  1  0  0  0  0
  4  9  1  0  0  0  0
  5 20  1  0  0  0  0
  6  5  2  0  0  0  0
  7  2  1  0  0  0  0
  8  3  1  0  0  0  0
 10 11  1  0  0  0  0
 11 17  1  0  0  0  0
 11 12  2  0  0  0  0
 12  1  1  0  0  0  0
 13 12  1  0  0  0  0
 14 13  2  0  0  0  0
 15 10  2  0  0  0  0
 15 14  1  0  0  0  0
 16 10  1  0  0  0  0
 18 14  1  0  0  0  0
 19 20  2  0  0  0  0
 19 26  1  0  0  0  0
 20 21  1  0  0  0  0
 21 22  1  0  0  0  0
 21 23  2  0  0  0  0
 23 24  1  0  0  0  0
 25 23  1  0  0  0  0
 26 25  2  0  0  0  0
 27 28  1  0  0  0  0
 28 19  1  0  0  0  0
 29 28  2  0  0  0  0
 30 28  2  0  0  0  0
M  END
>  <minimizedAffinity>
-5.27594757

$$$$

 OpenBabel03242521033D

 30 32  0  0  0  0  0  0  0  0999 V2000
   37.3820   29.1050   41.3330 C   0  0  0  0  0  0  0  0  0  0  0  0
   37.3240   29.2860   42.6890 C   0  0  0  0  0  0  0  0  0  0  0  0
   37.3410   28.2860   43.6270 C   0  0  0  0  0  0  0  0  0  0  0  0
   37.4230   26.9780   43.1820 C   0  0  0  0  0  0  0  0  0  0  0  0
   37.4810   26.7930   41.8300 C   0  0  0  0  0  0  0  0  0  0  0  0
   37.4590   27.8180   40.9930 N   0  0  0  0  0  0  0  0  0  0  0  0
   37.2580   30.3040   43.0890 H   0  0  0  0  0  0  0  0  0  0  0  0
   37.2920   28.5070   44.6930 H   0  0  0  0  0  0  0  0  0  0  0  0
   37.4350   26.2200   43.9360 H   0  0  0  0  0  0  0  0  0  0  0  0
   37.3240   32.4790   39.6430 C   0  0  0  0  0  0  0  0  0  0  0  0
   37.3420   31.5470   40.6790 C   0  0  0  0  0  0  0  0  0  0  0  0
   37.3610   30.1890   40.3610 C   0  0  0  0  0  0  0  0  0  0  0  0
   37.3620   29.8420   39.0500 N   0  0  0  0  0  0  0  0  0  0  0  0
   37.3450   30.7750   38.0710 C   0  0  0  0  0  0  0  0  0  0  0  0
   37.3270   32.0740   38.3650 N   0  0  0  0  0  0  0  0  0  0  0  0
   37.3100   33.5040   39.9700 H   0  0  0  0  0  0  0  0  0  0  0  0
   37.3420   31.7400   41.7380 H   0  0  0  0  0  0  0  0  0  0  0  0
   37.3470   30.4280   37.0360 H   0  0  0  0  0  0  0  0  0  0  0  0
   38.7660   24.7690   41.2110 C   0  0  0  0  0  0  0  0  0  0  0  0
   37.5690   25.4430   41.2920 C   0  0  0  0  0  0  0  0  0  0  0  0
   36.4800   24.7390   40.8250 C   0  0  0  0  0  0  0  0  0  0  0  0
   35.4930   25.1790   40.8430 H   0  0  0  0  0  0  0  0  0  0  0  0
   36.5020   23.4610   40.3050 C   0  0  0  0  0  0  0  0  0  0  0  0
   35.6160   22.9540   39.9530 H   0  0  0  0  0  0  0  0  0  0  0  0
   37.7200   22.8190   40.2410 C   0  0  0  0  0  3  0  0  0  0  0  0
   38.8260   23.4710   40.6890 C   0  0  0  0  0  3  0  0  0  0  0  0
   40.1200   26.8410   41.9400 H   0  0  0  0  0  0  0  0  0  0  0  0
   40.2620   25.4900   41.7520 S   0  0  0  0  0  0  0  0  0  0  0  0
   40.6490   24.9260   43.1150 O   0  0  0  0  0  0  0  0  0  0  0  0
   41.4240   25.1610   40.8560 O   0  0  0  0  0  0  0  0  0  0  0  0
  1  2  1  0  0  0  0
  2  7  1  0  0  0  0
  2  3  2  0  0  0  0
  3  8  1  0  0  0  0
  4  3  1  0  0  0  0
  4  9  1  0  0  0  0
  5  4  2  0  0  0  0
  6  1  2  0  0  0  0
  6  5  1  0  0  0  0
 10 16  1  0  0  0  0
 10 11  1  0  0  0  0
 11 17  1  0  0  0  0
 12 11  2  0  0  0  0
 12  1  1  0  0  0  0
 13 12  1  0  0  0  0
 14 15  1  0  0  0  0
 14 13  2  0  0  0  0
 15 10  2  0  0  0  0
 18 14  1  0  0  0  0
 19 20  1  0  0  0  0
 19 28  1  0  0  0  0
 20  5  1  0  0  0  0
 21 22  1  0  0  0  0
 21 20  2  0  0  0  0
 23 21  1  0  0  0  0
 24 23  1  0  0  0  0
 25 23  2  0  0  0  0
 25 26  1  0  0  0  0
 26 19  2  0  0  0  0
 28 27  1  0  0  0  0
 28 29  2  0  0  0  0
 30 28  2  0  0  0  0
M  END
>  <minimizedAffinity>
-5.24257421

$$$$

 OpenBabel03242521033D

 30 32  0  0  0  0  0  0  0  0999 V2000
   37.8390   26.4640   41.9490 C   0  0  0  0  0  0  0  0  0  0  0  0
   36.9260   26.6130   42.9580 C   0  0  0  0  0  0  0  0  0  0  0  0
   36.7140   27.7610   43.6760 C   0  0  0  0  0  0  0  0  0  0  0  0
   37.4770   28.8720   43.3670 C   0  0  0  0  0  0  0  0  0  0  0  0
   38.3900   28.7290   42.3600 C   0  0  0  0  0  0  0  0  0  0  0  0
   38.5300   27.5810   41.7170 N   0  0  0  0  0  0  0  0  0  0  0  0
   36.2980   25.7590   43.2390 H   0  0  0  0  0  0  0  0  0  0  0  0
   35.9660   27.8040   44.4690 H   0  0  0  0  0  0  0  0  0  0  0  0
   37.2890   29.7530   43.9440 H   0  0  0  0  0  0  0  0  0  0  0  0
   37.7080   22.9100   40.6870 C   0  0  0  0  0  0  0  0  0  0  0  0
   37.4190   24.0140   41.4870 C   0  0  0  0  0  0  0  0  0  0  0  0
   38.0420   25.2300   41.2040 C   0  0  0  0  0  0  0  0  0  0  0  0
   38.9030   25.2750   40.1570 N   0  0  0  0  0  0  0  0  0  0  0  0
   39.1580   24.1820   39.4020 C   0  0  0  0  0  0  0  0  0  0  0  0
   38.5680   23.0180   39.6650 N   0  0  0  0  0  0  0  0  0  0  0  0
   37.1880   22.0100   40.9700 H   0  0  0  0  0  0  0  0  0  0  0  0
   36.7530   24.0590   42.3310 H   0  0  0  0  0  0  0  0  0  0  0  0
   39.8610   24.2880   38.5730 H   0  0  0  0  0  0  0  0  0  0  0  0
   38.8430   30.7560   41.0120 C   0  0  0  0  0  0  0  0  0  0  0  0
   39.2270   29.8580   41.9820 C   0  0  0  0  0  0  0  0  0  0  0  0
   40.4540   30.1190   42.5530 C   0  0  0  0  0  0  0  0  0  0  0  0
   40.8490   29.4730   43.3250 H   0  0  0  0  0  0  0  0  0  0  0  0
   41.2900   31.1690   42.2360 C   0  0  0  0  0  0  0  0  0  0  0  0
   42.2440   31.3270   42.7170 H   0  0  0  0  0  0  0  0  0  0  0  0
   40.8700   32.0470   41.2600 C   0  0  0  0  0  3  0  0  0  0  0  0
   39.6660   31.8340   40.6640 C   0  0  0  0  0  3  0  0  0  0  0  0
   37.0010   29.2820   39.9660 H   0  0  0  0  0  0  0  0  0  0  0  0
   37.3200   30.5990   40.1700 S   0  0  0  0  0  0  0  0  0  0  0  0
   36.1920   31.1660   41.0260 O   0  0  0  0  0  0  0  0  0  0  0  0
   37.2760   31.3970   38.8970 O   0  0  0  0  0  0  0  0  0  0  0  0
  1  2  1  0  0  0  0
  2  7  1  0  0  0  0
  2  3  2  0  0  0  0
  3  8  1  0  0  0  0
  4  3  1  0  0  0  0
  4  9  1  0  0  0  0
  5  4  2  0  0  0  0
  6  1  2  0  0  0  0
  6  5  1  0  0  0  0
 10 16  1  0  0  0  0
 10 11  1  0  0  0  0
 11 17  1  0  0  0  0
 12 11  2  0  0  0  0
 12  1  1  0  0  0  0
 13 12  1  0  0  0  0
 14 15  1  0  0  0  0
 14 13  2  0  0  0  0
 15 10  2  0  0  0  0
 18 14  1  0  0  0  0
 19 20  1  0  0  0  0
 20  5  1  0  0  0  0
 20 21  2  0  0  0  0
 21 22  1  0  0  0  0
 23 21  1  0  0  0  0
 23 24  1  0  0  0  0
 25 23  2  0  0  0  0
 26 19  2  0  0  0  0
 26 25  1  0  0  0  0
 27 28  1  0  0  0  0
 28 19  1  0  0  0  0
 28 29  2  0  0  0  0
 30 28  2  0  0  0  0
M  END
>  <minimizedAffinity>
-5.17238522

$$$$

 OpenBabel03242521033D

 30 32  0  0  0  0  0  0  0  0999 V2000
   37.0800   26.8100   41.3960 C   0  0  0  0  0  0  0  0  0  0  0  0
   36.9430   26.6660   42.7520 C   0  0  0  0  0  0  0  0  0  0  0  0
   37.0840   27.6690   43.6760 C   0  0  0  0  0  0  0  0  0  0  0  0
   37.3900   28.9380   43.2180 C   0  0  0  0  0  0  0  0  0  0  0  0
   37.5270   29.0860   41.8670 C   0  0  0  0  0  0  0  0  0  0  0  0
   37.3740   28.0620   41.0430 N   0  0  0  0  0  0  0  0  0  0  0  0
   36.7010   25.6790   43.1620 H   0  0  0  0  0  0  0  0  0  0  0  0
   36.9590   27.4790   44.7420 H   0  0  0  0  0  0  0  0  0  0  0  0
   37.4920   29.6990   43.9620 H   0  0  0  0  0  0  0  0  0  0  0  0
   36.7810   23.4330   39.7390 C   0  0  0  0  0  0  0  0  0  0  0  0
   36.9420   24.3670   40.7600 C   0  0  0  0  0  0  0  0  0  0  0  0
   36.9250   25.7240   40.4390 C   0  0  0  0  0  0  0  0  0  0  0  0
   36.7500   26.0680   39.1390 N   0  0  0  0  0  0  0  0  0  0  0  0
   36.5960   25.1330   38.1740 C   0  0  0  0  0  0  0  0  0  0  0  0
   36.6110   23.8360   38.4710 N   0  0  0  0  0  0  0  0  0  0  0  0
   36.8070   22.4080   40.0670 H   0  0  0  0  0  0  0  0  0  0  0  0
   37.0870   24.1760   41.8090 H   0  0  0  0  0  0  0  0  0  0  0  0
   36.4580   25.4790   37.1470 H   0  0  0  0  0  0  0  0  0  0  0  0
   39.1010   30.9520   41.4470 C   0  0  0  0  0  0  0  0  0  0  0  0
   37.8490   30.3940   41.3150 C   0  0  0  0  0  0  0  0  0  0  0  0
   36.9430   31.1720   40.6270 C   0  0  0  0  0  0  0  0  0  0  0  0
   35.9310   30.8260   40.4690 H   0  0  0  0  0  0  0  0  0  0  0  0
   37.1890   32.4160   40.0830 C   0  0  0  0  0  0  0  0  0  0  0  0
   36.4400   32.9840   39.5520 H   0  0  0  0  0  0  0  0  0  0  0  0
   38.4540   32.9400   40.2360 C   0  0  0  0  0  3  0  0  0  0  0  0
   39.3860   32.2120   40.9080 C   0  0  0  0  0  3  0  0  0  0  0  0
   39.9040   29.3900   43.3370 H   0  0  0  0  0  0  0  0  0  0  0  0
   40.3890   30.1220   42.2850 S   0  0  0  0  0  0  0  0  0  0  0  0
   41.0500   29.1110   41.3540 O   0  0  0  0  0  0  0  0  0  0  0  0
   41.5000   31.0450   42.7010 O   0  0  0  0  0  0  0  0  0  0  0  0
  1  2  1  0  0  0  0
  2  7  1  0  0  0  0
  2  3  2  0  0  0  0
  3  8  1  0  0  0  0
  4  3  1  0  0  0  0
  4  9  1  0  0  0  0
  5  4  2  0  0  0  0
  6  1  2  0  0  0  0
  6  5  1  0  0  0  0
 10 16  1  0  0  0  0
 10 11  1  0  0  0  0
 11 17  1  0  0  0  0
 12 11  2  0  0  0  0
 12  1  1  0  0  0  0
 13 12  1  0  0  0  0
 14 15  1  0  0  0  0
 14 13  2  0  0  0  0
 15 10  2  0  0  0  0
 18 14  1  0  0  0  0
 19 28  1  0  0  0  0
 20 19  1  0  0  0  0
 20  5  1  0  0  0  0
 21 20  2  0  0  0  0
 22 21  1  0  0  0  0
 23 25  2  0  0  0  0
 23 21  1  0  0  0  0
 24 23  1  0  0  0  0
 25 26  1  0  0  0  0
 26 19  2  0  0  0  0
 28 30  2  0  0  0  0
 28 27  1  0  0  0  0
 29 28  2  0  0  0  0
M  END
>  <minimizedAffinity>
-5.14615631

$$$$

 OpenBabel03242521033D

 30 32  0  0  0  0  0  0  0  0999 V2000
   37.7770   30.6110   40.4970 C   0  0  0  0  0  0  0  0  0  0  0  0
   36.4160   30.5420   40.3610 C   0  0  0  0  0  0  0  0  0  0  0  0
   35.6380   29.4600   40.6840 C   0  0  0  0  0  0  0  0  0  0  0  0
   36.2640   28.3360   41.1920 C   0  0  0  0  0  0  0  0  0  0  0  0
   37.6220   28.4000   41.3290 C   0  0  0  0  0  0  0  0  0  0  0  0
   38.2980   29.4870   40.9920 N   0  0  0  0  0  0  0  0  0  0  0  0
   35.8750   31.4080   39.9630 H   0  0  0  0  0  0  0  0  0  0  0  0
   34.5570   29.4790   40.5480 H   0  0  0  0  0  0  0  0  0  0  0  0
   35.6320   27.5090   41.4350 H   0  0  0  0  0  0  0  0  0  0  0  0
   40.3850   32.9420   39.0820 C   0  0  0  0  0  0  0  0  0  0  0  0
   39.7150   31.7480   39.3390 C   0  0  0  0  0  0  0  0  0  0  0  0
   38.5770   31.7750   40.1450 C   0  0  0  0  0  0  0  0  0  0  0  0
   38.1770   32.9710   40.6410 N   0  0  0  0  0  0  0  0  0  0  0  0
   38.8520   34.1110   40.3700 C   0  0  0  0  0  0  0  0  0  0  0  0
   39.9400   34.0950   39.6020 N   0  0  0  0  0  0  0  0  0  0  0  0
   41.2530   32.8380   38.4540 H   0  0  0  0  0  0  0  0  0  0  0  0
   39.9680   30.7630   38.9860 H   0  0  0  0  0  0  0  0  0  0  0  0
   38.4760   35.0420   40.8010 H   0  0  0  0  0  0  0  0  0  0  0  0
   38.5480   26.1140   41.1120 C   0  0  0  0  0  0  0  0  0  0  0  0
   38.3470   27.2540   41.8570 C   0  0  0  0  0  0  0  0  0  0  0  0
   38.8830   27.2120   43.1260 C   0  0  0  0  0  0  0  0  0  0  0  0
   38.7800   28.0560   43.7940 H   0  0  0  0  0  0  0  0  0  0  0  0
   39.5770   26.1560   43.6800 C   0  0  0  0  0  0  0  0  0  0  0  0
   39.9770   26.1770   44.6830 H   0  0  0  0  0  0  0  0  0  0  0  0
   39.7580   25.0320   42.9020 C   0  0  0  0  0  3  0  0  0  0  0  0
   39.2470   25.0230   41.6410 C   0  0  0  0  0  3  0  0  0  0  0  0
   38.0600   27.1580   38.8030 H   0  0  0  0  0  0  0  0  0  0  0  0
   37.9460   25.9700   39.4780 S   0  0  0  0  0  0  0  0  0  0  0  0
   38.7950   24.9730   38.6960 O   0  0  0  0  0  0  0  0  0  0  0  0
   36.5500   25.4160   39.4190 O   0  0  0  0  0  0  0  0  0  0  0  0
  1  6  1  0  0  0  0
  2  1  2  0  0  0  0
  2  3  1  0  0  0  0
  3  4  2  0  0  0  0
  4  5  1  0  0  0  0
  4  9  1  0  0  0  0
  5 20  1  0  0  0  0
  6  5  2  0  0  0  0
  7  2  1  0  0  0  0
  8  3  1  0  0  0  0
 10 11  2  0  0  0  0
 10 15  1  0  0  0  0
 11 12  1  0  0  0  0
 12  1  1  0  0  0  0
 12 13  2  0  0  0  0
 14 13  1  0  0  0  0
 14 18  1  0  0  0  0
 15 14  2  0  0  0  0
 16 10  1  0  0  0  0
 17 11  1  0  0  0  0
 19 26  2  0  0  0  0
 19 20  1  0  0  0  0
 20 21  2  0  0  0  0
 21 23  1  0  0  0  0
 21 22  1  0  0  0  0
 23 24  1  0  0  0  0
 25 23  2  0  0  0  0
 26 25  1  0  0  0  0
 27 28  1  0  0  0  0
 28 19  1  0  0  0  0
 29 28  2  0  0  0  0
 30 28  2  0  0  0  0
M  END
>  <minimizedAffinity>
-5.13475895

$$$$

 OpenBabel03242521033D

 30 32  0  0  0  0  0  0  0  0999 V2000
   37.5430   29.9520   41.2210 C   0  0  0  0  0  0  0  0  0  0  0  0
   37.5700   29.5190   42.5210 C   0  0  0  0  0  0  0  0  0  0  0  0
   37.2590   28.2530   42.9440 C   0  0  0  0  0  0  0  0  0  0  0  0
   36.8860   27.3210   41.9910 C   0  0  0  0  0  0  0  0  0  0  0  0
   36.8590   27.7490   40.6940 C   0  0  0  0  0  0  0  0  0  0  0  0
   37.1740   28.9920   40.3720 N   0  0  0  0  0  0  0  0  0  0  0  0
   37.8590   30.2210   43.3110 H   0  0  0  0  0  0  0  0  0  0  0  0
   37.3030   27.9810   43.9980 H   0  0  0  0  0  0  0  0  0  0  0  0
   36.6500   26.3420   42.3510 H   0  0  0  0  0  0  0  0  0  0  0  0
   37.5210   33.3970   39.6820 C   0  0  0  0  0  0  0  0  0  0  0  0
   37.0720   32.1180   40.0060 C   0  0  0  0  0  0  0  0  0  0  0  0
   37.8790   31.3050   40.8030 C   0  0  0  0  0  0  0  0  0  0  0  0
   39.0660   31.8050   41.2250 N   0  0  0  0  0  0  0  0  0  0  0  0
   39.4690   33.0520   40.8900 C   0  0  0  0  0  0  0  0  0  0  0  0
   38.7050   33.8350   40.1300 N   0  0  0  0  0  0  0  0  0  0  0  0
   36.8430   33.9600   39.0640 H   0  0  0  0  0  0  0  0  0  0  0  0
   36.1490   31.6500   39.7120 H   0  0  0  0  0  0  0  0  0  0  0  0
   40.4370   33.3930   41.2640 H   0  0  0  0  0  0  0  0  0  0  0  0
   35.6310   27.1920   38.6160 C   0  0  0  0  0  0  0  0  0  0  0  0
   36.4750   26.8210   39.6390 C   0  0  0  0  0  0  0  0  0  0  0  0
   36.9160   25.5170   39.5760 C   0  0  0  0  0  0  0  0  0  0  0  0
   37.5820   25.1260   40.3330 H   0  0  0  0  0  0  0  0  0  0  0  0
   36.5870   24.5950   38.6050 C   0  0  0  0  0  0  0  0  0  0  0  0
   36.9620   23.5820   38.6040 H   0  0  0  0  0  0  0  0  0  0  0  0
   35.7400   25.0030   37.5970 C   0  0  0  0  0  3  0  0  0  0  0  0
   35.2760   26.2820   37.6130 C   0  0  0  0  0  3  0  0  0  0  0  0
   35.2140   29.5130   39.6620 H   0  0  0  0  0  0  0  0  0  0  0  0
   34.9660   28.8030   38.5160 S   0  0  0  0  0  0  0  0  0  0  0  0
   35.6500   29.5810   37.3960 O   0  0  0  0  0  0  0  0  0  0  0  0
   33.5070   28.8080   38.1510 O   0  0  0  0  0  0  0  0  0  0  0  0
  1  2  1  0  0  0  0
  2  3  2  0  0  0  0
  2  7  1  0  0  0  0
  3  8  1  0  0  0  0
  4  9  1  0  0  0  0
  4  3  1  0  0  0  0
  5  4  2  0  0  0  0
  6  5  1  0  0  0  0
  6  1  2  0  0  0  0
 10 11  2  0  0  0  0
 10 15  1  0  0  0  0
 11 12  1  0  0  0  0
 12  1  1  0  0  0  0
 12 13  2  0  0  0  0
 14 13  1  0  0  0  0
 14 18  1  0  0  0  0
 15 14  2  0  0  0  0
 16 10  1  0  0  0  0
 17 11  1  0  0  0  0
 19 20  1  0  0  0  0
 20  5  1  0  0  0  0
 21 20  2  0  0  0  0
 21 22  1  0  0  0  0
 23 21  1  0  0  0  0
 24 23  1  0  0  0  0
 25 26  1  0  0  0  0
 25 23  2  0  0  0  0
 26 19  2  0  0  0  0
 28 19  1  0  0  0  0
 28 27  1  0  0  0  0
 29 28  2  0  0  0  0
 30 28  2  0  0  0  0
M  END
>  <minimizedAffinity>
-5.12953091

$$$$

 OpenBabel03242521033D

 30 32  0  0  0  0  0  0  0  0999 V2000
   38.3130   29.7110   38.1180 C   0  0  0  0  0  0  0  0  0  0  0  0
   37.1150   30.1740   37.6400 C   0  0  0  0  0  0  0  0  0  0  0  0
   35.8830   29.6650   37.9580 C   0  0  0  0  0  0  0  0  0  0  0  0
   35.8260   28.5950   38.8330 C   0  0  0  0  0  0  0  0  0  0  0  0
   37.0180   28.1300   39.3120 C   0  0  0  0  0  0  0  0  0  0  0  0
   38.1660   28.6810   38.9520 N   0  0  0  0  0  0  0  0  0  0  0  0
   37.1100   31.0200   36.9440 H   0  0  0  0  0  0  0  0  0  0  0  0
   34.9700   30.0860   37.5370 H   0  0  0  0  0  0  0  0  0  0  0  0
   34.8510   28.2200   39.0620 H   0  0  0  0  0  0  0  0  0  0  0  0
   41.9320   30.2000   37.1660 C   0  0  0  0  0  0  0  0  0  0  0  0
   40.7570   29.5270   37.4970 C   0  0  0  0  0  0  0  0  0  0  0  0
   39.6080   30.2730   37.7610 C   0  0  0  0  0  0  0  0  0  0  0  0
   39.6930   31.6240   37.6800 N   0  0  0  0  0  0  0  0  0  0  0  0
   40.8510   32.2420   37.3550 C   0  0  0  0  0  0  0  0  0  0  0  0
   41.9530   31.5380   37.1020 N   0  0  0  0  0  0  0  0  0  0  0  0
   42.7730   29.5550   36.9780 H   0  0  0  0  0  0  0  0  0  0  0  0
   40.6090   28.4650   37.5830 H   0  0  0  0  0  0  0  0  0  0  0  0
   40.8510   33.3330   37.3070 H   0  0  0  0  0  0  0  0  0  0  0  0
   37.3750   27.1600   41.5620 C   0  0  0  0  0  0  0  0  0  0  0  0
   37.0330   27.0070   40.2370 C   0  0  0  0  0  0  0  0  0  0  0  0
   36.7130   25.7170   39.8720 C   0  0  0  0  0  0  0  0  0  0  0  0
   36.4310   25.4890   38.8540 H   0  0  0  0  0  0  0  0  0  0  0  0
   36.7100   24.6160   40.7020 C   0  0  0  0  0  0  0  0  0  0  0  0
   36.4490   23.6240   40.3620 H   0  0  0  0  0  0  0  0  0  0  0  0
   37.0580   24.8090   42.0220 C   0  0  0  0  0  3  0  0  0  0  0  0
   37.3830   26.0640   42.4340 C   0  0  0  0  0  3  0  0  0  0  0  0
   37.1530   29.7300   41.5750 H   0  0  0  0  0  0  0  0  0  0  0  0
   37.8130   28.7170   42.2210 S   0  0  0  0  0  0  0  0  0  0  0  0
   37.3750   28.8080   43.6790 O   0  0  0  0  0  0  0  0  0  0  0  0
   39.2990   28.9380   42.2520 O   0  0  0  0  0  0  0  0  0  0  0  0
  1  6  1  0  0  0  0
  2  3  1  0  0  0  0
  2  1  2  0  0  0  0
  3  4  2  0  0  0  0
  4  9  1  0  0  0  0
  4  5  1  0  0  0  0
  5 20  1  0  0  0  0
  6  5  2  0  0  0  0
  7  2  1  0  0  0  0
  8  3  1  0  0  0  0
 10 11  1  0  0  0  0
 11 17  1  0  0  0  0
 11 12  2  0  0  0  0
 12  1  1  0  0  0  0
 13 12  1  0  0  0  0
 14 13  2  0  0  0  0
 15 10  2  0  0  0  0
 15 14  1  0  0  0  0
 16 10  1  0  0  0  0
 18 14  1  0  0  0  0
 19 28  1  0  0  0  0
 19 26  1  0  0  0  0
 20 19  2  0  0  0  0
 21 20  1  0  0  0  0
 21 23  2  0  0  0  0
 22 21  1  0  0  0  0
 23 25  1  0  0  0  0
 24 23  1  0  0  0  0
 25 26  2  0  0  0  0
 27 28  1  0  0  0  0
 28 30  2  0  0  0  0
 28 29  2  0  0  0  0
M  END
>  <minimizedAffinity>
-5.12708998

$$$$

 OpenBabel03242521033D

 30 32  0  0  0  0  0  0  0  0999 V2000
   39.2710   30.7670   38.5060 C   0  0  0  0  0  0  0  0  0  0  0  0
   38.3100   31.7080   38.2460 C   0  0  0  0  0  0  0  0  0  0  0  0
   37.1560   31.8860   38.9640 C   0  0  0  0  0  0  0  0  0  0  0  0
   36.9280   31.0540   40.0460 C   0  0  0  0  0  0  0  0  0  0  0  0
   37.8840   30.1140   40.3090 C   0  0  0  0  0  0  0  0  0  0  0  0
   38.9710   30.0100   39.5630 N   0  0  0  0  0  0  0  0  0  0  0  0
   38.4480   32.3900   37.3990 H   0  0  0  0  0  0  0  0  0  0  0  0
   36.4360   32.6590   38.6960 H   0  0  0  0  0  0  0  0  0  0  0  0
   36.0200   31.2170   40.5870 H   0  0  0  0  0  0  0  0  0  0  0  0
   42.1550   29.3730   36.5110 C   0  0  0  0  0  0  0  0  0  0  0  0
   40.9740   29.3830   37.2500 C   0  0  0  0  0  0  0  0  0  0  0  0
   40.4880   30.6010   37.7240 C   0  0  0  0  0  0  0  0  0  0  0  0
   41.1950   31.7230   37.4380 N   0  0  0  0  0  0  0  0  0  0  0  0
   42.3380   31.6740   36.7170 C   0  0  0  0  0  0  0  0  0  0  0  0
   42.8090   30.5160   36.2610 N   0  0  0  0  0  0  0  0  0  0  0  0
   42.4640   28.3950   36.1830 H   0  0  0  0  0  0  0  0  0  0  0  0
   40.3590   28.5420   37.5190 H   0  0  0  0  0  0  0  0  0  0  0  0
   42.8580   32.6150   36.5220 H   0  0  0  0  0  0  0  0  0  0  0  0
   38.6950   29.0120   42.3740 C   0  0  0  0  0  0  0  0  0  0  0  0
   37.7080   29.2050   41.4320 C   0  0  0  0  0  0  0  0  0  0  0  0
   36.5600   28.4720   41.6450 C   0  0  0  0  0  0  0  0  0  0  0  0
   35.7250   28.5500   40.9630 H   0  0  0  0  0  0  0  0  0  0  0  0
   36.3380   27.5970   42.6880 C   0  0  0  0  0  0  0  0  0  0  0  0
   35.4160   27.0470   42.8070 H   0  0  0  0  0  0  0  0  0  0  0  0
   37.3490   27.4320   43.6100 C   0  0  0  0  0  3  0  0  0  0  0  0
   38.5030   28.1320   43.4460 C   0  0  0  0  0  3  0  0  0  0  0  0
   40.5610   30.1240   40.9810 H   0  0  0  0  0  0  0  0  0  0  0  0
   40.2240   29.8510   42.2820 S   0  0  0  0  0  0  0  0  0  0  0  0
   40.1170   31.2070   42.9710 O   0  0  0  0  0  0  0  0  0  0  0  0
   41.3250   29.1340   43.0130 O   0  0  0  0  0  0  0  0  0  0  0  0
  1  6  1  0  0  0  0
  2  1  2  0  0  0  0
  2  3  1  0  0  0  0
  3  4  2  0  0  0  0
  4  5  1  0  0  0  0
  4  9  1  0  0  0  0
  5 20  1  0  0  0  0
  6  5  2  0  0  0  0
  7  2  1  0  0  0  0
  8  3  1  0  0  0  0
 10 11  1  0  0  0  0
 11 17  1  0  0  0  0
 11 12  2  0  0  0  0
 12  1  1  0  0  0  0
 13 12  1  0  0  0  0
 14 13  2  0  0  0  0
 15 10  2  0  0  0  0
 15 14  1  0  0  0  0
 16 10  1  0  0  0  0
 18 14  1  0  0  0  0
 19 26  1  0  0  0  0
 20 21  1  0  0  0  0
 20 19  2  0  0  0  0
 21 23  2  0  0  0  0
 22 21  1  0  0  0  0
 23 24  1  0  0  0  0
 23 25  1  0  0  0  0
 26 25  2  0  0  0  0
 27 28  1  0  0  0  0
 28 19  1  0  0  0  0
 28 29  2  0  0  0  0
 28 30  2  0  0  0  0
M  END
>  <minimizedAffinity>
-5.1069479

$$$$
