
 OpenBabel03252505343D

 33 35  0  0  0  0  0  0  0  0999 V2000
   46.4860   34.5740   42.1940 C   0  0  0  0  0  0  0  0  0  0  0  0
   47.6360   35.2820   41.9170 C   0  0  0  0  0  0  0  0  0  0  0  0
   48.3630   35.1190   40.7370 C   0  0  0  0  0  0  0  0  0  0  0  0
   47.9200   34.2050   39.7950 C   0  0  0  0  0  0  0  0  0  0  0  0
   46.7670   33.5010   40.0850 C   0  0  0  0  0  0  0  0  0  0  0  0
   46.0670   33.6770   41.2510 C   0  0  0  0  0  0  0  0  0  0  0  0
   48.0120   35.9940   42.6100 H   0  0  0  0  0  0  0  0  0  0  0  0
   49.2540   35.6820   40.5450 H   0  0  0  0  0  0  0  0  0  0  0  0
   48.5130   34.1060   38.8910 H   0  0  0  0  0  0  0  0  0  0  0  0
   46.4210   32.7800   39.3380 H   0  0  0  0  0  0  0  0  0  0  0  0
   44.4160   36.0950   44.9440 C   0  0  0  0  0  0  0  0  0  0  0  0
   45.0180   35.9410   43.6820 C   0  0  0  0  0  0  0  0  0  0  0  0
   45.8250   34.8290   43.4410 C   0  0  0  0  0  0  0  0  0  0  0  0
   45.9900   33.9410   44.4470 N   0  0  0  0  0  0  0  0  0  0  0  0
   45.3950   34.1170   45.6530 C   0  0  0  0  0  0  0  0  0  0  0  0
   44.6050   35.2010   45.8970 N   0  0  0  0  0  0  0  0  0  0  0  0
   45.5840   33.1630   46.7060 N   0  0  0  0  0  0  0  0  0  0  0  0
   43.7840   36.9570   45.1430 H   0  0  0  0  0  0  0  0  0  0  0  0
   44.8730   36.6630   42.8910 H   0  0  0  0  0  0  0  0  0  0  0  0
   45.9590   33.5630   47.6020 H   0  0  0  0  0  0  0  0  0  0  0  0
   45.3810   32.1410   46.6430 H   0  0  0  0  0  0  0  0  0  0  0  0
   43.5760   33.3260   41.1980 C   0  0  0  0  0  0  0  0  0  0  0  0
   44.8530   32.9090   41.5080 C   0  0  0  0  0  0  0  0  0  0  0  0
   45.0000   31.6720   42.1100 C   0  0  0  0  0  0  0  0  0  0  0  0
   45.9680   31.2430   42.3980 H   0  0  0  0  0  0  0  0  0  0  0  0
   43.8710   30.9030   42.3770 C   0  0  0  0  0  0  0  0  0  0  0  0
   43.8820   29.9100   42.8510 H   0  0  0  0  0  0  0  0  0  0  0  0
   42.6010   31.3420   42.0590 C   0  0  0  0  0  0  0  0  0  0  0  0
   42.4510   32.5810   41.4560 C   0  0  0  0  0  0  0  0  0  0  0  0
   44.6370   35.4800   40.4240 H   0  0  0  0  0  0  0  0  0  0  0  0
   43.3850   34.8900   40.4360 S   0  0  0  0  0  0  0  0  0  0  0  0
   42.5000   35.7810   41.2740 O   0  0  0  0  0  0  0  0  0  0  0  0
   42.8700   34.7570   39.0350 O   0  0  0  0  0  0  0  0  0  0  0  0
  1 13  1  0  0  0  0
  2  1  1  0  0  0  0
  2  7  1  0  0  0  0
  3  2  2  0  0  0  0
  4  5  2  0  0  0  0
  4  3  1  0  0  0  0
  5  6  1  0  0  0  0
  6 23  1  0  0  0  0
  6  1  2  0  0  0  0
  8  3  1  0  0  0  0
  9  4  1  0  0  0  0
 10  5  1  0  0  0  0
 11 18  1  0  0  0  0
 11 16  1  0  0  0  0
 12 11  2  0  0  0  0
 13 12  1  0  0  0  0
 13 14  2  0  0  0  0
 14 15  1  0  0  0  0
 15 16  2  0  0  0  0
 15 17  1  0  0  0  0
 17 20  1  0  0  0  0
 19 12  1  0  0  0  0
 21 17  1  0  0  0  0
 22 29  2  0  0  0  0
 22 23  1  0  0  0  0
 23 24  2  0  0  0  0
 24 26  1  0  0  0  0
 24 25  1  0  0  0  0
 26 27  1  0  0  0  0
 28 26  2  0  0  0  0
 29 28  1  0  0  0  0
 30 31  1  0  0  0  0
 31 22  1  0  0  0  0
 31 32  2  0  0  0  0
 33 31  2  0  0  0  0
M  END
>  <minimizedAffinity>
-6.18988276

>  <minimizedRMSD>
1.13275146

$$$$
