
 OpenBabel03252508253D

 44 48  0  0  1  0  0  0  0  0999 V2000
   46.3200   32.4250   46.2470 C   0  0  1  0  0  0  0  0  0  0  0  0
   46.7180   32.6130   47.6490 C   0  0  0  0  0  0  0  0  0  0  0  0
   45.3700   31.9090   47.2120 C   0  0  2  0  0  0  0  0  0  0  0  0
   47.1810   31.8290   45.7730 H   0  0  0  0  0  0  0  0  0  0  0  0
   47.3490   31.9140   48.2210 H   0  0  0  0  0  0  0  0  0  0  0  0
   46.6180   33.5900   48.1480 H   0  0  0  0  0  0  0  0  0  0  0  0
   44.5860   32.5450   47.7330 H   0  0  0  0  0  0  0  0  0  0  0  0
   45.1620   30.4940   47.5230 C   0  0  0  0  0  0  0  0  0  0  0  0
   45.0510   29.9240   48.7530 C   0  0  0  0  0  0  0  0  0  0  0  0
   44.9840   28.5620   49.0180 C   0  0  0  0  0  0  0  0  0  0  0  0
   45.0370   27.7080   47.8980 C   0  0  0  0  0  0  0  0  0  0  0  0
   45.1470   28.2680   46.6340 C   0  0  0  0  0  0  0  0  0  0  0  0
   45.1350   27.3910   45.5650 C   0  0  0  0  0  0  0  0  0  0  0  0
   45.1750   27.9020   44.2650 C   0  0  0  0  0  0  0  0  0  0  0  0
   45.2220   29.2650   44.0520 C   0  0  0  0  0  0  0  0  0  0  0  0
   45.2340   30.0890   45.1530 C   0  0  0  0  0  0  0  0  0  0  0  0
   45.2050   29.6310   46.4560 C   0  0  0  0  0  0  0  0  0  0  0  0
   45.0150   30.6300   49.5860 H   0  0  0  0  0  0  0  0  0  0  0  0
   44.8980   28.2270   50.0230 H   0  0  0  0  0  0  0  0  0  0  0  0
   44.9870   26.6630   48.1230 H   0  0  0  0  0  0  0  0  0  0  0  0
   45.0950   26.3170   45.7580 H   0  0  0  0  0  0  0  0  0  0  0  0
   45.1640   27.1160   43.5050 H   0  0  0  0  0  0  0  0  0  0  0  0
   45.2440   29.4590   43.0030 H   0  0  0  0  0  0  0  0  0  0  0  0
   45.1860   31.0560   44.7400 H   0  0  0  0  0  0  0  0  0  0  0  0
   44.6760   35.5050   45.0630 C   0  0  0  0  0  0  0  0  0  0  0  0
   45.2240   35.6690   43.7520 C   0  0  0  0  0  0  0  0  0  0  0  0
   46.1540   34.7080   43.3160 C   0  0  0  0  0  0  0  0  0  0  0  0
   46.4760   33.7020   44.1450 N   0  0  0  0  0  0  0  0  0  0  0  0
   45.9330   33.5790   45.3890 C   0  0  0  0  0  0  0  0  0  0  0  0
   45.0500   34.4650   45.8360 N   0  0  0  0  0  0  0  0  0  0  0  0
   43.9680   36.2270   45.4030 H   0  0  0  0  0  0  0  0  0  0  0  0
   44.9520   36.5120   43.1640 H   0  0  0  0  0  0  0  0  0  0  0  0
   46.5440   34.1260   40.8670 C   0  0  0  0  0  0  0  0  0  0  0  0
   46.8600   34.7260   42.0560 C   0  0  0  0  0  0  0  0  0  0  0  0
   48.0720   35.4300   42.0390 C   0  0  0  0  0  0  0  0  0  0  0  0
   48.4210   35.9440   42.9370 H   0  0  0  0  0  0  0  0  0  0  0  0
   48.9180   35.5580   40.9660 C   0  0  0  0  0  0  0  0  0  0  0  0
   49.8350   36.1130   41.0160 H   0  0  0  0  0  0  0  0  0  0  0  0
   48.5760   34.9520   39.7880 C   0  0  0  0  0  3  0  0  0  0  0  0
   47.3970   34.2490   39.7630 C   0  0  0  0  0  3  0  0  0  0  0  0
   45.1510   32.6650   39.3730 H   0  0  0  0  0  0  0  0  0  0  0  0
   45.1490   33.1370   40.7100 S   0  0  0  0  0  0  0  0  0  0  0  0
   45.2090   31.8520   41.4990 O   0  0  0  0  0  0  0  0  0  0  0  0
   43.8400   33.8430   40.8150 O   0  0  0  0  0  0  0  0  0  0  0  0
  1  4  1  6  0  0  0
  1  3  1  0  0  0  0
  1  2  1  0  0  0  0
  2  6  1  0  0  0  0
  2  5  1  0  0  0  0
  3  8  1  0  0  0  0
  3  2  1  0  0  0  0
  3  7  1  1  0  0  0
  8  9  1  0  0  0  0
  9 10  2  0  0  0  0
  9 18  1  0  0  0  0
 10 19  1  0  0  0  0
 11 20  1  0  0  0  0
 11 10  1  0  0  0  0
 12 11  2  0  0  0  0
 13 21  1  0  0  0  0
 13 12  1  0  0  0  0
 14 13  2  0  0  0  0
 15 14  1  0  0  0  0
 15 16  2  0  0  0  0
 16 17  1  0  0  0  0
 17 12  1  0  0  0  0
 17  8  2  0  0  0  0
 22 14  1  0  0  0  0
 23 15  1  0  0  0  0
 24 16  1  0  0  0  0
 25 31  1  0  0  0  0
 25 30  1  0  0  0  0
 26 25  2  0  0  0  0
 27 26  1  0  0  0  0
 27 28  2  0  0  0  0
 28 29  1  0  0  0  0
 29 30  2  0  0  0  0
 29  1  1  0  0  0  0
 32 26  1  0  0  0  0
 33 34  1  0  0  0  0
 34 27  1  0  0  0  0
 35 34  2  0  0  0  0
 35 36  1  0  0  0  0
 37 38  1  0  0  0  0
 37 35  1  0  0  0  0
 39 37  2  0  0  0  0
 40 39  1  0  0  0  0
 40 33  2  0  0  0  0
 41 42  1  0  0  0  0
 42 44  2  0  0  0  0
 42 33  1  0  0  0  0
 42 43  2  0  0  0  0
M  END
>  <minimizedAffinity>
-6.23884964

>  <minimizedRMSD>
1.34466124

$$$$
