
 OpenBabel03242520223D

 47 50  0  0  0  0  0  0  0  0999 V2000
   42.3100   34.1430   38.5360 C   0  0  0  0  0  0  0  0  0  0  0  0
   42.4840   35.3540   38.1870 O   0  0  0  0  0  0  0  0  0  0  0  0
   43.1860   33.0860   38.2370 N   0  0  0  0  0  0  0  0  0  0  0  0
   42.9690   32.0830   38.4220 H   0  0  0  0  0  0  0  0  0  0  0  0
   41.0980   33.7760   39.3240 C   0  0  0  0  0  0  0  0  0  0  0  0
   39.9770   34.5710   39.2750 C   0  0  0  0  0  0  0  0  0  0  0  0
   38.8010   34.3310   39.9540 C   0  0  0  0  0  0  0  0  0  0  0  0
   38.8070   33.1700   40.7430 C   0  0  0  0  0  0  0  0  0  0  0  0
   39.9290   32.3890   40.7810 C   0  0  0  0  0  0  0  0  0  0  0  0
   41.0280   32.6920   40.0920 N   0  0  0  0  0  0  0  0  0  0  0  0
   40.0210   35.4540   38.6540 H   0  0  0  0  0  0  0  0  0  0  0  0
   37.9580   34.9860   39.8780 H   0  0  0  0  0  0  0  0  0  0  0  0
   37.9160   32.9980   41.3000 H   0  0  0  0  0  0  0  0  0  0  0  0
   39.2110   30.1140   41.6590 C   0  0  0  0  0  0  0  0  0  0  0  0
   40.0640   31.1910   41.6040 C   0  0  0  0  0  0  0  0  0  0  0  0
   41.1990   31.0790   42.4140 C   0  0  0  0  0  0  0  0  0  0  0  0
   41.9310   31.8960   42.4260 H   0  0  0  0  0  0  0  0  0  0  0  0
   41.5300   30.0270   43.2370 C   0  0  0  0  0  0  0  0  0  0  0  0
   42.4320   30.0310   43.8280 H   0  0  0  0  0  0  0  0  0  0  0  0
   40.6690   28.9610   43.2840 C   0  0  0  0  0  3  0  0  0  0  0  0
   39.5420   29.0390   42.4970 C   0  0  0  0  0  3  0  0  0  0  0  0
   37.7330   30.8710   39.6380 H   0  0  0  0  0  0  0  0  0  0  0  0
   37.8040   30.0140   40.6760 S   0  0  0  0  0  0  0  0  0  0  0  0
   37.4540   28.5980   40.2760 O   0  0  0  0  0  0  0  0  0  0  0  0
   36.6240   30.4230   41.5820 O   0  0  0  0  0  0  0  0  0  0  0  0
   44.4570   33.4350   37.6400 C   0  0  0  0  0  0  0  0  0  0  0  0
   44.6340   34.5100   37.6060 H   0  0  0  0  0  0  0  0  0  0  0  0
   44.4260   33.0360   36.5880 H   0  0  0  0  0  0  0  0  0  0  0  0
   45.6290   32.7370   38.3360 C   0  0  0  0  0  0  0  0  0  0  0  0
   46.5500   33.1360   37.8430 H   0  0  0  0  0  0  0  0  0  0  0  0
   45.5470   31.6520   38.2710 H   0  0  0  0  0  0  0  0  0  0  0  0
   46.6720   34.4200   41.5680 C   0  0  0  0  0  0  0  0  0  0  0  0
   46.6610   34.0340   40.2010 C   0  0  0  0  0  0  0  0  0  0  0  0
   45.6910   33.1580   39.7550 C   0  0  0  0  0  0  0  0  0  0  0  0
   44.7840   32.7130   40.7020 N   0  0  0  0  0  0  0  0  0  0  0  0
   44.8460   33.1180   41.9960 C   0  0  0  0  0  0  0  0  0  0  0  0
   45.7810   33.9610   42.4210 N   0  0  0  0  0  0  0  0  0  0  0  0
   47.3890   34.4050   39.4910 H   0  0  0  0  0  0  0  0  0  0  0  0
   44.1050   32.7320   42.6840 H   0  0  0  0  0  0  0  0  0  0  0  0
   47.7430   35.3600   42.0310 C   0  0  0  0  0  0  0  0  0  0  0  0
   49.0890   34.5840   42.3120 C   0  0  0  0  0  0  0  0  0  0  0  0
   48.9280   35.6580   41.3320 C   0  0  0  0  0  0  0  0  0  0  0  0
   47.4180   35.9280   42.9510 H   0  0  0  0  0  0  0  0  0  0  0  0
   49.6070   34.8450   43.2570 H   0  0  0  0  0  0  0  0  0  0  0  0
   49.1420   33.5440   41.9750 H   0  0  0  0  0  0  0  0  0  0  0  0
   49.4480   36.6190   41.5010 H   0  0  0  0  0  0  0  0  0  0  0  0
   48.9760   35.3850   40.2360 H   0  0  0  0  0  0  0  0  0  0  0  0
  1  5  1  0  0  0  0
  2  1  2  0  0  0  0
  3  4  1  0  0  0  0
  3  1  1  0  0  0  0
  5 10  1  0  0  0  0
  6  5  2  0  0  0  0
  6  7  1  0  0  0  0
  7  8  2  0  0  0  0
  8  9  1  0  0  0  0
  8 13  1  0  0  0  0
  9 15  1  0  0  0  0
 10  9  2  0  0  0  0
 11  6  1  0  0  0  0
 12  7  1  0  0  0  0
 14 21  1  0  0  0  0
 15 14  2  0  0  0  0
 15 16  1  0  0  0  0
 16 17  1  0  0  0  0
 16 18  2  0  0  0  0
 18 20  1  0  0  0  0
 18 19  1  0  0  0  0
 21 20  2  0  0  0  0
 22 23  1  0  0  0  0
 23 25  2  0  0  0  0
 23 14  1  0  0  0  0
 24 23  2  0  0  0  0
 26  3  1  0  0  0  0
 26 29  1  0  0  0  0
 27 26  1  0  0  0  0
 28 26  1  0  0  0  0
 29 34  1  0  0  0  0
 30 29  1  0  0  0  0
 31 29  1  0  0  0  0
 32 40  1  0  0  0  0
 32 37  1  0  0  0  0
 33 32  2  0  0  0  0
 34 33  1  0  0  0  0
 34 35  2  0  0  0  0
 35 36  1  0  0  0  0
 36 37  2  0  0  0  0
 36 39  1  0  0  0  0
 38 33  1  0  0  0  0
 40 41  1  0  0  0  0
 40 43  1  0  0  0  0
 41 44  1  0  0  0  0
 42 46  1  0  0  0  0
 42 40  1  0  0  0  0
 42 41  1  0  0  0  0
 45 41  1  0  0  0  0
 47 42  1  0  0  0  0
M  END
>  <minimizedAffinity>
-5.78894424

>  <minimizedRMSD>
4.09901047

$$$$
