
 OpenBabel03252505333D

 33 35  0  0  0  0  0  0  0  0999 V2000
   46.4540   34.2530   42.0700 C   0  0  0  0  0  0  0  0  0  0  0  0
   47.5530   34.9900   41.6830 C   0  0  0  0  0  0  0  0  0  0  0  0
   48.1450   34.8680   40.4250 C   0  0  0  0  0  0  0  0  0  0  0  0
   47.6120   33.9690   39.5160 C   0  0  0  0  0  0  0  0  0  0  0  0
   46.5110   33.2370   39.9160 C   0  0  0  0  0  0  0  0  0  0  0  0
   45.9450   33.3710   41.1570 C   0  0  0  0  0  0  0  0  0  0  0  0
   47.9940   35.6910   42.3470 H   0  0  0  0  0  0  0  0  0  0  0  0
   48.9980   35.4520   40.1480 H   0  0  0  0  0  0  0  0  0  0  0  0
   48.1000   33.9030   38.5480 H   0  0  0  0  0  0  0  0  0  0  0  0
   46.0940   32.5280   39.1940 H   0  0  0  0  0  0  0  0  0  0  0  0
   44.4680   35.4890   45.0180 C   0  0  0  0  0  0  0  0  0  0  0  0
   44.9020   35.3570   43.6860 C   0  0  0  0  0  0  0  0  0  0  0  0
   45.9340   34.4660   43.3890 C   0  0  0  0  0  0  0  0  0  0  0  0
   46.4720   33.7630   44.4110 N   0  0  0  0  0  0  0  0  0  0  0  0
   46.0310   33.9130   45.6850 C   0  0  0  0  0  0  0  0  0  0  0  0
   45.0240   34.7810   45.9840 N   0  0  0  0  0  0  0  0  0  0  0  0
   46.6170   33.1570   46.7540 N   0  0  0  0  0  0  0  0  0  0  0  0
   43.6640   36.1800   45.2620 H   0  0  0  0  0  0  0  0  0  0  0  0
   44.4580   35.9290   42.8850 H   0  0  0  0  0  0  0  0  0  0  0  0
   46.9960   33.7340   47.5460 H   0  0  0  0  0  0  0  0  0  0  0  0
   46.6880   32.1170   46.7930 H   0  0  0  0  0  0  0  0  0  0  0  0
   43.4840   32.8450   41.1430 C   0  0  0  0  0  0  0  0  0  0  0  0
   44.7800   32.5750   41.5290 C   0  0  0  0  0  0  0  0  0  0  0  0
   44.9980   31.4690   42.3320 C   0  0  0  0  0  0  0  0  0  0  0  0
   45.9860   31.1630   42.6960 H   0  0  0  0  0  0  0  0  0  0  0  0
   43.9190   30.6790   42.7150 C   0  0  0  0  0  0  0  0  0  0  0  0
   43.9860   29.7820   43.3480 H   0  0  0  0  0  0  0  0  0  0  0  0
   42.6290   30.9680   42.3160 C   0  0  0  0  0  3  0  0  0  0  0  0
   42.4060   32.0750   41.5120 C   0  0  0  0  0  3  0  0  0  0  0  0
   41.8300   34.3840   40.0210 H   0  0  0  0  0  0  0  0  0  0  0  0
   43.2030   34.2410   40.1270 S   0  0  0  0  0  0  0  0  0  0  0  0
   43.7170   33.9890   38.7290 O   0  0  0  0  0  0  0  0  0  0  0  0
   43.8010   35.4810   40.7210 O   0  0  0  0  0  0  0  0  0  0  0  0
  1 13  1  0  0  0  0
  2  1  1  0  0  0  0
  2  7  1  0  0  0  0
  3  2  2  0  0  0  0
  4  5  2  0  0  0  0
  4  3  1  0  0  0  0
  5  6  1  0  0  0  0
  6 23  1  0  0  0  0
  6  1  2  0  0  0  0
  8  3  1  0  0  0  0
  9  4  1  0  0  0  0
 10  5  1  0  0  0  0
 11 18  1  0  0  0  0
 11 16  1  0  0  0  0
 12 11  2  0  0  0  0
 13 12  1  0  0  0  0
 13 14  2  0  0  0  0
 14 15  1  0  0  0  0
 15 16  2  0  0  0  0
 15 17  1  0  0  0  0
 17 21  1  0  0  0  0
 17 20  1  0  0  0  0
 19 12  1  0  0  0  0
 22 29  2  0  0  0  0
 22 23  1  0  0  0  0
 23 24  2  0  0  0  0
 24 25  1  0  0  0  0
 24 26  1  0  0  0  0
 26 27  1  0  0  0  0
 28 26  2  0  0  0  0
 29 28  1  0  0  0  0
 30 31  1  0  0  0  0
 31 33  2  0  0  0  0
 31 22  1  0  0  0  0
 32 31  2  0  0  0  0
M  END
>  <minimizedAffinity>
-5.58839512

>  <minimizedRMSD>
1.17785585

$$$$
