
 OpenBabel03242518203D

 33 35  0  0  0  0  0  0  0  0999 V2000
   38.4360   28.8300   42.4630 C   0  0  0  0  0  0  0  0  0  0  0  0
   37.4970   28.5240   43.4250 C   0  0  0  0  0  0  0  0  0  0  0  0
   36.9020   27.3210   43.0320 C   0  0  0  0  0  0  0  0  0  0  0  0
   37.5220   26.9680   41.8470 C   0  0  0  0  0  0  0  0  0  0  0  0
   38.3880   27.8820   41.5880 O   0  0  0  0  0  0  0  0  0  0  0  0
   37.2490   29.0990   44.3270 H   0  0  0  0  0  0  0  0  0  0  0  0
   36.1330   26.8020   43.5520 H   0  0  0  0  0  0  0  0  0  0  0  0
   36.6250   25.8750   39.8330 C   0  0  0  0  0  0  0  0  0  0  0  0
   37.2210   25.7690   41.0610 C   0  0  0  0  0  0  0  0  0  0  0  0
   37.5420   24.5130   41.5580 C   0  0  0  0  0  0  0  0  0  0  0  0
   38.0150   24.4970   42.5400 H   0  0  0  0  0  0  0  0  0  0  0  0
   37.2980   23.3280   40.8920 C   0  0  0  0  0  0  0  0  0  0  0  0
   37.5650   22.3840   41.3200 H   0  0  0  0  0  0  0  0  0  0  0  0
   36.6970   23.4260   39.6540 C   0  0  0  0  0  3  0  0  0  0  0  0
   36.3790   24.6740   39.1580 C   0  0  0  0  0  3  0  0  0  0  0  0
   35.6280   28.2760   40.0530 H   0  0  0  0  0  0  0  0  0  0  0  0
   36.1980   27.4180   39.1530 S   0  0  0  0  0  0  0  0  0  0  0  0
   37.3830   28.0810   38.4910 O   0  0  0  0  0  0  0  0  0  0  0  0
   35.1210   27.1530   38.1210 O   0  0  0  0  0  0  0  0  0  0  0  0
   39.2890   30.0670   42.5440 C   0  0  0  0  0  0  0  0  0  0  0  0
   39.3930   30.4300   43.5750 H   0  0  0  0  0  0  0  0  0  0  0  0
   40.2870   29.7740   42.1560 H   0  0  0  0  0  0  0  0  0  0  0  0
   37.0350   31.8640   40.2860 C   0  0  0  0  0  0  0  0  0  0  0  0
   37.6890   33.0730   40.0510 C   0  0  0  0  0  0  0  0  0  0  0  0
   38.9070   33.2770   40.6670 C   0  0  0  0  0  0  0  0  0  0  0  0
   39.3960   32.2970   41.4600 N   0  0  0  0  0  0  0  0  0  0  0  0
   38.7340   31.1380   41.6650 C   0  0  0  0  0  0  0  0  0  0  0  0
   37.5320   30.9170   41.0680 N   0  0  0  0  0  0  0  0  0  0  0  0
   36.0750   31.6320   39.8370 H   0  0  0  0  0  0  0  0  0  0  0  0
   39.4090   34.2110   40.4840 H   0  0  0  0  0  0  0  0  0  0  0  0
   37.0400   33.9960   39.1920 N   0  0  0  0  0  0  0  0  0  0  0  0
   36.9370   34.8890   39.7160 H   0  0  0  0  0  0  0  0  0  0  0  0
   36.7160   33.8300   38.2090 H   0  0  0  0  0  0  0  0  0  0  0  0
  1 20  1  0  0  0  0
  1  2  2  0  0  0  0
  2  6  1  0  0  0  0
  3  2  1  0  0  0  0
  3  7  1  0  0  0  0
  4  3  2  0  0  0  0
  5  4  1  0  0  0  0
  5  1  1  0  0  0  0
  8  9  1  0  0  0  0
  9 10  2  0  0  0  0
  9  4  1  0  0  0  0
 10 11  1  0  0  0  0
 12 13  1  0  0  0  0
 12 10  1  0  0  0  0
 14 12  2  0  0  0  0
 15 14  1  0  0  0  0
 15  8  2  0  0  0  0
 17  8  1  0  0  0  0
 17 16  1  0  0  0  0
 18 17  2  0  0  0  0
 19 17  2  0  0  0  0
 20 21  1  0  0  0  0
 22 20  1  0  0  0  0
 23 28  1  0  0  0  0
 24 23  2  0  0  0  0
 24 25  1  0  0  0  0
 25 26  2  0  0  0  0
 26 27  1  0  0  0  0
 27 20  1  0  0  0  0
 28 27  2  0  0  0  0
 29 23  1  0  0  0  0
 30 25  1  0  0  0  0
 31 32  1  0  0  0  0
 31 24  1  0  0  0  0
 33 31  1  0  0  0  0
M  END
>  <minimizedAffinity>
-5.7697773

$$$$

 OpenBabel03242518203D

 33 35  0  0  0  0  0  0  0  0999 V2000
   36.9310   30.0160   39.2030 C   0  0  0  0  0  0  0  0  0  0  0  0
   35.7610   30.0940   39.9270 C   0  0  0  0  0  0  0  0  0  0  0  0
   35.6240   28.8740   40.5960 C   0  0  0  0  0  0  0  0  0  0  0  0
   36.7290   28.1240   40.2330 C   0  0  0  0  0  0  0  0  0  0  0  0
   37.4290   28.8480   39.4340 O   0  0  0  0  0  0  0  0  0  0  0  0
   35.0600   30.9380   39.9810 H   0  0  0  0  0  0  0  0  0  0  0  0
   34.8270   28.5990   41.2450 H   0  0  0  0  0  0  0  0  0  0  0  0
   37.7390   26.5540   41.8360 C   0  0  0  0  0  0  0  0  0  0  0  0
   37.0150   26.7630   40.6930 C   0  0  0  0  0  0  0  0  0  0  0  0
   36.5520   25.6720   39.9700 C   0  0  0  0  0  0  0  0  0  0  0  0
   35.9820   25.9060   39.0710 H   0  0  0  0  0  0  0  0  0  0  0  0
   36.7700   24.3560   40.3240 C   0  0  0  0  0  0  0  0  0  0  0  0
   36.3900   23.5500   39.7310 H   0  0  0  0  0  0  0  0  0  0  0  0
   37.4990   24.1360   41.4750 C   0  0  0  0  0  3  0  0  0  0  0  0
   37.9600   25.2200   42.1950 C   0  0  0  0  0  3  0  0  0  0  0  0
   38.9310   28.8660   42.0440 H   0  0  0  0  0  0  0  0  0  0  0  0
   38.3490   27.8770   42.7880 S   0  0  0  0  0  0  0  0  0  0  0  0
   37.2760   28.4640   43.6750 O   0  0  0  0  0  0  0  0  0  0  0  0
   39.4650   27.3150   43.6440 O   0  0  0  0  0  0  0  0  0  0  0  0
   37.4170   31.1530   38.3460 C   0  0  0  0  0  0  0  0  0  0  0  0
   37.8490   30.8020   37.4000 H   0  0  0  0  0  0  0  0  0  0  0  0
   36.5240   31.7760   38.1310 H   0  0  0  0  0  0  0  0  0  0  0  0
   40.5670   32.2720   39.8420 C   0  0  0  0  0  0  0  0  0  0  0  0
   40.2350   33.4760   40.4610 C   0  0  0  0  0  0  0  0  0  0  0  0
   38.9280   33.9100   40.3680 C   0  0  0  0  0  0  0  0  0  0  0  0
   38.0470   33.1460   39.6860 N   0  0  0  0  0  0  0  0  0  0  0  0
   38.4040   31.9840   39.0970 C   0  0  0  0  0  0  0  0  0  0  0  0
   39.6860   31.5380   39.1760 N   0  0  0  0  0  0  0  0  0  0  0  0
   41.5730   31.8670   39.8710 H   0  0  0  0  0  0  0  0  0  0  0  0
   38.6760   34.8400   40.8480 H   0  0  0  0  0  0  0  0  0  0  0  0
   41.2790   34.1570   41.1380 N   0  0  0  0  0  0  0  0  0  0  0  0
   41.3350   35.1160   40.7400 H   0  0  0  0  0  0  0  0  0  0  0  0
   41.8910   33.7820   41.9030 H   0  0  0  0  0  0  0  0  0  0  0  0
  1  5  1  0  0  0  0
  1  2  2  0  0  0  0
  2  6  1  0  0  0  0
  2  3  1  0  0  0  0
  3  7  1  0  0  0  0
  4  3  2  0  0  0  0
  4  9  1  0  0  0  0
  5  4  1  0  0  0  0
  8 15  1  0  0  0  0
  8 17  1  0  0  0  0
  9  8  2  0  0  0  0
 10 12  2  0  0  0  0
 10  9  1  0  0  0  0
 11 10  1  0  0  0  0
 12 14  1  0  0  0  0
 13 12  1  0  0  0  0
 14 15  2  0  0  0  0
 16 17  1  0  0  0  0
 17 19  2  0  0  0  0
 17 18  2  0  0  0  0
 20 27  1  0  0  0  0
 20  1  1  0  0  0  0
 21 20  1  0  0  0  0
 22 20  1  0  0  0  0
 23 29  1  0  0  0  0
 23 24  1  0  0  0  0
 24 31  1  0  0  0  0
 25 24  2  0  0  0  0
 25 30  1  0  0  0  0
 26 25  1  0  0  0  0
 27 28  1  0  0  0  0
 27 26  2  0  0  0  0
 28 23  2  0  0  0  0
 31 33  1  0  0  0  0
 32 31  1  0  0  0  0
M  END
>  <minimizedAffinity>
-5.52188444

$$$$

 OpenBabel03242518203D

 33 35  0  0  0  0  0  0  0  0999 V2000
   37.0750   29.0920   38.1350 C   0  0  0  0  0  0  0  0  0  0  0  0
   35.7210   28.8420   38.0560 C   0  0  0  0  0  0  0  0  0  0  0  0
   35.4950   27.6490   38.7490 C   0  0  0  0  0  0  0  0  0  0  0  0
   36.7350   27.2450   39.2090 C   0  0  0  0  0  0  0  0  0  0  0  0
   37.5880   28.1230   38.8170 O   0  0  0  0  0  0  0  0  0  0  0  0
   34.9560   29.4480   37.5530 H   0  0  0  0  0  0  0  0  0  0  0  0
   34.5560   27.1690   38.8820 H   0  0  0  0  0  0  0  0  0  0  0  0
   37.1460   26.1080   41.3530 C   0  0  0  0  0  0  0  0  0  0  0  0
   36.9920   26.0350   39.9940 C   0  0  0  0  0  0  0  0  0  0  0  0
   37.0800   24.8010   39.3630 C   0  0  0  0  0  0  0  0  0  0  0  0
   36.9480   24.8110   38.2820 H   0  0  0  0  0  0  0  0  0  0  0  0
   37.3180   23.6090   40.0180 C   0  0  0  0  0  0  0  0  0  0  0  0
   37.3770   22.6830   39.4830 H   0  0  0  0  0  0  0  0  0  0  0  0
   37.4750   23.6740   41.3870 C   0  0  0  0  0  3  0  0  0  0  0  0
   37.3870   24.8990   42.0150 C   0  0  0  0  0  3  0  0  0  0  0  0
   36.4890   28.6310   41.4680 H   0  0  0  0  0  0  0  0  0  0  0  0
   37.0470   27.6220   42.2050 S   0  0  0  0  0  0  0  0  0  0  0  0
   36.3120   27.4750   43.5160 O   0  0  0  0  0  0  0  0  0  0  0  0
   38.4720   28.0650   42.4670 O   0  0  0  0  0  0  0  0  0  0  0  0
   37.7020   30.3030   37.5000 C   0  0  0  0  0  0  0  0  0  0  0  0
   38.6230   30.0530   36.9550 H   0  0  0  0  0  0  0  0  0  0  0  0
   36.9490   30.6960   36.7850 H   0  0  0  0  0  0  0  0  0  0  0  0
   39.2930   32.1180   40.2530 C   0  0  0  0  0  0  0  0  0  0  0  0
   38.4880   33.2430   40.4230 C   0  0  0  0  0  0  0  0  0  0  0  0
   37.3950   33.3840   39.5930 C   0  0  0  0  0  0  0  0  0  0  0  0
   37.1670   32.4280   38.6660 N   0  0  0  0  0  0  0  0  0  0  0  0
   37.9690   31.3500   38.5300 C   0  0  0  0  0  0  0  0  0  0  0  0
   39.0520   31.1910   39.3370 N   0  0  0  0  0  0  0  0  0  0  0  0
   40.1700   31.9380   40.8680 H   0  0  0  0  0  0  0  0  0  0  0  0
   36.7760   34.2550   39.7270 H   0  0  0  0  0  0  0  0  0  0  0  0
   38.8670   34.1530   41.4430 N   0  0  0  0  0  0  0  0  0  0  0  0
   38.9770   35.0880   41.0010 H   0  0  0  0  0  0  0  0  0  0  0  0
   39.0130   33.9430   42.4600 H   0  0  0  0  0  0  0  0  0  0  0  0
  1  5  1  0  0  0  0
  2  1  2  0  0  0  0
  2  3  1  0  0  0  0
  3  7  1  0  0  0  0
  3  4  2  0  0  0  0
  4  9  1  0  0  0  0
  5  4  1  0  0  0  0
  6  2  1  0  0  0  0
  8 15  1  0  0  0  0
  8 17  1  0  0  0  0
  9  8  2  0  0  0  0
 10  9  1  0  0  0  0
 10 12  2  0  0  0  0
 11 10  1  0  0  0  0
 12 14  1  0  0  0  0
 13 12  1  0  0  0  0
 14 15  2  0  0  0  0
 16 17  1  0  0  0  0
 17 19  2  0  0  0  0
 17 18  2  0  0  0  0
 20  1  1  0  0  0  0
 20 27  1  0  0  0  0
 21 20  1  0  0  0  0
 22 20  1  0  0  0  0
 23 24  1  0  0  0  0
 23 29  1  0  0  0  0
 24 31  1  0  0  0  0
 25 30  1  0  0  0  0
 25 24  2  0  0  0  0
 26 25  1  0  0  0  0
 27 26  2  0  0  0  0
 27 28  1  0  0  0  0
 28 23  2  0  0  0  0
 31 33  1  0  0  0  0
 32 31  1  0  0  0  0
M  END
>  <minimizedAffinity>
-5.49067163

$$$$

 OpenBabel03242518203D

 33 35  0  0  0  0  0  0  0  0999 V2000
   36.7470   29.2640   41.4430 C   0  0  0  0  0  0  0  0  0  0  0  0
   37.0440   28.8230   42.7150 C   0  0  0  0  0  0  0  0  0  0  0  0
   37.1720   27.4330   42.6350 C   0  0  0  0  0  0  0  0  0  0  0  0
   36.9430   27.1140   41.3090 C   0  0  0  0  0  0  0  0  0  0  0  0
   36.7070   28.2160   40.6900 O   0  0  0  0  0  0  0  0  0  0  0  0
   37.1600   29.4280   43.6240 H   0  0  0  0  0  0  0  0  0  0  0  0
   37.3980   26.7760   43.4400 H   0  0  0  0  0  0  0  0  0  0  0  0
   36.5660   25.5320   39.4610 C   0  0  0  0  0  0  0  0  0  0  0  0
   36.9720   25.7600   40.7480 C   0  0  0  0  0  0  0  0  0  0  0  0
   37.4130   24.6960   41.5230 C   0  0  0  0  0  0  0  0  0  0  0  0
   37.7220   24.9430   42.5380 H   0  0  0  0  0  0  0  0  0  0  0  0
   37.4770   23.3880   41.0830 C   0  0  0  0  0  0  0  0  0  0  0  0
   37.8250   22.6030   41.7220 H   0  0  0  0  0  0  0  0  0  0  0  0
   37.0690   23.1500   39.7870 C   0  0  0  0  0  3  0  0  0  0  0  0
   36.6310   24.2070   39.0160 C   0  0  0  0  0  3  0  0  0  0  0  0
   35.4410   27.8630   39.1250 H   0  0  0  0  0  0  0  0  0  0  0  0
   36.0030   26.8220   38.4380 S   0  0  0  0  0  0  0  0  0  0  0  0
   37.0990   27.3340   37.5340 O   0  0  0  0  0  0  0  0  0  0  0  0
   34.8780   26.2490   37.5990 O   0  0  0  0  0  0  0  0  0  0  0  0
   36.5360   30.7210   41.1310 C   0  0  0  0  0  0  0  0  0  0  0  0
   35.4760   30.9580   40.9670 H   0  0  0  0  0  0  0  0  0  0  0  0
   36.9010   31.2780   42.0190 H   0  0  0  0  0  0  0  0  0  0  0  0
   39.3560   31.9090   39.1210 C   0  0  0  0  0  0  0  0  0  0  0  0
   38.8760   31.8660   37.8120 C   0  0  0  0  0  0  0  0  0  0  0  0
   37.5820   31.4290   37.6140 C   0  0  0  0  0  0  0  0  0  0  0  0
   36.8560   31.0690   38.6940 N   0  0  0  0  0  0  0  0  0  0  0  0
   37.3530   31.1230   39.9490 C   0  0  0  0  0  0  0  0  0  0  0  0
   38.6250   31.5500   40.1670 N   0  0  0  0  0  0  0  0  0  0  0  0
   40.3620   32.2410   39.3550 H   0  0  0  0  0  0  0  0  0  0  0  0
   37.2160   31.3980   36.6020 H   0  0  0  0  0  0  0  0  0  0  0  0
   39.7690   32.2790   36.7900 N   0  0  0  0  0  0  0  0  0  0  0  0
   39.8440   31.4970   36.1090 H   0  0  0  0  0  0  0  0  0  0  0  0
   40.2690   33.1980   36.7150 H   0  0  0  0  0  0  0  0  0  0  0  0
  1  2  2  0  0  0  0
  2  6  1  0  0  0  0
  3  2  1  0  0  0  0
  3  7  1  0  0  0  0
  4  3  2  0  0  0  0
  5  4  1  0  0  0  0
  5  1  1  0  0  0  0
  8  9  1  0  0  0  0
  9  4  1  0  0  0  0
  9 10  2  0  0  0  0
 10 11  1  0  0  0  0
 12 10  1  0  0  0  0
 12 13  1  0  0  0  0
 14 12  2  0  0  0  0
 15  8  2  0  0  0  0
 15 14  1  0  0  0  0
 17 16  1  0  0  0  0
 17  8  1  0  0  0  0
 18 17  2  0  0  0  0
 19 17  2  0  0  0  0
 20  1  1  0  0  0  0
 20 22  1  0  0  0  0
 21 20  1  0  0  0  0
 23 29  1  0  0  0  0
 23 28  1  0  0  0  0
 24 23  2  0  0  0  0
 25 24  1  0  0  0  0
 25 26  2  0  0  0  0
 26 27  1  0  0  0  0
 27 28  2  0  0  0  0
 27 20  1  0  0  0  0
 30 25  1  0  0  0  0
 31 24  1  0  0  0  0
 32 31  1  0  0  0  0
 33 31  1  0  0  0  0
M  END
>  <minimizedAffinity>
-5.44400549

$$$$

 OpenBabel03242518203D

 33 35  0  0  0  0  0  0  0  0999 V2000
   37.2700   29.3690   41.7660 C   0  0  0  0  0  0  0  0  0  0  0  0
   37.6240   29.0960   43.0700 C   0  0  0  0  0  0  0  0  0  0  0  0
   37.9680   27.7420   43.1150 C   0  0  0  0  0  0  0  0  0  0  0  0
   37.8010   27.2720   41.8250 C   0  0  0  0  0  0  0  0  0  0  0  0
   37.3990   28.2640   41.1120 O   0  0  0  0  0  0  0  0  0  0  0  0
   37.6380   29.7910   43.9210 H   0  0  0  0  0  0  0  0  0  0  0  0
   38.2900   27.2040   43.9740 H   0  0  0  0  0  0  0  0  0  0  0  0
   39.2540   25.5400   40.8520 C   0  0  0  0  0  0  0  0  0  0  0  0
   38.0450   25.8950   41.3880 C   0  0  0  0  0  0  0  0  0  0  0  0
   37.0480   24.9380   41.5160 C   0  0  0  0  0  0  0  0  0  0  0  0
   36.1100   25.2840   41.9500 H   0  0  0  0  0  0  0  0  0  0  0  0
   37.1850   23.6180   41.1350 C   0  0  0  0  0  0  0  0  0  0  0  0
   36.3830   22.9180   41.2550 H   0  0  0  0  0  0  0  0  0  0  0  0
   38.4000   23.2520   40.5930 C   0  0  0  0  0  3  0  0  0  0  0  0
   39.3920   24.2020   40.4660 C   0  0  0  0  0  3  0  0  0  0  0  0
   40.1270   27.9180   40.2250 H   0  0  0  0  0  0  0  0  0  0  0  0
   40.5450   26.6920   40.6640 S   0  0  0  0  0  0  0  0  0  0  0  0
   41.3420   26.8460   41.9380 O   0  0  0  0  0  0  0  0  0  0  0  0
   41.4410   26.1610   39.5640 O   0  0  0  0  0  0  0  0  0  0  0  0
   36.8350   30.7400   41.3270 C   0  0  0  0  0  0  0  0  0  0  0  0
   35.7520   30.7920   41.1480 H   0  0  0  0  0  0  0  0  0  0  0  0
   37.1010   31.4250   42.1590 H   0  0  0  0  0  0  0  0  0  0  0  0
   39.6170   31.6270   39.1170 C   0  0  0  0  0  0  0  0  0  0  0  0
   39.0000   31.9210   37.9030 C   0  0  0  0  0  0  0  0  0  0  0  0
   37.6260   31.8160   37.8360 C   0  0  0  0  0  0  0  0  0  0  0  0
   36.9580   31.4370   38.9470 N   0  0  0  0  0  0  0  0  0  0  0  0
   37.5890   31.1590   40.1090 C   0  0  0  0  0  0  0  0  0  0  0  0
   38.9420   31.2550   40.1960 N   0  0  0  0  0  0  0  0  0  0  0  0
   40.6930   31.6860   39.2470 H   0  0  0  0  0  0  0  0  0  0  0  0
   37.1530   32.0440   36.8960 H   0  0  0  0  0  0  0  0  0  0  0  0
   39.8470   32.3050   36.8310 N   0  0  0  0  0  0  0  0  0  0  0  0
   39.6590   31.6580   36.0390 H   0  0  0  0  0  0  0  0  0  0  0  0
   40.5400   33.0920   36.8190 H   0  0  0  0  0  0  0  0  0  0  0  0
  1  2  2  0  0  0  0
  2  3  1  0  0  0  0
  2  6  1  0  0  0  0
  3  7  1  0  0  0  0
  4  3  2  0  0  0  0
  5  1  1  0  0  0  0
  5  4  1  0  0  0  0
  8  9  1  0  0  0  0
  9 10  2  0  0  0  0
  9  4  1  0  0  0  0
 10 11  1  0  0  0  0
 12 13  1  0  0  0  0
 12 10  1  0  0  0  0
 14 12  2  0  0  0  0
 15 14  1  0  0  0  0
 15  8  2  0  0  0  0
 16 17  1  0  0  0  0
 17  8  1  0  0  0  0
 17 18  2  0  0  0  0
 19 17  2  0  0  0  0
 20  1  1  0  0  0  0
 20 22  1  0  0  0  0
 21 20  1  0  0  0  0
 23 29  1  0  0  0  0
 23 28  1  0  0  0  0
 24 23  2  0  0  0  0
 25 24  1  0  0  0  0
 25 26  2  0  0  0  0
 26 27  1  0  0  0  0
 27 28  2  0  0  0  0
 27 20  1  0  0  0  0
 30 25  1  0  0  0  0
 31 24  1  0  0  0  0
 32 31  1  0  0  0  0
 33 31  1  0  0  0  0
M  END
>  <minimizedAffinity>
-5.38899612

$$$$

 OpenBabel03242518203D

 33 35  0  0  0  0  0  0  0  0999 V2000
   38.4850   28.9940   42.4230 C   0  0  0  0  0  0  0  0  0  0  0  0
   37.5620   28.6430   43.3850 C   0  0  0  0  0  0  0  0  0  0  0  0
   37.0700   27.3850   43.0260 C   0  0  0  0  0  0  0  0  0  0  0  0
   37.7290   27.0470   41.8580 C   0  0  0  0  0  0  0  0  0  0  0  0
   38.5220   28.0190   41.5780 O   0  0  0  0  0  0  0  0  0  0  0  0
   37.2590   29.2240   44.2670 H   0  0  0  0  0  0  0  0  0  0  0  0
   36.3390   26.8220   43.5550 H   0  0  0  0  0  0  0  0  0  0  0  0
   38.3260   24.7130   41.3520 C   0  0  0  0  0  0  0  0  0  0  0  0
   37.5350   25.8040   41.1080 C   0  0  0  0  0  0  0  0  0  0  0  0
   36.5420   25.7230   40.1400 C   0  0  0  0  0  0  0  0  0  0  0  0
   35.9470   26.6240   39.9940 H   0  0  0  0  0  0  0  0  0  0  0  0
   36.2840   24.5970   39.3840 C   0  0  0  0  0  0  0  0  0  0  0  0
   35.5050   24.5870   38.6490 H   0  0  0  0  0  0  0  0  0  0  0  0
   37.0770   23.4940   39.6230 C   0  0  0  0  0  3  0  0  0  0  0  0
   38.0630   23.5720   40.5860 C   0  0  0  0  0  3  0  0  0  0  0  0
   39.5380   25.8450   43.3660 H   0  0  0  0  0  0  0  0  0  0  0  0
   39.5870   24.7480   42.5500 S   0  0  0  0  0  0  0  0  0  0  0  0
   39.5980   23.4880   43.3830 O   0  0  0  0  0  0  0  0  0  0  0  0
   40.8960   24.8720   41.7970 O   0  0  0  0  0  0  0  0  0  0  0  0
   39.2340   30.2970   42.4710 C   0  0  0  0  0  0  0  0  0  0  0  0
   39.2900   30.7040   43.4900 H   0  0  0  0  0  0  0  0  0  0  0  0
   40.2600   30.0720   42.1120 H   0  0  0  0  0  0  0  0  0  0  0  0
   38.6810   33.3760   40.5670 C   0  0  0  0  0  0  0  0  0  0  0  0
   37.5090   33.1240   39.8560 C   0  0  0  0  0  0  0  0  0  0  0  0
   36.9030   31.8960   40.0260 C   0  0  0  0  0  0  0  0  0  0  0  0
   37.4770   31.0100   40.8700 N   0  0  0  0  0  0  0  0  0  0  0  0
   38.6140   31.2880   41.5440 C   0  0  0  0  0  0  0  0  0  0  0  0
   39.2280   32.4920   41.3900 N   0  0  0  0  0  0  0  0  0  0  0  0
   39.2140   34.3180   40.4850 H   0  0  0  0  0  0  0  0  0  0  0  0
   35.9980   31.7050   39.4750 H   0  0  0  0  0  0  0  0  0  0  0  0
   37.0380   34.1610   39.0110 N   0  0  0  0  0  0  0  0  0  0  0  0
   36.9460   33.7650   38.0530 H   0  0  0  0  0  0  0  0  0  0  0  0
   36.8160   35.1500   39.2800 H   0  0  0  0  0  0  0  0  0  0  0  0
  1 20  1  0  0  0  0
  1  2  2  0  0  0  0
  2  6  1  0  0  0  0
  3  2  1  0  0  0  0
  3  7  1  0  0  0  0
  4  3  2  0  0  0  0
  5  4  1  0  0  0  0
  5  1  1  0  0  0  0
  8 17  1  0  0  0  0
  9  8  1  0  0  0  0
  9  4  1  0  0  0  0
 10  9  2  0  0  0  0
 11 10  1  0  0  0  0
 12 14  2  0  0  0  0
 12 10  1  0  0  0  0
 13 12  1  0  0  0  0
 14 15  1  0  0  0  0
 15  8  2  0  0  0  0
 17 16  1  0  0  0  0
 17 18  2  0  0  0  0
 19 17  2  0  0  0  0
 20 21  1  0  0  0  0
 22 20  1  0  0  0  0
 23 28  1  0  0  0  0
 24 25  1  0  0  0  0
 24 23  2  0  0  0  0
 25 26  2  0  0  0  0
 26 27  1  0  0  0  0
 27 20  1  0  0  0  0
 28 27  2  0  0  0  0
 29 23  1  0  0  0  0
 30 25  1  0  0  0  0
 31 33  1  0  0  0  0
 31 24  1  0  0  0  0
 32 31  1  0  0  0  0
M  END
>  <minimizedAffinity>
-5.23874712

$$$$

 OpenBabel03242518203D

 33 35  0  0  0  0  0  0  0  0999 V2000
   38.6110   28.6280   42.3000 C   0  0  0  0  0  0  0  0  0  0  0  0
   37.6070   28.2220   43.1520 C   0  0  0  0  0  0  0  0  0  0  0  0
   36.5040   27.9120   42.3500 C   0  0  0  0  0  0  0  0  0  0  0  0
   36.9110   28.1520   41.0490 C   0  0  0  0  0  0  0  0  0  0  0  0
   38.1290   28.5590   41.1050 O   0  0  0  0  0  0  0  0  0  0  0  0
   37.6450   28.1490   44.2470 H   0  0  0  0  0  0  0  0  0  0  0  0
   35.5580   27.5660   42.6890 H   0  0  0  0  0  0  0  0  0  0  0  0
   36.2090   26.8380   39.0900 C   0  0  0  0  0  0  0  0  0  0  0  0
   36.0810   27.9660   39.8570 C   0  0  0  0  0  0  0  0  0  0  0  0
   35.1560   28.9360   39.4940 C   0  0  0  0  0  0  0  0  0  0  0  0
   35.1030   29.8080   40.1450 H   0  0  0  0  0  0  0  0  0  0  0  0
   34.3310   28.8490   38.3900 C   0  0  0  0  0  0  0  0  0  0  0  0
   33.6340   29.6260   38.1540 H   0  0  0  0  0  0  0  0  0  0  0  0
   34.4540   27.7160   37.6130 C   0  0  0  0  0  3  0  0  0  0  0  0
   35.3720   26.7500   37.9720 C   0  0  0  0  0  3  0  0  0  0  0  0
   38.5690   26.0590   39.8840 H   0  0  0  0  0  0  0  0  0  0  0  0
   37.3480   25.5850   39.4900 S   0  0  0  0  0  0  0  0  0  0  0  0
   36.7980   24.6460   40.5370 O   0  0  0  0  0  0  0  0  0  0  0  0
   37.6150   24.8200   38.2100 O   0  0  0  0  0  0  0  0  0  0  0  0
   39.9660   29.0460   42.8040 C   0  0  0  0  0  0  0  0  0  0  0  0
   40.4390   29.7900   42.1480 H   0  0  0  0  0  0  0  0  0  0  0  0
   39.7930   29.4980   43.8030 H   0  0  0  0  0  0  0  0  0  0  0  0
   42.8620   26.9840   43.6790 C   0  0  0  0  0  0  0  0  0  0  0  0
   42.4900   25.6990   43.2860 C   0  0  0  0  0  0  0  0  0  0  0  0
   41.2430   25.5350   42.7190 C   0  0  0  0  0  0  0  0  0  0  0  0
   40.4560   26.6230   42.5760 N   0  0  0  0  0  0  0  0  0  0  0  0
   40.8490   27.8540   42.9690 C   0  0  0  0  0  0  0  0  0  0  0  0
   42.0730   28.0390   43.5300 N   0  0  0  0  0  0  0  0  0  0  0  0
   43.8260   27.1920   44.1330 H   0  0  0  0  0  0  0  0  0  0  0  0
   40.9600   24.5410   42.4170 H   0  0  0  0  0  0  0  0  0  0  0  0
   43.4350   24.6640   43.5070 N   0  0  0  0  0  0  0  0  0  0  0  0
   42.9660   23.9330   44.0790 H   0  0  0  0  0  0  0  0  0  0  0  0
   44.4250   24.6230   43.1640 H   0  0  0  0  0  0  0  0  0  0  0  0
  1 20  1  0  0  0  0
  1  2  2  0  0  0  0
  2  6  1  0  0  0  0
  3  7  1  0  0  0  0
  3  2  1  0  0  0  0
  4  5  1  0  0  0  0
  4  3  2  0  0  0  0
  5  1  1  0  0  0  0
  8 17  1  0  0  0  0
  8  9  1  0  0  0  0
  9  4  1  0  0  0  0
 10  9  2  0  0  0  0
 10 11  1  0  0  0  0
 12 10  1  0  0  0  0
 13 12  1  0  0  0  0
 14 15  1  0  0  0  0
 14 12  2  0  0  0  0
 15  8  2  0  0  0  0
 17 16  1  0  0  0  0
 17 18  2  0  0  0  0
 19 17  2  0  0  0  0
 20 27  1  0  0  0  0
 20 22  1  0  0  0  0
 21 20  1  0  0  0  0
 23 29  1  0  0  0  0
 24 31  1  0  0  0  0
 24 23  2  0  0  0  0
 25 24  1  0  0  0  0
 26 25  2  0  0  0  0
 26 27  1  0  0  0  0
 27 28  2  0  0  0  0
 28 23  1  0  0  0  0
 30 25  1  0  0  0  0
 31 32  1  0  0  0  0
 33 31  1  0  0  0  0
M  END
>  <minimizedAffinity>
-5.18073797

$$$$

 OpenBabel03242518203D

 33 35  0  0  0  0  0  0  0  0999 V2000
   37.6980   29.5750   42.4500 C   0  0  0  0  0  0  0  0  0  0  0  0
   36.6120   29.8790   41.6570 C   0  0  0  0  0  0  0  0  0  0  0  0
   37.0570   30.8080   40.7120 C   0  0  0  0  0  0  0  0  0  0  0  0
   38.3960   31.0130   40.9920 C   0  0  0  0  0  0  0  0  0  0  0  0
   38.6880   30.2710   42.0010 O   0  0  0  0  0  0  0  0  0  0  0  0
   35.5920   29.4810   41.7360 H   0  0  0  0  0  0  0  0  0  0  0  0
   36.4700   31.2540   39.9450 H   0  0  0  0  0  0  0  0  0  0  0  0
   39.9880   31.4640   39.1710 C   0  0  0  0  0  0  0  0  0  0  0  0
   39.2850   31.9150   40.2560 C   0  0  0  0  0  0  0  0  0  0  0  0
   39.4210   33.2380   40.6550 C   0  0  0  0  0  0  0  0  0  0  0  0
   38.8340   33.5330   41.5250 H   0  0  0  0  0  0  0  0  0  0  0  0
   40.2320   34.1600   40.0250 C   0  0  0  0  0  0  0  0  0  0  0  0
   40.3010   35.1700   40.3740 H   0  0  0  0  0  0  0  0  0  0  0  0
   40.9440   33.7140   38.9310 C   0  0  0  0  0  3  0  0  0  0  0  0
   40.8100   32.4000   38.5320 C   0  0  0  0  0  3  0  0  0  0  0  0
   39.8280   28.9010   39.6320 H   0  0  0  0  0  0  0  0  0  0  0  0
   39.8630   29.8190   38.6190 S   0  0  0  0  0  0  0  0  0  0  0  0
   38.6730   29.6260   37.7090 O   0  0  0  0  0  0  0  0  0  0  0  0
   41.1390   29.5200   37.8570 O   0  0  0  0  0  0  0  0  0  0  0  0
   37.6060   28.5980   43.5910 C   0  0  0  0  0  0  0  0  0  0  0  0
   38.2610   28.8770   44.4270 H   0  0  0  0  0  0  0  0  0  0  0  0
   36.5490   28.6250   43.9300 H   0  0  0  0  0  0  0  0  0  0  0  0
   37.1880   25.2710   42.1200 C   0  0  0  0  0  0  0  0  0  0  0  0
   38.4490   24.6890   42.2420 C   0  0  0  0  0  0  0  0  0  0  0  0
   39.4490   25.4370   42.8300 C   0  0  0  0  0  0  0  0  0  0  0  0
   39.1510   26.6850   43.2530 N   0  0  0  0  0  0  0  0  0  0  0  0
   37.9170   27.2170   43.1180 C   0  0  0  0  0  0  0  0  0  0  0  0
   36.9170   26.4980   42.5410 N   0  0  0  0  0  0  0  0  0  0  0  0
   36.3520   24.7460   41.6680 H   0  0  0  0  0  0  0  0  0  0  0  0
   40.4210   24.9840   42.9230 H   0  0  0  0  0  0  0  0  0  0  0  0
   38.5950   23.3680   41.7470 N   0  0  0  0  0  0  0  0  0  0  0  0
   39.3720   23.3800   41.0560 H   0  0  0  0  0  0  0  0  0  0  0  0
   38.0360   22.5230   42.0150 H   0  0  0  0  0  0  0  0  0  0  0  0
  1 20  1  0  0  0  0
  2  6  1  0  0  0  0
  2  1  2  0  0  0  0
  3  4  2  0  0  0  0
  3  2  1  0  0  0  0
  4  5  1  0  0  0  0
  5  1  1  0  0  0  0
  7  3  1  0  0  0  0
  8  9  1  0  0  0  0
  9 10  2  0  0  0  0
  9  4  1  0  0  0  0
 10 11  1  0  0  0  0
 12 13  1  0  0  0  0
 12 10  1  0  0  0  0
 14 12  2  0  0  0  0
 15 14  1  0  0  0  0
 15  8  2  0  0  0  0
 17  8  1  0  0  0  0
 17 16  1  0  0  0  0
 18 17  2  0  0  0  0
 19 17  2  0  0  0  0
 20 22  1  0  0  0  0
 20 21  1  0  0  0  0
 23 24  2  0  0  0  0
 23 28  1  0  0  0  0
 24 25  1  0  0  0  0
 25 30  1  0  0  0  0
 25 26  2  0  0  0  0
 27 26  1  0  0  0  0
 27 20  1  0  0  0  0
 28 27  2  0  0  0  0
 29 23  1  0  0  0  0
 31 33  1  0  0  0  0
 31 24  1  0  0  0  0
 32 31  1  0  0  0  0
M  END
>  <minimizedAffinity>
-5.14743233

$$$$

 OpenBabel03242518203D

 33 35  0  0  0  0  0  0  0  0999 V2000
   36.7230   28.4100   40.9440 C   0  0  0  0  0  0  0  0  0  0  0  0
   36.2810   28.2760   42.2430 C   0  0  0  0  0  0  0  0  0  0  0  0
   37.4100   28.0090   43.0230 C   0  0  0  0  0  0  0  0  0  0  0  0
   38.4770   27.9960   42.1420 C   0  0  0  0  0  0  0  0  0  0  0  0
   38.0020   28.2340   40.9710 O   0  0  0  0  0  0  0  0  0  0  0  0
   35.2500   28.3590   42.6130 H   0  0  0  0  0  0  0  0  0  0  0  0
   37.4240   27.8500   44.0740 H   0  0  0  0  0  0  0  0  0  0  0  0
   40.3650   26.4770   42.5690 C   0  0  0  0  0  0  0  0  0  0  0  0
   39.8740   27.7540   42.5100 C   0  0  0  0  0  0  0  0  0  0  0  0
   40.7120   28.8220   42.8020 C   0  0  0  0  0  0  0  0  0  0  0  0
   40.2610   29.8110   42.7360 H   0  0  0  0  0  0  0  0  0  0  0  0
   42.0400   28.6920   43.1570 C   0  0  0  0  0  0  0  0  0  0  0  0
   42.6440   29.5500   43.3720 H   0  0  0  0  0  0  0  0  0  0  0  0
   42.5430   27.4090   43.2190 C   0  0  0  0  0  3  0  0  0  0  0  0
   41.7110   26.3470   42.9280 C   0  0  0  0  0  3  0  0  0  0  0  0
   38.0610   25.2520   42.5870 H   0  0  0  0  0  0  0  0  0  0  0  0
   39.3680   25.0960   42.2150 S   0  0  0  0  0  0  0  0  0  0  0  0
   39.4450   24.7140   40.7560 O   0  0  0  0  0  0  0  0  0  0  0  0
   39.8890   23.9570   43.0680 O   0  0  0  0  0  0  0  0  0  0  0  0
   35.7830   28.7050   39.8070 C   0  0  0  0  0  0  0  0  0  0  0  0
   35.4360   27.7890   39.3090 H   0  0  0  0  0  0  0  0  0  0  0  0
   34.9140   29.2270   40.2580 H   0  0  0  0  0  0  0  0  0  0  0  0
   37.3310   31.6970   38.3700 C   0  0  0  0  0  0  0  0  0  0  0  0
   37.6140   31.3300   37.0550 C   0  0  0  0  0  0  0  0  0  0  0  0
   37.2750   30.0530   36.6560 C   0  0  0  0  0  0  0  0  0  0  0  0
   36.6900   29.2340   37.5570 N   0  0  0  0  0  0  0  0  0  0  0  0
   36.4300   29.6240   38.8240 C   0  0  0  0  0  0  0  0  0  0  0  0
   36.7560   30.8770   39.2390 N   0  0  0  0  0  0  0  0  0  0  0  0
   37.5680   32.6830   38.7570 H   0  0  0  0  0  0  0  0  0  0  0  0
   37.4950   29.7730   35.6400 H   0  0  0  0  0  0  0  0  0  0  0  0
   38.2310   32.3090   36.2360 N   0  0  0  0  0  0  0  0  0  0  0  0
   39.1100   31.8950   35.8650 H   0  0  0  0  0  0  0  0  0  0  0  0
   37.8830   33.2760   36.0290 H   0  0  0  0  0  0  0  0  0  0  0  0
  1  5  1  0  0  0  0
  1  2  2  0  0  0  0
  2  6  1  0  0  0  0
  2  3  1  0  0  0  0
  3  7  1  0  0  0  0
  4  9  1  0  0  0  0
  4  3  2  0  0  0  0
  5  4  1  0  0  0  0
  8 15  1  0  0  0  0
  9  8  2  0  0  0  0
  9 10  1  0  0  0  0
 10 12  2  0  0  0  0
 11 10  1  0  0  0  0
 12 14  1  0  0  0  0
 12 13  1  0  0  0  0
 15 14  2  0  0  0  0
 17  8  1  0  0  0  0
 17 16  1  0  0  0  0
 17 19  2  0  0  0  0
 18 17  2  0  0  0  0
 20 22  1  0  0  0  0
 20  1  1  0  0  0  0
 21 20  1  0  0  0  0
 23 29  1  0  0  0  0
 23 28  1  0  0  0  0
 24 23  2  0  0  0  0
 25 24  1  0  0  0  0
 25 26  2  0  0  0  0
 26 27  1  0  0  0  0
 27 28  2  0  0  0  0
 27 20  1  0  0  0  0
 30 25  1  0  0  0  0
 31 24  1  0  0  0  0
 32 31  1  0  0  0  0
 33 31  1  0  0  0  0
M  END
>  <minimizedAffinity>
-5.10201216

$$$$
