
 OpenBabel03242522273D

 41 44  0  0  0  0  0  0  0  0999 V2000
   46.7730   33.0010   38.7070 C   0  0  0  0  0  0  0  0  0  0  0  0
   45.5450   33.2320   38.1030 C   0  0  0  0  0  0  0  0  0  0  0  0
   45.2190   32.5120   36.9790 C   0  0  0  0  0  0  0  0  0  0  0  0
   46.1000   31.5790   36.4630 C   0  0  0  0  0  0  0  0  0  0  0  0
   47.3080   31.4120   37.1380 C   0  0  0  0  0  0  0  0  0  0  0  0
   47.6710   32.0880   38.2420 C   0  0  0  0  0  0  0  0  0  0  0  0
   44.7640   33.9030   38.3550 H   0  0  0  0  0  0  0  0  0  0  0  0
   44.2570   32.6540   36.4590 H   0  0  0  0  0  0  0  0  0  0  0  0
   45.7550   31.0470   35.5510 H   0  0  0  0  0  0  0  0  0  0  0  0
   47.8530   30.6470   36.5840 H   0  0  0  0  0  0  0  0  0  0  0  0
   45.4280   33.2130   41.1480 F   0  0  0  0  0  0  0  0  0  0  0  0
   46.5770   33.9370   41.0230 C   0  0  0  0  0  0  0  0  0  0  0  0
   47.0050   34.7360   42.0320 C   0  0  0  0  0  0  0  0  0  0  0  0
   48.1290   35.4980   41.7750 C   0  0  0  0  0  0  0  0  0  0  0  0
   48.7890   35.4630   40.5620 C   0  0  0  0  0  0  0  0  0  0  0  0
   48.2640   34.6200   39.6210 C   0  0  0  0  0  0  0  0  0  0  0  0
   47.1740   33.8420   39.8070 C   0  0  0  0  0  0  0  0  0  0  0  0
   48.3740   36.0970   42.6750 H   0  0  0  0  0  0  0  0  0  0  0  0
   49.6080   36.1400   40.6290 H   0  0  0  0  0  0  0  0  0  0  0  0
   48.9400   34.8680   38.8510 H   0  0  0  0  0  0  0  0  0  0  0  0
   44.5270   35.8070   44.6830 C   0  0  0  0  0  0  0  0  0  0  0  0
   45.2620   35.7620   43.4970 C   0  0  0  0  0  0  0  0  0  0  0  0
   46.2450   34.7680   43.2710 C   0  0  0  0  0  0  0  0  0  0  0  0
   46.4280   33.8770   44.2560 N   0  0  0  0  0  0  0  0  0  0  0  0
   45.7060   33.9380   45.3950 C   0  0  0  0  0  0  0  0  0  0  0  0
   44.7850   34.8680   45.6100 N   0  0  0  0  0  0  0  0  0  0  0  0
   43.8040   36.5760   44.7950 H   0  0  0  0  0  0  0  0  0  0  0  0
   45.0650   36.5030   42.7530 H   0  0  0  0  0  0  0  0  0  0  0  0
   45.8930   33.1860   46.1690 H   0  0  0  0  0  0  0  0  0  0  0  0
   49.2000   30.7510   39.7390 C   0  0  0  0  0  0  0  0  0  0  0  0
   48.8950   31.5490   38.6420 C   0  0  0  0  0  0  0  0  0  0  0  0
   49.9650   31.9840   37.8180 C   0  0  0  0  0  0  0  0  0  0  0  0
   49.8470   32.6170   36.9240 H   0  0  0  0  0  0  0  0  0  0  0  0
   51.3070   31.6530   38.0500 C   0  0  0  0  0  0  0  0  0  0  0  0
   52.1020   31.9850   37.4260 H   0  0  0  0  0  0  0  0  0  0  0  0
   51.5700   30.8480   39.1660 C   0  0  0  0  0  0  0  0  0  0  0  0
   50.5260   30.4210   39.9730 C   0  0  0  0  0  0  0  0  0  0  0  0
   47.0690   31.1810   41.2170 H   0  0  0  0  0  0  0  0  0  0  0  0
   47.8680   30.2590   40.6850 S   0  0  0  0  0  0  0  0  0  0  0  0
   47.1140   29.0810   40.0680 O   0  0  0  0  0  0  0  0  0  0  0  0
   48.4730   29.5830   41.9030 O   0  0  0  0  0  0  0  0  0  0  0  0
  1 17  1  0  0  0  0
  2  7  1  0  0  0  0
  2  1  2  0  0  0  0
  3  2  1  0  0  0  0
  4  3  2  0  0  0  0
  4  5  1  0  0  0  0
  5  6  2  0  0  0  0
  6 31  1  0  0  0  0
  6  1  1  0  0  0  0
  8  3  1  0  0  0  0
  9  4  1  0  0  0  0
 10  5  1  0  0  0  0
 12 11  1  0  0  0  0
 12 13  1  0  0  0  0
 13 23  1  0  0  0  0
 14 13  2  0  0  0  0
 14 18  1  0  0  0  0
 15 19  1  0  0  0  0
 15 14  1  0  0  0  0
 16 17  1  0  0  0  0
 16 15  2  0  0  0  0
 17 12  2  0  0  0  0
 20 16  1  0  0  0  0
 21 27  1  0  0  0  0
 21 26  1  0  0  0  0
 22 21  2  0  0  0  0
 23 22  1  0  0  0  0
 23 24  2  0  0  0  0
 24 25  1  0  0  0  0
 25 26  2  0  0  0  0
 25 29  1  0  0  0  0
 28 22  1  0  0  0  0
 30 37  1  0  0  0  0
 30 39  1  0  0  0  0
 31 30  2  0  0  0  0
 32 34  2  0  0  0  0
 32 31  1  0  0  0  0
 33 32  1  0  0  0  0
 34 36  1  0  0  0  0
 35 34  1  0  0  0  0
 36 37  2  0  0  0  0
 39 38  1  0  0  0  0
 39 41  2  0  0  0  0
 40 39  2  0  0  0  0
M  END
>  <minimizedAffinity>
-5.82642889

>  <minimizedRMSD>
2.54328465

$$$$
