
 OpenBabel03242520223D

 47 50  0  0  0  0  0  0  0  0999 V2000
   38.8610   32.9610   40.1380 C   0  0  0  0  0  0  0  0  0  0  0  0
   38.8050   32.8090   41.4000 O   0  0  0  0  0  0  0  0  0  0  0  0
   39.0900   34.1830   39.4830 N   0  0  0  0  0  0  0  0  0  0  0  0
   39.0110   34.3120   38.4510 H   0  0  0  0  0  0  0  0  0  0  0  0
   38.6770   31.7760   39.2500 C   0  0  0  0  0  0  0  0  0  0  0  0
   39.1050   31.8200   37.9440 C   0  0  0  0  0  0  0  0  0  0  0  0
   38.9920   30.7910   37.0340 C   0  0  0  0  0  0  0  0  0  0  0  0
   38.3830   29.6300   37.5360 C   0  0  0  0  0  0  0  0  0  0  0  0
   37.9630   29.6000   38.8370 C   0  0  0  0  0  0  0  0  0  0  0  0
   38.1100   30.6430   39.6540 N   0  0  0  0  0  0  0  0  0  0  0  0
   39.5670   32.7360   37.6030 H   0  0  0  0  0  0  0  0  0  0  0  0
   39.3440   30.8810   36.0280 H   0  0  0  0  0  0  0  0  0  0  0  0
   38.2580   28.8430   36.8290 H   0  0  0  0  0  0  0  0  0  0  0  0
   37.7310   27.6600   40.4650 C   0  0  0  0  0  0  0  0  0  0  0  0
   37.2740   28.4680   39.4490 C   0  0  0  0  0  0  0  0  0  0  0  0
   35.9850   28.1660   38.9990 C   0  0  0  0  0  0  0  0  0  0  0  0
   35.5460   28.7650   38.1890 H   0  0  0  0  0  0  0  0  0  0  0  0
   35.1580   27.1660   39.4590 C   0  0  0  0  0  0  0  0  0  0  0  0
   34.1750   27.0100   39.0460 H   0  0  0  0  0  0  0  0  0  0  0  0
   35.6280   26.3680   40.4680 C   0  0  0  0  0  3  0  0  0  0  0  0
   36.8940   26.6400   40.9370 C   0  0  0  0  0  3  0  0  0  0  0  0
   40.2990   28.1460   40.3990 H   0  0  0  0  0  0  0  0  0  0  0  0
   39.2540   27.9180   41.2180 S   0  0  0  0  0  0  0  0  0  0  0  0
   39.1950   28.9080   42.3610 O   0  0  0  0  0  0  0  0  0  0  0  0
   39.6100   26.5920   41.9210 O   0  0  0  0  0  0  0  0  0  0  0  0
   39.4570   35.3110   40.3110 C   0  0  0  0  0  0  0  0  0  0  0  0
   39.5050   35.0680   41.3720 H   0  0  0  0  0  0  0  0  0  0  0  0
   38.6570   36.0880   40.1490 H   0  0  0  0  0  0  0  0  0  0  0  0
   40.7760   35.9470   39.8630 C   0  0  0  0  0  0  0  0  0  0  0  0
   40.8560   36.9040   40.4340 H   0  0  0  0  0  0  0  0  0  0  0  0
   40.8080   36.0900   38.7820 H   0  0  0  0  0  0  0  0  0  0  0  0
   43.7370   34.5720   41.7900 C   0  0  0  0  0  0  0  0  0  0  0  0
   42.6660   35.4230   41.4050 C   0  0  0  0  0  0  0  0  0  0  0  0
   41.9120   35.0990   40.2960 C   0  0  0  0  0  0  0  0  0  0  0  0
   42.2700   33.9390   39.6280 N   0  0  0  0  0  0  0  0  0  0  0  0
   43.3050   33.1660   40.0440 C   0  0  0  0  0  0  0  0  0  0  0  0
   44.0280   33.4810   41.1130 N   0  0  0  0  0  0  0  0  0  0  0  0
   42.4190   36.3220   41.9550 H   0  0  0  0  0  0  0  0  0  0  0  0
   43.5300   32.2720   39.4760 H   0  0  0  0  0  0  0  0  0  0  0  0
   44.5500   34.9540   42.9890 C   0  0  0  0  0  0  0  0  0  0  0  0
   46.0330   35.3040   42.5740 C   0  0  0  0  0  0  0  0  0  0  0  0
   45.1040   36.2240   43.2320 C   0  0  0  0  0  0  0  0  0  0  0  0
   44.5440   34.1330   43.7650 H   0  0  0  0  0  0  0  0  0  0  0  0
   46.8270   34.8610   43.2080 H   0  0  0  0  0  0  0  0  0  0  0  0
   46.2360   35.4100   41.5050 H   0  0  0  0  0  0  0  0  0  0  0  0
   45.3180   36.5520   44.2650 H   0  0  0  0  0  0  0  0  0  0  0  0
   44.7090   37.0950   42.6290 H   0  0  0  0  0  0  0  0  0  0  0  0
  1  2  2  0  0  0  0
  3  1  1  0  0  0  0
  3 26  1  0  0  0  0
  4  3  1  0  0  0  0
  5 10  1  0  0  0  0
  5  1  1  0  0  0  0
  6  5  2  0  0  0  0
  7  8  2  0  0  0  0
  7  6  1  0  0  0  0
  8  9  1  0  0  0  0
  9 15  1  0  0  0  0
  9 10  2  0  0  0  0
 11  6  1  0  0  0  0
 12  7  1  0  0  0  0
 13  8  1  0  0  0  0
 14 21  1  0  0  0  0
 14 23  1  0  0  0  0
 15 14  2  0  0  0  0
 16 15  1  0  0  0  0
 16 18  2  0  0  0  0
 17 16  1  0  0  0  0
 18 20  1  0  0  0  0
 19 18  1  0  0  0  0
 20 21  2  0  0  0  0
 22 23  1  0  0  0  0
 23 25  2  0  0  0  0
 23 24  2  0  0  0  0
 26 27  1  0  0  0  0
 28 26  1  0  0  0  0
 29 34  1  0  0  0  0
 29 26  1  0  0  0  0
 29 30  1  0  0  0  0
 31 29  1  0  0  0  0
 32 40  1  0  0  0  0
 33 32  1  0  0  0  0
 33 38  1  0  0  0  0
 34 33  2  0  0  0  0
 35 36  2  0  0  0  0
 35 34  1  0  0  0  0
 36 37  1  0  0  0  0
 37 32  2  0  0  0  0
 39 36  1  0  0  0  0
 40 42  1  0  0  0  0
 40 43  1  0  0  0  0
 41 40  1  0  0  0  0
 41 44  1  0  0  0  0
 41 42  1  0  0  0  0
 42 46  1  0  0  0  0
 45 41  1  0  0  0  0
 47 42  1  0  0  0  0
M  END
>  <minimizedAffinity>
-5.52329588

>  <minimizedRMSD>
2.17825651

$$$$
