
 OpenBabel03252506583D

 41 45  0  0  0  0  0  0  0  0999 V2000
   40.5740   30.7510   38.0190 C   0  0  0  0  0  0  0  0  0  0  0  0
   41.5380   31.7160   37.7650 C   0  0  0  0  0  0  0  0  0  0  0  0
   41.4380   33.0130   38.2160 C   0  0  0  0  0  0  0  0  0  0  0  0
   40.3300   33.4020   38.9640 C   0  0  0  0  0  0  0  0  0  0  0  0
   39.9020   34.5530   39.5550 N   0  0  0  0  0  0  0  0  0  0  0  0
   38.7150   34.3050   40.1530 C   0  0  0  0  0  0  0  0  0  0  0  0
   38.4170   33.0050   39.9280 N   0  0  0  0  0  0  0  0  0  0  0  0
   39.3900   32.4320   39.2010 C   0  0  0  0  0  0  0  0  0  0  0  0
   39.4640   31.1280   38.7630 C   0  0  0  0  0  0  0  0  0  0  0  0
   40.6840   29.7320   37.6460 H   0  0  0  0  0  0  0  0  0  0  0  0
   42.1810   33.7790   38.0270 H   0  0  0  0  0  0  0  0  0  0  0  0
   40.4980   35.4030   39.4750 H   0  0  0  0  0  0  0  0  0  0  0  0
   38.1770   35.0710   40.6910 H   0  0  0  0  0  0  0  0  0  0  0  0
   43.6920   30.0290   35.3140 C   0  0  0  0  0  0  0  0  0  0  0  0
   44.9280   30.6440   35.5190 C   0  0  0  0  0  0  0  0  0  0  0  0
   45.0220   31.6310   36.4920 C   0  0  0  0  0  0  0  0  0  0  0  0
   43.9030   31.9650   37.2140 N   0  0  0  0  0  0  0  0  0  0  0  0
   42.7190   31.3390   36.9800 C   0  0  0  0  0  0  0  0  0  0  0  0
   42.6050   30.3730   36.0330 N   0  0  0  0  0  0  0  0  0  0  0  0
   43.6520   29.2670   34.5500 H   0  0  0  0  0  0  0  0  0  0  0  0
   45.8320   30.4090   34.9710 H   0  0  0  0  0  0  0  0  0  0  0  0
   45.9230   32.1710   36.7360 H   0  0  0  0  0  0  0  0  0  0  0  0
   38.4020   30.1770   39.0760 C   0  0  0  0  0  0  0  0  0  0  0  0
   37.0690   30.3450   38.7490 C   0  0  0  0  0  0  0  0  0  0  0  0
   36.4300   29.2090   39.2360 C   0  0  0  0  0  0  0  0  0  0  0  0
   37.3950   28.4230   39.8260 C   0  0  0  0  0  0  0  0  0  0  0  0
   38.5460   29.0480   39.7010 O   0  0  0  0  0  0  0  0  0  0  0  0
   36.6480   31.1810   38.2300 H   0  0  0  0  0  0  0  0  0  0  0  0
   35.3580   28.9880   39.1610 H   0  0  0  0  0  0  0  0  0  0  0  0
   37.2220   27.0430   41.8490 C   0  0  0  0  0  0  0  0  0  0  0  0
   37.1880   27.1300   40.4720 C   0  0  0  0  0  0  0  0  0  0  0  0
   36.9590   26.0130   39.6960 C   0  0  0  0  0  0  0  0  0  0  0  0
   36.9280   26.0710   38.5990 H   0  0  0  0  0  0  0  0  0  0  0  0
   36.7560   24.7670   40.2380 C   0  0  0  0  0  0  0  0  0  0  0  0
   36.5750   23.8740   39.6550 H   0  0  0  0  0  0  0  0  0  0  0  0
   36.7900   24.6750   41.6330 C   0  0  0  0  0  3  0  0  0  0  0  0
   37.0190   25.7920   42.3960 C   0  0  0  0  0  3  0  0  0  0  0  0
   36.8840   29.5670   42.4010 H   0  0  0  0  0  0  0  0  0  0  0  0
   37.5110   28.4450   42.8560 S   0  0  0  0  0  0  0  0  0  0  0  0
   36.9690   28.1380   44.2410 O   0  0  0  0  0  0  0  0  0  0  0  0
   39.0060   28.6540   43.0280 O   0  0  0  0  0  0  0  0  0  0  0  0
  1  9  1  0  0  0  0
  2  1  2  0  0  0  0
  2  3  1  0  0  0  0
  3  4  2  0  0  0  0
  4  8  1  0  0  0  0
  4  5  1  0  0  0  0
  5  6  1  0  0  0  0
  6 13  1  0  0  0  0
  7  6  2  0  0  0  0
  8  7  1  0  0  0  0
  9 23  1  0  0  0  0
  9  8  2  0  0  0  0
 10  1  1  0  0  0  0
 11  3  1  0  0  0  0
 12  5  1  0  0  0  0
 14 15  2  0  0  0  0
 14 19  1  0  0  0  0
 15 16  1  0  0  0  0
 16 22  1  0  0  0  0
 16 17  2  0  0  0  0
 18 17  1  0  0  0  0
 18  2  1  0  0  0  0
 19 18  2  0  0  0  0
 20 14  1  0  0  0  0
 21 15  1  0  0  0  0
 23 27  1  0  0  0  0
 24 23  2  0  0  0  0
 24 25  1  0  0  0  0
 25 26  2  0  0  0  0
 26 31  1  0  0  0  0
 27 26  1  0  0  0  0
 28 24  1  0  0  0  0
 29 25  1  0  0  0  0
 30 37  1  0  0  0  0
 30 39  1  0  0  0  0
 31 30  2  0  0  0  0
 32 34  2  0  0  0  0
 32 31  1  0  0  0  0
 33 32  1  0  0  0  0
 34 36  1  0  0  0  0
 35 34  1  0  0  0  0
 36 37  2  0  0  0  0
 38 39  1  0  0  0  0
 39 41  2  0  0  0  0
 39 40  2  0  0  0  0
M  END
>  <minimizedAffinity>
-6.83098221

$$$$

 OpenBabel03252506583D

 41 45  0  0  0  0  0  0  0  0999 V2000
   36.9180   25.6480   40.5850 C   0  0  0  0  0  0  0  0  0  0  0  0
   37.3580   24.3580   40.8470 C   0  0  0  0  0  0  0  0  0  0  0  0
   38.3030   24.0680   41.8050 C   0  0  0  0  0  0  0  0  0  0  0  0
   38.8600   25.0960   42.5610 C   0  0  0  0  0  0  0  0  0  0  0  0
   39.7840   25.1880   43.5580 N   0  0  0  0  0  0  0  0  0  0  0  0
   39.9100   26.4900   43.8990 C   0  0  0  0  0  0  0  0  0  0  0  0
   39.0640   27.1940   43.1120 N   0  0  0  0  0  0  0  0  0  0  0  0
   38.4100   26.3620   42.2850 C   0  0  0  0  0  0  0  0  0  0  0  0
   37.4670   26.6810   41.3330 C   0  0  0  0  0  0  0  0  0  0  0  0
   36.1680   25.8430   39.8180 H   0  0  0  0  0  0  0  0  0  0  0  0
   38.6580   23.0680   42.0220 H   0  0  0  0  0  0  0  0  0  0  0  0
   40.2370   24.3140   43.8990 H   0  0  0  0  0  0  0  0  0  0  0  0
   40.5890   26.8140   44.6720 H   0  0  0  0  0  0  0  0  0  0  0  0
   36.9480   21.0660   39.2680 C   0  0  0  0  0  0  0  0  0  0  0  0
   35.7240   21.1930   38.6100 C   0  0  0  0  0  0  0  0  0  0  0  0
   35.0440   22.4010   38.7070 C   0  0  0  0  0  0  0  0  0  0  0  0
   35.5960   23.4210   39.4420 N   0  0  0  0  0  0  0  0  0  0  0  0
   36.7910   23.2510   40.0670 C   0  0  0  0  0  0  0  0  0  0  0  0
   37.4720   22.0800   39.9860 N   0  0  0  0  0  0  0  0  0  0  0  0
   37.4510   20.1150   39.1740 H   0  0  0  0  0  0  0  0  0  0  0  0
   35.2570   20.4140   38.0220 H   0  0  0  0  0  0  0  0  0  0  0  0
   34.0940   22.6110   38.2410 H   0  0  0  0  0  0  0  0  0  0  0  0
   37.0610   28.0670   41.1240 C   0  0  0  0  0  0  0  0  0  0  0  0
   35.7510   28.5100   41.0890 C   0  0  0  0  0  0  0  0  0  0  0  0
   35.8390   29.8820   40.8680 C   0  0  0  0  0  0  0  0  0  0  0  0
   37.1770   30.1930   40.7800 C   0  0  0  0  0  0  0  0  0  0  0  0
   37.8560   29.0780   40.9400 O   0  0  0  0  0  0  0  0  0  0  0  0
   34.8780   27.9040   41.2100 H   0  0  0  0  0  0  0  0  0  0  0  0
   34.9950   30.5770   40.7800 H   0  0  0  0  0  0  0  0  0  0  0  0
   39.0100   31.8080   41.0310 C   0  0  0  0  0  0  0  0  0  0  0  0
   37.7480   31.5180   40.5530 C   0  0  0  0  0  0  0  0  0  0  0  0
   37.0170   32.4620   39.8610 C   0  0  0  0  0  0  0  0  0  0  0  0
   36.0120   32.2420   39.4760 H   0  0  0  0  0  0  0  0  0  0  0  0
   37.4930   33.7260   39.6120 C   0  0  0  0  0  0  0  0  0  0  0  0
   36.9440   34.4860   39.0730 H   0  0  0  0  0  0  0  0  0  0  0  0
   38.7720   34.0230   40.0950 C   0  0  0  0  0  3  0  0  0  0  0  0
   39.4900   33.0770   40.7820 C   0  0  0  0  0  3  0  0  0  0  0  0
   39.2110   29.5930   42.3890 H   0  0  0  0  0  0  0  0  0  0  0  0
   39.9570   30.6280   41.9110 S   0  0  0  0  0  0  0  0  0  0  0  0
   40.9870   30.0560   40.9520 O   0  0  0  0  0  0  0  0  0  0  0  0
   40.7470   31.3200   43.0090 O   0  0  0  0  0  0  0  0  0  0  0  0
  1  2  2  0  0  0  0
  1  9  1  0  0  0  0
  2  3  1  0  0  0  0
  3 11  1  0  0  0  0
  3  4  2  0  0  0  0
  4  5  1  0  0  0  0
  5  6  1  0  0  0  0
  5 12  1  0  0  0  0
  6 13  1  0  0  0  0
  7  6  2  0  0  0  0
  8  4  1  0  0  0  0
  8  7  1  0  0  0  0
  9  8  2  0  0  0  0
 10  1  1  0  0  0  0
 14 19  1  0  0  0  0
 15 16  1  0  0  0  0
 15 14  2  0  0  0  0
 16 17  2  0  0  0  0
 17 18  1  0  0  0  0
 18  2  1  0  0  0  0
 19 18  2  0  0  0  0
 20 14  1  0  0  0  0
 21 15  1  0  0  0  0
 22 16  1  0  0  0  0
 23  9  1  0  0  0  0
 24 23  2  0  0  0  0
 24 28  1  0  0  0  0
 25 24  1  0  0  0  0
 26 25  2  0  0  0  0
 26 27  1  0  0  0  0
 27 23  1  0  0  0  0
 29 25  1  0  0  0  0
 30 39  1  0  0  0  0
 31 26  1  0  0  0  0
 31 30  2  0  0  0  0
 32 31  1  0  0  0  0
 33 32  1  0  0  0  0
 34 32  2  0  0  0  0
 34 36  1  0  0  0  0
 35 34  1  0  0  0  0
 36 37  2  0  0  0  0
 37 30  1  0  0  0  0
 39 38  1  0  0  0  0
 39 41  2  0  0  0  0
 40 39  2  0  0  0  0
M  END
>  <minimizedAffinity>
-6.63364887

$$$$

 OpenBabel03252506583D

 41 45  0  0  0  0  0  0  0  0999 V2000
   41.2390   30.6640   39.1970 C   0  0  0  0  0  0  0  0  0  0  0  0
   41.7110   31.6310   38.3210 C   0  0  0  0  0  0  0  0  0  0  0  0
   41.2760   32.9370   38.3400 C   0  0  0  0  0  0  0  0  0  0  0  0
   40.3190   33.3340   39.2700 C   0  0  0  0  0  0  0  0  0  0  0  0
   39.6730   34.4940   39.5770 N   0  0  0  0  0  0  0  0  0  0  0  0
   38.8320   34.2500   40.6060 C   0  0  0  0  0  0  0  0  0  0  0  0
   38.9620   32.9430   40.9290 N   0  0  0  0  0  0  0  0  0  0  0  0
   39.8670   32.3610   40.1250 C   0  0  0  0  0  0  0  0  0  0  0  0
   40.2840   31.0480   40.1290 C   0  0  0  0  0  0  0  0  0  0  0  0
   41.6050   29.6370   39.1550 H   0  0  0  0  0  0  0  0  0  0  0  0
   41.6340   33.7050   37.6650 H   0  0  0  0  0  0  0  0  0  0  0  0
   39.8950   35.3470   39.0220 H   0  0  0  0  0  0  0  0  0  0  0  0
   38.2080   35.0230   41.0280 H   0  0  0  0  0  0  0  0  0  0  0  0
   44.8740   31.4650   36.4580 C   0  0  0  0  0  0  0  0  0  0  0  0
   44.5970   30.5170   35.4710 C   0  0  0  0  0  0  0  0  0  0  0  0
   43.3340   29.9390   35.4450 C   0  0  0  0  0  0  0  0  0  0  0  0
   42.4070   30.3180   36.3850 N   0  0  0  0  0  0  0  0  0  0  0  0
   42.7210   31.2460   37.3280 C   0  0  0  0  0  0  0  0  0  0  0  0
   43.9490   31.8220   37.3720 N   0  0  0  0  0  0  0  0  0  0  0  0
   45.8640   31.8950   36.4520 H   0  0  0  0  0  0  0  0  0  0  0  0
   45.3000   30.1930   34.7140 H   0  0  0  0  0  0  0  0  0  0  0  0
   43.0100   29.1990   34.7300 H   0  0  0  0  0  0  0  0  0  0  0  0
   39.7330   30.0950   41.0870 C   0  0  0  0  0  0  0  0  0  0  0  0
   39.3700   30.4020   42.3860 C   0  0  0  0  0  0  0  0  0  0  0  0
   38.9020   29.2060   42.9230 C   0  0  0  0  0  0  0  0  0  0  0  0
   39.0060   28.2510   41.9370 C   0  0  0  0  0  0  0  0  0  0  0  0
   39.5050   28.8360   40.8690 O   0  0  0  0  0  0  0  0  0  0  0  0
   39.4430   31.3630   42.8510 H   0  0  0  0  0  0  0  0  0  0  0  0
   38.5250   29.0600   43.9430 H   0  0  0  0  0  0  0  0  0  0  0  0
   39.6010   25.8990   42.3170 C   0  0  0  0  0  0  0  0  0  0  0  0
   38.6320   26.8440   42.0470 C   0  0  0  0  0  0  0  0  0  0  0  0
   37.3120   26.4790   41.8800 C   0  0  0  0  0  0  0  0  0  0  0  0
   36.5320   27.2230   41.6650 H   0  0  0  0  0  0  0  0  0  0  0  0
   36.8900   25.1740   41.9700 C   0  0  0  0  0  0  0  0  0  0  0  0
   35.8630   24.8580   41.8430 H   0  0  0  0  0  0  0  0  0  0  0  0
   37.8690   24.2150   42.2430 C   0  0  0  0  0  3  0  0  0  0  0  0
   39.1790   24.5890   42.4080 C   0  0  0  0  0  3  0  0  0  0  0  0
   41.4510   27.4170   43.3470 H   0  0  0  0  0  0  0  0  0  0  0  0
   41.2810   26.3370   42.5330 S   0  0  0  0  0  0  0  0  0  0  0  0
   41.9870   25.1550   43.1740 O   0  0  0  0  0  0  0  0  0  0  0  0
   41.9390   26.5320   41.1770 O   0  0  0  0  0  0  0  0  0  0  0  0
  1  9  1  0  0  0  0
  2  3  1  0  0  0  0
  2  1  2  0  0  0  0
  3  4  2  0  0  0  0
  4  5  1  0  0  0  0
  4  8  1  0  0  0  0
  5  6  1  0  0  0  0
  6  7  2  0  0  0  0
  6 13  1  0  0  0  0
  8  9  2  0  0  0  0
  8  7  1  0  0  0  0
  9 23  1  0  0  0  0
 10  1  1  0  0  0  0
 11  3  1  0  0  0  0
 12  5  1  0  0  0  0
 14 19  1  0  0  0  0
 15 14  2  0  0  0  0
 16 15  1  0  0  0  0
 16 17  2  0  0  0  0
 17 18  1  0  0  0  0
 18 19  2  0  0  0  0
 18  2  1  0  0  0  0
 20 14  1  0  0  0  0
 21 15  1  0  0  0  0
 22 16  1  0  0  0  0
 23 24  2  0  0  0  0
 24 28  1  0  0  0  0
 24 25  1  0  0  0  0
 25 29  1  0  0  0  0
 26 31  1  0  0  0  0
 26 25  2  0  0  0  0
 27 23  1  0  0  0  0
 27 26  1  0  0  0  0
 30 37  1  0  0  0  0
 30 39  1  0  0  0  0
 31 30  2  0  0  0  0
 32 34  2  0  0  0  0
 32 31  1  0  0  0  0
 33 32  1  0  0  0  0
 34 36  1  0  0  0  0
 35 34  1  0  0  0  0
 36 37  2  0  0  0  0
 39 40  2  0  0  0  0
 39 38  1  0  0  0  0
 41 39  2  0  0  0  0
M  END
>  <minimizedAffinity>
-6.57065725

$$$$

 OpenBabel03252506583D

 41 45  0  0  0  0  0  0  0  0999 V2000
   34.5690   28.7300   38.0130 C   0  0  0  0  0  0  0  0  0  0  0  0
   34.2790   28.9520   36.6740 C   0  0  0  0  0  0  0  0  0  0  0  0
   35.2250   28.8630   35.6780 C   0  0  0  0  0  0  0  0  0  0  0  0
   36.5390   28.5360   35.9980 C   0  0  0  0  0  0  0  0  0  0  0  0
   37.7020   28.3630   35.3080 N   0  0  0  0  0  0  0  0  0  0  0  0
   38.6740   28.0450   36.1920 C   0  0  0  0  0  0  0  0  0  0  0  0
   38.1080   28.0240   37.4200 N   0  0  0  0  0  0  0  0  0  0  0  0
   36.8020   28.3220   37.3280 C   0  0  0  0  0  0  0  0  0  0  0  0
   35.8770   28.4040   38.3450 C   0  0  0  0  0  0  0  0  0  0  0  0
   33.7960   28.8100   38.7780 H   0  0  0  0  0  0  0  0  0  0  0  0
   35.0160   29.0330   34.6280 H   0  0  0  0  0  0  0  0  0  0  0  0
   37.6890   28.4890   34.2750 H   0  0  0  0  0  0  0  0  0  0  0  0
   39.6900   27.8600   35.8790 H   0  0  0  0  0  0  0  0  0  0  0  0
   30.7050   29.7610   36.9300 C   0  0  0  0  0  0  0  0  0  0  0  0
   30.3370   29.9480   35.5970 C   0  0  0  0  0  0  0  0  0  0  0  0
   31.3100   29.7970   34.6160 C   0  0  0  0  0  0  0  0  0  0  0  0
   32.5900   29.4720   34.9900 N   0  0  0  0  0  0  0  0  0  0  0  0
   32.9030   29.2990   36.3020 C   0  0  0  0  0  0  0  0  0  0  0  0
   31.9680   29.4420   37.2760 N   0  0  0  0  0  0  0  0  0  0  0  0
   29.9260   29.8860   37.6680 H   0  0  0  0  0  0  0  0  0  0  0  0
   29.3410   30.2050   35.2630 H   0  0  0  0  0  0  0  0  0  0  0  0
   31.1400   29.9170   33.5580 H   0  0  0  0  0  0  0  0  0  0  0  0
   36.2690   28.1540   39.7280 C   0  0  0  0  0  0  0  0  0  0  0  0
   35.6310   28.6820   40.8370 C   0  0  0  0  0  0  0  0  0  0  0  0
   36.3350   28.1830   41.9290 C   0  0  0  0  0  0  0  0  0  0  0  0
   37.3480   27.3940   41.4340 C   0  0  0  0  0  0  0  0  0  0  0  0
   37.2600   27.4130   40.1210 O   0  0  0  0  0  0  0  0  0  0  0  0
   34.7800   29.3300   40.8260 H   0  0  0  0  0  0  0  0  0  0  0  0
   36.1180   28.3880   42.9860 H   0  0  0  0  0  0  0  0  0  0  0  0
   38.5150   25.3100   42.0040 C   0  0  0  0  0  0  0  0  0  0  0  0
   38.3420   26.6630   42.2140 C   0  0  0  0  0  0  0  0  0  0  0  0
   39.0970   27.3370   43.1520 C   0  0  0  0  0  0  0  0  0  0  0  0
   38.9680   28.4140   43.3280 H   0  0  0  0  0  0  0  0  0  0  0  0
   40.0490   26.7120   43.9210 C   0  0  0  0  0  0  0  0  0  0  0  0
   40.6550   27.2140   44.6630 H   0  0  0  0  0  0  0  0  0  0  0  0
   40.2260   25.3410   43.7100 C   0  0  0  0  0  3  0  0  0  0  0  0
   39.4700   24.6800   42.7740 C   0  0  0  0  0  3  0  0  0  0  0  0
   37.4970   25.0680   39.6170 H   0  0  0  0  0  0  0  0  0  0  0  0
   37.5700   24.4320   40.8200 S   0  0  0  0  0  0  0  0  0  0  0  0
   38.2430   23.0890   40.5970 O   0  0  0  0  0  0  0  0  0  0  0  0
   36.1950   24.1220   41.3890 O   0  0  0  0  0  0  0  0  0  0  0  0
  1  9  1  0  0  0  0
  1 10  1  0  0  0  0
  2  1  2  0  0  0  0
  3  4  2  0  0  0  0
  3  2  1  0  0  0  0
  4  8  1  0  0  0  0
  5  4  1  0  0  0  0
  5  6  1  0  0  0  0
  6  7  2  0  0  0  0
  8  7  1  0  0  0  0
  8  9  2  0  0  0  0
  9 23  1  0  0  0  0
 11  3  1  0  0  0  0
 12  5  1  0  0  0  0
 13  6  1  0  0  0  0
 14 19  1  0  0  0  0
 14 20  1  0  0  0  0
 15 14  2  0  0  0  0
 16 17  2  0  0  0  0
 16 15  1  0  0  0  0
 17 18  1  0  0  0  0
 18  2  1  0  0  0  0
 18 19  2  0  0  0  0
 21 15  1  0  0  0  0
 22 16  1  0  0  0  0
 23 27  1  0  0  0  0
 23 24  2  0  0  0  0
 24 25  1  0  0  0  0
 25 29  1  0  0  0  0
 26 25  2  0  0  0  0
 26 31  1  0  0  0  0
 27 26  1  0  0  0  0
 28 24  1  0  0  0  0
 30 31  2  0  0  0  0
 30 37  1  0  0  0  0
 31 32  1  0  0  0  0
 32 33  1  0  0  0  0
 32 34  2  0  0  0  0
 34 35  1  0  0  0  0
 36 34  1  0  0  0  0
 37 36  2  0  0  0  0
 38 39  1  0  0  0  0
 39 41  2  0  0  0  0
 39 30  1  0  0  0  0
 40 39  2  0  0  0  0
M  END
>  <minimizedAffinity>
-6.51638412

$$$$

 OpenBabel03252506583D

 41 45  0  0  0  0  0  0  0  0999 V2000
   41.3170   31.8020   40.9220 C   0  0  0  0  0  0  0  0  0  0  0  0
   41.8790   32.7470   40.0750 C   0  0  0  0  0  0  0  0  0  0  0  0
   41.3920   33.0070   38.8130 C   0  0  0  0  0  0  0  0  0  0  0  0
   40.2870   32.3060   38.3400 C   0  0  0  0  0  0  0  0  0  0  0  0
   39.5550   32.2920   37.1910 N   0  0  0  0  0  0  0  0  0  0  0  0
   38.5760   31.3700   37.3250 C   0  0  0  0  0  0  0  0  0  0  0  0
   38.7080   30.8210   38.5540 N   0  0  0  0  0  0  0  0  0  0  0  0
   39.7490   31.3770   39.1940 C   0  0  0  0  0  0  0  0  0  0  0  0
   40.2140   31.0960   40.4600 C   0  0  0  0  0  0  0  0  0  0  0  0
   41.7280   31.6200   41.9160 H   0  0  0  0  0  0  0  0  0  0  0  0
   41.8190   33.7410   38.1400 H   0  0  0  0  0  0  0  0  0  0  0  0
   39.8250   32.9410   36.4220 H   0  0  0  0  0  0  0  0  0  0  0  0
   37.8620   31.1780   36.5380 H   0  0  0  0  0  0  0  0  0  0  0  0
   44.0360   34.8930   42.1340 C   0  0  0  0  0  0  0  0  0  0  0  0
   45.2290   34.9110   41.4100 C   0  0  0  0  0  0  0  0  0  0  0  0
   45.2930   34.1920   40.2230 C   0  0  0  0  0  0  0  0  0  0  0  0
   44.1870   33.4930   39.8060 N   0  0  0  0  0  0  0  0  0  0  0  0
   43.0460   33.5040   40.5440 C   0  0  0  0  0  0  0  0  0  0  0  0
   42.9620   34.1990   41.7060 N   0  0  0  0  0  0  0  0  0  0  0  0
   44.0190   35.4620   43.0520 H   0  0  0  0  0  0  0  0  0  0  0  0
   46.1210   35.4490   41.7050 H   0  0  0  0  0  0  0  0  0  0  0  0
   46.1600   34.1340   39.5840 H   0  0  0  0  0  0  0  0  0  0  0  0
   39.5610   30.0850   41.2840 C   0  0  0  0  0  0  0  0  0  0  0  0
   38.9400   30.3340   42.4950 C   0  0  0  0  0  0  0  0  0  0  0  0
   38.4650   29.0960   42.9190 C   0  0  0  0  0  0  0  0  0  0  0  0
   38.8190   28.1750   41.9580 C   0  0  0  0  0  0  0  0  0  0  0  0
   39.4670   28.8190   41.0120 O   0  0  0  0  0  0  0  0  0  0  0  0
   38.8570   31.2850   42.9770 H   0  0  0  0  0  0  0  0  0  0  0  0
   37.9140   28.8990   43.8470 H   0  0  0  0  0  0  0  0  0  0  0  0
   39.5120   25.8550   42.3670 C   0  0  0  0  0  0  0  0  0  0  0  0
   38.5310   26.7440   41.9780 C   0  0  0  0  0  0  0  0  0  0  0  0
   37.2780   26.3000   41.6070 C   0  0  0  0  0  0  0  0  0  0  0  0
   36.4880   26.9990   41.2960 H   0  0  0  0  0  0  0  0  0  0  0  0
   36.9380   24.9690   41.6020 C   0  0  0  0  0  0  0  0  0  0  0  0
   35.9660   24.5920   41.3170 H   0  0  0  0  0  0  0  0  0  0  0  0
   37.9310   24.0660   41.9960 C   0  0  0  0  0  3  0  0  0  0  0  0
   39.1730   24.5180   42.3620 C   0  0  0  0  0  3  0  0  0  0  0  0
   41.6090   27.3630   42.0260 H   0  0  0  0  0  0  0  0  0  0  0  0
   41.1080   26.3930   42.8410 S   0  0  0  0  0  0  0  0  0  0  0  0
   41.0020   26.9710   44.2420 O   0  0  0  0  0  0  0  0  0  0  0  0
   42.0410   25.1980   42.9510 O   0  0  0  0  0  0  0  0  0  0  0  0
  1 10  1  0  0  0  0
  2 18  1  0  0  0  0
  2  1  2  0  0  0  0
  3  2  1  0  0  0  0
  4  3  2  0  0  0  0
  4  8  1  0  0  0  0
  5  6  1  0  0  0  0
  5  4  1  0  0  0  0
  6  7  2  0  0  0  0
  7  8  1  0  0  0  0
  8  9  2  0  0  0  0
  9  1  1  0  0  0  0
  9 23  1  0  0  0  0
 11  3  1  0  0  0  0
 12  5  1  0  0  0  0
 13  6  1  0  0  0  0
 14 20  1  0  0  0  0
 15 21  1  0  0  0  0
 15 14  2  0  0  0  0
 16 15  1  0  0  0  0
 17 16  2  0  0  0  0
 17 18  1  0  0  0  0
 18 19  2  0  0  0  0
 19 14  1  0  0  0  0
 22 16  1  0  0  0  0
 23 24  2  0  0  0  0
 24 25  1  0  0  0  0
 24 28  1  0  0  0  0
 25 29  1  0  0  0  0
 26 31  1  0  0  0  0
 26 25  2  0  0  0  0
 27 23  1  0  0  0  0
 27 26  1  0  0  0  0
 30 39  1  0  0  0  0
 31 30  2  0  0  0  0
 32 31  1  0  0  0  0
 33 32  1  0  0  0  0
 34 32  2  0  0  0  0
 34 36  1  0  0  0  0
 35 34  1  0  0  0  0
 36 37  2  0  0  0  0
 37 30  1  0  0  0  0
 38 39  1  0  0  0  0
 39 41  2  0  0  0  0
 39 40  2  0  0  0  0
M  END
>  <minimizedAffinity>
-6.49322796

$$$$

 OpenBabel03252506583D

 41 45  0  0  0  0  0  0  0  0999 V2000
   41.0580   31.8320   41.4520 C   0  0  0  0  0  0  0  0  0  0  0  0
   41.4910   33.0420   40.9270 C   0  0  0  0  0  0  0  0  0  0  0  0
   40.6640   33.8990   40.2360 C   0  0  0  0  0  0  0  0  0  0  0  0
   39.3280   33.5620   40.0400 C   0  0  0  0  0  0  0  0  0  0  0  0
   38.2540   34.1360   39.4290 N   0  0  0  0  0  0  0  0  0  0  0  0
   37.1940   33.3080   39.5730 C   0  0  0  0  0  0  0  0  0  0  0  0
   37.6200   32.2300   40.2700 N   0  0  0  0  0  0  0  0  0  0  0  0
   38.9230   32.3620   40.5660 C   0  0  0  0  0  0  0  0  0  0  0  0
   39.7270   31.4860   41.2610 C   0  0  0  0  0  0  0  0  0  0  0  0
   41.7400   31.1760   41.9940 H   0  0  0  0  0  0  0  0  0  0  0  0
   40.9860   34.8460   39.8200 H   0  0  0  0  0  0  0  0  0  0  0  0
   38.3790   35.0620   38.9690 H   0  0  0  0  0  0  0  0  0  0  0  0
   36.2230   33.5500   39.1700 H   0  0  0  0  0  0  0  0  0  0  0  0
   44.7290   33.7160   42.5280 C   0  0  0  0  0  0  0  0  0  0  0  0
   45.5150   34.1440   41.4580 C   0  0  0  0  0  0  0  0  0  0  0  0
   44.9390   34.2020   40.1960 C   0  0  0  0  0  0  0  0  0  0  0  0
   43.6230   33.8380   40.0450 N   0  0  0  0  0  0  0  0  0  0  0  0
   42.8950   33.4260   41.1170 C   0  0  0  0  0  0  0  0  0  0  0  0
   43.4380   33.3620   42.3590 N   0  0  0  0  0  0  0  0  0  0  0  0
   45.2060   33.6820   43.4970 H   0  0  0  0  0  0  0  0  0  0  0  0
   46.5540   34.4390   41.5360 H   0  0  0  0  0  0  0  0  0  0  0  0
   45.4500   34.5170   39.2990 H   0  0  0  0  0  0  0  0  0  0  0  0
   39.1880   30.2330   41.7790 C   0  0  0  0  0  0  0  0  0  0  0  0
   38.9230   29.9780   43.1130 C   0  0  0  0  0  0  0  0  0  0  0  0
   38.4280   28.6780   43.1420 C   0  0  0  0  0  0  0  0  0  0  0  0
   38.4200   28.2180   41.8440 C   0  0  0  0  0  0  0  0  0  0  0  0
   38.8810   29.1840   41.0790 O   0  0  0  0  0  0  0  0  0  0  0  0
   39.0760   30.6560   43.9270 H   0  0  0  0  0  0  0  0  0  0  0  0
   38.1080   28.1280   44.0360 H   0  0  0  0  0  0  0  0  0  0  0  0
   36.9800   26.8050   40.4450 C   0  0  0  0  0  0  0  0  0  0  0  0
   37.9800   26.9020   41.3900 C   0  0  0  0  0  0  0  0  0  0  0  0
   38.5740   25.7720   41.9140 C   0  0  0  0  0  0  0  0  0  0  0  0
   39.3720   25.8370   42.6660 H   0  0  0  0  0  0  0  0  0  0  0  0
   38.2100   24.5030   41.5320 C   0  0  0  0  0  0  0  0  0  0  0  0
   38.6560   23.5990   41.9240 H   0  0  0  0  0  0  0  0  0  0  0  0
   37.1960   24.4010   40.5740 C   0  0  0  0  0  3  0  0  0  0  0  0
   36.6120   25.5320   40.0600 C   0  0  0  0  0  3  0  0  0  0  0  0
   37.1030   29.1460   39.3090 H   0  0  0  0  0  0  0  0  0  0  0  0
   36.2120   28.2240   39.7660 S   0  0  0  0  0  0  0  0  0  0  0  0
   35.3650   27.7700   38.5900 O   0  0  0  0  0  0  0  0  0  0  0  0
   35.2420   28.8150   40.7760 O   0  0  0  0  0  0  0  0  0  0  0  0
  1 10  1  0  0  0  0
  2 18  1  0  0  0  0
  2  1  2  0  0  0  0
  3  2  1  0  0  0  0
  4  3  2  0  0  0  0
  4  8  1  0  0  0  0
  5  6  1  0  0  0  0
  5  4  1  0  0  0  0
  6  7  2  0  0  0  0
  7  8  1  0  0  0  0
  8  9  2  0  0  0  0
  9  1  1  0  0  0  0
  9 23  1  0  0  0  0
 11  3  1  0  0  0  0
 12  5  1  0  0  0  0
 13  6  1  0  0  0  0
 14 20  1  0  0  0  0
 15 21  1  0  0  0  0
 15 14  2  0  0  0  0
 16 15  1  0  0  0  0
 17 16  2  0  0  0  0
 17 18  1  0  0  0  0
 18 19  2  0  0  0  0
 19 14  1  0  0  0  0
 22 16  1  0  0  0  0
 23 24  2  0  0  0  0
 24 25  1  0  0  0  0
 24 28  1  0  0  0  0
 25 29  1  0  0  0  0
 26 25  2  0  0  0  0
 27 23  1  0  0  0  0
 27 26  1  0  0  0  0
 30 31  1  0  0  0  0
 31 26  1  0  0  0  0
 31 32  2  0  0  0  0
 32 33  1  0  0  0  0
 34 32  1  0  0  0  0
 34 35  1  0  0  0  0
 36 34  2  0  0  0  0
 37 30  2  0  0  0  0
 37 36  1  0  0  0  0
 38 39  1  0  0  0  0
 39 30  1  0  0  0  0
 39 41  2  0  0  0  0
 40 39  2  0  0  0  0
M  END
>  <minimizedAffinity>
-6.36336184

$$$$

 OpenBabel03252506583D

 41 45  0  0  0  0  0  0  0  0999 V2000
   37.4520   26.5830   39.8770 C   0  0  0  0  0  0  0  0  0  0  0  0
   37.1980   25.5470   40.7650 C   0  0  0  0  0  0  0  0  0  0  0  0
   37.1110   25.7300   42.1260 C   0  0  0  0  0  0  0  0  0  0  0  0
   37.2790   27.0020   42.6650 C   0  0  0  0  0  0  0  0  0  0  0  0
   37.2620   27.5460   43.9150 N   0  0  0  0  0  0  0  0  0  0  0  0
   37.4970   28.8720   43.8010 C   0  0  0  0  0  0  0  0  0  0  0  0
   37.6580   29.1400   42.4850 N   0  0  0  0  0  0  0  0  0  0  0  0
   37.5290   28.0100   41.7700 C   0  0  0  0  0  0  0  0  0  0  0  0
   37.6220   27.8560   40.4040 C   0  0  0  0  0  0  0  0  0  0  0  0
   37.5160   26.4030   38.8030 H   0  0  0  0  0  0  0  0  0  0  0  0
   36.9130   24.9320   42.8330 H   0  0  0  0  0  0  0  0  0  0  0  0
   37.0850   26.9190   44.7270 H   0  0  0  0  0  0  0  0  0  0  0  0
   37.5320   29.5210   44.6630 H   0  0  0  0  0  0  0  0  0  0  0  0
   37.7130   21.9710   40.0950 C   0  0  0  0  0  0  0  0  0  0  0  0
   36.6660   21.6700   39.2230 C   0  0  0  0  0  0  0  0  0  0  0  0
   35.7900   22.6870   38.8660 C   0  0  0  0  0  0  0  0  0  0  0  0
   35.9830   23.9450   39.3810 N   0  0  0  0  0  0  0  0  0  0  0  0
   37.0160   24.1920   40.2280 C   0  0  0  0  0  0  0  0  0  0  0  0
   37.8840   23.2140   40.5900 N   0  0  0  0  0  0  0  0  0  0  0  0
   38.3760   21.1590   40.3540 H   0  0  0  0  0  0  0  0  0  0  0  0
   36.4820   20.6920   38.7970 H   0  0  0  0  0  0  0  0  0  0  0  0
   34.9490   22.5690   38.2010 H   0  0  0  0  0  0  0  0  0  0  0  0
   37.8920   29.0040   39.5430 C   0  0  0  0  0  0  0  0  0  0  0  0
   37.0540   29.4500   38.5370 C   0  0  0  0  0  0  0  0  0  0  0  0
   37.7050   30.5520   37.9880 C   0  0  0  0  0  0  0  0  0  0  0  0
   38.8850   30.7120   38.6780 C   0  0  0  0  0  0  0  0  0  0  0  0
   38.9420   29.7650   39.5900 O   0  0  0  0  0  0  0  0  0  0  0  0
   36.1140   29.0210   38.2630 H   0  0  0  0  0  0  0  0  0  0  0  0
   37.3380   31.1700   37.1590 H   0  0  0  0  0  0  0  0  0  0  0  0
   39.8310   32.9270   39.1550 C   0  0  0  0  0  0  0  0  0  0  0  0
   39.8930   31.7430   38.4490 C   0  0  0  0  0  0  0  0  0  0  0  0
   40.8960   31.5170   37.5290 C   0  0  0  0  0  0  0  0  0  0  0  0
   40.9560   30.5780   36.9620 H   0  0  0  0  0  0  0  0  0  0  0  0
   41.8770   32.4420   37.2640 C   0  0  0  0  0  0  0  0  0  0  0  0
   42.6740   32.2930   36.5490 H   0  0  0  0  0  0  0  0  0  0  0  0
   41.8170   33.6430   37.9780 C   0  0  0  0  0  3  0  0  0  0  0  0
   40.8150   33.8580   38.8910 C   0  0  0  0  0  3  0  0  0  0  0  0
   38.3840   32.2060   41.1980 H   0  0  0  0  0  0  0  0  0  0  0  0
   38.5690   33.2370   40.3270 S   0  0  0  0  0  0  0  0  0  0  0  0
   38.9780   34.4590   41.1320 O   0  0  0  0  0  0  0  0  0  0  0  0
   37.2850   33.6190   39.6090 O   0  0  0  0  0  0  0  0  0  0  0  0
  1  9  2  0  0  0  0
  1  2  1  0  0  0  0
  2  3  2  0  0  0  0
  3  4  1  0  0  0  0
  3 11  1  0  0  0  0
  4  5  1  0  0  0  0
  5 12  1  0  0  0  0
  6  5  1  0  0  0  0
  6 13  1  0  0  0  0
  7  6  2  0  0  0  0
  8  7  1  0  0  0  0
  8  4  2  0  0  0  0
  9  8  1  0  0  0  0
 10  1  1  0  0  0  0
 14 20  1  0  0  0  0
 14 19  1  0  0  0  0
 15 14  2  0  0  0  0
 16 15  1  0  0  0  0
 16 17  2  0  0  0  0
 17 18  1  0  0  0  0
 18 19  2  0  0  0  0
 18  2  1  0  0  0  0
 21 15  1  0  0  0  0
 22 16  1  0  0  0  0
 23 27  1  0  0  0  0
 23  9  1  0  0  0  0
 24 23  2  0  0  0  0
 25 24  1  0  0  0  0
 25 26  2  0  0  0  0
 26 27  1  0  0  0  0
 28 24  1  0  0  0  0
 29 25  1  0  0  0  0
 30 39  1  0  0  0  0
 31 26  1  0  0  0  0
 31 30  2  0  0  0  0
 32 31  1  0  0  0  0
 33 32  1  0  0  0  0
 34 32  2  0  0  0  0
 34 36  1  0  0  0  0
 35 34  1  0  0  0  0
 36 37  2  0  0  0  0
 37 30  1  0  0  0  0
 39 40  2  0  0  0  0
 39 38  1  0  0  0  0
 41 39  2  0  0  0  0
M  END
>  <minimizedAffinity>
-6.29069567

$$$$

 OpenBabel03252506583D

 41 45  0  0  0  0  0  0  0  0999 V2000
   36.7350   30.4110   39.1320 C   0  0  0  0  0  0  0  0  0  0  0  0
   35.7990   29.3860   39.1000 C   0  0  0  0  0  0  0  0  0  0  0  0
   35.5830   28.5350   40.1600 C   0  0  0  0  0  0  0  0  0  0  0  0
   36.3220   28.6850   41.3300 C   0  0  0  0  0  0  0  0  0  0  0  0
   36.3830   28.0560   42.5370 N   0  0  0  0  0  0  0  0  0  0  0  0
   37.3240   28.6730   43.2880 C   0  0  0  0  0  0  0  0  0  0  0  0
   37.8380   29.6760   42.5410 N   0  0  0  0  0  0  0  0  0  0  0  0
   37.2410   29.7040   41.3380 C   0  0  0  0  0  0  0  0  0  0  0  0
   37.4780   30.5700   40.2940 C   0  0  0  0  0  0  0  0  0  0  0  0
   36.8810   31.0680   38.2740 H   0  0  0  0  0  0  0  0  0  0  0  0
   34.8570   27.7300   40.1520 H   0  0  0  0  0  0  0  0  0  0  0  0
   35.7480   27.2490   42.7100 H   0  0  0  0  0  0  0  0  0  0  0  0
   37.5530   28.3500   44.2920 H   0  0  0  0  0  0  0  0  0  0  0  0
   34.8800   29.1080   35.5540 C   0  0  0  0  0  0  0  0  0  0  0  0
   33.5090   28.8510   35.6130 C   0  0  0  0  0  0  0  0  0  0  0  0
   32.9040   28.7740   36.8610 C   0  0  0  0  0  0  0  0  0  0  0  0
   33.6710   28.9530   37.9860 N   0  0  0  0  0  0  0  0  0  0  0  0
   35.0030   29.2010   37.8810 C   0  0  0  0  0  0  0  0  0  0  0  0
   35.6150   29.2790   36.6720 N   0  0  0  0  0  0  0  0  0  0  0  0
   35.3200   29.1610   34.5690 H   0  0  0  0  0  0  0  0  0  0  0  0
   32.8720   28.7050   34.7500 H   0  0  0  0  0  0  0  0  0  0  0  0
   31.8560   28.5820   37.0260 H   0  0  0  0  0  0  0  0  0  0  0  0
   38.4830   31.6210   40.4130 C   0  0  0  0  0  0  0  0  0  0  0  0
   38.2040   32.9710   40.5340 C   0  0  0  0  0  0  0  0  0  0  0  0
   39.4470   33.5910   40.6180 C   0  0  0  0  0  0  0  0  0  0  0  0
   40.4000   32.6010   40.5430 C   0  0  0  0  0  0  0  0  0  0  0  0
   39.7700   31.4520   40.4230 O   0  0  0  0  0  0  0  0  0  0  0  0
   37.2300   33.4130   40.5560 H   0  0  0  0  0  0  0  0  0  0  0  0
   39.6250   34.6690   40.7220 H   0  0  0  0  0  0  0  0  0  0  0  0
   42.5330   33.1080   39.4370 C   0  0  0  0  0  0  0  0  0  0  0  0
   41.8480   32.7830   40.5900 C   0  0  0  0  0  0  0  0  0  0  0  0
   42.5120   32.6280   41.7900 C   0  0  0  0  0  0  0  0  0  0  0  0
   41.9770   32.3700   42.7140 H   0  0  0  0  0  0  0  0  0  0  0  0
   43.8720   32.7850   41.9060 C   0  0  0  0  0  0  0  0  0  0  0  0
   44.4200   32.6690   42.8310 H   0  0  0  0  0  0  0  0  0  0  0  0
   44.5690   33.1140   40.7390 C   0  0  0  0  0  3  0  0  0  0  0  0
   43.8990   33.2660   39.5510 C   0  0  0  0  0  3  0  0  0  0  0  0
   40.4730   33.8610   38.0290 H   0  0  0  0  0  0  0  0  0  0  0  0
   41.7130   33.3100   37.9040 S   0  0  0  0  0  0  0  0  0  0  0  0
   42.5540   34.2450   37.0520 O   0  0  0  0  0  0  0  0  0  0  0  0
   41.6800   31.9840   37.1620 O   0  0  0  0  0  0  0  0  0  0  0  0
  1  9  1  0  0  0  0
  2  1  2  0  0  0  0
  2  3  1  0  0  0  0
  3  4  2  0  0  0  0
  4  8  1  0  0  0  0
  4  5  1  0  0  0  0
  5 12  1  0  0  0  0
  5  6  1  0  0  0  0
  6 13  1  0  0  0  0
  7  6  2  0  0  0  0
  8  7  1  0  0  0  0
  9 23  1  0  0  0  0
  9  8  2  0  0  0  0
 10  1  1  0  0  0  0
 11  3  1  0  0  0  0
 14 15  2  0  0  0  0
 14 19  1  0  0  0  0
 15 16  1  0  0  0  0
 16 22  1  0  0  0  0
 16 17  2  0  0  0  0
 18 17  1  0  0  0  0
 18  2  1  0  0  0  0
 19 18  2  0  0  0  0
 20 14  1  0  0  0  0
 21 15  1  0  0  0  0
 23 27  1  0  0  0  0
 23 24  2  0  0  0  0
 24 28  1  0  0  0  0
 24 25  1  0  0  0  0
 25 29  1  0  0  0  0
 26 31  1  0  0  0  0
 26 25  2  0  0  0  0
 27 26  1  0  0  0  0
 30 37  2  0  0  0  0
 30 31  1  0  0  0  0
 31 32  2  0  0  0  0
 32 34  1  0  0  0  0
 32 33  1  0  0  0  0
 34 35  1  0  0  0  0
 36 34  2  0  0  0  0
 37 36  1  0  0  0  0
 39 38  1  0  0  0  0
 39 30  1  0  0  0  0
 40 39  2  0  0  0  0
 41 39  2  0  0  0  0
M  END
>  <minimizedAffinity>
-6.2739377

$$$$

 OpenBabel03252506583D

 41 45  0  0  0  0  0  0  0  0999 V2000
   41.0110   31.0680   38.0230 C   0  0  0  0  0  0  0  0  0  0  0  0
   42.0300   31.9640   37.7300 C   0  0  0  0  0  0  0  0  0  0  0  0
   42.0340   33.2660   38.1770 C   0  0  0  0  0  0  0  0  0  0  0  0
   40.9820   33.7320   38.9610 C   0  0  0  0  0  0  0  0  0  0  0  0
   40.6560   34.9110   39.5610 N   0  0  0  0  0  0  0  0  0  0  0  0
   39.4770   34.7460   40.2020 C   0  0  0  0  0  0  0  0  0  0  0  0
   39.0820   33.4700   39.9940 N   0  0  0  0  0  0  0  0  0  0  0  0
   39.9870   32.8290   39.2370 C   0  0  0  0  0  0  0  0  0  0  0  0
   39.9570   31.5220   38.8040 C   0  0  0  0  0  0  0  0  0  0  0  0
   41.0380   30.0420   37.6520 H   0  0  0  0  0  0  0  0  0  0  0  0
   42.8200   33.9790   37.9580 H   0  0  0  0  0  0  0  0  0  0  0  0
   41.3050   35.7190   39.4560 H   0  0  0  0  0  0  0  0  0  0  0  0
   39.0120   35.5490   40.7540 H   0  0  0  0  0  0  0  0  0  0  0  0
   43.9830   30.1020   35.2360 C   0  0  0  0  0  0  0  0  0  0  0  0
   45.2570   30.6560   35.3710 C   0  0  0  0  0  0  0  0  0  0  0  0
   45.4440   31.6610   36.3110 C   0  0  0  0  0  0  0  0  0  0  0  0
   44.3770   32.0730   37.0710 N   0  0  0  0  0  0  0  0  0  0  0  0
   43.1530   31.5050   36.9050 C   0  0  0  0  0  0  0  0  0  0  0  0
   42.9470   30.5220   35.9920 N   0  0  0  0  0  0  0  0  0  0  0  0
   43.8690   29.3240   34.4970 H   0  0  0  0  0  0  0  0  0  0  0  0
   46.1210   30.3590   34.7920 H   0  0  0  0  0  0  0  0  0  0  0  0
   46.3820   32.1600   36.5000 H   0  0  0  0  0  0  0  0  0  0  0  0
   38.8450   30.6460   39.1590 C   0  0  0  0  0  0  0  0  0  0  0  0
   37.5910   30.6850   38.5760 C   0  0  0  0  0  0  0  0  0  0  0  0
   36.8630   29.6870   39.2170 C   0  0  0  0  0  0  0  0  0  0  0  0
   37.7000   29.1050   40.1420 C   0  0  0  0  0  0  0  0  0  0  0  0
   38.8630   29.7140   40.0630 O   0  0  0  0  0  0  0  0  0  0  0  0
   37.2780   31.3510   37.8000 H   0  0  0  0  0  0  0  0  0  0  0  0
   35.8170   29.4210   39.0170 H   0  0  0  0  0  0  0  0  0  0  0  0
   37.5200   26.7040   40.6260 C   0  0  0  0  0  0  0  0  0  0  0  0
   37.3670   28.0090   41.0480 C   0  0  0  0  0  0  0  0  0  0  0  0
   36.9040   28.2950   42.3160 C   0  0  0  0  0  0  0  0  0  0  0  0
   36.7780   29.3300   42.6630 H   0  0  0  0  0  0  0  0  0  0  0  0
   36.5720   27.3150   43.2190 C   0  0  0  0  0  0  0  0  0  0  0  0
   36.2070   27.5080   44.2180 H   0  0  0  0  0  0  0  0  0  0  0  0
   36.7270   25.9910   42.7950 C   0  0  0  0  0  3  0  0  0  0  0  0
   37.1880   25.7180   41.5320 C   0  0  0  0  0  3  0  0  0  0  0  0
   39.0750   27.1680   38.5880 H   0  0  0  0  0  0  0  0  0  0  0  0
   38.1060   26.3150   39.0230 S   0  0  0  0  0  0  0  0  0  0  0  0
   38.7020   24.9200   39.0770 O   0  0  0  0  0  0  0  0  0  0  0  0
   36.9370   26.2340   38.0560 O   0  0  0  0  0  0  0  0  0  0  0  0
  1  9  1  0  0  0  0
  2  1  2  0  0  0  0
  2  3  1  0  0  0  0
  3  4  2  0  0  0  0
  4  8  1  0  0  0  0
  4  5  1  0  0  0  0
  5  6  1  0  0  0  0
  6 13  1  0  0  0  0
  7  6  2  0  0  0  0
  8  7  1  0  0  0  0
  9 23  1  0  0  0  0
  9  8  2  0  0  0  0
 10  1  1  0  0  0  0
 11  3  1  0  0  0  0
 12  5  1  0  0  0  0
 14 15  2  0  0  0  0
 14 19  1  0  0  0  0
 15 16  1  0  0  0  0
 16 22  1  0  0  0  0
 16 17  2  0  0  0  0
 18 17  1  0  0  0  0
 18  2  1  0  0  0  0
 19 18  2  0  0  0  0
 20 14  1  0  0  0  0
 21 15  1  0  0  0  0
 23 27  1  0  0  0  0
 24 23  2  0  0  0  0
 24 25  1  0  0  0  0
 25 26  2  0  0  0  0
 26 31  1  0  0  0  0
 27 26  1  0  0  0  0
 28 24  1  0  0  0  0
 29 25  1  0  0  0  0
 30 31  2  0  0  0  0
 30 37  1  0  0  0  0
 31 32  1  0  0  0  0
 32 33  1  0  0  0  0
 32 34  2  0  0  0  0
 34 35  1  0  0  0  0
 36 34  1  0  0  0  0
 37 36  2  0  0  0  0
 38 39  1  0  0  0  0
 39 40  2  0  0  0  0
 39 30  1  0  0  0  0
 41 39  2  0  0  0  0
M  END
>  <minimizedAffinity>
-6.26996851

$$$$
