
 OpenBabel03242516003D

 31 33  0  0  0  0  0  0  0  0999 V2000
   45.0110   32.9360   41.2170 Cl  0  0  0  0  0  0  0  0  0  0  0  0
   46.4640   33.8980   41.0110 C   0  0  0  0  0  0  0  0  0  0  0  0
   46.9160   34.7340   41.9960 C   0  0  0  0  0  0  0  0  0  0  0  0
   48.0590   35.4320   41.7170 C   0  0  0  0  0  0  0  0  0  0  0  0
   48.7320   35.3210   40.5330 C   0  0  0  0  0  0  0  0  0  0  0  0
   48.2750   34.4860   39.5570 C   0  0  0  0  0  0  0  0  0  0  0  0
   47.1270   33.7700   39.8070 C   0  0  0  0  0  0  0  0  0  0  0  0
   48.4380   36.1050   42.4870 H   0  0  0  0  0  0  0  0  0  0  0  0
   49.6290   35.9080   40.3910 H   0  0  0  0  0  0  0  0  0  0  0  0
   48.7990   34.3850   38.6060 H   0  0  0  0  0  0  0  0  0  0  0  0
   44.5020   35.8730   44.6780 C   0  0  0  0  0  0  0  0  0  0  0  0
   45.2120   35.8240   43.4660 C   0  0  0  0  0  0  0  0  0  0  0  0
   46.1630   34.8170   43.2390 C   0  0  0  0  0  0  0  0  0  0  0  0
   46.3500   33.9190   44.2340 N   0  0  0  0  0  0  0  0  0  0  0  0
   45.6560   33.9920   45.3840 C   0  0  0  0  0  0  0  0  0  0  0  0
   44.7440   34.9450   45.6180 N   0  0  0  0  0  0  0  0  0  0  0  0
   43.7670   36.6440   44.8640 H   0  0  0  0  0  0  0  0  0  0  0  0
   45.0270   36.5660   42.6990 H   0  0  0  0  0  0  0  0  0  0  0  0
   45.9250   33.1950   46.0800 H   0  0  0  0  0  0  0  0  0  0  0  0
   47.0280   31.5580   38.6570 C   0  0  0  0  0  0  0  0  0  0  0  0
   46.6290   32.8700   38.7620 C   0  0  0  0  0  0  0  0  0  0  0  0
   45.7150   33.4500   37.8780 C   0  0  0  0  0  0  0  0  0  0  0  0
   45.3910   34.4810   37.9470 H   0  0  0  0  0  0  0  0  0  0  0  0
   45.2410   32.6080   36.8880 C   0  0  0  0  0  0  0  0  0  0  0  0
   44.5260   33.0460   36.1920 H   0  0  0  0  0  0  0  0  0  0  0  0
   45.6010   31.2860   36.7300 C   0  0  0  0  0  0  0  0  0  0  0  0
   46.5180   30.7600   37.6420 C   0  0  0  0  0  0  0  0  0  0  0  0
   49.0440   31.8720   40.2560 H   0  0  0  0  0  0  0  0  0  0  0  0
   48.1910   30.9180   39.8260 S   0  0  0  0  0  0  0  0  0  0  0  0
   48.8920   29.7760   39.1230 O   0  0  0  0  0  0  0  0  0  0  0  0
   47.3510   30.3490   40.9620 O   0  0  0  0  0  0  0  0  0  0  0  0
  2  1  1  0  0  0  0
  2  3  1  0  0  0  0
  3 13  1  0  0  0  0
  4  3  2  0  0  0  0
  4  8  1  0  0  0  0
  5  4  1  0  0  0  0
  6  7  1  0  0  0  0
  6  5  2  0  0  0  0
  7  2  2  0  0  0  0
  9  5  1  0  0  0  0
 10  6  1  0  0  0  0
 11 17  1  0  0  0  0
 11 16  1  0  0  0  0
 12 11  2  0  0  0  0
 13 12  1  0  0  0  0
 13 14  2  0  0  0  0
 14 15  1  0  0  0  0
 15 16  2  0  0  0  0
 15 19  1  0  0  0  0
 18 12  1  0  0  0  0
 20 21  1  0  0  0  0
 20 29  1  0  0  0  0
 21  7  1  0  0  0  0
 22 23  1  0  0  0  0
 22 21  2  0  0  0  0
 24 22  1  0  0  0  0
 25 24  1  0  0  0  0
 26 24  2  0  0  0  0
 26 27  1  0  0  0  0
 27 20  2  0  0  0  0
 29 28  1  0  0  0  0
 29 31  2  0  0  0  0
 30 29  2  0  0  0  0
M  END
>  <minimizedAffinity>
-5.26228762

>  <minimizedRMSD>
0.926275849

$$$$
