
 OpenBabel03252506563D

 41 45  0  0  0  0  0  0  0  0999 V2000
   47.2240   31.3640   45.1920 C   0  0  0  0  0  0  0  0  0  0  0  0
   46.8600   32.7030   45.1810 C   0  0  0  0  0  0  0  0  0  0  0  0
   46.2580   33.3250   46.2520 C   0  0  0  0  0  0  0  0  0  0  0  0
   45.9920   32.6030   47.4110 C   0  0  0  0  0  0  0  0  0  0  0  0
   45.4300   32.8700   48.6240 N   0  0  0  0  0  0  0  0  0  0  0  0
   45.4480   31.7350   49.3570 C   0  0  0  0  0  0  0  0  0  0  0  0
   46.0190   30.7750   48.5950 N   0  0  0  0  0  0  0  0  0  0  0  0
   46.3600   31.2820   47.3990 C   0  0  0  0  0  0  0  0  0  0  0  0
   46.9630   30.6340   46.3440 C   0  0  0  0  0  0  0  0  0  0  0  0
   47.6990   30.9010   44.3260 H   0  0  0  0  0  0  0  0  0  0  0  0
   45.9670   34.3690   46.2600 H   0  0  0  0  0  0  0  0  0  0  0  0
   45.0880   33.8360   48.8110 H   0  0  0  0  0  0  0  0  0  0  0  0
   45.0550   31.6990   50.3620 H   0  0  0  0  0  0  0  0  0  0  0  0
   46.4810   35.1600   42.4760 C   0  0  0  0  0  0  0  0  0  0  0  0
   47.6360   34.9610   41.7190 C   0  0  0  0  0  0  0  0  0  0  0  0
   48.5390   33.9900   42.1330 C   0  0  0  0  0  0  0  0  0  0  0  0
   48.2650   33.2650   43.2670 N   0  0  0  0  0  0  0  0  0  0  0  0
   47.1270   33.4930   43.9730 C   0  0  0  0  0  0  0  0  0  0  0  0
   46.2310   34.4360   43.5860 N   0  0  0  0  0  0  0  0  0  0  0  0
   45.7990   35.9220   42.1280 H   0  0  0  0  0  0  0  0  0  0  0  0
   47.8860   35.5120   40.8210 H   0  0  0  0  0  0  0  0  0  0  0  0
   49.4610   33.7510   41.6270 H   0  0  0  0  0  0  0  0  0  0  0  0
   47.3130   29.2200   46.4420 C   0  0  0  0  0  0  0  0  0  0  0  0
   48.3380   28.6100   45.7410 C   0  0  0  0  0  0  0  0  0  0  0  0
   48.3060   27.2780   46.1410 C   0  0  0  0  0  0  0  0  0  0  0  0
   47.2790   27.1510   47.0480 C   0  0  0  0  0  0  0  0  0  0  0  0
   46.7250   28.3360   47.1880 O   0  0  0  0  0  0  0  0  0  0  0  0
   48.9990   29.0880   45.0480 H   0  0  0  0  0  0  0  0  0  0  0  0
   48.9780   26.4830   45.7920 H   0  0  0  0  0  0  0  0  0  0  0  0
   45.7010   25.2950   47.3660 C   0  0  0  0  0  0  0  0  0  0  0  0
   46.8720   25.9280   47.7350 C   0  0  0  0  0  0  0  0  0  0  0  0
   47.6640   25.4220   48.7450 C   0  0  0  0  0  0  0  0  0  0  0  0
   48.5960   25.9180   49.0460 H   0  0  0  0  0  0  0  0  0  0  0  0
   47.3400   24.2770   49.4330 C   0  0  0  0  0  0  0  0  0  0  0  0
   47.9420   23.8580   50.2280 H   0  0  0  0  0  0  0  0  0  0  0  0
   46.1560   23.6340   49.0620 C   0  0  0  0  0  3  0  0  0  0  0  0
   45.3750   24.1460   48.0550 C   0  0  0  0  0  3  0  0  0  0  0  0
   45.3850   26.4550   45.0540 H   0  0  0  0  0  0  0  0  0  0  0  0
   44.6790   25.9170   46.0890 S   0  0  0  0  0  0  0  0  0  0  0  0
   43.8640   24.7580   45.5450 O   0  0  0  0  0  0  0  0  0  0  0  0
   43.6750   26.9000   46.6680 O   0  0  0  0  0  0  0  0  0  0  0  0
  1  9  1  0  0  0  0
  2  1  2  0  0  0  0
  2  3  1  0  0  0  0
  3 11  1  0  0  0  0
  3  4  2  0  0  0  0
  4  5  1  0  0  0  0
  5 12  1  0  0  0  0
  5  6  1  0  0  0  0
  6 13  1  0  0  0  0
  7  6  2  0  0  0  0
  8  4  1  0  0  0  0
  8  7  1  0  0  0  0
  9 23  1  0  0  0  0
  9  8  2  0  0  0  0
 10  1  1  0  0  0  0
 14 19  1  0  0  0  0
 15 16  1  0  0  0  0
 15 14  2  0  0  0  0
 16 17  2  0  0  0  0
 17 18  1  0  0  0  0
 18  2  1  0  0  0  0
 19 18  2  0  0  0  0
 20 14  1  0  0  0  0
 21 15  1  0  0  0  0
 22 16  1  0  0  0  0
 23 27  1  0  0  0  0
 24 25  1  0  0  0  0
 24 23  2  0  0  0  0
 25 26  2  0  0  0  0
 26 27  1  0  0  0  0
 26 31  1  0  0  0  0
 28 24  1  0  0  0  0
 29 25  1  0  0  0  0
 30 31  2  0  0  0  0
 30 37  1  0  0  0  0
 31 32  1  0  0  0  0
 32 33  1  0  0  0  0
 32 34  2  0  0  0  0
 34 35  1  0  0  0  0
 36 34  1  0  0  0  0
 37 36  2  0  0  0  0
 38 39  1  0  0  0  0
 39 41  2  0  0  0  0
 39 30  1  0  0  0  0
 40 39  2  0  0  0  0
M  END
>  <minimizedAffinity>
-5.95785379

>  <minimizedRMSD>
1.56184864

$$$$
