
 OpenBabel03252508423D

 31 33  0  0  0  0  0  0  0  0999 V2000
   37.5800   29.5150   41.4880 C   0  0  0  0  0  0  0  0  0  0  0  0
   36.6380   28.5580   41.2250 C   0  0  0  0  0  0  0  0  0  0  0  0
   36.3900   27.5550   42.1300 C   0  0  0  0  0  0  0  0  0  0  0  0
   37.1200   27.5410   43.3150 C   0  0  0  0  0  0  0  0  0  0  0  0
   38.0780   28.4800   43.6270 C   0  0  0  0  0  0  0  0  0  0  0  0
   38.2860   29.4800   42.6630 C   0  0  0  0  0  0  0  0  0  0  0  0
   35.6670   26.7650   42.0000 H   0  0  0  0  0  0  0  0  0  0  0  0
   36.9390   26.7590   44.0400 H   0  0  0  0  0  0  0  0  0  0  0  0
   38.6550   28.5020   44.5230 H   0  0  0  0  0  0  0  0  0  0  0  0
   39.0150   30.2750   42.7940 H   0  0  0  0  0  0  0  0  0  0  0  0
   37.3130   32.6610   39.4060 C   0  0  0  0  0  0  0  0  0  0  0  0
   37.0400   31.7300   40.4210 C   0  0  0  0  0  0  0  0  0  0  0  0
   37.7790   30.5420   40.4810 C   0  0  0  0  0  0  0  0  0  0  0  0
   38.7220   30.3750   39.5370 N   0  0  0  0  0  0  0  0  0  0  0  0
   38.9920   31.2650   38.5570 C   0  0  0  0  0  0  0  0  0  0  0  0
   38.2850   32.4110   38.4910 N   0  0  0  0  0  0  0  0  0  0  0  0
   36.7440   33.5780   39.3540 H   0  0  0  0  0  0  0  0  0  0  0  0
   36.2860   31.8900   41.1590 H   0  0  0  0  0  0  0  0  0  0  0  0
   39.7760   31.0410   37.8330 H   0  0  0  0  0  0  0  0  0  0  0  0
   36.1820   27.7250   38.9370 C   0  0  0  0  0  0  0  0  0  0  0  0
   35.8030   28.4660   40.0240 C   0  0  0  0  0  0  0  0  0  0  0  0
   34.5800   29.1390   39.9610 C   0  0  0  0  0  0  0  0  0  0  0  0
   34.2140   29.7380   40.7760 H   0  0  0  0  0  0  0  0  0  0  0  0
   33.8140   29.0280   38.8160 C   0  0  0  0  0  0  0  0  0  0  0  0
   32.8510   29.5610   38.7710 H   0  0  0  0  0  0  0  0  0  0  0  0
   34.2090   28.2780   37.7300 C   0  0  0  0  0  3  0  0  0  0  0  0
   35.4300   27.5980   37.7770 C   0  0  0  0  0  3  0  0  0  0  0  0
   38.4210   27.0690   40.0950 H   0  0  0  0  0  0  0  0  0  0  0  0
   37.6960   26.8750   38.9710 S   0  0  0  0  0  0  0  0  0  0  0  0
   37.4370   25.4010   38.8300 O   0  0  0  0  0  0  0  0  0  0  0  0
   38.5850   27.2710   37.8060 O   0  0  0  0  0  0  0  0  0  0  0  0
  1  6  1  0  0  0  0
  2  1  2  0  0  0  0
  2  3  1  0  0  0  0
  3  4  2  0  0  0  0
  4  5  1  0  0  0  0
  4  8  1  0  0  0  0
  5  9  1  0  0  0  0
  6 10  1  0  0  0  0
  6  5  2  0  0  0  0
  7  3  1  0  0  0  0
 11 12  1  0  0  0  0
 12 13  2  0  0  0  0
 12 18  1  0  0  0  0
 13  1  1  0  0  0  0
 14 13  1  0  0  0  0
 15 14  2  0  0  0  0
 16 15  1  0  0  0  0
 16 11  2  0  0  0  0
 17 11  1  0  0  0  0
 19 15  1  0  0  0  0
 20 29  1  0  0  0  0
 20 21  1  0  0  0  0
 21  2  1  0  0  0  0
 22 21  2  0  0  0  0
 22 23  1  0  0  0  0
 24 22  1  0  0  0  0
 25 24  1  0  0  0  0
 26 27  1  0  0  0  0
 26 24  2  0  0  0  0
 27 20  2  0  0  0  0
 29 28  1  0  0  0  0
 30 29  2  0  0  0  0
 31 29  2  0  0  0  0
M  END
>  <minimizedAffinity>
-5.33633137

$$$$

 OpenBabel03252508423D

 31 33  0  0  0  0  0  0  0  0999 V2000
   36.5170   28.4270   41.3840 C   0  0  0  0  0  0  0  0  0  0  0  0
   37.4170   29.4520   41.4880 C   0  0  0  0  0  0  0  0  0  0  0  0
   38.1590   29.6180   42.6320 C   0  0  0  0  0  0  0  0  0  0  0  0
   37.9700   28.7170   43.6760 C   0  0  0  0  0  0  0  0  0  0  0  0
   37.0780   27.6690   43.6220 C   0  0  0  0  0  0  0  0  0  0  0  0
   36.3490   27.5520   42.4270 C   0  0  0  0  0  0  0  0  0  0  0  0
   38.8870   30.3970   42.7930 H   0  0  0  0  0  0  0  0  0  0  0  0
   38.5460   28.8310   44.5850 H   0  0  0  0  0  0  0  0  0  0  0  0
   36.9070   26.9610   44.4000 H   0  0  0  0  0  0  0  0  0  0  0  0
   35.6150   26.7670   42.2660 H   0  0  0  0  0  0  0  0  0  0  0  0
   33.9970   28.9070   38.6060 C   0  0  0  0  0  0  0  0  0  0  0  0
   34.6430   29.0880   39.8390 C   0  0  0  0  0  0  0  0  0  0  0  0
   35.7750   28.3200   40.1410 C   0  0  0  0  0  0  0  0  0  0  0  0
   36.1700   27.4420   39.2030 N   0  0  0  0  0  0  0  0  0  0  0  0
   35.5560   27.2610   38.0140 C   0  0  0  0  0  0  0  0  0  0  0  0
   34.4650   27.9960   37.7140 N   0  0  0  0  0  0  0  0  0  0  0  0
   33.1230   29.4960   38.3690 H   0  0  0  0  0  0  0  0  0  0  0  0
   34.3070   29.7930   40.5660 H   0  0  0  0  0  0  0  0  0  0  0  0
   35.9500   26.5230   37.3150 H   0  0  0  0  0  0  0  0  0  0  0  0
   38.6650   30.2520   39.5030 C   0  0  0  0  0  0  0  0  0  0  0  0
   37.7110   30.4580   40.4630 C   0  0  0  0  0  0  0  0  0  0  0  0
   37.0110   31.6670   40.4390 C   0  0  0  0  0  0  0  0  0  0  0  0
   36.2460   31.9000   41.1580 H   0  0  0  0  0  0  0  0  0  0  0  0
   37.3090   32.5930   39.4570 C   0  0  0  0  0  0  0  0  0  0  0  0
   36.7560   33.5450   39.4430 H   0  0  0  0  0  0  0  0  0  0  0  0
   38.2720   32.3710   38.4970 C   0  0  0  0  0  3  0  0  0  0  0  0
   38.9810   31.1660   38.5070 C   0  0  0  0  0  3  0  0  0  0  0  0
   38.8960   27.7090   40.0190 H   0  0  0  0  0  0  0  0  0  0  0  0
   39.5610   28.7640   39.4980 S   0  0  0  0  0  0  0  0  0  0  0  0
   39.9430   28.4240   38.0840 O   0  0  0  0  0  0  0  0  0  0  0  0
   40.8570   28.8900   40.2770 O   0  0  0  0  0  0  0  0  0  0  0  0
  1  2  2  0  0  0  0
  1  6  1  0  0  0  0
  2  3  1  0  0  0  0
  3  7  1  0  0  0  0
  3  4  2  0  0  0  0
  4  8  1  0  0  0  0
  5  4  1  0  0  0  0
  5  9  1  0  0  0  0
  6  5  2  0  0  0  0
 10  6  1  0  0  0  0
 11 12  1  0  0  0  0
 12 13  2  0  0  0  0
 12 18  1  0  0  0  0
 13  1  1  0  0  0  0
 14 13  1  0  0  0  0
 15 14  2  0  0  0  0
 16 15  1  0  0  0  0
 16 11  2  0  0  0  0
 17 11  1  0  0  0  0
 19 15  1  0  0  0  0
 20 21  1  0  0  0  0
 21  2  1  0  0  0  0
 22 21  2  0  0  0  0
 22 23  1  0  0  0  0
 24 22  1  0  0  0  0
 25 24  1  0  0  0  0
 26 27  1  0  0  0  0
 26 24  2  0  0  0  0
 27 20  2  0  0  0  0
 29 20  1  0  0  0  0
 29 28  1  0  0  0  0
 29 31  2  0  0  0  0
 30 29  2  0  0  0  0
M  END
>  <minimizedAffinity>
-5.24646282

$$$$

 OpenBabel03252508423D

 31 33  0  0  0  0  0  0  0  0999 V2000
   38.6410   31.6180   40.8320 C   0  0  0  0  0  0  0  0  0  0  0  0
   37.5000   31.7400   40.0860 C   0  0  0  0  0  0  0  0  0  0  0  0
   37.1090   32.9640   39.6000 C   0  0  0  0  0  0  0  0  0  0  0  0
   37.9040   34.0700   39.8860 C   0  0  0  0  0  0  0  0  0  0  0  0
   39.0600   34.0020   40.6320 C   0  0  0  0  0  0  0  0  0  0  0  0
   39.4070   32.7240   41.1000 C   0  0  0  0  0  0  0  0  0  0  0  0
   36.2280   33.1440   39.0060 H   0  0  0  0  0  0  0  0  0  0  0  0
   37.6130   35.0430   39.5120 H   0  0  0  0  0  0  0  0  0  0  0  0
   39.6930   34.8260   40.8710 H   0  0  0  0  0  0  0  0  0  0  0  0
   40.2950   32.5430   41.6990 H   0  0  0  0  0  0  0  0  0  0  0  0
   40.0250   28.1110   41.1210 C   0  0  0  0  0  0  0  0  0  0  0  0
   39.7470   29.3730   40.5710 C   0  0  0  0  0  0  0  0  0  0  0  0
   38.9840   30.2900   41.3050 C   0  0  0  0  0  0  0  0  0  0  0  0
   38.5630   29.8840   42.5160 N   0  0  0  0  0  0  0  0  0  0  0  0
   38.8260   28.6730   43.0530 C   0  0  0  0  0  0  0  0  0  0  0  0
   39.5590   27.7840   42.3530 N   0  0  0  0  0  0  0  0  0  0  0  0
   40.6110   27.3990   40.5570 H   0  0  0  0  0  0  0  0  0  0  0  0
   40.0950   29.6680   39.6060 H   0  0  0  0  0  0  0  0  0  0  0  0
   38.4400   28.4330   44.0440 H   0  0  0  0  0  0  0  0  0  0  0  0
   36.6790   30.0190   38.5040 C   0  0  0  0  0  0  0  0  0  0  0  0
   36.5860   30.6570   39.7120 C   0  0  0  0  0  0  0  0  0  0  0  0
   35.5860   30.2400   40.5940 C   0  0  0  0  0  0  0  0  0  0  0  0
   35.4530   30.6900   41.5620 H   0  0  0  0  0  0  0  0  0  0  0  0
   34.7430   29.2130   40.2140 C   0  0  0  0  0  0  0  0  0  0  0  0
   33.9560   28.8880   40.9120 H   0  0  0  0  0  0  0  0  0  0  0  0
   34.8500   28.5800   38.9940 C   0  0  0  0  0  3  0  0  0  0  0  0
   35.8450   28.9860   38.1000 C   0  0  0  0  0  3  0  0  0  0  0  0
   38.7490   31.4550   37.8410 H   0  0  0  0  0  0  0  0  0  0  0  0
   37.9060   30.5070   37.3750 S   0  0  0  0  0  0  0  0  0  0  0  0
   38.7210   29.3070   36.9840 O   0  0  0  0  0  0  0  0  0  0  0  0
   37.3000   31.0540   36.0960 O   0  0  0  0  0  0  0  0  0  0  0  0
  1  6  1  0  0  0  0
  1 13  1  0  0  0  0
  2  1  2  0  0  0  0
  3  4  2  0  0  0  0
  3  2  1  0  0  0  0
  4  5  1  0  0  0  0
  5  9  1  0  0  0  0
  5  6  2  0  0  0  0
  6 10  1  0  0  0  0
  7  3  1  0  0  0  0
  8  4  1  0  0  0  0
 11 16  1  0  0  0  0
 12 11  2  0  0  0  0
 12 13  1  0  0  0  0
 13 14  2  0  0  0  0
 14 15  1  0  0  0  0
 15 19  1  0  0  0  0
 16 15  2  0  0  0  0
 17 11  1  0  0  0  0
 18 12  1  0  0  0  0
 20 21  1  0  0  0  0
 21  2  1  0  0  0  0
 21 22  2  0  0  0  0
 22 23  1  0  0  0  0
 24 22  1  0  0  0  0
 24 25  1  0  0  0  0
 26 24  2  0  0  0  0
 27 20  2  0  0  0  0
 27 26  1  0  0  0  0
 29 28  1  0  0  0  0
 29 20  1  0  0  0  0
 30 29  2  0  0  0  0
 31 29  2  0  0  0  0
M  END
>  <minimizedAffinity>
-5.08682489

$$$$

 OpenBabel03252508423D

 31 33  0  0  0  0  0  0  0  0999 V2000
   36.2160   26.7710   39.1730 C   0  0  0  0  0  0  0  0  0  0  0  0
   36.1520   27.8620   39.9960 C   0  0  0  0  0  0  0  0  0  0  0  0
   35.3550   28.9340   39.6750 C   0  0  0  0  0  0  0  0  0  0  0  0
   34.6190   28.8780   38.4960 C   0  0  0  0  0  0  0  0  0  0  0  0
   34.6480   27.8050   37.6330 C   0  0  0  0  0  0  0  0  0  0  0  0
   35.4800   26.7400   38.0150 C   0  0  0  0  0  0  0  0  0  0  0  0
   35.2490   29.8280   40.2690 H   0  0  0  0  0  0  0  0  0  0  0  0
   33.9850   29.7130   38.2260 H   0  0  0  0  0  0  0  0  0  0  0  0
   34.0990   27.7260   36.7230 H   0  0  0  0  0  0  0  0  0  0  0  0
   35.5870   25.8390   37.4170 H   0  0  0  0  0  0  0  0  0  0  0  0
   37.5760   23.6090   40.7390 C   0  0  0  0  0  0  0  0  0  0  0  0
   36.6610   24.6180   40.3980 C   0  0  0  0  0  0  0  0  0  0  0  0
   37.0790   25.6790   39.5850 C   0  0  0  0  0  0  0  0  0  0  0  0
   38.3610   25.6530   39.1800 N   0  0  0  0  0  0  0  0  0  0  0  0
   39.2480   24.6880   39.5020 C   0  0  0  0  0  0  0  0  0  0  0  0
   38.8540   23.6620   40.2850 N   0  0  0  0  0  0  0  0  0  0  0  0
   37.2590   22.7890   41.3680 H   0  0  0  0  0  0  0  0  0  0  0  0
   35.6480   24.6120   40.7340 H   0  0  0  0  0  0  0  0  0  0  0  0
   40.2690   24.7530   39.1260 H   0  0  0  0  0  0  0  0  0  0  0  0
   38.0900   28.6550   41.3200 C   0  0  0  0  0  0  0  0  0  0  0  0
   36.8690   28.0390   41.2620 C   0  0  0  0  0  0  0  0  0  0  0  0
   36.3130   27.5790   42.4590 C   0  0  0  0  0  0  0  0  0  0  0  0
   35.3560   27.0890   42.4940 H   0  0  0  0  0  0  0  0  0  0  0  0
   37.0120   27.7670   43.6370 C   0  0  0  0  0  0  0  0  0  0  0  0
   36.5700   27.4020   44.5770 H   0  0  0  0  0  0  0  0  0  0  0  0
   38.2400   28.3890   43.6780 C   0  0  0  0  0  3  0  0  0  0  0  0
   38.8110   28.8540   42.4890 C   0  0  0  0  0  3  0  0  0  0  0  0
   38.0760   29.0440   38.7440 H   0  0  0  0  0  0  0  0  0  0  0  0
   38.8200   29.2390   39.8550 S   0  0  0  0  0  0  0  0  0  0  0  0
   39.0830   30.7120   39.9890 O   0  0  0  0  0  0  0  0  0  0  0  0
   40.1630   28.5810   39.6010 O   0  0  0  0  0  0  0  0  0  0  0  0
  1 13  1  0  0  0  0
  1  2  1  0  0  0  0
  2 21  1  0  0  0  0
  3  2  2  0  0  0  0
  3  7  1  0  0  0  0
  4  3  1  0  0  0  0
  5  6  1  0  0  0  0
  5  4  2  0  0  0  0
  6  1  2  0  0  0  0
  8  4  1  0  0  0  0
  9  5  1  0  0  0  0
 10  6  1  0  0  0  0
 11 17  1  0  0  0  0
 12 18  1  0  0  0  0
 12 11  1  0  0  0  0
 13 12  2  0  0  0  0
 14 15  2  0  0  0  0
 14 13  1  0  0  0  0
 15 16  1  0  0  0  0
 16 11  2  0  0  0  0
 19 15  1  0  0  0  0
 20 27  1  0  0  0  0
 21 20  2  0  0  0  0
 21 22  1  0  0  0  0
 22 23  1  0  0  0  0
 22 24  2  0  0  0  0
 24 26  1  0  0  0  0
 24 25  1  0  0  0  0
 27 26  2  0  0  0  0
 28 29  1  0  0  0  0
 29 30  2  0  0  0  0
 29 20  1  0  0  0  0
 31 29  2  0  0  0  0
M  END
>  <minimizedAffinity>
-5.05972672

$$$$

 OpenBabel03252508423D

 31 33  0  0  0  0  0  0  0  0999 V2000
   37.4060   31.7980   39.9210 C   0  0  0  0  0  0  0  0  0  0  0  0
   38.4550   31.5260   40.7550 C   0  0  0  0  0  0  0  0  0  0  0  0
   39.2870   32.5310   41.1850 C   0  0  0  0  0  0  0  0  0  0  0  0
   39.0320   33.8280   40.7480 C   0  0  0  0  0  0  0  0  0  0  0  0
   37.9900   34.1550   39.9080 C   0  0  0  0  0  0  0  0  0  0  0  0
   37.1750   33.0840   39.5050 C   0  0  0  0  0  0  0  0  0  0  0  0
   40.1320   32.4000   41.8410 H   0  0  0  0  0  0  0  0  0  0  0  0
   39.6760   34.6330   41.0750 H   0  0  0  0  0  0  0  0  0  0  0  0
   37.7650   35.1340   39.5540 H   0  0  0  0  0  0  0  0  0  0  0  0
   36.3240   33.2170   38.8430 H   0  0  0  0  0  0  0  0  0  0  0  0
   35.8130   28.9720   37.9770 C   0  0  0  0  0  0  0  0  0  0  0  0
   36.6660   30.0480   38.2700 C   0  0  0  0  0  0  0  0  0  0  0  0
   36.5730   30.6800   39.5160 C   0  0  0  0  0  0  0  0  0  0  0  0
   35.6470   30.1980   40.3640 N   0  0  0  0  0  0  0  0  0  0  0  0
   34.8230   29.1640   40.0920 C   0  0  0  0  0  0  0  0  0  0  0  0
   34.9050   28.5490   38.8940 N   0  0  0  0  0  0  0  0  0  0  0  0
   35.8790   28.4830   37.0160 H   0  0  0  0  0  0  0  0  0  0  0  0
   37.3930   30.4100   37.5770 H   0  0  0  0  0  0  0  0  0  0  0  0
   34.1010   28.8420   40.8440 H   0  0  0  0  0  0  0  0  0  0  0  0
   39.6790   29.3760   40.6220 C   0  0  0  0  0  0  0  0  0  0  0  0
   38.8230   30.2110   41.2880 C   0  0  0  0  0  0  0  0  0  0  0  0
   38.3050   29.7730   42.5100 C   0  0  0  0  0  0  0  0  0  0  0  0
   37.6300   30.3740   43.0940 H   0  0  0  0  0  0  0  0  0  0  0  0
   38.6760   28.5300   42.9880 C   0  0  0  0  0  0  0  0  0  0  0  0
   38.2650   28.1900   43.9510 H   0  0  0  0  0  0  0  0  0  0  0  0
   39.5390   27.7020   42.3050 C   0  0  0  0  0  3  0  0  0  0  0  0
   40.0660   28.1240   41.0810 C   0  0  0  0  0  3  0  0  0  0  0  0
   39.9130   31.0850   38.6700 H   0  0  0  0  0  0  0  0  0  0  0  0
   40.3440   29.8780   39.0970 S   0  0  0  0  0  0  0  0  0  0  0  0
   41.8430   29.9270   39.2050 O   0  0  0  0  0  0  0  0  0  0  0  0
   40.0230   28.8860   37.9950 O   0  0  0  0  0  0  0  0  0  0  0  0
  1  2  1  0  0  0  0
  2  3  2  0  0  0  0
  2 21  1  0  0  0  0
  3  7  1  0  0  0  0
  4  8  1  0  0  0  0
  4  3  1  0  0  0  0
  5  4  2  0  0  0  0
  6  5  1  0  0  0  0
  6  1  2  0  0  0  0
  9  5  1  0  0  0  0
 10  6  1  0  0  0  0
 11 12  2  0  0  0  0
 11 16  1  0  0  0  0
 12 13  1  0  0  0  0
 13  1  1  0  0  0  0
 13 14  2  0  0  0  0
 15 14  1  0  0  0  0
 15 19  1  0  0  0  0
 16 15  2  0  0  0  0
 17 11  1  0  0  0  0
 18 12  1  0  0  0  0
 20 27  2  0  0  0  0
 20 21  1  0  0  0  0
 21 22  2  0  0  0  0
 22 24  1  0  0  0  0
 22 23  1  0  0  0  0
 24 25  1  0  0  0  0
 26 24  2  0  0  0  0
 27 26  1  0  0  0  0
 28 29  1  0  0  0  0
 29 30  2  0  0  0  0
 29 20  1  0  0  0  0
 31 29  2  0  0  0  0
M  END
>  <minimizedAffinity>
-5.02262115

$$$$

 OpenBabel03252508423D

 31 33  0  0  0  0  0  0  0  0999 V2000
   36.4500   26.0720   39.3550 C   0  0  0  0  0  0  0  0  0  0  0  0
   36.8750   25.7470   40.6140 C   0  0  0  0  0  0  0  0  0  0  0  0
   36.7690   24.4580   41.0770 C   0  0  0  0  0  0  0  0  0  0  0  0
   36.2210   23.4980   40.2320 C   0  0  0  0  0  0  0  0  0  0  0  0
   35.7780   23.7720   38.9570 C   0  0  0  0  0  0  0  0  0  0  0  0
   35.9130   25.1070   38.5410 C   0  0  0  0  0  0  0  0  0  0  0  0
   37.0800   24.1210   42.0530 H   0  0  0  0  0  0  0  0  0  0  0  0
   36.1300   22.4770   40.5790 H   0  0  0  0  0  0  0  0  0  0  0  0
   35.3540   23.0650   38.2830 H   0  0  0  0  0  0  0  0  0  0  0  0
   35.5990   25.4470   37.5580 H   0  0  0  0  0  0  0  0  0  0  0  0
   35.8840   29.7600   38.7400 C   0  0  0  0  0  0  0  0  0  0  0  0
   35.6420   28.4500   39.1820 C   0  0  0  0  0  0  0  0  0  0  0  0
   36.5990   27.4550   38.9410 C   0  0  0  0  0  0  0  0  0  0  0  0
   37.7090   27.8390   38.2870 N   0  0  0  0  0  0  0  0  0  0  0  0
   37.9510   29.0970   37.8590 C   0  0  0  0  0  0  0  0  0  0  0  0
   37.0350   30.0610   38.0860 N   0  0  0  0  0  0  0  0  0  0  0  0
   35.1480   30.5300   38.9210 H   0  0  0  0  0  0  0  0  0  0  0  0
   34.7510   28.1740   39.7000 H   0  0  0  0  0  0  0  0  0  0  0  0
   38.8820   29.3130   37.3340 H   0  0  0  0  0  0  0  0  0  0  0  0
   38.8230   26.8780   41.6460 C   0  0  0  0  0  0  0  0  0  0  0  0
   37.4720   26.6600   41.5930 C   0  0  0  0  0  0  0  0  0  0  0  0
   36.6650   27.3450   42.5050 C   0  0  0  0  0  0  0  0  0  0  0  0
   35.5960   27.2290   42.5220 H   0  0  0  0  0  0  0  0  0  0  0  0
   37.2580   28.2030   43.4120 C   0  0  0  0  0  0  0  0  0  0  0  0
   36.6180   28.7390   44.1290 H   0  0  0  0  0  0  0  0  0  0  0  0
   38.6200   28.4110   43.4530 C   0  0  0  0  0  3  0  0  0  0  0  0
   39.4420   27.7340   42.5470 C   0  0  0  0  0  3  0  0  0  0  0  0
   39.2150   25.3330   39.5860 H   0  0  0  0  0  0  0  0  0  0  0  0
   39.8640   26.0450   40.5330 S   0  0  0  0  0  0  0  0  0  0  0  0
   40.7480   27.0460   39.8420 O   0  0  0  0  0  0  0  0  0  0  0  0
   40.7870   25.0770   41.2500 O   0  0  0  0  0  0  0  0  0  0  0  0
  1  2  1  0  0  0  0
  2  3  2  0  0  0  0
  2 21  1  0  0  0  0
  3  7  1  0  0  0  0
  4  8  1  0  0  0  0
  4  3  1  0  0  0  0
  5  4  2  0  0  0  0
  6  5  1  0  0  0  0
  6  1  2  0  0  0  0
  9  5  1  0  0  0  0
 10  6  1  0  0  0  0
 11 17  1  0  0  0  0
 11 12  1  0  0  0  0
 12 18  1  0  0  0  0
 13 12  2  0  0  0  0
 13  1  1  0  0  0  0
 14 13  1  0  0  0  0
 15 16  1  0  0  0  0
 15 14  2  0  0  0  0
 16 11  2  0  0  0  0
 19 15  1  0  0  0  0
 20 27  1  0  0  0  0
 21 20  2  0  0  0  0
 21 22  1  0  0  0  0
 22 23  1  0  0  0  0
 22 24  2  0  0  0  0
 24 26  1  0  0  0  0
 24 25  1  0  0  0  0
 27 26  2  0  0  0  0
 28 29  1  0  0  0  0
 29 31  2  0  0  0  0
 29 20  1  0  0  0  0
 30 29  2  0  0  0  0
M  END
>  <minimizedAffinity>
-4.94565487

$$$$

 OpenBabel03252508423D

 31 33  0  0  0  0  0  0  0  0999 V2000
   37.1950   29.8040   39.2710 C   0  0  0  0  0  0  0  0  0  0  0  0
   36.8330   28.7050   40.0000 C   0  0  0  0  0  0  0  0  0  0  0  0
   35.8240   27.8790   39.5660 C   0  0  0  0  0  0  0  0  0  0  0  0
   35.1860   28.1910   38.3690 C   0  0  0  0  0  0  0  0  0  0  0  0
   35.5120   29.2850   37.5980 C   0  0  0  0  0  0  0  0  0  0  0  0
   36.5510   30.0910   38.0940 C   0  0  0  0  0  0  0  0  0  0  0  0
   35.4800   26.9960   40.0800 H   0  0  0  0  0  0  0  0  0  0  0  0
   34.3900   27.5530   38.0110 H   0  0  0  0  0  0  0  0  0  0  0  0
   35.0470   29.5550   36.6780 H   0  0  0  0  0  0  0  0  0  0  0  0
   36.8970   30.9810   37.5760 H   0  0  0  0  0  0  0  0  0  0  0  0
   39.1830   32.4800   41.0570 C   0  0  0  0  0  0  0  0  0  0  0  0
   38.0710   31.7560   40.5970 C   0  0  0  0  0  0  0  0  0  0  0  0
   38.2720   30.6240   39.7970 C   0  0  0  0  0  0  0  0  0  0  0  0
   39.5480   30.3050   39.5200 N   0  0  0  0  0  0  0  0  0  0  0  0
   40.6230   30.9950   39.9570 C   0  0  0  0  0  0  0  0  0  0  0  0
   40.4400   32.0860   40.7280 N   0  0  0  0  0  0  0  0  0  0  0  0
   39.0340   33.3550   41.6720 H   0  0  0  0  0  0  0  0  0  0  0  0
   37.0680   32.0320   40.8330 H   0  0  0  0  0  0  0  0  0  0  0  0
   41.6230   30.6600   39.6800 H   0  0  0  0  0  0  0  0  0  0  0  0
   38.4580   27.3660   41.3050 C   0  0  0  0  0  0  0  0  0  0  0  0
   37.4280   28.2670   41.2660 C   0  0  0  0  0  0  0  0  0  0  0  0
   36.9530   28.7680   42.4810 C   0  0  0  0  0  0  0  0  0  0  0  0
   36.1500   29.4820   42.5300 H   0  0  0  0  0  0  0  0  0  0  0  0
   37.5390   28.3390   43.6570 C   0  0  0  0  0  0  0  0  0  0  0  0
   37.1610   28.7370   44.6110 H   0  0  0  0  0  0  0  0  0  0  0  0
   38.5760   27.4320   43.6800 C   0  0  0  0  0  3  0  0  0  0  0  0
   39.0620   26.9200   42.4730 C   0  0  0  0  0  3  0  0  0  0  0  0
   38.8780   27.5000   38.7380 H   0  0  0  0  0  0  0  0  0  0  0  0
   39.0770   26.7140   39.8190 S   0  0  0  0  0  0  0  0  0  0  0  0
   40.5550   26.4790   39.9610 O   0  0  0  0  0  0  0  0  0  0  0  0
   38.4540   25.3680   39.4980 O   0  0  0  0  0  0  0  0  0  0  0  0
  1 13  1  0  0  0  0
  1  2  1  0  0  0  0
  2 21  1  0  0  0  0
  3  2  2  0  0  0  0
  3  7  1  0  0  0  0
  4  3  1  0  0  0  0
  5  6  1  0  0  0  0
  5  4  2  0  0  0  0
  6  1  2  0  0  0  0
  8  4  1  0  0  0  0
  9  5  1  0  0  0  0
 10  6  1  0  0  0  0
 11 17  1  0  0  0  0
 12 18  1  0  0  0  0
 12 11  2  0  0  0  0
 13 12  1  0  0  0  0
 14 13  2  0  0  0  0
 14 15  1  0  0  0  0
 15 16  2  0  0  0  0
 16 11  1  0  0  0  0
 19 15  1  0  0  0  0
 20 27  1  0  0  0  0
 21 20  2  0  0  0  0
 21 22  1  0  0  0  0
 22 23  1  0  0  0  0
 22 24  2  0  0  0  0
 24 26  1  0  0  0  0
 24 25  1  0  0  0  0
 27 26  2  0  0  0  0
 28 29  1  0  0  0  0
 29 30  2  0  0  0  0
 29 20  1  0  0  0  0
 31 29  2  0  0  0  0
M  END
>  <minimizedAffinity>
-4.89876175

$$$$

 OpenBabel03252508423D

 31 33  0  0  0  0  0  0  0  0999 V2000
   38.0480   28.9130   41.4490 C   0  0  0  0  0  0  0  0  0  0  0  0
   37.0720   28.0310   41.0740 C   0  0  0  0  0  0  0  0  0  0  0  0
   35.8420   28.4820   40.6620 C   0  0  0  0  0  0  0  0  0  0  0  0
   35.6190   29.8560   40.6370 C   0  0  0  0  0  0  0  0  0  0  0  0
   36.5670   30.7850   41.0040 C   0  0  0  0  0  0  0  0  0  0  0  0
   37.8040   30.2620   41.4160 C   0  0  0  0  0  0  0  0  0  0  0  0
   35.0220   27.8550   40.3510 H   0  0  0  0  0  0  0  0  0  0  0  0
   34.6570   30.2310   40.3160 H   0  0  0  0  0  0  0  0  0  0  0  0
   36.4330   31.8430   40.9980 H   0  0  0  0  0  0  0  0  0  0  0  0
   38.6300   30.8950   41.7290 H   0  0  0  0  0  0  0  0  0  0  0  0
   40.8800   27.4550   43.4890 C   0  0  0  0  0  0  0  0  0  0  0  0
   39.6160   27.9880   43.1870 C   0  0  0  0  0  0  0  0  0  0  0  0
   39.3210   28.3550   41.8680 C   0  0  0  0  0  0  0  0  0  0  0  0
   40.2960   28.1640   40.9620 N   0  0  0  0  0  0  0  0  0  0  0  0
   41.5140   27.6520   41.2420 C   0  0  0  0  0  0  0  0  0  0  0  0
   41.8070   27.2960   42.5090 N   0  0  0  0  0  0  0  0  0  0  0  0
   41.1130   27.1730   44.5050 H   0  0  0  0  0  0  0  0  0  0  0  0
   38.8600   28.1280   43.9280 H   0  0  0  0  0  0  0  0  0  0  0  0
   42.2420   27.5350   40.4390 H   0  0  0  0  0  0  0  0  0  0  0  0
   37.5690   25.8930   39.9230 C   0  0  0  0  0  0  0  0  0  0  0  0
   37.1840   26.5690   41.0500 C   0  0  0  0  0  0  0  0  0  0  0  0
   36.8990   25.8200   42.1950 C   0  0  0  0  0  0  0  0  0  0  0  0
   36.5950   26.2800   43.1180 H   0  0  0  0  0  0  0  0  0  0  0  0
   37.0190   24.4440   42.1410 C   0  0  0  0  0  0  0  0  0  0  0  0
   36.7930   23.8580   43.0450 H   0  0  0  0  0  0  0  0  0  0  0  0
   37.4080   23.7780   40.9990 C   0  0  0  0  0  3  0  0  0  0  0  0
   37.6960   24.5130   39.8450 C   0  0  0  0  0  3  0  0  0  0  0  0
   38.2060   28.0920   38.6790 H   0  0  0  0  0  0  0  0  0  0  0  0
   37.9290   26.7850   38.4760 S   0  0  0  0  0  0  0  0  0  0  0  0
   39.1110   26.1570   37.7920 O   0  0  0  0  0  0  0  0  0  0  0  0
   36.7790   26.7320   37.4880 O   0  0  0  0  0  0  0  0  0  0  0  0
  1 13  1  0  0  0  0
  2  1  2  0  0  0  0
  3  2  1  0  0  0  0
  4  3  2  0  0  0  0
  4  5  1  0  0  0  0
  5  6  2  0  0  0  0
  6  1  1  0  0  0  0
  6 10  1  0  0  0  0
  7  3  1  0  0  0  0
  8  4  1  0  0  0  0
  9  5  1  0  0  0  0
 11 17  1  0  0  0  0
 12 11  1  0  0  0  0
 12 18  1  0  0  0  0
 13 12  2  0  0  0  0
 14 15  2  0  0  0  0
 14 13  1  0  0  0  0
 15 16  1  0  0  0  0
 16 11  2  0  0  0  0
 19 15  1  0  0  0  0
 20 21  1  0  0  0  0
 21  2  1  0  0  0  0
 21 22  2  0  0  0  0
 22 23  1  0  0  0  0
 24 22  1  0  0  0  0
 24 25  1  0  0  0  0
 26 24  2  0  0  0  0
 27 20  2  0  0  0  0
 27 26  1  0  0  0  0
 29 28  1  0  0  0  0
 29 20  1  0  0  0  0
 30 29  2  0  0  0  0
 31 29  2  0  0  0  0
M  END
>  <minimizedAffinity>
-4.81805277

$$$$

 OpenBabel03252508423D

 31 33  0  0  0  0  0  0  0  0999 V2000
   37.8220   29.8180   38.9960 C   0  0  0  0  0  0  0  0  0  0  0  0
   37.5260   30.1200   40.2970 C   0  0  0  0  0  0  0  0  0  0  0  0
   37.1510   31.3940   40.6500 C   0  0  0  0  0  0  0  0  0  0  0  0
   37.0790   32.3610   39.6520 C   0  0  0  0  0  0  0  0  0  0  0  0
   37.3670   32.1080   38.3290 C   0  0  0  0  0  0  0  0  0  0  0  0
   37.7450   30.7880   38.0300 C   0  0  0  0  0  0  0  0  0  0  0  0
   36.9020   31.7130   41.6500 H   0  0  0  0  0  0  0  0  0  0  0  0
   36.7860   33.3690   39.9110 H   0  0  0  0  0  0  0  0  0  0  0  0
   37.3240   32.8210   37.5380 H   0  0  0  0  0  0  0  0  0  0  0  0
   37.9960   30.4670   37.0230 H   0  0  0  0  0  0  0  0  0  0  0  0
   39.7950   26.6370   38.4510 C   0  0  0  0  0  0  0  0  0  0  0  0
   39.5280   27.9830   38.7500 C   0  0  0  0  0  0  0  0  0  0  0  0
   38.2080   28.4490   38.7050 C   0  0  0  0  0  0  0  0  0  0  0  0
   37.2670   27.5480   38.3700 N   0  0  0  0  0  0  0  0  0  0  0  0
   37.5140   26.2520   38.0830 C   0  0  0  0  0  0  0  0  0  0  0  0
   38.7820   25.7950   38.1230 N   0  0  0  0  0  0  0  0  0  0  0  0
   40.8120   26.2740   38.4820 H   0  0  0  0  0  0  0  0  0  0  0  0
   40.2960   28.6760   39.0130 H   0  0  0  0  0  0  0  0  0  0  0  0
   36.6840   25.5950   37.8200 H   0  0  0  0  0  0  0  0  0  0  0  0
   38.6630   29.0670   42.2300 C   0  0  0  0  0  0  0  0  0  0  0  0
   37.5570   29.1960   41.4330 C   0  0  0  0  0  0  0  0  0  0  0  0
   36.4390   28.4140   41.7390 C   0  0  0  0  0  0  0  0  0  0  0  0
   35.5320   28.4630   41.1620 H   0  0  0  0  0  0  0  0  0  0  0  0
   36.4980   27.5560   42.8200 C   0  0  0  0  0  0  0  0  0  0  0  0
   35.6140   26.9420   43.0560 H   0  0  0  0  0  0  0  0  0  0  0  0
   37.6190   27.4380   43.6120 C   0  0  0  0  0  3  0  0  0  0  0  0
   38.7460   28.2120   43.3200 C   0  0  0  0  0  3  0  0  0  0  0  0
   40.1380   30.4860   40.6190 H   0  0  0  0  0  0  0  0  0  0  0  0
   40.0760   30.0160   41.8840 S   0  0  0  0  0  0  0  0  0  0  0  0
   40.1240   31.1890   42.8230 O   0  0  0  0  0  0  0  0  0  0  0  0
   41.3500   29.2240   42.1170 O   0  0  0  0  0  0  0  0  0  0  0  0
  1  2  1  0  0  0  0
  2  3  2  0  0  0  0
  2 21  1  0  0  0  0
  3  7  1  0  0  0  0
  4  8  1  0  0  0  0
  4  3  1  0  0  0  0
  5  4  2  0  0  0  0
  6  5  1  0  0  0  0
  6  1  2  0  0  0  0
  9  5  1  0  0  0  0
 10  6  1  0  0  0  0
 11 17  1  0  0  0  0
 11 12  1  0  0  0  0
 12 18  1  0  0  0  0
 13 12  2  0  0  0  0
 13  1  1  0  0  0  0
 14 13  1  0  0  0  0
 15 16  1  0  0  0  0
 15 14  2  0  0  0  0
 16 11  2  0  0  0  0
 19 15  1  0  0  0  0
 20 27  1  0  0  0  0
 21 22  1  0  0  0  0
 21 20  2  0  0  0  0
 22 24  2  0  0  0  0
 23 22  1  0  0  0  0
 24 25  1  0  0  0  0
 24 26  1  0  0  0  0
 27 26  2  0  0  0  0
 28 29  1  0  0  0  0
 29 31  2  0  0  0  0
 29 20  1  0  0  0  0
 29 30  2  0  0  0  0
M  END
>  <minimizedAffinity>
-4.80689907

$$$$
