
 OpenBabel03252502113D

 31 33  0  0  0  0  0  0  0  0999 V2000
   39.5620   30.7380   42.8880 Cl  0  0  0  0  0  0  0  0  0  0  0  0
   38.3160   29.5470   42.6490 C   0  0  0  0  0  0  0  0  0  0  0  0
   37.6080   29.4890   41.4940 C   0  0  0  0  0  0  0  0  0  0  0  0
   36.6380   28.5000   41.4000 C   0  0  0  0  0  0  0  0  0  0  0  0
   36.3910   27.6200   42.4110 C   0  0  0  0  0  0  0  0  0  0  0  0
   37.1090   27.6880   43.5730 C   0  0  0  0  0  0  0  0  0  0  0  0
   38.0790   28.6650   43.6790 C   0  0  0  0  0  0  0  0  0  0  0  0
   35.6340   26.8590   42.3230 H   0  0  0  0  0  0  0  0  0  0  0  0
   36.9600   27.0150   44.4160 H   0  0  0  0  0  0  0  0  0  0  0  0
   38.6490   28.7220   44.5900 H   0  0  0  0  0  0  0  0  0  0  0  0
   37.5350   32.5730   39.2990 C   0  0  0  0  0  0  0  0  0  0  0  0
   37.2470   31.6620   40.3220 C   0  0  0  0  0  0  0  0  0  0  0  0
   37.9000   30.4420   40.4380 C   0  0  0  0  0  0  0  0  0  0  0  0
   38.8330   30.2020   39.4900 N   0  0  0  0  0  0  0  0  0  0  0  0
   39.1090   31.0770   38.5090 C   0  0  0  0  0  0  0  0  0  0  0  0
   38.4710   32.2460   38.4130 N   0  0  0  0  0  0  0  0  0  0  0  0
   36.9730   33.5190   39.2770 H   0  0  0  0  0  0  0  0  0  0  0  0
   36.4940   31.9450   41.0230 H   0  0  0  0  0  0  0  0  0  0  0  0
   39.8760   30.8410   37.7600 H   0  0  0  0  0  0  0  0  0  0  0  0
   36.1380   27.6530   39.0820 C   0  0  0  0  0  0  0  0  0  0  0  0
   35.8510   28.4020   40.1720 C   0  0  0  0  0  0  0  0  0  0  0  0
   34.6780   29.1620   40.1280 C   0  0  0  0  0  0  0  0  0  0  0  0
   34.3370   29.8040   40.9370 H   0  0  0  0  0  0  0  0  0  0  0  0
   33.8640   29.1360   39.0220 C   0  0  0  0  0  0  0  0  0  0  0  0
   32.9390   29.7100   38.9390 H   0  0  0  0  0  0  0  0  0  0  0  0
   34.1690   28.3570   37.9010 C   0  0  0  0  0  3  0  0  0  0  0  0
   35.3460   27.6010   37.9560 C   0  0  0  0  0  3  0  0  0  0  0  0
   38.6990   27.3660   39.4820 H   0  0  0  0  0  0  0  0  0  0  0  0
   37.5820   26.7080   39.0970 S   0  0  0  0  0  0  0  0  0  0  0  0
   37.4020   25.3830   39.8290 O   0  0  0  0  0  0  0  0  0  0  0  0
   37.8340   26.2860   37.6540 O   0  0  0  0  0  0  0  0  0  0  0  0
  2  1  1  0  0  0  0
  2  7  1  0  0  0  0
  3  2  2  0  0  0  0
  4  3  1  0  0  0  0
  4  5  2  0  0  0  0
  5  6  1  0  0  0  0
  6  7  2  0  0  0  0
  6  9  1  0  0  0  0
  7 10  1  0  0  0  0
  8  5  1  0  0  0  0
 11 12  1  0  0  0  0
 12 13  2  0  0  0  0
 12 18  1  0  0  0  0
 13  3  1  0  0  0  0
 14 13  1  0  0  0  0
 15 14  2  0  0  0  0
 16 15  1  0  0  0  0
 16 11  2  0  0  0  0
 17 11  1  0  0  0  0
 19 15  1  0  0  0  0
 20 29  1  0  0  0  0
 20 21  1  0  0  0  0
 21  4  1  0  0  0  0
 22 21  2  0  0  0  0
 22 23  1  0  0  0  0
 24 22  1  0  0  0  0
 25 24  1  0  0  0  0
 26 27  1  0  0  0  0
 26 24  2  0  0  0  0
 27 20  2  0  0  0  0
 29 28  1  0  0  0  0
 29 30  2  0  0  0  0
 31 29  2  0  0  0  0
M  END
>  <minimizedAffinity>
-5.65031815

$$$$

 OpenBabel03252502113D

 31 33  0  0  0  0  0  0  0  0999 V2000
   35.8920   26.0630   36.7450 Cl  0  0  0  0  0  0  0  0  0  0  0  0
   35.4780   27.2350   37.9630 C   0  0  0  0  0  0  0  0  0  0  0  0
   36.2260   27.3820   39.0840 C   0  0  0  0  0  0  0  0  0  0  0  0
   35.8130   28.3470   39.9930 C   0  0  0  0  0  0  0  0  0  0  0  0
   34.7100   29.1200   39.7880 C   0  0  0  0  0  0  0  0  0  0  0  0
   33.9620   28.9630   38.6550 C   0  0  0  0  0  0  0  0  0  0  0  0
   34.3610   28.0090   37.7410 C   0  0  0  0  0  0  0  0  0  0  0  0
   34.4030   29.8640   40.5030 H   0  0  0  0  0  0  0  0  0  0  0  0
   33.0710   29.5490   38.4330 H   0  0  0  0  0  0  0  0  0  0  0  0
   33.7770   27.8820   36.8460 H   0  0  0  0  0  0  0  0  0  0  0  0
   39.7940   26.1150   39.0700 C   0  0  0  0  0  0  0  0  0  0  0  0
   38.6730   26.9340   38.8890 C   0  0  0  0  0  0  0  0  0  0  0  0
   37.3960   26.5410   39.2680 C   0  0  0  0  0  0  0  0  0  0  0  0
   37.3180   25.3120   39.8230 N   0  0  0  0  0  0  0  0  0  0  0  0
   38.3940   24.5270   39.9970 C   0  0  0  0  0  0  0  0  0  0  0  0
   39.6140   24.9210   39.6260 N   0  0  0  0  0  0  0  0  0  0  0  0
   40.7720   26.4990   38.7430 H   0  0  0  0  0  0  0  0  0  0  0  0
   38.8390   27.8890   38.4430 H   0  0  0  0  0  0  0  0  0  0  0  0
   38.2840   23.5340   40.4530 H   0  0  0  0  0  0  0  0  0  0  0  0
   37.5550   29.4650   41.4280 C   0  0  0  0  0  0  0  0  0  0  0  0
   36.5910   28.5380   41.2160 C   0  0  0  0  0  0  0  0  0  0  0  0
   36.3000   27.6720   42.2740 C   0  0  0  0  0  0  0  0  0  0  0  0
   35.5500   26.8860   42.2300 H   0  0  0  0  0  0  0  0  0  0  0  0
   36.9710   27.7710   43.4690 C   0  0  0  0  0  0  0  0  0  0  0  0
   36.7800   27.1200   44.3250 H   0  0  0  0  0  0  0  0  0  0  0  0
   37.9640   28.7330   43.6800 C   0  0  0  0  0  3  0  0  0  0  0  0
   38.2470   29.5950   42.6130 C   0  0  0  0  0  3  0  0  0  0  0  0
   38.0130   29.9840   38.9140 H   0  0  0  0  0  0  0  0  0  0  0  0
   37.9470   30.5470   40.1430 S   0  0  0  0  0  0  0  0  0  0  0  0
   37.0890   31.8070   40.1620 O   0  0  0  0  0  0  0  0  0  0  0  0
   39.3500   31.0660   40.4310 O   0  0  0  0  0  0  0  0  0  0  0  0
  1  2  1  0  0  0  0
  2  3  1  0  0  0  0
  3 13  1  0  0  0  0
  3  4  2  0  0  0  0
  4 21  1  0  0  0  0
  5  4  1  0  0  0  0
  5  8  1  0  0  0  0
  6  5  2  0  0  0  0
  7  2  2  0  0  0  0
  7  6  1  0  0  0  0
  9  6  1  0  0  0  0
 10  7  1  0  0  0  0
 11 16  1  0  0  0  0
 12 11  2  0  0  0  0
 12 13  1  0  0  0  0
 13 14  2  0  0  0  0
 14 15  1  0  0  0  0
 15 19  1  0  0  0  0
 16 15  2  0  0  0  0
 17 11  1  0  0  0  0
 18 12  1  0  0  0  0
 20 27  1  0  0  0  0
 21 20  2  0  0  0  0
 21 22  1  0  0  0  0
 22 24  2  0  0  0  0
 23 22  1  0  0  0  0
 24 26  1  0  0  0  0
 24 25  1  0  0  0  0
 27 26  2  0  0  0  0
 28 29  1  0  0  0  0
 29 30  2  0  0  0  0
 29 31  2  0  0  0  0
 29 20  1  0  0  0  0
M  END
>  <minimizedAffinity>
-5.17946243

$$$$

 OpenBabel03252502113D

 31 33  0  0  0  0  0  0  0  0999 V2000
   35.5240   25.2790   37.0870 Cl  0  0  0  0  0  0  0  0  0  0  0  0
   35.5090   26.6940   38.1010 C   0  0  0  0  0  0  0  0  0  0  0  0
   36.2570   26.7610   39.2290 C   0  0  0  0  0  0  0  0  0  0  0  0
   36.1780   27.9340   39.9670 C   0  0  0  0  0  0  0  0  0  0  0  0
   35.3900   28.9810   39.5930 C   0  0  0  0  0  0  0  0  0  0  0  0
   34.6370   28.9020   38.4540 C   0  0  0  0  0  0  0  0  0  0  0  0
   34.7070   27.7420   37.7090 C   0  0  0  0  0  0  0  0  0  0  0  0
   35.3380   29.8840   40.1770 H   0  0  0  0  0  0  0  0  0  0  0  0
   33.9880   29.7030   38.1020 H   0  0  0  0  0  0  0  0  0  0  0  0
   34.1190   27.6750   36.8110 H   0  0  0  0  0  0  0  0  0  0  0  0
   37.4370   23.4930   40.7340 C   0  0  0  0  0  0  0  0  0  0  0  0
   36.6280   24.5810   40.3860 C   0  0  0  0  0  0  0  0  0  0  0  0
   37.0870   25.6260   39.5950 C   0  0  0  0  0  0  0  0  0  0  0  0
   38.3710   25.5130   39.1880 N   0  0  0  0  0  0  0  0  0  0  0  0
   39.1460   24.4690   39.5220 C   0  0  0  0  0  0  0  0  0  0  0  0
   38.6880   23.4720   40.2840 N   0  0  0  0  0  0  0  0  0  0  0  0
   36.9990   22.7050   41.3650 H   0  0  0  0  0  0  0  0  0  0  0  0
   35.6270   24.5780   40.7560 H   0  0  0  0  0  0  0  0  0  0  0  0
   40.1840   24.4170   39.1690 H   0  0  0  0  0  0  0  0  0  0  0  0
   38.2280   28.5330   41.3020 C   0  0  0  0  0  0  0  0  0  0  0  0
   36.9680   28.0490   41.1910 C   0  0  0  0  0  0  0  0  0  0  0  0
   36.3510   27.6150   42.3680 C   0  0  0  0  0  0  0  0  0  0  0  0
   35.3450   27.2050   42.4130 H   0  0  0  0  0  0  0  0  0  0  0  0
   37.0060   27.6850   43.5730 C   0  0  0  0  0  0  0  0  0  0  0  0
   36.5670   27.3590   44.5190 H   0  0  0  0  0  0  0  0  0  0  0  0
   38.3060   28.1890   43.6780 C   0  0  0  0  0  3  0  0  0  0  0  0
   38.9150   28.6200   42.4930 C   0  0  0  0  0  3  0  0  0  0  0  0
   38.9570   28.2250   38.8170 H   0  0  0  0  0  0  0  0  0  0  0  0
   39.0250   29.0720   39.8700 S   0  0  0  0  0  0  0  0  0  0  0  0
   38.6460   30.5010   39.4950 O   0  0  0  0  0  0  0  0  0  0  0  0
   40.5060   29.1760   40.2160 O   0  0  0  0  0  0  0  0  0  0  0  0
  1  2  1  0  0  0  0
  2  3  1  0  0  0  0
  3 13  1  0  0  0  0
  3  4  2  0  0  0  0
  4 21  1  0  0  0  0
  5  4  1  0  0  0  0
  5  8  1  0  0  0  0
  6  5  2  0  0  0  0
  7  2  2  0  0  0  0
  7  6  1  0  0  0  0
  9  6  1  0  0  0  0
 10  7  1  0  0  0  0
 11 17  1  0  0  0  0
 12 11  1  0  0  0  0
 12 18  1  0  0  0  0
 13 12  2  0  0  0  0
 14 15  2  0  0  0  0
 14 13  1  0  0  0  0
 15 16  1  0  0  0  0
 16 11  2  0  0  0  0
 19 15  1  0  0  0  0
 20 27  1  0  0  0  0
 21 20  2  0  0  0  0
 21 22  1  0  0  0  0
 22 23  1  0  0  0  0
 22 24  2  0  0  0  0
 24 26  1  0  0  0  0
 24 25  1  0  0  0  0
 27 26  2  0  0  0  0
 28 29  1  0  0  0  0
 29 31  2  0  0  0  0
 29 20  1  0  0  0  0
 30 29  2  0  0  0  0
M  END
>  <minimizedAffinity>
-5.12156773

$$$$

 OpenBabel03252502113D

 31 33  0  0  0  0  0  0  0  0999 V2000
   37.5660   31.6220   37.3530 Cl  0  0  0  0  0  0  0  0  0  0  0  0
   36.9450   30.2240   38.1830 C   0  0  0  0  0  0  0  0  0  0  0  0
   37.5080   29.7790   39.3330 C   0  0  0  0  0  0  0  0  0  0  0  0
   36.9370   28.6580   39.9200 C   0  0  0  0  0  0  0  0  0  0  0  0
   35.8610   28.0180   39.3800 C   0  0  0  0  0  0  0  0  0  0  0  0
   35.3020   28.4740   38.2180 C   0  0  0  0  0  0  0  0  0  0  0  0
   35.8580   29.5890   37.6250 C   0  0  0  0  0  0  0  0  0  0  0  0
   35.4300   27.1490   39.8470 H   0  0  0  0  0  0  0  0  0  0  0  0
   34.4430   28.0070   37.7380 H   0  0  0  0  0  0  0  0  0  0  0  0
   35.4220   29.9530   36.7110 H   0  0  0  0  0  0  0  0  0  0  0  0
   41.0590   30.8520   40.0930 C   0  0  0  0  0  0  0  0  0  0  0  0
   39.9630   30.1630   39.5590 C   0  0  0  0  0  0  0  0  0  0  0  0
   38.6520   30.4870   39.8800 C   0  0  0  0  0  0  0  0  0  0  0  0
   38.5140   31.5160   40.7460 N   0  0  0  0  0  0  0  0  0  0  0  0
   39.5660   32.1760   41.2570 C   0  0  0  0  0  0  0  0  0  0  0  0
   40.8200   31.8500   40.9370 N   0  0  0  0  0  0  0  0  0  0  0  0
   42.0670   30.5330   39.7880 H   0  0  0  0  0  0  0  0  0  0  0  0
   40.1760   29.3660   38.8820 H   0  0  0  0  0  0  0  0  0  0  0  0
   39.4070   33.0070   41.9580 H   0  0  0  0  0  0  0  0  0  0  0  0
   38.4690   27.1930   41.2810 C   0  0  0  0  0  0  0  0  0  0  0  0
   37.5120   28.1450   41.1610 C   0  0  0  0  0  0  0  0  0  0  0  0
   37.0230   28.7030   42.3460 C   0  0  0  0  0  0  0  0  0  0  0  0
   36.2560   29.4730   42.3860 H   0  0  0  0  0  0  0  0  0  0  0  0
   37.5030   28.2950   43.5670 C   0  0  0  0  0  0  0  0  0  0  0  0
   37.1530   28.7000   44.5190 H   0  0  0  0  0  0  0  0  0  0  0  0
   38.4920   27.3120   43.6800 C   0  0  0  0  0  3  0  0  0  0  0  0
   38.9740   26.7600   42.4870 C   0  0  0  0  0  3  0  0  0  0  0  0
   39.0540   27.2630   38.7400 H   0  0  0  0  0  0  0  0  0  0  0  0
   39.0920   26.4760   39.8400 S   0  0  0  0  0  0  0  0  0  0  0  0
   40.4600   25.8360   40.0540 O   0  0  0  0  0  0  0  0  0  0  0  0
   38.1890   25.2900   39.5260 O   0  0  0  0  0  0  0  0  0  0  0  0
  1  2  1  0  0  0  0
  2  3  1  0  0  0  0
  3 13  1  0  0  0  0
  3  4  2  0  0  0  0
  4 21  1  0  0  0  0
  5  8  1  0  0  0  0
  5  4  1  0  0  0  0
  6  5  2  0  0  0  0
  7  2  2  0  0  0  0
  7  6  1  0  0  0  0
  9  6  1  0  0  0  0
 10  7  1  0  0  0  0
 11 16  1  0  0  0  0
 12 13  1  0  0  0  0
 12 11  2  0  0  0  0
 13 14  2  0  0  0  0
 14 15  1  0  0  0  0
 15 19  1  0  0  0  0
 16 15  2  0  0  0  0
 17 11  1  0  0  0  0
 18 12  1  0  0  0  0
 20 27  1  0  0  0  0
 21 20  2  0  0  0  0
 21 22  1  0  0  0  0
 22 23  1  0  0  0  0
 22 24  2  0  0  0  0
 24 26  1  0  0  0  0
 24 25  1  0  0  0  0
 27 26  2  0  0  0  0
 28 29  1  0  0  0  0
 29 30  2  0  0  0  0
 29 20  1  0  0  0  0
 31 29  2  0  0  0  0
M  END
>  <minimizedAffinity>
-5.0626626

$$$$

 OpenBabel03252502113D

 31 33  0  0  0  0  0  0  0  0999 V2000
   35.5090   25.6760   37.0300 Cl  0  0  0  0  0  0  0  0  0  0  0  0
   36.0230   25.1970   38.6230 C   0  0  0  0  0  0  0  0  0  0  0  0
   36.5540   26.0930   39.4910 C   0  0  0  0  0  0  0  0  0  0  0  0
   36.9300   25.6120   40.7380 C   0  0  0  0  0  0  0  0  0  0  0  0
   36.7810   24.3050   41.0930 C   0  0  0  0  0  0  0  0  0  0  0  0
   36.2450   23.4090   40.2090 C   0  0  0  0  0  0  0  0  0  0  0  0
   35.8650   23.8730   38.9650 C   0  0  0  0  0  0  0  0  0  0  0  0
   37.0780   23.9470   42.0640 H   0  0  0  0  0  0  0  0  0  0  0  0
   36.1000   22.3530   40.4320 H   0  0  0  0  0  0  0  0  0  0  0  0
   35.4410   23.1740   38.2670 H   0  0  0  0  0  0  0  0  0  0  0  0
   35.8600   29.7670   38.8940 C   0  0  0  0  0  0  0  0  0  0  0  0
   35.7130   28.4340   39.2970 C   0  0  0  0  0  0  0  0  0  0  0  0
   36.6970   27.4780   39.0790 C   0  0  0  0  0  0  0  0  0  0  0  0
   37.8040   27.9320   38.4510 N   0  0  0  0  0  0  0  0  0  0  0  0
   37.9440   29.2100   38.0650 C   0  0  0  0  0  0  0  0  0  0  0  0
   36.9880   30.1160   38.2830 N   0  0  0  0  0  0  0  0  0  0  0  0
   35.0340   30.4630   39.1040 H   0  0  0  0  0  0  0  0  0  0  0  0
   34.8020   28.1740   39.7870 H   0  0  0  0  0  0  0  0  0  0  0  0
   38.8620   29.5360   37.5580 H   0  0  0  0  0  0  0  0  0  0  0  0
   38.8120   26.8890   41.8190 C   0  0  0  0  0  0  0  0  0  0  0  0
   37.5080   26.5430   41.7050 C   0  0  0  0  0  0  0  0  0  0  0  0
   36.6140   27.1400   42.5980 C   0  0  0  0  0  0  0  0  0  0  0  0
   35.5440   26.9470   42.6100 H   0  0  0  0  0  0  0  0  0  0  0  0
   37.0540   28.0350   43.5420 C   0  0  0  0  0  0  0  0  0  0  0  0
   36.3960   28.5280   44.2610 H   0  0  0  0  0  0  0  0  0  0  0  0
   38.4040   28.3870   43.6520 C   0  0  0  0  0  3  0  0  0  0  0  0
   39.2910   27.7830   42.7520 C   0  0  0  0  0  3  0  0  0  0  0  0
   39.4510   25.8170   39.5300 H   0  0  0  0  0  0  0  0  0  0  0  0
   39.9470   26.1680   40.7380 S   0  0  0  0  0  0  0  0  0  0  0  0
   41.2380   26.9720   40.6290 O   0  0  0  0  0  0  0  0  0  0  0  0
   40.3930   24.8650   41.3910 O   0  0  0  0  0  0  0  0  0  0  0  0
  1  2  1  0  0  0  0
  2  7  2  0  0  0  0
  2  3  1  0  0  0  0
  3  4  2  0  0  0  0
  4  5  1  0  0  0  0
  4 21  1  0  0  0  0
  5  8  1  0  0  0  0
  6  9  1  0  0  0  0
  6  5  2  0  0  0  0
  7  6  1  0  0  0  0
 10  7  1  0  0  0  0
 11 17  1  0  0  0  0
 11 12  1  0  0  0  0
 12 18  1  0  0  0  0
 13 12  2  0  0  0  0
 13  3  1  0  0  0  0
 14 13  1  0  0  0  0
 15 16  1  0  0  0  0
 15 14  2  0  0  0  0
 16 11  2  0  0  0  0
 19 15  1  0  0  0  0
 20 27  1  0  0  0  0
 21 20  2  0  0  0  0
 21 22  1  0  0  0  0
 22 23  1  0  0  0  0
 22 24  2  0  0  0  0
 24 26  1  0  0  0  0
 24 25  1  0  0  0  0
 27 26  2  0  0  0  0
 28 29  1  0  0  0  0
 29 31  2  0  0  0  0
 29 20  1  0  0  0  0
 30 29  2  0  0  0  0
M  END
>  <minimizedAffinity>
-5.02987385

$$$$

 OpenBabel03252502113D

 31 33  0  0  0  0  0  0  0  0999 V2000
   36.6360   26.6720   39.1460 Cl  0  0  0  0  0  0  0  0  0  0  0  0
   36.8420   28.1750   38.2930 C   0  0  0  0  0  0  0  0  0  0  0  0
   37.3890   29.2590   38.8960 C   0  0  0  0  0  0  0  0  0  0  0  0
   37.5130   30.4090   38.1290 C   0  0  0  0  0  0  0  0  0  0  0  0
   37.1080   30.4680   36.8290 C   0  0  0  0  0  0  0  0  0  0  0  0
   36.5550   29.3700   36.2310 C   0  0  0  0  0  0  0  0  0  0  0  0
   36.4270   28.2180   36.9810 C   0  0  0  0  0  0  0  0  0  0  0  0
   37.2090   31.3690   36.2480 H   0  0  0  0  0  0  0  0  0  0  0  0
   36.2120   29.3540   35.1970 H   0  0  0  0  0  0  0  0  0  0  0  0
   35.9950   27.3500   36.5150 H   0  0  0  0  0  0  0  0  0  0  0  0
   37.3780   29.3120   42.6820 C   0  0  0  0  0  0  0  0  0  0  0  0
   36.9600   29.4110   41.3490 C   0  0  0  0  0  0  0  0  0  0  0  0
   37.8120   29.1580   40.2820 C   0  0  0  0  0  0  0  0  0  0  0  0
   39.0710   28.8100   40.6270 N   0  0  0  0  0  0  0  0  0  0  0  0
   39.4710   28.7150   41.9050 C   0  0  0  0  0  0  0  0  0  0  0  0
   38.6380   28.9620   42.9190 N   0  0  0  0  0  0  0  0  0  0  0  0
   36.6420   29.5280   43.4710 H   0  0  0  0  0  0  0  0  0  0  0  0
   35.9440   29.6910   41.1800 H   0  0  0  0  0  0  0  0  0  0  0  0
   40.5050   28.4290   42.1400 H   0  0  0  0  0  0  0  0  0  0  0  0
   39.4070   31.9470   38.7540 C   0  0  0  0  0  0  0  0  0  0  0  0
   38.0980   31.6010   38.7400 C   0  0  0  0  0  0  0  0  0  0  0  0
   37.2050   32.4730   39.3710 C   0  0  0  0  0  0  0  0  0  0  0  0
   36.1320   32.3090   39.4300 H   0  0  0  0  0  0  0  0  0  0  0  0
   37.6530   33.6250   39.9720 C   0  0  0  0  0  0  0  0  0  0  0  0
   36.9960   34.3370   40.4760 H   0  0  0  0  0  0  0  0  0  0  0  0
   39.0070   33.9740   39.9790 C   0  0  0  0  0  3  0  0  0  0  0  0
   39.8920   33.0940   39.3440 C   0  0  0  0  0  3  0  0  0  0  0  0
   40.0230   29.7340   37.5190 H   0  0  0  0  0  0  0  0  0  0  0  0
   40.5390   30.8930   37.9910 S   0  0  0  0  0  0  0  0  0  0  0  0
   41.4000   31.6120   36.9580 O   0  0  0  0  0  0  0  0  0  0  0  0
   41.5390   30.4860   39.0670 O   0  0  0  0  0  0  0  0  0  0  0  0
  2  3  1  0  0  0  0
  2  1  1  0  0  0  0
  3 13  1  0  0  0  0
  4 21  1  0  0  0  0
  4  3  2  0  0  0  0
  5  4  1  0  0  0  0
  6  5  2  0  0  0  0
  6  7  1  0  0  0  0
  7  2  2  0  0  0  0
  8  5  1  0  0  0  0
  9  6  1  0  0  0  0
 10  7  1  0  0  0  0
 11 16  1  0  0  0  0
 11 17  1  0  0  0  0
 12 11  2  0  0  0  0
 13 14  2  0  0  0  0
 13 12  1  0  0  0  0
 14 15  1  0  0  0  0
 15 19  1  0  0  0  0
 15 16  2  0  0  0  0
 18 12  1  0  0  0  0
 20 27  1  0  0  0  0
 21 20  2  0  0  0  0
 21 22  1  0  0  0  0
 22 23  1  0  0  0  0
 22 24  2  0  0  0  0
 24 26  1  0  0  0  0
 24 25  1  0  0  0  0
 27 26  2  0  0  0  0
 28 29  1  0  0  0  0
 29 20  1  0  0  0  0
 29 31  2  0  0  0  0
 30 29  2  0  0  0  0
M  END
>  <minimizedAffinity>
-5.01973629

$$$$

 OpenBabel03252502113D

 31 33  0  0  0  0  0  0  0  0999 V2000
   37.4180   32.6810   39.2510 Cl  0  0  0  0  0  0  0  0  0  0  0  0
   38.1610   31.6740   40.4600 C   0  0  0  0  0  0  0  0  0  0  0  0
   37.7540   30.3960   40.6610 C   0  0  0  0  0  0  0  0  0  0  0  0
   38.4130   29.6750   41.6480 C   0  0  0  0  0  0  0  0  0  0  0  0
   39.4230   30.2080   42.3910 C   0  0  0  0  0  0  0  0  0  0  0  0
   39.8250   31.4980   42.1820 C   0  0  0  0  0  0  0  0  0  0  0  0
   39.1800   32.2270   41.2030 C   0  0  0  0  0  0  0  0  0  0  0  0
   39.9240   29.6350   43.1530 H   0  0  0  0  0  0  0  0  0  0  0  0
   40.6240   31.9800   42.7420 H   0  0  0  0  0  0  0  0  0  0  0  0
   39.4930   33.2420   41.0320 H   0  0  0  0  0  0  0  0  0  0  0  0
   35.8180   28.8890   37.7770 C   0  0  0  0  0  0  0  0  0  0  0  0
   36.8660   29.4020   38.5520 C   0  0  0  0  0  0  0  0  0  0  0  0
   36.6760   29.8620   39.8480 C   0  0  0  0  0  0  0  0  0  0  0  0
   35.4060   29.7770   40.3040 N   0  0  0  0  0  0  0  0  0  0  0  0
   34.4020   29.2860   39.5600 C   0  0  0  0  0  0  0  0  0  0  0  0
   34.6030   28.8470   38.3140 N   0  0  0  0  0  0  0  0  0  0  0  0
   36.0510   28.5440   36.7580 H   0  0  0  0  0  0  0  0  0  0  0  0
   37.8330   29.4250   38.1030 H   0  0  0  0  0  0  0  0  0  0  0  0
   33.3850   29.2350   39.9700 H   0  0  0  0  0  0  0  0  0  0  0  0
   38.4810   27.1830   41.2850 C   0  0  0  0  0  0  0  0  0  0  0  0
   38.0060   28.2940   41.8970 C   0  0  0  0  0  0  0  0  0  0  0  0
   37.0260   28.1070   42.8770 C   0  0  0  0  0  0  0  0  0  0  0  0
   36.5640   28.9140   43.4400 H   0  0  0  0  0  0  0  0  0  0  0  0
   36.5770   26.8470   43.1920 C   0  0  0  0  0  0  0  0  0  0  0  0
   35.8150   26.6490   43.9490 H   0  0  0  0  0  0  0  0  0  0  0  0
   37.0750   25.7060   42.5540 C   0  0  0  0  0  3  0  0  0  0  0  0
   38.0560   25.9050   41.5750 C   0  0  0  0  0  3  0  0  0  0  0  0
   39.4040   28.2950   39.1140 H   0  0  0  0  0  0  0  0  0  0  0  0
   39.6860   27.3750   40.0650 S   0  0  0  0  0  0  0  0  0  0  0  0
   41.0830   27.5500   40.6510 O   0  0  0  0  0  0  0  0  0  0  0  0
   39.7720   26.0420   39.3330 O   0  0  0  0  0  0  0  0  0  0  0  0
  1  2  1  0  0  0  0
  2  3  2  0  0  0  0
  2  7  1  0  0  0  0
  3  4  1  0  0  0  0
  4 21  1  0  0  0  0
  4  5  2  0  0  0  0
  5  8  1  0  0  0  0
  6  5  1  0  0  0  0
  6  9  1  0  0  0  0
  7  6  2  0  0  0  0
 10  7  1  0  0  0  0
 11 16  2  0  0  0  0
 11 12  1  0  0  0  0
 12 13  2  0  0  0  0
 13 14  1  0  0  0  0
 13  3  1  0  0  0  0
 15 19  1  0  0  0  0
 15 14  2  0  0  0  0
 16 15  1  0  0  0  0
 17 11  1  0  0  0  0
 18 12  1  0  0  0  0
 20 27  2  0  0  0  0
 20 21  1  0  0  0  0
 21 22  2  0  0  0  0
 22 24  1  0  0  0  0
 22 23  1  0  0  0  0
 24 25  1  0  0  0  0
 26 24  2  0  0  0  0
 27 26  1  0  0  0  0
 28 29  1  0  0  0  0
 29 30  2  0  0  0  0
 29 20  1  0  0  0  0
 31 29  2  0  0  0  0
M  END
>  <minimizedAffinity>
-5.01859093

$$$$

 OpenBabel03252502113D

 31 33  0  0  0  0  0  0  0  0999 V2000
   36.1920   29.6690   36.5970 Cl  0  0  0  0  0  0  0  0  0  0  0  0
   36.2760   28.2930   37.6590 C   0  0  0  0  0  0  0  0  0  0  0  0
   36.8210   28.3890   38.8960 C   0  0  0  0  0  0  0  0  0  0  0  0
   36.8390   27.2350   39.6670 C   0  0  0  0  0  0  0  0  0  0  0  0
   36.3380   26.0490   39.2190 C   0  0  0  0  0  0  0  0  0  0  0  0
   35.7920   25.9620   37.9680 C   0  0  0  0  0  0  0  0  0  0  0  0
   35.7660   27.1030   37.1910 C   0  0  0  0  0  0  0  0  0  0  0  0
   36.3590   25.1620   39.8290 H   0  0  0  0  0  0  0  0  0  0  0  0
   35.3760   25.0450   37.5530 H   0  0  0  0  0  0  0  0  0  0  0  0
   35.3360   27.0410   36.2070 H   0  0  0  0  0  0  0  0  0  0  0  0
   37.0770   31.8490   40.4130 C   0  0  0  0  0  0  0  0  0  0  0  0
   36.5630   30.6170   39.9900 C   0  0  0  0  0  0  0  0  0  0  0  0
   37.3440   29.6700   39.3410 C   0  0  0  0  0  0  0  0  0  0  0  0
   38.6330   30.0250   39.1500 N   0  0  0  0  0  0  0  0  0  0  0  0
   39.1250   31.2070   39.5560 C   0  0  0  0  0  0  0  0  0  0  0  0
   38.3600   32.1070   40.1790 N   0  0  0  0  0  0  0  0  0  0  0  0
   36.3940   32.5460   40.9200 H   0  0  0  0  0  0  0  0  0  0  0  0
   35.5320   30.4290   40.1890 H   0  0  0  0  0  0  0  0  0  0  0  0
   40.1800   31.4550   39.3800 H   0  0  0  0  0  0  0  0  0  0  0  0
   38.7060   27.0560   41.3470 C   0  0  0  0  0  0  0  0  0  0  0  0
   37.4170   27.2940   41.0080 C   0  0  0  0  0  0  0  0  0  0  0  0
   36.5430   27.6390   42.0430 C   0  0  0  0  0  0  0  0  0  0  0  0
   35.4870   27.8530   41.9030 H   0  0  0  0  0  0  0  0  0  0  0  0
   36.9880   27.7290   43.3400 C   0  0  0  0  0  0  0  0  0  0  0  0
   36.3460   27.9940   44.1820 H   0  0  0  0  0  0  0  0  0  0  0  0
   38.3220   27.4820   43.6800 C   0  0  0  0  0  3  0  0  0  0  0  0
   39.1890   27.1380   42.6350 C   0  0  0  0  0  3  0  0  0  0  0  0
   39.2520   26.3500   38.8970 H   0  0  0  0  0  0  0  0  0  0  0  0
   39.8140   26.6220   40.0970 S   0  0  0  0  0  0  0  0  0  0  0  0
   40.9810   27.5970   39.9890 O   0  0  0  0  0  0  0  0  0  0  0  0
   40.4750   25.3230   40.5420 O   0  0  0  0  0  0  0  0  0  0  0  0
  1  2  1  0  0  0  0
  2  3  1  0  0  0  0
  3 13  1  0  0  0  0
  3  4  2  0  0  0  0
  4 21  1  0  0  0  0
  5  4  1  0  0  0  0
  5  8  1  0  0  0  0
  6  5  2  0  0  0  0
  7  2  2  0  0  0  0
  7  6  1  0  0  0  0
  9  6  1  0  0  0  0
 10  7  1  0  0  0  0
 11 17  1  0  0  0  0
 12 18  1  0  0  0  0
 12 11  2  0  0  0  0
 13 12  1  0  0  0  0
 14 13  2  0  0  0  0
 14 15  1  0  0  0  0
 15 16  2  0  0  0  0
 16 11  1  0  0  0  0
 19 15  1  0  0  0  0
 20 27  1  0  0  0  0
 21 20  2  0  0  0  0
 21 22  1  0  0  0  0
 22 24  2  0  0  0  0
 23 22  1  0  0  0  0
 24 26  1  0  0  0  0
 24 25  1  0  0  0  0
 27 26  2  0  0  0  0
 28 29  1  0  0  0  0
 29 31  2  0  0  0  0
 29 20  1  0  0  0  0
 30 29  2  0  0  0  0
M  END
>  <minimizedAffinity>
-4.9872241

$$$$

 OpenBabel03252502113D

 31 33  0  0  0  0  0  0  0  0999 V2000
   37.6890   27.5210   35.9840 Cl  0  0  0  0  0  0  0  0  0  0  0  0
   36.7480   28.0890   37.3340 C   0  0  0  0  0  0  0  0  0  0  0  0
   37.2310   28.0400   38.6000 C   0  0  0  0  0  0  0  0  0  0  0  0
   36.4040   28.5200   39.6070 C   0  0  0  0  0  0  0  0  0  0  0  0
   35.1620   29.0210   39.3560 C   0  0  0  0  0  0  0  0  0  0  0  0
   34.6840   29.0650   38.0750 C   0  0  0  0  0  0  0  0  0  0  0  0
   35.4960   28.5920   37.0630 C   0  0  0  0  0  0  0  0  0  0  0  0
   34.5320   29.3890   40.1480 H   0  0  0  0  0  0  0  0  0  0  0  0
   33.7020   29.4530   37.8100 H   0  0  0  0  0  0  0  0  0  0  0  0
   35.1260   28.6260   36.0540 H   0  0  0  0  0  0  0  0  0  0  0  0
   40.0770   25.6510   39.3280 C   0  0  0  0  0  0  0  0  0  0  0  0
   38.7920   26.1600   39.1080 C   0  0  0  0  0  0  0  0  0  0  0  0
   38.5600   27.5010   38.8300 C   0  0  0  0  0  0  0  0  0  0  0  0
   39.6670   28.2750   38.7880 N   0  0  0  0  0  0  0  0  0  0  0  0
   40.8990   27.7860   38.9990 C   0  0  0  0  0  0  0  0  0  0  0  0
   41.1040   26.4940   39.2660 N   0  0  0  0  0  0  0  0  0  0  0  0
   40.1770   24.5770   39.5430 H   0  0  0  0  0  0  0  0  0  0  0  0
   37.9820   25.4680   39.1610 H   0  0  0  0  0  0  0  0  0  0  0  0
   41.7720   28.4520   38.9560 H   0  0  0  0  0  0  0  0  0  0  0  0
   37.6060   29.4400   41.6200 C   0  0  0  0  0  0  0  0  0  0  0  0
   36.8850   28.4850   40.9870 C   0  0  0  0  0  0  0  0  0  0  0  0
   36.5580   27.3440   41.7250 C   0  0  0  0  0  0  0  0  0  0  0  0
   35.9850   26.5070   41.3340 H   0  0  0  0  0  0  0  0  0  0  0  0
   36.9560   27.2150   43.0340 C   0  0  0  0  0  0  0  0  0  0  0  0
   36.7260   26.3450   43.6520 H   0  0  0  0  0  0  0  0  0  0  0  0
   37.7000   28.2080   43.6800 C   0  0  0  0  0  3  0  0  0  0  0  0
   38.0220   29.3460   42.9300 C   0  0  0  0  0  3  0  0  0  0  0  0
   38.5900   30.6400   39.5240 H   0  0  0  0  0  0  0  0  0  0  0  0
   38.0340   30.8600   40.7380 S   0  0  0  0  0  0  0  0  0  0  0  0
   36.8990   31.8770   40.6850 O   0  0  0  0  0  0  0  0  0  0  0  0
   39.1070   31.5670   41.5570 O   0  0  0  0  0  0  0  0  0  0  0  0
  1  2  1  0  0  0  0
  2  3  1  0  0  0  0
  3 13  1  0  0  0  0
  3  4  2  0  0  0  0
  4 21  1  0  0  0  0
  5  4  1  0  0  0  0
  5  8  1  0  0  0  0
  6  5  2  0  0  0  0
  7  2  2  0  0  0  0
  7  6  1  0  0  0  0
  9  6  1  0  0  0  0
 10  7  1  0  0  0  0
 11 17  1  0  0  0  0
 12 18  1  0  0  0  0
 12 11  2  0  0  0  0
 13 12  1  0  0  0  0
 14 13  2  0  0  0  0
 14 15  1  0  0  0  0
 15 16  2  0  0  0  0
 16 11  1  0  0  0  0
 19 15  1  0  0  0  0
 20 27  1  0  0  0  0
 21 20  2  0  0  0  0
 21 22  1  0  0  0  0
 22 24  2  0  0  0  0
 23 22  1  0  0  0  0
 24 25  1  0  0  0  0
 24 26  1  0  0  0  0
 27 26  2  0  0  0  0
 28 29  1  0  0  0  0
 29 31  2  0  0  0  0
 29 20  1  0  0  0  0
 30 29  2  0  0  0  0
M  END
>  <minimizedAffinity>
-4.85804367

$$$$
