
 OpenBabel03242522273D

 41 44  0  0  0  0  0  0  0  0999 V2000
   46.6580   31.4180   39.1050 C   0  0  0  0  0  0  0  0  0  0  0  0
   46.6420   30.9540   37.7970 C   0  0  0  0  0  0  0  0  0  0  0  0
   46.1120   31.7600   36.8190 C   0  0  0  0  0  0  0  0  0  0  0  0
   45.6060   33.0080   37.1360 C   0  0  0  0  0  0  0  0  0  0  0  0
   45.6690   33.3930   38.4740 C   0  0  0  0  0  0  0  0  0  0  0  0
   46.1800   32.6430   39.4650 C   0  0  0  0  0  0  0  0  0  0  0  0
   46.9740   30.0360   37.3830 H   0  0  0  0  0  0  0  0  0  0  0  0
   46.0730   31.4430   35.7630 H   0  0  0  0  0  0  0  0  0  0  0  0
   45.1950   33.5890   36.2830 H   0  0  0  0  0  0  0  0  0  0  0  0
   45.2270   34.3880   38.5170 H   0  0  0  0  0  0  0  0  0  0  0  0
   49.2760   31.2140   40.0630 F   0  0  0  0  0  0  0  0  0  0  0  0
   48.3420   30.4330   40.6780 C   0  0  0  0  0  0  0  0  0  0  0  0
   48.6960   29.5860   41.6760 C   0  0  0  0  0  0  0  0  0  0  0  0
   47.6940   28.7710   42.1710 C   0  0  0  0  0  0  0  0  0  0  0  0
   46.4020   28.8040   41.6860 C   0  0  0  0  0  0  0  0  0  0  0  0
   46.1650   29.6990   40.6780 C   0  0  0  0  0  0  0  0  0  0  0  0
   47.0930   30.5280   40.1520 C   0  0  0  0  0  0  0  0  0  0  0  0
   48.1110   28.1360   42.9790 H   0  0  0  0  0  0  0  0  0  0  0  0
   45.8410   28.0830   42.2330 H   0  0  0  0  0  0  0  0  0  0  0  0
   45.1560   29.4350   40.5230 H   0  0  0  0  0  0  0  0  0  0  0  0
   52.3670   28.6960   41.8890 C   0  0  0  0  0  0  0  0  0  0  0  0
   51.0340   28.7320   41.4740 C   0  0  0  0  0  0  0  0  0  0  0  0
   50.0810   29.5600   42.1160 C   0  0  0  0  0  0  0  0  0  0  0  0
   50.5290   30.3040   43.1370 N   0  0  0  0  0  0  0  0  0  0  0  0
   51.8230   30.2550   43.5210 C   0  0  0  0  0  0  0  0  0  0  0  0
   52.7180   29.4800   42.9230 N   0  0  0  0  0  0  0  0  0  0  0  0
   53.0360   28.0550   41.3690 H   0  0  0  0  0  0  0  0  0  0  0  0
   50.7450   28.1150   40.6530 H   0  0  0  0  0  0  0  0  0  0  0  0
   52.1390   30.8820   44.3620 H   0  0  0  0  0  0  0  0  0  0  0  0
   45.1120   33.6090   41.5370 C   0  0  0  0  0  0  0  0  0  0  0  0
   46.1370   33.4350   40.6140 C   0  0  0  0  0  0  0  0  0  0  0  0
   47.3100   34.2210   40.7640 C   0  0  0  0  0  0  0  0  0  0  0  0
   48.1850   34.1720   40.0970 H   0  0  0  0  0  0  0  0  0  0  0  0
   47.4870   35.1600   41.7890 C   0  0  0  0  0  0  0  0  0  0  0  0
   48.3700   35.7450   41.8920 H   0  0  0  0  0  0  0  0  0  0  0  0
   46.4290   35.3050   42.6980 C   0  0  0  0  0  3  0  0  0  0  0  0
   45.2840   34.5370   42.5540 C   0  0  0  0  0  3  0  0  0  0  0  0
   43.5590   32.0230   40.1310 H   0  0  0  0  0  0  0  0  0  0  0  0
   43.7350   32.6310   41.3020 S   0  0  0  0  0  0  0  0  0  0  0  0
   43.4400   31.7360   42.5060 O   0  0  0  0  0  0  0  0  0  0  0  0
   42.5540   33.5820   41.3770 O   0  0  0  0  0  0  0  0  0  0  0  0
  1  6  1  0  0  0  0
  1 17  1  0  0  0  0
  2  1  2  0  0  0  0
  3  4  2  0  0  0  0
  3  2  1  0  0  0  0
  4  5  1  0  0  0  0
  5 10  1  0  0  0  0
  5  6  2  0  0  0  0
  6 31  1  0  0  0  0
  7  2  1  0  0  0  0
  8  3  1  0  0  0  0
  9  4  1  0  0  0  0
 11 12  1  0  0  0  0
 12 13  1  0  0  0  0
 13 23  1  0  0  0  0
 13 14  2  0  0  0  0
 14 18  1  0  0  0  0
 15 14  1  0  0  0  0
 15 19  1  0  0  0  0
 16 15  2  0  0  0  0
 17 12  2  0  0  0  0
 17 16  1  0  0  0  0
 20 16  1  0  0  0  0
 21 26  1  0  0  0  0
 22 21  2  0  0  0  0
 22 23  1  0  0  0  0
 23 24  2  0  0  0  0
 24 25  1  0  0  0  0
 25 29  1  0  0  0  0
 26 25  2  0  0  0  0
 27 21  1  0  0  0  0
 28 22  1  0  0  0  0
 30 37  1  0  0  0  0
 31 32  1  0  0  0  0
 31 30  2  0  0  0  0
 32 34  2  0  0  0  0
 33 32  1  0  0  0  0
 34 35  1  0  0  0  0
 34 36  1  0  0  0  0
 37 36  2  0  0  0  0
 38 39  1  0  0  0  0
 39 41  2  0  0  0  0
 39 30  1  0  0  0  0
 39 40  2  0  0  0  0
M  END
>  <minimizedAffinity>
-3.53765488

>  <minimizedRMSD>
6.453403

$$$$
