
 OpenBabel03252505553D

 36 38  0  0  0  0  0  0  0  0999 V2000
   38.1640   32.6930   39.1130 C   0  0  0  0  0  0  0  0  0  0  0  0
   37.6880   33.7920   39.7800 C   0  0  0  0  0  0  0  0  0  0  0  0
   38.5810   34.7220   40.2080 C   0  0  0  0  0  0  0  0  0  0  0  0
   39.8910   34.5970   40.0000 N   0  0  0  0  0  0  0  0  0  0  0  0
   40.3650   33.5110   39.3400 C   0  0  0  0  0  0  0  0  0  0  0  0
   39.4890   32.5750   38.9060 N   0  0  0  0  0  0  0  0  0  0  0  0
   36.6120   33.7660   39.8790 H   0  0  0  0  0  0  0  0  0  0  0  0
   38.1380   35.5770   40.7360 H   0  0  0  0  0  0  0  0  0  0  0  0
   42.7210   32.9350   40.0330 C   0  0  0  0  0  0  0  0  0  0  0  0
   41.8100   33.4840   39.1610 C   0  0  0  0  0  0  0  0  0  0  0  0
   42.3520   34.0410   38.0330 C   0  0  0  0  0  0  0  0  0  0  0  0
   41.7560   34.5140   37.2530 H   0  0  0  0  0  0  0  0  0  0  0  0
   43.6970   34.0760   37.7470 C   0  0  0  0  0  0  0  0  0  0  0  0
   44.1060   34.5210   36.8510 H   0  0  0  0  0  0  0  0  0  0  0  0
   44.6040   33.5260   38.6210 C   0  0  0  0  0  3  0  0  0  0  0  0
   44.0840   32.9600   39.7620 C   0  0  0  0  0  3  0  0  0  0  0  0
   40.9730   32.8760   41.8660 H   0  0  0  0  0  0  0  0  0  0  0  0
   42.1420   32.2030   41.5020 S   0  0  0  0  0  0  0  0  0  0  0  0
   43.0490   32.3540   42.6650 O   0  0  0  0  0  0  0  0  0  0  0  0
   41.6870   30.7870   41.2620 O   0  0  0  0  0  0  0  0  0  0  0  0
   37.4680   31.5290   38.5210 C   0  0  0  0  0  0  0  0  0  0  0  0
   37.1390   31.8110   37.4990 H   0  0  0  0  0  0  0  0  0  0  0  0
   38.1550   30.6650   38.4120 H   0  0  0  0  0  0  0  0  0  0  0  0
   36.4330   31.1460   39.3550 O   0  0  0  0  0  0  0  0  0  0  0  0
   37.2140   29.4640   42.3810 C   0  0  0  0  0  0  0  0  0  0  0  0
   36.8240   28.1530   42.1450 C   0  0  0  0  0  0  0  0  0  0  0  0
   36.2690   27.8530   40.8790 C   0  0  0  0  0  0  0  0  0  0  0  0
   36.1510   28.8520   39.9810 N   0  0  0  0  0  0  0  0  0  0  0  0
   36.5450   30.1090   40.2610 C   0  0  0  0  0  0  0  0  0  0  0  0
   37.0720   30.4210   41.4460 N   0  0  0  0  0  0  0  0  0  0  0  0
   37.6430   29.7020   43.3590 H   0  0  0  0  0  0  0  0  0  0  0  0
   35.9710   26.8260   40.7110 H   0  0  0  0  0  0  0  0  0  0  0  0
   37.0100   27.1380   43.2280 C   0  0  0  0  0  0  0  0  0  0  0  0
   37.0050   25.9200   42.5760 F   0  0  0  0  0  0  0  0  0  0  0  0
   35.8830   27.2520   44.0550 F   0  0  0  0  0  0  0  0  0  0  0  0
   38.1580   27.3990   43.9030 F   0  0  0  0  0  0  0  0  0  0  0  0
  1  2  1  0  0  0  0
  2  7  1  0  0  0  0
  2  3  2  0  0  0  0
  3  8  1  0  0  0  0
  4  3  1  0  0  0  0
  5  4  2  0  0  0  0
  6  1  2  0  0  0  0
  6  5  1  0  0  0  0
  9 18  1  0  0  0  0
 10  5  1  0  0  0  0
 10  9  2  0  0  0  0
 11 10  1  0  0  0  0
 12 11  1  0  0  0  0
 13 11  2  0  0  0  0
 13 15  1  0  0  0  0
 14 13  1  0  0  0  0
 15 16  2  0  0  0  0
 16  9  1  0  0  0  0
 18 17  1  0  0  0  0
 18 19  2  0  0  0  0
 20 18  2  0  0  0  0
 21  1  1  0  0  0  0
 21 24  1  0  0  0  0
 22 21  1  0  0  0  0
 23 21  1  0  0  0  0
 24 29  1  0  0  0  0
 25 31  1  0  0  0  0
 26 25  1  0  0  0  0
 26 33  1  0  0  0  0
 27 26  2  0  0  0  0
 28 29  2  0  0  0  0
 28 27  1  0  0  0  0
 29 30  1  0  0  0  0
 30 25  2  0  0  0  0
 32 27  1  0  0  0  0
 33 36  1  0  0  0  0
 33 35  1  0  0  0  0
 34 33  1  0  0  0  0
M  END
>  <minimizedAffinity>
-6.00326347

$$$$

 OpenBabel03252505553D

 36 38  0  0  0  0  0  0  0  0999 V2000
   36.4660   25.8480   39.1130 C   0  0  0  0  0  0  0  0  0  0  0  0
   35.8390   24.6370   39.2590 C   0  0  0  0  0  0  0  0  0  0  0  0
   36.2140   23.8400   40.2930 C   0  0  0  0  0  0  0  0  0  0  0  0
   37.1610   24.1980   41.1580 N   0  0  0  0  0  0  0  0  0  0  0  0
   37.7820   25.3950   41.0170 C   0  0  0  0  0  0  0  0  0  0  0  0
   37.4210   26.2020   39.9920 N   0  0  0  0  0  0  0  0  0  0  0  0
   35.0950   24.4760   38.4920 H   0  0  0  0  0  0  0  0  0  0  0  0
   35.6760   22.8840   40.3550 H   0  0  0  0  0  0  0  0  0  0  0  0
   38.7430   26.7060   42.9450 C   0  0  0  0  0  0  0  0  0  0  0  0
   38.7920   25.6850   42.0250 C   0  0  0  0  0  0  0  0  0  0  0  0
   39.9060   24.8910   42.1000 C   0  0  0  0  0  0  0  0  0  0  0  0
   40.0830   24.0460   41.4380 H   0  0  0  0  0  0  0  0  0  0  0  0
   40.9260   25.0590   43.0080 C   0  0  0  0  0  0  0  0  0  0  0  0
   41.7970   24.4210   43.0510 H   0  0  0  0  0  0  0  0  0  0  0  0
   40.8730   26.0800   43.9260 C   0  0  0  0  0  3  0  0  0  0  0  0
   39.7640   26.8920   43.8710 C   0  0  0  0  0  3  0  0  0  0  0  0
   36.9030   27.8390   41.6230 H   0  0  0  0  0  0  0  0  0  0  0  0
   37.3740   27.7810   42.9370 S   0  0  0  0  0  0  0  0  0  0  0  0
   37.6890   29.1840   43.2950 O   0  0  0  0  0  0  0  0  0  0  0  0
   36.2200   27.1980   43.7110 O   0  0  0  0  0  0  0  0  0  0  0  0
   36.2870   26.9290   38.1180 C   0  0  0  0  0  0  0  0  0  0  0  0
   37.2930   27.2580   37.7860 H   0  0  0  0  0  0  0  0  0  0  0  0
   35.7530   26.5600   37.2180 H   0  0  0  0  0  0  0  0  0  0  0  0
   35.5260   27.9410   38.6780 O   0  0  0  0  0  0  0  0  0  0  0  0
   37.3300   30.9750   38.3080 C   0  0  0  0  0  0  0  0  0  0  0  0
   37.1390   31.6270   39.5200 C   0  0  0  0  0  0  0  0  0  0  0  0
   36.3500   30.9750   40.4960 C   0  0  0  0  0  0  0  0  0  0  0  0
   35.8320   29.7670   40.1960 N   0  0  0  0  0  0  0  0  0  0  0  0
   36.0480   29.1780   39.0040 C   0  0  0  0  0  0  0  0  0  0  0  0
   36.7870   29.7690   38.0640 N   0  0  0  0  0  0  0  0  0  0  0  0
   37.9390   31.4750   37.5490 H   0  0  0  0  0  0  0  0  0  0  0  0
   36.2120   31.4970   41.4340 H   0  0  0  0  0  0  0  0  0  0  0  0
   37.7710   32.9670   39.7260 C   0  0  0  0  0  0  0  0  0  0  0  0
   36.8210   33.8750   39.3000 F   0  0  0  0  0  0  0  0  0  0  0  0
   38.8870   32.9970   38.8760 F   0  0  0  0  0  0  0  0  0  0  0  0
   38.1260   33.1070   41.0280 F   0  0  0  0  0  0  0  0  0  0  0  0
  1  2  2  0  0  0  0
  1  6  1  0  0  0  0
  2  3  1  0  0  0  0
  3  8  1  0  0  0  0
  3  4  2  0  0  0  0
  5  4  1  0  0  0  0
  5 10  1  0  0  0  0
  6  5  2  0  0  0  0
  7  2  1  0  0  0  0
  9 16  1  0  0  0  0
 10 11  1  0  0  0  0
 10  9  2  0  0  0  0
 11 13  2  0  0  0  0
 12 11  1  0  0  0  0
 13 14  1  0  0  0  0
 13 15  1  0  0  0  0
 16 15  2  0  0  0  0
 17 18  1  0  0  0  0
 18  9  1  0  0  0  0
 18 19  2  0  0  0  0
 18 20  2  0  0  0  0
 21 24  1  0  0  0  0
 21  1  1  0  0  0  0
 22 21  1  0  0  0  0
 23 21  1  0  0  0  0
 24 29  1  0  0  0  0
 25 26  1  0  0  0  0
 26 33  1  0  0  0  0
 26 27  2  0  0  0  0
 27 32  1  0  0  0  0
 28 27  1  0  0  0  0
 29 28  2  0  0  0  0
 30 25  2  0  0  0  0
 30 29  1  0  0  0  0
 31 25  1  0  0  0  0
 33 36  1  0  0  0  0
 34 33  1  0  0  0  0
 35 33  1  0  0  0  0
M  END
>  <minimizedAffinity>
-5.9744544

$$$$

 OpenBabel03252505553D

 36 38  0  0  0  0  0  0  0  0999 V2000
   39.0000   31.5860   40.7100 C   0  0  0  0  0  0  0  0  0  0  0  0
   38.5970   32.8940   40.7890 C   0  0  0  0  0  0  0  0  0  0  0  0
   37.6340   33.3240   39.9320 C   0  0  0  0  0  0  0  0  0  0  0  0
   37.0760   32.5180   39.0300 N   0  0  0  0  0  0  0  0  0  0  0  0
   37.4720   31.2230   38.9510 C   0  0  0  0  0  0  0  0  0  0  0  0
   38.4310   30.7790   39.7960 N   0  0  0  0  0  0  0  0  0  0  0  0
   39.1300   33.4320   41.5600 H   0  0  0  0  0  0  0  0  0  0  0  0
   37.3560   34.3800   40.0440 H   0  0  0  0  0  0  0  0  0  0  0  0
   35.7380   29.5720   38.1570 C   0  0  0  0  0  0  0  0  0  0  0  0
   36.7870   30.4330   37.9360 C   0  0  0  0  0  0  0  0  0  0  0  0
   37.1910   30.5310   36.6310 C   0  0  0  0  0  0  0  0  0  0  0  0
   38.0090   31.1710   36.3050 H   0  0  0  0  0  0  0  0  0  0  0  0
   36.6250   29.8430   35.5840 C   0  0  0  0  0  0  0  0  0  0  0  0
   36.9580   29.9330   34.5600 H   0  0  0  0  0  0  0  0  0  0  0  0
   35.5760   28.9830   35.8080 C   0  0  0  0  0  3  0  0  0  0  0  0
   35.1510   28.8670   37.1110 C   0  0  0  0  0  3  0  0  0  0  0  0
   35.3660   30.5700   40.4560 H   0  0  0  0  0  0  0  0  0  0  0  0
   35.1460   29.3670   39.7810 S   0  0  0  0  0  0  0  0  0  0  0  0
   35.8660   28.3430   40.5750 O   0  0  0  0  0  0  0  0  0  0  0  0
   33.6470   29.2090   39.7980 O   0  0  0  0  0  0  0  0  0  0  0  0
   39.9990   30.8210   41.4890 C   0  0  0  0  0  0  0  0  0  0  0  0
   40.4970   30.1090   40.8000 H   0  0  0  0  0  0  0  0  0  0  0  0
   40.7890   31.4880   41.8910 H   0  0  0  0  0  0  0  0  0  0  0  0
   39.3710   30.2130   42.5610 O   0  0  0  0  0  0  0  0  0  0  0  0
   39.1410   26.8200   41.5420 C   0  0  0  0  0  0  0  0  0  0  0  0
   38.1440   26.2950   42.3530 C   0  0  0  0  0  0  0  0  0  0  0  0
   37.5340   27.1640   43.2880 C   0  0  0  0  0  0  0  0  0  0  0  0
   37.9540   28.4440   43.3370 N   0  0  0  0  0  0  0  0  0  0  0  0
   38.9270   28.9040   42.5270 C   0  0  0  0  0  0  0  0  0  0  0  0
   39.5200   28.1080   41.6360 N   0  0  0  0  0  0  0  0  0  0  0  0
   39.6170   26.1520   40.8170 H   0  0  0  0  0  0  0  0  0  0  0  0
   36.7590   26.7380   43.9120 H   0  0  0  0  0  0  0  0  0  0  0  0
   37.7710   24.8540   42.1970 C   0  0  0  0  0  0  0  0  0  0  0  0
   37.8260   24.6210   40.8370 F   0  0  0  0  0  0  0  0  0  0  0  0
   36.4500   24.7510   42.6550 F   0  0  0  0  0  0  0  0  0  0  0  0
   38.6180   24.0840   42.9250 F   0  0  0  0  0  0  0  0  0  0  0  0
  1  2  1  0  0  0  0
  1 21  1  0  0  0  0
  2  7  1  0  0  0  0
  3  8  1  0  0  0  0
  3  2  2  0  0  0  0
  4  3  1  0  0  0  0
  5  4  2  0  0  0  0
  5  6  1  0  0  0  0
  6  1  2  0  0  0  0
  9 18  1  0  0  0  0
 10  9  1  0  0  0  0
 10  5  1  0  0  0  0
 11 10  2  0  0  0  0
 12 11  1  0  0  0  0
 13 15  2  0  0  0  0
 13 11  1  0  0  0  0
 14 13  1  0  0  0  0
 15 16  1  0  0  0  0
 16  9  2  0  0  0  0
 18 20  2  0  0  0  0
 18 17  1  0  0  0  0
 18 19  2  0  0  0  0
 21 23  1  0  0  0  0
 21 24  1  0  0  0  0
 22 21  1  0  0  0  0
 25 30  2  0  0  0  0
 25 26  1  0  0  0  0
 26 27  2  0  0  0  0
 27 28  1  0  0  0  0
 27 32  1  0  0  0  0
 29 24  1  0  0  0  0
 29 28  2  0  0  0  0
 30 29  1  0  0  0  0
 31 25  1  0  0  0  0
 33 26  1  0  0  0  0
 33 35  1  0  0  0  0
 33 36  1  0  0  0  0
 34 33  1  0  0  0  0
M  END
>  <minimizedAffinity>
-5.78324938

$$$$

 OpenBabel03252505553D

 36 38  0  0  0  0  0  0  0  0999 V2000
   38.0930   32.6380   39.2120 C   0  0  0  0  0  0  0  0  0  0  0  0
   37.6370   33.8560   39.6460 C   0  0  0  0  0  0  0  0  0  0  0  0
   38.5060   34.6750   40.2940 C   0  0  0  0  0  0  0  0  0  0  0  0
   39.7730   34.3310   40.5160 N   0  0  0  0  0  0  0  0  0  0  0  0
   40.2280   33.1270   40.0870 C   0  0  0  0  0  0  0  0  0  0  0  0
   39.3750   32.2990   39.4400 N   0  0  0  0  0  0  0  0  0  0  0  0
   36.5950   34.0040   39.4010 H   0  0  0  0  0  0  0  0  0  0  0  0
   38.0800   35.6340   40.6170 H   0  0  0  0  0  0  0  0  0  0  0  0
   42.6720   32.9730   39.4820 C   0  0  0  0  0  0  0  0  0  0  0  0
   41.6310   32.8630   40.3750 C   0  0  0  0  0  0  0  0  0  0  0  0
   41.9900   32.4730   41.6380 C   0  0  0  0  0  0  0  0  0  0  0  0
   41.2760   32.3430   42.4490 H   0  0  0  0  0  0  0  0  0  0  0  0
   43.2780   32.1990   42.0350 C   0  0  0  0  0  0  0  0  0  0  0  0
   43.5410   31.8910   43.0370 H   0  0  0  0  0  0  0  0  0  0  0  0
   44.3150   32.3100   41.1400 C   0  0  0  0  0  3  0  0  0  0  0  0
   43.9810   32.7000   39.8640 C   0  0  0  0  0  3  0  0  0  0  0  0
   41.2040   34.2840   37.8880 H   0  0  0  0  0  0  0  0  0  0  0  0
   42.3290   33.4580   37.8460 S   0  0  0  0  0  0  0  0  0  0  0  0
   41.9560   32.3460   36.9380 O   0  0  0  0  0  0  0  0  0  0  0  0
   43.4160   34.3500   37.3040 O   0  0  0  0  0  0  0  0  0  0  0  0
   37.4170   31.5430   38.4810 C   0  0  0  0  0  0  0  0  0  0  0  0
   37.1110   31.9320   37.4890 H   0  0  0  0  0  0  0  0  0  0  0  0
   38.1110   30.6970   38.2970 H   0  0  0  0  0  0  0  0  0  0  0  0
   36.3640   31.0690   39.2440 O   0  0  0  0  0  0  0  0  0  0  0  0
   36.9470   29.4700   42.3590 C   0  0  0  0  0  0  0  0  0  0  0  0
   36.8080   28.1190   42.0710 C   0  0  0  0  0  0  0  0  0  0  0  0
   36.4990   27.7610   40.7380 C   0  0  0  0  0  0  0  0  0  0  0  0
   36.3580   28.7470   39.8290 N   0  0  0  0  0  0  0  0  0  0  0  0
   36.5040   30.0450   40.1610 C   0  0  0  0  0  0  0  0  0  0  0  0
   36.7950   30.4110   41.4090 N   0  0  0  0  0  0  0  0  0  0  0  0
   37.1860   29.7530   43.3890 H   0  0  0  0  0  0  0  0  0  0  0  0
   36.3940   26.7040   40.5320 H   0  0  0  0  0  0  0  0  0  0  0  0
   36.9900   27.1240   43.1740 C   0  0  0  0  0  0  0  0  0  0  0  0
   38.2230   27.4250   43.7200 F   0  0  0  0  0  0  0  0  0  0  0  0
   37.0280   25.8680   42.5520 F   0  0  0  0  0  0  0  0  0  0  0  0
   35.9590   27.2210   44.0490 F   0  0  0  0  0  0  0  0  0  0  0  0
  1  6  2  0  0  0  0
  1  2  1  0  0  0  0
  2  3  2  0  0  0  0
  3  4  1  0  0  0  0
  3  8  1  0  0  0  0
  5 10  1  0  0  0  0
  5  4  2  0  0  0  0
  6  5  1  0  0  0  0
  7  2  1  0  0  0  0
  9 16  2  0  0  0  0
  9 10  1  0  0  0  0
 10 11  2  0  0  0  0
 11 13  1  0  0  0  0
 11 12  1  0  0  0  0
 13 14  1  0  0  0  0
 15 13  2  0  0  0  0
 16 15  1  0  0  0  0
 18 17  1  0  0  0  0
 18  9  1  0  0  0  0
 19 18  2  0  0  0  0
 20 18  2  0  0  0  0
 21  1  1  0  0  0  0
 21 24  1  0  0  0  0
 22 21  1  0  0  0  0
 23 21  1  0  0  0  0
 24 29  1  0  0  0  0
 25 31  1  0  0  0  0
 26 25  1  0  0  0  0
 26 33  1  0  0  0  0
 27 26  2  0  0  0  0
 28 29  2  0  0  0  0
 28 27  1  0  0  0  0
 29 30  1  0  0  0  0
 30 25  2  0  0  0  0
 32 27  1  0  0  0  0
 33 34  1  0  0  0  0
 33 36  1  0  0  0  0
 35 33  1  0  0  0  0
M  END
>  <minimizedAffinity>
-5.75009394

$$$$

 OpenBabel03252505553D

 36 38  0  0  0  0  0  0  0  0999 V2000
   38.1310   31.5540   38.6730 C   0  0  0  0  0  0  0  0  0  0  0  0
   37.3210   32.6230   38.9540 C   0  0  0  0  0  0  0  0  0  0  0  0
   37.7070   33.4840   39.9320 C   0  0  0  0  0  0  0  0  0  0  0  0
   38.8370   33.3190   40.6160 N   0  0  0  0  0  0  0  0  0  0  0  0
   39.6420   32.2620   40.3400 C   0  0  0  0  0  0  0  0  0  0  0  0
   39.2720   31.3950   39.3700 N   0  0  0  0  0  0  0  0  0  0  0  0
   36.4400   32.6350   38.3270 H   0  0  0  0  0  0  0  0  0  0  0  0
   37.0150   34.3190   40.1090 H   0  0  0  0  0  0  0  0  0  0  0  0
   41.1730   31.1890   42.0330 C   0  0  0  0  0  0  0  0  0  0  0  0
   40.8550   32.1880   41.1430 C   0  0  0  0  0  0  0  0  0  0  0  0
   41.7920   33.1810   41.0280 C   0  0  0  0  0  0  0  0  0  0  0  0
   41.6770   34.0370   40.3640 H   0  0  0  0  0  0  0  0  0  0  0  0
   42.9760   33.2230   41.7260 C   0  0  0  0  0  0  0  0  0  0  0  0
   43.7020   34.0160   41.6210 H   0  0  0  0  0  0  0  0  0  0  0  0
   43.2900   32.2230   42.6140 C   0  0  0  0  0  3  0  0  0  0  0  0
   42.3650   31.2140   42.7480 C   0  0  0  0  0  3  0  0  0  0  0  0
   39.6370   29.4640   40.9940 H   0  0  0  0  0  0  0  0  0  0  0  0
   40.0510   29.8780   42.2620 S   0  0  0  0  0  0  0  0  0  0  0  0
   38.8040   30.2500   42.9710 O   0  0  0  0  0  0  0  0  0  0  0  0
   40.7400   28.6660   42.8340 O   0  0  0  0  0  0  0  0  0  0  0  0
   38.0040   30.4620   37.6820 C   0  0  0  0  0  0  0  0  0  0  0  0
   37.8370   30.9230   36.6870 H   0  0  0  0  0  0  0  0  0  0  0  0
   38.9420   29.8740   37.6120 H   0  0  0  0  0  0  0  0  0  0  0  0
   36.9930   29.6050   38.0770 O   0  0  0  0  0  0  0  0  0  0  0  0
   36.1210   28.4890   41.3320 C   0  0  0  0  0  0  0  0  0  0  0  0
   37.0460   27.4880   41.6000 C   0  0  0  0  0  0  0  0  0  0  0  0
   38.0050   27.1980   40.6030 C   0  0  0  0  0  0  0  0  0  0  0  0
   37.9670   27.9060   39.4550 N   0  0  0  0  0  0  0  0  0  0  0  0
   37.0480   28.8680   39.2450 C   0  0  0  0  0  0  0  0  0  0  0  0
   36.1310   29.1630   40.1680 N   0  0  0  0  0  0  0  0  0  0  0  0
   35.3760   28.7170   42.1000 H   0  0  0  0  0  0  0  0  0  0  0  0
   38.7180   26.4160   40.8280 H   0  0  0  0  0  0  0  0  0  0  0  0
   36.9790   26.7780   42.9160 C   0  0  0  0  0  0  0  0  0  0  0  0
   36.6840   25.4670   42.5940 F   0  0  0  0  0  0  0  0  0  0  0  0
   35.9090   27.3610   43.6090 F   0  0  0  0  0  0  0  0  0  0  0  0
   38.1530   26.9350   43.5770 F   0  0  0  0  0  0  0  0  0  0  0  0
  1  2  2  0  0  0  0
  1  6  1  0  0  0  0
  2  3  1  0  0  0  0
  3  8  1  0  0  0  0
  3  4  2  0  0  0  0
  5  4  1  0  0  0  0
  5 10  1  0  0  0  0
  6  5  2  0  0  0  0
  7  2  1  0  0  0  0
  9 18  1  0  0  0  0
  9 16  1  0  0  0  0
 10  9  2  0  0  0  0
 11 10  1  0  0  0  0
 11 13  2  0  0  0  0
 12 11  1  0  0  0  0
 13 15  1  0  0  0  0
 14 13  1  0  0  0  0
 15 16  2  0  0  0  0
 17 18  1  0  0  0  0
 18 20  2  0  0  0  0
 18 19  2  0  0  0  0
 21 24  1  0  0  0  0
 21  1  1  0  0  0  0
 22 21  1  0  0  0  0
 23 21  1  0  0  0  0
 24 29  1  0  0  0  0
 25 26  1  0  0  0  0
 25 31  1  0  0  0  0
 26 33  1  0  0  0  0
 27 32  1  0  0  0  0
 27 26  2  0  0  0  0
 28 27  1  0  0  0  0
 29 28  2  0  0  0  0
 29 30  1  0  0  0  0
 30 25  2  0  0  0  0
 33 36  1  0  0  0  0
 33 35  1  0  0  0  0
 34 33  1  0  0  0  0
M  END
>  <minimizedAffinity>
-5.67255497

$$$$

 OpenBabel03252505553D

 36 38  0  0  0  0  0  0  0  0999 V2000
   38.1080   31.4680   38.6580 C   0  0  0  0  0  0  0  0  0  0  0  0
   37.3250   32.5540   38.9530 C   0  0  0  0  0  0  0  0  0  0  0  0
   37.7320   33.3910   39.9430 C   0  0  0  0  0  0  0  0  0  0  0  0
   38.8570   33.1880   40.6260 N   0  0  0  0  0  0  0  0  0  0  0  0
   39.6340   32.1140   40.3360 C   0  0  0  0  0  0  0  0  0  0  0  0
   39.2430   31.2700   39.3530 N   0  0  0  0  0  0  0  0  0  0  0  0
   36.4460   32.5970   38.3250 H   0  0  0  0  0  0  0  0  0  0  0  0
   37.0620   34.2410   40.1310 H   0  0  0  0  0  0  0  0  0  0  0  0
   42.0830   32.4940   40.8060 C   0  0  0  0  0  0  0  0  0  0  0  0
   40.8440   31.9980   41.1380 C   0  0  0  0  0  0  0  0  0  0  0  0
   40.7850   31.3480   42.3430 C   0  0  0  0  0  0  0  0  0  0  0  0
   39.8740   30.9030   42.7380 H   0  0  0  0  0  0  0  0  0  0  0  0
   41.8540   31.1760   43.1910 C   0  0  0  0  0  0  0  0  0  0  0  0
   41.7870   30.6590   44.1380 H   0  0  0  0  0  0  0  0  0  0  0  0
   43.0900   31.6730   42.8550 C   0  0  0  0  0  3  0  0  0  0  0  0
   43.1760   32.3300   41.6500 C   0  0  0  0  0  3  0  0  0  0  0  0
   41.4720   32.6820   38.3540 H   0  0  0  0  0  0  0  0  0  0  0  0
   42.2740   33.3350   39.2940 S   0  0  0  0  0  0  0  0  0  0  0  0
   43.6440   33.2870   38.7290 O   0  0  0  0  0  0  0  0  0  0  0  0
   41.6920   34.7230   39.3660 O   0  0  0  0  0  0  0  0  0  0  0  0
   37.9530   30.3940   37.6520 C   0  0  0  0  0  0  0  0  0  0  0  0
   37.8200   30.8720   36.6600 H   0  0  0  0  0  0  0  0  0  0  0  0
   38.8690   29.7700   37.5890 H   0  0  0  0  0  0  0  0  0  0  0  0
   36.9040   29.5720   38.0210 O   0  0  0  0  0  0  0  0  0  0  0  0
   37.7630   27.2430   40.5590 C   0  0  0  0  0  0  0  0  0  0  0  0
   36.8770   27.5300   41.5890 C   0  0  0  0  0  0  0  0  0  0  0  0
   35.9490   28.5760   41.3820 C   0  0  0  0  0  0  0  0  0  0  0  0
   35.9780   29.2310   40.2040 N   0  0  0  0  0  0  0  0  0  0  0  0
   36.8590   28.9130   39.2360 C   0  0  0  0  0  0  0  0  0  0  0  0
   37.7450   27.9310   39.4030 N   0  0  0  0  0  0  0  0  0  0  0  0
   38.4840   26.4340   40.7140 H   0  0  0  0  0  0  0  0  0  0  0  0
   35.2660   28.7870   42.1950 H   0  0  0  0  0  0  0  0  0  0  0  0
   36.9510   26.7250   42.8490 C   0  0  0  0  0  0  0  0  0  0  0  0
   35.9530   27.2400   43.6540 F   0  0  0  0  0  0  0  0  0  0  0  0
   38.2100   26.9970   43.4010 F   0  0  0  0  0  0  0  0  0  0  0  0
   36.8020   25.4090   42.5560 F   0  0  0  0  0  0  0  0  0  0  0  0
  1  2  2  0  0  0  0
  1  6  1  0  0  0  0
  2  3  1  0  0  0  0
  3  8  1  0  0  0  0
  3  4  2  0  0  0  0
  5  4  1  0  0  0  0
  5 10  1  0  0  0  0
  6  5  2  0  0  0  0
  7  2  1  0  0  0  0
  9 10  2  0  0  0  0
  9 16  1  0  0  0  0
 10 11  1  0  0  0  0
 11 12  1  0  0  0  0
 11 13  2  0  0  0  0
 13 14  1  0  0  0  0
 15 13  1  0  0  0  0
 16 15  2  0  0  0  0
 17 18  1  0  0  0  0
 18 20  2  0  0  0  0
 18  9  1  0  0  0  0
 19 18  2  0  0  0  0
 21 24  1  0  0  0  0
 21  1  1  0  0  0  0
 22 21  1  0  0  0  0
 23 21  1  0  0  0  0
 24 29  1  0  0  0  0
 25 31  1  0  0  0  0
 25 26  1  0  0  0  0
 26 33  1  0  0  0  0
 27 26  2  0  0  0  0
 27 32  1  0  0  0  0
 28 27  1  0  0  0  0
 29 30  1  0  0  0  0
 29 28  2  0  0  0  0
 30 25  2  0  0  0  0
 33 35  1  0  0  0  0
 33 34  1  0  0  0  0
 36 33  1  0  0  0  0
M  END
>  <minimizedAffinity>
-5.59865427

$$$$

 OpenBabel03252505553D

 36 38  0  0  0  0  0  0  0  0999 V2000
   37.9780   26.7970   42.9270 C   0  0  0  0  0  0  0  0  0  0  0  0
   39.1930   26.1770   43.0670 C   0  0  0  0  0  0  0  0  0  0  0  0
   39.4900   25.1480   42.2310 C   0  0  0  0  0  0  0  0  0  0  0  0
   38.6440   24.7310   41.2900 N   0  0  0  0  0  0  0  0  0  0  0  0
   37.4410   25.3430   41.1490 C   0  0  0  0  0  0  0  0  0  0  0  0
   37.1290   26.3690   41.9740 N   0  0  0  0  0  0  0  0  0  0  0  0
   39.7770   26.6140   43.8640 H   0  0  0  0  0  0  0  0  0  0  0  0
   40.4760   24.6930   42.3930 H   0  0  0  0  0  0  0  0  0  0  0  0
   36.5000   25.3180   38.8100 C   0  0  0  0  0  0  0  0  0  0  0  0
   36.6030   24.8100   40.0840 C   0  0  0  0  0  0  0  0  0  0  0  0
   35.8370   23.7020   40.3300 C   0  0  0  0  0  0  0  0  0  0  0  0
   35.8140   23.1920   41.2910 H   0  0  0  0  0  0  0  0  0  0  0  0
   35.0090   23.1040   39.4080 C   0  0  0  0  0  0  0  0  0  0  0  0
   34.4110   22.2300   39.6220 H   0  0  0  0  0  0  0  0  0  0  0  0
   34.9090   23.6140   38.1360 C   0  0  0  0  0  3  0  0  0  0  0  0
   35.6690   24.7270   37.8640 C   0  0  0  0  0  3  0  0  0  0  0  0
   38.6480   26.6370   39.0620 H   0  0  0  0  0  0  0  0  0  0  0  0
   37.4280   26.7290   38.3890 S   0  0  0  0  0  0  0  0  0  0  0  0
   36.8370   28.0130   38.8380 O   0  0  0  0  0  0  0  0  0  0  0  0
   37.8140   26.7120   36.9320 O   0  0  0  0  0  0  0  0  0  0  0  0
   37.3670   27.9300   43.6580 C   0  0  0  0  0  0  0  0  0  0  0  0
   36.3180   28.0330   43.3120 H   0  0  0  0  0  0  0  0  0  0  0  0
   37.3290   27.7280   44.7480 H   0  0  0  0  0  0  0  0  0  0  0  0
   38.1340   29.0640   43.4610 O   0  0  0  0  0  0  0  0  0  0  0  0
   38.9230   31.4270   40.9330 C   0  0  0  0  0  0  0  0  0  0  0  0
   37.7130   31.6460   40.2900 C   0  0  0  0  0  0  0  0  0  0  0  0
   36.5830   30.9380   40.7630 C   0  0  0  0  0  0  0  0  0  0  0  0
   36.7470   30.0970   41.8040 N   0  0  0  0  0  0  0  0  0  0  0  0
   37.9460   29.9210   42.3930 C   0  0  0  0  0  0  0  0  0  0  0  0
   39.0280   30.5750   41.9690 N   0  0  0  0  0  0  0  0  0  0  0  0
   39.8010   31.9720   40.5720 H   0  0  0  0  0  0  0  0  0  0  0  0
   35.6470   31.1200   40.2510 H   0  0  0  0  0  0  0  0  0  0  0  0
   37.6670   32.6080   39.1450 C   0  0  0  0  0  0  0  0  0  0  0  0
   38.9870   32.9340   38.9050 F   0  0  0  0  0  0  0  0  0  0  0  0
   36.9670   33.7280   39.6170 F   0  0  0  0  0  0  0  0  0  0  0  0
   37.0390   32.0290   38.0910 F   0  0  0  0  0  0  0  0  0  0  0  0
  1  2  1  0  0  0  0
  1 21  1  0  0  0  0
  2  7  1  0  0  0  0
  3  8  1  0  0  0  0
  3  2  2  0  0  0  0
  4  3  1  0  0  0  0
  5  4  2  0  0  0  0
  5  6  1  0  0  0  0
  6  1  2  0  0  0  0
  9 10  1  0  0  0  0
 10 11  2  0  0  0  0
 10  5  1  0  0  0  0
 11 12  1  0  0  0  0
 13 14  1  0  0  0  0
 13 11  1  0  0  0  0
 15 13  2  0  0  0  0
 16 15  1  0  0  0  0
 16  9  2  0  0  0  0
 18  9  1  0  0  0  0
 18 19  2  0  0  0  0
 18 17  1  0  0  0  0
 20 18  2  0  0  0  0
 21 23  1  0  0  0  0
 22 21  1  0  0  0  0
 24 21  1  0  0  0  0
 25 30  1  0  0  0  0
 26 27  1  0  0  0  0
 26 25  2  0  0  0  0
 27 28  2  0  0  0  0
 28 29  1  0  0  0  0
 29 24  1  0  0  0  0
 30 29  2  0  0  0  0
 31 25  1  0  0  0  0
 32 27  1  0  0  0  0
 33 35  1  0  0  0  0
 33 26  1  0  0  0  0
 34 33  1  0  0  0  0
 36 33  1  0  0  0  0
M  END
>  <minimizedAffinity>
-5.54751253

$$$$

 OpenBabel03252505553D

 36 38  0  0  0  0  0  0  0  0999 V2000
   42.4650   28.8770   41.7310 C   0  0  0  0  0  0  0  0  0  0  0  0
   43.2540   28.4880   42.7820 C   0  0  0  0  0  0  0  0  0  0  0  0
   42.6680   27.8360   43.8200 C   0  0  0  0  0  0  0  0  0  0  0  0
   41.3640   27.5670   43.8440 N   0  0  0  0  0  0  0  0  0  0  0  0
   40.5800   27.9500   42.8040 C   0  0  0  0  0  0  0  0  0  0  0  0
   41.1480   28.6010   41.7630 N   0  0  0  0  0  0  0  0  0  0  0  0
   44.2870   28.7690   42.6330 H   0  0  0  0  0  0  0  0  0  0  0  0
   43.3530   27.5530   44.6310 H   0  0  0  0  0  0  0  0  0  0  0  0
   38.6040   26.4050   42.5440 C   0  0  0  0  0  0  0  0  0  0  0  0
   39.1740   27.5950   42.9330 C   0  0  0  0  0  0  0  0  0  0  0  0
   38.3070   28.4960   43.4910 C   0  0  0  0  0  0  0  0  0  0  0  0
   38.6130   29.4790   43.8450 H   0  0  0  0  0  0  0  0  0  0  0  0
   36.9610   28.2790   43.6710 C   0  0  0  0  0  0  0  0  0  0  0  0
   36.2930   29.0040   44.1130 H   0  0  0  0  0  0  0  0  0  0  0  0
   36.3950   27.0880   43.2810 C   0  0  0  0  0  3  0  0  0  0  0  0
   37.2450   26.1650   42.7180 C   0  0  0  0  0  3  0  0  0  0  0  0
   40.6410   25.8500   41.1440 H   0  0  0  0  0  0  0  0  0  0  0  0
   39.6130   25.1860   41.8190 S   0  0  0  0  0  0  0  0  0  0  0  0
   38.9420   24.3650   40.7830 O   0  0  0  0  0  0  0  0  0  0  0  0
   40.3300   24.3770   42.8690 O   0  0  0  0  0  0  0  0  0  0  0  0
   42.7890   29.5820   40.4710 C   0  0  0  0  0  0  0  0  0  0  0  0
   43.8660   29.4210   40.2570 H   0  0  0  0  0  0  0  0  0  0  0  0
   42.2230   29.1560   39.6170 H   0  0  0  0  0  0  0  0  0  0  0  0
   42.4370   30.9140   40.5910 O   0  0  0  0  0  0  0  0  0  0  0  0
   39.3370   31.2550   38.8950 C   0  0  0  0  0  0  0  0  0  0  0  0
   38.6610   32.2220   39.6260 C   0  0  0  0  0  0  0  0  0  0  0  0
   39.3190   32.7710   40.7520 C   0  0  0  0  0  0  0  0  0  0  0  0
   40.5570   32.3250   41.0480 N   0  0  0  0  0  0  0  0  0  0  0  0
   41.1690   31.3830   40.3040 C   0  0  0  0  0  0  0  0  0  0  0  0
   40.5730   30.8480   39.2380 N   0  0  0  0  0  0  0  0  0  0  0  0
   38.8330   30.8260   38.0230 H   0  0  0  0  0  0  0  0  0  0  0  0
   38.7780   33.5230   41.3100 H   0  0  0  0  0  0  0  0  0  0  0  0
   37.2890   32.6280   39.1900 C   0  0  0  0  0  0  0  0  0  0  0  0
   36.4440   31.7100   39.7830 F   0  0  0  0  0  0  0  0  0  0  0  0
   37.2720   32.4760   37.7960 F   0  0  0  0  0  0  0  0  0  0  0  0
   37.0570   33.9130   39.5590 F   0  0  0  0  0  0  0  0  0  0  0  0
  1  6  2  0  0  0  0
  1  2  1  0  0  0  0
  2  3  2  0  0  0  0
  3  4  1  0  0  0  0
  3  8  1  0  0  0  0
  5 10  1  0  0  0  0
  5  4  2  0  0  0  0
  6  5  1  0  0  0  0
  7  2  1  0  0  0  0
  9 16  2  0  0  0  0
  9 10  1  0  0  0  0
 10 11  2  0  0  0  0
 11 13  1  0  0  0  0
 11 12  1  0  0  0  0
 13 14  1  0  0  0  0
 15 13  2  0  0  0  0
 16 15  1  0  0  0  0
 17 18  1  0  0  0  0
 18  9  1  0  0  0  0
 18 20  2  0  0  0  0
 19 18  2  0  0  0  0
 21 24  1  0  0  0  0
 21  1  1  0  0  0  0
 22 21  1  0  0  0  0
 23 21  1  0  0  0  0
 25 30  2  0  0  0  0
 25 26  1  0  0  0  0
 26 27  2  0  0  0  0
 27 28  1  0  0  0  0
 27 32  1  0  0  0  0
 29 24  1  0  0  0  0
 29 28  2  0  0  0  0
 30 29  1  0  0  0  0
 31 25  1  0  0  0  0
 33 36  1  0  0  0  0
 33 26  1  0  0  0  0
 33 34  1  0  0  0  0
 35 33  1  0  0  0  0
M  END
>  <minimizedAffinity>
-5.50085545

$$$$

 OpenBabel03252505553D

 36 38  0  0  0  0  0  0  0  0999 V2000
   38.1570   29.5510   37.2920 C   0  0  0  0  0  0  0  0  0  0  0  0
   38.9740   28.4880   37.0040 C   0  0  0  0  0  0  0  0  0  0  0  0
   40.3170   28.6570   37.1260 C   0  0  0  0  0  0  0  0  0  0  0  0
   40.8540   29.8130   37.5140 N   0  0  0  0  0  0  0  0  0  0  0  0
   40.0480   30.8660   37.8010 C   0  0  0  0  0  0  0  0  0  0  0  0
   38.7080   30.7140   37.6840 N   0  0  0  0  0  0  0  0  0  0  0  0
   38.4090   27.6170   36.7030 H   0  0  0  0  0  0  0  0  0  0  0  0
   40.9170   27.7710   36.8810 H   0  0  0  0  0  0  0  0  0  0  0  0
   40.7350   32.6050   39.4920 C   0  0  0  0  0  0  0  0  0  0  0  0
   40.7430   32.0730   38.2240 C   0  0  0  0  0  0  0  0  0  0  0  0
   41.4870   32.7700   37.3090 C   0  0  0  0  0  0  0  0  0  0  0  0
   41.5860   32.4700   36.2670 H   0  0  0  0  0  0  0  0  0  0  0  0
   42.1900   33.9190   37.5850 C   0  0  0  0  0  0  0  0  0  0  0  0
   42.7710   34.4550   36.8480 H   0  0  0  0  0  0  0  0  0  0  0  0
   42.1800   34.4470   38.8540 C   0  0  0  0  0  3  0  0  0  0  0  0
   41.4410   33.7660   39.7920 C   0  0  0  0  0  3  0  0  0  0  0  0
   39.5560   30.5080   40.2840 H   0  0  0  0  0  0  0  0  0  0  0  0
   39.8180   31.8030   40.7350 S   0  0  0  0  0  0  0  0  0  0  0  0
   38.4850   32.3960   40.9980 O   0  0  0  0  0  0  0  0  0  0  0  0
   40.6480   31.5960   41.9760 O   0  0  0  0  0  0  0  0  0  0  0  0
   36.6840   29.6870   37.2680 C   0  0  0  0  0  0  0  0  0  0  0  0
   36.4290   30.7060   37.6270 H   0  0  0  0  0  0  0  0  0  0  0  0
   36.2910   29.6020   36.2340 H   0  0  0  0  0  0  0  0  0  0  0  0
   36.1200   28.6730   38.0210 O   0  0  0  0  0  0  0  0  0  0  0  0
   36.8910   27.0480   41.0820 C   0  0  0  0  0  0  0  0  0  0  0  0
   36.8680   28.0730   42.0190 C   0  0  0  0  0  0  0  0  0  0  0  0
   36.5720   29.3760   41.5570 C   0  0  0  0  0  0  0  0  0  0  0  0
   36.3310   29.5470   40.2410 N   0  0  0  0  0  0  0  0  0  0  0  0
   36.3650   28.5180   39.3730 C   0  0  0  0  0  0  0  0  0  0  0  0
   36.6420   27.2790   39.7800 N   0  0  0  0  0  0  0  0  0  0  0  0
   37.1200   26.0370   41.4340 H   0  0  0  0  0  0  0  0  0  0  0  0
   36.5580   30.1630   42.3000 H   0  0  0  0  0  0  0  0  0  0  0  0
   37.1540   27.7470   43.4510 C   0  0  0  0  0  0  0  0  0  0  0  0
   35.9470   27.3130   43.9620 F   0  0  0  0  0  0  0  0  0  0  0  0
   37.5270   28.9590   44.0500 F   0  0  0  0  0  0  0  0  0  0  0  0
   38.1470   26.8260   43.5180 F   0  0  0  0  0  0  0  0  0  0  0  0
  1  6  1  0  0  0  0
  2  3  1  0  0  0  0
  2  1  2  0  0  0  0
  3  4  2  0  0  0  0
  4  5  1  0  0  0  0
  5 10  1  0  0  0  0
  6  5  2  0  0  0  0
  7  2  1  0  0  0  0
  8  3  1  0  0  0  0
  9 16  1  0  0  0  0
  9 18  1  0  0  0  0
 10  9  2  0  0  0  0
 11 13  2  0  0  0  0
 11 10  1  0  0  0  0
 12 11  1  0  0  0  0
 13 15  1  0  0  0  0
 14 13  1  0  0  0  0
 15 16  2  0  0  0  0
 17 18  1  0  0  0  0
 18 19  2  0  0  0  0
 18 20  2  0  0  0  0
 21  1  1  0  0  0  0
 21 22  1  0  0  0  0
 21 24  1  0  0  0  0
 23 21  1  0  0  0  0
 24 29  1  0  0  0  0
 25 31  1  0  0  0  0
 25 26  1  0  0  0  0
 26 33  1  0  0  0  0
 27 26  2  0  0  0  0
 27 32  1  0  0  0  0
 28 27  1  0  0  0  0
 29 30  1  0  0  0  0
 29 28  2  0  0  0  0
 30 25  2  0  0  0  0
 33 36  1  0  0  0  0
 33 34  1  0  0  0  0
 33 35  1  0  0  0  0
M  END
>  <minimizedAffinity>
-5.4843955

$$$$
