
 OpenBabel03252506563D

 41 45  0  0  0  0  0  0  0  0999 V2000
   47.2300   31.3540   45.1960 C   0  0  0  0  0  0  0  0  0  0  0  0
   46.8600   32.6910   45.1890 C   0  0  0  0  0  0  0  0  0  0  0  0
   46.2550   33.3080   46.2600 C   0  0  0  0  0  0  0  0  0  0  0  0
   45.9910   32.5810   47.4180 C   0  0  0  0  0  0  0  0  0  0  0  0
   45.4280   32.8420   48.6310 N   0  0  0  0  0  0  0  0  0  0  0  0
   45.4510   31.7050   49.3610 C   0  0  0  0  0  0  0  0  0  0  0  0
   46.0260   30.7490   48.5970 N   0  0  0  0  0  0  0  0  0  0  0  0
   46.3650   31.2620   47.4020 C   0  0  0  0  0  0  0  0  0  0  0  0
   46.9720   30.6190   46.3460 C   0  0  0  0  0  0  0  0  0  0  0  0
   47.7080   30.8960   44.3290 H   0  0  0  0  0  0  0  0  0  0  0  0
   45.9590   34.3500   46.2710 H   0  0  0  0  0  0  0  0  0  0  0  0
   45.0810   33.8060   48.8210 H   0  0  0  0  0  0  0  0  0  0  0  0
   45.0570   31.6640   50.3650 H   0  0  0  0  0  0  0  0  0  0  0  0
   46.4740   35.1580   42.4940 C   0  0  0  0  0  0  0  0  0  0  0  0
   47.6270   34.9630   41.7330 C   0  0  0  0  0  0  0  0  0  0  0  0
   48.5320   33.9900   42.1410 C   0  0  0  0  0  0  0  0  0  0  0  0
   48.2610   33.2600   43.2730 N   0  0  0  0  0  0  0  0  0  0  0  0
   47.1240   33.4860   43.9830 C   0  0  0  0  0  0  0  0  0  0  0  0
   46.2270   34.4310   43.6020 N   0  0  0  0  0  0  0  0  0  0  0  0
   45.7910   35.9220   42.1500 H   0  0  0  0  0  0  0  0  0  0  0  0
   47.8760   35.5170   40.8370 H   0  0  0  0  0  0  0  0  0  0  0  0
   49.4530   33.7530   41.6320 H   0  0  0  0  0  0  0  0  0  0  0  0
   47.3280   29.2070   46.4390 C   0  0  0  0  0  0  0  0  0  0  0  0
   48.3530   28.6030   45.7340 C   0  0  0  0  0  0  0  0  0  0  0  0
   48.3290   27.2690   46.1310 C   0  0  0  0  0  0  0  0  0  0  0  0
   47.3050   27.1360   47.0420 C   0  0  0  0  0  0  0  0  0  0  0  0
   46.7470   28.3190   47.1860 O   0  0  0  0  0  0  0  0  0  0  0  0
   49.0090   29.0840   45.0380 H   0  0  0  0  0  0  0  0  0  0  0  0
   49.0020   26.4780   45.7780 H   0  0  0  0  0  0  0  0  0  0  0  0
   45.7570   25.2520   47.3380 C   0  0  0  0  0  0  0  0  0  0  0  0
   46.9060   25.9110   47.7290 C   0  0  0  0  0  0  0  0  0  0  0  0
   47.6830   25.4300   48.7620 C   0  0  0  0  0  0  0  0  0  0  0  0
   48.5980   25.9460   49.0810 H   0  0  0  0  0  0  0  0  0  0  0  0
   47.3660   24.2830   49.4510 C   0  0  0  0  0  0  0  0  0  0  0  0
   47.9560   23.8830   50.2650 H   0  0  0  0  0  0  0  0  0  0  0  0
   46.2030   23.6140   49.0570 C   0  0  0  0  0  3  0  0  0  0  0  0
   45.4370   24.1020   48.0280 C   0  0  0  0  0  3  0  0  0  0  0  0
   44.7220   27.2040   45.9550 H   0  0  0  0  0  0  0  0  0  0  0  0
   44.7540   25.8440   46.0300 S   0  0  0  0  0  0  0  0  0  0  0  0
   45.3360   25.3170   44.7300 O   0  0  0  0  0  0  0  0  0  0  0  0
   43.3620   25.2430   46.1410 O   0  0  0  0  0  0  0  0  0  0  0  0
  1  9  1  0  0  0  0
  2  1  2  0  0  0  0
  2  3  1  0  0  0  0
  3 11  1  0  0  0  0
  3  4  2  0  0  0  0
  4  5  1  0  0  0  0
  5 12  1  0  0  0  0
  5  6  1  0  0  0  0
  6 13  1  0  0  0  0
  7  6  2  0  0  0  0
  8  4  1  0  0  0  0
  8  7  1  0  0  0  0
  9 23  1  0  0  0  0
  9  8  2  0  0  0  0
 10  1  1  0  0  0  0
 14 19  1  0  0  0  0
 15 16  1  0  0  0  0
 15 14  2  0  0  0  0
 16 17  2  0  0  0  0
 17 18  1  0  0  0  0
 18  2  1  0  0  0  0
 19 18  2  0  0  0  0
 20 14  1  0  0  0  0
 21 15  1  0  0  0  0
 22 16  1  0  0  0  0
 23 27  1  0  0  0  0
 24 25  1  0  0  0  0
 24 23  2  0  0  0  0
 25 26  2  0  0  0  0
 26 27  1  0  0  0  0
 26 31  1  0  0  0  0
 28 24  1  0  0  0  0
 29 25  1  0  0  0  0
 30 31  2  0  0  0  0
 30 37  1  0  0  0  0
 31 32  1  0  0  0  0
 32 33  1  0  0  0  0
 32 34  2  0  0  0  0
 34 35  1  0  0  0  0
 36 34  1  0  0  0  0
 37 36  2  0  0  0  0
 38 39  1  0  0  0  0
 39 41  2  0  0  0  0
 39 30  1  0  0  0  0
 40 39  2  0  0  0  0
M  END
>  <minimizedAffinity>
-5.8690033

>  <minimizedRMSD>
2.17143989

$$$$
