
 OpenBabel03252505193D

 37 40  0  0  0  0  0  0  0  0999 V2000
   46.2740   32.6400   46.9140 C   0  0  0  0  0  0  0  0  0  0  0  0
   45.2950   32.6250   47.8790 C   0  0  0  0  0  0  0  0  0  0  0  0
   45.4220   31.8060   48.9800 C   0  0  0  0  0  0  0  0  0  0  0  0
   46.5500   31.0250   49.0600 C   0  0  0  0  0  0  0  0  0  0  0  0
   47.5340   31.0510   48.0760 C   0  0  0  0  0  0  0  0  0  0  0  0
   47.3630   31.8800   47.0020 N   0  0  0  0  0  0  0  0  0  0  0  0
   44.4270   33.2590   47.7690 H   0  0  0  0  0  0  0  0  0  0  0  0
   44.6720   31.7800   49.7420 H   0  0  0  0  0  0  0  0  0  0  0  0
   46.6190   30.3710   49.8960 H   0  0  0  0  0  0  0  0  0  0  0  0
   44.9210   35.1270   44.5530 C   0  0  0  0  0  0  0  0  0  0  0  0
   45.8090   35.0730   43.4790 C   0  0  0  0  0  0  0  0  0  0  0  0
   46.8650   34.1830   43.5990 C   0  0  0  0  0  0  0  0  0  0  0  0
   47.0080   33.4050   44.7250 N   0  0  0  0  0  0  0  0  0  0  0  0
   46.1130   33.4950   45.7460 C   0  0  0  0  0  0  0  0  0  0  0  0
   45.0770   34.3570   45.6490 N   0  0  0  0  0  0  0  0  0  0  0  0
   44.0830   35.8170   44.4890 H   0  0  0  0  0  0  0  0  0  0  0  0
   45.7040   35.6790   42.5890 H   0  0  0  0  0  0  0  0  0  0  0  0
   47.8560   34.0180   42.4910 C   0  0  0  0  0  0  0  0  0  0  0  0
   48.1410   35.3170   41.7360 C   0  0  0  0  0  0  0  0  0  0  0  0
   49.1780   34.5630   42.6370 C   0  0  0  0  0  0  0  0  0  0  0  0
   47.6930   33.1230   41.8240 H   0  0  0  0  0  0  0  0  0  0  0  0
   48.3310   35.2040   40.6630 H   0  0  0  0  0  0  0  0  0  0  0  0
   47.7480   36.2540   42.1550 H   0  0  0  0  0  0  0  0  0  0  0  0
   49.4090   35.0970   43.6020 H   0  0  0  0  0  0  0  0  0  0  0  0
   50.0530   34.1430   42.1180 H   0  0  0  0  0  0  0  0  0  0  0  0
   49.8850   30.3550   48.7780 C   0  0  0  0  0  0  0  0  0  0  0  0
   48.7360   30.2330   48.0370 C   0  0  0  0  0  0  0  0  0  0  0  0
   48.7520   29.1880   47.1000 C   0  0  0  0  0  0  0  0  0  0  0  0
   47.8810   29.0000   46.4500 H   0  0  0  0  0  0  0  0  0  0  0  0
   49.7720   28.3200   46.8750 C   0  0  0  0  0  0  0  0  0  0  0  0
   49.7420   27.5380   46.1530 H   0  0  0  0  0  0  0  0  0  0  0  0
   50.9180   28.4440   47.6190 C   0  0  0  0  0  0  0  0  0  0  0  0
   50.9400   29.4590   48.5490 C   0  0  0  0  0  0  0  0  0  0  0  0
   48.9280   32.2950   50.2470 H   0  0  0  0  0  0  0  0  0  0  0  0
   50.0730   31.6300   49.9190 S   0  0  0  0  0  0  0  0  0  0  0  0
   51.2360   32.5430   49.6390 O   0  0  0  0  0  0  0  0  0  0  0  0
   50.4710   30.9450   51.2420 O   0  0  0  0  0  0  0  0  0  0  0  0
  1  6  2  0  0  0  0
  1  2  1  0  0  0  0
  2  3  2  0  0  0  0
  3  4  1  0  0  0  0
  3  8  1  0  0  0  0
  4  9  1  0  0  0  0
  5  4  2  0  0  0  0
  6  5  1  0  0  0  0
  7  2  1  0  0  0  0
 10 15  1  0  0  0  0
 11 12  1  0  0  0  0
 11 10  2  0  0  0  0
 12 13  2  0  0  0  0
 13 14  1  0  0  0  0
 14  1  1  0  0  0  0
 15 14  2  0  0  0  0
 16 10  1  0  0  0  0
 17 11  1  0  0  0  0
 18 20  1  0  0  0  0
 18 12  1  0  0  0  0
 19 23  1  0  0  0  0
 19 18  1  0  0  0  0
 19 20  1  0  0  0  0
 20 24  1  0  0  0  0
 21 18  1  0  0  0  0
 22 19  1  0  0  0  0
 25 20  1  0  0  0  0
 26 35  1  0  0  0  0
 27  5  1  0  0  0  0
 27 26  2  0  0  0  0
 28 27  1  0  0  0  0
 29 28  1  0  0  0  0
 30 28  2  0  0  0  0
 30 32  1  0  0  0  0
 31 30  1  0  0  0  0
 32 33  2  0  0  0  0
 33 26  1  0  0  0  0
 35 34  1  0  0  0  0
 35 37  2  0  0  0  0
 36 35  2  0  0  0  0
M  END
>  <minimizedAffinity>
-6.43244743

>  <minimizedRMSD>
1.7455318

$$$$
