
 OpenBabel03242512243D

 23 24  0  0  0  0  0  0  0  0999 V2000
   46.3050   30.9890   46.1470 C   0  0  0  0  0  0  0  0  0  0  0  0
   46.6140   32.3270   46.2820 C   0  0  0  0  0  0  0  0  0  0  0  0
   47.1670   32.7130   47.5090 C   0  0  0  0  0  0  0  0  0  0  0  0
   47.4200   33.7690   47.6420 H   0  0  0  0  0  0  0  0  0  0  0  0
   47.4110   31.8660   48.5440 C   0  0  0  0  0  0  0  0  0  0  0  0
   47.8350   32.1880   49.4710 H   0  0  0  0  0  0  0  0  0  0  0  0
   47.0970   30.5310   48.3940 C   0  0  0  0  0  0  0  0  0  0  0  0
   46.5490   30.1030   47.2030 C   0  0  0  0  0  0  0  0  0  0  0  0
   45.0000   34.9590   44.3460 C   0  0  0  0  0  0  0  0  0  0  0  0
   45.8640   35.1480   43.2530 C   0  0  0  0  0  0  0  0  0  0  0  0
   47.0350   34.3440   43.1880 C   0  0  0  0  0  0  0  0  0  0  0  0
   47.2260   33.4520   44.1880 N   0  0  0  0  0  0  0  0  0  0  0  0
   46.3810   33.3010   45.2120 C   0  0  0  0  0  0  0  0  0  0  0  0
   45.2810   34.0550   45.2790 N   0  0  0  0  0  0  0  0  0  0  0  0
   43.8320   35.7570   44.4200 N   0  0  0  0  0  0  0  0  0  0  0  0
   45.6800   35.8730   42.4680 H   0  0  0  0  0  0  0  0  0  0  0  0
   47.7430   34.4290   42.3840 H   0  0  0  0  0  0  0  0  0  0  0  0
   43.2090   35.6760   45.2540 H   0  0  0  0  0  0  0  0  0  0  0  0
   43.5630   36.4240   43.6800 H   0  0  0  0  0  0  0  0  0  0  0  0
   44.7970   31.3570   44.0510 H   0  0  0  0  0  0  0  0  0  0  0  0
   45.6080   30.4190   44.6430 S   0  0  0  0  0  0  0  0  0  0  0  0
   46.6500   29.8760   43.7080 O   0  0  0  0  0  0  0  0  0  0  0  0
   44.6980   29.2460   44.9670 O   0  0  0  0  0  0  0  0  0  0  0  0
  1  2  2  0  0  0  0
  1  8  1  0  0  0  0
  2  3  1  0  0  0  0
  3  4  1  0  0  0  0
  3  5  2  0  0  0  0
  5  6  1  0  0  0  0
  7  5  1  0  0  0  0
  8  7  2  0  0  0  0
  9 15  1  0  0  0  0
  9 14  1  0  0  0  0
 10  9  2  0  0  0  0
 11 10  1  0  0  0  0
 11 12  2  0  0  0  0
 12 13  1  0  0  0  0
 13 14  2  0  0  0  0
 13  2  1  0  0  0  0
 15 18  1  0  0  0  0
 16 10  1  0  0  0  0
 17 11  1  0  0  0  0
 19 15  1  0  0  0  0
 20 21  1  0  0  0  0
 21 23  2  0  0  0  0
 21  1  1  0  0  0  0
 22 21  2  0  0  0  0
M  END
>  <minimizedAffinity>
-4.74012852

>  <minimizedRMSD>
2.04278445

$$$$
