
 OpenBabel03252506563D

 41 45  0  0  0  0  0  0  0  0999 V2000
   47.2240   31.3640   45.1910 C   0  0  0  0  0  0  0  0  0  0  0  0
   46.8600   32.7030   45.1800 C   0  0  0  0  0  0  0  0  0  0  0  0
   46.2580   33.3250   46.2500 C   0  0  0  0  0  0  0  0  0  0  0  0
   45.9910   32.6040   47.4100 C   0  0  0  0  0  0  0  0  0  0  0  0
   45.4290   32.8710   48.6220 N   0  0  0  0  0  0  0  0  0  0  0  0
   45.4460   31.7350   49.3550 C   0  0  0  0  0  0  0  0  0  0  0  0
   46.0180   30.7750   48.5940 N   0  0  0  0  0  0  0  0  0  0  0  0
   46.3590   31.2820   47.3980 C   0  0  0  0  0  0  0  0  0  0  0  0
   46.9620   30.6340   46.3430 C   0  0  0  0  0  0  0  0  0  0  0  0
   47.6990   30.9010   44.3250 H   0  0  0  0  0  0  0  0  0  0  0  0
   45.9670   34.3690   46.2580 H   0  0  0  0  0  0  0  0  0  0  0  0
   45.0870   33.8370   48.8090 H   0  0  0  0  0  0  0  0  0  0  0  0
   45.0530   31.6990   50.3600 H   0  0  0  0  0  0  0  0  0  0  0  0
   46.4820   35.1600   42.4740 C   0  0  0  0  0  0  0  0  0  0  0  0
   47.6380   34.9610   41.7180 C   0  0  0  0  0  0  0  0  0  0  0  0
   48.5410   33.9900   42.1330 C   0  0  0  0  0  0  0  0  0  0  0  0
   48.2670   33.2650   43.2660 N   0  0  0  0  0  0  0  0  0  0  0  0
   47.1270   33.4930   43.9720 C   0  0  0  0  0  0  0  0  0  0  0  0
   46.2320   34.4360   43.5850 N   0  0  0  0  0  0  0  0  0  0  0  0
   45.8000   35.9220   42.1250 H   0  0  0  0  0  0  0  0  0  0  0  0
   47.8890   35.5120   40.8200 H   0  0  0  0  0  0  0  0  0  0  0  0
   49.4630   33.7520   41.6280 H   0  0  0  0  0  0  0  0  0  0  0  0
   47.3120   29.2200   46.4410 C   0  0  0  0  0  0  0  0  0  0  0  0
   48.3370   28.6100   45.7400 C   0  0  0  0  0  0  0  0  0  0  0  0
   48.3050   27.2780   46.1400 C   0  0  0  0  0  0  0  0  0  0  0  0
   47.2770   27.1510   47.0470 C   0  0  0  0  0  0  0  0  0  0  0  0
   46.7230   28.3360   47.1870 O   0  0  0  0  0  0  0  0  0  0  0  0
   48.9970   29.0870   45.0460 H   0  0  0  0  0  0  0  0  0  0  0  0
   48.9760   26.4820   45.7910 H   0  0  0  0  0  0  0  0  0  0  0  0
   45.7000   25.2960   47.3660 C   0  0  0  0  0  0  0  0  0  0  0  0
   46.8700   25.9290   47.7350 C   0  0  0  0  0  0  0  0  0  0  0  0
   47.6630   25.4230   48.7450 C   0  0  0  0  0  0  0  0  0  0  0  0
   48.5960   25.9180   49.0460 H   0  0  0  0  0  0  0  0  0  0  0  0
   47.3390   24.2780   49.4320 C   0  0  0  0  0  0  0  0  0  0  0  0
   47.9410   23.8580   50.2280 H   0  0  0  0  0  0  0  0  0  0  0  0
   46.1550   23.6350   49.0610 C   0  0  0  0  0  3  0  0  0  0  0  0
   45.3740   24.1460   48.0560 C   0  0  0  0  0  3  0  0  0  0  0  0
   45.3830   26.4530   45.0530 H   0  0  0  0  0  0  0  0  0  0  0  0
   44.6780   25.9170   46.0880 S   0  0  0  0  0  0  0  0  0  0  0  0
   43.8620   24.7580   45.5470 O   0  0  0  0  0  0  0  0  0  0  0  0
   43.6750   26.9010   46.6670 O   0  0  0  0  0  0  0  0  0  0  0  0
  1  9  1  0  0  0  0
  2  1  2  0  0  0  0
  2  3  1  0  0  0  0
  3 11  1  0  0  0  0
  3  4  2  0  0  0  0
  4  5  1  0  0  0  0
  5 12  1  0  0  0  0
  5  6  1  0  0  0  0
  6 13  1  0  0  0  0
  7  6  2  0  0  0  0
  8  4  1  0  0  0  0
  8  7  1  0  0  0  0
  9 23  1  0  0  0  0
  9  8  2  0  0  0  0
 10  1  1  0  0  0  0
 14 19  1  0  0  0  0
 15 16  1  0  0  0  0
 15 14  2  0  0  0  0
 16 17  2  0  0  0  0
 17 18  1  0  0  0  0
 18  2  1  0  0  0  0
 19 18  2  0  0  0  0
 20 14  1  0  0  0  0
 21 15  1  0  0  0  0
 22 16  1  0  0  0  0
 23 27  1  0  0  0  0
 24 25  1  0  0  0  0
 24 23  2  0  0  0  0
 25 26  2  0  0  0  0
 26 27  1  0  0  0  0
 26 31  1  0  0  0  0
 28 24  1  0  0  0  0
 29 25  1  0  0  0  0
 30 31  2  0  0  0  0
 30 37  1  0  0  0  0
 31 32  1  0  0  0  0
 32 33  1  0  0  0  0
 32 34  2  0  0  0  0
 34 35  1  0  0  0  0
 36 34  1  0  0  0  0
 37 36  2  0  0  0  0
 38 39  1  0  0  0  0
 39 41  2  0  0  0  0
 39 30  1  0  0  0  0
 40 39  2  0  0  0  0
M  END
>  <minimizedAffinity>
-5.95807123

>  <minimizedRMSD>
1.28897512

$$$$
