
 OpenBabel03242522503D

 29 30  0  0  0  0  0  0  0  0999 V2000
   47.2380   30.7150   49.3230 O   0  0  0  0  0  0  0  0  0  0  0  0
   45.2270   30.4410   47.6890 O   0  0  0  0  0  0  0  0  0  0  0  0
   45.8320   31.3830   48.7640 P   0  0  1  0  0  0  0  0  0  0  0  0
   44.6490   31.4900   49.9530 O   0  0  0  0  0  0  0  0  0  0  0  0
   44.2850   30.5970   50.1070 H   0  0  0  0  0  0  0  0  0  0  0  0
   46.0840   32.8890   48.0450 O   0  0  0  0  0  0  0  0  0  0  0  0
   47.1290   32.3240   44.6100 C   0  0  0  0  0  0  0  0  0  0  0  0
   47.0450   32.2260   46.0060 C   0  0  0  0  0  0  0  0  0  0  0  0
   46.1370   33.0110   46.6740 C   0  0  0  0  0  0  0  0  0  0  0  0
   45.3540   33.8540   45.9430 N   0  0  0  0  0  0  0  0  0  0  0  0
   45.4450   33.9370   44.6100 C   0  0  0  0  0  0  0  0  0  0  0  0
   46.3230   33.1830   43.9370 N   0  0  0  0  0  0  0  0  0  0  0  0
   47.8090   31.7530   43.9940 H   0  0  0  0  0  0  0  0  0  0  0  0
   47.7350   31.5140   46.3790 H   0  0  0  0  0  0  0  0  0  0  0  0
   44.7430   34.6600   44.2030 H   0  0  0  0  0  0  0  0  0  0  0  0
   48.5160   30.7450   48.9000 C   0  0  0  0  0  0  0  0  0  0  0  0
   49.0270   31.9550   48.9480 O   0  0  0  0  0  0  0  0  0  0  0  0
   50.7180   29.6410   49.1610 C   0  0  0  0  0  0  0  0  0  0  0  0
   49.6500   29.9200   48.3620 C   0  0  0  0  0  0  0  0  0  0  0  0
   49.6410   29.4540   47.0350 C   0  0  0  0  0  0  0  0  0  0  0  0
   48.7380   29.7210   46.4530 H   0  0  0  0  0  0  0  0  0  0  0  0
   50.6180   28.7230   46.4200 C   0  0  0  0  0  0  0  0  0  0  0  0
   50.4690   28.4370   45.3970 H   0  0  0  0  0  0  0  0  0  0  0  0
   51.6900   28.4420   47.2180 C   0  0  0  0  0  3  0  0  0  0  0  0
   51.7190   28.8870   48.5120 C   0  0  0  0  0  3  0  0  0  0  0  0
   52.2780   29.7190   51.1520 H   0  0  0  0  0  0  0  0  0  0  0  0
   50.9740   30.0820   50.8100 S   0  0  0  0  0  0  0  0  0  0  0  0
   50.9290   31.5660   51.0400 O   0  0  0  0  0  0  0  0  0  0  0  0
   50.1300   29.3080   51.7970 O   0  0  0  0  0  0  0  0  0  0  0  0
  3  2  2  6  0  0  0
  3  1  1  0  0  0  0
  3  4  1  0  0  0  0
  4  5  1  0  0  0  0
  6  3  1  0  0  0  0
  7  8  1  0  0  0  0
  8 14  1  0  0  0  0
  8  9  2  0  0  0  0
  9  6  1  0  0  0  0
 10  9  1  0  0  0  0
 11 10  2  0  0  0  0
 12  7  2  0  0  0  0
 12 11  1  0  0  0  0
 13  7  1  0  0  0  0
 15 11  1  0  0  0  0
 16 17  2  0  0  0  0
 16  1  1  0  0  0  0
 18 27  1  0  0  0  0
 19 16  1  0  0  0  0
 19 18  2  0  0  0  0
 20 19  1  0  0  0  0
 21 20  1  0  0  0  0
 22 20  2  0  0  0  0
 22 24  1  0  0  0  0
 23 22  1  0  0  0  0
 24 25  2  0  0  0  0
 25 18  1  0  0  0  0
 27 28  2  0  0  0  0
 27 26  1  0  0  0  0
 27 29  2  0  0  0  0
M  END
>  <minimizedAffinity>
-4.30192614

>  <minimizedRMSD>
1.32114708

$$$$
