
 OpenBabel03242522523D

 29 30  0  0  0  0  0  0  0  0999 V2000
   37.2700   29.1910   42.2860 O   0  0  0  0  0  0  0  0  0  0  0  0
   35.5450   28.8720   40.3600 O   0  0  0  0  0  0  0  0  0  0  0  0
   36.5190   29.9010   40.9950 P   0  0  1  0  0  0  0  0  0  0  0  0
   35.5430   31.1940   41.4440 O   0  0  0  0  0  0  0  0  0  0  0  0
   34.7310   30.8400   41.8540 H   0  0  0  0  0  0  0  0  0  0  0  0
   37.6160   30.3740   39.8020 O   0  0  0  0  0  0  0  0  0  0  0  0
   40.2500   32.8760   39.9330 C   0  0  0  0  0  0  0  0  0  0  0  0
   39.5960   31.6360   39.8740 C   0  0  0  0  0  0  0  0  0  0  0  0
   38.2230   31.6100   39.8590 C   0  0  0  0  0  0  0  0  0  0  0  0
   37.5560   32.7970   39.9010 N   0  0  0  0  0  0  0  0  0  0  0  0
   38.1930   33.9730   39.9570 C   0  0  0  0  0  0  0  0  0  0  0  0
   39.5300   34.0250   39.9740 N   0  0  0  0  0  0  0  0  0  0  0  0
   41.3230   33.0030   39.9500 H   0  0  0  0  0  0  0  0  0  0  0  0
   40.2940   30.8400   39.8450 H   0  0  0  0  0  0  0  0  0  0  0  0
   37.4970   34.8080   39.9840 H   0  0  0  0  0  0  0  0  0  0  0  0
   37.4320   27.9140   42.6830 C   0  0  0  0  0  0  0  0  0  0  0  0
   36.4160   27.4830   43.3960 O   0  0  0  0  0  0  0  0  0  0  0  0
   38.1460   25.7440   41.7270 C   0  0  0  0  0  0  0  0  0  0  0  0
   38.3510   26.7260   42.6480 C   0  0  0  0  0  0  0  0  0  0  0  0
   39.4020   26.5960   43.5730 C   0  0  0  0  0  0  0  0  0  0  0  0
   39.5010   27.4360   44.2870 H   0  0  0  0  0  0  0  0  0  0  0  0
   40.2840   25.5560   43.6670 C   0  0  0  0  0  0  0  0  0  0  0  0
   41.0370   25.5970   44.4280 H   0  0  0  0  0  0  0  0  0  0  0  0
   40.0820   24.5690   42.7440 C   0  0  0  0  0  3  0  0  0  0  0  0
   39.0640   24.6770   41.8340 C   0  0  0  0  0  3  0  0  0  0  0  0
   35.8200   26.3520   40.9350 H   0  0  0  0  0  0  0  0  0  0  0  0
   36.9470   25.6610   40.4870 S   0  0  0  0  0  0  0  0  0  0  0  0
   37.3490   26.3810   39.2290 O   0  0  0  0  0  0  0  0  0  0  0  0
   36.4190   24.2690   40.2260 O   0  0  0  0  0  0  0  0  0  0  0  0
  1 16  1  0  0  0  0
  3  2  2  6  0  0  0
  3  4  1  0  0  0  0
  3  1  1  0  0  0  0
  4  5  1  0  0  0  0
  6  9  1  0  0  0  0
  6  3  1  0  0  0  0
  7 13  1  0  0  0  0
  7 12  1  0  0  0  0
  8  7  2  0  0  0  0
  9  8  1  0  0  0  0
  9 10  2  0  0  0  0
 10 11  1  0  0  0  0
 11 12  2  0  0  0  0
 11 15  1  0  0  0  0
 14  8  1  0  0  0  0
 16 17  2  0  0  0  0
 18 25  2  0  0  0  0
 18 19  1  0  0  0  0
 19 16  1  0  0  0  0
 19 20  2  0  0  0  0
 20 22  1  0  0  0  0
 20 21  1  0  0  0  0
 22 23  1  0  0  0  0
 24 22  2  0  0  0  0
 25 24  1  0  0  0  0
 27 26  1  0  0  0  0
 27 18  1  0  0  0  0
 28 27  2  0  0  0  0
 29 27  2  0  0  0  0
M  END
>  <minimizedAffinity>
-5.46597481

$$$$

 OpenBabel03242522523D

 29 30  0  0  0  0  0  0  0  0999 V2000
   37.7980   29.5020   40.2290 O   0  0  0  0  0  0  0  0  0  0  0  0
   35.3940   29.6290   39.2340 O   0  0  0  0  0  0  0  0  0  0  0  0
   36.4610   30.4490   40.0080 P   0  0  1  0  0  0  0  0  0  0  0  0
   35.7140   30.8640   41.4560 O   0  0  0  0  0  0  0  0  0  0  0  0
   35.2330   30.0820   41.7900 H   0  0  0  0  0  0  0  0  0  0  0  0
   36.8020   31.8320   39.1030 O   0  0  0  0  0  0  0  0  0  0  0  0
   39.3690   34.1610   40.1980 C   0  0  0  0  0  0  0  0  0  0  0  0
   38.1350   33.5060   40.0720 C   0  0  0  0  0  0  0  0  0  0  0  0
   38.0300   32.4490   39.2010 C   0  0  0  0  0  0  0  0  0  0  0  0
   39.1380   32.0830   38.4960 N   0  0  0  0  0  0  0  0  0  0  0  0
   40.3100   32.7160   38.6280 C   0  0  0  0  0  0  0  0  0  0  0  0
   40.4370   33.7500   39.4690 N   0  0  0  0  0  0  0  0  0  0  0  0
   39.5550   35.0000   40.8520 H   0  0  0  0  0  0  0  0  0  0  0  0
   37.4080   33.9420   40.7060 H   0  0  0  0  0  0  0  0  0  0  0  0
   41.0750   32.2840   37.9870 H   0  0  0  0  0  0  0  0  0  0  0  0
   38.0140   28.1730   40.1990 C   0  0  0  0  0  0  0  0  0  0  0  0
   39.0550   27.8550   39.4620 O   0  0  0  0  0  0  0  0  0  0  0  0
   37.5440   26.5550   42.0140 C   0  0  0  0  0  0  0  0  0  0  0  0
   37.5200   26.8390   40.6820 C   0  0  0  0  0  0  0  0  0  0  0  0
   37.0630   25.8650   39.7770 C   0  0  0  0  0  0  0  0  0  0  0  0
   37.0740   26.1740   38.7140 H   0  0  0  0  0  0  0  0  0  0  0  0
   36.6190   24.6090   40.0830 C   0  0  0  0  0  0  0  0  0  0  0  0
   36.2990   23.9750   39.2810 H   0  0  0  0  0  0  0  0  0  0  0  0
   36.6410   24.3210   41.4180 C   0  0  0  0  0  3  0  0  0  0  0  0
   37.0830   25.2550   42.3160 C   0  0  0  0  0  3  0  0  0  0  0  0
   37.7550   26.8940   44.5130 H   0  0  0  0  0  0  0  0  0  0  0  0
   38.0440   27.5630   43.3230 S   0  0  0  0  0  0  0  0  0  0  0  0
   39.5320   27.7760   43.3690 O   0  0  0  0  0  0  0  0  0  0  0  0
   37.2610   28.8490   43.4500 O   0  0  0  0  0  0  0  0  0  0  0  0
  3  2  2  6  0  0  0
  3  1  1  0  0  0  0
  3  4  1  0  0  0  0
  4  5  1  0  0  0  0
  6  9  1  0  0  0  0
  6  3  1  0  0  0  0
  7 13  1  0  0  0  0
  8  7  1  0  0  0  0
  8 14  1  0  0  0  0
  9  8  2  0  0  0  0
 10 11  2  0  0  0  0
 10  9  1  0  0  0  0
 11 12  1  0  0  0  0
 12  7  2  0  0  0  0
 15 11  1  0  0  0  0
 16  1  1  0  0  0  0
 16 19  1  0  0  0  0
 17 16  2  0  0  0  0
 18 25  1  0  0  0  0
 18 27  1  0  0  0  0
 19 18  2  0  0  0  0
 20 22  2  0  0  0  0
 20 19  1  0  0  0  0
 21 20  1  0  0  0  0
 22 24  1  0  0  0  0
 23 22  1  0  0  0  0
 24 25  2  0  0  0  0
 27 28  2  0  0  0  0
 27 29  2  0  0  0  0
 27 26  1  0  0  0  0
M  END
>  <minimizedAffinity>
-5.43723726

$$$$

 OpenBabel03242522523D

 29 30  0  0  0  0  0  0  0  0999 V2000
   37.8060   29.4560   40.2340 O   0  0  0  0  0  0  0  0  0  0  0  0
   35.5690   29.4290   38.8990 O   0  0  0  0  0  0  0  0  0  0  0  0
   36.4750   30.3280   39.7830 P   0  0  1  0  0  0  0  0  0  0  0  0
   35.5080   30.7570   41.0890 O   0  0  0  0  0  0  0  0  0  0  0  0
   35.0180   29.9650   41.3830 H   0  0  0  0  0  0  0  0  0  0  0  0
   36.8850   31.6930   38.8780 O   0  0  0  0  0  0  0  0  0  0  0  0
   39.1580   34.1600   40.2780 C   0  0  0  0  0  0  0  0  0  0  0  0
   37.9880   33.4390   39.9990 C   0  0  0  0  0  0  0  0  0  0  0  0
   38.0540   32.3760   39.1310 C   0  0  0  0  0  0  0  0  0  0  0  0
   39.2630   32.0700   38.5800 N   0  0  0  0  0  0  0  0  0  0  0  0
   40.3710   32.7660   38.8570 C   0  0  0  0  0  0  0  0  0  0  0  0
   40.3320   33.8070   39.6980 N   0  0  0  0  0  0  0  0  0  0  0  0
   39.2100   35.0100   40.9440 H   0  0  0  0  0  0  0  0  0  0  0  0
   37.1610   33.8360   40.5290 H   0  0  0  0  0  0  0  0  0  0  0  0
   41.2360   32.3760   38.3260 H   0  0  0  0  0  0  0  0  0  0  0  0
   38.4930   29.3330   41.3860 C   0  0  0  0  0  0  0  0  0  0  0  0
   38.3490   30.3830   42.1640 O   0  0  0  0  0  0  0  0  0  0  0  0
   38.9170   27.3070   42.7450 C   0  0  0  0  0  0  0  0  0  0  0  0
   39.4070   28.4450   42.1800 C   0  0  0  0  0  0  0  0  0  0  0  0
   40.7580   28.7870   42.3770 C   0  0  0  0  0  0  0  0  0  0  0  0
   41.0770   29.7250   41.8850 H   0  0  0  0  0  0  0  0  0  0  0  0
   41.6810   28.0840   43.0990 C   0  0  0  0  0  0  0  0  0  0  0  0
   42.6790   28.4720   43.1590 H   0  0  0  0  0  0  0  0  0  0  0  0
   41.1930   26.9420   43.6670 C   0  0  0  0  0  3  0  0  0  0  0  0
   39.8820   26.5920   43.4870 C   0  0  0  0  0  3  0  0  0  0  0  0
   37.3050   25.4540   43.3580 H   0  0  0  0  0  0  0  0  0  0  0  0
   37.3190   26.6590   42.6540 S   0  0  0  0  0  0  0  0  0  0  0  0
   36.2970   27.5110   43.3530 O   0  0  0  0  0  0  0  0  0  0  0  0
   36.8940   26.2510   41.2620 O   0  0  0  0  0  0  0  0  0  0  0  0
  1 16  1  0  0  0  0
  3  2  2  6  0  0  0
  3  1  1  0  0  0  0
  3  4  1  0  0  0  0
  4  5  1  0  0  0  0
  6  9  1  0  0  0  0
  6  3  1  0  0  0  0
  7 13  1  0  0  0  0
  8  7  1  0  0  0  0
  8 14  1  0  0  0  0
  9  8  2  0  0  0  0
 10 11  2  0  0  0  0
 10  9  1  0  0  0  0
 11 12  1  0  0  0  0
 12  7  2  0  0  0  0
 15 11  1  0  0  0  0
 16 17  2  0  0  0  0
 16 19  1  0  0  0  0
 18 25  1  0  0  0  0
 19 20  1  0  0  0  0
 19 18  2  0  0  0  0
 20 22  2  0  0  0  0
 21 20  1  0  0  0  0
 22 23  1  0  0  0  0
 22 24  1  0  0  0  0
 25 24  2  0  0  0  0
 27 18  1  0  0  0  0
 27 28  2  0  0  0  0
 27 26  1  0  0  0  0
 29 27  2  0  0  0  0
M  END
>  <minimizedAffinity>
-5.25096607

$$$$

 OpenBabel03242522523D

 29 30  0  0  0  0  0  0  0  0999 V2000
   37.6770   29.3590   40.7250 O   0  0  0  0  0  0  0  0  0  0  0  0
   36.7850   31.1870   39.0980 O   0  0  0  0  0  0  0  0  0  0  0  0
   37.0830   30.8960   40.5930 P   0  0  1  0  0  0  0  0  0  0  0  0
   35.6040   31.0870   41.3690 O   0  0  0  0  0  0  0  0  0  0  0  0
   34.9130   30.6620   40.8250 H   0  0  0  0  0  0  0  0  0  0  0  0
   38.1860   32.0530   41.1320 O   0  0  0  0  0  0  0  0  0  0  0  0
   40.5780   34.1610   39.3860 C   0  0  0  0  0  0  0  0  0  0  0  0
   39.4920   33.7570   40.1770 C   0  0  0  0  0  0  0  0  0  0  0  0
   39.2630   32.4130   40.3520 C   0  0  0  0  0  0  0  0  0  0  0  0
   40.1070   31.5320   39.7460 N   0  0  0  0  0  0  0  0  0  0  0  0
   41.1400   31.9320   38.9960 C   0  0  0  0  0  0  0  0  0  0  0  0
   41.3840   33.2350   38.8090 N   0  0  0  0  0  0  0  0  0  0  0  0
   40.8420   35.1900   39.1870 H   0  0  0  0  0  0  0  0  0  0  0  0
   38.9660   34.5930   40.5550 H   0  0  0  0  0  0  0  0  0  0  0  0
   41.6990   31.0900   38.5970 H   0  0  0  0  0  0  0  0  0  0  0  0
   37.2010   28.2180   41.2620 C   0  0  0  0  0  0  0  0  0  0  0  0
   36.6870   28.4080   42.4560 O   0  0  0  0  0  0  0  0  0  0  0  0
   36.5900   26.2900   39.8330 C   0  0  0  0  0  0  0  0  0  0  0  0
   37.0170   26.7440   41.0440 C   0  0  0  0  0  0  0  0  0  0  0  0
   37.2480   25.8240   42.0830 C   0  0  0  0  0  0  0  0  0  0  0  0
   37.5940   26.2720   43.0340 H   0  0  0  0  0  0  0  0  0  0  0  0
   37.0900   24.4680   42.0230 C   0  0  0  0  0  0  0  0  0  0  0  0
   37.3070   23.8930   42.9020 H   0  0  0  0  0  0  0  0  0  0  0  0
   36.6620   24.0090   40.8100 C   0  0  0  0  0  3  0  0  0  0  0  0
   36.4310   24.8880   39.7860 C   0  0  0  0  0  3  0  0  0  0  0  0
   35.8100   26.2990   37.4250 H   0  0  0  0  0  0  0  0  0  0  0  0
   36.2450   27.1950   38.4030 S   0  0  0  0  0  0  0  0  0  0  0  0
   35.0950   28.1480   38.5720 O   0  0  0  0  0  0  0  0  0  0  0  0
   37.4560   27.8380   37.7680 O   0  0  0  0  0  0  0  0  0  0  0  0
  1 16  1  0  0  0  0
  3  2  2  6  0  0  0
  3  1  1  0  0  0  0
  3  6  1  0  0  0  0
  3  4  1  0  0  0  0
  5  4  1  0  0  0  0
  7  8  1  0  0  0  0
  8  9  2  0  0  0  0
  8 14  1  0  0  0  0
  9  6  1  0  0  0  0
 10  9  1  0  0  0  0
 11 10  2  0  0  0  0
 12 11  1  0  0  0  0
 12  7  2  0  0  0  0
 13  7  1  0  0  0  0
 15 11  1  0  0  0  0
 16 17  2  0  0  0  0
 18 19  1  0  0  0  0
 19 16  1  0  0  0  0
 19 20  2  0  0  0  0
 20 21  1  0  0  0  0
 22 20  1  0  0  0  0
 22 23  1  0  0  0  0
 24 22  2  0  0  0  0
 25 18  2  0  0  0  0
 25 24  1  0  0  0  0
 26 27  1  0  0  0  0
 27 28  2  0  0  0  0
 27 18  1  0  0  0  0
 29 27  2  0  0  0  0
M  END
>  <minimizedAffinity>
-5.15667868

$$$$

 OpenBabel03242522523D

 29 30  0  0  0  0  0  0  0  0999 V2000
   36.7580   28.4060   40.4470 O   0  0  0  0  0  0  0  0  0  0  0  0
   34.3800   29.2660   39.8200 O   0  0  0  0  0  0  0  0  0  0  0  0
   35.8200   29.7370   40.1590 P   0  0  1  0  0  0  0  0  0  0  0  0
   35.6430   30.7100   41.5180 O   0  0  0  0  0  0  0  0  0  0  0  0
   35.0190   30.2740   42.1300 H   0  0  0  0  0  0  0  0  0  0  0  0
   36.3850   30.6440   38.8530 O   0  0  0  0  0  0  0  0  0  0  0  0
   39.6390   32.0530   38.0520 C   0  0  0  0  0  0  0  0  0  0  0  0
   38.4610   31.2970   37.9660 C   0  0  0  0  0  0  0  0  0  0  0  0
   37.5290   31.4040   38.9700 C   0  0  0  0  0  0  0  0  0  0  0  0
   37.7930   32.2480   40.0070 N   0  0  0  0  0  0  0  0  0  0  0  0
   38.9210   32.9650   40.0740 C   0  0  0  0  0  0  0  0  0  0  0  0
   39.8460   32.8760   39.1100 N   0  0  0  0  0  0  0  0  0  0  0  0
   40.4320   32.0390   37.3180 H   0  0  0  0  0  0  0  0  0  0  0  0
   38.4500   30.7100   37.0850 H   0  0  0  0  0  0  0  0  0  0  0  0
   38.9550   33.5790   40.9710 H   0  0  0  0  0  0  0  0  0  0  0  0
   37.2130   27.8110   41.5660 C   0  0  0  0  0  0  0  0  0  0  0  0
   36.3640   27.9140   42.5640 O   0  0  0  0  0  0  0  0  0  0  0  0
   39.5320   27.6830   42.4260 C   0  0  0  0  0  0  0  0  0  0  0  0
   38.3560   27.0460   42.1710 C   0  0  0  0  0  0  0  0  0  0  0  0
   38.2400   25.6720   42.4480 C   0  0  0  0  0  0  0  0  0  0  0  0
   37.2530   25.2300   42.2130 H   0  0  0  0  0  0  0  0  0  0  0  0
   39.2090   24.8590   42.9670 C   0  0  0  0  0  0  0  0  0  0  0  0
   38.9730   23.8260   43.1250 H   0  0  0  0  0  0  0  0  0  0  0  0
   40.3910   25.4950   43.2250 C   0  0  0  0  0  3  0  0  0  0  0  0
   40.5230   26.8320   42.9610 C   0  0  0  0  0  3  0  0  0  0  0  0
   41.1790   29.5730   42.7730 H   0  0  0  0  0  0  0  0  0  0  0  0
   39.9320   29.3460   42.1890 S   0  0  0  0  0  0  0  0  0  0  0  0
   40.1270   29.7050   40.7420 O   0  0  0  0  0  0  0  0  0  0  0  0
   39.0270   30.3120   42.9190 O   0  0  0  0  0  0  0  0  0  0  0  0
  1 16  1  0  0  0  0
  3  2  2  6  0  0  0
  3  1  1  0  0  0  0
  3  4  1  0  0  0  0
  4  5  1  0  0  0  0
  6  9  1  0  0  0  0
  6  3  1  0  0  0  0
  7 12  1  0  0  0  0
  8  7  2  0  0  0  0
  8  9  1  0  0  0  0
  9 10  2  0  0  0  0
 10 11  1  0  0  0  0
 11 15  1  0  0  0  0
 12 11  2  0  0  0  0
 13  7  1  0  0  0  0
 14  8  1  0  0  0  0
 16 19  1  0  0  0  0
 16 17  2  0  0  0  0
 18 25  1  0  0  0  0
 19 18  2  0  0  0  0
 19 20  1  0  0  0  0
 20 22  2  0  0  0  0
 21 20  1  0  0  0  0
 22 23  1  0  0  0  0
 22 24  1  0  0  0  0
 25 24  2  0  0  0  0
 27 18  1  0  0  0  0
 27 26  1  0  0  0  0
 27 29  2  0  0  0  0
 28 27  2  0  0  0  0
M  END
>  <minimizedAffinity>
-5.03643847

$$$$

 OpenBabel03242522523D

 29 30  0  0  0  0  0  0  0  0999 V2000
   37.9800   31.2390   40.1140 O   0  0  0  0  0  0  0  0  0  0  0  0
   37.2800   33.6800   39.5320 O   0  0  0  0  0  0  0  0  0  0  0  0
   38.4520   32.8230   40.0830 P   0  0  1  0  0  0  0  0  0  0  0  0
   38.7480   33.4410   41.6190 O   0  0  0  0  0  0  0  0  0  0  0  0
   37.8900   33.5970   42.0590 H   0  0  0  0  0  0  0  0  0  0  0  0
   39.7860   33.0710   39.0800 O   0  0  0  0  0  0  0  0  0  0  0  0
   43.3270   32.4630   39.6320 C   0  0  0  0  0  0  0  0  0  0  0  0
   42.0280   32.3680   39.1120 C   0  0  0  0  0  0  0  0  0  0  0  0
   41.0510   33.1940   39.6130 C   0  0  0  0  0  0  0  0  0  0  0  0
   41.3930   34.0740   40.5960 N   0  0  0  0  0  0  0  0  0  0  0  0
   42.6370   34.1550   41.0810 C   0  0  0  0  0  0  0  0  0  0  0  0
   43.6060   33.3590   40.6110 N   0  0  0  0  0  0  0  0  0  0  0  0
   44.1630   31.8600   39.3080 H   0  0  0  0  0  0  0  0  0  0  0  0
   41.9740   31.6280   38.3580 H   0  0  0  0  0  0  0  0  0  0  0  0
   42.7190   34.9110   41.8570 H   0  0  0  0  0  0  0  0  0  0  0  0
   37.4430   30.4450   41.0610 C   0  0  0  0  0  0  0  0  0  0  0  0
   36.2050   30.7790   41.3460 O   0  0  0  0  0  0  0  0  0  0  0  0
   38.9570   29.0620   42.4500 C   0  0  0  0  0  0  0  0  0  0  0  0
   37.7000   29.2800   41.9740 C   0  0  0  0  0  0  0  0  0  0  0  0
   36.6670   28.3900   42.3200 C   0  0  0  0  0  0  0  0  0  0  0  0
   35.6760   28.6380   41.8920 H   0  0  0  0  0  0  0  0  0  0  0  0
   36.7740   27.2820   43.1120 C   0  0  0  0  0  0  0  0  0  0  0  0
   35.8930   26.6970   43.2870 H   0  0  0  0  0  0  0  0  0  0  0  0
   38.0330   27.0600   43.5920 C   0  0  0  0  0  3  0  0  0  0  0  0
   39.0530   27.9140   43.2670 C   0  0  0  0  0  3  0  0  0  0  0  0
   40.4440   30.3170   40.8320 H   0  0  0  0  0  0  0  0  0  0  0  0
   40.3860   29.9950   42.1890 S   0  0  0  0  0  0  0  0  0  0  0  0
   40.3570   31.3260   42.8870 O   0  0  0  0  0  0  0  0  0  0  0  0
   41.6730   29.2360   42.4190 O   0  0  0  0  0  0  0  0  0  0  0  0
  1 16  1  0  0  0  0
  3  2  2  6  0  0  0
  3  1  1  0  0  0  0
  3  4  1  0  0  0  0
  4  5  1  0  0  0  0
  6  9  1  0  0  0  0
  6  3  1  0  0  0  0
  7 12  1  0  0  0  0
  8  9  1  0  0  0  0
  8  7  2  0  0  0  0
  9 10  2  0  0  0  0
 10 11  1  0  0  0  0
 11 15  1  0  0  0  0
 12 11  2  0  0  0  0
 13  7  1  0  0  0  0
 14  8  1  0  0  0  0
 16 17  2  0  0  0  0
 16 19  1  0  0  0  0
 18 25  1  0  0  0  0
 19 20  1  0  0  0  0
 19 18  2  0  0  0  0
 20 22  2  0  0  0  0
 21 20  1  0  0  0  0
 22 23  1  0  0  0  0
 22 24  1  0  0  0  0
 25 24  2  0  0  0  0
 26 27  1  0  0  0  0
 27 29  2  0  0  0  0
 27 18  1  0  0  0  0
 27 28  2  0  0  0  0
M  END
>  <minimizedAffinity>
-4.92852116

$$$$

 OpenBabel03242522523D

 29 30  0  0  0  0  0  0  0  0999 V2000
   37.0480   28.7210   39.4670 O   0  0  0  0  0  0  0  0  0  0  0  0
   34.6150   29.2850   40.2090 O   0  0  0  0  0  0  0  0  0  0  0  0
   36.0970   29.7100   40.3900 P   0  0  1  0  0  0  0  0  0  0  0  0
   36.3930   29.5410   42.0360 O   0  0  0  0  0  0  0  0  0  0  0  0
   35.9930   28.7030   42.3370 H   0  0  0  0  0  0  0  0  0  0  0  0
   36.2280   31.3290   39.9300 O   0  0  0  0  0  0  0  0  0  0  0  0
   38.5570   34.1170   40.0530 C   0  0  0  0  0  0  0  0  0  0  0  0
   37.4140   33.3510   39.7790 C   0  0  0  0  0  0  0  0  0  0  0  0
   37.3650   32.0510   40.2190 C   0  0  0  0  0  0  0  0  0  0  0  0
   38.4350   31.5630   40.9080 N   0  0  0  0  0  0  0  0  0  0  0  0
   39.5190   32.3060   41.1640 C   0  0  0  0  0  0  0  0  0  0  0  0
   39.5910   33.5750   40.7430 N   0  0  0  0  0  0  0  0  0  0  0  0
   38.6930   35.1450   39.7500 H   0  0  0  0  0  0  0  0  0  0  0  0
   36.7000   33.9150   39.2370 H   0  0  0  0  0  0  0  0  0  0  0  0
   40.2660   31.7490   41.7220 H   0  0  0  0  0  0  0  0  0  0  0  0
   37.5550   27.4850   39.6440 C   0  0  0  0  0  0  0  0  0  0  0  0
   38.2390   27.0750   38.5990 O   0  0  0  0  0  0  0  0  0  0  0  0
   38.5770   26.3500   41.5930 C   0  0  0  0  0  0  0  0  0  0  0  0
   37.6540   26.3240   40.5920 C   0  0  0  0  0  0  0  0  0  0  0  0
   36.8300   25.1940   40.4420 C   0  0  0  0  0  0  0  0  0  0  0  0
   36.1080   25.2520   39.6050 H   0  0  0  0  0  0  0  0  0  0  0  0
   36.8420   24.0670   41.2140 C   0  0  0  0  0  0  0  0  0  0  0  0
   36.1500   23.2830   40.9770 H   0  0  0  0  0  0  0  0  0  0  0  0
   37.7660   24.0890   42.2200 C   0  0  0  0  0  3  0  0  0  0  0  0
   38.5780   25.1800   42.3820 C   0  0  0  0  0  3  0  0  0  0  0  0
   40.1210   28.1960   40.8090 H   0  0  0  0  0  0  0  0  0  0  0  0
   39.6930   27.6040   41.9980 S   0  0  0  0  0  0  0  0  0  0  0  0
   39.0620   28.7290   42.7690 O   0  0  0  0  0  0  0  0  0  0  0  0
   40.9800   27.1110   42.6210 O   0  0  0  0  0  0  0  0  0  0  0  0
  1 16  1  0  0  0  0
  1  3  1  0  0  0  0
  3  2  2  6  0  0  0
  3  4  1  0  0  0  0
  4  5  1  0  0  0  0
  6  9  1  0  0  0  0
  6  3  1  0  0  0  0
  7 12  1  0  0  0  0
  8  7  2  0  0  0  0
  8  9  1  0  0  0  0
  9 10  2  0  0  0  0
 10 11  1  0  0  0  0
 11 15  1  0  0  0  0
 12 11  2  0  0  0  0
 13  7  1  0  0  0  0
 14  8  1  0  0  0  0
 16 19  1  0  0  0  0
 17 16  2  0  0  0  0
 18 27  1  0  0  0  0
 18 25  1  0  0  0  0
 19 18  2  0  0  0  0
 20 19  1  0  0  0  0
 20 22  2  0  0  0  0
 21 20  1  0  0  0  0
 22 24  1  0  0  0  0
 23 22  1  0  0  0  0
 24 25  2  0  0  0  0
 26 27  1  0  0  0  0
 27 29  2  0  0  0  0
 27 28  2  0  0  0  0
M  END
>  <minimizedAffinity>
-4.8912797

$$$$

 OpenBabel03242522523D

 29 30  0  0  0  0  0  0  0  0999 V2000
   38.1060   30.0070   40.9690 O   0  0  0  0  0  0  0  0  0  0  0  0
   36.2440   30.3310   39.1770 O   0  0  0  0  0  0  0  0  0  0  0  0
   36.8350   30.9420   40.4750 P   0  0  1  0  0  0  0  0  0  0  0  0
   35.5600   30.9320   41.5720 O   0  0  0  0  0  0  0  0  0  0  0  0
   35.0950   30.0770   41.4960 H   0  0  0  0  0  0  0  0  0  0  0  0
   37.3050   32.5260   40.1310 O   0  0  0  0  0  0  0  0  0  0  0  0
   40.5630   34.0710   39.6740 C   0  0  0  0  0  0  0  0  0  0  0  0
   39.2940   33.7750   40.1920 C   0  0  0  0  0  0  0  0  0  0  0  0
   38.5480   32.7880   39.5960 C   0  0  0  0  0  0  0  0  0  0  0  0
   39.0790   32.1380   38.5230 N   0  0  0  0  0  0  0  0  0  0  0  0
   40.2930   32.4310   38.0400 C   0  0  0  0  0  0  0  0  0  0  0  0
   41.0380   33.3890   38.6020 N   0  0  0  0  0  0  0  0  0  0  0  0
   41.2260   34.8280   40.0690 H   0  0  0  0  0  0  0  0  0  0  0  0
   39.0710   34.3900   41.0250 H   0  0  0  0  0  0  0  0  0  0  0  0
   40.5460   31.8100   37.1840 H   0  0  0  0  0  0  0  0  0  0  0  0
   38.2050   28.8690   41.6840 C   0  0  0  0  0  0  0  0  0  0  0  0
   37.1700   28.6890   42.4740 O   0  0  0  0  0  0  0  0  0  0  0  0
   39.6460   27.0000   40.9330 C   0  0  0  0  0  0  0  0  0  0  0  0
   39.0610   27.6680   41.9660 C   0  0  0  0  0  0  0  0  0  0  0  0
   39.2440   27.2020   43.2800 C   0  0  0  0  0  0  0  0  0  0  0  0
   38.7370   27.8000   44.0620 H   0  0  0  0  0  0  0  0  0  0  0  0
   39.9690   26.1100   43.6660 C   0  0  0  0  0  0  0  0  0  0  0  0
   40.0170   25.8770   44.7110 H   0  0  0  0  0  0  0  0  0  0  0  0
   40.5570   25.4380   42.6330 C   0  0  0  0  0  3  0  0  0  0  0  0
   40.3920   25.8750   41.3460 C   0  0  0  0  0  3  0  0  0  0  0  0
   40.2980   26.3670   38.5710 H   0  0  0  0  0  0  0  0  0  0  0  0
   39.5900   27.3630   39.2460 S   0  0  0  0  0  0  0  0  0  0  0  0
   38.2020   27.2870   38.6720 O   0  0  0  0  0  0  0  0  0  0  0  0
   40.3200   28.6280   38.8580 O   0  0  0  0  0  0  0  0  0  0  0  0
  1 16  1  0  0  0  0
  3  2  2  6  0  0  0
  3  1  1  0  0  0  0
  3  4  1  0  0  0  0
  5  4  1  0  0  0  0
  6  3  1  0  0  0  0
  7 13  1  0  0  0  0
  7  8  1  0  0  0  0
  8 14  1  0  0  0  0
  9  6  1  0  0  0  0
  9  8  2  0  0  0  0
 10  9  1  0  0  0  0
 11 10  2  0  0  0  0
 11 12  1  0  0  0  0
 12  7  2  0  0  0  0
 15 11  1  0  0  0  0
 16 19  1  0  0  0  0
 16 17  2  0  0  0  0
 18 25  2  0  0  0  0
 18 19  1  0  0  0  0
 19 20  2  0  0  0  0
 20 22  1  0  0  0  0
 20 21  1  0  0  0  0
 22 23  1  0  0  0  0
 24 22  2  0  0  0  0
 25 24  1  0  0  0  0
 26 27  1  0  0  0  0
 27 18  1  0  0  0  0
 28 27  2  0  0  0  0
 29 27  2  0  0  0  0
M  END
>  <minimizedAffinity>
-4.87171268

$$$$

 OpenBabel03242522523D

 29 30  0  0  0  0  0  0  0  0999 V2000
   39.8100   31.2640   40.6690 O   0  0  0  0  0  0  0  0  0  0  0  0
   39.3090   33.8200   40.6860 O   0  0  0  0  0  0  0  0  0  0  0  0
   38.9030   32.4810   40.0140 P   0  0  1  0  0  0  0  0  0  0  0  0
   39.2150   32.7120   38.3780 O   0  0  0  0  0  0  0  0  0  0  0  0
   40.0750   33.1640   38.2890 H   0  0  0  0  0  0  0  0  0  0  0  0
   37.2510   32.2540   40.2740 O   0  0  0  0  0  0  0  0  0  0  0  0
   35.1910   29.2610   40.1960 C   0  0  0  0  0  0  0  0  0  0  0  0
   35.8570   30.4040   40.6620 C   0  0  0  0  0  0  0  0  0  0  0  0
   36.6100   31.1400   39.7800 C   0  0  0  0  0  0  0  0  0  0  0  0
   36.6730   30.7230   38.4840 N   0  0  0  0  0  0  0  0  0  0  0  0
   36.0310   29.6300   38.0530 C   0  0  0  0  0  0  0  0  0  0  0  0
   35.2930   28.8960   38.8940 N   0  0  0  0  0  0  0  0  0  0  0  0
   34.5770   28.6160   40.8080 H   0  0  0  0  0  0  0  0  0  0  0  0
   35.6760   30.5540   41.6950 H   0  0  0  0  0  0  0  0  0  0  0  0
   36.1990   29.4560   36.9930 H   0  0  0  0  0  0  0  0  0  0  0  0
   39.7490   30.5740   41.8250 C   0  0  0  0  0  0  0  0  0  0  0  0
   40.3580   31.1970   42.8090 O   0  0  0  0  0  0  0  0  0  0  0  0
   40.0210   28.1950   42.4590 C   0  0  0  0  0  0  0  0  0  0  0  0
   39.2490   29.3170   42.4780 C   0  0  0  0  0  0  0  0  0  0  0  0
   37.9800   29.2700   43.0820 C   0  0  0  0  0  0  0  0  0  0  0  0
   37.4160   30.2220   43.0560 H   0  0  0  0  0  0  0  0  0  0  0  0
   37.3990   28.1870   43.6800 C   0  0  0  0  0  0  0  0  0  0  0  0
   36.4200   28.3050   44.1000 H   0  0  0  0  0  0  0  0  0  0  0  0
   38.1710   27.0610   43.6630 C   0  0  0  0  0  3  0  0  0  0  0  0
   39.4100   27.0850   43.0800 C   0  0  0  0  0  3  0  0  0  0  0  0
   41.9970   26.6700   42.0400 H   0  0  0  0  0  0  0  0  0  0  0  0
   41.6030   27.9860   41.7980 S   0  0  0  0  0  0  0  0  0  0  0  0
   41.6380   28.1160   40.3000 O   0  0  0  0  0  0  0  0  0  0  0  0
   42.6750   28.8000   42.4850 O   0  0  0  0  0  0  0  0  0  0  0  0
  1 16  1  0  0  0  0
  3  6  1  0  0  0  0
  3  1  1  0  0  0  0
  3  2  2  1  0  0  0
  4  3  1  0  0  0  0
  5  4  1  0  0  0  0
  7  8  1  0  0  0  0
  7 13  1  0  0  0  0
  8 14  1  0  0  0  0
  9  6  1  0  0  0  0
  9  8  2  0  0  0  0
 10  9  1  0  0  0  0
 11 10  2  0  0  0  0
 11 12  1  0  0  0  0
 12  7  2  0  0  0  0
 15 11  1  0  0  0  0
 16 19  1  0  0  0  0
 16 17  2  0  0  0  0
 18 19  2  0  0  0  0
 18 25  1  0  0  0  0
 19 20  1  0  0  0  0
 20 22  2  0  0  0  0
 21 20  1  0  0  0  0
 22 23  1  0  0  0  0
 24 22  1  0  0  0  0
 25 24  2  0  0  0  0
 27 26  1  0  0  0  0
 27 18  1  0  0  0  0
 27 29  2  0  0  0  0
 28 27  2  0  0  0  0
M  END
>  <minimizedAffinity>
-4.85393667

$$$$
