
 OpenBabel03242519403D

 32 33  0  0  0  0  0  0  0  0999 V2000
   47.9980   32.8910   41.8450 O   0  0  0  0  0  0  0  0  0  0  0  0
   47.1800   34.1170   41.3510 P   0  0  2  0  0  0  0  0  0  0  0  0
   45.5670   33.9580   41.9190 O   0  0  0  0  0  0  0  0  0  0  0  0
   44.3710   35.9670   44.7090 C   0  0  0  0  0  0  0  0  0  0  0  0
   44.6650   35.5610   43.3880 C   0  0  0  0  0  0  0  0  0  0  0  0
   45.2950   34.3180   43.2210 C   0  0  0  0  0  0  0  0  0  0  0  0
   45.5860   33.5830   44.3140 N   0  0  0  0  0  0  0  0  0  0  0  0
   45.2920   34.0000   45.5660 C   0  0  0  0  0  0  0  0  0  0  0  0
   44.6900   35.1800   45.7750 N   0  0  0  0  0  0  0  0  0  0  0  0
   43.8880   36.9200   44.8260 H   0  0  0  0  0  0  0  0  0  0  0  0
   44.3920   36.2180   42.5700 H   0  0  0  0  0  0  0  0  0  0  0  0
   45.5720   33.3260   46.3760 H   0  0  0  0  0  0  0  0  0  0  0  0
   47.1670   34.1180   39.6960 O   0  0  0  0  0  0  0  0  0  0  0  0
   47.2950   33.0900   38.8170 C   0  0  0  0  0  0  0  0  0  0  0  0
   46.4380   32.0530   38.9520 O   0  0  0  0  0  0  0  0  0  0  0  0
   49.0110   31.6240   37.8210 C   0  0  0  0  0  0  0  0  0  0  0  0
   48.0020   32.5160   37.6520 C   0  0  0  0  0  0  0  0  0  0  0  0
   47.6130   32.8050   36.3480 C   0  0  0  0  0  0  0  0  0  0  0  0
   46.7830   33.5400   36.2630 H   0  0  0  0  0  0  0  0  0  0  0  0
   48.0860   32.3300   35.1570 C   0  0  0  0  0  0  0  0  0  0  0  0
   47.6720   32.6600   34.2260 H   0  0  0  0  0  0  0  0  0  0  0  0
   49.1020   31.4300   35.3220 C   0  0  0  0  0  3  0  0  0  0  0  0
   49.5040   31.1270   36.5990 C   0  0  0  0  0  3  0  0  0  0  0  0
   50.8070   30.2180   38.8990 H   0  0  0  0  0  0  0  0  0  0  0  0
   49.7560   31.0800   39.2700 S   0  0  0  0  0  0  0  0  0  0  0  0
   50.3730   32.1530   40.1270 O   0  0  0  0  0  0  0  0  0  0  0  0
   48.8050   30.2280   40.0580 O   0  0  0  0  0  0  0  0  0  0  0  0
   47.8620   35.4520   42.0510 O   0  0  0  0  0  0  0  0  0  0  0  0
   49.0830   35.7860   41.4860 C   0  0  0  0  0  0  0  0  0  0  0  0
   49.4820   37.0720   41.8050 F   0  0  0  0  0  0  0  0  0  0  0  0
   50.0200   34.8510   41.7900 F   0  0  0  0  0  0  0  0  0  0  0  0
   48.8870   35.7710   40.1070 F   0  0  0  0  0  0  0  0  0  0  0  0
  2  1  2  1  0  0  0
  2  3  1  0  0  0  0
  2 28  1  0  0  0  0
  3  6  1  0  0  0  0
  4 10  1  0  0  0  0
  4  9  1  0  0  0  0
  5  4  2  0  0  0  0
  6  5  1  0  0  0  0
  6  7  2  0  0  0  0
  7  8  1  0  0  0  0
  8  9  2  0  0  0  0
  8 12  1  0  0  0  0
 11  5  1  0  0  0  0
 13  2  1  0  0  0  0
 14 15  2  0  0  0  0
 14 13  1  0  0  0  0
 16 25  1  0  0  0  0
 17 16  1  0  0  0  0
 17 14  1  0  0  0  0
 18 17  2  0  0  0  0
 19 18  1  0  0  0  0
 20 22  2  0  0  0  0
 20 18  1  0  0  0  0
 21 20  1  0  0  0  0
 22 23  1  0  0  0  0
 23 16  2  0  0  0  0
 24 25  1  0  0  0  0
 25 27  2  0  0  0  0
 25 26  2  0  0  0  0
 29 31  1  0  0  0  0
 29 30  1  0  0  0  0
 29 28  1  0  0  0  0
 32 29  1  0  0  0  0
M  END
>  <minimizedAffinity>
-5.17439604

>  <minimizedRMSD>
2.60378051

$$$$
