
 OpenBabel03242521173D

 41 43  0  0  0  0  0  0  0  0999 V2000
   46.5880   32.6600   46.4970 C   0  0  0  0  0  0  0  0  0  0  0  0
   47.5130   33.0900   46.9630 H   0  0  0  0  0  0  0  0  0  0  0  0
   46.9150   31.7990   45.8720 H   0  0  0  0  0  0  0  0  0  0  0  0
   44.6070   35.4490   44.9610 C   0  0  0  0  0  0  0  0  0  0  0  0
   45.1810   35.4760   43.6740 C   0  0  0  0  0  0  0  0  0  0  0  0
   46.1950   34.5530   43.4120 C   0  0  0  0  0  0  0  0  0  0  0  0
   46.5670   33.6890   44.4060 N   0  0  0  0  0  0  0  0  0  0  0  0
   45.9940   33.7010   45.6100 C   0  0  0  0  0  0  0  0  0  0  0  0
   45.0000   34.5820   45.9150 N   0  0  0  0  0  0  0  0  0  0  0  0
   43.8240   36.1490   45.1900 H   0  0  0  0  0  0  0  0  0  0  0  0
   44.8430   36.1790   42.9370 H   0  0  0  0  0  0  0  0  0  0  0  0
   46.7880   34.5650   42.1170 N   0  0  0  0  0  0  0  0  0  0  0  0
   47.9760   35.2010   41.9730 C   0  0  0  0  0  0  0  0  0  0  0  0
   48.5650   35.2170   40.7080 C   0  0  0  0  0  0  0  0  0  0  0  0
   47.9150   34.5950   39.6920 C   0  0  0  0  0  0  0  0  0  0  0  0
   48.4570   34.6100   38.5290 O   0  0  0  0  0  0  0  0  0  0  0  0
   46.7300   33.9540   39.8170 N   0  0  0  0  0  0  0  0  0  0  0  0
   46.2120   33.9750   41.0680 C   0  0  0  0  0  0  0  0  0  0  0  0
   45.1200   33.4150   41.2990 O   0  0  0  0  0  0  0  0  0  0  0  0
   48.4800   35.6890   42.7780 H   0  0  0  0  0  0  0  0  0  0  0  0
   49.5190   35.7140   40.5230 H   0  0  0  0  0  0  0  0  0  0  0  0
   46.2250   33.4730   39.0370 H   0  0  0  0  0  0  0  0  0  0  0  0
   45.6060   32.2250   47.5650 C   0  0  0  0  0  0  0  0  0  0  0  0
   44.8870   33.0750   47.7550 H   0  0  0  0  0  0  0  0  0  0  0  0
   46.1360   32.0840   48.5290 H   0  0  0  0  0  0  0  0  0  0  0  0
   45.4560   29.8090   47.4910 C   0  0  0  0  0  0  0  0  0  0  0  0
   46.5870   29.7810   48.0520 O   0  0  0  0  0  0  0  0  0  0  0  0
   44.9050   31.0450   47.1450 N   0  0  0  0  0  0  0  0  0  0  0  0
   44.0170   31.0730   46.6000 H   0  0  0  0  0  0  0  0  0  0  0  0
   44.2860   28.0140   46.0950 C   0  0  0  0  0  0  0  0  0  0  0  0
   44.8280   28.5150   47.2600 C   0  0  0  0  0  0  0  0  0  0  0  0
   44.8150   27.7380   48.4250 C   0  0  0  0  0  0  0  0  0  0  0  0
   45.2170   28.0410   49.3960 H   0  0  0  0  0  0  0  0  0  0  0  0
   44.2580   26.4670   48.4120 C   0  0  0  0  0  0  0  0  0  0  0  0
   44.2170   25.8200   49.2780 H   0  0  0  0  0  0  0  0  0  0  0  0
   43.7190   25.9830   47.2370 C   0  0  0  0  0  3  0  0  0  0  0  0
   43.7290   26.7520   46.0700 C   0  0  0  0  0  3  0  0  0  0  0  0
   43.5770   30.1870   44.8530 H   0  0  0  0  0  0  0  0  0  0  0  0
   44.3770   29.0960   44.7230 S   0  0  0  0  0  0  0  0  0  0  0  0
   43.8150   28.3100   43.5500 O   0  0  0  0  0  0  0  0  0  0  0  0
   45.7890   29.4280   44.3650 O   0  0  0  0  0  0  0  0  0  0  0  0
  1  2  1  0  0  0  0
  1 23  1  0  0  0  0
  3  1  1  0  0  0  0
  4 10  1  0  0  0  0
  4  9  1  0  0  0  0
  5  4  2  0  0  0  0
  6  5  1  0  0  0  0
  6  7  2  0  0  0  0
  7  8  1  0  0  0  0
  8  9  2  0  0  0  0
  8  1  1  0  0  0  0
 11  5  1  0  0  0  0
 12  6  1  0  0  0  0
 13 12  1  0  0  0  0
 13 20  1  0  0  0  0
 14 13  2  0  0  0  0
 15 17  1  0  0  0  0
 15 14  1  0  0  0  0
 16 15  2  0  0  0  0
 17 18  1  0  0  0  0
 18 19  2  0  0  0  0
 18 12  1  0  0  0  0
 21 14  1  0  0  0  0
 22 17  1  0  0  0  0
 23 24  1  0  0  0  0
 23 25  1  0  0  0  0
 26 27  2  0  0  0  0
 28 26  1  0  0  0  0
 28 23  1  0  0  0  0
 29 28  1  0  0  0  0
 30 31  1  0  0  0  0
 31 26  1  0  0  0  0
 31 32  2  0  0  0  0
 32 33  1  0  0  0  0
 34 32  1  0  0  0  0
 34 35  1  0  0  0  0
 36 34  2  0  0  0  0
 37 30  2  0  0  0  0
 37 36  1  0  0  0  0
 39 38  1  0  0  0  0
 39 30  1  0  0  0  0
 40 39  2  0  0  0  0
 41 39  2  0  0  0  0
M  END
>  <minimizedAffinity>
-6.29251003

>  <minimizedRMSD>
1.77911162

$$$$
