
 OpenBabel03242519403D

 32 33  0  0  0  0  0  0  0  0999 V2000
   47.9720   32.8980   41.7790 O   0  0  0  0  0  0  0  0  0  0  0  0
   47.1300   34.1120   41.2990 P   0  0  2  0  0  0  0  0  0  0  0  0
   45.5320   33.9380   41.9010 O   0  0  0  0  0  0  0  0  0  0  0  0
   44.3870   35.9470   44.7120 C   0  0  0  0  0  0  0  0  0  0  0  0
   44.6560   35.5400   43.3860 C   0  0  0  0  0  0  0  0  0  0  0  0
   45.2830   34.2970   43.2080 C   0  0  0  0  0  0  0  0  0  0  0  0
   45.5940   33.5630   44.2950 N   0  0  0  0  0  0  0  0  0  0  0  0
   45.3230   33.9800   45.5520 C   0  0  0  0  0  0  0  0  0  0  0  0
   44.7240   35.1600   45.7730 N   0  0  0  0  0  0  0  0  0  0  0  0
   43.9050   36.9000   44.8380 H   0  0  0  0  0  0  0  0  0  0  0  0
   44.3690   36.1980   42.5730 H   0  0  0  0  0  0  0  0  0  0  0  0
   45.6180   33.3060   46.3580 H   0  0  0  0  0  0  0  0  0  0  0  0
   47.0830   34.1090   39.6450 O   0  0  0  0  0  0  0  0  0  0  0  0
   46.8840   33.0830   38.7760 C   0  0  0  0  0  0  0  0  0  0  0  0
   46.5940   33.4070   37.4950 O   0  0  0  0  0  0  0  0  0  0  0  0
   47.9860   30.9100   38.3900 C   0  0  0  0  0  0  0  0  0  0  0  0
   46.8410   31.6230   38.5470 C   0  0  0  0  0  0  0  0  0  0  0  0
   45.6420   30.9170   38.5590 C   0  0  0  0  0  0  0  0  0  0  0  0
   44.7350   31.5450   38.6910 H   0  0  0  0  0  0  0  0  0  0  0  0
   45.4040   29.5770   38.4380 C   0  0  0  0  0  0  0  0  0  0  0  0
   44.4060   29.1870   38.4680 H   0  0  0  0  0  0  0  0  0  0  0  0
   46.5540   28.8550   38.2810 C   0  0  0  0  0  3  0  0  0  0  0  0
   47.7500   29.5280   38.2650 C   0  0  0  0  0  3  0  0  0  0  0  0
   50.4030   30.3550   37.9280 H   0  0  0  0  0  0  0  0  0  0  0  0
   49.6080   31.4620   38.2870 S   0  0  0  0  0  0  0  0  0  0  0  0
   49.8730   32.5230   37.2520 O   0  0  0  0  0  0  0  0  0  0  0  0
   50.1060   31.8800   39.6410 O   0  0  0  0  0  0  0  0  0  0  0  0
   47.8120   35.4570   41.9810 O   0  0  0  0  0  0  0  0  0  0  0  0
   49.0500   35.7630   41.4360 C   0  0  0  0  0  0  0  0  0  0  0  0
   49.4790   37.0350   41.7740 F   0  0  0  0  0  0  0  0  0  0  0  0
   49.9560   34.8000   41.7420 F   0  0  0  0  0  0  0  0  0  0  0  0
   48.8720   35.7670   40.0540 F   0  0  0  0  0  0  0  0  0  0  0  0
  2  1  2  1  0  0  0
  2  3  1  0  0  0  0
  2 28  1  0  0  0  0
  3  6  1  0  0  0  0
  4 10  1  0  0  0  0
  4  9  1  0  0  0  0
  5  4  2  0  0  0  0
  6  5  1  0  0  0  0
  6  7  2  0  0  0  0
  7  8  1  0  0  0  0
  8  9  2  0  0  0  0
  8 12  1  0  0  0  0
 11  5  1  0  0  0  0
 13  2  1  0  0  0  0
 14 13  1  0  0  0  0
 15 14  2  0  0  0  0
 16 17  1  0  0  0  0
 17 18  2  0  0  0  0
 17 14  1  0  0  0  0
 18 19  1  0  0  0  0
 20 21  1  0  0  0  0
 20 18  1  0  0  0  0
 22 20  2  0  0  0  0
 23 22  1  0  0  0  0
 23 16  2  0  0  0  0
 24 25  1  0  0  0  0
 25 16  1  0  0  0  0
 25 27  2  0  0  0  0
 26 25  2  0  0  0  0
 29 31  1  0  0  0  0
 29 30  1  0  0  0  0
 29 28  1  0  0  0  0
 32 29  1  0  0  0  0
M  END
>  <minimizedAffinity>
-4.96935987

>  <minimizedRMSD>
0.715810418

$$$$
