
 OpenBabel03242519403D

 32 33  0  0  0  0  0  0  0  0999 V2000
   48.2180   32.9640   41.5210 O   0  0  0  0  0  0  0  0  0  0  0  0
   47.2210   34.1050   41.1780 P   0  0  2  0  0  0  0  0  0  0  0  0
   45.6920   33.7110   41.8510 O   0  0  0  0  0  0  0  0  0  0  0  0
   44.4120   35.8490   44.5050 C   0  0  0  0  0  0  0  0  0  0  0  0
   44.7190   35.3660   43.2120 C   0  0  0  0  0  0  0  0  0  0  0  0
   45.4080   34.1460   43.1280 C   0  0  0  0  0  0  0  0  0  0  0  0
   45.7390   33.5040   44.2660 N   0  0  0  0  0  0  0  0  0  0  0  0
   45.4310   33.9930   45.4880 C   0  0  0  0  0  0  0  0  0  0  0  0
   44.7730   35.1540   45.6200 N   0  0  0  0  0  0  0  0  0  0  0  0
   43.8830   36.7830   44.5590 H   0  0  0  0  0  0  0  0  0  0  0  0
   44.4110   35.9510   42.3540 H   0  0  0  0  0  0  0  0  0  0  0  0
   45.7470   33.3910   46.3420 H   0  0  0  0  0  0  0  0  0  0  0  0
   47.0720   34.2070   39.5330 O   0  0  0  0  0  0  0  0  0  0  0  0
   47.8100   33.6300   38.5480 C   0  0  0  0  0  0  0  0  0  0  0  0
   48.2500   34.4350   37.5550 O   0  0  0  0  0  0  0  0  0  0  0  0
   47.7010   31.2780   37.8110 C   0  0  0  0  0  0  0  0  0  0  0  0
   48.4330   32.4060   38.0000 C   0  0  0  0  0  0  0  0  0  0  0  0
   49.7620   32.3850   37.5880 C   0  0  0  0  0  0  0  0  0  0  0  0
   50.3160   33.3330   37.7640 H   0  0  0  0  0  0  0  0  0  0  0  0
   50.4910   31.3900   37.0020 C   0  0  0  0  0  0  0  0  0  0  0  0
   51.5210   31.5370   36.7420 H   0  0  0  0  0  0  0  0  0  0  0  0
   49.7570   30.2520   36.8080 C   0  0  0  0  0  3  0  0  0  0  0  0
   48.4440   30.2470   37.2060 C   0  0  0  0  0  3  0  0  0  0  0  0
   45.7930   29.6280   37.8420 H   0  0  0  0  0  0  0  0  0  0  0  0
   46.0700   30.9520   38.2370 S   0  0  0  0  0  0  0  0  0  0  0  0
   45.7510   31.0290   39.7070 O   0  0  0  0  0  0  0  0  0  0  0  0
   45.1380   31.8070   37.4280 O   0  0  0  0  0  0  0  0  0  0  0  0
   47.7940   35.4690   41.9190 O   0  0  0  0  0  0  0  0  0  0  0  0
   49.0600   35.8240   41.4800 C   0  0  0  0  0  0  0  0  0  0  0  0
   49.4630   37.0570   41.9640 F   0  0  0  0  0  0  0  0  0  0  0  0
   49.9510   34.8350   41.7440 F   0  0  0  0  0  0  0  0  0  0  0  0
   48.9630   35.9630   40.0970 F   0  0  0  0  0  0  0  0  0  0  0  0
  2  1  2  1  0  0  0
  2  3  1  0  0  0  0
  2 28  1  0  0  0  0
  3  6  1  0  0  0  0
  4 10  1  0  0  0  0
  4  9  1  0  0  0  0
  5  4  2  0  0  0  0
  6  5  1  0  0  0  0
  6  7  2  0  0  0  0
  7  8  1  0  0  0  0
  8  9  2  0  0  0  0
  8 12  1  0  0  0  0
 11  5  1  0  0  0  0
 13  2  1  0  0  0  0
 14 13  1  0  0  0  0
 15 14  2  0  0  0  0
 16 17  1  0  0  0  0
 16 25  1  0  0  0  0
 17 14  1  0  0  0  0
 18 19  1  0  0  0  0
 18 17  2  0  0  0  0
 20 18  1  0  0  0  0
 21 20  1  0  0  0  0
 22 20  2  0  0  0  0
 22 23  1  0  0  0  0
 23 16  2  0  0  0  0
 24 25  1  0  0  0  0
 25 26  2  0  0  0  0
 27 25  2  0  0  0  0
 29 31  1  0  0  0  0
 29 28  1  0  0  0  0
 29 30  1  0  0  0  0
 32 29  1  0  0  0  0
M  END
>  <minimizedAffinity>
-5.13622046

>  <minimizedRMSD>
2.16145039

$$$$
