
 OpenBabel03252501333D

 27 28  0  0  0  0  0  0  0  0999 V2000
   37.2140   27.8300   39.9510 C   0  0  0  0  0  0  0  0  0  0  0  0
   38.3040   28.4640   39.8110 O   0  0  0  0  0  0  0  0  0  0  0  0
   36.0730   28.6500   39.6650 N   0  0  0  0  0  0  0  0  0  0  0  0
   35.1020   28.3120   39.7400 H   0  0  0  0  0  0  0  0  0  0  0  0
   36.5370   29.9700   39.2750 C   0  0  0  0  0  0  0  0  0  0  0  0
   36.4800   31.1040   40.0590 C   0  0  0  0  0  0  0  0  0  0  0  0
   36.9770   32.2770   39.5040 C   0  0  0  0  0  0  0  0  0  0  0  0
   37.4750   32.2320   38.2600 N   0  0  0  0  0  0  0  0  0  0  0  0
   37.5150   31.0990   37.5190 C   0  0  0  0  0  0  0  0  0  0  0  0
   37.0480   29.9510   38.0160 N   0  0  0  0  0  0  0  0  0  0  0  0
   36.9210   33.1520   40.1370 H   0  0  0  0  0  0  0  0  0  0  0  0
   37.9450   31.2010   36.5270 H   0  0  0  0  0  0  0  0  0  0  0  0
   35.9220   30.9410   41.3440 N   0  0  0  0  0  0  0  0  0  0  0  0
   35.0900   30.3420   41.5120 H   0  0  0  0  0  0  0  0  0  0  0  0
   36.2540   31.3780   42.2440 H   0  0  0  0  0  0  0  0  0  0  0  0
   37.1110   25.9700   41.6490 C   0  0  0  0  0  0  0  0  0  0  0  0
   37.0210   26.4290   40.3510 C   0  0  0  0  0  0  0  0  0  0  0  0
   36.7340   25.5840   39.2910 C   0  0  0  0  0  0  0  0  0  0  0  0
   36.6520   25.8860   38.2680 H   0  0  0  0  0  0  0  0  0  0  0  0
   36.5260   24.2230   39.5300 C   0  0  0  0  0  0  0  0  0  0  0  0
   36.2960   23.5080   38.7300 H   0  0  0  0  0  0  0  0  0  0  0  0
   36.6200   23.7870   40.8260 C   0  0  0  0  0  3  0  0  0  0  0  0
   36.9070   24.6150   41.9020 C   0  0  0  0  0  3  0  0  0  0  0  0
   37.2000   26.6710   44.1450 H   0  0  0  0  0  0  0  0  0  0  0  0
   37.4790   27.1390   42.8870 S   0  0  0  0  0  0  0  0  0  0  0  0
   38.9070   27.5690   42.7500 O   0  0  0  0  0  0  0  0  0  0  0  0
   36.5870   28.3340   42.6370 O   0  0  0  0  0  0  0  0  0  0  0  0
  1 17  1  0  0  0  0
  2  1  2  0  0  0  0
  3  4  1  0  0  0  0
  3  1  1  0  0  0  0
  5  3  1  0  0  0  0
  5  6  1  0  0  0  0
  6 13  1  0  0  0  0
  7  6  2  0  0  0  0
  7 11  1  0  0  0  0
  8  7  1  0  0  0  0
  9 10  1  0  0  0  0
  9  8  2  0  0  0  0
 10  5  2  0  0  0  0
 12  9  1  0  0  0  0
 13 14  1  0  0  0  0
 13 15  1  0  0  0  0
 16 23  1  0  0  0  0
 16 25  1  0  0  0  0
 17 16  2  0  0  0  0
 18 20  2  0  0  0  0
 18 17  1  0  0  0  0
 19 18  1  0  0  0  0
 20 22  1  0  0  0  0
 21 20  1  0  0  0  0
 22 23  2  0  0  0  0
 25 24  1  0  0  0  0
 26 25  2  0  0  0  0
 27 25  2  0  0  0  0
M  END
>  <minimizedAffinity>
-5.25350428

$$$$

 OpenBabel03252501333D

 27 28  0  0  0  0  0  0  0  0999 V2000
   39.1810   30.2410   41.3120 C   0  0  0  0  0  0  0  0  0  0  0  0
   39.7370   30.2470   40.1720 O   0  0  0  0  0  0  0  0  0  0  0  0
   39.3200   31.5000   41.9840 N   0  0  0  0  0  0  0  0  0  0  0  0
   38.9450   31.6810   42.9280 H   0  0  0  0  0  0  0  0  0  0  0  0
   40.0490   32.4100   41.1200 C   0  0  0  0  0  0  0  0  0  0  0  0
   39.4860   33.3890   40.3260 C   0  0  0  0  0  0  0  0  0  0  0  0
   40.3560   34.1610   39.5680 C   0  0  0  0  0  0  0  0  0  0  0  0
   41.6710   33.9110   39.6540 N   0  0  0  0  0  0  0  0  0  0  0  0
   42.1890   32.9410   40.4440 C   0  0  0  0  0  0  0  0  0  0  0  0
   41.3860   32.1770   41.1890 N   0  0  0  0  0  0  0  0  0  0  0  0
   39.8910   34.9210   38.9540 H   0  0  0  0  0  0  0  0  0  0  0  0
   43.2700   32.8430   40.4200 H   0  0  0  0  0  0  0  0  0  0  0  0
   38.0800   33.4950   40.3810 N   0  0  0  0  0  0  0  0  0  0  0  0
   37.4650   32.6600   40.4170 H   0  0  0  0  0  0  0  0  0  0  0  0
   37.5080   34.3800   40.3890 H   0  0  0  0  0  0  0  0  0  0  0  0
   37.1360   28.8280   41.7240 C   0  0  0  0  0  0  0  0  0  0  0  0
   38.4570   29.1430   41.9660 C   0  0  0  0  0  0  0  0  0  0  0  0
   39.2290   28.4310   42.8700 C   0  0  0  0  0  0  0  0  0  0  0  0
   40.2550   28.6310   43.0970 H   0  0  0  0  0  0  0  0  0  0  0  0
   38.6640   27.3570   43.5640 C   0  0  0  0  0  0  0  0  0  0  0  0
   39.2270   26.7580   44.2920 H   0  0  0  0  0  0  0  0  0  0  0  0
   37.3500   27.0610   43.3100 C   0  0  0  0  0  3  0  0  0  0  0  0
   36.5590   27.7600   42.4090 C   0  0  0  0  0  3  0  0  0  0  0  0
   36.9430   29.8930   39.3670 H   0  0  0  0  0  0  0  0  0  0  0  0
   36.2800   29.8050   40.5630 S   0  0  0  0  0  0  0  0  0  0  0  0
   34.8900   29.2720   40.4000 O   0  0  0  0  0  0  0  0  0  0  0  0
   36.2000   31.1990   41.1430 O   0  0  0  0  0  0  0  0  0  0  0  0
  1 17  1  0  0  0  0
  1  3  1  0  0  0  0
  2  1  2  0  0  0  0
  3  4  1  0  0  0  0
  5 10  1  0  0  0  0
  5  3  1  0  0  0  0
  6 13  1  0  0  0  0
  6  5  2  0  0  0  0
  7  8  2  0  0  0  0
  7  6  1  0  0  0  0
  8  9  1  0  0  0  0
  9 10  2  0  0  0  0
 11  7  1  0  0  0  0
 12  9  1  0  0  0  0
 13 15  1  0  0  0  0
 13 14  1  0  0  0  0
 16 17  2  0  0  0  0
 16 23  1  0  0  0  0
 17 18  1  0  0  0  0
 18 19  1  0  0  0  0
 18 20  2  0  0  0  0
 20 21  1  0  0  0  0
 22 20  1  0  0  0  0
 23 22  2  0  0  0  0
 24 25  1  0  0  0  0
 25 27  2  0  0  0  0
 25 16  1  0  0  0  0
 26 25  2  0  0  0  0
M  END
>  <minimizedAffinity>
-5.15140915

$$$$

 OpenBabel03252501333D

 27 28  0  0  0  0  0  0  0  0999 V2000
   38.9690   30.2260   40.9420 C   0  0  0  0  0  0  0  0  0  0  0  0
   40.2280   30.3900   40.9290 O   0  0  0  0  0  0  0  0  0  0  0  0
   38.2840   31.2590   40.2220 N   0  0  0  0  0  0  0  0  0  0  0  0
   37.2570   31.3020   40.1360 H   0  0  0  0  0  0  0  0  0  0  0  0
   39.2690   32.1750   39.6750 C   0  0  0  0  0  0  0  0  0  0  0  0
   39.5910   33.4120   40.1950 C   0  0  0  0  0  0  0  0  0  0  0  0
   40.5640   34.1420   39.5240 C   0  0  0  0  0  0  0  0  0  0  0  0
   41.1230   33.6040   38.4300 N   0  0  0  0  0  0  0  0  0  0  0  0
   40.7820   32.3860   37.9470 C   0  0  0  0  0  0  0  0  0  0  0  0
   39.8510   31.6530   38.5630 N   0  0  0  0  0  0  0  0  0  0  0  0
   40.7980   35.1080   39.9500 H   0  0  0  0  0  0  0  0  0  0  0  0
   41.3110   32.0700   37.0530 H   0  0  0  0  0  0  0  0  0  0  0  0
   38.8910   33.7950   41.3580 N   0  0  0  0  0  0  0  0  0  0  0  0
   37.8780   33.6020   41.4810 H   0  0  0  0  0  0  0  0  0  0  0  0
   39.2800   34.2950   42.2000 H   0  0  0  0  0  0  0  0  0  0  0  0
   37.6800   28.0610   40.9120 C   0  0  0  0  0  0  0  0  0  0  0  0
   38.1990   29.1500   41.5810 C   0  0  0  0  0  0  0  0  0  0  0  0
   38.0310   29.3240   42.9450 C   0  0  0  0  0  0  0  0  0  0  0  0
   38.4100   30.1480   43.5130 H   0  0  0  0  0  0  0  0  0  0  0  0
   37.3160   28.3720   43.6790 C   0  0  0  0  0  0  0  0  0  0  0  0
   37.1510   28.4580   44.7610 H   0  0  0  0  0  0  0  0  0  0  0  0
   36.8090   27.2980   42.9960 C   0  0  0  0  0  3  0  0  0  0  0  0
   36.9650   27.1040   41.6310 C   0  0  0  0  0  3  0  0  0  0  0  0
   39.2170   28.4020   38.8500 H   0  0  0  0  0  0  0  0  0  0  0  0
   37.9650   27.9660   39.1960 S   0  0  0  0  0  0  0  0  0  0  0  0
   37.7070   26.5660   38.7310 O   0  0  0  0  0  0  0  0  0  0  0  0
   36.9630   28.8870   38.5380 O   0  0  0  0  0  0  0  0  0  0  0  0
  1 17  1  0  0  0  0
  2  1  2  0  0  0  0
  3  1  1  0  0  0  0
  4  3  1  0  0  0  0
  5  6  1  0  0  0  0
  5  3  1  0  0  0  0
  6 13  1  0  0  0  0
  7 11  1  0  0  0  0
  7  6  2  0  0  0  0
  8  7  1  0  0  0  0
  9  8  2  0  0  0  0
  9 10  1  0  0  0  0
 10  5  2  0  0  0  0
 12  9  1  0  0  0  0
 13 14  1  0  0  0  0
 13 15  1  0  0  0  0
 16 17  2  0  0  0  0
 16 23  1  0  0  0  0
 17 18  1  0  0  0  0
 18 19  1  0  0  0  0
 18 20  2  0  0  0  0
 20 21  1  0  0  0  0
 22 20  1  0  0  0  0
 23 22  2  0  0  0  0
 24 25  1  0  0  0  0
 25 16  1  0  0  0  0
 26 25  2  0  0  0  0
 27 25  2  0  0  0  0
M  END
>  <minimizedAffinity>
-4.9789505

$$$$

 OpenBabel03252501333D

 27 28  0  0  0  0  0  0  0  0999 V2000
   37.1760   27.9250   39.9860 C   0  0  0  0  0  0  0  0  0  0  0  0
   38.2650   28.5770   39.9700 O   0  0  0  0  0  0  0  0  0  0  0  0
   36.0600   28.7320   39.5900 N   0  0  0  0  0  0  0  0  0  0  0  0
   35.0920   28.3790   39.5560 H   0  0  0  0  0  0  0  0  0  0  0  0
   36.5410   30.0640   39.2670 C   0  0  0  0  0  0  0  0  0  0  0  0
   36.4730   31.1650   40.0980 C   0  0  0  0  0  0  0  0  0  0  0  0
   36.9900   32.3560   39.6050 C   0  0  0  0  0  0  0  0  0  0  0  0
   37.5170   32.3600   38.3710 N   0  0  0  0  0  0  0  0  0  0  0  0
   37.5660   31.2600   37.5840 C   0  0  0  0  0  0  0  0  0  0  0  0
   37.0800   30.0960   38.0200 N   0  0  0  0  0  0  0  0  0  0  0  0
   36.9250   33.2040   40.2730 H   0  0  0  0  0  0  0  0  0  0  0  0
   38.0190   31.4010   36.6070 H   0  0  0  0  0  0  0  0  0  0  0  0
   35.8840   30.9510   41.3610 N   0  0  0  0  0  0  0  0  0  0  0  0
   35.0450   30.3520   41.4850 H   0  0  0  0  0  0  0  0  0  0  0  0
   36.1990   31.3470   42.2860 H   0  0  0  0  0  0  0  0  0  0  0  0
   36.6240   25.5260   39.4500 C   0  0  0  0  0  0  0  0  0  0  0  0
   36.9650   26.5170   40.3470 C   0  0  0  0  0  0  0  0  0  0  0  0
   37.1410   26.2580   41.6970 C   0  0  0  0  0  0  0  0  0  0  0  0
   37.4050   26.9860   42.4350 H   0  0  0  0  0  0  0  0  0  0  0  0
   36.9710   24.9560   42.1780 C   0  0  0  0  0  0  0  0  0  0  0  0
   37.0960   24.6930   43.2360 H   0  0  0  0  0  0  0  0  0  0  0  0
   36.6310   23.9870   41.2700 C   0  0  0  0  0  3  0  0  0  0  0  0
   36.4500   24.2240   39.9150 C   0  0  0  0  0  3  0  0  0  0  0  0
   37.3020   26.9820   37.4130 H   0  0  0  0  0  0  0  0  0  0  0  0
   36.4330   25.9880   37.7810 S   0  0  0  0  0  0  0  0  0  0  0  0
   36.5650   24.7740   36.9150 O   0  0  0  0  0  0  0  0  0  0  0  0
   35.0300   26.5340   37.6390 O   0  0  0  0  0  0  0  0  0  0  0  0
  1 17  1  0  0  0  0
  2  1  2  0  0  0  0
  3  1  1  0  0  0  0
  4  3  1  0  0  0  0
  5  3  1  0  0  0  0
  5  6  1  0  0  0  0
  6 13  1  0  0  0  0
  7  6  2  0  0  0  0
  7 11  1  0  0  0  0
  8  7  1  0  0  0  0
  9 10  1  0  0  0  0
  9  8  2  0  0  0  0
 10  5  2  0  0  0  0
 12  9  1  0  0  0  0
 13 14  1  0  0  0  0
 13 15  1  0  0  0  0
 16 23  2  0  0  0  0
 16 17  1  0  0  0  0
 17 18  2  0  0  0  0
 18 20  1  0  0  0  0
 18 19  1  0  0  0  0
 20 21  1  0  0  0  0
 22 20  2  0  0  0  0
 23 22  1  0  0  0  0
 24 25  1  0  0  0  0
 25 16  1  0  0  0  0
 26 25  2  0  0  0  0
 27 25  2  0  0  0  0
M  END
>  <minimizedAffinity>
-4.94459486

$$$$

 OpenBabel03252501333D

 27 28  0  0  0  0  0  0  0  0999 V2000
   38.3710   31.3090   39.4300 C   0  0  0  0  0  0  0  0  0  0  0  0
   38.3460   32.5680   39.5900 O   0  0  0  0  0  0  0  0  0  0  0  0
   39.6860   30.8310   39.1190 N   0  0  0  0  0  0  0  0  0  0  0  0
   39.8990   29.8380   38.9410 H   0  0  0  0  0  0  0  0  0  0  0  0
   40.5990   31.9600   39.1070 C   0  0  0  0  0  0  0  0  0  0  0  0
   40.8670   32.7640   38.0180 C   0  0  0  0  0  0  0  0  0  0  0  0
   41.7740   33.7980   38.2080 C   0  0  0  0  0  0  0  0  0  0  0  0
   42.3230   33.9500   39.4230 N   0  0  0  0  0  0  0  0  0  0  0  0
   42.0360   33.1410   40.4700 C   0  0  0  0  0  0  0  0  0  0  0  0
   41.1700   32.1350   40.3280 N   0  0  0  0  0  0  0  0  0  0  0  0
   41.9690   34.4140   37.3400 H   0  0  0  0  0  0  0  0  0  0  0  0
   42.5500   33.3730   41.3980 H   0  0  0  0  0  0  0  0  0  0  0  0
   40.1820   32.4410   36.8280 N   0  0  0  0  0  0  0  0  0  0  0  0
   40.0340   31.4590   36.5260 H   0  0  0  0  0  0  0  0  0  0  0  0
   39.7590   33.1120   36.1340 H   0  0  0  0  0  0  0  0  0  0  0  0
   36.9810   29.5890   40.6380 C   0  0  0  0  0  0  0  0  0  0  0  0
   37.2550   30.3580   39.5270 C   0  0  0  0  0  0  0  0  0  0  0  0
   36.4800   30.2940   38.3800 C   0  0  0  0  0  0  0  0  0  0  0  0
   36.6460   30.8660   37.4910 H   0  0  0  0  0  0  0  0  0  0  0  0
   35.3830   29.4280   38.3360 C   0  0  0  0  0  0  0  0  0  0  0  0
   34.7350   29.3360   37.4550 H   0  0  0  0  0  0  0  0  0  0  0  0
   35.1290   28.6730   39.4500 C   0  0  0  0  0  3  0  0  0  0  0  0
   35.8910   28.7200   40.6080 C   0  0  0  0  0  3  0  0  0  0  0  0
   38.3420   31.0770   42.2710 H   0  0  0  0  0  0  0  0  0  0  0  0
   38.0370   29.7650   42.0130 S   0  0  0  0  0  0  0  0  0  0  0  0
   37.4210   29.0870   43.1980 O   0  0  0  0  0  0  0  0  0  0  0  0
   39.3270   29.0570   41.6650 O   0  0  0  0  0  0  0  0  0  0  0  0
  1 17  1  0  0  0  0
  1  2  2  0  0  0  0
  3  1  1  0  0  0  0
  4  3  1  0  0  0  0
  5  3  1  0  0  0  0
  5 10  1  0  0  0  0
  6  7  1  0  0  0  0
  6  5  2  0  0  0  0
  7  8  2  0  0  0  0
  8  9  1  0  0  0  0
  9 12  1  0  0  0  0
 10  9  2  0  0  0  0
 11  7  1  0  0  0  0
 13  6  1  0  0  0  0
 14 13  1  0  0  0  0
 15 13  1  0  0  0  0
 16 25  1  0  0  0  0
 17 16  2  0  0  0  0
 18 17  1  0  0  0  0
 19 18  1  0  0  0  0
 20 18  2  0  0  0  0
 20 22  1  0  0  0  0
 21 20  1  0  0  0  0
 22 23  2  0  0  0  0
 23 16  1  0  0  0  0
 25 24  1  0  0  0  0
 25 26  2  0  0  0  0
 27 25  2  0  0  0  0
M  END
>  <minimizedAffinity>
-4.92549372

$$$$

 OpenBabel03252501333D

 27 28  0  0  0  0  0  0  0  0999 V2000
   38.1980   28.1030   41.1840 C   0  0  0  0  0  0  0  0  0  0  0  0
   38.3320   28.5860   40.0180 O   0  0  0  0  0  0  0  0  0  0  0  0
   37.9660   29.1220   42.1660 N   0  0  0  0  0  0  0  0  0  0  0  0
   37.8470   28.9220   43.1700 H   0  0  0  0  0  0  0  0  0  0  0  0
   37.9360   30.4110   41.4980 C   0  0  0  0  0  0  0  0  0  0  0  0
   36.8220   30.9940   40.9280 C   0  0  0  0  0  0  0  0  0  0  0  0
   36.9970   32.2370   40.3350 C   0  0  0  0  0  0  0  0  0  0  0  0
   38.2210   32.7860   40.3540 N   0  0  0  0  0  0  0  0  0  0  0  0
   39.2930   32.1850   40.9230 C   0  0  0  0  0  0  0  0  0  0  0  0
   39.1660   30.9890   41.5040 N   0  0  0  0  0  0  0  0  0  0  0  0
   36.1110   32.6730   39.8950 H   0  0  0  0  0  0  0  0  0  0  0  0
   40.2260   32.7380   40.8690 H   0  0  0  0  0  0  0  0  0  0  0  0
   35.6240   30.2550   41.0170 N   0  0  0  0  0  0  0  0  0  0  0  0
   35.6000   29.2250   40.8880 H   0  0  0  0  0  0  0  0  0  0  0  0
   34.6580   30.6280   41.2130 H   0  0  0  0  0  0  0  0  0  0  0  0
   39.3840   26.0660   42.0760 C   0  0  0  0  0  0  0  0  0  0  0  0
   38.2530   26.6940   41.5970 C   0  0  0  0  0  0  0  0  0  0  0  0
   37.0440   26.0300   41.4620 C   0  0  0  0  0  0  0  0  0  0  0  0
   36.1380   26.4660   41.0970 H   0  0  0  0  0  0  0  0  0  0  0  0
   36.9550   24.6810   41.8200 C   0  0  0  0  0  0  0  0  0  0  0  0
   36.0240   24.1050   41.7340 H   0  0  0  0  0  0  0  0  0  0  0  0
   38.0900   24.0760   42.2930 C   0  0  0  0  0  3  0  0  0  0  0  0
   39.3090   24.7220   42.4360 C   0  0  0  0  0  3  0  0  0  0  0  0
   41.1210   27.6840   41.0300 H   0  0  0  0  0  0  0  0  0  0  0  0
   40.8380   27.0180   42.1940 S   0  0  0  0  0  0  0  0  0  0  0  0
   40.7250   27.9480   43.3620 O   0  0  0  0  0  0  0  0  0  0  0  0
   41.9710   26.0510   42.4530 O   0  0  0  0  0  0  0  0  0  0  0  0
  1 17  1  0  0  0  0
  1  3  1  0  0  0  0
  2  1  2  0  0  0  0
  3  4  1  0  0  0  0
  5 10  1  0  0  0  0
  5  3  1  0  0  0  0
  6 13  1  0  0  0  0
  6  5  2  0  0  0  0
  7  8  2  0  0  0  0
  7  6  1  0  0  0  0
  8  9  1  0  0  0  0
  9 10  2  0  0  0  0
 11  7  1  0  0  0  0
 12  9  1  0  0  0  0
 13 15  1  0  0  0  0
 14 13  1  0  0  0  0
 16 25  1  0  0  0  0
 16 23  1  0  0  0  0
 17 16  2  0  0  0  0
 18 17  1  0  0  0  0
 18 20  2  0  0  0  0
 19 18  1  0  0  0  0
 20 22  1  0  0  0  0
 21 20  1  0  0  0  0
 22 23  2  0  0  0  0
 24 25  1  0  0  0  0
 25 27  2  0  0  0  0
 25 26  2  0  0  0  0
M  END
>  <minimizedAffinity>
-4.92280245

$$$$

 OpenBabel03252501333D

 27 28  0  0  0  0  0  0  0  0999 V2000
   37.7630   30.3680   38.5160 C   0  0  0  0  0  0  0  0  0  0  0  0
   38.8740   29.7840   38.7000 O   0  0  0  0  0  0  0  0  0  0  0  0
   37.8580   31.7840   38.7150 N   0  0  0  0  0  0  0  0  0  0  0  0
   37.0540   32.4230   38.6240 H   0  0  0  0  0  0  0  0  0  0  0  0
   39.2330   32.1140   39.0500 C   0  0  0  0  0  0  0  0  0  0  0  0
   40.2410   32.3690   38.1430 C   0  0  0  0  0  0  0  0  0  0  0  0
   41.4930   32.6670   38.6630 C   0  0  0  0  0  0  0  0  0  0  0  0
   41.6410   32.6890   39.9960 N   0  0  0  0  0  0  0  0  0  0  0  0
   40.6280   32.4340   40.8570 C   0  0  0  0  0  0  0  0  0  0  0  0
   39.4090   32.1430   40.3970 N   0  0  0  0  0  0  0  0  0  0  0  0
   42.2670   32.8620   37.9330 H   0  0  0  0  0  0  0  0  0  0  0  0
   40.8840   32.4850   41.9120 H   0  0  0  0  0  0  0  0  0  0  0  0
   39.8790   32.2990   36.7810 N   0  0  0  0  0  0  0  0  0  0  0  0
   39.2410   31.5660   36.4170 H   0  0  0  0  0  0  0  0  0  0  0  0
   40.1910   32.9400   36.0050 H   0  0  0  0  0  0  0  0  0  0  0  0
   35.5120   29.3650   39.0460 C   0  0  0  0  0  0  0  0  0  0  0  0
   36.4730   29.7710   38.1430 C   0  0  0  0  0  0  0  0  0  0  0  0
   36.2950   29.6450   36.7750 C   0  0  0  0  0  0  0  0  0  0  0  0
   37.0050   29.9420   36.0310 H   0  0  0  0  0  0  0  0  0  0  0  0
   35.1100   29.0930   36.2800 C   0  0  0  0  0  0  0  0  0  0  0  0
   34.9150   28.9680   35.2070 H   0  0  0  0  0  0  0  0  0  0  0  0
   34.1690   28.6950   37.1940 C   0  0  0  0  0  3  0  0  0  0  0  0
   34.3250   28.8120   38.5670 C   0  0  0  0  0  3  0  0  0  0  0  0
   34.7960   29.2580   41.5370 H   0  0  0  0  0  0  0  0  0  0  0  0
   35.8630   29.5800   40.7390 S   0  0  0  0  0  0  0  0  0  0  0  0
   37.0880   28.7930   41.0910 O   0  0  0  0  0  0  0  0  0  0  0  0
   36.1570   31.0490   40.9400 O   0  0  0  0  0  0  0  0  0  0  0  0
  1  2  2  0  0  0  0
  1  3  1  0  0  0  0
  3  5  1  0  0  0  0
  4  3  1  0  0  0  0
  5 10  1  0  0  0  0
  6  7  1  0  0  0  0
  6  5  2  0  0  0  0
  7  8  2  0  0  0  0
  8  9  1  0  0  0  0
  9 12  1  0  0  0  0
 10  9  2  0  0  0  0
 11  7  1  0  0  0  0
 13  6  1  0  0  0  0
 14 13  1  0  0  0  0
 15 13  1  0  0  0  0
 16 25  1  0  0  0  0
 17  1  1  0  0  0  0
 17 16  2  0  0  0  0
 18 17  1  0  0  0  0
 19 18  1  0  0  0  0
 20 18  2  0  0  0  0
 20 22  1  0  0  0  0
 21 20  1  0  0  0  0
 22 23  2  0  0  0  0
 23 16  1  0  0  0  0
 25 27  2  0  0  0  0
 25 26  2  0  0  0  0
 25 24  1  0  0  0  0
M  END
>  <minimizedAffinity>
-4.89142132

$$$$

 OpenBabel03252501333D

 27 28  0  0  0  0  0  0  0  0999 V2000
   39.5300   30.7160   41.0730 C   0  0  0  0  0  0  0  0  0  0  0  0
   39.2900   29.6750   40.3880 O   0  0  0  0  0  0  0  0  0  0  0  0
   39.0870   30.5830   42.4290 N   0  0  0  0  0  0  0  0  0  0  0  0
   39.1840   31.3330   43.1310 H   0  0  0  0  0  0  0  0  0  0  0  0
   38.5110   29.2610   42.6020 C   0  0  0  0  0  0  0  0  0  0  0  0
   37.2040   28.9130   42.3270 C   0  0  0  0  0  0  0  0  0  0  0  0
   36.8440   27.5920   42.5590 C   0  0  0  0  0  0  0  0  0  0  0  0
   37.7770   26.7500   43.0270 N   0  0  0  0  0  0  0  0  0  0  0  0
   39.0510   27.1270   43.2860 C   0  0  0  0  0  0  0  0  0  0  0  0
   39.4370   28.3870   43.0770 N   0  0  0  0  0  0  0  0  0  0  0  0
   35.8150   27.3440   42.3370 H   0  0  0  0  0  0  0  0  0  0  0  0
   39.7050   26.3460   43.6630 H   0  0  0  0  0  0  0  0  0  0  0  0
   36.3800   29.9470   41.8360 N   0  0  0  0  0  0  0  0  0  0  0  0
   36.4260   30.9140   42.2100 H   0  0  0  0  0  0  0  0  0  0  0  0
   35.6540   29.8760   41.0740 H   0  0  0  0  0  0  0  0  0  0  0  0
   39.5210   33.0010   40.0090 C   0  0  0  0  0  0  0  0  0  0  0  0
   40.1760   31.9620   40.6370 C   0  0  0  0  0  0  0  0  0  0  0  0
   41.5320   32.0110   40.9160 C   0  0  0  0  0  0  0  0  0  0  0  0
   42.0900   31.2360   41.4000 H   0  0  0  0  0  0  0  0  0  0  0  0
   42.2710   33.1410   40.5550 C   0  0  0  0  0  0  0  0  0  0  0  0
   43.3470   33.2340   40.7510 H   0  0  0  0  0  0  0  0  0  0  0  0
   41.6010   34.1610   39.9310 C   0  0  0  0  0  3  0  0  0  0  0  0
   40.2450   34.1340   39.6430 C   0  0  0  0  0  3  0  0  0  0  0  0
   37.1980   32.0690   40.6920 H   0  0  0  0  0  0  0  0  0  0  0  0
   37.8140   32.8100   39.7170 S   0  0  0  0  0  0  0  0  0  0  0  0
   37.1880   34.1610   39.5550 O   0  0  0  0  0  0  0  0  0  0  0  0
   37.6770   32.0540   38.4150 O   0  0  0  0  0  0  0  0  0  0  0  0
  1  3  1  0  0  0  0
  2  1  2  0  0  0  0
  3  5  1  0  0  0  0
  3  4  1  0  0  0  0
  5 10  1  0  0  0  0
  6  7  1  0  0  0  0
  6  5  2  0  0  0  0
  7  8  2  0  0  0  0
  8  9  1  0  0  0  0
  9 12  1  0  0  0  0
 10  9  2  0  0  0  0
 11  7  1  0  0  0  0
 13 14  1  0  0  0  0
 13  6  1  0  0  0  0
 15 13  1  0  0  0  0
 16 17  1  0  0  0  0
 17 18  2  0  0  0  0
 17  1  1  0  0  0  0
 18 19  1  0  0  0  0
 20 21  1  0  0  0  0
 20 18  1  0  0  0  0
 22 20  2  0  0  0  0
 23 22  1  0  0  0  0
 23 16  2  0  0  0  0
 25 16  1  0  0  0  0
 25 24  1  0  0  0  0
 26 25  2  0  0  0  0
 27 25  2  0  0  0  0
M  END
>  <minimizedAffinity>
-4.8063755

$$$$

 OpenBabel03252501333D

 27 28  0  0  0  0  0  0  0  0999 V2000
   37.2970   28.0330   39.9800 C   0  0  0  0  0  0  0  0  0  0  0  0
   38.3720   28.5600   39.5580 O   0  0  0  0  0  0  0  0  0  0  0  0
   36.2250   28.9820   40.0530 N   0  0  0  0  0  0  0  0  0  0  0  0
   35.2800   28.7410   40.3870 H   0  0  0  0  0  0  0  0  0  0  0  0
   36.7120   30.2690   39.5890 C   0  0  0  0  0  0  0  0  0  0  0  0
   36.8690   30.6390   38.2690 C   0  0  0  0  0  0  0  0  0  0  0  0
   37.3500   31.9200   38.0290 C   0  0  0  0  0  0  0  0  0  0  0  0
   37.6250   32.7050   39.0810 N   0  0  0  0  0  0  0  0  0  0  0  0
   37.4580   32.3080   40.3650 C   0  0  0  0  0  0  0  0  0  0  0  0
   36.9990   31.0850   40.6380 N   0  0  0  0  0  0  0  0  0  0  0  0
   37.4650   32.1870   36.9870 H   0  0  0  0  0  0  0  0  0  0  0  0
   37.7200   33.0420   41.1210 H   0  0  0  0  0  0  0  0  0  0  0  0
   36.5190   29.6680   37.3090 N   0  0  0  0  0  0  0  0  0  0  0  0
   36.7460   28.6630   37.4320 H   0  0  0  0  0  0  0  0  0  0  0  0
   36.0130   29.8260   36.3970 H   0  0  0  0  0  0  0  0  0  0  0  0
   37.3270   26.1270   41.6280 C   0  0  0  0  0  0  0  0  0  0  0  0
   37.0620   26.6380   40.3750 C   0  0  0  0  0  0  0  0  0  0  0  0
   36.5390   25.8550   39.3580 C   0  0  0  0  0  0  0  0  0  0  0  0
   36.3150   26.1980   38.3690 H   0  0  0  0  0  0  0  0  0  0  0  0
   36.2660   24.5050   39.5970 C   0  0  0  0  0  0  0  0  0  0  0  0
   35.8520   23.8380   38.8300 H   0  0  0  0  0  0  0  0  0  0  0  0
   36.5370   24.0180   40.8490 C   0  0  0  0  0  3  0  0  0  0  0  0
   37.0600   24.7830   41.8810 C   0  0  0  0  0  3  0  0  0  0  0  0
   38.7070   28.2360   42.2430 H   0  0  0  0  0  0  0  0  0  0  0  0
   37.9850   27.2200   42.8140 S   0  0  0  0  0  0  0  0  0  0  0  0
   36.8760   27.7350   43.6790 O   0  0  0  0  0  0  0  0  0  0  0  0
   38.9330   26.4130   43.6720 O   0  0  0  0  0  0  0  0  0  0  0  0
  1  3  1  0  0  0  0
  1 17  1  0  0  0  0
  2  1  2  0  0  0  0
  3  4  1  0  0  0  0
  5  3  1  0  0  0  0
  5 10  1  0  0  0  0
  6  5  2  0  0  0  0
  7  6  1  0  0  0  0
  7  8  2  0  0  0  0
  8  9  1  0  0  0  0
  9 10  2  0  0  0  0
  9 12  1  0  0  0  0
 11  7  1  0  0  0  0
 13 14  1  0  0  0  0
 13  6  1  0  0  0  0
 15 13  1  0  0  0  0
 16 23  1  0  0  0  0
 16 25  1  0  0  0  0
 17 16  2  0  0  0  0
 18 20  2  0  0  0  0
 18 17  1  0  0  0  0
 19 18  1  0  0  0  0
 20 22  1  0  0  0  0
 21 20  1  0  0  0  0
 22 23  2  0  0  0  0
 24 25  1  0  0  0  0
 25 27  2  0  0  0  0
 25 26  2  0  0  0  0
M  END
>  <minimizedAffinity>
-4.74828529

$$$$
