
 OpenBabel03242520213D

 38 40  0  0  0  0  0  0  0  0999 V2000
   36.6550   27.2580   43.0960 C   0  0  0  0  0  0  0  0  0  0  0  0
   35.9740   26.8690   43.8900 H   0  0  0  0  0  0  0  0  0  0  0  0
   36.0980   27.5920   42.1940 H   0  0  0  0  0  0  0  0  0  0  0  0
   38.0160   24.1050   41.5190 C   0  0  0  0  0  0  0  0  0  0  0  0
   37.1150   25.1280   41.8910 C   0  0  0  0  0  0  0  0  0  0  0  0
   37.5760   26.1600   42.6940 C   0  0  0  0  0  0  0  0  0  0  0  0
   38.8880   26.1250   43.0820 N   0  0  0  0  0  0  0  0  0  0  0  0
   39.7120   25.1200   42.6970 C   0  0  0  0  0  0  0  0  0  0  0  0
   39.2820   24.1250   41.9260 N   0  0  0  0  0  0  0  0  0  0  0  0
   36.0890   25.0730   41.5360 H   0  0  0  0  0  0  0  0  0  0  0  0
   40.7500   25.0720   42.9900 H   0  0  0  0  0  0  0  0  0  0  0  0
   37.5060   22.9980   40.6630 C   0  0  0  0  0  0  0  0  0  0  0  0
   37.9290   23.1750   39.1670 C   0  0  0  0  0  0  0  0  0  0  0  0
   38.3280   22.0380   40.0180 C   0  0  0  0  0  0  0  0  0  0  0  0
   36.4250   22.8260   40.8180 H   0  0  0  0  0  0  0  0  0  0  0  0
   38.6520   23.9720   38.9360 H   0  0  0  0  0  0  0  0  0  0  0  0
   37.0960   22.9840   38.4540 H   0  0  0  0  0  0  0  0  0  0  0  0
   37.9170   21.0030   39.8500 H   0  0  0  0  0  0  0  0  0  0  0  0
   39.4210   21.9890   40.2750 H   0  0  0  0  0  0  0  0  0  0  0  0
   37.4250   28.4250   43.6640 C   0  0  0  0  0  0  0  0  0  0  0  0
   37.1600   28.5370   44.7110 H   0  0  0  0  0  0  0  0  0  0  0  0
   38.5200   28.1590   43.5970 H   0  0  0  0  0  0  0  0  0  0  0  0
   38.1850   29.8000   41.8230 C   0  0  0  0  0  0  0  0  0  0  0  0
   39.2290   29.1510   41.5760 O   0  0  0  0  0  0  0  0  0  0  0  0
   37.2420   29.6240   42.8610 N   0  0  0  0  0  0  0  0  0  0  0  0
   36.4830   30.2730   43.0490 H   0  0  0  0  0  0  0  0  0  0  0  0
   37.0740   31.0310   39.8140 C   0  0  0  0  0  0  0  0  0  0  0  0
   37.8900   30.9220   40.8940 C   0  0  0  0  0  0  0  0  0  0  0  0
   38.6540   32.0220   41.3030 C   0  0  0  0  0  0  0  0  0  0  0  0
   39.3560   32.1070   42.1440 H   0  0  0  0  0  0  0  0  0  0  0  0
   38.5880   33.2330   40.6130 C   0  0  0  0  0  0  0  0  0  0  0  0
   39.1430   34.1240   40.8640 H   0  0  0  0  0  0  0  0  0  0  0  0
   37.7510   33.3100   39.5200 C   0  0  0  0  0  3  0  0  0  0  0  0
   37.0020   32.2190   39.1260 C   0  0  0  0  0  3  0  0  0  0  0  0
   37.0360   28.4640   39.4090 H   0  0  0  0  0  0  0  0  0  0  0  0
   36.2200   29.5410   39.4840 S   0  0  0  0  0  0  0  0  0  0  0  0
   35.5620   29.6940   38.1310 O   0  0  0  0  0  0  0  0  0  0  0  0
   35.1080   29.3420   40.4710 O   0  0  0  0  0  0  0  0  0  0  0  0
  1 20  1  0  0  0  0
  1  2  1  0  0  0  0
  3  1  1  0  0  0  0
  4  5  2  0  0  0  0
  4  9  1  0  0  0  0
  5  6  1  0  0  0  0
  6  7  2  0  0  0  0
  6  1  1  0  0  0  0
  8 11  1  0  0  0  0
  8  7  1  0  0  0  0
  9  8  2  0  0  0  0
 10  5  1  0  0  0  0
 12 15  1  0  0  0  0
 12  4  1  0  0  0  0
 13 14  1  0  0  0  0
 13 12  1  0  0  0  0
 14 19  1  0  0  0  0
 14 12  1  0  0  0  0
 16 13  1  0  0  0  0
 17 13  1  0  0  0  0
 18 14  1  0  0  0  0
 20 21  1  0  0  0  0
 22 20  1  0  0  0  0
 23 25  1  0  0  0  0
 24 23  2  0  0  0  0
 25 26  1  0  0  0  0
 25 20  1  0  0  0  0
 27 28  1  0  0  0  0
 28 29  2  0  0  0  0
 28 23  1  0  0  0  0
 29 30  1  0  0  0  0
 31 32  1  0  0  0  0
 31 29  1  0  0  0  0
 33 31  2  0  0  0  0
 34 33  1  0  0  0  0
 34 27  2  0  0  0  0
 35 36  1  0  0  0  0
 36 27  1  0  0  0  0
 36 38  2  0  0  0  0
 37 36  2  0  0  0  0
M  END
>  <minimizedAffinity>
-5.51118088

$$$$

 OpenBabel03242520213D

 38 40  0  0  0  0  0  0  0  0999 V2000
   36.6030   27.3020   43.1180 C   0  0  0  0  0  0  0  0  0  0  0  0
   35.9420   26.9660   43.9530 H   0  0  0  0  0  0  0  0  0  0  0  0
   36.0200   27.6580   42.2400 H   0  0  0  0  0  0  0  0  0  0  0  0
   39.5570   25.0180   42.5380 C   0  0  0  0  0  0  0  0  0  0  0  0
   38.7960   26.1350   42.9510 C   0  0  0  0  0  0  0  0  0  0  0  0
   37.4340   26.1450   42.6880 C   0  0  0  0  0  0  0  0  0  0  0  0
   36.9050   25.0630   42.0380 N   0  0  0  0  0  0  0  0  0  0  0  0
   37.6790   24.0170   41.6620 C   0  0  0  0  0  0  0  0  0  0  0  0
   38.9860   23.9940   41.9100 N   0  0  0  0  0  0  0  0  0  0  0  0
   39.3020   26.9500   43.4620 H   0  0  0  0  0  0  0  0  0  0  0  0
   37.2840   23.1530   41.1490 H   0  0  0  0  0  0  0  0  0  0  0  0
   41.0190   25.0230   42.8200 C   0  0  0  0  0  0  0  0  0  0  0  0
   41.8540   25.4390   41.5640 C   0  0  0  0  0  0  0  0  0  0  0  0
   41.8300   26.1870   42.8350 C   0  0  0  0  0  0  0  0  0  0  0  0
   41.3460   24.0820   43.2990 H   0  0  0  0  0  0  0  0  0  0  0  0
   41.3010   25.8150   40.6890 H   0  0  0  0  0  0  0  0  0  0  0  0
   42.7410   24.7880   41.3960 H   0  0  0  0  0  0  0  0  0  0  0  0
   42.7230   26.2140   43.5210 H   0  0  0  0  0  0  0  0  0  0  0  0
   41.3410   27.1980   42.7890 H   0  0  0  0  0  0  0  0  0  0  0  0
   37.4710   28.4280   43.6260 C   0  0  0  0  0  0  0  0  0  0  0  0
   37.2930   28.5480   44.6910 H   0  0  0  0  0  0  0  0  0  0  0  0
   38.5430   28.1090   43.4750 H   0  0  0  0  0  0  0  0  0  0  0  0
   38.2650   29.8640   41.8480 C   0  0  0  0  0  0  0  0  0  0  0  0
   39.3370   29.2510   41.6310 O   0  0  0  0  0  0  0  0  0  0  0  0
   37.2850   29.6380   42.8410 N   0  0  0  0  0  0  0  0  0  0  0  0
   36.5010   30.2610   43.0100 H   0  0  0  0  0  0  0  0  0  0  0  0
   37.1510   31.1250   39.8590 C   0  0  0  0  0  0  0  0  0  0  0  0
   37.9760   30.9970   40.9300 C   0  0  0  0  0  0  0  0  0  0  0  0
   38.7570   32.0840   41.3410 C   0  0  0  0  0  0  0  0  0  0  0  0
   39.4680   32.1530   42.1750 H   0  0  0  0  0  0  0  0  0  0  0  0
   38.7000   33.3020   40.6610 C   0  0  0  0  0  0  0  0  0  0  0  0
   39.2690   34.1840   40.9130 H   0  0  0  0  0  0  0  0  0  0  0  0
   37.8540   33.3980   39.5770 C   0  0  0  0  0  3  0  0  0  0  0  0
   37.0870   32.3190   39.1810 C   0  0  0  0  0  3  0  0  0  0  0  0
   37.0720   28.5560   39.4730 H   0  0  0  0  0  0  0  0  0  0  0  0
   36.2750   29.6480   39.5250 S   0  0  0  0  0  0  0  0  0  0  0  0
   35.6430   29.8040   38.1600 O   0  0  0  0  0  0  0  0  0  0  0  0
   35.1430   29.4790   40.4940 O   0  0  0  0  0  0  0  0  0  0  0  0
  1 20  1  0  0  0  0
  1  2  1  0  0  0  0
  3  1  1  0  0  0  0
  4 12  1  0  0  0  0
  4  5  1  0  0  0  0
  5 10  1  0  0  0  0
  6  5  2  0  0  0  0
  6  1  1  0  0  0  0
  7  6  1  0  0  0  0
  8  9  1  0  0  0  0
  8  7  2  0  0  0  0
  9  4  2  0  0  0  0
 11  8  1  0  0  0  0
 12 14  1  0  0  0  0
 12 15  1  0  0  0  0
 13 12  1  0  0  0  0
 13 14  1  0  0  0  0
 14 18  1  0  0  0  0
 16 13  1  0  0  0  0
 17 13  1  0  0  0  0
 19 14  1  0  0  0  0
 20 21  1  0  0  0  0
 22 20  1  0  0  0  0
 23 25  1  0  0  0  0
 24 23  2  0  0  0  0
 25 26  1  0  0  0  0
 25 20  1  0  0  0  0
 27 28  1  0  0  0  0
 28 29  2  0  0  0  0
 28 23  1  0  0  0  0
 29 30  1  0  0  0  0
 31 32  1  0  0  0  0
 31 29  1  0  0  0  0
 33 31  2  0  0  0  0
 34 33  1  0  0  0  0
 34 27  2  0  0  0  0
 35 36  1  0  0  0  0
 36 27  1  0  0  0  0
 36 38  2  0  0  0  0
 37 36  2  0  0  0  0
M  END
>  <minimizedAffinity>
-5.43191528

$$$$

 OpenBabel03242520213D

 38 40  0  0  0  0  0  0  0  0999 V2000
   37.4010   28.2630   43.5120 C   0  0  0  0  0  0  0  0  0  0  0  0
   37.5990   28.1700   44.6070 H   0  0  0  0  0  0  0  0  0  0  0  0
   36.3160   28.3610   43.2900 H   0  0  0  0  0  0  0  0  0  0  0  0
   37.5160   24.9840   41.6370 C   0  0  0  0  0  0  0  0  0  0  0  0
   37.0080   26.1390   42.2730 C   0  0  0  0  0  0  0  0  0  0  0  0
   37.9030   27.0310   42.8430 C   0  0  0  0  0  0  0  0  0  0  0  0
   39.2370   26.7380   42.7530 N   0  0  0  0  0  0  0  0  0  0  0  0
   39.6730   25.6160   42.1320 C   0  0  0  0  0  0  0  0  0  0  0  0
   38.8240   24.7520   41.5810 N   0  0  0  0  0  0  0  0  0  0  0  0
   35.9320   26.2910   42.2960 H   0  0  0  0  0  0  0  0  0  0  0  0
   40.7200   25.3630   42.0490 H   0  0  0  0  0  0  0  0  0  0  0  0
   36.5440   24.0290   41.0360 C   0  0  0  0  0  0  0  0  0  0  0  0
   36.1880   24.4090   39.5610 C   0  0  0  0  0  0  0  0  0  0  0  0
   36.8410   23.1490   39.9630 C   0  0  0  0  0  0  0  0  0  0  0  0
   35.6700   23.8680   41.6930 H   0  0  0  0  0  0  0  0  0  0  0  0
   36.7760   25.2110   39.0880 H   0  0  0  0  0  0  0  0  0  0  0  0
   35.0970   24.3490   39.3470 H   0  0  0  0  0  0  0  0  0  0  0  0
   36.3020   22.1620   39.9100 H   0  0  0  0  0  0  0  0  0  0  0  0
   37.9070   23.0320   39.6280 H   0  0  0  0  0  0  0  0  0  0  0  0
   38.1240   29.4850   43.0020 C   0  0  0  0  0  0  0  0  0  0  0  0
   37.6980   30.3620   43.4800 H   0  0  0  0  0  0  0  0  0  0  0  0
   39.2010   29.3880   43.3260 H   0  0  0  0  0  0  0  0  0  0  0  0
   37.1140   30.3210   40.9690 C   0  0  0  0  0  0  0  0  0  0  0  0
   36.1310   30.8780   41.5110 O   0  0  0  0  0  0  0  0  0  0  0  0
   38.1320   29.5310   41.5490 N   0  0  0  0  0  0  0  0  0  0  0  0
   38.8290   29.0250   41.0100 H   0  0  0  0  0  0  0  0  0  0  0  0
   37.8650   31.4480   38.7440 C   0  0  0  0  0  0  0  0  0  0  0  0
   37.2330   30.5150   39.5000 C   0  0  0  0  0  0  0  0  0  0  0  0
   36.5200   29.4830   38.8780 C   0  0  0  0  0  0  0  0  0  0  0  0
   35.9570   28.6550   39.3320 H   0  0  0  0  0  0  0  0  0  0  0  0
   36.4480   29.4010   37.4870 C   0  0  0  0  0  0  0  0  0  0  0  0
   35.9200   28.6400   36.9330 H   0  0  0  0  0  0  0  0  0  0  0  0
   37.1000   30.3660   36.7480 C   0  0  0  0  0  3  0  0  0  0  0  0
   37.8010   31.3790   37.3720 C   0  0  0  0  0  3  0  0  0  0  0  0
   38.9850   32.1940   40.9680 H   0  0  0  0  0  0  0  0  0  0  0  0
   38.6890   32.6390   39.7250 S   0  0  0  0  0  0  0  0  0  0  0  0
   37.7500   33.8130   39.8850 O   0  0  0  0  0  0  0  0  0  0  0  0
   39.8980   33.1650   39.0080 O   0  0  0  0  0  0  0  0  0  0  0  0
  1  2  1  0  0  0  0
  3  1  1  0  0  0  0
  4  5  1  0  0  0  0
  5 10  1  0  0  0  0
  5  6  2  0  0  0  0
  6  1  1  0  0  0  0
  7  6  1  0  0  0  0
  8  7  2  0  0  0  0
  9  4  2  0  0  0  0
  9  8  1  0  0  0  0
 11  8  1  0  0  0  0
 12  4  1  0  0  0  0
 12 15  1  0  0  0  0
 13 14  1  0  0  0  0
 13 12  1  0  0  0  0
 14 12  1  0  0  0  0
 16 13  1  0  0  0  0
 17 13  1  0  0  0  0
 18 14  1  0  0  0  0
 19 14  1  0  0  0  0
 20 22  1  0  0  0  0
 20 21  1  0  0  0  0
 20  1  1  0  0  0  0
 23 24  2  0  0  0  0
 23 25  1  0  0  0  0
 25 20  1  0  0  0  0
 26 25  1  0  0  0  0
 27 28  1  0  0  0  0
 27 36  1  0  0  0  0
 28 23  1  0  0  0  0
 29 30  1  0  0  0  0
 29 28  2  0  0  0  0
 31 29  1  0  0  0  0
 32 31  1  0  0  0  0
 33 34  1  0  0  0  0
 33 31  2  0  0  0  0
 34 27  2  0  0  0  0
 36 37  2  0  0  0  0
 36 35  1  0  0  0  0
 38 36  2  0  0  0  0
M  END
>  <minimizedAffinity>
-5.30241346

$$$$

 OpenBabel03242520213D

 38 40  0  0  0  0  0  0  0  0999 V2000
   35.9200   30.3980   41.1040 C   0  0  0  0  0  0  0  0  0  0  0  0
   34.9300   30.8870   40.9420 H   0  0  0  0  0  0  0  0  0  0  0  0
   36.3010   30.5550   42.1360 H   0  0  0  0  0  0  0  0  0  0  0  0
   38.6400   32.5730   39.6370 C   0  0  0  0  0  0  0  0  0  0  0  0
   37.7170   32.0330   40.5620 C   0  0  0  0  0  0  0  0  0  0  0  0
   36.8960   30.9940   40.1510 C   0  0  0  0  0  0  0  0  0  0  0  0
   37.0300   30.5490   38.8640 N   0  0  0  0  0  0  0  0  0  0  0  0
   37.9310   31.1010   38.0160 C   0  0  0  0  0  0  0  0  0  0  0  0
   38.7250   32.0980   38.3980 N   0  0  0  0  0  0  0  0  0  0  0  0
   37.6800   32.4510   41.5650 H   0  0  0  0  0  0  0  0  0  0  0  0
   38.0550   30.7660   36.9970 H   0  0  0  0  0  0  0  0  0  0  0  0
   39.5100   33.6940   40.0880 C   0  0  0  0  0  0  0  0  0  0  0  0
   40.9150   33.1900   40.5550 C   0  0  0  0  0  0  0  0  0  0  0  0
   40.6920   34.1100   39.4230 C   0  0  0  0  0  0  0  0  0  0  0  0
   38.9920   34.3480   40.8130 H   0  0  0  0  0  0  0  0  0  0  0  0
   41.1630   32.1340   40.3690 H   0  0  0  0  0  0  0  0  0  0  0  0
   41.2520   33.6590   41.5070 H   0  0  0  0  0  0  0  0  0  0  0  0
   40.9880   35.1950   39.4770 H   0  0  0  0  0  0  0  0  0  0  0  0
   40.9290   33.6900   38.4070 H   0  0  0  0  0  0  0  0  0  0  0  0
   35.7620   28.9170   40.8540 C   0  0  0  0  0  0  0  0  0  0  0  0
   34.8930   28.5660   41.4030 H   0  0  0  0  0  0  0  0  0  0  0  0
   35.5640   28.7900   39.7500 H   0  0  0  0  0  0  0  0  0  0  0  0
   37.0130   27.5160   42.3800 C   0  0  0  0  0  0  0  0  0  0  0  0
   36.1890   27.5520   43.3230 O   0  0  0  0  0  0  0  0  0  0  0  0
   36.9910   28.1950   41.1400 N   0  0  0  0  0  0  0  0  0  0  0  0
   37.7650   28.1910   40.4810 H   0  0  0  0  0  0  0  0  0  0  0  0
   38.4620   25.3580   42.2110 C   0  0  0  0  0  0  0  0  0  0  0  0
   38.1910   26.6340   42.5880 C   0  0  0  0  0  0  0  0  0  0  0  0
   39.1370   27.3580   43.3230 C   0  0  0  0  0  0  0  0  0  0  0  0
   39.0830   28.3870   43.7040 H   0  0  0  0  0  0  0  0  0  0  0  0
   40.3590   26.7830   43.6780 C   0  0  0  0  0  0  0  0  0  0  0  0
   41.1380   27.2730   44.2420 H   0  0  0  0  0  0  0  0  0  0  0  0
   40.6020   25.4860   43.2810 C   0  0  0  0  0  3  0  0  0  0  0  0
   39.6620   24.7810   42.5550 C   0  0  0  0  0  3  0  0  0  0  0  0
   35.9540   24.7340   41.9420 H   0  0  0  0  0  0  0  0  0  0  0  0
   37.1450   24.6470   41.3070 S   0  0  0  0  0  0  0  0  0  0  0  0
   37.4570   23.1760   41.1450 O   0  0  0  0  0  0  0  0  0  0  0  0
   37.0910   25.2190   39.9210 O   0  0  0  0  0  0  0  0  0  0  0  0
  1  3  1  0  0  0  0
  2  1  1  0  0  0  0
  4 12  1  0  0  0  0
  4  5  1  0  0  0  0
  5 10  1  0  0  0  0
  6  5  2  0  0  0  0
  6  1  1  0  0  0  0
  7  6  1  0  0  0  0
  8  9  1  0  0  0  0
  8  7  2  0  0  0  0
  9  4  2  0  0  0  0
 11  8  1  0  0  0  0
 12 13  1  0  0  0  0
 12 15  1  0  0  0  0
 13 17  1  0  0  0  0
 14 18  1  0  0  0  0
 14 12  1  0  0  0  0
 14 13  1  0  0  0  0
 16 13  1  0  0  0  0
 19 14  1  0  0  0  0
 20  1  1  0  0  0  0
 20 25  1  0  0  0  0
 20 21  1  0  0  0  0
 22 20  1  0  0  0  0
 23 28  1  0  0  0  0
 23 24  2  0  0  0  0
 25 23  1  0  0  0  0
 26 25  1  0  0  0  0
 27 34  2  0  0  0  0
 27 28  1  0  0  0  0
 28 29  2  0  0  0  0
 29 31  1  0  0  0  0
 29 30  1  0  0  0  0
 31 32  1  0  0  0  0
 33 31  2  0  0  0  0
 34 33  1  0  0  0  0
 36 35  1  0  0  0  0
 36 27  1  0  0  0  0
 37 36  2  0  0  0  0
 38 36  2  0  0  0  0
M  END
>  <minimizedAffinity>
-5.27254915

$$$$

 OpenBabel03242520213D

 38 40  0  0  0  0  0  0  0  0999 V2000
   35.6820   28.7550   37.5940 C   0  0  0  0  0  0  0  0  0  0  0  0
   36.2990   27.8530   37.3640 H   0  0  0  0  0  0  0  0  0  0  0  0
   35.9050   29.6000   36.9070 H   0  0  0  0  0  0  0  0  0  0  0  0
   36.4540   28.6870   41.2920 C   0  0  0  0  0  0  0  0  0  0  0  0
   36.1510   28.2440   39.9850 C   0  0  0  0  0  0  0  0  0  0  0  0
   35.9930   29.1890   38.9830 C   0  0  0  0  0  0  0  0  0  0  0  0
   36.1420   30.5060   39.3240 N   0  0  0  0  0  0  0  0  0  0  0  0
   36.4320   30.8790   40.5930 C   0  0  0  0  0  0  0  0  0  0  0  0
   36.5870   29.9820   41.5630 N   0  0  0  0  0  0  0  0  0  0  0  0
   36.0510   27.1760   39.8070 H   0  0  0  0  0  0  0  0  0  0  0  0
   36.5550   31.9120   40.8850 H   0  0  0  0  0  0  0  0  0  0  0  0
   36.6140   27.6620   42.3610 C   0  0  0  0  0  0  0  0  0  0  0  0
   38.1180   27.3410   42.6410 C   0  0  0  0  0  0  0  0  0  0  0  0
   37.1890   27.9120   43.6340 C   0  0  0  0  0  0  0  0  0  0  0  0
   35.9810   26.7750   42.1750 H   0  0  0  0  0  0  0  0  0  0  0  0
   38.8720   27.9800   42.1570 H   0  0  0  0  0  0  0  0  0  0  0  0
   38.3210   26.2500   42.7320 H   0  0  0  0  0  0  0  0  0  0  0  0
   36.8260   27.3130   44.5160 H   0  0  0  0  0  0  0  0  0  0  0  0
   37.4040   28.9720   43.9410 H   0  0  0  0  0  0  0  0  0  0  0  0
   34.2260   28.3790   37.4610 C   0  0  0  0  0  0  0  0  0  0  0  0
   34.1580   27.4700   36.8700 H   0  0  0  0  0  0  0  0  0  0  0  0
   33.8480   28.1600   38.5020 H   0  0  0  0  0  0  0  0  0  0  0  0
   32.2380   29.1230   36.2990 C   0  0  0  0  0  0  0  0  0  0  0  0
   31.8270   27.9860   35.9680 O   0  0  0  0  0  0  0  0  0  0  0  0
   33.4340   29.4900   36.9580 N   0  0  0  0  0  0  0  0  0  0  0  0
   33.7360   30.4510   37.0840 H   0  0  0  0  0  0  0  0  0  0  0  0
   30.2370   30.7720   36.5430 C   0  0  0  0  0  0  0  0  0  0  0  0
   31.3440   30.2570   35.9490 C   0  0  0  0  0  0  0  0  0  0  0  0
   31.8290   30.8300   34.7670 C   0  0  0  0  0  0  0  0  0  0  0  0
   32.7010   30.5440   34.1630 H   0  0  0  0  0  0  0  0  0  0  0  0
   31.1870   31.9250   34.1870 C   0  0  0  0  0  0  0  0  0  0  0  0
   31.4960   32.4210   33.2800 H   0  0  0  0  0  0  0  0  0  0  0  0
   30.0640   32.4220   34.8150 C   0  0  0  0  0  3  0  0  0  0  0  0
   29.5950   31.8500   35.9810 C   0  0  0  0  0  3  0  0  0  0  0  0
   30.8760   29.3440   38.6190 H   0  0  0  0  0  0  0  0  0  0  0  0
   29.8110   29.9040   38.0010 S   0  0  0  0  0  0  0  0  0  0  0  0
   28.8880   28.7770   37.5960 O   0  0  0  0  0  0  0  0  0  0  0  0
   29.0180   30.7840   38.9230 O   0  0  0  0  0  0  0  0  0  0  0  0
  1  6  1  0  0  0  0
  2  1  1  0  0  0  0
  3  1  1  0  0  0  0
  4  9  1  0  0  0  0
  4 12  1  0  0  0  0
  5  4  2  0  0  0  0
  6  7  2  0  0  0  0
  6  5  1  0  0  0  0
  7  8  1  0  0  0  0
  8 11  1  0  0  0  0
  8  9  2  0  0  0  0
 10  5  1  0  0  0  0
 12 13  1  0  0  0  0
 12 14  1  0  0  0  0
 13 17  1  0  0  0  0
 13 14  1  0  0  0  0
 14 19  1  0  0  0  0
 14 18  1  0  0  0  0
 15 12  1  0  0  0  0
 16 13  1  0  0  0  0
 20  1  1  0  0  0  0
 20 22  1  0  0  0  0
 21 20  1  0  0  0  0
 23 25  1  0  0  0  0
 24 23  2  0  0  0  0
 25 26  1  0  0  0  0
 25 20  1  0  0  0  0
 27 36  1  0  0  0  0
 28 23  1  0  0  0  0
 28 27  2  0  0  0  0
 29 28  1  0  0  0  0
 30 29  1  0  0  0  0
 31 29  2  0  0  0  0
 31 33  1  0  0  0  0
 32 31  1  0  0  0  0
 33 34  2  0  0  0  0
 34 27  1  0  0  0  0
 36 35  1  0  0  0  0
 36 38  2  0  0  0  0
 37 36  2  0  0  0  0
M  END
>  <minimizedAffinity>
-5.09260798

$$$$

 OpenBabel03242520213D

 38 40  0  0  0  0  0  0  0  0999 V2000
   35.2450   28.9690   40.6130 C   0  0  0  0  0  0  0  0  0  0  0  0
   35.1540   27.8900   40.8810 H   0  0  0  0  0  0  0  0  0  0  0  0
   34.3590   29.5580   40.9370 H   0  0  0  0  0  0  0  0  0  0  0  0
   34.3790   28.9550   36.9340 C   0  0  0  0  0  0  0  0  0  0  0  0
   34.2440   28.8410   38.3360 C   0  0  0  0  0  0  0  0  0  0  0  0
   35.3560   29.0720   39.1310 C   0  0  0  0  0  0  0  0  0  0  0  0
   36.5270   29.4010   38.5050 N   0  0  0  0  0  0  0  0  0  0  0  0
   36.6040   29.4970   37.1560 C   0  0  0  0  0  0  0  0  0  0  0  0
   35.5440   29.2780   36.3820 N   0  0  0  0  0  0  0  0  0  0  0  0
   33.2730   28.5750   38.7470 H   0  0  0  0  0  0  0  0  0  0  0  0
   37.5170   29.7550   36.6400 H   0  0  0  0  0  0  0  0  0  0  0  0
   33.1790   28.6960   36.0910 C   0  0  0  0  0  0  0  0  0  0  0  0
   32.0270   29.7120   36.3870 C   0  0  0  0  0  0  0  0  0  0  0  0
   32.7020   29.5730   35.0830 C   0  0  0  0  0  0  0  0  0  0  0  0
   32.8760   27.6330   36.1260 H   0  0  0  0  0  0  0  0  0  0  0  0
   32.2590   30.5660   37.0420 H   0  0  0  0  0  0  0  0  0  0  0  0
   31.0300   29.2250   36.4760 H   0  0  0  0  0  0  0  0  0  0  0  0
   32.1750   29.1320   34.1900 H   0  0  0  0  0  0  0  0  0  0  0  0
   33.3340   30.4490   34.7720 H   0  0  0  0  0  0  0  0  0  0  0  0
   36.4790   29.5220   41.2840 C   0  0  0  0  0  0  0  0  0  0  0  0
   36.7910   30.4140   40.7500 H   0  0  0  0  0  0  0  0  0  0  0  0
   36.1790   29.8170   42.3310 H   0  0  0  0  0  0  0  0  0  0  0  0
   37.3690   27.6560   42.5420 C   0  0  0  0  0  0  0  0  0  0  0  0
   36.5680   27.7310   43.5030 O   0  0  0  0  0  0  0  0  0  0  0  0
   37.5100   28.5060   41.4200 N   0  0  0  0  0  0  0  0  0  0  0  0
   38.2670   28.4290   40.7470 H   0  0  0  0  0  0  0  0  0  0  0  0
   38.3140   25.2970   41.9680 C   0  0  0  0  0  0  0  0  0  0  0  0
   38.3140   26.5100   42.5800 C   0  0  0  0  0  0  0  0  0  0  0  0
   39.3630   26.8540   43.4400 C   0  0  0  0  0  0  0  0  0  0  0  0
   39.5200   27.7810   44.0100 H   0  0  0  0  0  0  0  0  0  0  0  0
   40.4120   25.9650   43.6800 C   0  0  0  0  0  0  0  0  0  0  0  0
   41.2540   26.1540   44.3270 H   0  0  0  0  0  0  0  0  0  0  0  0
   40.3810   24.7420   43.0440 C   0  0  0  0  0  3  0  0  0  0  0  0
   39.3410   24.4130   42.1970 C   0  0  0  0  0  3  0  0  0  0  0  0
   35.7450   25.3430   41.5740 H   0  0  0  0  0  0  0  0  0  0  0  0
   36.9120   25.0800   40.9440 S   0  0  0  0  0  0  0  0  0  0  0  0
   36.8790   23.6240   40.5360 O   0  0  0  0  0  0  0  0  0  0  0  0
   37.0620   25.8670   39.6750 O   0  0  0  0  0  0  0  0  0  0  0  0
  1  2  1  0  0  0  0
  1  3  1  0  0  0  0
  1 20  1  0  0  0  0
  4  5  1  0  0  0  0
  5 10  1  0  0  0  0
  5  6  2  0  0  0  0
  6  1  1  0  0  0  0
  7  6  1  0  0  0  0
  8  7  2  0  0  0  0
  9  4  2  0  0  0  0
  9  8  1  0  0  0  0
 11  8  1  0  0  0  0
 12 15  1  0  0  0  0
 12 13  1  0  0  0  0
 12  4  1  0  0  0  0
 13 17  1  0  0  0  0
 13 16  1  0  0  0  0
 14 12  1  0  0  0  0
 14 13  1  0  0  0  0
 18 14  1  0  0  0  0
 19 14  1  0  0  0  0
 20 25  1  0  0  0  0
 20 22  1  0  0  0  0
 21 20  1  0  0  0  0
 23 28  1  0  0  0  0
 23 24  2  0  0  0  0
 25 23  1  0  0  0  0
 26 25  1  0  0  0  0
 27 34  2  0  0  0  0
 27 28  1  0  0  0  0
 28 29  2  0  0  0  0
 29 31  1  0  0  0  0
 29 30  1  0  0  0  0
 31 32  1  0  0  0  0
 33 31  2  0  0  0  0
 34 33  1  0  0  0  0
 36 35  1  0  0  0  0
 36 27  1  0  0  0  0
 37 36  2  0  0  0  0
 38 36  2  0  0  0  0
M  END
>  <minimizedAffinity>
-5.06318188

$$$$

 OpenBabel03242520213D

 38 40  0  0  0  0  0  0  0  0999 V2000
   35.9310   30.6250   41.0020 C   0  0  0  0  0  0  0  0  0  0  0  0
   35.0200   31.2680   40.9560 H   0  0  0  0  0  0  0  0  0  0  0  0
   36.3900   30.6210   42.0140 H   0  0  0  0  0  0  0  0  0  0  0  0
   38.7390   32.6590   39.5000 C   0  0  0  0  0  0  0  0  0  0  0  0
   37.7960   32.1740   40.4330 C   0  0  0  0  0  0  0  0  0  0  0  0
   36.9300   31.1650   40.0390 C   0  0  0  0  0  0  0  0  0  0  0  0
   37.0420   30.6960   38.7580 N   0  0  0  0  0  0  0  0  0  0  0  0
   37.9640   31.1970   37.9010 C   0  0  0  0  0  0  0  0  0  0  0  0
   38.8010   32.1640   38.2670 N   0  0  0  0  0  0  0  0  0  0  0  0
   37.7790   32.6070   41.4300 H   0  0  0  0  0  0  0  0  0  0  0  0
   38.0710   30.8420   36.8870 H   0  0  0  0  0  0  0  0  0  0  0  0
   39.6580   33.7490   39.9330 C   0  0  0  0  0  0  0  0  0  0  0  0
   41.0260   33.1890   40.4430 C   0  0  0  0  0  0  0  0  0  0  0  0
   40.8720   34.0820   39.2790 C   0  0  0  0  0  0  0  0  0  0  0  0
   39.1610   34.4510   40.6270 H   0  0  0  0  0  0  0  0  0  0  0  0
   41.2230   32.1160   40.2950 H   0  0  0  0  0  0  0  0  0  0  0  0
   41.3690   33.6700   41.3870 H   0  0  0  0  0  0  0  0  0  0  0  0
   41.2230   35.1520   39.3060 H   0  0  0  0  0  0  0  0  0  0  0  0
   41.1050   33.6180   38.2820 H   0  0  0  0  0  0  0  0  0  0  0  0
   35.5350   29.2160   40.6310 C   0  0  0  0  0  0  0  0  0  0  0  0
   34.4520   29.1410   40.6720 H   0  0  0  0  0  0  0  0  0  0  0  0
   35.8670   29.0520   39.5650 H   0  0  0  0  0  0  0  0  0  0  0  0
   37.2020   27.4660   40.7440 C   0  0  0  0  0  0  0  0  0  0  0  0
   37.4410   27.4110   39.5150 O   0  0  0  0  0  0  0  0  0  0  0  0
   36.2410   28.2360   41.4390 N   0  0  0  0  0  0  0  0  0  0  0  0
   36.0440   28.1290   42.4300 H   0  0  0  0  0  0  0  0  0  0  0  0
   39.1280   26.8490   42.3860 C   0  0  0  0  0  0  0  0  0  0  0  0
   38.0480   26.5970   41.6030 C   0  0  0  0  0  0  0  0  0  0  0  0
   37.5450   25.2940   41.5110 C   0  0  0  0  0  0  0  0  0  0  0  0
   36.6890   24.9170   40.9330 H   0  0  0  0  0  0  0  0  0  0  0  0
   38.1420   24.2460   42.2150 C   0  0  0  0  0  0  0  0  0  0  0  0
   37.8150   23.2170   42.1960 H   0  0  0  0  0  0  0  0  0  0  0  0
   39.2380   24.5360   42.9990 C   0  0  0  0  0  3  0  0  0  0  0  0
   39.7250   25.8260   43.0820 C   0  0  0  0  0  3  0  0  0  0  0  0
   39.7270   29.0250   41.0960 H   0  0  0  0  0  0  0  0  0  0  0  0
   39.5840   28.5380   42.3500 S   0  0  0  0  0  0  0  0  0  0  0  0
   40.9320   28.6510   43.0270 O   0  0  0  0  0  0  0  0  0  0  0  0
   38.6320   29.3560   43.1720 O   0  0  0  0  0  0  0  0  0  0  0  0
  1  3  1  0  0  0  0
  2  1  1  0  0  0  0
  4 12  1  0  0  0  0
  4  5  1  0  0  0  0
  5 10  1  0  0  0  0
  6  5  2  0  0  0  0
  6  1  1  0  0  0  0
  7  6  1  0  0  0  0
  8  9  1  0  0  0  0
  8  7  2  0  0  0  0
  9  4  2  0  0  0  0
 11  8  1  0  0  0  0
 12 13  1  0  0  0  0
 12 15  1  0  0  0  0
 13 17  1  0  0  0  0
 14 18  1  0  0  0  0
 14 12  1  0  0  0  0
 14 13  1  0  0  0  0
 16 13  1  0  0  0  0
 19 14  1  0  0  0  0
 20 21  1  0  0  0  0
 20  1  1  0  0  0  0
 20 25  1  0  0  0  0
 22 20  1  0  0  0  0
 23 25  1  0  0  0  0
 23 28  1  0  0  0  0
 24 23  2  0  0  0  0
 25 26  1  0  0  0  0
 27 34  1  0  0  0  0
 28 27  2  0  0  0  0
 29 28  1  0  0  0  0
 29 31  2  0  0  0  0
 30 29  1  0  0  0  0
 31 33  1  0  0  0  0
 32 31  1  0  0  0  0
 33 34  2  0  0  0  0
 35 36  1  0  0  0  0
 36 27  1  0  0  0  0
 36 37  2  0  0  0  0
 36 38  2  0  0  0  0
M  END
>  <minimizedAffinity>
-5.04028034

$$$$

 OpenBabel03242520213D

 38 40  0  0  0  0  0  0  0  0999 V2000
   35.3450   28.6990   36.9710 C   0  0  0  0  0  0  0  0  0  0  0  0
   35.9130   27.7390   36.9240 H   0  0  0  0  0  0  0  0  0  0  0  0
   35.5990   29.3770   36.1270 H   0  0  0  0  0  0  0  0  0  0  0  0
   36.9510   31.0410   39.4640 C   0  0  0  0  0  0  0  0  0  0  0  0
   36.6440   30.4010   38.2420 C   0  0  0  0  0  0  0  0  0  0  0  0
   35.6980   29.3870   38.2430 C   0  0  0  0  0  0  0  0  0  0  0  0
   35.1140   29.0650   39.4380 N   0  0  0  0  0  0  0  0  0  0  0  0
   35.4440   29.7100   40.5820 C   0  0  0  0  0  0  0  0  0  0  0  0
   36.3490   30.6850   40.5950 N   0  0  0  0  0  0  0  0  0  0  0  0
   37.1590   30.7230   37.3410 H   0  0  0  0  0  0  0  0  0  0  0  0
   34.9960   29.4730   41.5360 H   0  0  0  0  0  0  0  0  0  0  0  0
   37.9750   32.1230   39.4510 C   0  0  0  0  0  0  0  0  0  0  0  0
   37.3240   33.5430   39.5110 C   0  0  0  0  0  0  0  0  0  0  0  0
   38.2320   32.9980   40.5380 C   0  0  0  0  0  0  0  0  0  0  0  0
   38.7050   31.9850   38.6320 H   0  0  0  0  0  0  0  0  0  0  0  0
   36.2410   33.5970   39.7030 H   0  0  0  0  0  0  0  0  0  0  0  0
   37.7750   34.2600   38.7890 H   0  0  0  0  0  0  0  0  0  0  0  0
   39.2760   33.3970   40.6730 H   0  0  0  0  0  0  0  0  0  0  0  0
   37.7600   32.7880   41.5360 H   0  0  0  0  0  0  0  0  0  0  0  0
   33.8710   28.3790   36.9240 C   0  0  0  0  0  0  0  0  0  0  0  0
   33.7250   27.5170   36.2810 H   0  0  0  0  0  0  0  0  0  0  0  0
   33.5620   28.1000   37.9740 H   0  0  0  0  0  0  0  0  0  0  0  0
   31.8560   29.2660   35.9180 C   0  0  0  0  0  0  0  0  0  0  0  0
   31.4070   28.1730   35.5000 O   0  0  0  0  0  0  0  0  0  0  0  0
   33.0850   29.5470   36.5600 N   0  0  0  0  0  0  0  0  0  0  0  0
   33.4130   30.4870   36.7620 H   0  0  0  0  0  0  0  0  0  0  0  0
   29.9720   30.9840   36.4520 C   0  0  0  0  0  0  0  0  0  0  0  0
   30.9750   30.4450   35.7120 C   0  0  0  0  0  0  0  0  0  0  0  0
   31.3350   31.0340   34.4940 C   0  0  0  0  0  0  0  0  0  0  0  0
   32.1130   30.7330   33.7790 H   0  0  0  0  0  0  0  0  0  0  0  0
   30.6730   32.1710   34.0280 C   0  0  0  0  0  0  0  0  0  0  0  0
   30.8890   32.6830   33.1020 H   0  0  0  0  0  0  0  0  0  0  0  0
   29.6590   32.6920   34.8030 C   0  0  0  0  0  3  0  0  0  0  0  0
   29.3130   32.1030   36.0030 C   0  0  0  0  0  3  0  0  0  0  0  0
   29.1480   28.8680   37.7170 H   0  0  0  0  0  0  0  0  0  0  0  0
   29.6920   30.0890   37.9290 S   0  0  0  0  0  0  0  0  0  0  0  0
   28.7010   30.8820   38.7510 O   0  0  0  0  0  0  0  0  0  0  0  0
   30.9490   30.0150   38.7450 O   0  0  0  0  0  0  0  0  0  0  0  0
  1  6  1  0  0  0  0
  2  1  1  0  0  0  0
  3  1  1  0  0  0  0
  4  9  1  0  0  0  0
  5  6  1  0  0  0  0
  5  4  2  0  0  0  0
  6  7  2  0  0  0  0
  7  8  1  0  0  0  0
  8  9  2  0  0  0  0
  8 11  1  0  0  0  0
 10  5  1  0  0  0  0
 12  4  1  0  0  0  0
 12 13  1  0  0  0  0
 12 14  1  0  0  0  0
 13 16  1  0  0  0  0
 13 14  1  0  0  0  0
 14 18  1  0  0  0  0
 14 19  1  0  0  0  0
 15 12  1  0  0  0  0
 17 13  1  0  0  0  0
 20  1  1  0  0  0  0
 20 22  1  0  0  0  0
 21 20  1  0  0  0  0
 23 25  1  0  0  0  0
 24 23  2  0  0  0  0
 25 26  1  0  0  0  0
 25 20  1  0  0  0  0
 27 36  1  0  0  0  0
 28 23  1  0  0  0  0
 28 27  2  0  0  0  0
 29 28  1  0  0  0  0
 30 29  1  0  0  0  0
 31 29  2  0  0  0  0
 31 33  1  0  0  0  0
 32 31  1  0  0  0  0
 33 34  2  0  0  0  0
 34 27  1  0  0  0  0
 35 36  1  0  0  0  0
 36 38  2  0  0  0  0
 36 37  2  0  0  0  0
M  END
>  <minimizedAffinity>
-4.90666294

$$$$

 OpenBabel03242520213D

 38 40  0  0  0  0  0  0  0  0999 V2000
   37.6270   28.6950   43.5190 C   0  0  0  0  0  0  0  0  0  0  0  0
   37.6610   28.7230   44.6340 H   0  0  0  0  0  0  0  0  0  0  0  0
   36.6340   28.9980   43.1220 H   0  0  0  0  0  0  0  0  0  0  0  0
   39.3870   25.4240   42.8230 C   0  0  0  0  0  0  0  0  0  0  0  0
   39.1630   26.7550   43.2420 C   0  0  0  0  0  0  0  0  0  0  0  0
   37.8980   27.2990   43.0800 C   0  0  0  0  0  0  0  0  0  0  0  0
   36.9330   26.5060   42.5190 N   0  0  0  0  0  0  0  0  0  0  0  0
   37.2000   25.2350   42.1340 C   0  0  0  0  0  0  0  0  0  0  0  0
   38.4090   24.7010   42.2850 N   0  0  0  0  0  0  0  0  0  0  0  0
   39.9900   27.3110   43.6770 H   0  0  0  0  0  0  0  0  0  0  0  0
   36.4550   24.5910   41.6910 H   0  0  0  0  0  0  0  0  0  0  0  0
   40.7520   24.8550   42.9960 C   0  0  0  0  0  0  0  0  0  0  0  0
   41.7260   25.3200   41.8630 C   0  0  0  0  0  0  0  0  0  0  0  0
   41.9090   25.6200   43.2960 C   0  0  0  0  0  0  0  0  0  0  0  0
   40.7220   23.7620   43.1560 H   0  0  0  0  0  0  0  0  0  0  0  0
   41.3680   26.1020   41.1760 H   0  0  0  0  0  0  0  0  0  0  0  0
   42.3450   24.4910   41.4540 H   0  0  0  0  0  0  0  0  0  0  0  0
   42.7310   25.1400   43.8990 H   0  0  0  0  0  0  0  0  0  0  0  0
   41.7950   26.7010   43.5810 H   0  0  0  0  0  0  0  0  0  0  0  0
   38.6810   29.6390   42.9900 C   0  0  0  0  0  0  0  0  0  0  0  0
   38.9340   30.3470   43.7740 H   0  0  0  0  0  0  0  0  0  0  0  0
   39.5940   29.0160   42.7610 H   0  0  0  0  0  0  0  0  0  0  0  0
   38.9310   29.7550   40.5860 C   0  0  0  0  0  0  0  0  0  0  0  0
   39.9070   28.9730   40.5020 O   0  0  0  0  0  0  0  0  0  0  0  0
   38.2690   30.2460   41.7350 N   0  0  0  0  0  0  0  0  0  0  0  0
   37.5550   30.9680   41.7080 H   0  0  0  0  0  0  0  0  0  0  0  0
   38.4010   31.4550   38.6860 C   0  0  0  0  0  0  0  0  0  0  0  0
   38.3830   30.2410   39.2930 C   0  0  0  0  0  0  0  0  0  0  0  0
   37.7480   29.1610   38.6690 C   0  0  0  0  0  0  0  0  0  0  0  0
   37.6400   28.1230   39.0150 H   0  0  0  0  0  0  0  0  0  0  0  0
   37.1300   29.3150   37.4270 C   0  0  0  0  0  0  0  0  0  0  0  0
   36.6210   28.5340   36.8830 H   0  0  0  0  0  0  0  0  0  0  0  0
   37.1660   30.5610   36.8380 C   0  0  0  0  0  3  0  0  0  0  0  0
   37.7950   31.6200   37.4620 C   0  0  0  0  0  3  0  0  0  0  0  0
   39.5510   33.7720   38.9430 H   0  0  0  0  0  0  0  0  0  0  0  0
   39.2430   32.6550   39.6410 S   0  0  0  0  0  0  0  0  0  0  0  0
   40.5490   32.0350   40.0860 O   0  0  0  0  0  0  0  0  0  0  0  0
   38.4760   32.9620   40.8930 O   0  0  0  0  0  0  0  0  0  0  0  0
  1  2  1  0  0  0  0
  3  1  1  0  0  0  0
  4 12  1  0  0  0  0
  4  5  1  0  0  0  0
  5 10  1  0  0  0  0
  6  5  2  0  0  0  0
  6  1  1  0  0  0  0
  7  6  1  0  0  0  0
  8  9  1  0  0  0  0
  8  7  2  0  0  0  0
  9  4  2  0  0  0  0
 11  8  1  0  0  0  0
 12 15  1  0  0  0  0
 12 14  1  0  0  0  0
 13 12  1  0  0  0  0
 13 14  1  0  0  0  0
 14 19  1  0  0  0  0
 14 18  1  0  0  0  0
 16 13  1  0  0  0  0
 17 13  1  0  0  0  0
 20  1  1  0  0  0  0
 20 21  1  0  0  0  0
 22 20  1  0  0  0  0
 23 25  1  0  0  0  0
 24 23  2  0  0  0  0
 25 20  1  0  0  0  0
 26 25  1  0  0  0  0
 27 28  1  0  0  0  0
 27 36  1  0  0  0  0
 28 23  1  0  0  0  0
 29 30  1  0  0  0  0
 29 28  2  0  0  0  0
 31 29  1  0  0  0  0
 32 31  1  0  0  0  0
 33 31  2  0  0  0  0
 33 34  1  0  0  0  0
 34 27  2  0  0  0  0
 35 36  1  0  0  0  0
 36 37  2  0  0  0  0
 36 38  2  0  0  0  0
M  END
>  <minimizedAffinity>
-4.87392712

$$$$
