
 OpenBabel03242510493D

 25 26  0  0  0  0  0  0  0  0999 V2000
   45.5750   35.5500   43.0600 C   0  0  0  0  0  0  0  0  0  0  0  0
   46.7990   35.3960   42.3950 C   0  0  0  0  0  0  0  0  0  0  0  0
   47.5030   34.1930   42.5890 C   0  0  0  0  0  0  0  0  0  0  0  0
   46.9620   33.2370   43.4100 N   0  0  0  0  0  0  0  0  0  0  0  0
   45.7760   33.4330   44.0300 C   0  0  0  0  0  0  0  0  0  0  0  0
   45.0880   34.5960   43.8470 N   0  0  0  0  0  0  0  0  0  0  0  0
   46.1960   31.4110   45.2880 C   0  0  0  0  0  0  0  0  0  0  0  0
   47.4130   31.3640   44.9800 O   0  0  0  0  0  0  0  0  0  0  0  0
   45.2740   32.3990   44.8690 N   0  0  0  0  0  0  0  0  0  0  0  0
   44.9470   36.4340   42.9860 H   0  0  0  0  0  0  0  0  0  0  0  0
   47.1360   36.2100   41.7720 H   0  0  0  0  0  0  0  0  0  0  0  0
   48.4470   34.0780   42.0740 H   0  0  0  0  0  0  0  0  0  0  0  0
   44.2640   32.4620   45.1090 H   0  0  0  0  0  0  0  0  0  0  0  0
   45.8740   30.3740   47.5420 C   0  0  0  0  0  0  0  0  0  0  0  0
   45.7040   30.3280   46.1650 C   0  0  0  0  0  0  0  0  0  0  0  0
   45.0600   29.2390   45.6520 C   0  0  0  0  0  0  0  0  0  0  0  0
   44.8690   29.0990   44.5970 H   0  0  0  0  0  0  0  0  0  0  0  0
   44.5630   28.1780   46.3890 C   0  0  0  0  0  0  0  0  0  0  0  0
   44.0530   27.3200   45.9780 H   0  0  0  0  0  0  0  0  0  0  0  0
   44.7440   28.2410   47.7610 C   0  0  0  0  0  3  0  0  0  0  0  0
   45.3880   29.3210   48.3180 C   0  0  0  0  0  3  0  0  0  0  0  0
   47.3480   32.5220   47.3640 H   0  0  0  0  0  0  0  0  0  0  0  0
   46.6940   31.7520   48.2720 S   0  0  0  0  0  0  0  0  0  0  0  0
   47.7790   31.1520   49.1620 O   0  0  0  0  0  0  0  0  0  0  0  0
   45.7850   32.5280   49.1830 O   0  0  0  0  0  0  0  0  0  0  0  0
  1  6  1  0  0  0  0
  2  3  1  0  0  0  0
  2  1  2  0  0  0  0
  3  4  2  0  0  0  0
  4  5  1  0  0  0  0
  5  9  1  0  0  0  0
  6  5  2  0  0  0  0
  7 15  1  0  0  0  0
  8  7  2  0  0  0  0
  9 13  1  0  0  0  0
  9  7  1  0  0  0  0
 10  1  1  0  0  0  0
 11  2  1  0  0  0  0
 12  3  1  0  0  0  0
 14 23  1  0  0  0  0
 14 21  1  0  0  0  0
 15 14  2  0  0  0  0
 16 15  1  0  0  0  0
 16 18  2  0  0  0  0
 17 16  1  0  0  0  0
 18 20  1  0  0  0  0
 19 18  1  0  0  0  0
 20 21  2  0  0  0  0
 22 23  1  0  0  0  0
 23 24  2  0  0  0  0
 23 25  2  0  0  0  0
M  END
>  <minimizedAffinity>
-4.56388664

>  <minimizedRMSD>
2.63946533

$$$$
