
 OpenBabel03242520193D

 38 40  0  0  0  0  0  0  0  0999 V2000
   40.7510   35.6960   39.6330 C   0  0  0  0  0  0  0  0  0  0  0  0
   40.4900   35.4520   38.5760 H   0  0  0  0  0  0  0  0  0  0  0  0
   40.8450   36.7910   39.7990 H   0  0  0  0  0  0  0  0  0  0  0  0
   43.9150   34.6880   41.4360 C   0  0  0  0  0  0  0  0  0  0  0  0
   42.6760   35.3100   41.1650 C   0  0  0  0  0  0  0  0  0  0  0  0
   42.0620   35.0630   39.9460 C   0  0  0  0  0  0  0  0  0  0  0  0
   42.6980   34.2240   39.0730 N   0  0  0  0  0  0  0  0  0  0  0  0
   43.8870   33.6520   39.3820 C   0  0  0  0  0  0  0  0  0  0  0  0
   44.4860   33.8810   40.5480 N   0  0  0  0  0  0  0  0  0  0  0  0
   42.2440   35.9630   41.9190 H   0  0  0  0  0  0  0  0  0  0  0  0
   44.4070   32.9870   38.7090 H   0  0  0  0  0  0  0  0  0  0  0  0
   44.5680   34.9680   42.7450 C   0  0  0  0  0  0  0  0  0  0  0  0
   46.0810   35.3260   42.5780 C   0  0  0  0  0  0  0  0  0  0  0  0
   45.0660   36.2370   43.1390 C   0  0  0  0  0  0  0  0  0  0  0  0
   44.3630   34.1710   43.4840 H   0  0  0  0  0  0  0  0  0  0  0  0
   46.4560   35.4790   41.5540 H   0  0  0  0  0  0  0  0  0  0  0  0
   46.7360   34.8080   43.3150 H   0  0  0  0  0  0  0  0  0  0  0  0
   45.0540   36.5050   44.2330 H   0  0  0  0  0  0  0  0  0  0  0  0
   44.8290   37.1390   42.5120 H   0  0  0  0  0  0  0  0  0  0  0  0
   39.6640   35.1510   40.5270 C   0  0  0  0  0  0  0  0  0  0  0  0
   40.0550   35.0740   41.5370 H   0  0  0  0  0  0  0  0  0  0  0  0
   38.8260   35.9080   40.5240 H   0  0  0  0  0  0  0  0  0  0  0  0
   39.5070   32.7410   40.6710 C   0  0  0  0  0  0  0  0  0  0  0  0
   40.3690   32.5900   41.5680 O   0  0  0  0  0  0  0  0  0  0  0  0
   39.1070   33.9170   39.9970 N   0  0  0  0  0  0  0  0  0  0  0  0
   38.4770   33.9230   39.2000 H   0  0  0  0  0  0  0  0  0  0  0  0
   38.9370   30.6900   39.1700 C   0  0  0  0  0  0  0  0  0  0  0  0
   38.7980   31.5060   40.2470 C   0  0  0  0  0  0  0  0  0  0  0  0
   37.8250   31.2230   41.2120 C   0  0  0  0  0  0  0  0  0  0  0  0
   37.5800   31.7700   42.1330 H   0  0  0  0  0  0  0  0  0  0  0  0
   36.9910   30.1120   41.0810 C   0  0  0  0  0  0  0  0  0  0  0  0
   36.2180   29.8280   41.7800 H   0  0  0  0  0  0  0  0  0  0  0  0
   37.1560   29.3050   39.9760 C   0  0  0  0  0  3  0  0  0  0  0  0
   38.1200   29.5920   39.0310 C   0  0  0  0  0  3  0  0  0  0  0  0
   40.1190   32.5440   37.7850 H   0  0  0  0  0  0  0  0  0  0  0  0
   40.2080   31.2300   38.0960 S   0  0  0  0  0  0  0  0  0  0  0  0
   40.0610   30.4570   36.8050 O   0  0  0  0  0  0  0  0  0  0  0  0
   41.5530   30.8680   38.6500 O   0  0  0  0  0  0  0  0  0  0  0  0
  1  3  1  0  0  0  0
  1  6  1  0  0  0  0
  1 20  1  0  0  0  0
  2  1  1  0  0  0  0
  4 12  1  0  0  0  0
  5  4  1  0  0  0  0
  5 10  1  0  0  0  0
  6  5  2  0  0  0  0
  7  8  2  0  0  0  0
  7  6  1  0  0  0  0
  8  9  1  0  0  0  0
  9  4  2  0  0  0  0
 11  8  1  0  0  0  0
 12 14  1  0  0  0  0
 12 15  1  0  0  0  0
 13 12  1  0  0  0  0
 13 14  1  0  0  0  0
 13 17  1  0  0  0  0
 14 18  1  0  0  0  0
 16 13  1  0  0  0  0
 19 14  1  0  0  0  0
 20 21  1  0  0  0  0
 22 20  1  0  0  0  0
 23 24  2  0  0  0  0
 25 20  1  0  0  0  0
 25 23  1  0  0  0  0
 26 25  1  0  0  0  0
 27 28  1  0  0  0  0
 28 23  1  0  0  0  0
 28 29  2  0  0  0  0
 29 30  1  0  0  0  0
 31 29  1  0  0  0  0
 31 32  1  0  0  0  0
 33 31  2  0  0  0  0
 34 27  2  0  0  0  0
 34 33  1  0  0  0  0
 35 36  1  0  0  0  0
 36 38  2  0  0  0  0
 36 27  1  0  0  0  0
 37 36  2  0  0  0  0
M  END
>  <minimizedAffinity>
-5.02396107

>  <minimizedRMSD>
1.16820002

$$$$
