
 OpenBabel03242510493D

 25 26  0  0  0  0  0  0  0  0999 V2000
   44.5750   36.2800   44.5580 C   0  0  0  0  0  0  0  0  0  0  0  0
   45.1840   36.4030   43.3020 C   0  0  0  0  0  0  0  0  0  0  0  0
   45.9450   35.3140   42.8340 C   0  0  0  0  0  0  0  0  0  0  0  0
   46.0510   34.1970   43.6210 N   0  0  0  0  0  0  0  0  0  0  0  0
   45.4440   34.1270   44.8280 C   0  0  0  0  0  0  0  0  0  0  0  0
   44.7060   35.1770   45.2890 N   0  0  0  0  0  0  0  0  0  0  0  0
   46.6530   32.0700   45.2230 C   0  0  0  0  0  0  0  0  0  0  0  0
   47.4580   32.2550   44.2770 O   0  0  0  0  0  0  0  0  0  0  0  0
   45.5980   32.9380   45.5940 N   0  0  0  0  0  0  0  0  0  0  0  0
   43.9670   37.0530   45.0190 H   0  0  0  0  0  0  0  0  0  0  0  0
   45.0380   37.3250   42.7620 H   0  0  0  0  0  0  0  0  0  0  0  0
   46.4130   35.4120   41.8640 H   0  0  0  0  0  0  0  0  0  0  0  0
   44.9190   32.8090   46.3710 H   0  0  0  0  0  0  0  0  0  0  0  0
   46.1730   29.6580   45.6800 C   0  0  0  0  0  0  0  0  0  0  0  0
   46.8410   30.8300   46.0040 C   0  0  0  0  0  0  0  0  0  0  0  0
   47.6830   30.7910   47.0790 C   0  0  0  0  0  0  0  0  0  0  0  0
   48.2560   31.6420   47.4210 H   0  0  0  0  0  0  0  0  0  0  0  0
   47.9240   29.6820   47.8710 C   0  0  0  0  0  0  0  0  0  0  0  0
   48.5920   29.6560   48.7190 H   0  0  0  0  0  0  0  0  0  0  0  0
   47.2480   28.5230   47.5310 C   0  0  0  0  0  3  0  0  0  0  0  0
   46.3910   28.5190   46.4560 C   0  0  0  0  0  3  0  0  0  0  0  0
   44.5180   30.8480   44.0470 H   0  0  0  0  0  0  0  0  0  0  0  0
   45.0740   29.6350   44.3020 S   0  0  0  0  0  0  0  0  0  0  0  0
   43.9190   28.7310   44.7220 O   0  0  0  0  0  0  0  0  0  0  0  0
   45.6970   28.9880   43.0970 O   0  0  0  0  0  0  0  0  0  0  0  0
  1 10  1  0  0  0  0
  1  6  1  0  0  0  0
  2  1  2  0  0  0  0
  3  2  1  0  0  0  0
  3  4  2  0  0  0  0
  4  5  1  0  0  0  0
  5  6  2  0  0  0  0
  5  9  1  0  0  0  0
  7  9  1  0  0  0  0
  7 15  1  0  0  0  0
  8  7  2  0  0  0  0
  9 13  1  0  0  0  0
 11  2  1  0  0  0  0
 12  3  1  0  0  0  0
 14 15  2  0  0  0  0
 14 21  1  0  0  0  0
 15 16  1  0  0  0  0
 16 17  1  0  0  0  0
 16 18  2  0  0  0  0
 18 19  1  0  0  0  0
 20 18  1  0  0  0  0
 21 20  2  0  0  0  0
 22 23  1  0  0  0  0
 23 24  2  0  0  0  0
 23 14  1  0  0  0  0
 25 23  2  0  0  0  0
M  END
>  <minimizedAffinity>
-4.30957508

>  <minimizedRMSD>
2.64154959

$$$$
