
 OpenBabel03242520193D

 38 40  0  0  0  0  0  0  0  0999 V2000
   40.8580   35.6400   39.3980 C   0  0  0  0  0  0  0  0  0  0  0  0
   40.6510   35.3190   38.3500 H   0  0  0  0  0  0  0  0  0  0  0  0
   40.9370   36.7450   39.4900 H   0  0  0  0  0  0  0  0  0  0  0  0
   43.9100   34.7510   41.4420 C   0  0  0  0  0  0  0  0  0  0  0  0
   42.6810   35.3390   41.0680 C   0  0  0  0  0  0  0  0  0  0  0  0
   42.1560   35.0440   39.8190 C   0  0  0  0  0  0  0  0  0  0  0  0
   42.8660   34.1920   39.0170 N   0  0  0  0  0  0  0  0  0  0  0  0
   44.0410   33.6540   39.4240 C   0  0  0  0  0  0  0  0  0  0  0  0
   44.5550   33.9290   40.6200 N   0  0  0  0  0  0  0  0  0  0  0  0
   42.1860   36.0050   41.7710 H   0  0  0  0  0  0  0  0  0  0  0  0
   44.6190   32.9800   38.8090 H   0  0  0  0  0  0  0  0  0  0  0  0
   44.4670   35.0830   42.7830 C   0  0  0  0  0  0  0  0  0  0  0  0
   46.0120   35.3180   42.7310 C   0  0  0  0  0  0  0  0  0  0  0  0
   45.0260   36.3400   43.1310 C   0  0  0  0  0  0  0  0  0  0  0  0
   44.1370   34.3620   43.5530 H   0  0  0  0  0  0  0  0  0  0  0  0
   46.4850   35.3650   41.7380 H   0  0  0  0  0  0  0  0  0  0  0  0
   46.5580   34.8140   43.5600 H   0  0  0  0  0  0  0  0  0  0  0  0
   44.9400   36.6910   44.1980 H   0  0  0  0  0  0  0  0  0  0  0  0
   44.9160   37.2060   42.4230 H   0  0  0  0  0  0  0  0  0  0  0  0
   39.7320   35.1490   40.2750 C   0  0  0  0  0  0  0  0  0  0  0  0
   40.0830   35.1180   41.3020 H   0  0  0  0  0  0  0  0  0  0  0  0
   38.9030   35.9110   40.2010 H   0  0  0  0  0  0  0  0  0  0  0  0
   39.3760   32.7830   40.6370 C   0  0  0  0  0  0  0  0  0  0  0  0
   40.0590   32.6890   41.6840 O   0  0  0  0  0  0  0  0  0  0  0  0
   39.1840   33.8940   39.7850 N   0  0  0  0  0  0  0  0  0  0  0  0
   38.7010   33.8430   38.8930 H   0  0  0  0  0  0  0  0  0  0  0  0
   38.6930   30.8020   39.0890 C   0  0  0  0  0  0  0  0  0  0  0  0
   38.6610   31.5470   40.2240 C   0  0  0  0  0  0  0  0  0  0  0  0
   37.8200   31.1720   41.2800 C   0  0  0  0  0  0  0  0  0  0  0  0
   37.6720   31.6540   42.2560 H   0  0  0  0  0  0  0  0  0  0  0  0
   37.0120   30.0390   41.1800 C   0  0  0  0  0  0  0  0  0  0  0  0
   36.3380   29.6840   41.9460 H   0  0  0  0  0  0  0  0  0  0  0  0
   37.0680   29.3040   40.0150 C   0  0  0  0  0  3  0  0  0  0  0  0
   37.9000   29.6830   38.9810 C   0  0  0  0  0  3  0  0  0  0  0  0
   39.4220   32.6540   37.4190 H   0  0  0  0  0  0  0  0  0  0  0  0
   39.8060   31.4530   37.9090 S   0  0  0  0  0  0  0  0  0  0  0  0
   39.8380   30.4870   36.7450 O   0  0  0  0  0  0  0  0  0  0  0  0
   41.2000   31.4870   38.4620 O   0  0  0  0  0  0  0  0  0  0  0  0
  1  3  1  0  0  0  0
  1  6  1  0  0  0  0
  1 20  1  0  0  0  0
  2  1  1  0  0  0  0
  4 12  1  0  0  0  0
  5  4  1  0  0  0  0
  5 10  1  0  0  0  0
  6  5  2  0  0  0  0
  7  8  2  0  0  0  0
  7  6  1  0  0  0  0
  8  9  1  0  0  0  0
  9  4  2  0  0  0  0
 11  8  1  0  0  0  0
 12 14  1  0  0  0  0
 12 15  1  0  0  0  0
 13 12  1  0  0  0  0
 13 14  1  0  0  0  0
 13 17  1  0  0  0  0
 14 18  1  0  0  0  0
 16 13  1  0  0  0  0
 19 14  1  0  0  0  0
 20 21  1  0  0  0  0
 22 20  1  0  0  0  0
 23 24  2  0  0  0  0
 25 20  1  0  0  0  0
 25 23  1  0  0  0  0
 26 25  1  0  0  0  0
 27 28  1  0  0  0  0
 28 23  1  0  0  0  0
 28 29  2  0  0  0  0
 29 30  1  0  0  0  0
 31 29  1  0  0  0  0
 31 32  1  0  0  0  0
 33 31  2  0  0  0  0
 34 27  2  0  0  0  0
 34 33  1  0  0  0  0
 35 36  1  0  0  0  0
 36 38  2  0  0  0  0
 36 27  1  0  0  0  0
 37 36  2  0  0  0  0
M  END
>  <minimizedAffinity>
-5.17402411

>  <minimizedRMSD>
1.64609122

$$$$
