
 OpenBabel03252501323D

 27 28  0  0  0  0  0  0  0  0999 V2000
   44.7770   32.1490   42.4680 C   0  0  0  0  0  0  0  0  0  0  0  0
   45.6160   31.4520   41.8200 O   0  0  0  0  0  0  0  0  0  0  0  0
   44.7080   31.7640   43.8470 N   0  0  0  0  0  0  0  0  0  0  0  0
   44.0720   32.2080   44.5270 H   0  0  0  0  0  0  0  0  0  0  0  0
   45.6570   30.6890   44.0770 C   0  0  0  0  0  0  0  0  0  0  0  0
   45.3990   29.3420   43.9170 C   0  0  0  0  0  0  0  0  0  0  0  0
   46.4420   28.4660   44.1870 C   0  0  0  0  0  0  0  0  0  0  0  0
   47.6190   28.9780   44.5790 N   0  0  0  0  0  0  0  0  0  0  0  0
   47.8370   30.3060   44.7250 C   0  0  0  0  0  0  0  0  0  0  0  0
   46.8600   31.1810   44.4760 N   0  0  0  0  0  0  0  0  0  0  0  0
   46.2160   27.4170   44.0550 H   0  0  0  0  0  0  0  0  0  0  0  0
   48.8350   30.5860   45.0490 H   0  0  0  0  0  0  0  0  0  0  0  0
   44.0960   29.0090   43.4920 N   0  0  0  0  0  0  0  0  0  0  0  0
   43.2550   29.4990   43.8550 H   0  0  0  0  0  0  0  0  0  0  0  0
   43.8230   28.2660   42.7960 H   0  0  0  0  0  0  0  0  0  0  0  0
   42.6720   33.0640   41.4300 C   0  0  0  0  0  0  0  0  0  0  0  0
   43.9260   33.2400   41.9740 C   0  0  0  0  0  0  0  0  0  0  0  0
   44.5020   34.4940   42.1020 C   0  0  0  0  0  0  0  0  0  0  0  0
   45.4710   34.6870   42.5160 H   0  0  0  0  0  0  0  0  0  0  0  0
   43.8010   35.6240   41.6710 C   0  0  0  0  0  0  0  0  0  0  0  0
   44.2070   36.6400   41.7480 H   0  0  0  0  0  0  0  0  0  0  0  0
   42.5560   35.4270   41.1340 C   0  0  0  0  0  3  0  0  0  0  0  0
   41.9590   34.1820   40.9960 C   0  0  0  0  0  3  0  0  0  0  0  0
   42.9100   30.6070   40.6340 H   0  0  0  0  0  0  0  0  0  0  0  0
   42.0640   31.4340   41.3280 S   0  0  0  0  0  0  0  0  0  0  0  0
   41.7820   30.9250   42.7070 O   0  0  0  0  0  0  0  0  0  0  0  0
   40.7630   31.5020   40.5600 O   0  0  0  0  0  0  0  0  0  0  0  0
  1  3  1  0  0  0  0
  2  1  2  0  0  0  0
  3  5  1  0  0  0  0
  3  4  1  0  0  0  0
  5 10  1  0  0  0  0
  6  5  2  0  0  0  0
  6  7  1  0  0  0  0
  7  8  2  0  0  0  0
  8  9  1  0  0  0  0
  9 12  1  0  0  0  0
 10  9  2  0  0  0  0
 11  7  1  0  0  0  0
 13 14  1  0  0  0  0
 13  6  1  0  0  0  0
 15 13  1  0  0  0  0
 16 17  1  0  0  0  0
 17 18  2  0  0  0  0
 17  1  1  0  0  0  0
 18 19  1  0  0  0  0
 20 21  1  0  0  0  0
 20 18  1  0  0  0  0
 22 20  2  0  0  0  0
 23 22  1  0  0  0  0
 23 16  2  0  0  0  0
 24 25  1  0  0  0  0
 25 16  1  0  0  0  0
 25 26  2  0  0  0  0
 27 25  2  0  0  0  0
M  END
>  <minimizedAffinity>
-3.16437221

>  <minimizedRMSD>
4.98509932

$$$$
