
 OpenBabel03242510493D

 25 26  0  0  0  0  0  0  0  0999 V2000
   44.5700   36.1160   44.7010 C   0  0  0  0  0  0  0  0  0  0  0  0
   45.1820   36.3250   43.4570 C   0  0  0  0  0  0  0  0  0  0  0  0
   45.9520   35.2750   42.9220 C   0  0  0  0  0  0  0  0  0  0  0  0
   46.0650   34.1090   43.6350 N   0  0  0  0  0  0  0  0  0  0  0  0
   45.4550   33.9570   44.8330 C   0  0  0  0  0  0  0  0  0  0  0  0
   44.7070   34.9690   45.3580 N   0  0  0  0  0  0  0  0  0  0  0  0
   46.6780   31.8880   45.0970 C   0  0  0  0  0  0  0  0  0  0  0  0
   47.4850   32.1400   44.1680 O   0  0  0  0  0  0  0  0  0  0  0  0
   45.6160   32.7210   45.5210 N   0  0  0  0  0  0  0  0  0  0  0  0
   43.9550   36.8540   45.2090 H   0  0  0  0  0  0  0  0  0  0  0  0
   45.0300   37.2790   42.9780 H   0  0  0  0  0  0  0  0  0  0  0  0
   46.4220   35.4390   41.9620 H   0  0  0  0  0  0  0  0  0  0  0  0
   44.9360   32.5370   46.2850 H   0  0  0  0  0  0  0  0  0  0  0  0
   47.2590   30.5490   47.1280 C   0  0  0  0  0  0  0  0  0  0  0  0
   46.8730   30.6010   45.7970 C   0  0  0  0  0  0  0  0  0  0  0  0
   46.6800   29.4100   45.1570 C   0  0  0  0  0  0  0  0  0  0  0  0
   46.3760   29.3300   44.1220 H   0  0  0  0  0  0  0  0  0  0  0  0
   46.8360   28.1580   45.7250 C   0  0  0  0  0  0  0  0  0  0  0  0
   46.6800   27.2190   45.2150 H   0  0  0  0  0  0  0  0  0  0  0  0
   47.2220   28.1270   47.0540 C   0  0  0  0  0  3  0  0  0  0  0  0
   47.4280   29.3040   47.7360 C   0  0  0  0  0  3  0  0  0  0  0  0
   48.1750   32.9890   47.2880 H   0  0  0  0  0  0  0  0  0  0  0  0
   47.5230   32.0470   48.0180 S   0  0  0  0  0  0  0  0  0  0  0  0
   48.4710   31.6800   49.1570 O   0  0  0  0  0  0  0  0  0  0  0  0
   46.2620   32.5470   48.6640 O   0  0  0  0  0  0  0  0  0  0  0  0
  1 10  1  0  0  0  0
  1  6  1  0  0  0  0
  2  1  2  0  0  0  0
  3  2  1  0  0  0  0
  3  4  2  0  0  0  0
  4  5  1  0  0  0  0
  5  6  2  0  0  0  0
  5  9  1  0  0  0  0
  7  9  1  0  0  0  0
  7 15  1  0  0  0  0
  8  7  2  0  0  0  0
  9 13  1  0  0  0  0
 11  2  1  0  0  0  0
 12  3  1  0  0  0  0
 14 21  1  0  0  0  0
 14 23  1  0  0  0  0
 15 14  2  0  0  0  0
 16 18  2  0  0  0  0
 16 15  1  0  0  0  0
 17 16  1  0  0  0  0
 18 20  1  0  0  0  0
 19 18  1  0  0  0  0
 20 21  2  0  0  0  0
 22 23  1  0  0  0  0
 23 25  2  0  0  0  0
 23 24  2  0  0  0  0
M  END
>  <minimizedAffinity>
-4.77835369

>  <minimizedRMSD>
2.80141425

$$$$
