
 OpenBabel03242516593D

 35 37  0  0  0  0  0  0  0  0999 V2000
   46.5790   34.7190   42.0170 C   0  0  0  0  0  0  0  0  0  0  0  0
   47.8590   35.2470   41.9230 C   0  0  0  0  0  0  0  0  0  0  0  0
   48.5630   35.0530   40.7350 C   0  0  0  0  0  0  0  0  0  0  0  0
   47.9920   34.3590   39.7030 C   0  0  0  0  0  0  0  0  0  0  0  0
   46.7370   33.8320   39.7710 C   0  0  0  0  0  0  0  0  0  0  0  0
   46.0460   34.0380   40.9750 C   0  0  0  0  0  0  0  0  0  0  0  0
   48.3110   35.8010   42.7490 H   0  0  0  0  0  0  0  0  0  0  0  0
   49.5580   35.4790   40.6960 H   0  0  0  0  0  0  0  0  0  0  0  0
   48.5800   34.2350   38.8020 H   0  0  0  0  0  0  0  0  0  0  0  0
   46.2710   33.2800   38.9680 H   0  0  0  0  0  0  0  0  0  0  0  0
   44.4780   36.1840   44.7940 C   0  0  0  0  0  0  0  0  0  0  0  0
   45.1090   36.0650   43.5420 C   0  0  0  0  0  0  0  0  0  0  0  0
   45.8800   34.9480   43.2780 C   0  0  0  0  0  0  0  0  0  0  0  0
   45.9830   34.0200   44.2590 N   0  0  0  0  0  0  0  0  0  0  0  0
   45.3800   34.1310   45.4610 C   0  0  0  0  0  0  0  0  0  0  0  0
   44.6180   35.2270   45.7310 N   0  0  0  0  0  0  0  0  0  0  0  0
   43.8810   37.0640   44.9780 H   0  0  0  0  0  0  0  0  0  0  0  0
   45.0300   36.7940   42.7680 H   0  0  0  0  0  0  0  0  0  0  0  0
   45.5590   33.3050   46.1360 H   0  0  0  0  0  0  0  0  0  0  0  0
   43.4940   33.6650   40.4920 C   0  0  0  0  0  0  0  0  0  0  0  0
   43.2920   34.2680   39.4350 O   0  0  0  0  0  0  0  0  0  0  0  0
   44.7330   33.5400   41.1750 N   0  0  0  0  0  0  0  0  0  0  0  0
   44.8510   32.9720   42.0540 H   0  0  0  0  0  0  0  0  0  0  0  0
   41.0420   33.4400   41.1290 C   0  0  0  0  0  0  0  0  0  0  0  0
   42.3290   33.0150   41.0950 C   0  0  0  0  0  0  0  0  0  0  0  0
   42.6800   31.8000   41.6910 C   0  0  0  0  0  0  0  0  0  0  0  0
   43.6790   31.3540   41.7280 H   0  0  0  0  0  0  0  0  0  0  0  0
   41.6910   31.0380   42.3190 C   0  0  0  0  0  0  0  0  0  0  0  0
   41.9030   30.0860   42.8000 H   0  0  0  0  0  0  0  0  0  0  0  0
   40.3700   31.4760   42.3530 C   0  0  0  0  0  0  0  0  0  0  0  0
   40.0590   32.6950   41.7470 C   0  0  0  0  0  0  0  0  0  0  0  0
   41.5810   35.2270   39.3390 H   0  0  0  0  0  0  0  0  0  0  0  0
   40.7320   34.9560   40.3570 S   0  0  0  0  0  0  0  0  0  0  0  0
   40.9280   36.0780   41.3700 O   0  0  0  0  0  0  0  0  0  0  0  0
   39.2730   35.0710   39.9590 O   0  0  0  0  0  0  0  0  0  0  0  0
  1 13  1  0  0  0  0
  2  1  1  0  0  0  0
  2  7  1  0  0  0  0
  3  2  2  0  0  0  0
  4  5  2  0  0  0  0
  4  3  1  0  0  0  0
  5  6  1  0  0  0  0
  6 22  1  0  0  0  0
  6  1  2  0  0  0  0
  8  3  1  0  0  0  0
  9  4  1  0  0  0  0
 10  5  1  0  0  0  0
 11 17  1  0  0  0  0
 11 16  1  0  0  0  0
 12 11  2  0  0  0  0
 13 12  1  0  0  0  0
 13 14  2  0  0  0  0
 14 15  1  0  0  0  0
 15 16  2  0  0  0  0
 15 19  1  0  0  0  0
 18 12  1  0  0  0  0
 20 25  1  0  0  0  0
 20 22  1  0  0  0  0
 21 20  2  0  0  0  0
 22 23  1  0  0  0  0
 24 31  1  0  0  0  0
 25 24  2  0  0  0  0
 25 26  1  0  0  0  0
 26 27  1  0  0  0  0
 26 28  2  0  0  0  0
 28 30  1  0  0  0  0
 28 29  1  0  0  0  0
 31 30  2  0  0  0  0
 32 33  1  0  0  0  0
 33 24  1  0  0  0  0
 33 34  2  0  0  0  0
 35 33  2  0  0  0  0
M  END
>  <minimizedAffinity>
-6.79154015

>  <minimizedRMSD>
0.52617085

$$$$
