
 OpenBabel03252503313D

 44 46  0  0  1  0  0  0  0  0999 V2000
   45.4730   33.7480   41.8200 C   0  0  0  0  0  0  0  0  0  0  0  0
   46.4520   34.7580   41.5380 C   0  0  0  0  0  0  0  0  0  0  0  0
   47.7930   34.3810   41.7660 C   0  0  0  0  0  0  0  0  0  0  0  0
   48.0420   33.1400   42.2170 N   0  0  0  0  0  0  0  0  0  0  0  0
   47.0730   32.2260   42.4670 C   0  0  0  0  0  0  0  0  0  0  0  0
   45.7790   32.5440   42.2620 N   0  0  0  0  0  0  0  0  0  0  0  0
   43.7550   34.0450   40.2490 C   0  0  0  0  0  0  0  0  0  0  0  0
   44.6770   33.8400   39.3890 O   0  0  0  0  0  0  0  0  0  0  0  0
   44.0840   34.0430   41.6180 N   0  0  0  0  0  0  0  0  0  0  0  0
   42.4450   34.2600   39.7520 N   0  0  0  0  0  0  0  0  0  0  0  0
   42.2490   34.5790   38.3240 C   0  0  0  0  0  0  0  0  0  0  0  0
   41.0330   35.4520   38.3580 C   0  0  0  0  0  0  0  0  0  0  0  0
   40.5720   35.4690   39.7850 C   0  0  0  0  0  0  0  0  0  0  0  0
   41.1570   34.2110   40.3780 C   0  0  1  0  0  0  0  0  0  0  0  0
   46.1370   35.7260   41.1770 H   0  0  0  0  0  0  0  0  0  0  0  0
   47.3370   31.2370   42.8310 H   0  0  0  0  0  0  0  0  0  0  0  0
   43.3340   34.2430   42.2850 H   0  0  0  0  0  0  0  0  0  0  0  0
   42.0190   33.6320   37.7830 H   0  0  0  0  0  0  0  0  0  0  0  0
   43.1250   35.0800   37.8890 H   0  0  0  0  0  0  0  0  0  0  0  0
   41.3310   36.4680   38.0000 H   0  0  0  0  0  0  0  0  0  0  0  0
   40.2550   35.1070   37.6440 H   0  0  0  0  0  0  0  0  0  0  0  0
   39.6400   35.8540   40.0440 H   0  0  0  0  0  0  0  0  0  0  0  0
   41.2820   36.2480   40.2410 H   0  0  0  0  0  0  0  0  0  0  0  0
   41.1370   34.3210   41.4540 H   0  0  0  0  0  0  0  0  0  0  0  0
   39.0550   32.7450   40.1910 C   0  0  0  0  0  0  0  0  0  0  0  0
   38.4680   33.8270   40.4360 O   0  0  0  0  0  0  0  0  0  0  0  0
   40.4770   32.9800   40.0120 N   0  0  0  0  0  0  0  0  0  0  0  0
   41.0170   32.1680   39.5800 H   0  0  0  0  0  0  0  0  0  0  0  0
   38.1580   30.6660   39.0220 C   0  0  0  0  0  0  0  0  0  0  0  0
   38.3810   31.4810   40.1070 C   0  0  0  0  0  0  0  0  0  0  0  0
   37.8940   31.0590   41.3470 C   0  0  0  0  0  0  0  0  0  0  0  0
   38.0030   31.6120   42.2880 H   0  0  0  0  0  0  0  0  0  0  0  0
   37.2020   29.8580   41.5030 C   0  0  0  0  0  0  0  0  0  0  0  0
   36.8210   29.5220   42.4550 H   0  0  0  0  0  0  0  0  0  0  0  0
   37.0280   29.1120   40.3620 C   0  0  0  0  0  0  0  0  0  0  0  0
   37.4840   29.4730   39.1140 C   0  0  0  0  0  0  0  0  0  0  0  0
   38.4490   30.4190   36.4670 H   0  0  0  0  0  0  0  0  0  0  0  0
   38.7920   31.2540   37.5160 S   0  0  0  0  0  0  0  0  0  0  0  0
   38.2720   32.6090   37.1480 O   0  0  0  0  0  0  0  0  0  0  0  0
   40.2830   31.3690   37.6270 O   0  0  0  0  0  0  0  0  0  0  0  0
   48.7720   35.4210   41.4710 C   0  0  0  0  0  0  0  0  0  0  0  0
   50.0200   35.0100   41.9320 F   0  0  0  0  0  0  0  0  0  0  0  0
   48.4350   36.5280   42.2630 F   0  0  0  0  0  0  0  0  0  0  0  0
   48.8730   35.7320   40.1430 F   0  0  0  0  0  0  0  0  0  0  0  0
  1  6  1  0  0  0  0
  2  3  1  0  0  0  0
  2  1  2  0  0  0  0
  3  4  2  0  0  0  0
  4  5  1  0  0  0  0
  5 16  1  0  0  0  0
  6  5  2  0  0  0  0
  7  9  1  0  0  0  0
  8  7  2  0  0  0  0
  9  1  1  0  0  0  0
  9 17  1  0  0  0  0
 10  7  1  0  0  0  0
 10 14  1  0  0  0  0
 11 12  1  0  0  0  0
 11 10  1  0  0  0  0
 12 13  1  0  0  0  0
 13 22  1  0  0  0  0
 13 23  1  0  0  0  0
 13 14  1  0  0  0  0
 14 24  1  1  0  0  0
 15  2  1  0  0  0  0
 18 11  1  0  0  0  0
 19 11  1  0  0  0  0
 20 12  1  0  0  0  0
 21 12  1  0  0  0  0
 25 26  2  0  0  0  0
 27 25  1  0  0  0  0
 27 14  1  0  0  0  0
 28 27  1  0  0  0  0
 29 36  2  0  0  0  0
 29 30  1  0  0  0  0
 30 25  1  0  0  0  0
 30 31  2  0  0  0  0
 31 33  1  0  0  0  0
 31 32  1  0  0  0  0
 33 34  1  0  0  0  0
 35 33  2  0  0  0  0
 36 35  1  0  0  0  0
 37 38  1  0  0  0  0
 38 40  2  0  0  0  0
 38 29  1  0  0  0  0
 39 38  2  0  0  0  0
 41  3  1  0  0  0  0
 41 42  1  0  0  0  0
 41 43  1  0  0  0  0
 44 41  1  0  0  0  0
M  END
>  <minimizedAffinity>
-7.01008844

>  <minimizedRMSD>
1.79263508

$$$$
