
 OpenBabel03252508003D

 32 34  0  0  1  0  0  0  0  0999 V2000
   46.6160   34.7180   43.1330 C   0  0  0  0  0  0  0  0  0  0  0  0
   45.5880   35.7010   43.2560 C   0  0  0  0  0  0  0  0  0  0  0  0
   44.7550   35.5670   44.3550 C   0  0  0  0  0  0  0  0  0  0  0  0
   44.9630   34.5400   45.2160 N   0  0  0  0  0  0  0  0  0  0  0  0
   45.9620   33.6300   45.0460 C   0  0  0  0  0  0  0  0  0  0  0  0
   46.7880   33.7000   44.0240 N   0  0  0  0  0  0  0  0  0  0  0  0
   45.5140   36.4790   42.5080 H   0  0  0  0  0  0  0  0  0  0  0  0
   43.9660   36.2880   44.4880 H   0  0  0  0  0  0  0  0  0  0  0  0
   46.1040   32.5450   46.0460 C   0  0  1  0  0  0  0  0  0  0  0  0
   46.8220   32.8200   47.3460 C   0  0  0  0  0  0  0  0  0  0  0  0
   45.3200   32.7370   47.2850 C   0  0  1  0  0  0  0  0  0  0  0  0
   46.2470   31.5570   45.5810 H   0  0  0  0  0  0  0  0  0  0  0  0
   47.3120   31.9720   47.8440 H   0  0  0  0  0  0  0  0  0  0  0  0
   47.3220   33.7870   47.4050 H   0  0  0  0  0  0  0  0  0  0  0  0
   44.8090   31.8630   47.7080 H   0  0  0  0  0  0  0  0  0  0  0  0
   44.6810   34.0060   47.5490 N   0  0  0  0  0  0  0  0  0  0  0  0
   43.7400   34.1340   47.2110 H   0  0  0  0  0  0  0  0  0  0  0  0
   45.2980   34.8080   47.6720 H   0  0  0  0  0  0  0  0  0  0  0  0
   47.4960   34.8720   41.9920 C   0  0  0  0  0  0  0  0  0  0  0  0
   48.3550   35.8210   41.9060 O   0  0  0  0  0  0  0  0  0  0  0  0
   48.1340   32.7750   40.7490 C   0  0  0  0  0  0  0  0  0  0  0  0
   47.2830   33.8350   40.9830 C   0  0  0  0  0  0  0  0  0  0  0  0
   46.1420   33.8850   40.1720 C   0  0  0  0  0  0  0  0  0  0  0  0
   45.4600   34.7160   40.3440 H   0  0  0  0  0  0  0  0  0  0  0  0
   45.8540   32.9550   39.1950 C   0  0  0  0  0  0  0  0  0  0  0  0
   44.9530   33.0590   38.6060 H   0  0  0  0  0  0  0  0  0  0  0  0
   46.7310   31.9080   38.9910 C   0  0  0  0  0  3  0  0  0  0  0  0
   47.8640   31.8340   39.7770 C   0  0  0  0  0  3  0  0  0  0  0  0
   49.9110   33.8710   42.2080 H   0  0  0  0  0  0  0  0  0  0  0  0
   49.5710   32.6490   41.7220 S   0  0  0  0  0  0  0  0  0  0  0  0
   50.6730   32.1120   40.8180 O   0  0  0  0  0  0  0  0  0  0  0  0
   49.3940   31.7030   42.8720 O   0  0  0  0  0  0  0  0  0  0  0  0
  1  2  2  0  0  0  0
  1  6  1  0  0  0  0
  2  3  1  0  0  0  0
  3  8  1  0  0  0  0
  3  4  2  0  0  0  0
  5  4  1  0  0  0  0
  5  9  1  0  0  0  0
  6  5  2  0  0  0  0
  7  2  1  0  0  0  0
  9 12  1  6  0  0  0
  9 11  1  0  0  0  0
  9 10  1  0  0  0  0
 10 14  1  0  0  0  0
 10 13  1  0  0  0  0
 11 10  1  0  0  0  0
 11 16  1  0  0  0  0
 11 15  1  1  0  0  0
 16 18  1  0  0  0  0
 17 16  1  0  0  0  0
 19  1  1  0  0  0  0
 20 19  2  0  0  0  0
 21 22  1  0  0  0  0
 21 30  1  0  0  0  0
 22 19  1  0  0  0  0
 23 24  1  0  0  0  0
 23 22  2  0  0  0  0
 25 23  1  0  0  0  0
 26 25  1  0  0  0  0
 27 25  2  0  0  0  0
 27 28  1  0  0  0  0
 28 21  2  0  0  0  0
 30 29  1  0  0  0  0
 30 32  2  0  0  0  0
 31 30  2  0  0  0  0
M  END
>  <minimizedAffinity>
-5.45194197

>  <minimizedRMSD>
2.06668353

$$$$
