
 OpenBabel03252508003D

 32 34  0  0  1  0  0  0  0  0999 V2000
   44.5740   34.4200   42.9520 C   0  0  0  0  0  0  0  0  0  0  0  0
   44.3040   35.6900   43.5450 C   0  0  0  0  0  0  0  0  0  0  0  0
   44.6420   35.8130   44.8830 C   0  0  0  0  0  0  0  0  0  0  0  0
   45.1900   34.7510   45.5240 N   0  0  0  0  0  0  0  0  0  0  0  0
   45.4240   33.5610   44.9040 C   0  0  0  0  0  0  0  0  0  0  0  0
   45.1270   33.3770   43.6350 N   0  0  0  0  0  0  0  0  0  0  0  0
   43.8630   36.4690   42.9380 H   0  0  0  0  0  0  0  0  0  0  0  0
   44.4570   36.7550   45.3710 H   0  0  0  0  0  0  0  0  0  0  0  0
   46.0280   32.4620   45.6950 C   0  0  1  0  0  0  0  0  0  0  0  0
   46.9730   32.7910   46.8250 C   0  0  0  0  0  0  0  0  0  0  0  0
   45.5530   32.3690   47.0910 C   0  0  1  0  0  0  0  0  0  0  0  0
   46.2510   31.5740   45.0830 H   0  0  0  0  0  0  0  0  0  0  0  0
   47.7340   32.0420   47.0840 H   0  0  0  0  0  0  0  0  0  0  0  0
   47.2640   33.8390   46.8980 H   0  0  0  0  0  0  0  0  0  0  0  0
   45.3530   31.3700   47.4990 H   0  0  0  0  0  0  0  0  0  0  0  0
   44.7540   33.4320   47.6570 N   0  0  0  0  0  0  0  0  0  0  0  0
   43.7530   33.3660   47.5590 H   0  0  0  0  0  0  0  0  0  0  0  0
   45.2040   34.3410   47.7440 H   0  0  0  0  0  0  0  0  0  0  0  0
   44.2360   34.3000   41.5480 C   0  0  0  0  0  0  0  0  0  0  0  0
   45.1200   34.1140   40.6370 O   0  0  0  0  0  0  0  0  0  0  0  0
   41.9100   33.3600   41.3180 C   0  0  0  0  0  0  0  0  0  0  0  0
   42.7970   34.4160   41.3120 C   0  0  0  0  0  0  0  0  0  0  0  0
   42.2380   35.6750   41.0560 C   0  0  0  0  0  0  0  0  0  0  0  0
   42.9260   36.5180   41.0470 H   0  0  0  0  0  0  0  0  0  0  0  0
   40.8940   35.8840   40.8220 C   0  0  0  0  0  0  0  0  0  0  0  0
   40.5350   36.8860   40.6310 H   0  0  0  0  0  0  0  0  0  0  0  0
   40.0390   34.8020   40.8370 C   0  0  0  0  0  0  0  0  0  0  0  0
   40.5620   33.5490   41.0860 C   0  0  0  0  0  0  0  0  0  0  0  0
   43.7950   31.8520   42.1300 H   0  0  0  0  0  0  0  0  0  0  0  0
   42.5340   31.7670   41.6290 S   0  0  0  0  0  0  0  0  0  0  0  0
   42.5410   31.0250   40.3000 O   0  0  0  0  0  0  0  0  0  0  0  0
   41.6810   31.0050   42.5970 O   0  0  0  0  0  0  0  0  0  0  0  0
  1  2  2  0  0  0  0
  1  6  1  0  0  0  0
  2  3  1  0  0  0  0
  3  8  1  0  0  0  0
  3  4  2  0  0  0  0
  5  4  1  0  0  0  0
  5  9  1  0  0  0  0
  6  5  2  0  0  0  0
  7  2  1  0  0  0  0
  9 12  1  6  0  0  0
  9 10  1  0  0  0  0
  9 11  1  0  0  0  0
 10 14  1  0  0  0  0
 10 13  1  0  0  0  0
 10 11  1  0  0  0  0
 11 15  1  1  0  0  0
 11 16  1  0  0  0  0
 16 18  1  0  0  0  0
 17 16  1  0  0  0  0
 19  1  1  0  0  0  0
 20 19  2  0  0  0  0
 21 30  1  0  0  0  0
 22 21  1  0  0  0  0
 22 19  1  0  0  0  0
 23 22  2  0  0  0  0
 24 23  1  0  0  0  0
 25 27  2  0  0  0  0
 25 23  1  0  0  0  0
 26 25  1  0  0  0  0
 27 28  1  0  0  0  0
 28 21  2  0  0  0  0
 30 29  1  0  0  0  0
 30 32  2  0  0  0  0
 31 30  2  0  0  0  0
M  END
>  <minimizedAffinity>
-5.78984356

>  <minimizedRMSD>
3.13188243

$$$$
