
 OpenBabel03242519033D

 35 37  0  0  1  0  0  0  0  0999 V2000
   47.6750   34.0240   42.4540 N   0  0  0  0  0  0  0  0  0  0  0  0
   48.2090   34.4980   41.1930 C   0  0  0  0  0  0  0  0  0  0  0  0
   48.2950   33.1560   40.4850 C   0  0  2  0  0  0  0  0  0  0  0  0
   49.0430   32.3570   41.4990 C   0  0  0  0  0  0  0  0  0  0  0  0
   48.4620   32.8440   42.8140 C   0  0  0  0  0  0  0  0  0  0  0  0
   49.2270   34.9000   41.3260 H   0  0  0  0  0  0  0  0  0  0  0  0
   47.5280   35.2060   40.7200 H   0  0  0  0  0  0  0  0  0  0  0  0
   47.2860   32.7730   40.2790 H   0  0  0  0  0  0  0  0  0  0  0  0
   48.7560   31.2740   41.4210 H   0  0  0  0  0  0  0  0  0  0  0  0
   50.1320   32.5020   41.4120 H   0  0  0  0  0  0  0  0  0  0  0  0
   47.8410   32.0790   43.3170 H   0  0  0  0  0  0  0  0  0  0  0  0
   49.3030   33.2170   43.4400 H   0  0  0  0  0  0  0  0  0  0  0  0
   44.8240   35.9940   43.8040 C   0  0  0  0  0  0  0  0  0  0  0  0
   45.8280   35.6020   42.9390 C   0  0  0  0  0  0  0  0  0  0  0  0
   46.6280   34.5100   43.2550 C   0  0  0  0  0  0  0  0  0  0  0  0
   46.3690   33.8700   44.4380 N   0  0  0  0  0  0  0  0  0  0  0  0
   45.3920   34.2510   45.2810 C   0  0  0  0  0  0  0  0  0  0  0  0
   44.6150   35.3240   44.9570 N   0  0  0  0  0  0  0  0  0  0  0  0
   44.2490   36.8540   43.4770 H   0  0  0  0  0  0  0  0  0  0  0  0
   46.1010   36.0470   41.9900 H   0  0  0  0  0  0  0  0  0  0  0  0
   45.2140   33.7230   46.2080 H   0  0  0  0  0  0  0  0  0  0  0  0
   49.1330   33.2630   39.3160 N   0  0  0  0  0  0  0  0  0  0  0  0
   49.7690   34.0890   39.4300 H   0  0  0  0  0  0  0  0  0  0  0  0
   48.2440   33.5340   37.8770 S   0  0  0  0  0  0  0  0  0  0  0  0
   48.3840   34.9340   37.3700 O   0  0  0  0  0  0  0  0  0  0  0  0
   46.7820   33.3750   38.2250 O   0  0  0  0  0  0  0  0  0  0  0  0
   48.5950   32.3650   36.6220 C   0  0  0  0  0  0  0  0  0  0  0  0
   48.5760   32.6870   35.2820 C   0  0  0  0  0  0  0  0  0  0  0  0
   48.3310   33.7170   34.9790 H   0  0  0  0  0  0  0  0  0  0  0  0
   48.8490   31.7770   34.2710 C   0  0  0  0  0  0  0  0  0  0  0  0
   48.8220   32.0720   33.2320 H   0  0  0  0  0  0  0  0  0  0  0  0
   49.1550   30.4880   34.6630 C   0  0  0  0  0  0  0  0  0  0  0  0
   49.3730   29.7650   33.8630 H   0  0  0  0  0  0  0  0  0  0  0  0
   49.1990   30.0730   35.9840 C   0  0  0  0  0  0  0  0  0  0  0  0
   48.9110   31.0530   36.9120 C   0  0  0  0  0  0  0  0  0  0  0  0
  1  5  1  0  0  0  0
  1 15  1  0  0  0  0
  2  6  1  0  0  0  0
  2  1  1  0  0  0  0
  3  8  1  6  0  0  0
  3  2  1  0  0  0  0
  3  4  1  0  0  0  0
  4  5  1  0  0  0  0
  5 11  1  0  0  0  0
  5 12  1  0  0  0  0
  7  2  1  0  0  0  0
  9  4  1  0  0  0  0
 10  4  1  0  0  0  0
 13 18  1  0  0  0  0
 14 15  1  0  0  0  0
 14 13  2  0  0  0  0
 15 16  2  0  0  0  0
 16 17  1  0  0  0  0
 17 21  1  0  0  0  0
 18 17  2  0  0  0  0
 19 13  1  0  0  0  0
 20 14  1  0  0  0  0
 22 23  1  0  0  0  0
 22  3  1  0  0  0  0
 24 26  2  0  0  0  0
 24 22  1  0  0  0  0
 25 24  2  0  0  0  0
 27 35  1  0  0  0  0
 27 24  1  0  0  0  0
 28 27  2  0  0  0  0
 29 28  1  0  0  0  0
 30 32  2  0  0  0  0
 30 28  1  0  0  0  0
 31 30  1  0  0  0  0
 32 34  1  0  0  0  0
 33 32  1  0  0  0  0
 34 35  2  0  0  0  0
M  END
>  <minimizedAffinity>
-4.79628325

>  <minimizedRMSD>
1.75948727

$$$$
