
 OpenBabel03252507593D

 32 34  0  0  1  0  0  0  0  0999 V2000
   45.9670   34.7080   43.5130 C   0  0  0  0  0  0  0  0  0  0  0  0
   45.0520   35.6740   44.0310 C   0  0  0  0  0  0  0  0  0  0  0  0
   44.5990   35.4430   45.3200 C   0  0  0  0  0  0  0  0  0  0  0  0
   45.0420   34.3480   45.9860 N   0  0  0  0  0  0  0  0  0  0  0  0
   45.9170   33.4590   45.4390 C   0  0  0  0  0  0  0  0  0  0  0  0
   46.3850   33.6190   44.2190 N   0  0  0  0  0  0  0  0  0  0  0  0
   44.7660   36.5120   43.4090 H   0  0  0  0  0  0  0  0  0  0  0  0
   43.9080   36.1470   45.7510 H   0  0  0  0  0  0  0  0  0  0  0  0
   46.3380   32.2940   46.2520 C   0  0  1  0  0  0  0  0  0  0  0  0
   47.0750   32.5200   47.5510 C   0  0  0  0  0  0  0  0  0  0  0  0
   45.6180   32.1390   47.5340 C   0  0  1  0  0  0  0  0  0  0  0  0
   46.6430   31.4350   45.6340 H   0  0  0  0  0  0  0  0  0  0  0  0
   47.7560   31.7290   47.8930 H   0  0  0  0  0  0  0  0  0  0  0  0
   47.3770   33.5500   47.7410 H   0  0  0  0  0  0  0  0  0  0  0  0
   45.3210   31.1270   47.8350 H   0  0  0  0  0  0  0  0  0  0  0  0
   44.7610   33.1980   48.0160 N   0  0  0  0  0  0  0  0  0  0  0  0
   43.7930   33.1770   47.7380 H   0  0  0  0  0  0  0  0  0  0  0  0
   45.2130   34.0830   48.2390 H   0  0  0  0  0  0  0  0  0  0  0  0
   46.4510   34.9620   42.1710 C   0  0  0  0  0  0  0  0  0  0  0  0
   47.5400   35.5990   41.9380 O   0  0  0  0  0  0  0  0  0  0  0  0
   45.9000   33.4060   40.2680 C   0  0  0  0  0  0  0  0  0  0  0  0
   45.5630   34.4130   41.1470 C   0  0  0  0  0  0  0  0  0  0  0  0
   44.2630   34.9200   41.0170 C   0  0  0  0  0  0  0  0  0  0  0  0
   43.9820   35.7160   41.7040 H   0  0  0  0  0  0  0  0  0  0  0  0
   43.3540   34.4680   40.0830 C   0  0  0  0  0  0  0  0  0  0  0  0
   42.3670   34.9090   40.0410 H   0  0  0  0  0  0  0  0  0  0  0  0
   43.7290   33.4580   39.2200 C   0  0  0  0  0  3  0  0  0  0  0  0
   45.0040   32.9400   39.3270 C   0  0  0  0  0  3  0  0  0  0  0  0
   47.9640   32.8350   41.6440 H   0  0  0  0  0  0  0  0  0  0  0  0
   47.4980   32.7280   40.3730 S   0  0  0  0  0  0  0  0  0  0  0  0
   48.3790   33.5180   39.4160 O   0  0  0  0  0  0  0  0  0  0  0  0
   47.5280   31.2860   39.9670 O   0  0  0  0  0  0  0  0  0  0  0  0
  1  2  2  0  0  0  0
  1  6  1  0  0  0  0
  2  3  1  0  0  0  0
  3  8  1  0  0  0  0
  3  4  2  0  0  0  0
  5  4  1  0  0  0  0
  5  9  1  0  0  0  0
  6  5  2  0  0  0  0
  7  2  1  0  0  0  0
  9 12  1  6  0  0  0
  9 11  1  0  0  0  0
  9 10  1  0  0  0  0
 10 14  1  0  0  0  0
 10 13  1  0  0  0  0
 11 10  1  0  0  0  0
 11 15  1  1  0  0  0
 11 16  1  0  0  0  0
 16 18  1  0  0  0  0
 17 16  1  0  0  0  0
 19  1  1  0  0  0  0
 20 19  2  0  0  0  0
 21 30  1  0  0  0  0
 21 22  1  0  0  0  0
 22 19  1  0  0  0  0
 23 22  2  0  0  0  0
 23 24  1  0  0  0  0
 25 23  1  0  0  0  0
 26 25  1  0  0  0  0
 27 28  1  0  0  0  0
 27 25  2  0  0  0  0
 28 21  2  0  0  0  0
 30 29  1  0  0  0  0
 31 30  2  0  0  0  0
 32 30  2  0  0  0  0
M  END
>  <minimizedAffinity>
-5.75769567

>  <minimizedRMSD>
0.790813506

$$$$
