
 OpenBabel03252507593D

 32 34  0  0  1  0  0  0  0  0999 V2000
   47.2920   34.6210   42.9260 C   0  0  0  0  0  0  0  0  0  0  0  0
   46.0870   35.3360   42.6510 C   0  0  0  0  0  0  0  0  0  0  0  0
   44.9910   34.9900   43.4260 C   0  0  0  0  0  0  0  0  0  0  0  0
   45.1300   34.0220   44.3660 N   0  0  0  0  0  0  0  0  0  0  0  0
   46.3070   33.3730   44.5820 C   0  0  0  0  0  0  0  0  0  0  0  0
   47.3860   33.6530   43.8820 N   0  0  0  0  0  0  0  0  0  0  0  0
   46.0910   36.0910   41.8760 H   0  0  0  0  0  0  0  0  0  0  0  0
   44.0620   35.5060   43.2530 H   0  0  0  0  0  0  0  0  0  0  0  0
   46.3520   32.3300   45.6350 C   0  0  1  0  0  0  0  0  0  0  0  0
   47.0520   32.6210   46.9420 C   0  0  0  0  0  0  0  0  0  0  0  0
   45.5500   32.6300   46.8400 C   0  0  1  0  0  0  0  0  0  0  0  0
   46.4440   31.3140   45.2210 H   0  0  0  0  0  0  0  0  0  0  0  0
   47.4730   31.7690   47.4920 H   0  0  0  0  0  0  0  0  0  0  0  0
   47.6120   33.5560   46.9710 H   0  0  0  0  0  0  0  0  0  0  0  0
   44.9730   31.8120   47.2880 H   0  0  0  0  0  0  0  0  0  0  0  0
   44.9880   33.9490   47.0260 N   0  0  0  0  0  0  0  0  0  0  0  0
   44.0670   34.1190   46.6560 H   0  0  0  0  0  0  0  0  0  0  0  0
   45.6510   34.7150   47.1300 H   0  0  0  0  0  0  0  0  0  0  0  0
   48.4400   34.9980   42.1260 C   0  0  0  0  0  0  0  0  0  0  0  0
   48.7660   36.2210   41.9190 O   0  0  0  0  0  0  0  0  0  0  0  0
   48.7990   33.1320   40.4710 C   0  0  0  0  0  0  0  0  0  0  0  0
   49.1570   33.8360   41.6030 C   0  0  0  0  0  0  0  0  0  0  0  0
   50.2980   33.3710   42.2690 C   0  0  0  0  0  0  0  0  0  0  0  0
   50.5940   33.9160   43.1630 H   0  0  0  0  0  0  0  0  0  0  0  0
   51.0400   32.2850   41.8520 C   0  0  0  0  0  0  0  0  0  0  0  0
   51.9100   31.9840   42.4180 H   0  0  0  0  0  0  0  0  0  0  0  0
   50.6490   31.6060   40.7160 C   0  0  0  0  0  3  0  0  0  0  0  0
   49.5280   32.0430   40.0390 C   0  0  0  0  0  3  0  0  0  0  0  0
   47.1460   34.9660   39.8480 H   0  0  0  0  0  0  0  0  0  0  0  0
   47.3910   33.6540   39.5940 S   0  0  0  0  0  0  0  0  0  0  0  0
   46.2270   32.7960   40.0700 O   0  0  0  0  0  0  0  0  0  0  0  0
   47.5470   33.4690   38.1140 O   0  0  0  0  0  0  0  0  0  0  0  0
  1  6  1  0  0  0  0
  2  1  2  0  0  0  0
  2  3  1  0  0  0  0
  3  4  2  0  0  0  0
  4  5  1  0  0  0  0
  5  9  1  0  0  0  0
  6  5  2  0  0  0  0
  7  2  1  0  0  0  0
  8  3  1  0  0  0  0
  9 12  1  6  0  0  0
  9 11  1  0  0  0  0
  9 10  1  0  0  0  0
 10 14  1  0  0  0  0
 10 13  1  0  0  0  0
 11 10  1  0  0  0  0
 11 16  1  0  0  0  0
 11 15  1  1  0  0  0
 16 18  1  0  0  0  0
 17 16  1  0  0  0  0
 19  1  1  0  0  0  0
 20 19  2  0  0  0  0
 21 22  1  0  0  0  0
 22 19  1  0  0  0  0
 22 23  2  0  0  0  0
 23 24  1  0  0  0  0
 25 23  1  0  0  0  0
 25 26  1  0  0  0  0
 27 25  2  0  0  0  0
 28 21  2  0  0  0  0
 28 27  1  0  0  0  0
 30 29  1  0  0  0  0
 30 31  2  0  0  0  0
 30 21  1  0  0  0  0
 32 30  2  0  0  0  0
M  END
>  <minimizedAffinity>
-5.37353325

>  <minimizedRMSD>
3.45601916

$$$$
