
 OpenBabel03242520543D

 34 35  0  0  0  0  0  0  0  0999 V2000
   46.4180   31.9950   48.8190 C   0  0  0  0  0  0  0  0  0  0  0  0
   45.5390   32.2930   49.4190 H   0  0  0  0  0  0  0  0  0  0  0  0
   47.1590   32.8390   48.9700 H   0  0  0  0  0  0  0  0  0  0  0  0
   48.5090   31.0460   49.2730 C   0  0  0  0  0  0  0  0  0  0  0  0
   49.2460   32.0140   48.9700 O   0  0  0  0  0  0  0  0  0  0  0  0
   47.1190   30.8280   49.2950 N   0  0  0  0  0  0  0  0  0  0  0  0
   46.7250   29.9430   49.6150 H   0  0  0  0  0  0  0  0  0  0  0  0
   49.6030   28.7570   48.9860 C   0  0  0  0  0  0  0  0  0  0  0  0
   49.3620   29.8960   49.6930 C   0  0  0  0  0  0  0  0  0  0  0  0
   49.9310   30.1200   50.9520 C   0  0  0  0  0  0  0  0  0  0  0  0
   49.7810   30.9990   51.5610 H   0  0  0  0  0  0  0  0  0  0  0  0
   50.7700   29.1330   51.4900 C   0  0  0  0  0  0  0  0  0  0  0  0
   51.2110   29.2870   52.4520 H   0  0  0  0  0  0  0  0  0  0  0  0
   51.0290   27.9610   50.7810 C   0  0  0  0  0  3  0  0  0  0  0  0
   50.4300   27.8000   49.5290 C   0  0  0  0  0  3  0  0  0  0  0  0
   47.6650   29.2200   47.3700 H   0  0  0  0  0  0  0  0  0  0  0  0
   48.8510   28.5830   47.4440 S   0  0  0  0  0  0  0  0  0  0  0  0
   49.7470   29.2310   46.4050 O   0  0  0  0  0  0  0  0  0  0  0  0
   48.7370   27.1170   47.0920 O   0  0  0  0  0  0  0  0  0  0  0  0
   46.6540   32.9110   46.5880 C   0  0  0  0  0  3  0  0  0  0  0  0
   46.1930   31.9670   47.3630 C   0  0  0  0  0  3  0  0  0  0  0  0
   45.5950   31.8670   43.2550 C   0  0  0  0  0  0  0  0  0  0  0  0
   46.0690   32.9130   42.4470 C   0  0  0  0  0  0  0  0  0  0  0  0
   46.7480   33.9690   43.0400 C   0  0  0  0  0  0  0  0  0  0  0  0
   46.9080   33.9170   44.3820 N   0  0  0  0  0  0  0  0  0  0  0  0
   46.4530   32.9210   45.1380 C   0  0  0  0  0  0  0  0  0  0  0  0
   45.7910   31.8840   44.5790 N   0  0  0  0  0  0  0  0  0  0  0  0
   45.0920   31.1190   42.6620 H   0  0  0  0  0  0  0  0  0  0  0  0
   45.9740   33.0090   41.3750 H   0  0  0  0  0  0  0  0  0  0  0  0
   47.2640   35.0530   42.3660 O   0  0  0  0  0  0  0  0  0  0  0  0
   48.6460   34.9640   41.9640 C   0  0  0  0  0  0  0  0  0  0  0  0
   48.8200   33.7890   41.2260 F   0  0  0  0  0  0  0  0  0  0  0  0
   48.8960   36.0700   41.1410 F   0  0  0  0  0  0  0  0  0  0  0  0
   49.5110   35.0160   43.0580 F   0  0  0  0  0  0  0  0  0  0  0  0
  1  3  1  0  0  0  0
  1  6  1  0  0  0  0
  1  2  1  0  0  0  0
  4  6  1  0  0  0  0
  4  9  1  0  0  0  0
  5  4  2  0  0  0  0
  6  7  1  0  0  0  0
  8 15  2  0  0  0  0
  8  9  1  0  0  0  0
  9 10  2  0  0  0  0
 10 12  1  0  0  0  0
 10 11  1  0  0  0  0
 12 13  1  0  0  0  0
 14 12  2  0  0  0  0
 15 14  1  0  0  0  0
 16 17  1  0  0  0  0
 17  8  1  0  0  0  0
 18 17  2  0  0  0  0
 19 17  2  0  0  0  0
 20 21  2  0  0  0  0
 21  1  1  0  0  0  0
 22 27  1  0  0  0  0
 23 24  1  0  0  0  0
 23 22  2  0  0  0  0
 24 25  2  0  0  0  0
 25 26  1  0  0  0  0
 26 20  1  0  0  0  0
 27 26  2  0  0  0  0
 28 22  1  0  0  0  0
 29 23  1  0  0  0  0
 30 24  1  0  0  0  0
 31 30  1  0  0  0  0
 31 34  1  0  0  0  0
 32 31  1  0  0  0  0
 33 31  1  0  0  0  0
M  END
>  <minimizedAffinity>
-5.41116238

>  <minimizedRMSD>
3.99059844

$$$$
