
 OpenBabel03242523163D

 30 32  0  0  0  0  0  0  0  0999 V2000
   46.1200   34.1490   44.0820 C   0  0  0  0  0  0  0  0  0  0  0  0
   45.9550   34.9690   43.0320 C   0  0  0  0  0  0  0  0  0  0  0  0
   45.0790   36.0150   43.2500 C   0  0  0  0  0  0  0  0  0  0  0  0
   44.4600   36.1290   44.4910 N   0  0  0  0  0  0  0  0  0  0  0  0
   44.6680   35.2830   45.4810 C   0  0  0  0  0  0  0  0  0  0  0  0
   45.5330   34.2270   45.3080 N   0  0  0  0  0  0  0  0  0  0  0  0
   44.8530   36.7560   42.4840 H   0  0  0  0  0  0  0  0  0  0  0  0
   44.0980   35.5370   46.3640 H   0  0  0  0  0  0  0  0  0  0  0  0
   46.5370   34.8020   41.7610 C   0  0  0  0  0  0  0  0  0  0  0  0
   47.0280   33.6980   41.1330 C   0  0  0  0  0  0  0  0  0  0  0  0
   45.6640   34.1470   40.6060 C   0  0  0  0  0  0  0  0  0  0  0  0
   46.6360   35.8760   41.2750 H   0  0  0  0  0  0  0  0  0  0  0  0
   46.9780   32.6550   41.5740 H   0  0  0  0  0  0  0  0  0  0  0  0
   47.8050   33.7110   40.3320 H   0  0  0  0  0  0  0  0  0  0  0  0
   44.7690   33.6540   41.0320 H   0  0  0  0  0  0  0  0  0  0  0  0
   45.5990   34.6280   39.6480 H   0  0  0  0  0  0  0  0  0  0  0  0
   47.0780   33.0490   44.2270 C   0  0  0  0  0  0  0  0  0  0  0  0
   48.1600   32.5610   43.9070 O   0  0  0  0  0  0  0  0  0  0  0  0
   45.8230   30.8980   44.8750 C   0  0  0  0  0  0  0  0  0  0  0  0
   46.5770   32.0070   45.1690 C   0  0  0  0  0  0  0  0  0  0  0  0
   46.9490   32.0940   46.5250 C   0  0  0  0  0  0  0  0  0  0  0  0
   47.5470   32.9680   46.7900 H   0  0  0  0  0  0  0  0  0  0  0  0
   46.6550   31.2230   47.5510 C   0  0  0  0  0  0  0  0  0  0  0  0
   47.0140   31.4300   48.5430 H   0  0  0  0  0  0  0  0  0  0  0  0
   45.9000   30.1360   47.1840 C   0  0  0  0  0  0  0  0  0  0  0  0
   45.4940   29.9760   45.8790 C   0  0  0  0  0  0  0  0  0  0  0  0
   44.4290   29.5660   43.2800 H   0  0  0  0  0  0  0  0  0  0  0  0
   45.2210   30.7200   43.2800 S   0  0  0  0  0  0  0  0  0  0  0  0
   46.2000   30.5160   42.2010 O   0  0  0  0  0  0  0  0  0  0  0  0
   44.2130   31.8120   42.9250 O   0  0  0  0  0  0  0  0  0  0  0  0
  1 17  1  0  0  0  0
  1  6  1  0  0  0  0
  2  3  1  0  0  0  0
  2  1  2  0  0  0  0
  3  4  2  0  0  0  0
  4  5  1  0  0  0  0
  5  8  1  0  0  0  0
  6  5  2  0  0  0  0
  7  3  1  0  0  0  0
  9  2  1  0  0  0  0
 10 13  1  0  0  0  0
 10  9  1  0  0  0  0
 11 15  1  0  0  0  0
 11 10  1  0  0  0  0
 11  9  1  0  0  0  0
 12  9  1  0  0  0  0
 14 10  1  0  0  0  0
 16 11  1  0  0  0  0
 17 20  1  0  0  0  0
 18 17  2  0  0  0  0
 19 20  2  0  0  0  0
 19 26  1  0  0  0  0
 20 21  1  0  0  0  0
 21 22  1  0  0  0  0
 21 23  2  0  0  0  0
 23 24  1  0  0  0  0
 25 23  1  0  0  0  0
 26 25  2  0  0  0  0
 28 27  1  0  0  0  0
 28 19  1  0  0  0  0
 29 28  2  0  0  0  0
 30 28  2  0  0  0  0
M  END
>  <minimizedAffinity>
-4.67455769

>  <minimizedRMSD>
5.38777113

$$$$
