
 OpenBabel03252503293D

 28 29  0  0  0  0  0  0  0  0999 V2000
   39.3960   27.9270   41.7390 C   0  0  0  0  0  0  0  0  0  0  0  0
   38.3730   27.0030   41.4740 C   0  0  0  0  0  0  0  0  0  0  0  0
   38.3560   25.8580   42.3030 C   0  0  0  0  0  0  0  0  0  0  0  0
   39.2980   25.7510   43.2540 N   0  0  0  0  0  0  0  0  0  0  0  0
   40.2670   26.6640   43.4770 C   0  0  0  0  0  0  0  0  0  0  0  0
   40.3080   27.7710   42.6990 N   0  0  0  0  0  0  0  0  0  0  0  0
   38.5030   30.0640   41.2920 C   0  0  0  0  0  0  0  0  0  0  0  0
   37.6920   29.7620   42.2410 O   0  0  0  0  0  0  0  0  0  0  0  0
   39.5070   29.1250   40.9560 N   0  0  0  0  0  0  0  0  0  0  0  0
   37.6750   27.1840   40.6930 H   0  0  0  0  0  0  0  0  0  0  0  0
   40.9740   26.4720   44.2730 H   0  0  0  0  0  0  0  0  0  0  0  0
   40.1440   29.4460   40.2190 H   0  0  0  0  0  0  0  0  0  0  0  0
   37.3410   31.6030   39.7060 C   0  0  0  0  0  0  0  0  0  0  0  0
   38.2350   31.3740   40.7060 C   0  0  0  0  0  0  0  0  0  0  0  0
   38.9790   32.3970   41.2580 C   0  0  0  0  0  0  0  0  0  0  0  0
   39.6980   32.2570   42.0510 H   0  0  0  0  0  0  0  0  0  0  0  0
   38.8540   33.7180   40.8190 C   0  0  0  0  0  0  0  0  0  0  0  0
   39.4140   34.5540   41.2170 H   0  0  0  0  0  0  0  0  0  0  0  0
   37.9270   33.9190   39.7900 C   0  0  0  0  0  3  0  0  0  0  0  0
   37.1730   32.9070   39.2260 C   0  0  0  0  0  3  0  0  0  0  0  0
   35.8700   30.6530   37.8670 H   0  0  0  0  0  0  0  0  0  0  0  0
   36.4440   30.2770   39.0640 S   0  0  0  0  0  0  0  0  0  0  0  0
   37.3450   29.1030   38.7540 O   0  0  0  0  0  0  0  0  0  0  0  0
   35.3840   29.7720   40.0180 O   0  0  0  0  0  0  0  0  0  0  0  0
   37.2790   24.9050   42.0100 C   0  0  0  0  0  0  0  0  0  0  0  0
   36.7100   25.2470   40.7730 F   0  0  0  0  0  0  0  0  0  0  0  0
   36.2850   25.1170   42.9440 F   0  0  0  0  0  0  0  0  0  0  0  0
   37.6970   23.6080   41.9250 F   0  0  0  0  0  0  0  0  0  0  0  0
  1  6  1  0  0  0  0
  2  1  2  0  0  0  0
  2  3  1  0  0  0  0
  3  4  2  0  0  0  0
  4  5  1  0  0  0  0
  5 11  1  0  0  0  0
  6  5  2  0  0  0  0
  7  8  2  0  0  0  0
  9  7  1  0  0  0  0
  9  1  1  0  0  0  0
 10  2  1  0  0  0  0
 12  9  1  0  0  0  0
 13 14  1  0  0  0  0
 14 15  2  0  0  0  0
 14  7  1  0  0  0  0
 15 16  1  0  0  0  0
 17 18  1  0  0  0  0
 17 15  1  0  0  0  0
 19 17  2  0  0  0  0
 20 13  2  0  0  0  0
 20 19  1  0  0  0  0
 21 22  1  0  0  0  0
 22 13  1  0  0  0  0
 22 24  2  0  0  0  0
 23 22  2  0  0  0  0
 25  3  1  0  0  0  0
 25 27  1  0  0  0  0
 26 25  1  0  0  0  0
 28 25  1  0  0  0  0
M  END
>  <minimizedAffinity>
-5.53953171

$$$$

 OpenBabel03252503293D

 28 29  0  0  0  0  0  0  0  0999 V2000
   37.2840   31.0340   37.5700 C   0  0  0  0  0  0  0  0  0  0  0  0
   36.6800   30.6750   38.7850 C   0  0  0  0  0  0  0  0  0  0  0  0
   35.7740   29.5920   38.7190 C   0  0  0  0  0  0  0  0  0  0  0  0
   35.5700   29.0090   37.5270 N   0  0  0  0  0  0  0  0  0  0  0  0
   36.1720   29.3850   36.3790 C   0  0  0  0  0  0  0  0  0  0  0  0
   37.0450   30.4190   36.4110 N   0  0  0  0  0  0  0  0  0  0  0  0
   39.4660   31.7640   38.0930 C   0  0  0  0  0  0  0  0  0  0  0  0
   39.6090   30.5600   38.5140 O   0  0  0  0  0  0  0  0  0  0  0  0
   38.2210   32.1210   37.5220 N   0  0  0  0  0  0  0  0  0  0  0  0
   36.9120   31.2040   39.6770 H   0  0  0  0  0  0  0  0  0  0  0  0
   35.9300   28.8410   35.4750 H   0  0  0  0  0  0  0  0  0  0  0  0
   38.1870   33.0840   37.1700 H   0  0  0  0  0  0  0  0  0  0  0  0
   40.8560   33.4220   39.3370 C   0  0  0  0  0  0  0  0  0  0  0  0
   40.6580   32.5840   38.2850 C   0  0  0  0  0  0  0  0  0  0  0  0
   41.6020   32.4410   37.2880 C   0  0  0  0  0  0  0  0  0  0  0  0
   41.4830   31.7870   36.4370 H   0  0  0  0  0  0  0  0  0  0  0  0
   42.8070   33.1500   37.3060 C   0  0  0  0  0  0  0  0  0  0  0  0
   43.5760   33.0740   36.5510 H   0  0  0  0  0  0  0  0  0  0  0  0
   42.9780   34.0030   38.4030 C   0  0  0  0  0  3  0  0  0  0  0  0
   42.0440   34.1580   39.4110 C   0  0  0  0  0  3  0  0  0  0  0  0
   39.9590   34.5710   41.4180 H   0  0  0  0  0  0  0  0  0  0  0  0
   39.6350   33.5500   40.5480 S   0  0  0  0  0  0  0  0  0  0  0  0
   38.2980   33.9150   39.9440 O   0  0  0  0  0  0  0  0  0  0  0  0
   39.4290   32.2590   41.3100 O   0  0  0  0  0  0  0  0  0  0  0  0
   35.1550   29.2320   40.0000 C   0  0  0  0  0  0  0  0  0  0  0  0
   35.5110   30.2020   40.9510 F   0  0  0  0  0  0  0  0  0  0  0  0
   35.7510   28.0620   40.4240 F   0  0  0  0  0  0  0  0  0  0  0  0
   33.7910   29.1790   39.9590 F   0  0  0  0  0  0  0  0  0  0  0  0
  1  2  1  0  0  0  0
  2 10  1  0  0  0  0
  3  2  2  0  0  0  0
  3 25  1  0  0  0  0
  4  3  1  0  0  0  0
  5  6  1  0  0  0  0
  5  4  2  0  0  0  0
  6  1  2  0  0  0  0
  7 14  1  0  0  0  0
  7  8  2  0  0  0  0
  9  1  1  0  0  0  0
  9  7  1  0  0  0  0
 11  5  1  0  0  0  0
 12  9  1  0  0  0  0
 13 20  1  0  0  0  0
 13 22  1  0  0  0  0
 14 13  2  0  0  0  0
 15 17  2  0  0  0  0
 15 14  1  0  0  0  0
 16 15  1  0  0  0  0
 17 19  1  0  0  0  0
 18 17  1  0  0  0  0
 19 20  2  0  0  0  0
 22 24  2  0  0  0  0
 22 21  1  0  0  0  0
 23 22  2  0  0  0  0
 25 27  1  0  0  0  0
 25 26  1  0  0  0  0
 28 25  1  0  0  0  0
M  END
>  <minimizedAffinity>
-5.43040419

$$$$

 OpenBabel03252503293D

 28 29  0  0  0  0  0  0  0  0999 V2000
   38.0260   29.6640   38.4900 C   0  0  0  0  0  0  0  0  0  0  0  0
   38.0680   30.7580   39.3680 C   0  0  0  0  0  0  0  0  0  0  0  0
   37.7990   32.0180   38.7850 C   0  0  0  0  0  0  0  0  0  0  0  0
   37.5310   32.0620   37.4700 N   0  0  0  0  0  0  0  0  0  0  0  0
   37.5000   30.9840   36.6590 C   0  0  0  0  0  0  0  0  0  0  0  0
   37.7540   29.7640   37.1890 N   0  0  0  0  0  0  0  0  0  0  0  0
   37.1990   27.8370   39.7330 C   0  0  0  0  0  0  0  0  0  0  0  0
   36.1530   28.5730   39.8420 O   0  0  0  0  0  0  0  0  0  0  0  0
   38.2850   28.3380   38.9770 N   0  0  0  0  0  0  0  0  0  0  0  0
   38.2920   30.6130   40.3970 H   0  0  0  0  0  0  0  0  0  0  0  0
   37.2730   31.1400   35.6130 H   0  0  0  0  0  0  0  0  0  0  0  0
   39.0720   27.6840   38.8970 H   0  0  0  0  0  0  0  0  0  0  0  0
   37.4430   26.3610   41.7320 C   0  0  0  0  0  0  0  0  0  0  0  0
   37.0780   26.5630   40.4370 C   0  0  0  0  0  0  0  0  0  0  0  0
   36.5490   25.5470   39.6680 C   0  0  0  0  0  0  0  0  0  0  0  0
   36.2480   25.6670   38.6380 H   0  0  0  0  0  0  0  0  0  0  0  0
   36.3620   24.2590   40.1770 C   0  0  0  0  0  0  0  0  0  0  0  0
   35.9530   23.4300   39.6170 H   0  0  0  0  0  0  0  0  0  0  0  0
   36.7470   24.0840   41.5120 C   0  0  0  0  0  3  0  0  0  0  0  0
   37.2770   25.0910   42.2970 C   0  0  0  0  0  3  0  0  0  0  0  0
   38.5870   28.6280   41.7640 H   0  0  0  0  0  0  0  0  0  0  0  0
   38.0960   27.6770   42.6350 S   0  0  0  0  0  0  0  0  0  0  0  0
   37.0290   28.3630   43.4570 O   0  0  0  0  0  0  0  0  0  0  0  0
   39.1770   27.2440   43.6010 O   0  0  0  0  0  0  0  0  0  0  0  0
   37.8470   33.1480   39.7190 C   0  0  0  0  0  0  0  0  0  0  0  0
   39.1060   33.7600   39.6070 F   0  0  0  0  0  0  0  0  0  0  0  0
   37.8050   32.6230   40.9950 F   0  0  0  0  0  0  0  0  0  0  0  0
   36.9040   34.1050   39.4790 F   0  0  0  0  0  0  0  0  0  0  0  0
  1  9  1  0  0  0  0
  1  2  1  0  0  0  0
  2 10  1  0  0  0  0
  3  2  2  0  0  0  0
  3 25  1  0  0  0  0
  4  3  1  0  0  0  0
  5  6  1  0  0  0  0
  5  4  2  0  0  0  0
  6  1  2  0  0  0  0
  7  8  2  0  0  0  0
  7 14  1  0  0  0  0
  9  7  1  0  0  0  0
 11  5  1  0  0  0  0
 12  9  1  0  0  0  0
 13 20  1  0  0  0  0
 13 22  1  0  0  0  0
 14 13  2  0  0  0  0
 15 17  2  0  0  0  0
 15 14  1  0  0  0  0
 16 15  1  0  0  0  0
 17 19  1  0  0  0  0
 18 17  1  0  0  0  0
 19 20  2  0  0  0  0
 21 22  1  0  0  0  0
 22 23  2  0  0  0  0
 22 24  2  0  0  0  0
 25 27  1  0  0  0  0
 26 25  1  0  0  0  0
 28 25  1  0  0  0  0
M  END
>  <minimizedAffinity>
-5.40344906

$$$$

 OpenBabel03252503293D

 28 29  0  0  0  0  0  0  0  0999 V2000
   38.4970   28.8940   42.8100 C   0  0  0  0  0  0  0  0  0  0  0  0
   39.4640   27.8810   42.9020 C   0  0  0  0  0  0  0  0  0  0  0  0
   38.9610   26.5620   42.9660 C   0  0  0  0  0  0  0  0  0  0  0  0
   37.6290   26.3910   42.9350 N   0  0  0  0  0  0  0  0  0  0  0  0
   36.7310   27.3940   42.8460 C   0  0  0  0  0  0  0  0  0  0  0  0
   37.1830   28.6680   42.7830 N   0  0  0  0  0  0  0  0  0  0  0  0
   39.4310   30.5960   41.4710 C   0  0  0  0  0  0  0  0  0  0  0  0
   39.4430   29.6800   40.5720 O   0  0  0  0  0  0  0  0  0  0  0  0
   38.8980   30.2710   42.7400 N   0  0  0  0  0  0  0  0  0  0  0  0
   40.4980   28.1260   42.9200 H   0  0  0  0  0  0  0  0  0  0  0  0
   35.6800   27.1350   42.8290 H   0  0  0  0  0  0  0  0  0  0  0  0
   38.8820   31.0590   43.3980 H   0  0  0  0  0  0  0  0  0  0  0  0
   39.2930   32.8110   40.3270 C   0  0  0  0  0  0  0  0  0  0  0  0
   39.9920   31.8620   41.0050 C   0  0  0  0  0  0  0  0  0  0  0  0
   41.3270   32.0300   41.3150 C   0  0  0  0  0  0  0  0  0  0  0  0
   41.9160   31.3010   41.8510 H   0  0  0  0  0  0  0  0  0  0  0  0
   42.0280   33.1820   40.9480 C   0  0  0  0  0  0  0  0  0  0  0  0
   43.0720   33.3610   41.1650 H   0  0  0  0  0  0  0  0  0  0  0  0
   41.2800   34.1380   40.2510 C   0  0  0  0  0  3  0  0  0  0  0  0
   39.9430   33.9870   39.9340 C   0  0  0  0  0  3  0  0  0  0  0  0
   36.9850   32.1050   41.1180 H   0  0  0  0  0  0  0  0  0  0  0  0
   37.6270   32.5350   39.9750 S   0  0  0  0  0  0  0  0  0  0  0  0
   36.9360   33.8110   39.5530 O   0  0  0  0  0  0  0  0  0  0  0  0
   37.4240   31.5390   38.8540 O   0  0  0  0  0  0  0  0  0  0  0  0
   39.9880   25.5180   43.0610 C   0  0  0  0  0  0  0  0  0  0  0  0
   40.3300   25.1160   41.7600 F   0  0  0  0  0  0  0  0  0  0  0  0
   39.3930   24.4170   43.6430 F   0  0  0  0  0  0  0  0  0  0  0  0
   41.1340   25.9250   43.6800 F   0  0  0  0  0  0  0  0  0  0  0  0
  1  2  1  0  0  0  0
  2 10  1  0  0  0  0
  2  3  2  0  0  0  0
  3 25  1  0  0  0  0
  4  3  1  0  0  0  0
  5  4  2  0  0  0  0
  6  1  2  0  0  0  0
  6  5  1  0  0  0  0
  7  9  1  0  0  0  0
  8  7  2  0  0  0  0
  9  1  1  0  0  0  0
  9 12  1  0  0  0  0
 11  5  1  0  0  0  0
 13 14  1  0  0  0  0
 14 15  2  0  0  0  0
 14  7  1  0  0  0  0
 15 16  1  0  0  0  0
 17 18  1  0  0  0  0
 17 15  1  0  0  0  0
 19 17  2  0  0  0  0
 20 19  1  0  0  0  0
 20 13  2  0  0  0  0
 22 13  1  0  0  0  0
 22 21  1  0  0  0  0
 23 22  2  0  0  0  0
 24 22  2  0  0  0  0
 25 27  1  0  0  0  0
 25 28  1  0  0  0  0
 26 25  1  0  0  0  0
M  END
>  <minimizedAffinity>
-5.31382418

$$$$

 OpenBabel03252503293D

 28 29  0  0  0  0  0  0  0  0999 V2000
   39.9040   31.4480   41.3450 C   0  0  0  0  0  0  0  0  0  0  0  0
   38.6870   31.5630   40.6550 C   0  0  0  0  0  0  0  0  0  0  0  0
   38.6120   32.6230   39.7230 C   0  0  0  0  0  0  0  0  0  0  0  0
   39.6870   33.4150   39.5790 N   0  0  0  0  0  0  0  0  0  0  0  0
   40.8410   33.2710   40.2630 C   0  0  0  0  0  0  0  0  0  0  0  0
   40.9420   32.2640   41.1620 N   0  0  0  0  0  0  0  0  0  0  0  0
   40.2600   29.1430   41.6990 C   0  0  0  0  0  0  0  0  0  0  0  0
   40.2780   29.0980   40.4170 O   0  0  0  0  0  0  0  0  0  0  0  0
   40.0880   30.4060   42.3150 N   0  0  0  0  0  0  0  0  0  0  0  0
   37.8950   30.8800   40.8450 H   0  0  0  0  0  0  0  0  0  0  0  0
   41.6420   33.9710   40.0630 H   0  0  0  0  0  0  0  0  0  0  0  0
   40.1220   30.3760   43.3400 H   0  0  0  0  0  0  0  0  0  0  0  0
   39.4060   27.0740   42.8060 C   0  0  0  0  0  0  0  0  0  0  0  0
   40.4260   27.8320   42.3210 C   0  0  0  0  0  0  0  0  0  0  0  0
   41.7360   27.4030   42.3810 C   0  0  0  0  0  0  0  0  0  0  0  0
   42.5730   27.9740   42.0070 H   0  0  0  0  0  0  0  0  0  0  0  0
   42.0830   26.1710   42.9440 C   0  0  0  0  0  0  0  0  0  0  0  0
   43.0920   25.7910   43.0160 H   0  0  0  0  0  0  0  0  0  0  0  0
   41.0100   25.4170   43.4340 C   0  0  0  0  0  3  0  0  0  0  0  0
   39.6920   25.8310   43.3810 C   0  0  0  0  0  3  0  0  0  0  0  0
   37.5500   28.0990   41.4070 H   0  0  0  0  0  0  0  0  0  0  0  0
   37.7910   27.6730   42.6970 S   0  0  0  0  0  0  0  0  0  0  0  0
   36.7820   26.5840   42.9810 O   0  0  0  0  0  0  0  0  0  0  0  0
   37.5140   28.7900   43.6790 O   0  0  0  0  0  0  0  0  0  0  0  0
   37.3330   32.7260   39.0120 C   0  0  0  0  0  0  0  0  0  0  0  0
   36.4330   31.8150   39.5880 F   0  0  0  0  0  0  0  0  0  0  0  0
   37.5450   32.2720   37.7260 F   0  0  0  0  0  0  0  0  0  0  0  0
   36.7610   33.9640   39.0790 F   0  0  0  0  0  0  0  0  0  0  0  0
  1  9  1  0  0  0  0
  2 10  1  0  0  0  0
  2  1  2  0  0  0  0
  3  2  1  0  0  0  0
  4  3  2  0  0  0  0
  4  5  1  0  0  0  0
  5  6  2  0  0  0  0
  6  1  1  0  0  0  0
  7  9  1  0  0  0  0
  7 14  1  0  0  0  0
  8  7  2  0  0  0  0
  9 12  1  0  0  0  0
 11  5  1  0  0  0  0
 13 20  1  0  0  0  0
 14 15  1  0  0  0  0
 14 13  2  0  0  0  0
 15 17  2  0  0  0  0
 16 15  1  0  0  0  0
 17 18  1  0  0  0  0
 17 19  1  0  0  0  0
 20 19  2  0  0  0  0
 21 22  1  0  0  0  0
 22 13  1  0  0  0  0
 22 23  2  0  0  0  0
 22 24  2  0  0  0  0
 25 28  1  0  0  0  0
 25 26  1  0  0  0  0
 25  3  1  0  0  0  0
 27 25  1  0  0  0  0
M  END
>  <minimizedAffinity>
-5.28021049

$$$$

 OpenBabel03252503293D

 28 29  0  0  0  0  0  0  0  0999 V2000
   37.7590   29.2550   39.7920 C   0  0  0  0  0  0  0  0  0  0  0  0
   37.8050   29.1410   41.1900 C   0  0  0  0  0  0  0  0  0  0  0  0
   37.3210   27.9230   41.7190 C   0  0  0  0  0  0  0  0  0  0  0  0
   36.8670   26.9960   40.8600 N   0  0  0  0  0  0  0  0  0  0  0  0
   36.8400   27.1450   39.5180 C   0  0  0  0  0  0  0  0  0  0  0  0
   37.2960   28.3010   38.9830 N   0  0  0  0  0  0  0  0  0  0  0  0
   39.6380   30.5340   39.1590 C   0  0  0  0  0  0  0  0  0  0  0  0
   40.2920   29.5550   39.6700 O   0  0  0  0  0  0  0  0  0  0  0  0
   38.2250   30.4510   39.1490 N   0  0  0  0  0  0  0  0  0  0  0  0
   38.1850   29.9380   41.7810 H   0  0  0  0  0  0  0  0  0  0  0  0
   36.4500   26.3280   38.9240 H   0  0  0  0  0  0  0  0  0  0  0  0
   37.7660   31.2460   38.6900 H   0  0  0  0  0  0  0  0  0  0  0  0
   40.4970   32.8770   39.1260 C   0  0  0  0  0  0  0  0  0  0  0  0
   40.5000   31.6000   38.6580 C   0  0  0  0  0  0  0  0  0  0  0  0
   41.3460   31.2050   37.6420 C   0  0  0  0  0  0  0  0  0  0  0  0
   41.3790   30.2020   37.2420 H   0  0  0  0  0  0  0  0  0  0  0  0
   42.2420   32.0940   37.0410 C   0  0  0  0  0  0  0  0  0  0  0  0
   42.9230   31.8350   36.2430 H   0  0  0  0  0  0  0  0  0  0  0  0
   42.2140   33.4000   37.5460 C   0  0  0  0  0  3  0  0  0  0  0  0
   41.3730   33.8120   38.5640 C   0  0  0  0  0  3  0  0  0  0  0  0
   39.7510   34.5450   40.8910 H   0  0  0  0  0  0  0  0  0  0  0  0
   39.4140   33.3010   40.3990 S   0  0  0  0  0  0  0  0  0  0  0  0
   37.9920   33.4130   39.8970 O   0  0  0  0  0  0  0  0  0  0  0  0
   39.3990   32.2830   41.5180 O   0  0  0  0  0  0  0  0  0  0  0  0
   37.3790   27.8240   43.1820 C   0  0  0  0  0  0  0  0  0  0  0  0
   36.2090   27.1880   43.6280 F   0  0  0  0  0  0  0  0  0  0  0  0
   37.3130   29.1100   43.6790 F   0  0  0  0  0  0  0  0  0  0  0  0
   38.4400   27.1010   43.6450 F   0  0  0  0  0  0  0  0  0  0  0  0
  1  2  1  0  0  0  0
  2  3  2  0  0  0  0
  2 10  1  0  0  0  0
  3 25  1  0  0  0  0
  4  3  1  0  0  0  0
  5  4  2  0  0  0  0
  6  5  1  0  0  0  0
  6  1  2  0  0  0  0
  7  8  2  0  0  0  0
  9  7  1  0  0  0  0
  9  1  1  0  0  0  0
 11  5  1  0  0  0  0
 12  9  1  0  0  0  0
 13 22  1  0  0  0  0
 14 13  1  0  0  0  0
 14  7  1  0  0  0  0
 15 14  2  0  0  0  0
 16 15  1  0  0  0  0
 17 19  2  0  0  0  0
 17 15  1  0  0  0  0
 18 17  1  0  0  0  0
 19 20  1  0  0  0  0
 20 13  2  0  0  0  0
 22 21  1  0  0  0  0
 22 24  2  0  0  0  0
 23 22  2  0  0  0  0
 25 26  1  0  0  0  0
 25 28  1  0  0  0  0
 25 27  1  0  0  0  0
M  END
>  <minimizedAffinity>
-5.23056555

$$$$

 OpenBabel03252503293D

 28 29  0  0  0  0  0  0  0  0999 V2000
   38.2210   29.6910   41.7560 C   0  0  0  0  0  0  0  0  0  0  0  0
   37.7110   30.5210   40.7460 C   0  0  0  0  0  0  0  0  0  0  0  0
   38.3410   31.7800   40.6150 C   0  0  0  0  0  0  0  0  0  0  0  0
   39.3520   32.0700   41.4500 N   0  0  0  0  0  0  0  0  0  0  0  0
   39.8140   31.2420   42.4100 C   0  0  0  0  0  0  0  0  0  0  0  0
   39.2300   30.0300   42.5590 N   0  0  0  0  0  0  0  0  0  0  0  0
   38.0340   27.4760   40.9640 C   0  0  0  0  0  0  0  0  0  0  0  0
   38.8360   27.8910   40.0510 O   0  0  0  0  0  0  0  0  0  0  0  0
   37.6540   28.3900   41.9760 N   0  0  0  0  0  0  0  0  0  0  0  0
   36.9040   30.1930   40.1370 H   0  0  0  0  0  0  0  0  0  0  0  0
   40.6350   31.5850   43.0260 H   0  0  0  0  0  0  0  0  0  0  0  0
   37.0450   27.9840   42.6940 H   0  0  0  0  0  0  0  0  0  0  0  0
   38.2030   25.0340   41.4500 C   0  0  0  0  0  0  0  0  0  0  0  0
   37.6400   26.0810   40.7900 C   0  0  0  0  0  0  0  0  0  0  0  0
   36.6220   25.8960   39.8770 C   0  0  0  0  0  0  0  0  0  0  0  0
   36.1500   26.7010   39.3320 H   0  0  0  0  0  0  0  0  0  0  0  0
   36.1170   24.6260   39.5830 C   0  0  0  0  0  0  0  0  0  0  0  0
   35.3230   24.4290   38.8770 H   0  0  0  0  0  0  0  0  0  0  0  0
   36.7180   23.5710   40.2800 C   0  0  0  0  0  3  0  0  0  0  0  0
   37.7380   23.7380   41.1980 C   0  0  0  0  0  3  0  0  0  0  0  0
   40.5130   25.9740   41.9340 H   0  0  0  0  0  0  0  0  0  0  0  0
   39.4710   25.3380   42.5790 S   0  0  0  0  0  0  0  0  0  0  0  0
   39.0170   26.2720   43.6780 O   0  0  0  0  0  0  0  0  0  0  0  0
   39.9660   24.0780   43.2560 O   0  0  0  0  0  0  0  0  0  0  0  0
   37.7940   32.6320   39.5530 C   0  0  0  0  0  0  0  0  0  0  0  0
   38.7720   32.7770   38.5560 F   0  0  0  0  0  0  0  0  0  0  0  0
   37.6270   33.8920   40.0910 F   0  0  0  0  0  0  0  0  0  0  0  0
   36.6740   32.1260   38.9600 F   0  0  0  0  0  0  0  0  0  0  0  0
  1  9  1  0  0  0  0
  1  6  1  0  0  0  0
  2  1  2  0  0  0  0
  3  2  1  0  0  0  0
  3  4  2  0  0  0  0
  4  5  1  0  0  0  0
  5  6  2  0  0  0  0
  5 11  1  0  0  0  0
  7  9  1  0  0  0  0
  8  7  2  0  0  0  0
  9 12  1  0  0  0  0
 10  2  1  0  0  0  0
 13 22  1  0  0  0  0
 14  7  1  0  0  0  0
 14 13  2  0  0  0  0
 15 14  1  0  0  0  0
 16 15  1  0  0  0  0
 17 15  2  0  0  0  0
 17 19  1  0  0  0  0
 18 17  1  0  0  0  0
 19 20  2  0  0  0  0
 20 13  1  0  0  0  0
 21 22  1  0  0  0  0
 22 24  2  0  0  0  0
 22 23  2  0  0  0  0
 25 27  1  0  0  0  0
 25  3  1  0  0  0  0
 26 25  1  0  0  0  0
 28 25  1  0  0  0  0
M  END
>  <minimizedAffinity>
-5.22692537

$$$$

 OpenBabel03252503293D

 28 29  0  0  0  0  0  0  0  0999 V2000
   39.5170   29.6240   39.7980 C   0  0  0  0  0  0  0  0  0  0  0  0
   38.5750   30.5850   40.1950 C   0  0  0  0  0  0  0  0  0  0  0  0
   38.6030   31.8010   39.4750 C   0  0  0  0  0  0  0  0  0  0  0  0
   39.5090   31.9320   38.4920 N   0  0  0  0  0  0  0  0  0  0  0  0
   40.4000   30.9820   38.1400 C   0  0  0  0  0  0  0  0  0  0  0  0
   40.3960   29.8070   38.8120 N   0  0  0  0  0  0  0  0  0  0  0  0
   38.4950   27.5180   40.0940 C   0  0  0  0  0  0  0  0  0  0  0  0
   37.6680   27.9610   39.2180 O   0  0  0  0  0  0  0  0  0  0  0  0
   39.5770   28.3530   40.4630 N   0  0  0  0  0  0  0  0  0  0  0  0
   37.9000   30.3790   40.9900 H   0  0  0  0  0  0  0  0  0  0  0  0
   41.0840   31.2010   37.3300 H   0  0  0  0  0  0  0  0  0  0  0  0
   40.2210   27.9230   41.1360 H   0  0  0  0  0  0  0  0  0  0  0  0
   37.5060   25.9190   41.7360 C   0  0  0  0  0  0  0  0  0  0  0  0
   38.1610   26.1800   40.5720 C   0  0  0  0  0  0  0  0  0  0  0  0
   38.5710   25.1660   39.7310 C   0  0  0  0  0  0  0  0  0  0  0  0
   39.0930   25.3310   38.8000 H   0  0  0  0  0  0  0  0  0  0  0  0
   38.3370   23.8210   40.0290 C   0  0  0  0  0  0  0  0  0  0  0  0
   38.6380   22.9910   39.4060 H   0  0  0  0  0  0  0  0  0  0  0  0
   37.6610   23.5870   41.2330 C   0  0  0  0  0  3  0  0  0  0  0  0
   37.2420   24.5900   42.0870 C   0  0  0  0  0  3  0  0  0  0  0  0
   36.4120   26.7430   43.8750 H   0  0  0  0  0  0  0  0  0  0  0  0
   37.0220   27.2350   42.7390 S   0  0  0  0  0  0  0  0  0  0  0  0
   38.2140   28.0360   43.2090 O   0  0  0  0  0  0  0  0  0  0  0  0
   36.1010   28.2040   42.0290 O   0  0  0  0  0  0  0  0  0  0  0  0
   37.6100   32.7920   39.9050 C   0  0  0  0  0  0  0  0  0  0  0  0
   38.2690   33.7800   40.6540 F   0  0  0  0  0  0  0  0  0  0  0  0
   36.7640   32.1590   40.7930 F   0  0  0  0  0  0  0  0  0  0  0  0
   36.9700   33.4170   38.8740 F   0  0  0  0  0  0  0  0  0  0  0  0
  1  2  1  0  0  0  0
  1  9  1  0  0  0  0
  2 10  1  0  0  0  0
  3 25  1  0  0  0  0
  3  2  2  0  0  0  0
  4  3  1  0  0  0  0
  5  4  2  0  0  0  0
  5  6  1  0  0  0  0
  6  1  2  0  0  0  0
  7  9  1  0  0  0  0
  7 14  1  0  0  0  0
  8  7  2  0  0  0  0
  9 12  1  0  0  0  0
 11  5  1  0  0  0  0
 13 20  1  0  0  0  0
 13 22  1  0  0  0  0
 14 13  2  0  0  0  0
 15 17  2  0  0  0  0
 15 14  1  0  0  0  0
 16 15  1  0  0  0  0
 17 19  1  0  0  0  0
 18 17  1  0  0  0  0
 19 20  2  0  0  0  0
 22 23  2  0  0  0  0
 22 21  1  0  0  0  0
 24 22  2  0  0  0  0
 25 26  1  0  0  0  0
 25 27  1  0  0  0  0
 28 25  1  0  0  0  0
M  END
>  <minimizedAffinity>
-5.15058804

$$$$

 OpenBabel03252503293D

 28 29  0  0  0  0  0  0  0  0999 V2000
   41.0080   32.4010   37.3400 C   0  0  0  0  0  0  0  0  0  0  0  0
   42.0220   31.6240   36.7570 C   0  0  0  0  0  0  0  0  0  0  0  0
   43.3440   31.9940   37.0930 C   0  0  0  0  0  0  0  0  0  0  0  0
   43.5170   33.0360   37.9230 N   0  0  0  0  0  0  0  0  0  0  0  0
   42.5140   33.7590   38.4640 C   0  0  0  0  0  0  0  0  0  0  0  0
   41.2370   33.4280   38.1600 N   0  0  0  0  0  0  0  0  0  0  0  0
   39.1940   30.9480   37.7420 C   0  0  0  0  0  0  0  0  0  0  0  0
   40.0300   30.3560   38.5160 O   0  0  0  0  0  0  0  0  0  0  0  0
   39.6290   32.1120   37.0660 N   0  0  0  0  0  0  0  0  0  0  0  0
   41.7750   30.8180   36.1110 H   0  0  0  0  0  0  0  0  0  0  0  0
   42.7740   34.5790   39.1200 H   0  0  0  0  0  0  0  0  0  0  0  0
   38.9010   32.5580   36.4960 H   0  0  0  0  0  0  0  0  0  0  0  0
   36.9040   30.4710   38.6140 C   0  0  0  0  0  0  0  0  0  0  0  0
   37.8910   30.2900   37.6960 C   0  0  0  0  0  0  0  0  0  0  0  0
   37.7290   29.4440   36.6190 C   0  0  0  0  0  0  0  0  0  0  0  0
   38.4880   29.2720   35.8690 H   0  0  0  0  0  0  0  0  0  0  0  0
   36.5450   28.7290   36.4140 C   0  0  0  0  0  0  0  0  0  0  0  0
   36.3690   28.0550   35.5890 H   0  0  0  0  0  0  0  0  0  0  0  0
   35.5500   28.9390   37.3760 C   0  0  0  0  0  3  0  0  0  0  0  0
   35.6950   29.7830   38.4620 C   0  0  0  0  0  3  0  0  0  0  0  0
   38.4900   31.4480   40.3420 H   0  0  0  0  0  0  0  0  0  0  0  0
   37.1750   31.5460   39.9360 S   0  0  0  0  0  0  0  0  0  0  0  0
   36.9620   32.9850   39.5270 O   0  0  0  0  0  0  0  0  0  0  0  0
   36.2470   31.2840   41.1020 O   0  0  0  0  0  0  0  0  0  0  0  0
   44.3880   31.1700   36.4750 C   0  0  0  0  0  0  0  0  0  0  0  0
   43.8380   30.5280   35.3530 F   0  0  0  0  0  0  0  0  0  0  0  0
   44.6880   30.1590   37.3670 F   0  0  0  0  0  0  0  0  0  0  0  0
   45.4740   31.8790   36.0510 F   0  0  0  0  0  0  0  0  0  0  0  0
  1  6  1  0  0  0  0
  2  3  1  0  0  0  0
  2  1  2  0  0  0  0
  3  4  2  0  0  0  0
  4  5  1  0  0  0  0
  5 11  1  0  0  0  0
  6  5  2  0  0  0  0
  7  8  2  0  0  0  0
  9  1  1  0  0  0  0
  9  7  1  0  0  0  0
 10  2  1  0  0  0  0
 12  9  1  0  0  0  0
 13 22  1  0  0  0  0
 14  7  1  0  0  0  0
 14 13  2  0  0  0  0
 15 14  1  0  0  0  0
 16 15  1  0  0  0  0
 17 15  2  0  0  0  0
 17 19  1  0  0  0  0
 18 17  1  0  0  0  0
 19 20  2  0  0  0  0
 20 13  1  0  0  0  0
 22 21  1  0  0  0  0
 22 24  2  0  0  0  0
 23 22  2  0  0  0  0
 25  3  1  0  0  0  0
 25 27  1  0  0  0  0
 26 25  1  0  0  0  0
 28 25  1  0  0  0  0
M  END
>  <minimizedAffinity>
-5.14500046

$$$$
